data_functionalizedCrystal
_audit_creation_method	'MofGen! by Chris Wilmer'
_symmetry_space_group_name_H-M	'P1'
_symmetry_Int_Tables_number	1
_symmetry_cell_setting	triclinic
loop_
_symmetry_equiv_pos_as_xyz
  x,y,z
_cell_length_a	12.970454
_cell_length_b	17.052862
_cell_length_c	12.970454
_cell_angle_alpha	89.999706
_cell_angle_beta	60.000396
_cell_angle_gamma	50.259371
loop_
_atom_site_label
_atom_site_type_symbol
_atom_site_fract_x
_atom_site_fract_y
_atom_site_fract_z
Zr1	Zr	0.765890	0.914394	0.046017
O2	O	1.041081	0.762837	-0.148656
O3	O	0.532376	0.960854	0.105693
O4	O	0.747464	0.960856	-0.109395
O5	O	0.825995	0.762834	0.236098
O6	O	0.685519	1.117057	-0.078423
O7	O	0.825994	0.762835	0.066432
O8	O	0.300768	1.117053	0.306329
O9	O	1.210746	0.762838	-0.148654
O10	O	0.566759	1.097240	0.154260
O11	O	0.612989	0.980668	0.257766
O12	O	0.866226	0.980670	0.004528
O13	O	0.912456	0.864098	0.108034
Zr14	Zr	0.667097	1.163514	0.366011
Zr15	Zr	0.667095	1.163516	0.095413
Zr16	Zr	0.765892	0.914392	0.316615
Zr17	Zr	1.036487	0.914395	0.046019
Zr18	Zr	0.396500	1.163514	0.366009
O19	O	0.900611	1.117055	0.306335
O20	O	0.900608	1.117057	-0.078421
O21	O	1.041084	0.762835	0.236100
O22	O	0.391907	1.315071	0.560684
O23	O	0.391904	1.315074	0.175928
O24	O	0.532380	0.960851	0.490449
O25	O	0.606992	1.315074	0.175930
O26	O	0.685524	1.117053	0.521422
O27	O	0.747468	0.960852	0.490451
O28	O	0.606994	1.315073	0.345596
O29	O	1.132218	0.960857	-0.109391
O30	O	0.300769	1.117051	0.521419
O31	O	0.222241	1.315071	0.560682
O32	O	0.222239	1.315072	0.345593
O33	O	1.210748	0.762836	0.066435
O34	O	1.132220	0.960855	0.105698
O35	O	0.566761	1.097238	0.407500
O36	O	0.520532	1.213810	0.303993
O37	O	0.819998	1.097240	0.154262
O38	O	0.866228	0.980669	0.257768
C39	C	0.378018	1.038953	0.206011
C40	C	0.263142	1.038953	0.206010
C41	C	0.840070	0.727340	0.144227
C42	C	0.882011	0.621581	0.123257
C43	C	0.374946	0.566862	0.376781
C44	C	0.335535	0.666230	0.396478
C45	C	0.472150	0.655073	0.328175
C46	C	0.648184	0.544537	0.240170
C47	C	0.687599	0.445160	0.220463
C48	C	0.784803	0.533371	0.171857
C49	C	0.960837	0.422835	0.083852
C50	C	1.000244	0.323469	0.064150
C51	C	0.863629	0.334625	0.132453
C52	C	0.745388	0.632749	0.191565
C53	C	1.058041	0.511047	0.035246
C54	C	1.097452	0.411679	0.015549
C55	C	1.054970	1.038955	0.206017
C56	C	1.169845	1.038956	0.206018
C57	C	0.716491	1.038956	-0.132463
C58	C	0.716490	1.038957	-0.247339
C59	C	0.592917	1.350568	0.267801
C60	C	0.550976	1.456327	0.288771
C61	C	0.716496	1.038952	0.544491
C62	C	0.716497	1.038951	0.659367
C63	C	0.254441	1.350567	0.267798
C64	C	0.097625	1.456326	0.288767
C65	C	0.378020	1.038951	0.544488
C66	C	0.263146	1.038950	0.659363
C67	C	0.254444	1.350565	0.606275
C68	C	0.097628	1.456323	0.742120
C69	C	1.178544	0.727343	-0.194247
C70	C	1.335359	0.621585	-0.330092
C71	C	1.178546	0.727341	0.144230
C72	C	1.335363	0.621582	0.123261
C73	C	1.054967	1.038957	-0.132460
C74	C	1.169842	1.038959	-0.247335
C75	C	0.048112	1.445143	0.220443
C76	C	-0.099215	1.544505	0.240118
C77	C	-0.197034	1.655049	0.328125
C78	C	-0.147510	1.666229	0.396450
C79	C	-0.000179	1.566869	0.376767
C80	C	-0.000150	1.566848	0.751887
C81	C	-0.147483	1.666228	0.879519
C82	C	-0.197044	1.655081	0.997383
C83	C	-0.099251	1.544545	0.987611
C84	C	0.048087	1.445167	0.859980
C85	C	1.433150	0.511061	-0.339859
C86	C	1.580517	0.411680	-0.467491
C87	C	1.630083	0.422827	-0.585355
C88	C	1.532283	0.533364	-0.575583
C89	C	1.384926	0.632741	-0.447952
C90	C	1.384886	0.632765	0.191573
C91	C	1.532243	0.533404	0.171868
C92	C	1.630067	0.422860	0.083858
C93	C	1.580538	0.411679	0.015538
C94	C	1.433190	0.511040	0.035236
H95	H	0.440051	0.735987	0.344219
H96	H	0.895708	0.253717	0.116426
H97	H	0.127685	1.355176	0.852045
C98	C	1.193885	0.201883	-0.032649
C99	C	1.317463	0.165336	-0.183463
C100	C	1.511106	0.043755	-0.280254
C101	C	1.581171	-0.041280	-0.226231
C102	C	1.457591	-0.004734	-0.075409
C103	C	1.263948	0.116847	0.021383
H104	H	1.265599	0.228285	-0.223461
H105	H	1.602588	0.016702	-0.391903
H106	H	1.724517	-0.131281	-0.297881
H107	H	1.509456	-0.067683	-0.035410
H108	H	1.172466	0.143900	0.133031
C109	C	1.378659	0.498779	-0.210222
C110	C	1.486265	0.377190	-0.220995
C111	C	1.431794	0.364897	-0.091364
C112	C	1.269717	0.474191	0.049040
C113	C	1.162101	0.595788	0.059819
C114	C	1.216571	0.608082	-0.069812
H115	H	1.606253	0.296276	-0.324935
H116	H	1.511460	0.274882	-0.099344
H117	H	1.229395	0.465091	0.145000
H118	H	1.042112	0.676702	0.163759
H119	H	1.136906	0.698096	-0.061832
C120	C	0.224686	0.579128	0.451903
C121	C	0.268044	0.469820	0.430221
C122	C	0.117771	0.482091	0.505348
C123	C	-0.075861	0.603669	0.602156
C124	C	-0.119228	0.712986	0.623842
C125	C	0.031045	0.700715	0.548716
H126	H	0.411390	0.379813	0.358554
H127	H	0.149875	0.401167	0.489294
H128	H	-0.187102	0.612753	0.657769
H129	H	-0.262574	0.802993	0.695509
H130	H	-0.001059	0.781639	0.564770
H131	H	1.750074	0.341898	-0.689271
H132	H	0.040114	1.575990	0.432415
C133	C	1.688064	0.290101	-0.478218
C134	C	1.776700	0.253584	-0.416047
C135	C	1.884239	0.132009	-0.426769
C136	C	1.903141	0.046951	-0.499661
C137	C	1.814502	0.083466	-0.561836
C138	C	1.706963	0.205041	-0.551115
H139	H	1.762710	0.316550	-0.362084
H140	H	1.949855	0.104979	-0.380742
H141	H	1.982747	-0.043046	-0.507598
H142	H	1.828492	0.020500	-0.615800
H143	H	1.641347	0.232072	-0.597142
H144	H	1.240781	0.321668	-0.056106
H145	H	1.169285	0.501958	-0.020374
H146	H	0.602059	0.722740	0.263229
H147	H	0.192207	0.756222	0.468117
C148	C	-0.255143	1.787835	0.493270
C149	C	-0.274061	1.872895	0.439276
C150	C	-0.381711	1.994504	0.536107
C151	C	-0.470442	2.031053	0.686931
C152	C	-0.451526	1.945991	0.740932
C153	C	-0.343877	1.824382	0.644102
H154	H	-0.208375	1.845841	0.327620
H155	H	-0.395714	2.057472	0.496130
H156	H	-0.550131	2.121075	0.758611
H157	H	-0.517213	1.973046	0.852588
H158	H	-0.329874	1.761414	0.684078
H159	H	1.392878	0.501918	-0.020392
H160	H	1.572659	0.542426	-0.671563
H161	H	0.127754	1.355141	0.148765
H162	H	1.660207	0.321661	-0.056121
H163	H	-0.139515	1.535378	0.184476
H164	H	-0.316999	1.735945	0.344142
H165	H	0.040178	1.575946	0.655930
H166	H	-0.227094	1.756222	0.887452
H167	H	1.305248	0.722767	0.263247
H168	H	-0.317020	1.736010	1.101299
H169	H	-0.139625	1.535486	1.083593
H170	H	1.305305	0.722733	-0.440015
H171	H	1.572542	0.542530	0.227512
H172	H	1.750042	0.341963	0.067830
