data_functionalizedCrystal
_audit_creation_method	'MofGen! by Chris Wilmer'
_symmetry_space_group_name_H-M	'P1'
_symmetry_Int_Tables_number	1
_symmetry_cell_setting	triclinic
loop_
_symmetry_equiv_pos_as_xyz
  x,y,z
_cell_length_a	10.654550
_cell_length_b	10.489741
_cell_length_c	9.130313
_cell_angle_alpha	89.999004
_cell_angle_beta	89.996220
_cell_angle_gamma	84.512038
loop_
_atom_site_label
_atom_site_type_symbol
_atom_site_fract_x
_atom_site_fract_y
_atom_site_fract_z
O1	O	1.667918	0.179156	-0.121919
O2	O	1.302447	0.196226	-0.121895
O3	O	1.493499	0.002089	-0.121899
O4	O	1.476867	0.373293	-0.121915
O5	O	1.493497	0.002094	0.121700
O6	O	1.302445	0.196231	0.121703
O7	O	1.667916	0.179161	0.121680
Cu8	Cu	1.485180	0.187697	0.143934
Cu9	Cu	1.485183	0.187690	-0.144150
O10	O	1.476864	0.373298	0.121683
C11	C	1.255648	0.194975	-0.000093
C12	C	1.116203	0.191225	-0.000084
C13	C	1.036771	0.305530	-0.000110
C14	C	0.905748	0.301999	-0.000135
C15	C	0.933603	0.069849	-0.000114
C16	C	1.064623	0.073381	-0.000078
C17	C	1.020688	0.439560	-0.000129
C18	C	0.889665	0.436029	-0.000154
C19	C	1.492241	-0.045439	-0.000100
C20	C	1.488483	-0.187067	-0.000103
C21	C	1.366923	-0.255148	-0.000106
C22	C	1.424346	-0.347296	0.119997
C23	C	1.424377	-0.347276	-0.120172
C24	C	1.545956	-0.277349	0.120099
C25	C	1.545970	-0.277320	-0.120178
C26	C	1.603481	-0.369440	-0.000045
C27	C	1.714715	0.180412	-0.000126
C28	C	1.854160	0.184162	-0.000145
C29	C	1.478122	0.420826	-0.000118
C30	C	1.481880	0.562454	-0.000126
N31	N	1.485187	0.187700	0.346557
N32	N	1.485186	0.187677	-0.346772
C33	C	1.569807	0.101766	0.423207
C34	C	1.569803	0.101751	0.576544
C35	C	1.400557	0.273615	0.576567
C36	C	1.400555	0.273623	0.423232
C37	C	1.667524	0.002545	0.423195
C38	C	1.667520	0.002530	0.576532
H39	H	0.847957	0.486527	-0.102110
C40	C	1.068018	0.496561	-0.140433
C41	C	0.965820	0.530711	-0.233424
C42	C	1.009372	0.583234	-0.362678
H43	H	1.125578	0.435167	-0.187797
H44	H	1.109311	0.570441	-0.117665
H45	H	0.924547	0.456841	-0.256194
H46	H	0.908251	0.592117	-0.186106
H47	H	1.050665	0.657114	-0.339910
H48	H	1.066932	0.521833	-0.410029
H49	H	0.940037	0.606422	-0.425783
C50	C	1.355991	-0.388506	-0.255743
C51	C	1.418704	-0.351363	-0.381215
C52	C	1.355746	-0.389332	-0.506120
H53	H	1.271954	-0.349026	-0.255792
H54	H	1.354802	-0.478952	-0.255320
H55	H	1.419880	-0.260934	-0.381638
H56	H	1.502737	-0.390840	-0.381214
H57	H	1.354556	-0.479778	-0.505698
H58	H	1.271711	-0.349848	-0.506155
H59	H	1.398293	-0.364146	-0.591268
H60	H	1.703518	-0.418912	0.000015
C61	C	1.638783	-0.128243	0.367980
C62	C	1.621205	-0.208255	0.487499
C63	C	1.594710	-0.328736	0.436691
H64	H	1.707207	-0.164652	0.310206
H65	H	1.564289	-0.119285	0.310229
H66	H	1.695691	-0.217217	0.545225
H67	H	1.552778	-0.171887	0.545285
H68	H	1.520215	-0.319778	0.378941
H69	H	1.663137	-0.365133	0.378917
H70	H	1.582768	-0.383036	0.517776
H71	H	1.636964	-0.090122	0.624085
H72	H	0.891590	-0.026096	-0.000132
H73	H	1.764042	0.024385	0.618141
C74	C	0.829007	0.490147	0.140141
C75	C	0.922378	0.529588	0.233119
C76	C	0.866543	0.579458	0.362360
H77	H	0.786504	0.426064	0.187525
H78	H	0.770308	0.561326	0.117354
H79	H	0.981055	0.458417	0.255907
H80	H	0.964887	0.593683	0.185781
H81	H	0.807844	0.650637	0.339573
H82	H	0.824042	0.515369	0.409730
H83	H	0.929885	0.606235	0.425455
H84	H	1.331651	0.343570	0.639012
C85	C	1.233634	-0.188936	0.000357
C86	C	1.170570	-0.224192	0.126415
C87	C	1.047793	-0.163209	0.126908
H88	H	1.189860	-0.213832	-0.084000
H89	H	1.236906	-0.098747	-0.000435
H90	H	1.167292	-0.314362	0.127193
H91	H	1.214306	-0.199295	0.210793
H92	H	1.051065	-0.073019	0.126116
H93	H	1.004031	-0.188108	0.042546
H94	H	1.004992	-0.187111	0.212443
C95	C	1.614711	-0.235900	-0.255402
C96	C	1.720537	-0.175659	-0.212514
C97	C	1.783888	-0.137497	-0.337054
H98	H	1.559847	-0.177880	-0.311055
H99	H	1.640784	-0.308911	-0.313314
H100	H	1.694462	-0.102658	-0.154625
H101	H	1.775431	-0.233655	-0.156878
H102	H	1.809962	-0.210507	-0.394967
H103	H	1.729015	-0.079481	-0.392698
H104	H	1.855705	-0.096629	-0.307972
H105	H	1.372910	-0.378281	0.221542
C106	C	1.789241	0.043932	0.360038
C107	C	1.869874	0.071355	0.474498
C108	C	1.982015	0.109471	0.416373
H109	H	1.770930	0.118247	0.301504
H110	H	1.828942	-0.023148	0.301515
H111	H	1.830181	0.138429	0.532997
H112	H	1.888220	-0.002943	0.533042
H113	H	2.021715	0.042391	0.357850
H114	H	1.963692	0.183783	0.357839
H115	H	2.036742	0.128070	0.494024
H116	H	1.331641	0.343586	0.360825
H117	H	1.129293	-0.019697	-0.000036
H118	H	1.050043	0.491981	0.101820
H119	H	1.597345	-0.246540	0.221751
