data_functionalizedCrystal
_audit_creation_method	'MofGen! by Chris Wilmer'
_symmetry_space_group_name_H-M	'P1'
_symmetry_Int_Tables_number	1
_symmetry_cell_setting	triclinic
loop_
_symmetry_equiv_pos_as_xyz
  x,y,z
_cell_length_a	15.298068
_cell_length_b	15.297327
_cell_length_c	19.076919
_cell_angle_alpha	101.510342
_cell_angle_beta	82.175834
_cell_angle_gamma	110.796215
loop_
_atom_site_label
_atom_site_type_symbol
_atom_site_fract_x
_atom_site_fract_y
_atom_site_fract_z
Zn1	Zn	1.320489	-0.161771	-0.598389
Zn2	Zn	1.299708	-0.311064	-0.498030
Zn3	Zn	1.173371	-0.180267	-0.463305
Zn4	Zn	1.138004	-0.344127	-0.598274
O5	O	1.232893	-0.249307	-0.539500
O6	O	1.446975	-0.159997	-0.599657
O7	O	1.289053	-0.287617	-0.394938
O8	O	1.216384	-0.046758	-0.466740
O9	O	1.431707	-0.269682	-0.525924
O10	O	1.324471	-0.033169	-0.565986
O11	O	1.196234	-0.191522	-0.369425
O12	O	1.039436	-0.223581	-0.466628
O13	O	1.156107	-0.326033	-0.696776
O14	O	1.013452	-0.343968	-0.565790
O15	O	1.290177	-0.192057	-0.696860
O16	O	1.254760	-0.446505	-0.525812
O17	O	1.135956	-0.470796	-0.599461
C18	C	0.992933	-0.289370	-0.512429
C19	C	0.890272	-0.306533	-0.500867
C20	C	0.632601	-0.126877	-0.622161
C21	C	0.729056	-0.110754	-0.633028
C22	C	0.769365	-0.159697	-0.599989
C23	C	0.713209	-0.224766	-0.556081
C24	C	0.616744	-0.240896	-0.545217
C25	C	0.753508	-0.273716	-0.523045
C26	C	0.697352	-0.338785	-0.479136
C27	C	0.600897	-0.354911	-0.468274
C28	C	0.560588	-0.305968	-0.501314
C29	C	0.849973	-0.257587	-0.533908
C30	C	0.834116	-0.371606	-0.456964
C31	C	0.737661	-0.387728	-0.446097
C32	C	1.189289	-0.492628	-0.566410
C33	C	1.170719	-0.596709	-0.577956
C34	C	1.365986	-0.839357	-0.457265
C35	C	1.383434	-0.741567	-0.446414
C36	C	1.330257	-0.705348	-0.479298
C37	C	1.259628	-0.766928	-0.523036
C38	C	1.242174	-0.864728	-0.533884
C39	C	1.206445	-0.730719	-0.555917
C40	C	1.135816	-0.792299	-0.599655
C41	C	1.118366	-0.890089	-0.610501
C42	C	1.171543	-0.926308	-0.577617
C43	C	1.223899	-0.632919	-0.545070
C44	C	1.100087	-0.658290	-0.621689
C45	C	1.082639	-0.756079	-0.632540
C46	C	1.473789	-0.209088	-0.566677
C47	C	1.576445	-0.191949	-0.578258
C48	C	1.221515	-0.260669	-0.723068
C49	C	1.216666	-0.265511	-0.801294
C50	C	1.276691	-0.005032	-0.512502
C51	C	1.295355	0.099063	-0.500998
C52	C	1.284188	-0.198035	-0.838090
C53	C	1.279622	-0.202583	-0.911590
C54	C	1.207537	-0.274612	-0.948294
C55	C	1.140008	-0.342091	-0.911492
C56	C	1.144571	-0.337539	-0.837993
C57	C	1.186401	-0.295704	-1.168108
C58	C	1.181844	-0.300253	-1.241614
C59	C	1.321458	-0.160743	-1.241706
C60	C	1.326018	-0.156200	-1.168206
C61	C	1.258486	-0.223677	-1.131410
N62	N	1.202869	-0.279264	-1.023423
N63	N	1.263151	-0.219020	-1.056281
C64	C	1.244291	-0.237912	-0.356644
C65	C	1.249366	-0.232777	-0.278409
H66	H	0.482046	-0.319098	-0.492473
H67	H	1.342891	-0.139384	-0.808212
H68	H	0.599771	-0.087040	-0.649062
H69	H	1.123140	-0.358910	-1.271496
H70	H	0.895686	-0.204606	-0.569658
F71	F	1.422570	-0.877911	-0.422270
F72	F	1.007473	-0.821628	-0.679087
F73	F	1.299065	-0.567392	-0.498522
H74	H	1.376437	-0.105806	-1.271672
F75	F	1.043484	-0.619749	-0.656685
H76	H	0.866933	-0.411464	-0.430064
H77	H	0.847903	-0.146563	-0.608837
H78	H	1.344466	-0.625722	-0.470460
H79	H	1.089580	-0.392477	-0.808032
H80	H	1.334608	-0.147639	-0.941546
F81	F	1.402741	-0.079538	-1.129148
H82	H	0.555176	-0.407902	-0.432527
H83	H	1.131423	-0.350659	-1.138161
H84	H	1.081312	-0.400736	-0.941382
H85	H	0.774770	-0.057778	-0.668781
F86	F	0.677886	-0.456977	-0.399368
H87	H	1.440938	-0.691432	-0.410802
H88	H	1.157342	-1.005935	-0.586451
H89	H	1.060845	-0.940227	-0.646106
