data_functionalizedCrystal
_audit_creation_method	'MofGen! by Chris Wilmer'
_symmetry_space_group_name_H-M	'P1'
_symmetry_Int_Tables_number	1
_symmetry_cell_setting	triclinic
loop_
_symmetry_equiv_pos_as_xyz
  x,y,z
_cell_length_a	15.944551
_cell_length_b	17.699083
_cell_length_c	16.176319
_cell_angle_alpha	89.995661
_cell_angle_beta	90.001492
_cell_angle_gamma	96.609124
loop_
_atom_site_label
_atom_site_type_symbol
_atom_site_fract_x
_atom_site_fract_y
_atom_site_fract_z
O1	O	1.114321	-0.097612	0.068662
O2	O	1.614321	0.402388	0.568662
O3	O	0.869746	-0.109647	0.068683
O4	O	1.369746	0.390353	0.568683
O5	O	0.998943	0.006548	0.068665
O6	O	1.498943	0.506548	0.568665
O7	O	0.985124	-0.213807	0.068680
O8	O	1.485124	0.286193	0.568680
O9	O	0.998928	0.006548	-0.068829
O10	O	1.498928	0.506548	0.431171
O11	O	0.869731	-0.109647	-0.068810
O12	O	1.369731	0.390353	0.431190
O13	O	1.114306	-0.097612	-0.068831
O14	O	1.614306	0.402388	0.431169
Cu15	Cu	0.992017	-0.103629	-0.081375
Cu16	Cu	1.492017	0.396371	0.418625
Cu17	Cu	0.992035	-0.103630	0.081227
Cu18	Cu	1.492035	0.396370	0.581227
O19	O	0.985108	-0.213807	-0.068813
O20	O	1.485108	0.286193	0.431187
C21	C	0.838445	-0.109147	-0.000061
C22	C	1.338445	0.390853	0.499939
C23	C	0.745203	-0.107650	-0.000054
C24	C	1.245203	0.392350	0.499946
N25	N	0.992010	-0.103629	-0.195740
N26	N	1.492010	0.396371	0.304260
C27	C	0.998440	0.034746	-0.000082
C28	C	1.498440	0.534746	0.499918
C29	C	0.996955	0.118766	-0.000082
C30	C	1.496955	0.618766	0.499918
C31	C	0.530505	-0.032046	-0.000075
C32	C	1.030505	0.467954	0.499925
C33	C	0.469418	-0.067154	0.067719
C34	C	0.969418	0.432846	0.567719
C35	C	0.574482	-0.104940	-0.000063
C36	C	1.074482	0.395060	0.499937
C37	C	0.469426	-0.067171	-0.067839
C38	C	0.969426	0.432829	0.432161
C39	C	0.409575	-0.102317	-0.000077
C40	C	0.909575	0.397683	0.499923
C41	C	0.514624	-0.140068	0.067786
C42	C	1.014624	0.359932	0.567786
C43	C	0.514638	-0.140074	-0.067832
C44	C	1.014638	0.359926	0.432168
C45	C	0.453569	-0.175235	-0.000022
C46	C	0.953569	0.324765	0.499978
C47	C	0.669481	-0.106449	-0.000055
C48	C	1.169481	0.393551	0.499945
C49	C	0.314577	-0.100814	-0.000079
C50	C	0.814577	0.399186	0.499921
C51	C	1.145606	-0.098112	-0.000085
C52	C	1.645606	0.401888	0.499915
C53	C	1.238849	-0.099610	-0.000088
C54	C	1.738849	0.400390	0.499912
C55	C	0.985611	-0.242005	-0.000064
C56	C	1.485611	0.257995	0.499936
C57	C	0.987097	-0.326026	-0.000059
C58	C	1.487097	0.173974	0.499941
C59	C	1.072791	0.167258	-0.000090
C60	C	1.572791	0.667258	0.499910
C61	C	1.071390	0.246203	-0.000083
C62	C	1.571390	0.746203	0.499917
C63	C	0.994152	0.276656	-0.000073
C64	C	1.494152	0.776656	0.499927
C65	C	0.918310	0.228158	-0.000063
C66	C	1.418310	0.728158	0.499937
C67	C	0.919712	0.149214	-0.000065
C68	C	1.419712	0.649214	0.499935
C69	C	0.912656	0.546531	-0.000056
C70	C	1.412656	1.046531	0.499944
C71	C	0.911260	0.625481	-0.000057
C72	C	1.411260	1.125481	0.499943
C73	C	1.064334	0.643520	-0.000074
C74	C	1.564334	1.143520	0.499926
C75	C	1.065735	0.564576	-0.000075
C76	C	1.565735	1.064576	0.499925
C77	C	0.989894	0.516085	-0.000061
C78	C	1.489894	1.016085	0.499939
C79	C	0.991414	0.430484	-0.000067
C80	C	1.491414	0.930484	0.499933
C81	C	0.992632	0.362256	-0.000073
C82	C	1.492632	0.862256	0.499927
C83	C	1.042855	-0.149564	-0.239002
C84	C	1.542855	0.350436	0.260998
C85	C	1.042865	-0.149561	-0.325549
C86	C	1.542865	0.350439	0.174451
C87	C	0.992023	-0.103627	-0.368833
C88	C	1.492023	0.396373	0.131167
C89	C	0.941176	-0.057686	-0.325565
C90	C	1.441176	0.442314	0.174435
C91	C	0.941172	-0.057685	-0.239020
C92	C	1.441172	0.442315	0.260980
C93	C	0.941192	-0.057687	-0.674593
C94	C	1.441192	0.442313	-0.174593
C95	C	0.941198	-0.057693	-0.761145
C96	C	1.441198	0.442307	-0.261145
C97	C	1.042884	-0.149563	-0.761123
C98	C	1.542884	0.350437	-0.261123
C99	C	1.042880	-0.149562	-0.674577
C100	C	1.542880	0.350438	-0.174577
C101	C	0.992037	-0.103619	-0.631317
C102	C	1.492037	0.396381	-0.131317
C103	C	0.992029	-0.103621	-0.537473
C104	C	1.492029	0.396379	-0.037473
C105	C	0.992026	-0.103627	-0.462675
C106	C	1.492026	0.396373	0.037325
N107	N	0.992048	-0.103625	0.195592
N108	N	1.492048	0.396375	0.695592
H109	H	0.563965	0.028449	0.000005
H110	H	1.063965	0.528449	0.500005
C111	C	1.150694	0.531078	-0.000089
C112	C	1.650694	1.031078	0.499911
H113	H	1.140667	0.477117	-0.000096
H114	H	1.640667	0.977117	0.499904
H115	H	1.181922	0.547718	0.047854
H116	H	1.681922	1.047718	0.547854
H117	H	1.181904	0.547726	-0.048046
H118	H	1.681904	1.047726	0.451954
H119	H	0.449379	-0.036323	0.125030
H120	H	0.949379	0.463677	0.625030
H121	H	0.534553	-0.170876	0.125163
H122	H	1.034553	0.329124	0.625163
H123	H	0.420283	-0.235793	0.000021
H124	H	0.920283	0.264207	0.500021
C125	C	1.098786	-0.200090	-0.191397
C126	C	1.598786	0.299910	0.308603
H127	H	1.129075	-0.227440	-0.229561
H128	H	1.629075	0.272560	0.270439
H129	H	1.064298	-0.234904	-0.157632
H130	H	1.564298	0.265096	0.342368
H131	H	1.137508	-0.169087	-0.157640
H132	H	1.637508	0.330913	0.342360
C133	C	0.826294	0.658978	-0.000036
C134	C	1.326294	1.158978	0.499964
H135	H	0.781326	0.618793	-0.000018
H136	H	1.281326	1.118793	0.499982
H137	H	0.822554	0.689403	-0.047981
H138	H	1.322554	1.189403	0.452019
H139	H	0.822583	0.689396	0.047919
H140	H	1.322583	1.189396	0.547919
H141	H	0.534698	-0.170880	-0.125145
H142	H	1.034698	0.329120	0.374855
H143	H	0.449398	-0.036327	-0.125151
H144	H	0.949398	0.463673	0.374849
H145	H	1.135687	0.142470	-0.000102
H146	H	1.635687	0.642470	0.499898
H147	H	1.133144	0.285683	-0.000091
H148	H	1.633144	0.785683	0.499909
H149	H	1.126087	0.683011	-0.000081
H150	H	1.626087	1.183011	0.499919
C151	C	0.829234	0.493201	-0.000055
C152	C	1.329234	0.993201	0.499945
H153	H	0.783036	0.522647	-0.000061
H154	H	1.283036	1.022647	0.499939
H155	H	0.826595	0.462024	0.047890
H156	H	1.326595	0.962024	0.547890
H157	H	0.826597	0.462037	-0.048010
H158	H	1.326597	0.962037	0.451990
C159	C	0.833350	0.261654	-0.000056
C160	C	1.333350	0.761654	0.499944
H161	H	0.843376	0.315616	-0.000065
H162	H	1.343376	0.815616	0.499935
H163	H	0.802134	0.245008	0.047893
H164	H	1.302134	0.745008	0.547893
H165	H	0.802130	0.245011	-0.048007
H166	H	1.302130	0.745011	0.451993
H167	H	0.857958	0.109733	-0.000058
H168	H	1.357958	0.609733	0.499942
H169	H	0.899769	-0.020280	-0.203797
H170	H	1.399769	0.479720	0.296203
H171	H	1.084269	-0.186965	-0.360769
H172	H	1.584269	0.313035	0.139231
H173	H	1.084277	-0.186970	-0.639340
H174	H	1.584277	0.313030	-0.139340
H175	H	0.899785	-0.020281	-0.360814
H176	H	1.399785	0.479719	0.139186
C177	C	1.098820	-0.200093	-0.808711
C178	C	1.598820	0.299907	-0.308711
H179	H	1.091551	-0.193511	-0.866454
H180	H	1.591551	0.306489	-0.366454
H181	H	1.083103	-0.251870	-0.794524
H182	H	1.583103	0.248130	-0.294524
H183	H	1.156320	-0.186060	-0.794521
H184	H	1.656320	0.313940	-0.294521
H185	H	0.899795	-0.020284	-0.796384
H186	H	1.399795	0.479716	-0.296384
C187	C	0.885258	-0.007159	-0.627018
C188	C	1.385258	0.492841	-0.127018
H189	H	0.854973	0.020189	-0.665194
H190	H	1.354973	0.520189	-0.165194
H191	H	0.919744	0.027657	-0.593257
H192	H	1.419744	0.527657	-0.093257
H193	H	0.846532	-0.038157	-0.593258
H194	H	1.346532	0.461843	-0.093258
