data_functionalizedCrystal
_audit_creation_method	'MofGen! by Chris Wilmer'
_symmetry_space_group_name_H-M	'P1'
_symmetry_Int_Tables_number	1
_symmetry_cell_setting	triclinic
loop_
_symmetry_equiv_pos_as_xyz
  x,y,z
_cell_length_a	17.699083
_cell_length_b	23.532357
_cell_length_c	16.776229
_cell_angle_alpha	89.987808
_cell_angle_beta	89.998886
_cell_angle_gamma	83.055654
loop_
_atom_site_label
_atom_site_type_symbol
_atom_site_fract_x
_atom_site_fract_y
_atom_site_fract_z
O1	O	1.003696	0.072022	-0.066186
O2	O	0.783268	0.081392	-0.066214
O3	O	0.900149	-0.006208	-0.066183
O4	O	0.886815	0.159621	-0.066217
O5	O	0.900133	-0.006213	0.066394
O6	O	0.783252	0.081386	0.066363
O7	O	1.003680	0.072016	0.066390
Zn8	Zn	0.893464	0.076700	0.087426
Zn9	Zn	0.893484	0.076708	-0.087249
O10	O	0.886800	0.159616	0.066359
C11	C	0.755065	0.081053	0.000071
C12	C	0.671052	0.080046	0.000062
C13	C	0.899807	-0.027428	0.000108
C14	C	0.898805	-0.090650	0.000115
C15	C	0.622158	0.131465	0.000051
C16	C	0.543220	0.130515	0.000062
C17	C	0.513177	0.078146	0.000077
C18	C	0.562077	0.026723	0.000090
C19	C	0.641014	0.027673	0.000085
C20	C	0.243735	0.022889	0.000110
C21	C	0.164792	0.021942	0.000113
C22	C	0.145940	0.125731	0.000087
C23	C	0.224877	0.126681	0.000082
C24	C	0.273770	0.075259	0.000099
C25	C	0.359364	0.076289	0.000089
C26	C	0.427585	0.077115	0.000081
C27	C	0.892518	-0.482676	-0.072196
C28	C	0.891565	-0.542078	-0.072201
O29	O	0.891053	-0.572794	-0.133661
N30	N	0.891084	-0.571794	0.000066
C31	C	0.891548	-0.542103	0.072342
O32	O	0.891051	-0.572833	0.133809
C33	C	0.892496	-0.482701	0.072345
C34	C	0.892985	-0.452990	0.000074
C35	C	0.893006	-0.452964	-0.144461
C36	C	0.893960	-0.393566	-0.144456
C37	C	0.894427	-0.363880	-0.072186
C38	C	0.893939	-0.393592	0.000079
C39	C	0.892955	-0.453011	0.144620
C40	C	0.893902	-0.393606	0.144618
C41	C	0.894391	-0.363894	0.072347
C42	C	0.895360	-0.304508	0.072354
N43	N	0.895842	-0.274792	0.000088
C44	C	0.895375	-0.304479	-0.072182
C45	C	0.889557	-0.666850	0.072328
C46	C	0.888614	-0.726252	0.072325
C47	C	0.888630	-0.726222	-0.072217
C48	C	0.889577	-0.666821	-0.072214
C49	C	0.890038	-0.637135	0.000062
C50	C	0.897380	-0.179739	-0.072166
C51	C	0.898338	-0.120336	-0.072155
C52	C	0.898319	-0.120370	0.072387
C53	C	0.897365	-0.179768	0.072376
C54	C	0.896893	-0.209451	0.000093
O55	O	0.895869	-0.273754	0.133784
O56	O	0.895862	-0.273740	-0.133640
C57	C	1.031883	0.072355	0.000104
C58	C	1.115896	0.073362	0.000108
C59	C	0.887141	0.180836	0.000067
C60	C	0.888144	0.244058	0.000054
N61	N	0.893456	0.076695	0.206637
N62	N	0.893499	0.076708	-0.206461
C63	C	0.945226	0.037922	0.248368
C64	C	0.945230	0.037922	0.331820
C65	C	0.893467	0.076697	0.373540
C66	C	0.841691	0.115473	0.331803
C67	C	0.841684	0.115470	0.248353
C68	C	0.841718	0.115484	0.668351
C69	C	0.841731	0.115485	0.751807
C70	C	0.945265	0.037935	0.751818
C71	C	0.945258	0.037933	0.668367
C72	C	0.893479	0.076706	0.626638
C73	C	0.893474	0.076705	0.536150
C74	C	0.893475	0.076701	0.464027
H75	H	0.646612	0.174111	0.000038
F76	F	0.888128	-0.757827	-0.149135
H77	H	0.799560	0.147055	0.634381
F78	F	0.786580	0.156736	0.203941
F79	F	0.898817	-0.088765	0.149298
H80	H	0.249333	0.169326	0.000066
H81	H	0.898738	-0.096147	-0.131009
F82	F	1.000329	-0.003346	0.376233
F83	F	0.530102	-0.029013	0.000111
H84	H	0.892558	-0.477193	0.203471
H85	H	0.894266	-0.369438	0.203475
H86	H	0.889934	-0.642684	0.131187
H87	H	0.896974	-0.203961	0.131225
H88	H	0.799577	0.147062	0.785774
F89	F	1.000353	-0.003336	0.623969
F90	F	0.890096	-0.635205	-0.149134
F91	F	0.786596	0.156739	0.376206
F92	F	0.491186	0.185243	0.000047
F93	F	1.000370	-0.003333	0.796235
H94	H	0.987381	0.006349	0.214405
H95	H	0.106121	0.167602	0.000077
H96	H	0.283535	-0.018983	0.000125
F97	F	0.132821	-0.033799	0.000129
H98	H	0.896992	-0.203899	-0.131026
F99	F	0.693051	-0.027054	0.000099
H100	H	0.892623	-0.477128	-0.203316
F101	F	0.894476	-0.361952	-0.221378
H102	H	0.888228	-0.750439	0.131176
