data_functionalizedCrystal
_audit_creation_method	'MofGen! by Chris Wilmer'
_symmetry_space_group_name_H-M	'P1'
_symmetry_Int_Tables_number	1
_symmetry_cell_setting	triclinic
loop_
_symmetry_equiv_pos_as_xyz
  x,y,z
_cell_length_a	10.540539
_cell_length_b	10.540539
_cell_length_c	9.016244
_cell_angle_alpha	89.999933
_cell_angle_beta	89.994699
_cell_angle_gamma	84.525492
loop_
_atom_site_label
_atom_site_type_symbol
_atom_site_fract_x
_atom_site_fract_y
_atom_site_fract_z
O1	O	1.685893	0.178895	-0.123263
O2	O	1.316480	0.195751	-0.123280
O3	O	1.509614	0.002617	-0.123269
O4	O	1.492759	0.372030	-0.123274
O5	O	1.509586	0.002621	0.123411
O6	O	1.316452	0.195755	0.123400
O7	O	1.685865	0.178900	0.123418
Cu8	Cu	1.501156	0.187328	0.145933
Cu9	Cu	1.501189	0.187323	-0.145795
O10	O	1.492730	0.372034	0.123407
C11	C	1.269163	0.194489	0.000058
C12	C	1.128215	0.190707	0.000051
C13	C	1.508336	-0.044684	0.000068
C14	C	1.504554	-0.185632	0.000060
C15	C	0.944788	0.045790	0.000628
C16	C	1.091406	0.049624	0.000057
C17	C	1.066558	0.258600	-0.140811
C18	C	0.920014	0.253785	-0.140914
C19	C	0.919493	0.256660	0.139608
C20	C	1.066475	0.257960	0.141455
C21	C	1.359637	-0.369059	-0.000500
C22	C	1.363471	-0.222441	0.000055
C23	C	1.572434	-0.247287	0.140930
C24	C	1.567619	-0.393832	0.141049
C25	C	1.570520	-0.394355	-0.139473
C26	C	1.571820	-0.247373	-0.141336
C27	C	1.733182	0.180161	0.000077
C28	C	1.874130	0.183943	0.000074
C29	C	1.494008	0.419335	0.000066
C30	C	1.497790	0.560283	0.000064
N31	N	1.501141	0.187331	0.351119
N32	N	1.501213	0.187310	-0.350982
C33	C	1.397510	0.290298	0.586146
C34	C	1.397739	0.290684	0.414255
C35	C	1.633864	0.217464	0.413464
C36	C	1.633298	0.218193	0.585409
C37	C	1.473367	0.053892	0.585663
C38	C	1.470322	0.054757	0.413709
H39	H	1.134008	-0.003797	0.101034
H40	H	1.669083	-0.441800	0.147444
Br41	Br	1.743263	-0.206996	-0.155522
H42	H	1.088912	0.362208	-0.146054
Br43	Br	1.233347	0.260552	0.343996
Br44	Br	1.137556	0.179992	-0.315544
H45	H	1.415177	0.388722	0.629339
Br46	Br	1.427513	0.455681	0.345660
H47	H	1.090700	0.360819	0.149959
Br48	Br	0.840056	0.422894	-0.151572
H49	H	0.916191	-0.009944	0.101649
H50	H	0.872266	0.358564	0.140559
H51	H	1.548979	-0.022762	0.626319
Br52	Br	1.493809	-0.176289	0.315654
H53	H	1.524871	-0.425910	-0.246244
Br54	Br	1.740366	-0.473066	-0.141048
H55	H	1.676041	-0.224933	0.146173
H56	H	1.712919	0.144501	0.372564
Br57	Br	0.873007	0.170146	-0.316412
Br58	Br	1.232613	0.260524	0.655085
H59	H	1.107425	0.208362	0.245664
Br60	Br	0.866901	0.180560	0.317572
H61	H	0.914592	-0.009712	-0.099828
H62	H	1.310059	-0.179839	-0.100926
H63	H	1.372684	0.031916	0.372962
H64	H	1.378630	0.025213	0.629106
Br65	Br	1.673891	0.380427	0.652235
Br66	Br	1.675371	0.377865	0.341668
Br67	Br	1.160966	-0.039648	-0.168826
Br68	Br	1.266759	-0.416723	-0.168879
H69	H	1.304121	-0.399265	0.099949
H70	H	1.712941	0.146204	0.626995
H71	H	1.540849	-0.025564	0.370737
Br72	Br	1.483961	-0.440837	0.316549
Br73	Br	1.489747	-0.178452	-0.315060
Br74	Br	1.273776	-0.152829	0.168631
