data_functionalizedCrystal
_audit_creation_method	'MofGen! by Chris Wilmer'
_symmetry_space_group_name_H-M	'P1'
_symmetry_Int_Tables_number	1
_symmetry_cell_setting	triclinic
loop_
_symmetry_equiv_pos_as_xyz
  x,y,z
_cell_length_a	19.188905
_cell_length_b	19.188930
_cell_length_c	9.730223
_cell_angle_alpha	90.006436
_cell_angle_beta	90.007319
_cell_angle_gamma	83.139668
loop_
_atom_site_label
_atom_site_type_symbol
_atom_site_fract_x
_atom_site_fract_y
_atom_site_fract_z
O1	O	0.926152	0.087081	0.114532
O2	O	1.426152	0.587081	0.614532
O3	O	0.722838	0.098834	0.114487
O4	O	1.222838	0.598834	0.614487
O5	O	0.830362	-0.008699	0.114484
O6	O	1.330362	0.491301	0.614484
O7	O	0.818628	0.194614	0.114535
O8	O	1.318628	0.694614	0.614535
O9	O	0.830361	-0.008696	-0.114096
O10	O	1.330361	0.491304	0.385904
O11	O	0.722837	0.098837	-0.114093
O12	O	1.222837	0.598837	0.385907
O13	O	0.926151	0.087084	-0.114048
O14	O	1.426151	0.587084	0.385952
Zn15	Zn	0.824494	0.092961	-0.150363
Zn16	Zn	1.324494	0.592961	0.349637
Zn17	Zn	0.824495	0.092957	0.150801
Zn18	Zn	1.324495	0.592957	0.650801
O19	O	0.818627	0.194617	-0.114045
O20	O	1.318627	0.694617	0.385955
C21	C	0.696826	0.098458	0.000191
C22	C	1.196826	0.598458	0.500191
C23	C	0.619321	0.097324	0.000172
C24	C	1.119321	0.597324	0.500172
C25	C	0.829982	-0.034708	0.000190
C26	C	1.329982	0.465292	0.500190
C27	C	0.828841	-0.112213	0.000178
C28	C	1.328841	0.387787	0.500178
C29	C	0.582930	0.096778	0.124775
C30	C	1.082930	0.596778	0.624775
C31	C	0.510106	0.095705	0.124792
C32	C	1.010106	0.595705	0.624792
C33	C	0.473678	0.095164	0.000199
C34	C	0.973678	0.595164	0.500199
C35	C	0.510078	0.095714	-0.124420
C36	C	1.010078	0.595714	0.375580
C37	C	0.582899	0.096794	-0.124433
C38	C	1.082899	0.596794	0.375567
N39	N	0.364657	0.053736	-0.092534
N40	N	0.864657	0.553736	0.407466
N41	N	0.295480	0.052709	-0.092513
N42	N	0.795480	0.552709	0.407487
C43	C	0.254272	0.091911	0.000231
C44	C	0.754272	0.591911	0.500231
N45	N	0.284854	0.132171	0.092974
N46	N	0.784854	0.632171	0.592974
N47	N	0.354038	0.133196	0.092957
N48	N	0.854038	0.633196	0.592957
C49	C	0.394716	0.093993	0.000199
C50	C	0.894716	0.593993	0.500199
C51	C	0.138917	0.090203	0.124861
C52	C	0.638917	0.590203	0.624861
C53	C	0.066091	0.089134	0.124872
C54	C	0.566091	0.589134	0.624872
C55	C	0.066065	0.089136	-0.124343
C56	C	0.566065	0.589136	0.375657
C57	C	0.138888	0.090212	-0.124351
C58	C	0.638888	0.590212	0.375649
C59	C	0.175310	0.090742	0.000255
C60	C	0.675310	0.590742	0.500255
C61	C	0.891933	-0.157142	0.000185
C62	C	1.391933	0.342858	0.500185
C63	C	0.890861	-0.229966	0.000207
C64	C	1.390861	0.270034	0.500207
C65	C	0.826694	-0.257857	0.000194
C66	C	1.326694	0.242143	0.500194
C67	C	0.763594	-0.212917	0.000194
C68	C	1.263594	0.287083	0.500194
C69	C	0.764668	-0.140095	0.000186
C70	C	1.264668	0.359905	0.500186
N71	N	0.777646	-0.365856	-0.077607
N72	N	1.277646	0.134144	0.422393
N73	N	0.776630	-0.435035	-0.077603
N74	N	1.276630	0.064965	0.422397
C75	C	0.823456	-0.477265	0.000221
C76	C	1.323456	0.022735	0.500221
N77	N	0.871346	-0.447705	0.078022
N78	N	1.371346	0.052295	0.578022
N79	N	0.872363	-0.378520	0.078011
N80	N	1.372363	0.121480	0.578011
C81	C	0.825523	-0.336819	0.000203
C82	C	1.325523	0.163181	0.500203
C83	C	0.885390	-0.601159	0.000254
C84	C	1.385390	-0.101159	0.500254
C85	C	0.884315	-0.673984	0.000284
C86	C	1.384315	-0.173984	0.500284
C87	C	0.757047	-0.656933	0.000257
C88	C	1.257047	-0.156933	0.500257
C89	C	0.758123	-0.584110	0.000241
C90	C	1.258123	-0.084110	0.500241
C91	C	0.822296	-0.556228	0.000232
C92	C	1.322296	-0.056228	0.500232
C93	C	0.952163	0.087460	0.000251
C94	C	1.452163	0.587460	0.500251
C95	C	1.029668	0.088594	0.000278
C96	C	1.529668	0.588594	0.500278
C97	C	0.819007	0.220626	0.000252
C98	C	1.319007	0.720626	0.500252
C99	C	0.820148	0.298131	0.000273
C100	C	1.320148	0.798131	0.500273
N101	N	0.824498	0.092963	-0.355899
N102	N	1.324498	0.592963	0.144101
C103	C	0.872121	0.045363	-0.427827
C104	C	1.372121	0.545363	0.072173
C105	C	0.872119	0.045355	-0.571709
C106	C	1.372119	0.545355	-0.071709
C107	C	0.776868	0.140551	-0.571725
C108	C	1.276868	0.640551	-0.071725
C109	C	0.776867	0.140556	-0.427845
C110	C	1.276867	0.640556	0.072155
C111	C	0.927116	-0.009596	-0.427819
C112	C	1.427116	0.490404	0.072181
C113	C	0.927114	-0.009604	-0.571702
C114	C	1.427114	0.490396	-0.071702
N115	N	0.824497	0.092950	0.356338
N116	N	1.324497	0.592950	0.856338
H117	H	0.612580	0.097209	0.226239
H118	H	1.112580	0.597209	0.726239
H119	H	0.704801	-0.679641	0.000253
H120	H	1.204801	-0.179641	0.500253
C121	C	0.995337	0.012563	-0.367502
C122	C	1.495337	0.512563	0.132498
N123	N	1.046722	0.029253	-0.322071
N124	N	1.546722	0.529253	0.177929
H125	H	0.935694	-0.710565	0.000297
H126	H	1.435694	-0.210565	0.500297
H127	H	0.480470	0.095261	0.226261
H128	H	0.980470	0.595261	0.726261
H129	H	0.612528	0.097239	-0.225903
H130	H	1.112528	0.597239	0.274097
H131	H	0.980633	0.001724	-0.610737
H132	H	1.480633	0.501724	-0.110737
C133	C	0.693010	-0.243599	0.000169
C134	C	1.193010	0.256401	0.500169
N135	N	0.639844	-0.266707	0.000152
N136	N	1.139844	0.233293	0.500152
H137	H	0.713289	-0.103513	0.000179
H138	H	1.213289	0.396487	0.500179
H139	H	0.937644	-0.578456	0.000253
H140	H	1.437644	-0.078456	0.500253
C141	C	0.962525	-0.126476	0.000188
C142	C	1.462525	0.373524	0.500188
N143	N	1.015696	-0.103377	0.000193
N144	N	1.515696	0.396623	0.500193
H145	H	0.738082	0.179309	-0.369283
H146	H	1.238082	0.679309	0.130717
H147	H	0.168572	0.090642	0.226322
H148	H	0.668572	0.590642	0.726322
C149	C	0.178921	0.090802	-0.261426
C150	C	0.678921	0.590802	0.238574
N151	N	0.209074	0.091248	-0.364677
N152	N	0.709074	0.591248	0.135323
C153	C	0.724476	0.192900	-0.650878
C154	C	1.224476	0.692900	-0.150878
N155	N	0.685014	0.232330	-0.710495
N156	N	1.185014	0.732330	-0.210495
C157	C	0.911858	-0.081909	-0.375075
C158	C	1.411858	0.418091	0.124925
N159	N	0.900363	-0.136373	-0.335348
N160	N	1.400363	0.363627	0.164652
H161	H	0.036462	0.088694	0.226343
H162	H	0.536462	0.588694	0.726343
H163	H	0.910746	-0.060122	-0.616334
H164	H	1.410746	0.439878	-0.116334
H165	H	0.036406	0.088700	-0.225789
H166	H	0.536406	0.588700	0.274211
C167	C	0.470006	0.095118	-0.261472
C168	C	0.970006	0.595118	0.238528
N169	N	0.439823	0.094670	-0.364705
N170	N	0.939823	0.594670	0.135295
H171	H	0.942239	-0.266555	0.000218
H172	H	1.442239	0.233445	0.500218
H173	H	0.706747	-0.547527	0.000227
H174	H	1.206747	-0.047527	0.500227
