data_functionalizedCrystal
_audit_creation_method	'MofGen! by Chris Wilmer'
_symmetry_space_group_name_H-M	'P1'
_symmetry_Int_Tables_number	1
_symmetry_cell_setting	triclinic
loop_
_symmetry_equiv_pos_as_xyz
  x,y,z
_cell_length_a	15.944493
_cell_length_b	15.944551
_cell_length_c	13.596369
_cell_angle_alpha	89.993059
_cell_angle_beta	89.995239
_cell_angle_gamma	83.486891
loop_
_atom_site_label
_atom_site_type_symbol
_atom_site_fract_x
_atom_site_fract_y
_atom_site_fract_z
O1	O	1.114555	0.108102	-0.081780
O2	O	1.614555	0.608102	0.418220
O3	O	0.869999	0.121509	-0.081786
O4	O	1.369999	0.621509	0.418214
O5	O	0.998955	-0.007471	-0.081774
O6	O	1.498955	0.492529	0.418226
O7	O	0.985599	0.237081	-0.081792
O8	O	1.485599	0.737081	0.418208
O9	O	0.998943	-0.007478	0.081809
O10	O	1.498943	0.492522	0.581809
O11	O	0.869986	0.121502	0.081797
O12	O	1.369986	0.621502	0.581797
O13	O	1.114543	0.108095	0.081802
O14	O	1.614543	0.608095	0.581802
Zn15	Zn	0.992262	0.114797	0.107772
Zn16	Zn	1.492262	0.614797	0.607772
Zn17	Zn	0.992279	0.114806	-0.107755
Zn18	Zn	1.492279	0.614806	0.392245
O19	O	0.985586	0.237074	0.081791
O20	O	1.485586	0.737074	0.581791
C21	C	0.838698	0.120957	0.000005
C22	C	1.338698	0.620957	0.500005
C23	C	0.745449	0.119314	0.000004
C24	C	1.245449	0.619314	0.500004
C25	C	0.509689	0.195235	-0.000003
C26	C	1.009689	0.695235	0.499997
C27	C	0.459125	0.154291	0.080660
C28	C	0.959125	0.654291	0.580660
C29	C	0.574728	0.116270	0.000006
C30	C	1.074728	0.616270	0.500006
C31	C	0.459142	0.154279	-0.080620
C32	C	0.959142	0.654279	0.419380
C33	C	0.409819	0.113336	0.000004
C34	C	0.909819	0.613336	0.500004
C35	C	0.525392	0.075347	0.080735
C36	C	1.025392	0.575347	0.580735
C37	C	0.525412	0.075347	-0.080618
C38	C	1.025412	0.575347	0.419382
C39	C	0.474880	0.034345	0.000064
C40	C	0.974880	0.534345	0.500064
C41	C	0.669728	0.117963	0.000008
C42	C	1.169728	0.617963	0.500008
C43	C	0.314821	0.111637	0.000008
C44	C	0.814821	0.611637	0.500008
C45	C	0.998395	-0.038768	0.000018
C46	C	1.498395	0.461232	0.500018
C47	C	0.996732	-0.132014	0.000018
C48	C	1.496732	0.367986	0.500018
C49	C	0.912826	-0.346853	0.000003
C50	C	1.412826	0.153147	0.500003
C51	C	0.951783	-0.407882	0.080660
C52	C	1.451783	0.092118	0.580660
C53	C	0.993725	-0.302739	0.000011
C54	C	1.493725	0.197261	0.500011
C55	C	0.951814	-0.407859	-0.080620
C56	C	1.451814	0.092141	0.419380
C57	C	0.990814	-0.467651	-0.000001
C58	C	1.490814	0.032349	0.499999
C59	C	1.032704	-0.362540	0.080734
C60	C	1.532704	0.137460	0.580734
C61	C	1.032725	-0.362510	-0.080618
C62	C	1.532725	0.137490	0.419382
C63	C	1.071741	-0.423521	0.000059
C64	C	1.571741	0.076479	0.500059
C65	C	0.995399	-0.207737	0.000018
C66	C	1.495399	0.292263	0.500018
C67	C	0.989146	-0.562652	-0.000002
C68	C	1.489146	-0.062652	0.499998
C69	C	1.145844	0.108646	0.000009
C70	C	1.645844	0.608646	0.500009
C71	C	1.239092	0.110289	0.000005
C72	C	1.739092	0.610289	0.500005
C73	C	0.986147	0.268372	-0.000003
C74	C	1.486147	0.768372	0.499997
C75	C	0.987809	0.361617	-0.000010
C76	C	1.487809	0.861617	0.499990
N77	N	0.992257	0.114791	0.254864
N78	N	1.492257	0.614791	0.754864
N79	N	0.992291	0.114806	-0.254847
N80	N	1.492291	0.614806	0.245153
C81	C	0.992278	0.114807	0.656155
C82	C	1.492278	0.614807	1.156155
C83	C	0.992270	0.114805	0.544504
C84	C	1.492270	0.614805	1.044504
C85	C	0.992268	0.114799	0.455513
C86	C	1.492268	0.614799	0.955513
C87	C	0.992259	0.114796	0.343855
C88	C	1.492259	0.614796	0.843855
H89	H	0.525313	0.263254	0.000068
H90	H	1.025313	0.763254	0.500068
C91	C	0.420063	0.199352	-0.172740
C92	C	0.920063	0.699352	0.327260
N93	N	0.390631	0.233307	-0.242121
N94	N	0.890631	0.733307	0.257879
H95	H	0.845675	-0.313532	0.000082
H96	H	1.345675	0.186468	0.500082
H97	H	0.917560	-0.427986	0.148848
H98	H	1.417560	0.072014	0.648848
H99	H	0.917592	-0.427926	-0.148814
H100	H	1.417592	0.072074	0.351186
H101	H	1.066887	-0.342559	0.148998
H102	H	1.566887	0.157441	0.648998
H103	H	0.430182	0.187636	0.148847
H104	H	0.930182	0.687636	0.648847
H105	H	1.138950	-0.456694	0.000106
H106	H	1.638950	0.043306	0.500106
C107	C	0.564526	0.030332	-0.172742
C108	C	1.064526	0.530332	0.327258
N109	N	0.593983	-0.003570	-0.242138
N110	N	1.093983	0.496430	0.257862
C111	C	0.564326	0.030328	0.172960
C112	C	1.064326	0.530328	0.672960
N113	N	0.593652	-0.003576	0.242425
N114	N	1.093652	0.496424	0.742425
C115	C	0.453977	-0.057613	0.000136
C116	C	0.953977	0.442387	0.500136
N117	N	0.438229	-0.126874	0.000197
N118	N	0.938229	0.373126	0.500197
C119	C	1.078917	-0.335317	-0.172743
C120	C	1.578917	0.164683	0.327257
N121	N	1.113704	-0.314832	-0.242139
N122	N	1.613704	0.185168	0.257861
