data_functionalizedCrystal
_audit_creation_method	'MofGen! by Chris Wilmer'
_symmetry_space_group_name_H-M	'P1'
_symmetry_Int_Tables_number	1
_symmetry_cell_setting	triclinic
loop_
_symmetry_equiv_pos_as_xyz
  x,y,z
_cell_length_a	19.288864
_cell_length_b	14.519709
_cell_length_c	17.766277
_cell_angle_alpha	89.992699
_cell_angle_beta	89.976791
_cell_angle_gamma	83.408195
loop_
_atom_site_label
_atom_site_type_symbol
_atom_site_fract_x
_atom_site_fract_y
_atom_site_fract_z
O1	O	0.921767	0.115045	-0.062837
O2	O	1.421767	0.615045	0.437163
O3	O	0.719562	0.130564	-0.062786
O4	O	1.219562	0.630564	0.437214
O5	O	0.826026	-0.011468	-0.062806
O6	O	1.326026	0.488532	0.437194
O7	O	0.815304	0.257077	-0.062817
O8	O	1.315304	0.757077	0.437183
O9	O	0.826007	-0.011475	0.062382
O10	O	1.326007	0.488525	0.562382
O11	O	0.719544	0.130557	0.062402
O12	O	1.219544	0.630557	0.562402
O13	O	0.921748	0.115038	0.062351
O14	O	1.421748	0.615038	0.562351
Cu15	Cu	0.820644	0.122797	0.073808
Cu16	Cu	1.320644	0.622797	0.573808
Cu17	Cu	0.820666	0.122805	-0.074242
Cu18	Cu	1.320666	0.622805	0.425758
O19	O	0.815285	0.257070	0.062371
O20	O	1.315285	0.757070	0.562371
C21	C	0.693675	0.130061	-0.000185
C22	C	1.193675	0.630061	0.499815
C23	C	0.616566	0.128562	-0.000165
C24	C	1.116566	0.628562	0.499835
C25	C	0.572169	0.211900	-0.000181
C26	C	1.072169	0.711900	0.499819
C27	C	0.499717	0.210492	-0.000189
C28	C	0.999717	0.710492	0.499811
C29	C	0.471665	0.125741	-0.000197
C30	C	0.971665	0.625741	0.499803
C31	C	0.516071	0.042392	-0.000178
C32	C	1.016071	0.542392	0.499822
C33	C	0.588521	0.043803	-0.000162
C34	C	1.088521	0.543803	0.499838
C35	C	0.363169	0.059120	-0.044079
C36	C	0.863169	0.559120	0.455921
C37	C	0.290720	0.057713	-0.044099
C38	C	0.790720	0.557713	0.455901
C39	C	0.248203	0.121387	-0.000242
C40	C	0.748203	0.621387	0.499758
C41	C	0.278144	0.186483	0.043625
C42	C	0.778144	0.686483	0.543625
C43	C	0.350594	0.187894	0.043641
C44	C	0.850594	0.687894	0.543641
C45	C	0.393105	0.124202	-0.000214
C46	C	0.893105	0.624202	0.499786
C47	C	0.125246	0.203203	-0.000265
C48	C	0.625246	0.703203	0.499735
C49	C	0.052792	0.201792	-0.000269
C50	C	0.552792	0.701792	0.499731
C51	C	0.069148	0.033689	-0.000265
C52	C	0.569148	0.533689	0.499735
C53	C	0.141599	0.035103	-0.000254
C54	C	0.641599	0.535103	0.499746
C55	C	0.169644	0.119863	-0.000258
C56	C	0.669644	0.619863	0.499742
C57	C	0.825517	-0.045828	-0.000212
C58	C	1.325517	0.454172	0.499788
C59	C	0.824019	-0.148200	-0.000211
C60	C	1.324019	0.351800	0.499789
C61	C	0.818507	-0.523061	-0.000229
C62	C	1.318507	-0.023061	0.499771
C63	C	0.820037	-0.418762	-0.000224
C64	C	1.320037	0.081238	0.499776
C65	C	0.821263	-0.335633	-0.000219
C66	C	1.321263	0.164367	0.499781
C67	C	0.822794	-0.231329	-0.000215
C68	C	1.322794	0.268671	0.499785
C69	C	0.947636	0.115541	-0.000251
C70	C	1.447636	0.615541	0.499749
C71	C	1.024745	0.117040	-0.000276
C72	C	1.524745	0.617040	0.499724
C73	C	0.815794	0.291430	-0.000225
C74	C	1.315794	0.791430	0.499775
C75	C	0.817291	0.393802	-0.000230
C76	C	1.317291	0.893802	0.499770
N77	N	0.820634	0.122790	0.177938
N78	N	1.320634	0.622790	0.677938
N79	N	0.820682	0.122805	-0.178373
N80	N	1.320682	0.622805	0.321627
C81	C	0.867791	0.059929	0.217316
C82	C	1.367791	0.559929	0.717316
C83	C	0.867795	0.059925	0.296118
C84	C	1.367795	0.559925	0.796118
C85	C	0.820648	0.122798	0.335538
C86	C	1.320648	0.622798	0.835538
C87	C	0.773482	0.185664	0.296151
C88	C	1.273482	0.685664	0.796151
C89	C	0.773475	0.185660	0.217351
C90	C	1.273475	0.685660	0.717351
C91	C	0.811652	0.206826	0.460375
C92	C	1.311652	0.706826	0.960375
C93	C	0.811664	0.206831	0.539173
C94	C	1.311664	0.706831	1.039173
C95	C	0.820667	0.122809	0.578585
C96	C	1.320667	0.622809	1.078585
C97	C	0.829672	0.038778	0.539188
C98	C	1.329672	0.538778	1.039188
C99	C	0.829665	0.038775	0.460387
C100	C	1.329665	0.538775	0.960387
C101	C	0.820651	0.122808	0.420984
C102	C	1.320651	0.622808	0.920984
C103	C	0.867831	0.059938	0.703409
C104	C	1.367831	0.559938	1.203409
C105	C	0.867830	0.059932	0.782212
C106	C	1.367830	0.559932	1.282212
C107	C	0.773521	0.185679	0.782244
C108	C	1.273521	0.685679	1.282244
C109	C	0.773518	0.185676	0.703442
C110	C	1.273518	0.685676	1.203442
C111	C	0.820677	0.122807	0.664029
C112	C	1.320677	0.622807	1.164029
H113	H	0.177748	-0.032760	-0.000246
H114	H	0.677748	0.467240	0.499754
C115	C	0.919692	-0.009224	0.660048
C116	C	1.419692	0.490776	1.160048
H117	H	0.912940	-0.000217	0.607477
H118	H	1.412940	0.499783	1.107477
H119	H	0.912073	-0.070747	0.672974
H120	H	1.412073	0.429253	1.172974
H121	H	0.966063	0.000636	0.672936
H122	H	1.466063	0.500636	1.172936
C123	C	0.919671	-0.009219	0.339446
C124	C	1.419671	0.490781	0.839446
H125	H	0.912918	-0.000214	0.392021
H126	H	1.412918	0.499786	0.892021
H127	H	0.966035	0.000644	0.326505
H128	H	1.466035	0.500644	0.826505
H129	H	0.912055	-0.070751	0.326549
H130	H	1.412055	0.429249	0.826549
H131	H	0.374969	0.240895	0.079362
H132	H	0.874969	0.740895	0.579362
C133	C	0.919708	-0.009217	0.825528
C134	C	1.419708	0.490783	1.325528
H135	H	0.947795	-0.046651	0.790766
H136	H	1.447795	0.453349	1.290766
H137	H	0.894685	-0.047528	0.856287
H138	H	1.394685	0.452472	1.356287
H139	H	0.948660	0.023874	0.856247
H140	H	1.448660	0.523874	1.356247
C141	C	0.485219	-0.050834	-0.000188
C142	C	0.985219	0.449166	0.499812
H143	H	0.522040	-0.100267	-0.000171
H144	H	1.022040	0.399733	0.499829
H145	H	0.457321	-0.054877	-0.043850
H146	H	0.957321	0.445123	0.456150
H147	H	0.457272	-0.054878	0.043467
H148	H	0.957272	0.445122	0.543467
H149	H	0.266348	0.004711	-0.079822
H150	H	0.766348	0.504711	0.420178
C151	C	0.156101	0.296430	-0.000260
C152	C	0.656101	0.796430	0.499740
H153	H	0.205609	0.285336	-0.000259
H154	H	0.705609	0.785336	0.499741
H155	H	0.140847	0.330730	0.043393
H156	H	0.640847	0.830730	0.543393
H157	H	0.140890	0.330735	-0.043924
H158	H	0.640890	0.830735	0.456076
H159	H	0.397781	0.007267	-0.079797
H160	H	0.897781	0.507267	0.420203
C161	C	0.637359	-0.047873	-0.000154
C162	C	1.137359	0.452127	0.499846
H163	H	0.610279	-0.098552	-0.000164
H164	H	1.110279	0.401448	0.499836
H165	H	0.665943	-0.050821	0.043505
H166	H	1.165943	0.449179	0.543505
H167	H	0.665981	-0.050810	-0.043813
H168	H	1.165981	0.449190	0.456187
H169	H	0.016645	0.269658	-0.000277
H170	H	0.516645	0.769658	0.499723
H171	H	0.463563	0.278358	-0.000199
H172	H	0.963563	0.778358	0.499801
C173	C	0.919656	-0.009234	0.173966
C174	C	1.419656	0.490766	0.673966
H175	H	0.947738	-0.046679	0.208709
H176	H	1.447738	0.453321	0.708709
H177	H	0.948605	0.023838	0.143202
H178	H	1.448605	0.523838	0.643202
H179	H	0.894617	-0.047546	0.143250
H180	H	1.394617	0.452454	0.643250
C181	C	0.839559	-0.053649	0.417051
C182	C	1.339559	0.446351	0.917051
H183	H	0.845018	-0.103691	0.451802
H184	H	1.345018	0.396309	0.951802
H185	H	0.879938	-0.055598	0.386204
H186	H	1.379938	0.444402	0.886204
H187	H	0.799813	-0.058683	0.386419
H188	H	1.299813	0.441317	0.886419
C189	C	0.603015	0.305132	-0.000171
C190	C	1.103015	0.805132	0.499829
H191	H	0.566193	0.354564	-0.000173
H192	H	1.066193	0.854564	0.499827
H193	H	0.630965	0.309185	-0.043817
H194	H	1.130965	0.809185	0.456183
H195	H	0.630909	0.309170	0.043500
H196	H	1.130909	0.809170	0.543500
H197	H	0.837003	-0.029641	0.571275
H198	H	1.337003	0.470359	1.071275
C199	C	0.721660	0.254838	0.825597
C200	C	1.221660	0.754838	1.325597
H201	H	0.728420	0.245841	0.878168
H202	H	1.228420	0.745841	1.378168
H203	H	0.675293	0.244980	0.812709
H204	H	1.175293	0.744980	1.312709
H205	H	0.729281	0.316365	0.812671
H206	H	1.229281	0.816365	1.312671
H207	H	0.735121	0.236867	0.671378
H208	H	1.235121	0.736867	1.171378
C209	C	0.721624	0.254824	0.339510
C210	C	1.221624	0.754824	0.839510
H211	H	0.728387	0.245830	0.392081
H212	H	1.228387	0.745830	0.892081
H213	H	0.675257	0.244966	0.326626
H214	H	1.175257	0.744966	0.826626
H215	H	0.729244	0.316351	0.326581
H216	H	1.229244	0.816351	0.826581
C217	C	0.801764	0.299258	0.582503
C218	C	1.301764	0.799258	1.082503
H219	H	0.796389	0.349298	0.547747
H220	H	1.296389	0.849298	1.047747
H221	H	0.841459	0.304247	0.613218
H222	H	1.341459	0.804247	1.113218
H223	H	0.761323	0.301259	0.613267
H224	H	1.261323	0.801259	1.113267
H225	H	0.243528	0.238332	0.079338
H226	H	0.743528	0.738332	0.579338
H227	H	0.735073	0.236850	0.185288
H228	H	1.235073	0.736850	0.685288
C229	C	0.038299	-0.059535	-0.000279
C230	C	0.538299	0.440465	0.499721
H231	H	-0.011209	-0.048441	-0.000296
H232	H	0.488791	0.451559	0.499704
H233	H	0.053508	-0.093846	0.043378
H234	H	0.553508	0.406154	0.543378
H235	H	0.053556	-0.093829	-0.043940
H236	H	0.553556	0.406171	0.456060
H237	H	0.804309	0.275251	0.428292
H238	H	1.304309	0.775251	0.928292
