data_functionalizedCrystal
_audit_creation_method	'MofGen! by Chris Wilmer'
_symmetry_space_group_name_H-M	'P1'
_symmetry_Int_Tables_number	1
_symmetry_cell_setting	triclinic
loop_
_symmetry_equiv_pos_as_xyz
  x,y,z
_cell_length_a	23.532355
_cell_length_b	23.532409
_cell_length_c	22.610064
_cell_angle_alpha	90.007112
_cell_angle_beta	89.997644
_cell_angle_gamma	82.838529
loop_
_atom_site_label
_atom_site_type_symbol
_atom_site_fract_x
_atom_site_fract_y
_atom_site_fract_z
O1	O	0.755283	0.068986	-0.049100
O2	O	1.255283	0.568986	0.450900
O3	O	0.589416	0.079020	-0.049119
O4	O	1.089416	0.579020	0.450881
O5	O	0.677351	-0.008929	-0.049110
O6	O	1.177351	0.491071	0.450890
O7	O	0.667348	0.156936	-0.049109
O8	O	1.167348	0.656936	0.450891
O9	O	0.677335	-0.008916	0.049259
O10	O	1.177335	0.491084	0.549259
O11	O	0.589400	0.079033	0.049251
O12	O	1.089400	0.579033	0.549251
O13	O	0.755268	0.068999	0.049269
O14	O	1.255268	0.568999	0.549269
Zn15	Zn	0.672331	0.074018	0.064878
Zn16	Zn	1.172331	0.574018	0.564878
Zn17	Zn	0.672352	0.074001	-0.064728
Zn18	Zn	1.172352	0.574001	0.435272
O19	O	0.667333	0.156949	0.049260
O20	O	1.167333	0.656949	0.549260
C21	C	0.568191	0.078776	0.000064
C22	C	1.068191	0.578776	0.500064
C23	C	0.504973	0.078022	0.000056
C24	C	1.004973	0.578022	0.500056
C25	C	0.112950	0.073291	0.053702
C26	C	0.612950	0.573291	0.553702
C27	C	0.053551	0.072573	0.053704
C28	C	0.553551	0.572573	0.553704
O29	O	0.022825	0.072189	0.099307
O30	O	0.522825	0.572189	0.599307
N31	N	0.023851	0.072211	0.000084
N32	N	0.523851	0.572211	0.500084
C33	C	0.053554	0.072560	-0.053543
C34	C	0.553554	0.572560	0.446457
O35	O	0.022838	0.072185	-0.099152
O36	O	0.522838	0.572185	0.400848
C37	C	0.112953	0.073273	-0.053545
C38	C	0.612953	0.573273	0.446455
C39	C	0.142649	0.073641	0.000080
C40	C	0.642649	0.573641	0.500080
C41	C	0.142647	0.073659	0.107322
C42	C	0.642647	0.573659	0.607322
C43	C	0.202042	0.074377	0.107320
C44	C	0.702042	0.574377	0.607320
C45	C	0.231741	0.074728	0.053697
C46	C	0.731741	0.574728	0.553697
C47	C	0.202044	0.074360	0.000077
C48	C	0.702044	0.574360	0.500077
C49	C	0.142656	0.073618	-0.107171
C50	C	0.642656	0.573618	0.392829
C51	C	0.202059	0.074331	-0.107168
C52	C	0.702059	0.574331	0.392832
C53	C	0.231755	0.074699	-0.053543
C54	C	0.731755	0.574699	0.446457
C55	C	0.291139	0.075429	-0.053548
C56	C	0.791139	0.575429	0.446452
N57	N	0.320839	0.075792	0.000073
N58	N	0.820839	0.575792	0.500073
C59	C	0.291140	0.075441	0.053696
C60	C	0.791140	0.575441	0.553696
C61	C	-0.071187	0.071060	-0.053535
C62	C	0.428813	0.571060	0.446465
C63	C	-0.130586	0.070351	-0.053534
C64	C	0.369414	0.570351	0.446466
C65	C	-0.130585	0.070364	0.053713
C66	C	0.369415	0.570364	0.553713
C67	C	-0.071186	0.071077	0.053712
C68	C	0.428814	0.571077	0.553712
C69	C	-0.041487	0.071423	0.000085
C70	C	0.458513	0.571423	0.500085
C71	C	0.415874	0.076950	0.053686
C72	C	0.915874	0.576950	0.553686
C73	C	0.475274	0.077671	0.053679
C74	C	0.975274	0.577671	0.553679
C75	C	0.475268	0.077655	-0.053568
C76	C	0.975268	0.577655	0.446432
C77	C	0.415873	0.076938	-0.053562
C78	C	0.915873	0.576938	0.446438
C79	C	0.386177	0.076583	0.000071
C80	C	0.886177	0.576583	0.500071
O81	O	0.321902	0.075811	-0.099127
O82	O	0.821902	0.575811	0.400873
O83	O	0.321864	0.075809	0.099296
O84	O	0.821864	0.575809	0.599296
C85	C	0.677088	-0.030139	0.000073
C86	C	1.177088	0.469861	0.500073
C87	C	0.676322	-0.093356	0.000069
C88	C	1.176322	0.406644	0.500069
C89	C	0.673071	-0.366607	-0.053555
C90	C	1.173071	0.133393	0.446445
C91	C	0.673783	-0.307207	-0.053555
C92	C	1.173783	0.192793	0.446445
O93	O	0.674178	-0.276488	-0.099156
O94	O	1.174178	0.223512	0.400844
N95	N	0.674126	-0.277498	0.000067
N96	N	1.174126	0.222502	0.500067
C97	C	0.673764	-0.307193	0.053692
C98	C	1.173764	0.192807	0.553692
O99	O	0.674123	-0.276469	0.099302
O100	O	1.174123	0.223531	0.599302
C101	C	0.673057	-0.366592	0.053692
C102	C	1.173057	0.133408	0.553692
C103	C	0.672707	-0.396297	0.000066
C104	C	1.172707	0.103703	0.500066
C105	C	0.672722	-0.396312	-0.107176
C106	C	1.172722	0.103688	0.392824
C107	C	0.672009	-0.455708	-0.107176
C108	C	1.172009	0.044292	0.392824
C109	C	0.671646	-0.485399	-0.053554
C110	C	1.171646	0.014601	0.446446
C111	C	0.671994	-0.455693	0.000067
C112	C	1.171994	0.044307	0.500067
C113	C	0.672699	-0.396287	0.107317
C114	C	1.172699	0.103713	0.607317
C115	C	0.671992	-0.455690	0.107312
C116	C	1.171992	0.044310	0.607312
C117	C	0.671642	-0.485395	0.053686
C118	C	1.171642	0.014605	0.553686
C119	C	0.670918	-0.544780	0.053688
C120	C	1.170918	-0.044780	0.553688
N121	N	0.670574	-0.574489	0.000066
N122	N	1.170574	-0.074489	0.500066
C123	C	0.670938	-0.544798	-0.053555
C124	C	1.170938	-0.044798	0.446445
C125	C	0.675251	-0.182450	0.053690
C126	C	1.175251	0.317550	0.553690
C127	C	0.675955	-0.123051	0.053691
C128	C	1.175955	0.376949	0.553691
C129	C	0.675974	-0.123069	-0.053557
C130	C	1.175974	0.376931	0.446443
C131	C	0.675266	-0.182469	-0.053558
C132	C	1.175266	0.317531	0.446442
C133	C	0.674907	-0.212159	0.000068
C134	C	1.174907	0.287841	0.500068
C135	C	0.669441	-0.669534	-0.053550
C136	C	1.169441	-0.169534	0.446450
C137	C	0.668726	-0.728934	-0.053545
C138	C	1.168726	-0.228934	0.446455
C139	C	0.668709	-0.728911	0.053702
C140	C	1.168709	-0.228911	0.553702
C141	C	0.669421	-0.669515	0.053697
C142	C	1.169421	-0.169515	0.553697
C143	C	0.669789	-0.639828	0.000066
C144	C	1.169789	-0.139828	0.500066
O145	O	0.670525	-0.575536	0.099266
O146	O	1.170525	-0.075536	0.599266
O147	O	0.670587	-0.575531	-0.099157
O148	O	1.170587	-0.075531	0.400843
C149	C	0.776492	0.069243	0.000085
C150	C	1.276492	0.569243	0.500085
C151	C	0.839711	0.069998	0.000089
C152	C	1.339711	0.569998	0.500089
C153	C	0.667595	0.178158	0.000075
C154	C	1.167595	0.678158	0.500075
C155	C	0.668362	0.241375	0.000076
C156	C	1.168362	0.741375	0.500076
N157	N	0.672322	0.074029	0.153330
N158	N	1.172322	0.574029	0.653330
N159	N	0.672366	0.073986	-0.153180
N160	N	1.172366	0.573986	0.346820
C161	C	0.711291	0.035063	0.561976
C162	C	1.211291	0.535063	1.061976
C163	C	0.711294	0.035059	0.623896
C164	C	1.211294	0.535059	1.123896
O165	O	0.744403	0.001937	0.655918
O166	O	1.244403	0.501937	1.155918
N167	N	0.672352	0.073989	0.654867
N168	N	1.172352	0.573989	1.154867
C169	C	0.633400	0.112923	0.623916
C170	C	1.133400	0.612923	1.123916
O171	O	0.600276	0.146035	0.655946
O172	O	1.100276	0.646035	1.155946
C173	C	0.633394	0.112924	0.561997
C174	C	1.133394	0.612924	1.061997
C175	C	0.672343	0.073995	0.531029
C176	C	1.172343	0.573995	1.031029
C177	C	0.750237	-0.003863	0.531007
C178	C	1.250237	0.496137	1.031007
C179	C	0.750234	-0.003858	0.469091
C180	C	1.250234	0.496142	0.969091
C181	C	0.711286	0.035073	0.438144
C182	C	1.211286	0.535073	0.938144
C183	C	0.672341	0.074000	0.469113
C184	C	1.172341	0.574000	0.969113
C185	C	0.594440	0.151854	0.531047
C186	C	1.094440	0.651854	1.031047
C187	C	0.594438	0.151851	0.469124
C188	C	1.094438	0.651851	0.969124
C189	C	0.633387	0.112922	0.438156
C190	C	1.133387	0.612922	0.938156
C191	C	0.633391	0.112936	0.376251
C192	C	1.133391	0.612936	0.876251
N193	N	0.672334	0.074006	0.345279
N194	N	1.172334	0.574006	0.845279
C195	C	0.711281	0.035074	0.376226
C196	C	1.211281	0.535074	0.876226
C197	C	0.633413	0.112917	0.753950
C198	C	1.133413	0.612917	1.253950
C199	C	0.633420	0.112919	0.815868
C200	C	1.133420	0.612919	1.315868
C201	C	0.711314	0.035055	0.815843
C202	C	1.211314	0.535055	1.315843
C203	C	0.711309	0.035056	0.753924
C204	C	1.211309	0.535056	1.253924
C205	C	0.672355	0.073987	0.722978
C206	C	1.172355	0.573987	1.222978
C207	C	0.711274	0.035088	0.246198
C208	C	1.211274	0.535088	0.746198
C209	C	0.711269	0.035098	0.184277
C210	C	1.211269	0.535098	0.684277
C211	C	0.633374	0.112960	0.184308
C212	C	1.133374	0.612960	0.684308
C213	C	0.633380	0.112953	0.246223
C214	C	1.133380	0.612953	0.746223
C215	C	0.672332	0.074012	0.277167
C216	C	1.172332	0.574012	0.777167
O217	O	0.600297	0.146040	0.344189
O218	O	1.100297	0.646040	0.844189
O219	O	0.744395	0.001962	0.344188
O220	O	1.244395	0.501962	0.844188
H221	H	0.118488	0.073317	-0.150837
H222	H	0.618488	0.573317	0.349163
H223	H	0.562724	0.183553	0.556253
H224	H	1.062724	0.683553	1.056253
Cl225	Cl	0.239366	0.074836	0.174737
Cl226	Cl	0.739366	0.574836	0.674737
Cl227	Cl	-0.167912	0.069899	-0.120951
Cl228	Cl	0.332088	0.569899	0.379049
Cl229	Cl	0.674793	-0.219768	0.121111
Cl230	Cl	1.174793	0.280232	0.621111
Cl231	Cl	0.671577	-0.493044	-0.174595
Cl232	Cl	1.171577	0.006956	0.325405
Cl233	Cl	0.669860	-0.632170	0.121113
Cl234	Cl	1.169860	-0.132170	0.621113
Cl235	Cl	0.584461	0.161868	0.854793
Cl236	Cl	1.084461	0.661868	1.354793
H237	H	0.669741	-0.645370	-0.097222
H238	H	1.169741	-0.145370	0.402778
Cl239	Cl	0.760276	-0.013889	0.854760
Cl240	Cl	1.260276	0.486111	1.354760
H241	H	0.668411	-0.753096	0.097359
H242	H	1.168411	-0.253096	0.597359
H243	H	0.601669	0.144658	0.271438
H244	H	1.101669	0.644658	0.771438
H245	H	0.601693	0.144624	0.728757
H246	H	1.101693	0.644624	1.228757
H247	H	-0.154776	0.070078	0.097376
H248	H	0.345224	0.570078	0.597376
H249	H	0.226236	0.074613	-0.150838
H250	H	0.726236	0.574613	0.349162
H251	H	0.562716	0.183553	0.443931
H252	H	1.062716	0.683553	0.943931
H253	H	0.672989	-0.372112	0.150984
H254	H	1.172989	0.127888	0.650984
H255	H	0.118472	0.073372	0.150991
H256	H	0.618472	0.573372	0.650991
H257	H	0.668439	-0.753117	-0.097216
H258	H	1.168439	-0.253117	0.402784
Cl259	Cl	0.584413	0.161901	0.145393
Cl260	Cl	1.084413	0.661901	0.645393
H261	H	0.781953	-0.035569	0.556198
H262	H	1.281953	0.464431	1.056198
Cl263	Cl	0.671542	-0.493012	0.174731
Cl264	Cl	1.171542	0.006988	0.674731
Cl265	Cl	0.760244	-0.013866	0.285089
Cl266	Cl	1.260244	0.486134	0.785089
H267	H	-0.047011	0.071378	0.097377
H268	H	0.452989	0.571378	0.597377
H269	H	0.391692	0.076647	-0.097227
H270	H	0.891692	0.576647	0.402773
H271	H	-0.047011	0.071347	-0.097207
H272	H	0.452989	0.571347	0.402793
H273	H	0.743024	0.003356	0.728713
H274	H	1.243024	0.503356	1.228713
H275	H	0.499459	0.077943	-0.097226
H276	H	0.999459	0.577943	0.402774
H277	H	0.781948	-0.035559	0.443880
H278	H	1.281948	0.464441	0.943880
H279	H	0.673020	-0.372145	-0.150844
H280	H	1.173020	0.127855	0.349156
H281	H	0.499450	0.077973	0.097348
H282	H	0.999450	0.577973	0.597348
Cl283	Cl	0.674829	-0.219806	-0.120975
Cl284	Cl	1.174829	0.280194	0.379025
Cl285	Cl	0.676420	-0.085731	-0.120967
Cl286	Cl	1.176420	0.414269	0.379033
H287	H	0.742988	0.003397	0.159064
H288	H	1.242988	0.503397	0.659064
Cl289	Cl	0.378552	0.076505	0.121110
Cl290	Cl	0.878552	0.576505	0.621110
Cl291	Cl	0.676380	-0.085713	0.121109
Cl292	Cl	1.176380	0.414287	0.621109
