data_functionalizedCrystal
_audit_creation_method	'MofGen! by Chris Wilmer'
_symmetry_space_group_name_H-M	'P1'
_symmetry_Int_Tables_number	1
_symmetry_cell_setting	triclinic
loop_
_symmetry_equiv_pos_as_xyz
  x,y,z
_cell_length_a	10.654545
_cell_length_b	8.597304
_cell_length_c	9.730223
_cell_angle_alpha	82.295717
_cell_angle_beta	89.997167
_cell_angle_gamma	84.908900
loop_
_atom_site_label
_atom_site_type_symbol
_atom_site_fract_x
_atom_site_fract_y
_atom_site_fract_z
O1	O	1.669013	0.220431	-0.140372
O2	O	1.303645	0.241442	-0.142865
O3	O	1.493519	0.002547	-0.114572
O4	O	1.479139	0.459326	-0.168665
O5	O	1.493507	0.002541	0.114009
O6	O	1.303633	0.241436	0.085716
O7	O	1.669001	0.220424	0.088209
Zn8	Zn	1.486315	0.230929	0.123254
Zn9	Zn	1.486331	0.230937	-0.177911
O10	O	1.479127	0.459319	0.059915
C11	C	1.256833	0.239898	-0.028393
C12	C	1.117365	0.235286	-0.027849
C13	C	1.051842	0.233112	0.097008
C14	C	0.920799	0.228753	0.097524
C15	C	0.920814	0.228750	-0.151686
C16	C	1.051855	0.233097	-0.152199
C17	C	1.491969	-0.055944	0.006642
C18	C	1.487351	-0.230222	0.027272
C19	C	1.715813	0.221969	-0.026266
C20	C	1.855281	0.226580	-0.026819
C21	C	1.480678	0.517811	-0.061302
C22	C	1.485295	0.692088	-0.081940
N23	N	1.486313	0.230922	0.328792
N24	N	1.486343	0.230932	-0.383446
C25	C	1.570418	0.125184	0.413241
C26	C	1.570431	0.125185	0.557123
C27	C	1.402228	0.336675	0.532094
C28	C	1.402211	0.336665	0.388215
H29	H	0.867457	0.226983	0.199196
F30	F	1.121559	0.235435	0.229353
H31	H	1.485564	-0.297040	0.136572
F32	F	1.659944	0.012642	0.646997
F33	F	1.487611	-0.220586	-0.224798
H34	H	1.333756	0.422771	0.580491
F35	F	0.851085	0.226389	-0.284016
F36	F	1.659924	0.012639	0.350004
H37	H	1.105205	0.234864	-0.253878
F38	F	1.312685	0.449205	0.298331
