data_functionalizedCrystal
_audit_creation_method	'MofGen! by Chris Wilmer'
_symmetry_space_group_name_H-M	'P1'
_symmetry_Int_Tables_number	1
_symmetry_cell_setting	triclinic
loop_
_symmetry_equiv_pos_as_xyz
  x,y,z
_cell_length_a	19.851628
_cell_length_b	14.628931
_cell_length_c	14.628931
_cell_angle_alpha	59.999864
_cell_angle_beta	90.000060
_cell_angle_gamma	60.003920
loop_
_atom_site_label
_atom_site_type_symbol
_atom_site_fract_x
_atom_site_fract_y
_atom_site_fract_z
Zr1	Zr	0.648900	1.000684	-0.120012
O2	O	0.541345	1.191373	-0.265965
O3	O	0.681871	0.809983	-0.075269
O4	O	0.681871	1.000689	-0.265975
O5	O	0.541345	1.000667	0.075173
O6	O	0.792720	1.000707	-0.265983
O7	O	0.541345	1.000667	-0.075259
O8	O	0.792720	0.659569	0.075155
O9	O	0.541345	1.341805	-0.265965
O10	O	0.778658	0.888439	-0.056193
O11	O	0.695932	0.888426	0.056078
O12	O	0.695932	1.112957	-0.168453
O13	O	0.613207	1.112944	-0.056181
Zr14	Zr	0.825690	1.000712	0.119896
Zr15	Zr	0.825691	1.000712	-0.120025
Zr16	Zr	0.648899	1.000684	0.119910
Zr17	Zr	0.648899	1.240606	-0.120012
Zr18	Zr	0.825691	0.760790	0.119897
O19	O	0.792719	1.191413	0.075154
O20	O	0.792719	1.191413	-0.265984
O21	O	0.541345	1.191373	0.075173
O22	O	0.933244	0.810023	0.265849
O23	O	0.933245	0.810023	-0.075288
O24	O	0.681870	0.809983	0.265868
O25	O	0.933245	1.000729	-0.075288
O26	O	0.792719	1.000707	0.265860
O27	O	0.681870	1.000689	0.265868
O28	O	0.933244	1.000729	0.075143
O29	O	0.681870	1.341827	-0.265976
O30	O	0.792719	0.659569	0.265860
O31	O	0.933245	0.659591	0.265850
O32	O	0.933245	0.659591	0.075144
O33	O	0.541345	1.341805	-0.075260
O34	O	0.681870	1.341827	-0.075270
O35	O	0.778657	0.888439	0.168338
O36	O	0.861383	0.888452	0.056066
O37	O	0.778657	1.112971	-0.056194
O38	O	0.695932	1.112957	0.056078
C39	C	0.737295	0.700592	-0.000057
C40	C	0.737295	0.598739	-0.000057
C41	C	0.679260	0.632080	-0.078812
C42	C	0.679259	0.526811	-0.078814
C43	C	0.516156	1.000663	-0.000041
C44	C	0.441104	1.000651	-0.000035
C45	C	0.304843	0.878263	0.061160
C46	C	0.237394	0.939455	0.105529
C47	C	0.303672	1.000684	-0.000050
C48	C	0.237386	0.939484	-0.044381
C49	C	0.170923	1.000708	-0.000063
C50	C	0.237212	1.061877	0.044382
C51	C	0.237215	1.061889	-0.105587
C52	C	0.169753	1.123171	-0.061244
C53	C	0.380147	1.000667	-0.000039
C54	C	0.094447	1.000734	-0.000071
C55	C	0.958433	1.000733	-0.000074
C56	C	1.033486	1.000745	-0.000080
C57	C	0.737295	1.000698	-0.300163
C58	C	0.737295	1.000698	-0.402016
C59	C	0.737294	1.300804	-0.000058
C60	C	0.737294	1.402657	-0.000059
C61	C	0.679260	1.000689	-0.447421
C62	C	0.679259	1.000689	-0.552691
C63	C	0.737294	1.000698	0.300048
C64	C	0.737294	1.000698	0.401900
C65	C	0.958434	0.700627	-0.000074
C66	C	1.033486	0.598786	-0.000079
C67	C	0.737295	0.700592	0.300048
C68	C	0.737295	0.598739	0.401901
C69	C	0.958433	0.700627	0.300031
C70	C	1.033486	0.598786	0.401879
C71	C	0.516156	1.300769	-0.300147
C72	C	0.441104	1.402610	-0.401994
C73	C	0.516156	1.300769	-0.000042
C74	C	0.441103	1.402610	-0.000036
C75	C	0.737295	1.300804	-0.300164
C76	C	0.737295	1.402657	-0.402017
C77	C	1.025550	0.550954	-0.058690
C78	C	1.096063	0.455276	-0.058718
C79	C	1.174512	0.407427	-0.000127
C80	C	1.182446	0.455269	0.058486
C81	C	1.111934	0.550951	0.058506
C82	C	1.111920	0.550967	0.391103
C83	C	1.182447	0.455290	0.486790
C84	C	1.174537	0.407427	0.593253
C85	C	1.096094	0.455255	0.604027
C86	C	1.025569	0.550937	0.508340
C87	C	0.362669	1.450440	-0.391218
C88	C	0.292143	1.546147	-0.486906
C89	C	0.300053	1.594016	-0.593368
C90	C	0.378496	1.546181	-0.604142
C91	C	0.449020	1.450483	-0.508456
C92	C	0.449039	1.450452	0.058565
C93	C	0.378526	1.546156	0.058566
C94	C	0.300078	1.594009	-0.000028
C95	C	0.292143	1.546163	-0.058636
C96	C	0.362656	1.450467	-0.058643
C97	C	0.778332	0.553336	0.502999
C98	C	0.778333	0.448066	0.608271
H99	H	0.629571	0.555181	-0.146236
H100	H	0.228278	1.585078	-0.478111
H101	H	0.512910	1.411498	0.106286
H102	H	0.786982	0.492261	0.067365
H103	H	0.384926	1.585168	-0.690835
H104	H	0.512883	1.411540	-0.517243
H105	H	0.385003	1.585097	0.106296
H106	H	0.362676	0.774749	0.112988
H107	H	0.702159	0.559680	0.393284
H108	H	0.813461	0.592405	0.511616
H109	H	0.242669	1.671931	-0.000013
H110	H	0.242620	1.671939	-0.671273
H111	H	0.786979	1.000713	-0.441080
H112	H	0.702165	0.441689	0.511263
H113	H	0.629575	1.000674	-0.591734
H114	H	0.112012	1.226768	-0.113000
H115	H	0.228261	1.585139	-0.106342
H116	H	0.629577	0.738558	-0.146239
H117	H	1.231921	0.329515	-0.000152
H118	H	0.237918	1.113584	-0.194816
H119	H	1.089666	0.416271	0.690721
H120	H	0.961680	0.589912	-0.106415
H121	H	0.786980	0.374278	0.067374
H122	H	0.629571	1.000688	-0.408364
H123	H	0.356182	1.411516	-0.106360
H124	H	1.089587	0.416335	-0.106447
H125	H	1.246329	0.416296	0.106188
H126	H	1.118407	0.589884	0.106240
H127	H	1.118377	0.589924	0.304424
H128	H	1.246312	0.416358	0.477998
H129	H	0.813467	0.409019	0.694998
H130	H	0.236726	0.887720	-0.081870
H131	H	0.236722	0.887715	0.194777
H132	H	0.237811	1.113581	0.081972
H133	H	1.231969	0.329516	0.671158
H134	H	0.786986	1.000699	-0.559056
H135	H	0.961707	0.589859	0.517130
H136	H	0.356213	1.411471	-0.304540
