data_functionalizedCrystal
_audit_creation_method	'MofGen! by Chris Wilmer'
_symmetry_space_group_name_H-M	'P1'
_symmetry_Int_Tables_number	1
_symmetry_cell_setting	triclinic
loop_
_symmetry_equiv_pos_as_xyz
  x,y,z
_cell_length_a	14.971482
_cell_length_b	9.065218
_cell_length_c	13.448316
_cell_angle_alpha	89.995277
_cell_angle_beta	89.993798
_cell_angle_gamma	84.314247
loop_
_atom_site_label
_atom_site_type_symbol
_atom_site_fract_x
_atom_site_fract_y
_atom_site_fract_z
O1	O	1.188382	0.192235	-0.082675
O2	O	1.688382	0.692235	0.417325
O3	O	0.928153	0.215265	-0.082679
O4	O	1.428153	0.715265	0.417321
O5	O	1.063647	-0.011002	-0.082675
O6	O	1.563647	0.488998	0.417325
O7	O	1.052889	0.418502	-0.082679
O8	O	1.552889	0.918502	0.417321
O9	O	1.063629	-0.011016	0.082709
O10	O	1.563629	0.488984	0.582709
O11	O	0.928136	0.215251	0.082705
O12	O	1.428136	0.715251	0.582705
O13	O	1.188365	0.192221	0.082709
O14	O	1.688365	0.692221	0.582709
Cu15	Cu	1.058249	0.203735	0.097808
Cu16	Cu	1.558249	0.703735	0.597808
Cu17	Cu	1.058269	0.203751	-0.097778
Cu18	Cu	1.558269	0.703751	0.402222
O19	O	1.052871	0.418488	0.082705
O20	O	1.552871	0.918488	0.582705
C21	C	0.894812	0.214229	0.000012
C22	C	1.394812	0.714229	0.500012
C23	C	0.795492	0.211145	0.000010
C24	C	1.295492	0.711145	0.500010
C25	C	0.748827	0.209686	0.090162
C26	C	1.248827	0.709686	0.590162
C27	C	0.655507	0.206765	0.090163
C28	C	1.155507	0.706765	0.590163
C29	C	0.608852	0.205314	0.000011
C30	C	1.108852	0.705314	0.500011
C31	C	0.655524	0.206770	-0.090147
C32	C	1.155524	0.706770	0.409853
C33	C	0.748843	0.209680	-0.090147
C34	C	1.248843	0.709680	0.409853
C35	C	0.461017	0.200708	-0.090141
C36	C	0.961017	0.700708	0.409859
C37	C	0.367691	0.197800	-0.090141
C38	C	0.867691	0.697800	0.409859
C39	C	0.367680	0.197793	0.090170
C40	C	0.867680	0.697793	0.590170
C41	C	0.461000	0.200703	0.090170
C42	C	0.961000	0.700703	0.590170
C43	C	0.507665	0.202161	0.000011
C44	C	1.007665	0.702161	0.500011
C45	C	1.062604	-0.065974	0.000015
C46	C	1.562604	0.434026	0.500015
C47	C	1.059513	-0.229754	0.000011
C48	C	1.559513	0.270246	0.500011
C49	C	1.221706	0.193257	0.000015
C50	C	1.721706	0.693257	0.500015
C51	C	1.321026	0.196341	0.000011
C52	C	1.821026	0.696341	0.500011
C53	C	1.053914	0.473460	0.000012
C54	C	1.553914	0.973460	0.500012
C55	C	1.057005	0.637240	0.000010
C56	C	1.557005	1.137240	0.500010
N57	N	1.058241	0.203722	0.235372
N58	N	1.558241	0.703722	0.735372
N59	N	1.058284	0.203752	-0.235342
N60	N	1.558284	0.703752	0.264658
C61	C	1.118256	0.103573	0.287414
C62	C	1.618256	0.603573	0.787414
C63	C	1.118262	0.103572	0.391517
C64	C	1.618262	0.603572	0.891517
C65	C	1.058256	0.203728	0.443576
C66	C	1.558256	0.703728	0.943576
C67	C	0.998234	0.303882	0.391527
C68	C	1.498234	0.803882	0.891527
C69	C	0.998224	0.303875	0.287426
C70	C	1.498224	0.803875	0.787426
C71	C	0.998258	0.303892	0.608507
C72	C	1.498258	0.803892	1.108507
C73	C	0.998269	0.303902	0.712616
C74	C	1.498269	0.803902	1.212616
C75	C	1.118296	0.103589	0.712599
C76	C	1.618296	0.603589	1.212599
C77	C	1.118287	0.103582	0.608497
C78	C	1.618287	0.603582	1.108497
C79	C	1.058266	0.203738	0.556455
C80	C	1.558266	0.703738	1.056455
H81	H	0.329707	0.196621	-0.163551
H82	H	0.829707	0.696621	0.336449
H83	H	0.949352	0.385425	0.245054
H84	H	1.449352	0.885425	0.745054
H85	H	0.617531	0.205579	-0.163550
H86	H	1.117531	0.705579	0.336450
H87	H	0.786805	0.210879	0.163574
H88	H	1.286805	0.710879	0.663574
H89	H	1.167167	0.022038	0.754978
H90	H	1.667167	0.522038	1.254978
H91	H	0.617518	0.205551	0.163574
H92	H	1.117518	0.705551	0.663574
H93	H	0.329681	0.196606	0.163581
H94	H	0.829681	0.696606	0.663581
O95	O	0.799181	0.211264	-0.187381
O96	O	1.299181	0.711264	0.312619
H97	H	0.751063	0.209782	-0.250071
H98	H	1.251063	0.709782	0.249929
H99	H	0.498982	0.201893	0.163579
H100	H	0.998982	0.701893	0.663579
H101	H	0.499009	0.201896	-0.163558
H102	H	0.999009	0.701896	0.336442
H103	H	1.167124	0.022020	0.245034
H104	H	1.667124	0.522020	0.745034
O105	O	1.183009	-0.004419	0.447653
O106	O	1.683009	0.495581	0.947653
H107	H	1.224746	-0.074043	0.393964
H108	H	1.724746	0.425957	0.893964
O109	O	1.183003	-0.004445	0.552341
O110	O	1.683003	0.495555	1.052341
H111	H	1.224734	-0.074101	0.606017
H112	H	1.724734	0.425899	1.106017
O113	O	0.933531	0.411893	0.768772
O114	O	1.433531	0.911893	1.268772
H115	H	0.891779	0.481514	0.715097
H116	H	1.391779	0.981514	1.215097
O117	O	0.933528	0.411922	0.552369
O118	O	1.433528	0.911922	1.052369
H119	H	0.891810	0.481583	0.606056
H120	H	1.391810	0.981583	1.106056
H121	H	0.949371	0.385427	0.433919
H122	H	1.449371	0.885427	0.933919
