data_functionalizedCrystal
_audit_creation_method	'MofGen! by Chris Wilmer'
_symmetry_space_group_name_H-M	'P1'
_symmetry_Int_Tables_number	1
_symmetry_cell_setting	triclinic
loop_
_symmetry_equiv_pos_as_xyz
  x,y,z
_cell_length_a	19.077236
_cell_length_b	13.032721
_cell_length_c	19.076919
_cell_angle_alpha	99.138159
_cell_angle_beta	89.887323
_cell_angle_gamma	99.764912
loop_
_atom_site_label
_atom_site_type_symbol
_atom_site_fract_x
_atom_site_fract_y
_atom_site_fract_z
Zn1	Zn	1.024260	-0.383250	-0.471946
Zn2	Zn	1.524260	0.116750	0.028054
Zn3	Zn	1.013877	-0.552445	-0.368304
Zn4	Zn	1.513877	-0.052445	0.131696
Zn5	Zn	0.911525	-0.382696	-0.349681
Zn6	Zn	1.411525	0.117304	0.150319
Zn7	Zn	0.890445	-0.566531	-0.482196
Zn8	Zn	1.390445	-0.066531	0.017804
O9	O	0.960027	-0.471231	-0.418032
O10	O	1.460027	0.028769	0.081968
O11	O	1.121720	-0.400031	-0.461702
O12	O	1.621720	0.099969	0.038298
O13	O	1.004776	-0.523801	-0.267001
O14	O	1.504776	-0.023801	0.232999
O15	O	0.939647	-0.235025	-0.353816
O16	O	1.439647	0.264975	0.146184
O17	O	1.114091	-0.524338	-0.385556
O18	O	1.614091	-0.024338	0.114444
O19	O	1.022474	-0.235432	-0.443644
O20	O	1.522474	0.264568	0.056356
O21	O	0.929579	-0.399087	-0.253318
O22	O	1.429579	0.100913	0.246682
O23	O	0.809892	-0.412745	-0.363755
O24	O	1.309892	0.087255	0.136245
O25	O	0.903720	-0.548344	-0.579669
O26	O	1.403720	-0.048344	-0.079669
O27	O	0.794405	-0.547808	-0.461114
O28	O	1.294405	-0.047808	0.038886
O29	O	1.002033	-0.413689	-0.572139
O30	O	1.502033	0.086311	-0.072139
O31	O	0.984335	-0.702058	-0.395495
O32	O	1.484335	-0.202058	0.104505
O33	O	0.893651	-0.712407	-0.479171
O34	O	1.393651	-0.212407	0.020829
C35	C	0.776521	-0.481746	-0.411526
C36	C	1.276521	0.018254	0.088474
C37	C	0.698014	-0.486271	-0.408762
C38	C	1.198014	0.013729	0.091238
C39	C	0.665091	-0.423788	-0.447186
C40	C	1.165091	0.076212	0.052814
C41	C	0.591325	-0.428034	-0.444582
C42	C	1.091325	0.071966	0.055418
C43	C	0.550484	-0.494769	-0.403558
C44	C	1.050484	0.005231	0.096442
C45	C	0.583412	-0.557254	-0.365129
C46	C	1.083412	-0.057254	0.134871
C47	C	0.657176	-0.553002	-0.367730
C48	C	1.157176	-0.053002	0.132270
C49	C	0.329446	-0.514410	-0.391518
C50	C	0.829446	-0.014410	0.108482
C51	C	0.255676	-0.518660	-0.388922
C52	C	0.755676	-0.018660	0.111078
C53	C	0.263595	-0.389437	-0.468374
C54	C	0.763595	0.110563	0.031626
C55	C	0.337360	-0.385196	-0.470974
C56	C	0.837360	0.114804	0.029026
C57	C	0.370283	-0.447677	-0.432543
C58	C	0.870283	0.052323	0.067457
N59	N	0.475083	-0.499113	-0.400897
N60	N	0.975083	0.000887	0.099103
N61	N	0.445682	-0.443326	-0.435200
N62	N	0.945682	0.056674	0.064800
C63	C	0.935597	-0.745541	-0.440483
C64	C	1.435597	-0.245541	0.059517
C65	C	0.925210	-0.862889	-0.450113
C66	C	1.425210	-0.362889	0.049887
C67	C	0.965484	-0.910052	-0.413039
C68	C	1.465484	-0.410052	0.086961
C69	C	0.954749	-1.031338	-0.422991
C70	C	1.454749	-0.531338	0.077009
C71	C	1.144249	-0.460675	-0.424563
C72	C	1.644249	0.039325	0.075437
C73	C	1.222753	-0.456177	-0.427346
C74	C	1.722753	0.043823	0.072654
C75	C	0.951683	-0.482650	-0.602247
C76	C	1.451683	0.017350	-0.102247
C77	C	0.948128	-0.487516	-0.680748
C78	C	1.448128	0.012484	-0.180748
C79	C	0.984570	-0.195849	-0.395509
C80	C	1.484570	0.304151	0.104491
C81	C	0.995029	-0.078498	-0.385912
C82	C	1.495029	0.421502	0.114088
C83	C	0.997641	-0.419697	-0.713709
C84	C	1.497641	0.080303	-0.213709
C85	C	0.994292	-0.424266	-0.787469
C86	C	1.494292	0.075734	-0.287469
C87	C	0.941432	-0.496659	-0.828267
C88	C	1.441432	0.003341	-0.328267
C89	C	0.891914	-0.564481	-0.795301
C90	C	1.391914	-0.064481	-0.295301
C91	C	0.895260	-0.559906	-0.721542
C92	C	1.395260	-0.059906	-0.221542
C93	C	0.925932	-0.517853	-1.049283
C94	C	1.425932	-0.017853	-0.549283
C95	C	0.922590	-0.522425	-1.123047
C96	C	1.422590	-0.022425	-0.623047
C97	C	1.024969	-0.382208	-1.115209
C98	C	1.524969	0.117792	-0.615209
C99	C	1.028313	-0.377644	-1.041450
C100	C	1.528313	0.122356	-0.541450
C101	C	0.978792	-0.445462	-1.008490
C102	C	1.478792	0.054538	-0.508490
N103	N	0.938009	-0.501333	-0.903662
N104	N	1.438009	-0.001333	-0.403662
N105	N	0.982213	-0.440782	-0.933096
N106	N	1.482213	0.059218	-0.433096
C107	C	0.968385	-0.459777	-0.234529
C108	C	1.468385	0.040223	0.265471
C109	C	0.972104	-0.454606	-0.156008
C110	C	1.472104	0.045394	0.343992
H111	H	0.564523	-0.377156	-0.475873
H112	H	1.064523	0.122844	0.024127
N113	N	0.364938	-0.581816	-0.350074
N114	N	0.864938	-0.081816	0.149926
H115	H	0.389891	-0.630822	-0.383811
H116	H	0.889891	-0.130822	0.116189
H117	H	0.400806	-0.534983	-0.314948
H118	H	0.900806	-0.034983	0.185052
N119	N	1.021685	-0.844617	-0.361228
N120	N	1.521685	-0.344617	0.138772
H121	H	1.069967	-0.861466	-0.375580
H122	H	1.569967	-0.361466	0.124420
H123	H	1.021326	-0.767273	-0.361481
H124	H	1.521326	-0.267273	0.138519
H125	H	0.698339	-0.369447	-0.480595
H126	H	1.198339	0.130553	0.019405
N127	N	0.228092	-0.322033	-0.509814
N128	N	0.728092	0.177967	-0.009814
H129	H	0.237184	-0.340929	-0.562063
H130	H	0.737184	0.159071	-0.062063
H131	H	0.175178	-0.334873	-0.501886
H132	H	0.675178	0.165127	-0.001886
N133	N	1.054662	-0.341622	-0.669712
N134	N	1.554662	0.158378	-0.169712
H135	H	1.084957	-0.380764	-0.643788
H136	H	1.584957	0.119236	-0.143788
H137	H	1.085468	-0.299379	-0.701836
H138	H	1.585468	0.200621	-0.201836
H139	H	0.882785	-0.912303	-0.489225
H140	H	1.382785	-0.412303	0.010775
N141	N	0.539369	-0.629241	-0.320882
N142	N	1.039369	-0.129241	0.179118
H143	H	0.555951	-0.608858	-0.269539
H144	H	1.055951	-0.108858	0.230461
H145	H	0.487654	-0.622432	-0.325122
H146	H	0.987654	-0.122432	0.174878
H147	H	0.912321	-1.080748	-0.462106
H148	H	1.412321	-0.580748	0.037894
H149	H	0.683981	-0.603882	-0.336440
H150	H	1.183981	-0.103882	0.163560
N151	N	1.085317	-0.299525	-0.997461
N152	N	1.585317	0.200475	-0.497461
H153	H	1.062352	-0.250348	-0.961846
H154	H	1.562352	0.249652	-0.461846
H155	H	1.115610	-0.338702	-0.971567
H156	H	1.615610	0.161298	-0.471567
N157	N	1.047684	-0.351099	-0.823018
N158	N	1.547684	0.148901	-0.323018
H159	H	1.081677	-0.304543	-0.785980
H160	H	1.581677	0.195457	-0.285980
H161	H	1.075154	-0.394083	-0.858304
H162	H	1.575154	0.105917	-0.358304
N163	N	0.834885	-0.642540	-0.839299
N164	N	1.334885	-0.142540	-0.339299
H165	H	0.840275	-0.635145	-0.891026
H166	H	1.340275	-0.135145	-0.391026
H167	H	0.839728	-0.716522	-0.832968
H168	H	1.339728	-0.216522	-0.332968
H169	H	1.065285	-0.326993	-1.142053
H170	H	1.565285	0.173007	-0.642053
N171	N	0.381410	-0.313221	-0.515225
N172	N	0.881410	0.186779	-0.015225
H173	H	0.349359	-0.274281	-0.539172
H174	H	0.849359	0.225719	-0.039172
H175	H	0.417664	-0.260752	-0.483605
H176	H	0.917664	0.239248	0.016395
H177	H	0.222424	-0.573009	-0.355515
H178	H	0.722424	-0.073009	0.144485
H179	H	1.037463	-1.029089	-0.346803
H180	H	1.537463	-0.529089	0.153197
N181	N	0.865577	-0.600513	-1.167055
N182	N	1.365577	-0.100513	-0.667055
H183	H	0.834712	-0.642781	-1.134983
H184	H	1.334712	-0.142781	-0.634983
H185	H	0.835338	-0.561305	-1.192986
H186	H	1.335338	-0.061305	-0.692986
H187	H	0.854935	-0.615121	-0.694706
H188	H	1.354935	-0.115121	-0.194706
H189	H	0.885617	-0.573090	-1.022458
H190	H	1.385617	-0.073090	-0.522458
