data_functionalizedCrystal
_audit_creation_method	'MofGen! by Chris Wilmer'
_symmetry_space_group_name_H-M	'P1'
_symmetry_Int_Tables_number	1
_symmetry_cell_setting	triclinic
loop_
_symmetry_equiv_pos_as_xyz
  x,y,z
_cell_length_a	10.489689
_cell_length_b	26.210047
_cell_length_c	10.489741
_cell_angle_alpha	90.005235
_cell_angle_beta	95.471502
_cell_angle_gamma	90.012283
loop_
_atom_site_label
_atom_site_type_symbol
_atom_site_fract_x
_atom_site_fract_y
_atom_site_fract_z
O1	O	-1.694103	-0.042467	0.179632
O2	O	-1.322899	-0.042459	0.196594
O3	O	-1.516947	-0.042460	0.002514
O4	O	-1.500054	-0.042466	0.373712
O5	O	-1.516910	0.042398	0.002545
O6	O	-1.322861	0.042399	0.196626
O7	O	-1.694065	0.042391	0.179664
Cu8	Cu	-1.508460	0.050143	0.188148
Cu9	Cu	-1.508504	-0.050211	0.188110
O10	O	-1.500016	0.042392	0.373744
C11	C	-1.275347	-0.000029	0.195343
C12	C	-1.133714	-0.000026	0.191552
C13	C	-0.951326	-0.000032	0.308272
C14	C	-1.043491	-0.041871	0.249953
C15	C	-1.043427	0.041793	0.249953
C16	C	-0.973539	-0.041908	0.126416
C17	C	-0.973466	0.041793	0.126433
C18	C	-1.065603	-0.000056	0.068025
N19	N	-1.508438	0.120727	0.188173
C20	C	-1.594420	0.473241	0.102200
C21	C	-1.594447	0.686900	0.102186
O22	O	-1.667504	0.714521	0.029089
N23	N	-1.508510	0.713621	0.188095
C24	C	-1.422554	0.686925	0.274009
O25	O	-1.349450	0.714556	0.347071
C26	C	-1.422521	0.473267	0.274015
C27	C	-1.508473	0.446548	0.188109
C28	C	-1.680364	0.446522	0.016300
C29	C	-1.680360	0.393111	0.016309
C30	C	-1.594413	0.366418	0.102218
C31	C	-1.508470	0.393137	0.188118
C32	C	-1.336559	0.446572	0.359921
C33	C	-1.336557	0.393154	0.359913
C34	C	-1.422508	0.366435	0.274007
C35	C	-1.422519	0.313033	0.274036
N36	N	-1.508457	0.286311	0.188127
C37	C	-1.594404	0.313004	0.102218
C38	C	-1.422579	0.799098	0.274001
C39	C	-1.422588	0.852512	0.274001
C40	C	-1.594481	0.852483	0.102176
C41	C	-1.594476	0.799068	0.102183
C42	C	-1.508516	0.772377	0.188092
C43	C	-1.594392	0.200836	0.102244
C44	C	-1.594385	0.147420	0.102264
C45	C	-1.422488	0.147453	0.274083
C46	C	-1.422499	0.200865	0.274068
C47	C	-1.508456	0.227555	0.188138
O48	O	-1.349492	0.285378	0.347086
O49	O	-1.667477	0.285364	0.029148
C50	C	-1.594423	0.526652	0.102191
C51	C	-1.508479	0.553371	0.188091
C52	C	-1.422532	0.526679	0.274000
C53	C	-1.508488	0.606785	0.188091
C54	C	-1.594435	0.633478	0.102182
C55	C	-1.680373	0.606756	0.016273
C56	C	-1.680370	0.553345	0.016282
C57	C	-1.336594	0.553400	0.359910
C58	C	-1.336605	0.606812	0.359894
C59	C	-1.422552	0.633504	0.273985
C60	C	-0.741614	-0.000037	0.180935
C61	C	-0.883240	-0.000034	0.184786
C62	C	-1.515652	-0.000031	-0.045002
C63	C	-1.511835	-0.000032	-0.186631
N64	N	-1.508535	0.879205	0.188092
C65	C	-1.388368	-0.000033	-0.254748
C66	C	-1.446674	0.041805	-0.346866
C67	C	-1.446740	-0.041859	-0.346871
C68	C	-1.570192	0.041841	-0.276883
C69	C	-1.570242	-0.041860	-0.276879
C70	C	-1.628638	-0.000012	-0.368970
C71	C	-1.501311	-0.000038	0.421260
C72	C	-1.505128	-0.000040	0.562888
H73	H	-0.942746	-0.077319	0.074202
H74	H	-1.664381	0.125667	0.032309
H75	H	-1.394499	-0.077233	-0.377839
O76	O	-1.253001	0.472573	0.443191
C77	C	-1.078962	0.532858	0.468663
C78	C	-1.173549	0.503455	0.374216
H79	H	-1.014683	0.557825	0.412934
H80	H	-1.134522	0.557898	0.532916
H81	H	-1.017596	0.504585	0.530071
H82	H	-1.234939	0.531691	0.312724
H83	H	-1.117911	0.478407	0.310050
H84	H	-1.730243	0.000009	-0.418413
H85	H	-1.622455	-0.077235	-0.245858
H86	H	-1.266553	0.371424	0.429869
O87	O	-1.338885	0.226744	0.357562
C88	C	-1.168421	0.221129	0.528017
C89	C	-1.263042	0.191763	0.433525
H90	H	-1.107096	0.192859	0.589477
H91	H	-1.104109	0.246118	0.472379
H92	H	-1.224081	0.246154	0.592213
H93	H	-1.207486	0.166709	0.369307
H94	H	-1.327354	0.166805	0.489243
H95	H	-1.115061	-0.000076	-0.033574
H96	H	-1.074502	-0.077242	0.302193
H97	H	-0.901635	-0.000075	0.409777
O98	O	-1.339031	0.773253	0.357587
C99	C	-1.168496	0.778933	0.527967
C100	C	-1.263059	0.808263	0.433390
H101	H	-1.107030	0.807225	0.589260
H102	H	-1.224076	0.753936	0.592313
H103	H	-1.104312	0.753917	0.472272
H104	H	-1.327266	0.833306	0.488981
H105	H	-1.207400	0.833227	0.369044
H106	H	-1.622373	0.077251	-0.246048
O107	O	-1.763905	0.527473	-0.067297
C108	C	-1.934448	0.533102	-0.237671
C109	C	-1.839889	0.562460	-0.143100
H110	H	-1.995924	0.561376	-0.298964
H111	H	-1.878863	0.508112	-0.302018
H112	H	-1.998622	0.508077	-0.181970
H113	H	-1.775693	0.587513	-0.198696
H114	H	-1.895554	0.587417	-0.078753
H115	H	-0.942427	0.077168	0.074240
H116	H	-1.074367	0.077163	0.302237
O117	O	-1.678010	0.226679	0.018725
C118	C	-1.848450	0.220998	-0.151750
C119	C	-1.753839	0.191669	-0.057219
H120	H	-1.909764	0.192705	-0.213194
H121	H	-1.912773	0.245989	-0.096144
H122	H	-1.792780	0.246020	-0.215958
H123	H	-1.809404	0.166619	0.007012
H124	H	-1.689517	0.166710	-0.112905
H125	H	-1.750346	0.371359	-0.053647
H126	H	-1.750352	0.468250	-0.053664
O127	O	-1.763739	0.632770	-0.067135
C128	C	-1.839947	0.715052	-0.143224
C129	C	-1.745461	0.685653	-0.048719
H130	H	-1.825221	0.757814	-0.128349
H131	H	-1.822389	0.704588	-0.245583
H132	H	-1.942256	0.704515	-0.125645
H133	H	-1.643116	0.696175	-0.066182
H134	H	-1.763131	0.696120	0.053608
H135	H	-1.664465	0.777317	0.032231
O136	O	-1.677911	0.878361	0.018542
C137	C	-1.750541	0.894722	-0.202554
C138	C	-1.656020	0.865372	-0.107977
H139	H	-1.732857	0.884239	-0.304865
H140	H	-1.852892	0.884204	-0.185078
H141	H	-1.735792	0.937484	-0.187723
H142	H	-1.670652	0.822603	-0.122752
H143	H	-1.553703	0.875932	-0.125477
O144	O	-1.252928	0.632740	0.443224
C145	C	-1.031804	0.649071	0.515871
C146	C	-1.126432	0.619687	0.421423
H147	H	-0.929513	0.638521	0.498296
H148	H	-1.046443	0.691840	0.501118
H149	H	-1.049416	0.638579	0.618193
H150	H	-1.108878	0.630137	0.319064
H151	H	-1.111771	0.576926	0.436288
H152	H	-1.352612	0.874263	0.343967
H153	H	-1.286854	0.000011	-0.205078
H154	H	-1.352515	0.125712	0.344034
O155	O	-1.253233	0.527500	0.443551
C156	C	-1.180479	0.511219	0.664654
C157	C	-1.274978	0.540570	0.570058
H158	H	-1.198009	0.521784	0.766955
H159	H	-1.195222	0.468445	0.650036
H160	H	-1.078173	0.521727	0.646990
H161	H	-1.377321	0.530105	0.587664
H162	H	-1.260124	0.583337	0.584698
H163	H	-1.394416	0.077178	-0.377854
