data_functionalizedCrystal
_audit_creation_method	'MofGen! by Chris Wilmer'
_symmetry_space_group_name_H-M	'P1'
_symmetry_Int_Tables_number	1
_symmetry_cell_setting	triclinic
loop_
_symmetry_equiv_pos_as_xyz
  x,y,z
_cell_length_a	14.044220
_cell_length_b	15.500227
_cell_length_c	14.044220
_cell_angle_alpha	93.086249
_cell_angle_beta	86.811122
_cell_angle_gamma	93.097991
loop_
_atom_site_label
_atom_site_type_symbol
_atom_site_fract_x
_atom_site_fract_y
_atom_site_fract_z
O1	O	1.281229	0.071855	-0.226116
O2	O	1.614562	0.405188	0.107217
O3	O	1.947896	0.738522	0.440551
O4	O	1.004559	0.071877	-0.217809
O5	O	1.337892	0.405210	0.115524
O6	O	1.671226	0.738544	0.448858
O7	O	1.138741	0.071858	-0.083627
O8	O	1.472074	0.405191	0.249706
O9	O	1.805407	0.738524	0.583039
O10	O	1.147047	0.071874	-0.360298
O11	O	1.480381	0.405208	-0.026964
O12	O	1.813714	0.738541	0.306369
O13	O	1.130595	-0.072030	-0.091735
O14	O	1.463929	0.261304	0.241599
O15	O	1.797262	0.594637	0.574932
O16	O	0.996413	-0.072011	-0.225917
O17	O	1.329747	0.261323	0.107417
O18	O	1.663080	0.594656	0.440750
O19	O	1.273084	-0.072032	-0.234223
O20	O	1.606417	0.261301	0.099110
O21	O	1.939750	0.594634	0.432443
Cu22	Cu	1.134005	-0.085160	-0.230810
Cu23	Cu	1.467338	0.248174	0.102523
Cu24	Cu	1.800672	0.581507	0.435856
Cu25	Cu	1.143638	0.085004	-0.221222
Cu26	Cu	1.476971	0.418337	0.112111
Cu27	Cu	1.810304	0.751671	0.445444
O28	O	1.138902	-0.072013	-0.368405
O29	O	1.472235	0.261320	-0.035072
O30	O	1.805569	0.594653	0.298261
C31	C	0.964865	-0.000064	-0.218227
C32	C	1.298198	0.333269	0.115106
C33	C	1.631531	0.666603	0.448440
C34	C	0.858722	-0.000056	-0.207382
C35	C	1.192056	0.333277	0.125951
C36	C	1.525389	0.666611	0.459285
N37	N	1.127236	-0.204844	-0.237554
N38	N	1.460570	0.128490	0.095779
N39	N	1.793903	0.461823	0.429113
C40	C	0.664383	-0.000074	-0.187557
C41	C	0.997717	0.333259	0.145777
C42	C	1.331050	0.666592	0.479110
C43	C	0.613254	-0.000073	-0.264471
C44	C	0.946587	0.333260	0.068862
C45	C	1.279920	0.666593	0.402196
C46	C	0.505117	-0.000084	-0.253440
C47	C	0.838450	0.333250	0.079893
C48	C	1.171784	0.666583	0.413227
C49	C	0.772530	-0.000064	-0.198586
C50	C	1.105863	0.333269	0.134747
C51	C	1.439197	0.666602	0.468080
C52	C	1.184118	-0.250128	-0.180721
C53	C	1.517451	0.083205	0.152612
C54	C	1.850784	0.416538	0.485945
C55	C	1.179008	-0.340700	-0.185831
C56	C	1.512342	-0.007367	0.147502
C57	C	1.845675	0.325966	0.480836
C58	C	1.117022	-0.385986	-0.247779
C59	C	1.450356	-0.052653	0.085554
C60	C	1.783689	0.280681	0.418887
C61	C	1.060135	-0.340695	-0.304614
C62	C	1.393468	-0.007362	0.028719
C63	C	1.726802	0.325972	0.362052
C64	C	1.065240	-0.250125	-0.299499
C65	C	1.398573	0.083209	0.033834
C66	C	1.731906	0.416542	0.367168
C67	C	1.098631	-0.659450	-0.266191
C68	C	1.431964	-0.326117	0.067142
C69	C	1.765297	0.007216	0.400476
C70	C	1.093532	-0.750027	-0.271304
C71	C	1.426865	-0.416694	0.062029
C72	C	1.760199	-0.083361	0.395362
C73	C	1.212405	-0.750026	-0.152519
C74	C	1.545738	-0.416693	0.180814
C75	C	1.879071	-0.083360	0.514147
C76	C	1.217508	-0.659454	-0.147413
C77	C	1.550842	-0.326121	0.185920
C78	C	1.884175	0.007213	0.519253
C79	C	1.160617	-0.614171	-0.204245
C80	C	1.493951	-0.280838	0.129089
C81	C	1.827284	0.052496	0.462422
C82	C	1.111800	-0.478565	-0.253006
C83	C	1.445134	-0.145232	0.080327
C84	C	1.778467	0.188101	0.413661
C85	C	1.165835	-0.521593	-0.199013
C86	C	1.499168	-0.188260	0.134321
C87	C	1.832501	0.145073	0.467654
C88	C	1.312778	-0.000089	-0.233805
C89	C	1.646112	0.333244	0.099528
C90	C	1.979445	0.666577	0.432861
C91	C	1.418921	-0.000092	-0.244650
C92	C	1.752254	0.333242	0.088683
C93	C	2.085587	0.666575	0.422017
C94	C	1.131032	-0.000086	-0.052059
C95	C	1.464366	0.333247	0.281274
C96	C	1.797699	0.666581	0.614608
C97	C	1.120188	-0.000086	0.054084
C98	C	1.453521	0.333247	0.387417
C99	C	1.786854	0.666580	0.720750
N100	N	1.150413	0.204688	-0.214471
N101	N	1.483746	0.538021	0.118862
N102	N	1.817080	0.871355	0.452195
C103	C	1.146610	-0.000068	-0.399973
C104	C	1.479944	0.333266	-0.066640
C105	C	1.813277	0.666599	0.266693
C106	C	1.157455	-0.000062	-0.506116
C107	C	1.490789	0.333272	-0.172782
C108	C	1.824122	0.666605	0.160551
C109	C	1.100362	-0.000072	0.248422
C110	C	1.433696	0.333261	0.581755
C111	C	1.767029	0.666594	0.915089
C112	C	1.177276	-0.000076	0.299552
C113	C	1.510610	0.333258	0.632885
C114	C	1.843943	0.666591	0.966218
C115	C	1.166245	-0.000068	0.407688
C116	C	1.499579	0.333265	0.741022
C117	C	1.832912	0.666599	1.074355
C118	C	1.111392	-0.000080	0.140276
C119	C	1.444725	0.333253	0.473609
C120	C	1.778059	0.666587	0.806942
H121	H	0.650693	-0.000065	-0.338604
H122	H	0.984027	0.333268	-0.005271
H123	H	1.317360	0.666602	0.328063
H124	H	1.251413	-0.000023	0.262116
H125	H	1.584746	0.333310	0.595449
H126	H	1.918080	0.666643	0.928782
H127	H	1.026235	-0.000064	0.285859
H128	H	1.359569	0.333269	0.619193
H129	H	1.692902	0.666602	0.952526
H130	H	0.626946	-0.000084	-0.113430
H131	H	0.960279	0.333250	0.219904
H132	H	1.293613	0.666583	0.553237
O133	O	1.250970	-0.201285	-0.113901
O134	O	1.584304	0.132048	0.219432
O135	O	1.917637	0.465382	0.552765
H136	H	1.289656	-0.247994	-0.075233
H137	H	1.622989	0.085339	0.258100
H138	H	1.956323	0.418672	0.591434
O139	O	1.240376	-0.389547	-0.124552
O140	O	1.573710	-0.056213	0.208781
O141	O	1.907043	0.277120	0.542114
H142	H	1.284351	-0.342841	-0.080632
H143	H	1.617685	-0.009507	0.252701
H144	H	1.951018	0.323826	0.586035
H145	H	1.267982	-0.622584	-0.096970
H146	H	1.601316	-0.289251	0.236363
H147	H	1.934649	0.044082	0.569696
H148	H	1.258722	-0.786904	-0.106249
H149	H	1.592055	-0.453571	0.227085
H150	H	1.925388	-0.120237	0.560418
H151	H	1.043053	-0.786895	-0.321754
H152	H	1.376386	-0.453561	0.011580
H153	H	1.709720	-0.120228	0.344913
H154	H	1.052309	-0.622588	-0.312467
H155	H	1.385643	-0.289255	0.020866
H156	H	1.718976	0.044079	0.354199
O157	O	1.232676	-0.472743	-0.132192
O158	O	1.566009	-0.139410	0.201141
O159	O	1.899342	0.193924	0.534474
H160	H	1.307154	-0.490104	-0.151663
H161	H	1.640488	-0.156771	0.181670
H162	H	1.973821	0.176563	0.515004
H163	H	1.018920	-0.213255	-0.345777
H164	H	1.352253	0.120079	-0.012444
H165	H	1.685587	0.453412	0.320890
O166	O	0.993280	-0.389532	-0.371437
O167	O	1.326613	-0.056199	-0.038103
O168	O	1.659947	0.277134	0.295230
H169	H	0.999294	-0.460120	-0.365456
H170	H	1.332627	-0.126787	-0.032123
H171	H	1.665961	0.206546	0.301211
H172	H	1.061332	-0.515444	-0.303447
H173	H	1.394665	-0.182111	0.029886
H174	H	1.727999	0.151222	0.363219
