data_functionalizedCrystal
_audit_creation_method	'MofGen! by Chris Wilmer'
_symmetry_space_group_name_H-M	'P1'
_symmetry_Int_Tables_number	1
_symmetry_cell_setting	triclinic
loop_
_symmetry_equiv_pos_as_xyz
  x,y,z
_cell_length_a	14.519709
_cell_length_b	7.088929
_cell_length_c	8.559649
_cell_angle_alpha	84.655815
_cell_angle_beta	103.270595
_cell_angle_gamma	83.779193
loop_
_atom_site_label
_atom_site_type_symbol
_atom_site_fract_x
_atom_site_fract_y
_atom_site_fract_z
O1	O	1.198225	0.158735	-0.225782
O2	O	1.531558	0.492068	0.107551
O3	O	1.864892	0.825401	0.440884
O4	O	0.927974	0.158792	-0.250449
O5	O	1.261307	0.492126	0.082884
O6	O	1.594641	0.825459	0.416217
O7	O	1.086909	0.158756	-0.005581
O8	O	1.420242	0.492090	0.327752
O9	O	1.753576	0.825423	0.661086
O10	O	1.039290	0.158770	-0.470650
O11	O	1.372623	0.492104	-0.137317
O12	O	1.705957	0.825437	0.196016
O13	O	1.108154	-0.159224	0.027217
O14	O	1.441488	0.174110	0.360551
O15	O	1.774821	0.507443	0.693884
O16	O	0.949219	-0.159188	-0.217651
O17	O	1.282553	0.174146	0.115682
O18	O	1.615886	0.507479	0.449016
O19	O	1.219470	-0.159245	-0.192984
O20	O	1.552804	0.174088	0.140349
O21	O	1.886137	0.507421	0.473683
Cu22	Cu	1.086285	-0.188251	-0.202323
Cu23	Cu	1.419618	0.145083	0.131011
Cu24	Cu	1.752951	0.478416	0.464344
Cu25	Cu	1.061160	0.187797	-0.241111
Cu26	Cu	1.394493	0.521131	0.092223
Cu27	Cu	1.727826	0.854464	0.425556
O28	O	1.060535	-0.159210	-0.437852
O29	O	1.393869	0.174124	-0.104519
O30	O	1.727202	0.507457	0.228815
C31	C	0.904319	-0.000190	-0.232902
C32	C	1.237652	0.333143	0.100432
C33	C	1.570986	0.666476	0.433765
C34	C	0.802183	-0.000168	-0.229460
C35	C	1.135517	0.333165	0.103873
C36	C	1.468850	0.666498	0.437207
N37	N	1.103963	-0.452743	-0.175040
N38	N	1.437296	-0.119409	0.158293
N39	N	1.770630	0.213924	0.491626
C40	C	0.428203	-0.000256	-0.216772
C41	C	0.761537	0.333078	0.116562
C42	C	1.094870	0.666411	0.449895
C43	C	0.532257	-0.000231	-0.220295
C44	C	0.865590	0.333103	0.113038
C45	C	1.198924	0.666436	0.446371
C46	C	0.615190	-0.000210	-0.223116
C47	C	0.948523	0.333123	0.110218
C48	C	1.281857	0.666457	0.443551
C49	C	0.719250	-0.000189	-0.226640
C50	C	1.052584	0.333145	0.106694
C51	C	1.385917	0.666478	0.440027
C52	C	1.243125	-0.000259	-0.210532
C53	C	1.576458	0.333075	0.122801
C54	C	1.909792	0.666408	0.456135
C55	C	1.345260	-0.000268	-0.213975
C56	C	1.678593	0.333065	0.119358
C57	C	2.011926	0.666398	0.452692
N58	N	1.043489	0.452289	-0.268380
N59	N	1.376823	0.785623	0.064953
N60	N	1.710156	1.118956	0.398287
C61	C	1.101140	-0.000231	0.070337
C62	C	1.434473	0.333102	0.403671
C63	C	1.767807	0.666436	0.737004
C64	C	1.111881	-0.000223	0.247686
C65	C	1.445214	0.333111	0.581019
C66	C	1.778548	0.666444	0.914353
C67	C	1.046304	-0.000218	-0.513771
C68	C	1.379637	0.333115	-0.180438
C69	C	1.712971	0.666449	0.152896
C70	C	1.035562	-0.000214	-0.691121
C71	C	1.368896	0.333119	-0.357787
C72	C	1.702229	0.666453	-0.024454
H73	H	1.166646	-0.534413	-0.078319
H74	H	1.499980	-0.201079	0.255015
H75	H	1.833313	0.132254	0.588348
O76	O	0.938119	-0.000184	0.198570
O77	O	1.271452	0.333149	0.531904
O78	O	1.604785	0.666483	0.865237
H79	H	0.944687	-0.000160	0.071909
H80	H	1.278020	0.333173	0.405242
H81	H	1.611353	0.666506	0.738575
H82	H	0.980816	-0.466050	-0.365107
H83	H	1.314150	-0.132717	-0.031773
H84	H	1.647483	0.200617	0.301560
H85	H	1.185445	-0.000254	0.330985
H86	H	1.518778	0.333080	0.664318
H87	H	1.852112	0.666413	0.997651
