data_functionalizedCrystal
_audit_creation_method	'MofGen! by Chris Wilmer'
_symmetry_space_group_name_H-M	'P1'
_symmetry_Int_Tables_number	1
_symmetry_cell_setting	triclinic
loop_
_symmetry_equiv_pos_as_xyz
  x,y,z
_cell_length_a	15.298709
_cell_length_b	12.594516
_cell_length_c	15.296720
_cell_angle_alpha	99.649603
_cell_angle_beta	107.326335
_cell_angle_gamma	99.706035
loop_
_atom_site_label
_atom_site_type_symbol
_atom_site_fract_x
_atom_site_fract_y
_atom_site_fract_z
Zn1	Zn	1.330649	-0.208874	-0.280187
Zn2	Zn	1.357489	-0.349647	-0.124707
Zn3	Zn	1.202065	-0.208945	-0.151567
Zn4	Zn	1.175145	-0.424082	-0.307016
O5	O	1.266337	-0.297887	-0.215869
O6	O	1.464334	-0.196367	-0.237093
O7	O	1.359371	-0.299861	0.001855
O8	O	1.219155	-0.059985	-0.168642
O9	O	1.484054	-0.299793	-0.122863
O10	O	1.313625	-0.059934	-0.263139
O11	O	1.245181	-0.196488	-0.017879
O12	O	1.068369	-0.268664	-0.194656
O13	O	1.173274	-0.426656	-0.433581
O14	O	1.048591	-0.426725	-0.308864
O15	O	1.287522	-0.268544	-0.413871
O16	O	1.333267	-0.508471	-0.148877
O17	O	1.199300	-0.563158	-0.282819
C18	C	1.024740	-0.355780	-0.257587
C19	C	0.921380	-0.380578	-0.275456
C20	C	0.862568	-0.474601	-0.343216
C21	C	0.765455	-0.497897	-0.360014
C22	C	0.727145	-0.427176	-0.309047
C23	C	0.785958	-0.333154	-0.241281
C24	C	0.883080	-0.309852	-0.224486
C25	C	0.747656	-0.262426	-0.190318
C26	C	0.806469	-0.168405	-0.122551
C27	C	0.903581	-0.145107	-0.105759
C28	C	0.941891	-0.215828	-0.156726
C29	C	0.650534	-0.285729	-0.207112
C30	C	0.671045	-0.120979	-0.088382
C31	C	0.768158	-0.097684	-0.071584
C32	C	1.266297	-0.574435	-0.215860
C33	C	1.266359	-0.692730	-0.215873
C34	C	1.339285	-0.732199	-0.143076
C35	C	1.347312	-0.817784	-0.224027
C36	C	1.258438	-0.817928	-0.134956
C37	C	1.274422	-0.776757	-0.296861
C38	C	1.185519	-0.776891	-0.207740
C39	C	1.193504	-0.862466	-0.288755
C40	C	1.508877	-0.239769	-0.173989
C41	C	1.612233	-0.215003	-0.156143
C42	C	1.224401	-0.355895	-0.458409
C43	C	1.206530	-0.380615	-0.561766
C44	C	1.266399	-0.020259	-0.215894
C45	C	1.266426	0.098050	-0.215904
C46	C	1.394096	-0.121018	-0.812059
C47	C	1.410892	-0.097793	-0.714950
C48	C	1.359803	-0.168496	-0.676649
C49	C	1.291915	-0.262429	-0.735467
C50	C	1.275122	-0.285661	-0.832585
C51	C	1.240829	-0.333139	-0.697175
C52	C	1.172941	-0.427071	-0.755993
C53	C	1.156151	-0.450298	-0.853101
C54	C	1.207241	-0.379595	-0.891402
C55	C	1.257622	-0.309907	-0.600057
C56	C	1.138649	-0.474549	-0.620583
C57	C	1.121852	-0.497774	-0.717692
C58	C	1.308163	-0.240015	0.025737
C59	C	1.326214	-0.214953	0.129124
H60	H	0.717576	-0.574450	-0.415189
H61	H	1.400956	-0.675977	-0.081560
H62	H	1.131851	-0.918511	-0.350391
H63	H	1.415704	-0.836245	-0.230928
N64	N	1.283451	-0.752329	-0.387529
H65	H	1.228699	-0.801080	-0.442528
H66	H	1.283427	-0.672012	-0.386861
N67	N	1.330843	-0.208604	-0.536626
H68	H	1.333737	-0.204614	-0.469293
H69	H	1.394308	-0.213339	-0.542142
N70	N	1.083535	-0.550792	-0.579271
H71	H	1.014179	-0.554213	-0.607647
H72	H	1.095103	-0.627389	-0.593664
H73	H	1.373483	-0.149581	-0.597578
N74	N	0.629738	-0.044694	-0.033403
H75	H	0.559292	-0.073725	-0.054320
H76	H	0.658186	-0.041185	0.035965
N77	N	1.094958	-0.752388	-0.198568
H78	H	1.089011	-0.766878	-0.137378
H79	H	1.095416	-0.672259	-0.199292
H80	H	0.648070	-0.446149	-0.322728
H81	H	0.893770	-0.532168	-0.384710
H82	H	1.466169	-0.021315	-0.667067
N83	N	0.831589	0.003734	0.001495
H84	H	0.826165	-0.000835	0.065036
H85	H	0.898893	0.007707	0.004316
N86	N	1.249519	-0.842534	-0.044302
H87	H	1.304617	-0.794324	0.010651
H88	H	1.188941	-0.826755	-0.037670
N89	N	1.449200	-0.044775	-0.853366
H90	H	1.428261	-0.073749	-0.923811
H91	H	1.437684	0.031839	-0.838904
N92	N	1.046638	-0.190716	-0.138609
H93	H	1.059018	-0.180920	-0.198379
H94	H	1.078023	-0.120440	-0.087920
H95	H	1.193569	-0.398500	-0.970476
N96	N	1.082942	-0.551618	-0.916541
H97	H	1.053124	-0.592883	-0.877546
H98	H	1.032954	-0.528239	-0.964270
H99	H	0.951464	-0.068544	-0.050584
N100	N	1.048628	-0.599072	-0.781149
H101	H	1.079433	-0.648982	-0.814918
H102	H	1.018821	-0.640259	-0.742106
H103	H	0.602657	-0.362281	-0.262289
