data_functionalizedCrystal
_audit_creation_method	'MofGen! by Chris Wilmer'
_symmetry_space_group_name_H-M	'P1'
_symmetry_Int_Tables_number	1
_symmetry_cell_setting	triclinic
loop_
_symmetry_equiv_pos_as_xyz
  x,y,z
_cell_length_a	11.792254
_cell_length_b	10.489716
_cell_length_c	10.268362
_cell_angle_alpha	89.998762
_cell_angle_beta	89.995475
_cell_angle_gamma	84.363867
loop_
_atom_site_label
_atom_site_type_symbol
_atom_site_fract_x
_atom_site_fract_y
_atom_site_fract_z
O1	O	1.507358	0.174912	-0.108287
O2	O	2.007358	0.674912	0.391713
O3	O	1.177066	0.192913	-0.108288
O4	O	1.677066	0.692913	0.391712
O5	O	1.349743	-0.001713	-0.108292
O6	O	1.849743	0.498287	0.391708
O7	O	1.334682	0.369537	-0.108283
O8	O	1.834682	0.869537	0.391717
O9	O	1.349727	-0.001721	0.108309
O10	O	1.849727	0.498279	0.608309
O11	O	1.177051	0.192905	0.108312
O12	O	1.677051	0.692905	0.608312
O13	O	1.507343	0.174903	0.108314
O14	O	2.007343	0.674903	0.608314
Cu15	Cu	1.342196	0.183903	0.128091
Cu16	Cu	1.842196	0.683903	0.628091
Cu17	Cu	1.342214	0.183913	-0.128065
Cu18	Cu	1.842214	0.683913	0.371935
O19	O	1.334667	0.369529	0.108318
O20	O	1.834667	0.869529	0.608318
C21	C	1.134765	0.191775	0.000012
C22	C	1.634765	0.691775	0.500012
C23	C	1.008743	0.188381	0.000011
C24	C	1.508743	0.688381	0.500011
C25	C	0.906399	0.185623	0.000005
C26	C	1.406399	0.685623	0.500005
C27	C	0.778004	0.182175	0.000004
C28	C	1.278004	0.682175	0.500004
C29	C	1.348603	-0.049245	0.000004
C30	C	1.848603	0.450755	0.500004
C31	C	1.345218	-0.190865	-0.000008
C32	C	1.845218	0.309135	0.499992
C33	C	1.451108	-0.288894	0.000005
C34	C	1.951108	0.211106	0.500005
C35	C	1.395161	-0.366063	-0.106788
C36	C	1.895161	0.133937	0.393212
C37	C	1.395122	-0.366035	0.106764
C38	C	1.895122	0.133965	0.606764
C39	C	1.289315	-0.266168	-0.106888
C40	C	1.789315	0.233832	0.393112
C41	C	1.289291	-0.266135	0.106759
C42	C	1.789291	0.233865	0.606759
C43	C	1.233266	-0.343255	-0.000059
C44	C	1.733266	0.156745	0.499941
C45	C	1.549644	0.176041	0.000011
C46	C	2.049644	0.676041	0.500011
C47	C	1.675666	0.179436	0.000004
C48	C	2.175666	0.679436	0.500004
C49	C	1.335806	0.417062	0.000019
C50	C	1.835806	0.917062	0.500019
C51	C	1.339192	0.558681	0.000022
C52	C	1.839192	1.058681	0.500022
N53	N	1.342191	0.183896	0.308256
N54	N	1.842191	0.683896	0.808256
N55	N	1.342227	0.183911	-0.308231
N56	N	1.842227	0.683911	0.191769
C57	C	1.342208	0.183911	0.573927
C58	C	1.842208	0.683911	1.073927
C59	C	1.342195	0.183906	0.426089
C60	C	1.842195	0.683906	0.926089
H61	H	1.543215	-0.264527	-0.000103
H62	H	2.043215	0.235473	0.499897
Cl63	Cl	1.464182	-0.433448	-0.246181
Cl64	Cl	1.964182	0.066552	0.253819
H65	H	1.244623	-0.222470	0.197049
H66	H	1.744623	0.277530	0.697049
Cl67	Cl	1.220352	-0.199083	-0.246441
Cl68	Cl	1.720352	0.300917	0.253559
H69	H	1.439838	-0.409661	0.197046
H70	H	1.939838	0.090339	0.697046
H71	H	1.141090	-0.367376	-0.000117
H72	H	1.641090	0.132624	0.499883
