data_functionalizedCrystal
_audit_creation_method	'MofGen! by Chris Wilmer'
_symmetry_space_group_name_H-M	'P1'
_symmetry_Int_Tables_number	1
_symmetry_cell_setting	triclinic
loop_
_symmetry_equiv_pos_as_xyz
  x,y,z
_cell_length_a	11.792254
_cell_length_b	10.489741
_cell_length_c	10.268362
_cell_angle_alpha	89.998946
_cell_angle_beta	89.995423
_cell_angle_gamma	84.368886
loop_
_atom_site_label
_atom_site_type_symbol
_atom_site_fract_x
_atom_site_fract_y
_atom_site_fract_z
O1	O	1.507373	0.174902	-0.108298
O2	O	2.007373	0.674902	0.391702
O3	O	1.177082	0.192904	-0.108301
O4	O	1.677082	0.692904	0.391699
O5	O	1.349743	-0.001720	-0.108292
O6	O	1.849743	0.498280	0.391708
O7	O	1.334712	0.369526	-0.108308
O8	O	1.834712	0.869526	0.391692
O9	O	1.349727	-0.001713	0.108309
O10	O	1.849727	0.498287	0.608309
O11	O	1.177066	0.192910	0.108299
O12	O	1.677066	0.692910	0.608299
O13	O	1.507356	0.174909	0.108302
O14	O	2.007356	0.674909	0.608302
Cu15	Cu	1.342209	0.183910	0.128078
Cu16	Cu	1.842209	0.683910	0.628078
Cu17	Cu	1.342229	0.183902	-0.128077
Cu18	Cu	1.842229	0.683902	0.371923
O19	O	1.334695	0.369533	0.108293
O20	O	1.834695	0.869533	0.608293
C21	C	1.134780	0.191773	-0.000001
C22	C	1.634780	0.691773	0.499999
C23	C	1.008758	0.188379	-0.000002
C24	C	1.508758	0.688379	0.499998
C25	C	0.906414	0.185621	-0.000008
C26	C	1.406414	0.685621	0.499992
C27	C	0.778018	0.182173	-0.000008
C28	C	1.278018	0.682173	0.499992
C29	C	1.348600	-0.049245	0.000008
C30	C	1.848600	0.450755	0.500008
C31	C	1.345203	-0.190863	0.000005
C32	C	1.845203	0.309137	0.500005
C33	C	1.235344	-0.258634	-0.000005
C34	C	1.735344	0.241366	0.499995
C35	C	1.287232	-0.350928	0.106791
C36	C	1.787232	0.149072	0.606791
C37	C	1.287275	-0.350909	-0.106761
C38	C	1.787275	0.149091	0.393239
C39	C	1.397136	-0.281291	0.106889
C40	C	1.897136	0.218709	0.606889
C41	C	1.397164	-0.281263	-0.106758
C42	C	1.897164	0.218737	0.393242
C43	C	1.449132	-0.373529	0.000064
C44	C	1.949132	0.126471	0.500064
C45	C	1.549658	0.176040	-0.000001
C46	C	2.049658	0.676040	0.499999
C47	C	1.675680	0.179434	-0.000008
C48	C	2.175680	0.679434	0.499992
C49	C	1.335839	0.417057	-0.000009
C50	C	1.835839	0.917057	0.499991
C51	C	1.339235	0.558675	-0.000016
C52	C	1.839235	1.058675	0.499984
N53	N	1.342204	0.183915	0.308244
N54	N	1.842204	0.683915	0.808244
N55	N	1.342244	0.183888	-0.308243
N56	N	1.842244	0.683888	0.191757
C57	C	1.342212	0.183916	0.426086
C58	C	1.842212	0.683916	0.926086
C59	C	1.342226	0.183904	0.573924
C60	C	1.842226	0.683904	1.073924
H61	H	1.145019	-0.208680	0.000102
H62	H	1.645019	0.291320	0.500102
Br63	Br	1.474590	-0.229780	-0.257252
Br64	Br	1.974590	0.270220	0.242748
H65	H	1.240741	-0.381780	0.197078
H66	H	1.740741	0.118220	0.697078
Br67	Br	1.209778	-0.402302	-0.257236
Br68	Br	1.709778	0.097698	0.242764
Br69	Br	1.474541	-0.230169	0.257541
Br70	Br	1.974541	0.269831	0.757541
Br71	Br	1.599813	-0.456416	0.000155
Br72	Br	2.099813	0.043584	0.500155
