data_functionalizedCrystal
_audit_creation_method	'MofGen! by Chris Wilmer'
_symmetry_space_group_name_H-M	'P1'
_symmetry_Int_Tables_number	1
_symmetry_cell_setting	triclinic
loop_
_symmetry_equiv_pos_as_xyz
  x,y,z
_cell_length_a	11.792254
_cell_length_b	14.853567
_cell_length_c	13.930277
_cell_angle_alpha	90.000757
_cell_angle_beta	89.993050
_cell_angle_gamma	96.083236
loop_
_atom_site_label
_atom_site_type_symbol
_atom_site_fract_x
_atom_site_fract_y
_atom_site_fract_z
O1	O	1.506142	-0.123622	-0.079817
O2	O	1.175724	-0.136345	-0.079819
O3	O	1.349759	0.001212	-0.079821
O4	O	1.332107	-0.261178	-0.079815
O5	O	1.349735	0.001215	0.079841
O6	O	1.175700	-0.136342	0.079843
O7	O	1.506118	-0.123619	0.079845
Zn8	Zn	1.340905	-0.129980	0.105194
Zn9	Zn	1.340937	-0.129984	-0.105167
O10	O	1.332083	-0.261175	0.079847
C11	C	1.133426	-0.135542	0.000012
C12	C	1.007428	-0.133143	0.000010
C13	C	1.548416	-0.124422	0.000013
C14	C	1.674414	-0.126821	0.000008
C15	C	1.348947	0.034805	0.000008
C16	C	1.346550	0.134898	-0.000001
C17	C	1.776738	-0.128770	0.000006
C18	C	1.905110	-0.131207	0.000008
C19	C	1.332895	-0.294769	0.000017
C20	C	1.335292	-0.394862	0.000019
N21	N	1.340892	-0.129976	0.248760
C22	C	1.233038	0.547878	0.000017
C23	C	1.439796	0.568347	0.000018
C24	C	1.442049	0.474304	0.000012
C25	C	1.339796	0.417044	0.000010
C26	C	1.235289	0.453827	0.000014
C27	C	1.546554	0.437514	0.000019
C28	C	1.548812	0.343467	0.000014
C29	C	1.446557	0.286205	0.000005
C30	C	1.342046	0.322993	0.000008
C31	C	1.239793	0.265732	0.000006
C32	C	1.135280	0.302519	0.000001
C33	C	1.133034	0.396565	0.000005
C34	C	1.448804	0.192158	0.000001
C35	C	1.242043	0.171681	0.000003
N36	N	1.340959	-0.129980	-0.248734
C37	C	1.263871	-0.190870	0.701030
C38	C	1.418034	-0.069091	0.700998
C39	C	1.418020	-0.069088	0.600502
C40	C	1.340932	-0.129978	0.550266
C41	C	1.263858	-0.190870	0.600525
C42	C	1.495101	-0.008202	0.550235
C43	C	1.495092	-0.008198	0.449733
C44	C	1.417997	-0.069084	0.399495
C45	C	1.340919	-0.129979	0.449761
C46	C	1.263831	-0.190868	0.399524
C47	C	1.186746	-0.251759	0.449788
C48	C	1.186763	-0.251757	0.550287
C49	C	1.417980	-0.069087	0.298996
C50	C	1.263817	-0.190869	0.299019
H51	H	1.158775	0.125065	-0.000003
O52	O	1.180655	-0.256544	0.244850
H53	H	1.125429	-0.218290	0.199083
O54	O	1.180741	-0.256553	0.755231
H55	H	1.125527	-0.218312	0.801036
H56	H	1.123985	-0.301340	0.408874
H57	H	1.523045	0.614973	0.000027
O58	O	1.103639	-0.317438	0.604496
H59	H	1.116613	-0.307216	0.682818
H60	H	1.052026	0.255885	0.000006
H61	H	1.533896	0.162211	0.000011
H62	H	1.480802	-0.019520	0.741904
H63	H	1.629803	0.484142	0.000029
H64	H	1.557870	0.041368	0.591141
H65	H	1.147947	0.577834	0.000009
H66	H	1.633912	0.313524	0.000016
H67	H	1.557857	0.041383	0.408815
H68	H	1.480746	-0.019514	0.258076
H69	H	1.047946	0.426525	0.000003
