data_functionalizedCrystal
_audit_creation_method	'MofGen! by Chris Wilmer'
_symmetry_space_group_name_H-M	'P1'
_symmetry_Int_Tables_number	1
_symmetry_cell_setting	triclinic
loop_
_symmetry_equiv_pos_as_xyz
  x,y,z
_cell_length_a	10.489746
_cell_length_b	10.489716
_cell_length_c	13.448316
_cell_angle_alpha	89.997460
_cell_angle_beta	89.996185
_cell_angle_gamma	84.535218
loop_
_atom_site_label
_atom_site_type_symbol
_atom_site_fract_x
_atom_site_fract_y
_atom_site_fract_z
O1	O	1.694038	0.180004	-0.082615
O2	O	1.322842	0.196891	-0.082631
O3	O	1.516902	0.002848	-0.082626
O4	O	1.499977	0.374047	-0.082620
O5	O	1.516878	0.002836	0.082758
O6	O	1.322817	0.196878	0.082753
O7	O	1.694013	0.179992	0.082769
Cu8	Cu	1.508413	0.188434	0.097862
Cu9	Cu	1.508442	0.188449	-0.097724
O10	O	1.499952	0.374035	0.082764
C11	C	1.275298	0.195608	0.000059
C12	C	1.133669	0.191788	0.000052
C13	C	0.980822	0.066063	0.000064
C14	C	1.058198	0.128914	0.081605
C15	C	1.058178	0.128956	-0.081450
C16	C	0.958696	0.247897	0.081685
C17	C	0.958671	0.247921	-0.081444
C18	C	1.035998	0.310860	0.000117
C19	C	1.515618	-0.044691	0.000063
C20	C	1.511814	-0.186322	0.000053
C21	C	1.630818	-0.283993	0.000067
C22	C	1.567946	-0.361349	-0.081476
C23	C	1.567894	-0.361325	0.081580
C24	C	1.448991	-0.261812	-0.081557
C25	C	1.448957	-0.261783	0.081572
C26	C	1.385997	-0.339089	0.000009
C27	C	1.741557	0.181275	0.000077
C28	C	1.883186	0.185095	0.000077
C29	C	1.501236	0.421573	0.000073
C30	C	1.505041	0.563204	0.000076
N31	N	1.508402	0.188423	0.235426
N32	N	1.508463	0.188450	-0.235288
C33	C	1.594359	0.102537	0.287468
C34	C	1.594367	0.102536	0.391572
C35	C	1.508423	0.188428	0.443630
C36	C	1.422456	0.274319	0.391581
C37	C	1.422443	0.274313	0.287479
C38	C	1.422492	0.274328	0.608561
C39	C	1.422506	0.274336	0.712669
C40	C	1.594415	0.102551	0.712653
C41	C	1.594402	0.102545	0.608552
C42	C	1.508437	0.188437	0.556509
H43	H	0.915402	0.298107	0.150702
H44	H	1.664359	0.032600	0.433944
O45	O	1.687146	0.009921	0.768783
H46	H	1.746923	-0.049788	0.715094
H47	H	1.101669	0.078660	0.150543
H48	H	1.618192	-0.404838	-0.150411
H49	H	1.352520	0.344277	0.755050
H50	H	1.352472	0.344250	0.433973
O51	O	1.068432	0.448055	0.000173
H52	H	1.028230	0.497150	0.067929
H53	H	1.734331	-0.259315	-0.000011
O54	O	1.382510	-0.204466	-0.172986
H55	H	1.385941	-0.099039	-0.172298
H56	H	1.282406	-0.363522	-0.000039
H57	H	1.664390	0.032611	0.566165
H58	H	0.915176	0.298130	-0.150384
O59	O	1.382465	-0.204131	0.172888
H60	H	1.385149	-0.098620	0.171642
H61	H	1.618145	-0.404802	0.150516
O62	O	1.115738	0.062390	-0.172775
H63	H	1.094046	-0.039130	-0.172596
H64	H	0.956111	-0.037440	0.000145
H65	H	1.664350	0.032599	0.245089
O66	O	1.329781	0.366972	0.552423
H67	H	1.270031	0.426712	0.606110
O68	O	1.329739	0.366952	0.231340
H69	H	1.269987	0.426689	0.285027
