data_functionalizedCrystal
_audit_creation_method	'MofGen! by Chris Wilmer'
_symmetry_space_group_name_H-M	'P1'
_symmetry_Int_Tables_number	1
_symmetry_cell_setting	triclinic
loop_
_symmetry_equiv_pos_as_xyz
  x,y,z
_cell_length_a	19.121414
_cell_length_b	25.639240
_cell_length_c	19.120904
_cell_angle_alpha	92.415401
_cell_angle_beta	94.750371
_cell_angle_gamma	92.473450
loop_
_atom_site_label
_atom_site_type_symbol
_atom_site_fract_x
_atom_site_fract_y
_atom_site_fract_z
Zn1	Zn	1.058645	-0.185725	-0.352066
Zn2	Zn	1.558645	0.314275	0.147934
Zn3	Zn	1.063569	-0.269266	-0.234415
Zn4	Zn	1.563569	0.230734	0.265585
Zn5	Zn	0.946007	-0.185739	-0.239426
Zn6	Zn	1.446007	0.314261	0.260574
Zn7	Zn	0.940935	-0.277027	-0.357043
Zn8	Zn	1.440935	0.222973	0.142957
O9	O	1.002289	-0.229439	-0.295738
O10	O	1.502289	0.270561	0.204262
O11	O	1.157760	-0.193553	-0.332279
O12	O	1.657760	0.306447	0.167721
O13	O	1.052157	-0.254944	-0.136619
O14	O	1.552157	0.245056	0.363381
O15	O	0.961010	-0.112571	-0.254383
O16	O	1.461010	0.387429	0.245617
O17	O	1.161378	-0.254930	-0.245841
O18	O	1.661378	0.245070	0.254159
O19	O	1.043765	-0.112560	-0.337138
O20	O	1.543765	0.387440	0.162862
O21	O	0.965784	-0.193577	-0.140301
O22	O	1.465784	0.306423	0.359699
O23	O	0.846872	-0.201103	-0.259209
O24	O	1.346872	0.298897	0.240791
O25	O	0.952367	-0.268157	-0.454844
O26	O	1.452367	0.231843	0.045156
O27	O	0.843146	-0.268171	-0.345622
O28	O	1.343146	0.231829	0.154378
O29	O	1.038848	-0.201078	-0.451187
O30	O	1.538848	0.298922	0.048813
O31	O	1.047239	-0.343463	-0.250667
O32	O	1.547239	0.156537	0.249333
O33	O	0.957141	-0.349164	-0.340762
O34	O	1.457141	0.150836	0.159238
C35	C	0.819478	-0.235481	-0.303500
C36	C	1.319478	0.264519	0.196500
C37	C	0.741271	-0.238079	-0.306837
C38	C	1.241271	0.261921	0.193163
C39	C	0.706445	-0.204332	-0.263488
C40	C	1.206445	0.295668	0.236512
C41	C	0.632960	-0.206778	-0.266624
C42	C	1.132960	0.293222	0.233376
C43	C	0.594303	-0.242968	-0.313112
C44	C	1.094303	0.257032	0.186888
C45	C	0.629134	-0.276718	-0.356463
C46	C	1.129134	0.223282	0.143537
C47	C	0.702617	-0.274275	-0.353323
C48	C	1.202617	0.225725	0.146677
C49	C	0.372335	-0.252097	-0.324836
C50	C	0.872335	0.247903	0.175164
C51	C	0.298846	-0.254536	-0.327974
C52	C	0.798846	0.245464	0.172026
C53	C	0.302678	-0.184597	-0.238134
C54	C	0.802678	0.315403	0.261866
C55	C	0.376162	-0.182154	-0.235001
C56	C	0.876162	0.317846	0.264999
C57	C	0.410987	-0.215906	-0.278349
C58	C	0.910987	0.284094	0.221651
C59	C	0.519190	-0.245467	-0.316320
C60	C	1.019190	0.254533	0.183680
C61	C	0.486099	-0.213409	-0.275137
C62	C	0.986099	0.286591	0.224863
C63	C	1.002192	-0.365285	-0.295726
C64	C	1.502192	0.134715	0.204274
C65	C	1.002214	-0.423398	-0.295741
C66	C	1.502214	0.076602	0.204259
C67	C	1.045373	-0.674534	-0.338875
C68	C	1.545373	-0.174534	0.161125
C69	C	1.045353	-0.619930	-0.338870
C70	C	1.545353	-0.119930	0.161130
O71	O	1.081968	-0.591647	-0.375524
O72	O	1.581968	-0.091647	0.124476
N73	N	1.002291	-0.592670	-0.295747
N74	N	1.502291	-0.092670	0.204253
C75	C	0.959253	-0.620016	-0.252619
C76	C	1.459253	-0.120016	0.247381
O77	O	0.922624	-0.591815	-0.215938
O78	O	1.422624	-0.091815	0.284062
C79	C	0.959278	-0.674618	-0.252621
C80	C	1.459278	-0.174618	0.247379
C81	C	1.002337	-0.701876	-0.295752
C82	C	1.502337	-0.201876	0.204248
C83	C	1.088430	-0.701792	-0.382002
C84	C	1.588430	-0.201792	0.117998
C85	C	1.088449	-0.756392	-0.382008
C86	C	1.588449	-0.256392	0.117992
C87	C	1.045413	-0.783734	-0.338885
C88	C	1.545413	-0.283734	0.161115
C89	C	1.002357	-0.756476	-0.295758
C90	C	1.502357	-0.256476	0.204242
C91	C	0.916244	-0.701963	-0.209490
C92	C	1.416244	-0.201963	0.290510
C93	C	0.916273	-0.756569	-0.209495
C94	C	1.416273	-0.256569	0.290505
C95	C	0.959332	-0.783827	-0.252626
C96	C	1.459332	-0.283827	0.247374
C97	C	0.959340	-0.838419	-0.252640
C98	C	1.459340	-0.338419	0.247360
N99	N	1.002402	-0.865679	-0.295764
N100	N	1.502402	-0.365679	0.204236
C101	C	1.045438	-0.838337	-0.338886
C102	C	1.545438	-0.338337	0.161114
C103	C	0.959204	-0.505347	-0.252619
C104	C	1.459204	-0.005347	0.247381
C105	C	0.959175	-0.450745	-0.252621
C106	C	1.459175	0.049255	0.247379
C107	C	1.045276	-0.450664	-0.338871
C108	C	1.545276	0.049336	0.161129
C109	C	1.045301	-0.505266	-0.338873
C110	C	1.545301	-0.005266	0.161127
C111	C	1.002266	-0.532607	-0.295743
C112	C	1.502266	-0.032607	0.204257
C113	C	1.045476	-0.953001	-0.338895
C114	C	1.545476	-0.453001	0.161105
C115	C	1.045490	-1.007606	-0.338898
C116	C	1.545490	-0.507606	0.161102
C117	C	0.959392	-1.007683	-0.252646
C118	C	1.459392	-0.507683	0.247354
C119	C	0.959375	-0.953083	-0.252644
C120	C	1.459375	-0.453083	0.247356
C121	C	1.002423	-0.925743	-0.295771
C122	C	1.502423	-0.425743	0.204229
O123	O	0.922746	-0.866737	-0.216003
O124	O	1.422746	-0.366737	0.283997
O125	O	1.082067	-0.866544	-0.375554
O126	O	1.582067	-0.366544	0.124446
C127	C	1.185813	-0.223374	-0.287946
C128	C	1.685813	0.276626	0.212054
C129	C	1.264020	-0.220790	-0.284625
C130	C	1.764020	0.279210	0.215375
C131	C	0.994492	-0.235482	-0.479259
C132	C	1.494492	0.264518	0.020741
C133	C	0.991170	-0.238057	-0.557465
C134	C	1.491170	0.261943	-0.057465
C135	C	1.002404	-0.093063	-0.295764
C136	C	1.502404	0.406937	0.204236
C137	C	1.002453	-0.034948	-0.295776
C138	C	1.502453	0.465052	0.204224
C139	C	1.034633	-0.204343	-0.592303
C140	C	1.534633	0.295657	-0.092303
C141	C	1.031502	-0.206761	-0.665787
C142	C	1.531502	0.293239	-0.165787
C143	C	0.984912	-0.242895	-0.704430
C144	C	1.484912	0.257105	-0.204430
C145	C	0.941445	-0.276610	-0.669586
C146	C	1.441445	0.223390	-0.169586
C147	C	0.944572	-0.274189	-0.596105
C148	C	1.444572	0.225811	-0.096105
C149	C	0.973214	-0.251949	-0.926392
C150	C	1.473214	0.248051	-0.426392
C151	C	0.970092	-0.254368	-0.999879
C152	C	1.470092	0.245632	-0.499879
C153	C	1.060149	-0.184518	-0.996074
C154	C	1.560149	0.315482	-0.496074
C155	C	1.063275	-0.182103	-0.922591
C156	C	1.563275	0.317897	-0.422591
C157	C	1.019805	-0.215816	-0.887754
C158	C	1.519805	0.284184	-0.387754
C159	C	0.981713	-0.245368	-0.779541
C160	C	1.481713	0.254632	-0.279541
C161	C	1.023001	-0.213340	-0.812644
C162	C	1.523001	0.286660	-0.312644
C163	C	1.010096	-0.223381	-0.112928
C164	C	1.510096	0.276619	0.387072
C165	C	1.013554	-0.220655	-0.034717
C166	C	1.513554	0.279345	0.465283
H167	H	1.080552	-1.029797	-0.374026
H168	H	1.580552	-0.529797	0.125974
O169	O	0.599240	-0.173941	-0.224490
O170	O	1.099240	0.326059	0.275510
C171	C	0.610796	-0.104330	-0.135026
C172	C	1.110796	0.395670	0.364974
C173	C	0.649071	-0.141480	-0.182717
C174	C	1.149071	0.358520	0.317283
H175	H	0.651068	-0.078084	-0.101229
H176	H	1.151068	0.421916	0.398771
H177	H	0.575059	-0.079203	-0.168828
H178	H	1.075059	0.420797	0.331172
H179	H	0.577918	-0.128232	-0.099677
H180	H	1.077918	0.371768	0.400323
H181	H	0.681987	-0.117620	-0.218073
H182	H	1.181987	0.382380	0.281927
H183	H	0.684765	-0.166609	-0.148872
H184	H	1.184765	0.333391	0.351128
H185	H	0.267373	-0.284006	-0.365835
H186	H	0.767373	0.215994	0.134165
O187	O	0.917657	-1.034328	-0.210775
O188	O	1.417657	-0.534328	0.289225
C189	C	0.879522	-1.118491	-0.172586
C190	C	1.379522	-0.618491	0.327414
C191	C	0.926828	-1.088379	-0.220032
C192	C	1.426828	-0.588379	0.279968
H193	H	0.886910	-1.162197	-0.180064
H194	H	1.386910	-0.662197	0.319936
H195	H	0.894338	-1.105518	-0.115319
H196	H	1.394338	-0.605518	0.384681
H197	H	0.822254	-1.110046	-0.187287
H198	H	1.322254	-0.610046	0.312713
H199	H	0.984110	-1.096809	-0.205393
H200	H	1.484110	-0.596809	0.294607
H201	H	0.911952	-1.101356	-0.277286
H202	H	1.411952	-0.601356	0.222714
O203	O	1.079909	-0.169196	-0.554876
O204	O	1.579909	0.330804	-0.054876
C205	C	1.168929	-0.100189	-0.558866
C206	C	1.668929	0.399811	-0.058866
C207	C	1.117675	-0.139963	-0.601335
C208	C	1.617675	0.360037	-0.101335
H209	H	1.199487	-0.076551	-0.596409
H210	H	1.699487	0.423449	-0.096409
H211	H	1.138145	-0.072749	-0.525857
H212	H	1.638145	0.427251	-0.025857
H213	H	1.207135	-0.121853	-0.522881
H214	H	1.707135	0.378147	-0.022881
H215	H	1.079457	-0.118342	-0.637358
H216	H	1.579457	0.381658	-0.137358
H217	H	1.148504	-0.167402	-0.634298
H218	H	1.648504	0.332598	-0.134298
O219	O	0.930953	-0.284744	-0.892668
O220	O	1.430953	0.215256	-0.392668
C221	C	0.841244	-0.354241	-0.904205
C222	C	1.341244	0.145759	-0.404205
C223	C	0.889086	-0.317143	-0.942489
C224	C	1.389086	0.182857	-0.442489
H225	H	0.807372	-0.380438	-0.944469
H226	H	1.307372	0.119562	-0.444469
H227	H	0.874935	-0.379422	-0.868438
H228	H	1.374935	0.120578	-0.368438
H229	H	0.805971	-0.330297	-0.871358
H230	H	1.305971	0.169703	-0.371358
H231	H	0.924367	-0.341046	-0.975374
H232	H	1.424367	0.158954	-0.475374
H233	H	0.855353	-0.291961	-0.978214
H234	H	1.355353	0.208039	-0.478214
O235	O	1.068181	-0.178168	-0.775146
O236	O	1.568181	0.321832	-0.275146
C237	C	1.103404	-0.087365	-0.751256
C238	C	1.603404	0.412635	-0.251256
C239	C	1.052179	-0.127137	-0.793764
C240	C	1.552179	0.372863	-0.293764
H241	H	1.090493	-0.046098	-0.766304
H242	H	1.590493	0.453902	-0.266304
H243	H	1.098167	-0.091382	-0.692745
H244	H	1.598167	0.408618	-0.192745
H245	H	1.159513	-0.095177	-0.763286
H246	H	1.659513	0.404823	-0.263286
H247	H	0.996048	-0.119350	-0.781794
H248	H	1.496048	0.380650	-0.281794
H249	H	1.057477	-0.123111	-0.852262
H250	H	1.557477	0.376889	-0.352262
H251	H	0.400680	-0.279580	-0.360133
H252	H	0.900680	0.220420	0.139867
O253	O	1.087306	-0.926531	-0.380857
O254	O	1.587306	-0.426531	0.119143
C255	C	1.172724	-0.932226	-0.466388
C256	C	1.672724	-0.432226	0.033612
C257	C	1.125381	-0.962268	-0.418907
C258	C	1.625381	-0.462268	0.081093
H259	H	1.203532	-0.961106	-0.497152
H260	H	1.703532	-0.461106	0.002848
H261	H	1.138849	-0.908974	-0.504570
H262	H	1.638849	-0.408974	-0.004570
H263	H	1.210880	-0.904349	-0.432549
H264	H	1.710880	-0.404349	0.067451
H265	H	1.087218	-0.990173	-0.452689
H266	H	1.587218	-0.490173	0.047311
H267	H	1.159301	-0.985485	-0.380720
H268	H	1.659301	-0.485485	0.119280
H269	H	0.903507	-0.306029	-0.701055
H270	H	1.403507	0.193971	-0.201055
O271	O	0.413605	-0.146981	-0.189784
O272	O	0.913605	0.353019	0.310216
C273	C	0.409646	-0.077838	-0.101049
C274	C	0.909646	0.422162	0.398951
C275	C	0.367157	-0.117660	-0.152207
C276	C	0.867157	0.382340	0.347793
H277	H	0.372111	-0.054114	-0.070665
H278	H	0.872111	0.445886	0.429335
H279	H	0.445581	-0.099412	-0.062685
H280	H	0.945581	0.400588	0.437315
H281	H	0.442710	-0.050484	-0.131966
H282	H	0.942710	0.449516	0.368034
H283	H	0.334052	-0.145025	-0.121349
H284	H	0.834052	0.354975	0.378651
H285	H	0.331267	-0.096053	-0.190572
H286	H	0.831267	0.403947	0.309428
H287	H	0.881229	-0.778827	-0.174372
H288	H	1.381229	-0.278827	0.325628
H289	H	0.517577	-0.183945	-0.237284
H290	H	1.017577	0.316055	0.262716
O291	O	0.591692	-0.311915	-0.401646
O292	O	1.091692	0.188085	0.098354
C293	C	0.595652	-0.380995	-0.490469
C294	C	1.095652	0.119005	0.009531
C295	C	0.638139	-0.341171	-0.439313
C296	C	1.138139	0.158829	0.060687
H297	H	0.633185	-0.404651	-0.520947
H298	H	1.133185	0.095349	-0.020947
H299	H	0.562612	-0.408413	-0.459615
H300	H	1.062612	0.091587	0.040385
H301	H	0.559694	-0.359373	-0.528752
H302	H	1.059694	0.140627	-0.028752
H303	H	0.674135	-0.362749	-0.401018
H304	H	1.174135	0.137251	0.098982
H305	H	0.671132	-0.313754	-0.470212
H306	H	1.171132	0.186246	0.029788
H307	H	1.101215	-0.152680	-0.891132
H308	H	1.601215	0.347320	-0.391132
H309	H	0.274315	-0.157118	-0.202842
H310	H	0.774315	0.342882	0.297158
H311	H	0.924104	-0.428556	-0.217507
H312	H	1.424104	0.071444	0.282493
H313	H	1.123518	-0.778581	-0.417125
H314	H	1.623518	-0.278581	0.082875
H315	H	0.943782	-0.274791	-0.811012
H316	H	1.443782	0.225209	-0.311012
H317	H	1.123478	-0.679535	-0.417118
H318	H	1.623478	-0.179535	0.082882
H319	H	0.730971	-0.301755	-0.388622
H320	H	1.230971	0.198245	0.111378
H321	H	0.924305	-0.930889	-0.217530
H322	H	1.424305	-0.430889	0.282470
H323	H	0.924154	-0.527605	-0.217500
H324	H	1.424154	-0.027605	0.282500
O325	O	0.481598	-0.280545	-0.361559
O326	O	0.981598	0.219455	0.138441
C327	C	0.394572	-0.293556	-0.460043
C328	C	0.894572	0.206444	0.039957
C329	C	0.437116	-0.253776	-0.408869
C330	C	0.937116	0.246224	0.091131
H331	H	0.358588	-0.271930	-0.498296
H332	H	0.858588	0.228070	0.001704
H333	H	0.432043	-0.317253	-0.490550
H334	H	0.932043	0.182747	0.009450
H335	H	0.361553	-0.320944	-0.429129
H336	H	0.861553	0.179056	0.070871
H337	H	0.470139	-0.226355	-0.439728
H338	H	0.970139	0.273645	0.060272
H339	H	0.399608	-0.230117	-0.378361
H340	H	0.899608	0.269883	0.121639
H341	H	1.080360	-0.527456	-0.373997
H342	H	1.580360	-0.027456	0.126003
O343	O	1.073747	-0.174085	-0.699710
O344	O	1.573747	0.325915	-0.199710
C345	C	1.165233	-0.166637	-0.778631
C346	C	1.665233	0.333363	-0.278631
C347	C	1.117426	-0.203706	-0.740265
C348	C	1.617426	0.296294	-0.240265
H349	H	1.200569	-0.190570	-0.811417
H350	H	1.700569	0.309430	-0.311417
H351	H	1.131515	-0.141509	-0.814448
H352	H	1.631515	0.358491	-0.314448
H353	H	1.199041	-0.140382	-0.738383
H354	H	1.699041	0.359618	-0.238383
H355	H	1.083609	-0.229993	-0.780462
H356	H	1.583609	0.270007	-0.280462
H357	H	1.151184	-0.228798	-0.704436
H358	H	1.651184	0.271202	-0.204436
H359	H	1.095539	-0.157070	-1.024446
H360	H	1.595539	0.342930	-0.524446
H361	H	0.932150	-0.283794	-1.031340
H362	H	1.432150	0.216206	-0.531340
H363	H	1.080319	-0.428392	-0.373983
H364	H	1.580319	0.071608	0.126017
O365	O	0.874403	-0.675572	-0.167519
O366	O	1.374403	-0.175572	0.332481
C367	C	0.788997	-0.681441	-0.081982
C368	C	1.288997	-0.181441	0.418018
C369	C	0.836360	-0.711391	-0.129474
C370	C	1.336360	-0.211391	0.370526
H371	H	0.758216	-0.710388	-0.051221
H372	H	1.258216	-0.210388	0.448779
H373	H	0.822855	-0.653599	-0.043797
H374	H	1.322855	-0.153599	0.456203
H375	H	0.750818	-0.658159	-0.115813
H376	H	1.250818	-0.158159	0.384187
H377	H	0.874546	-0.734703	-0.095700
H378	H	1.374546	-0.234703	0.404300
H379	H	0.802457	-0.739201	-0.167663
H380	H	1.302457	-0.239201	0.332337
O381	O	0.902435	-0.307015	-0.562284
O382	O	1.402435	0.192985	-0.062284
C383	C	0.869150	-0.396344	-0.541253
C384	C	1.369150	0.103656	-0.041253
C385	C	0.916922	-0.359227	-0.579585
C386	C	1.416922	0.140773	-0.079585
H387	H	0.880835	-0.438565	-0.555238
H388	H	1.380835	0.061435	-0.055238
H389	H	0.879395	-0.388450	-0.482089
H390	H	1.379395	0.111550	0.017911
H391	H	0.811809	-0.389491	-0.558093
H392	H	1.311809	0.110509	-0.058093
H393	H	0.974279	-0.366059	-0.562803
H394	H	1.474279	0.133941	-0.062803
H395	H	0.906616	-0.367129	-0.638742
H396	H	1.406616	0.132871	-0.138742
H397	H	0.737914	-0.174859	-0.225638
H398	H	1.237914	0.325141	0.274362
