data_functionalizedCrystal
_audit_creation_method	'MofGen! by Chris Wilmer'
_symmetry_space_group_name_H-M	'P1'
_symmetry_Int_Tables_number	1
_symmetry_cell_setting	triclinic
loop_
_symmetry_equiv_pos_as_xyz
  x,y,z
_cell_length_a	15.297475
_cell_length_b	12.827892
_cell_length_c	12.827885
_cell_angle_alpha	90.029786
_cell_angle_beta	80.312948
_cell_angle_gamma	99.681360
loop_
_atom_site_label
_atom_site_type_symbol
_atom_site_fract_x
_atom_site_fract_y
_atom_site_fract_z
Zn1	Zn	1.379325	0.692883	-0.866944
Zn2	Zn	1.379233	0.867642	-0.692186
Zn3	Zn	1.228449	0.662646	-0.662017
Zn4	Zn	1.228437	0.837292	-0.836701
O5	O	1.303861	0.765116	-0.764462
O6	O	1.505563	0.741422	-0.869044
O7	O	1.359199	0.840496	-0.541941
O8	O	1.248507	0.520430	-0.689232
O9	O	1.505496	0.869816	-0.740650
O10	O	1.359354	0.542645	-0.839791
O11	O	1.248418	0.689886	-0.519776
O12	O	1.102197	0.660457	-0.659907
O13	O	1.248485	0.818089	-0.986956
O14	O	1.102188	0.788769	-0.788247
O15	O	1.359342	0.711992	-1.009175
O16	O	1.359186	1.009844	-0.711325
O17	O	1.248397	0.987545	-0.817500
C18	C	1.069457	0.718039	-0.717522
C19	C	0.969178	0.697925	-0.697466
C20	C	1.303805	1.036615	-0.764432
C21	C	1.303863	1.152779	-0.764471
C22	C	1.303922	0.765028	-1.037045
C23	C	1.303949	0.764990	-1.153203
C24	C	0.686588	0.908885	-0.907810
C25	C	0.780805	0.927791	-0.926651
C26	C	0.827903	0.870326	-0.869357
C27	C	0.780774	0.793952	-0.793217
C28	C	0.686548	0.775049	-0.774369
C29	C	0.827863	0.736490	-0.735916
C30	C	0.780734	0.660116	-0.659776
C31	C	0.686517	0.641216	-0.640932
C32	C	0.639419	0.698682	-0.698226
C33	C	0.922089	0.755393	-0.754764
C34	C	0.922049	0.621557	-0.621323
C35	C	0.827832	0.602651	-0.602482
C36	C	1.539180	0.812377	-0.811586
C37	C	1.639460	0.832517	-0.831667
C38	C	1.303942	0.492562	-0.764520
C39	C	1.303977	0.376416	-0.764544
C40	C	1.358750	1.215576	-0.712016
C41	C	1.358812	1.335639	-0.712055
C42	C	1.358810	0.712479	-1.215984
C43	C	1.358838	0.712439	-1.336040
C44	C	1.303852	0.765139	-0.492950
C45	C	1.304000	0.764917	-0.376827
H46	H	0.960452	0.817577	-0.816758
H47	H	1.257032	0.809880	-1.322887
H48	H	0.562700	0.683290	-0.682892
H49	H	0.789446	0.540466	-0.540489
H50	H	1.405755	0.667548	-1.180851
H51	H	1.256995	0.809910	-1.188334
H52	H	0.904619	0.885724	-0.884702
N53	N	0.831636	1.010164	-1.008760
H54	H	0.787505	1.043700	-1.042197
H55	H	0.870756	0.975538	-1.065021
H56	H	1.405700	1.180457	-0.667082
N57	N	0.635693	0.558850	-0.558800
H58	H	0.652107	0.487498	-0.578446
H59	H	0.568874	0.555684	-0.555584
H60	H	1.405810	0.667487	-1.389988
H61	H	0.648233	0.955671	-0.954444
H62	H	0.960396	0.574765	-0.574668
H63	H	1.256980	1.322461	-0.809451
N64	N	1.421052	1.407105	-0.652551
H65	H	1.412271	1.482742	-0.661009
H66	H	1.485485	1.400944	-0.681754
N67	N	1.241674	1.199299	-0.823992
H68	H	1.177197	1.167492	-0.794799
H69	H	1.255699	1.183085	-0.901466
