data_functionalizedCrystal
_audit_creation_method	'MofGen! by Chris Wilmer'
_symmetry_space_group_name_H-M	'P1'
_symmetry_Int_Tables_number	1
_symmetry_cell_setting	triclinic
loop_
_symmetry_equiv_pos_as_xyz
  x,y,z
_cell_length_a	14.044220
_cell_length_b	16.992694
_cell_length_c	16.053810
_cell_angle_alpha	87.261482
_cell_angle_beta	87.189008
_cell_angle_gamma	88.071450
loop_
_atom_site_label
_atom_site_type_symbol
_atom_site_fract_x
_atom_site_fract_y
_atom_site_fract_z
O1	O	0.198289	-1.057550	0.069327
O2	O	0.196071	-0.829110	0.069351
O3	O	0.058936	-0.939901	0.069331
O4	O	0.335424	-0.946759	0.069347
O5	O	0.066484	-0.933830	-0.069526
O6	O	0.203619	-0.823039	-0.069506
O7	O	0.205837	-1.051479	-0.069531
Zn8	Zn	0.205926	-0.936295	-0.091565
Zn9	Zn	0.195982	-0.944294	0.091386
O10	O	0.342972	-0.940688	-0.069511
C11	C	0.027168	-0.933863	-0.000098
C12	C	-0.078736	-0.924909	-0.000098
C13	C	0.196993	-0.796663	-0.000074
C14	C	0.188484	-0.709024	-0.000065
C15	C	0.204915	-1.083926	-0.000103
C16	C	0.213424	-1.171565	-0.000107
C17	C	-0.272638	-0.908540	-0.000084
C18	C	-0.325460	-0.972046	-0.000088
C19	C	-0.433354	-0.962938	-0.000080
C20	C	-0.164734	-0.917647	-0.000091
C21	C	0.374740	-0.946726	-0.000080
C22	C	0.480643	-0.955680	-0.000074
N23	N	0.212713	-0.930842	-0.216424
C24	C	0.270580	-0.664526	-0.000061
C25	C	0.262581	-0.582179	-0.000073
C26	C	0.172483	-0.544333	-0.000083
C27	C	0.090381	-0.588837	-0.000090
C28	C	0.098382	-0.671182	-0.000084
C29	C	0.139322	-0.298414	-0.000107
C30	C	0.131327	-0.216063	-0.000111
C31	C	0.303528	-0.209412	-0.000096
C32	C	0.311521	-0.291759	-0.000085
C33	C	0.229419	-0.336255	-0.000096
N34	N	0.164304	-0.460161	-0.000093
N35	N	0.237599	-0.420425	-0.000092
C36	C	0.247523	-0.902598	-0.740051
C37	C	0.242795	-0.906431	-0.652645
C38	C	0.179736	-0.957424	-0.608945
C39	C	0.121395	-1.004581	-0.652655
C40	C	0.126118	-1.000743	-0.740059
C41	C	0.159095	-0.974161	-0.347539
C42	C	0.154378	-0.977997	-0.260128
C43	C	0.275778	-0.879846	-0.260125
C44	C	0.280500	-0.876016	-0.347531
C45	C	0.222155	-0.923169	-0.391233
N46	N	0.174904	-0.961345	-0.519602
N47	N	0.226983	-0.919244	-0.480574
N48	N	0.189188	-0.949753	0.216245
H49	H	-0.308444	-0.847335	-0.000075
H50	H	0.329433	-0.545952	-0.000069
H51	H	0.072468	-0.334634	-0.000117
H52	H	0.343947	-0.695335	-0.000052
H53	H	-0.289655	-1.033258	-0.000039
O54	O	0.399118	-0.328393	-0.000117
C55	C	0.469864	-0.271460	-0.000095
H56	H	0.440351	-0.212592	-0.026390
H57	H	0.491865	-0.264582	0.066523
C58	C	0.593539	-0.370386	-0.022248
C59	C	0.557293	-0.298084	-0.054550
H60	H	0.647472	-0.386809	-0.055834
H61	H	0.545877	-0.408744	-0.022259
H62	H	0.611866	-0.364644	0.033267
H63	H	0.538956	-0.303828	-0.110059
H64	H	0.604955	-0.259727	-0.054549
H65	H	0.103025	-1.019524	-0.224551
H66	H	0.370371	-0.173174	-0.000089
H67	H	0.298876	-0.861078	-0.775627
H68	H	0.057955	-0.185252	-0.000118
O69	O	0.002930	-0.551951	-0.000064
C70	C	0.013471	-0.469728	-0.000087
H71	H	0.084943	-0.456767	0.026207
H72	H	0.010743	-0.443614	-0.066705
C73	C	-0.155658	-0.448617	0.022065
C74	C	-0.067879	-0.432697	0.054367
H75	H	-0.205841	-0.425773	0.055651
H76	H	-0.162761	-0.504012	0.022078
H77	H	-0.157919	-0.426855	-0.033450
H78	H	-0.065615	-0.454468	0.109876
H79	H	-0.060778	-0.377305	0.054365
H80	H	0.031530	-0.707411	-0.000086
H81	H	0.111590	-1.012557	-0.383114
H82	H	0.290295	-0.868034	-0.617062
H83	H	0.331847	-0.834493	-0.383110
H84	H	0.323278	-0.841454	-0.224534
H85	H	0.070046	-1.046097	-0.617068
H86	H	0.078615	-1.039141	-0.775642
