data_functionalizedCrystal
_audit_creation_method	'MofGen! by Chris Wilmer'
_symmetry_space_group_name_H-M	'P1'
_symmetry_Int_Tables_number	1
_symmetry_cell_setting	triclinic
loop_
_symmetry_equiv_pos_as_xyz
  x,y,z
_cell_length_a	14.519709
_cell_length_b	9.482900
_cell_length_c	11.026607
_cell_angle_alpha	78.613859
_cell_angle_beta	83.866919
_cell_angle_gamma	80.665660
loop_
_atom_site_label
_atom_site_type_symbol
_atom_site_fract_x
_atom_site_fract_y
_atom_site_fract_z
O1	O	1.238836	0.120701	-0.178037
O2	O	0.973442	0.120745	-0.196784
O3	O	1.084144	0.120721	-0.010709
O4	O	1.128134	0.120725	-0.364112
O5	O	1.106669	-0.121076	0.027169
O6	O	0.995967	-0.121053	-0.158905
O7	O	1.261360	-0.121096	-0.140158
Cu8	Cu	1.130720	-0.143152	-0.146073
Cu9	Cu	1.104082	0.142801	-0.190869
O10	O	1.150659	-0.121073	-0.326233
C11	C	0.950201	-0.000148	-0.176972
C12	C	0.847386	-0.000132	-0.174357
N13	N	1.149463	-0.344277	-0.114565
C14	C	1.087291	-0.000174	0.053458
C15	C	1.063097	-0.000165	0.188223
C16	C	0.470909	-0.000198	-0.164712
C17	C	0.575656	-0.000179	-0.167391
C18	C	0.659144	-0.000163	-0.169535
C19	C	0.763898	-0.000147	-0.172213
C20	C	1.284602	-0.000200	-0.159971
C21	C	1.387415	-0.000207	-0.162587
N22	N	1.085346	0.343925	-0.222368
C23	C	1.125200	0.416116	-0.155372
C24	C	1.109602	0.583536	-0.181570
C25	C	1.147512	-0.000174	-0.390401
C26	C	1.171704	-0.000174	-0.525167
C27	C	1.129898	-0.000174	0.261885
C28	C	1.104894	-0.000165	0.401172
H29	H	1.063935	0.645671	-0.258333
C30	C	1.211163	0.571796	-0.010868
C31	C	1.184717	0.592548	0.124141
C32	C	1.246416	0.508620	0.227835
C33	C	1.334561	0.403940	0.196520
C34	C	1.361011	0.383183	0.061505
C35	C	1.299312	0.467111	-0.042190
H36	H	1.119464	0.670043	0.147327
H37	H	1.226836	0.523986	0.327782
H38	H	1.380234	0.341811	0.273280
H39	H	1.426264	0.305688	0.038318
H40	H	1.318892	0.451745	-0.142137
H41	H	1.039681	0.406065	-0.299125
C42	C	1.232168	-0.000194	0.207787
C43	C	1.281866	-0.125763	0.144287
C44	C	1.384138	-0.125783	0.090192
C45	C	1.436712	-0.000234	0.099597
C46	C	1.387014	0.125344	0.163100
C47	C	1.284741	0.125364	0.217195
H48	H	1.242948	-0.218709	0.137322
H49	H	1.420928	-0.218744	0.043182
H50	H	1.512420	-0.000249	0.059553
H51	H	1.425932	0.218291	0.170065
H52	H	1.247952	0.218326	0.264205
C53	C	1.002619	-0.000145	0.455262
C54	C	0.976309	-0.125694	0.558112
C55	C	0.874035	-0.125674	0.612203
C56	C	0.798072	-0.000106	0.563443
C57	C	0.824380	0.125453	0.460588
C58	C	0.926653	0.125433	0.406497
H59	H	1.032543	-0.218656	0.594211
H60	H	0.854561	-0.218622	0.688343
H61	H	0.722363	-0.000091	0.603485
H62	H	0.768146	0.218415	0.424488
H63	H	0.946128	0.218381	0.330356
H64	H	1.247400	-0.000077	0.434769
H65	H	0.987396	-0.000143	0.228275
H66	H	1.170873	0.353978	-0.078623
