data_functionalizedCrystal
_audit_creation_method	'MofGen! by Chris Wilmer'
_symmetry_space_group_name_H-M	'P1'
_symmetry_Int_Tables_number	1
_symmetry_cell_setting	triclinic
loop_
_symmetry_equiv_pos_as_xyz
  x,y,z
_cell_length_a	14.044191
_cell_length_b	10.654560
_cell_length_c	9.130313
_cell_angle_alpha	90.000516
_cell_angle_beta	90.001968
_cell_angle_gamma	88.840532
loop_
_atom_site_label
_atom_site_type_symbol
_atom_site_fract_x
_atom_site_fract_y
_atom_site_fract_z
O1	O	1.259704	0.303022	-0.121717
O2	O	0.983662	0.292079	-0.121736
O3	O	1.128024	0.115449	-0.121723
O4	O	1.115341	0.479651	-0.121730
O5	O	1.128023	0.115454	0.121876
O6	O	0.983660	0.292084	0.121863
O7	O	1.259702	0.303027	0.121882
Cu8	Cu	1.121681	0.297556	0.144115
Cu9	Cu	1.121683	0.297550	-0.143969
O10	O	1.115340	0.479656	0.121869
C11	C	0.948315	0.287295	0.000061
C12	C	0.842995	0.273016	0.000053
C13	C	1.127090	0.068560	0.000074
C14	C	1.124298	-0.071163	0.000067
C15	C	1.120376	-0.268093	0.132853
C16	C	1.122988	-0.136808	0.132854
C17	C	1.122985	-0.136810	-0.132731
C18	C	1.120366	-0.268093	-0.132730
C19	C	1.119076	-0.333731	0.265649
C20	C	1.120387	-0.268093	0.398447
C21	C	1.122999	-0.136808	0.398448
C22	C	1.124301	-0.071160	0.265652
C23	C	0.593205	0.348181	0.000067
C24	C	0.650165	0.246931	0.000066
C25	C	0.757465	0.261448	0.000059
C26	C	0.485894	0.333666	0.000074
C27	C	1.295049	0.307811	0.000081
C28	C	1.400369	0.322090	0.000079
C29	C	1.116274	0.526545	0.000068
C30	C	1.119066	0.666269	0.000066
N31	N	1.121686	0.297560	0.346737
N32	N	1.121685	0.297537	-0.346592
C33	C	1.185627	0.219379	0.423395
C34	C	1.185624	0.219364	0.576732
C35	C	1.057738	0.375721	0.576740
C36	C	1.057737	0.375729	0.423406
C37	C	1.249576	0.141210	0.346727
C38	C	1.313522	0.063024	0.423384
C39	C	1.313520	0.063008	0.576721
C40	C	1.249571	0.141179	0.653400
H41	H	1.116952	-0.440631	0.265663
Br42	Br	1.249588	0.141237	0.138627
H43	H	0.618345	0.149345	-0.000035
Br44	Br	1.124758	-0.047728	0.578669
H45	H	1.005670	0.439390	0.360990
Br46	Br	1.127847	0.107015	0.265657
Br47	Br	0.646237	0.510822	0.000048
H48	H	1.365582	-0.000628	0.360945
Br49	Br	1.400291	-0.043112	0.680757
Br50	Br	1.249561	0.141139	0.861502
H51	H	1.119319	-0.321551	0.506565
Br52	Br	1.118578	-0.357181	-0.312944
H53	H	1.005674	0.439366	0.639182
H54	H	1.124045	-0.083350	-0.240847
