data_functionalizedCrystal
_audit_creation_method	'MofGen! by Chris Wilmer'
_symmetry_space_group_name_H-M	'P1'
_symmetry_Int_Tables_number	1
_symmetry_cell_setting	triclinic
loop_
_symmetry_equiv_pos_as_xyz
  x,y,z
_cell_length_a	16.956984
_cell_length_b	11.026607
_cell_length_c	15.455313
_cell_angle_alpha	93.255562
_cell_angle_beta	87.518126
_cell_angle_gamma	92.319718
loop_
_atom_site_label
_atom_site_type_symbol
_atom_site_fract_x
_atom_site_fract_y
_atom_site_fract_z
O1	O	1.067849	0.043987	-0.072134
O2	O	1.567849	0.543987	0.427866
O3	O	0.841720	0.085987	-0.072134
O4	O	1.341720	0.585987	0.427866
O5	O	0.936043	-0.109786	-0.072131
O6	O	1.436043	0.390214	0.427869
O7	O	0.973526	0.239760	-0.072137
O8	O	1.473526	0.739760	0.427863
O9	O	0.930643	-0.098634	0.072131
O10	O	1.430643	0.401366	0.572131
O11	O	0.836320	0.097139	0.072128
O12	O	1.336320	0.597139	0.572128
O13	O	1.062449	0.055139	0.072128
O14	O	1.562449	0.555139	0.572128
Cu15	Cu	0.948891	0.077157	0.085300
Cu16	Cu	1.448891	0.577157	0.585300
Cu17	Cu	0.955277	0.063969	-0.085307
Cu18	Cu	1.455277	0.563969	0.414693
O19	O	0.968126	0.250912	0.072125
O20	O	1.468126	0.750912	0.572125
C21	C	0.809621	0.093714	-0.000003
C22	C	1.309621	0.593714	0.499997
C23	C	0.722018	0.100108	-0.000004
C24	C	1.222018	0.600108	0.499996
C25	C	0.674587	-0.006802	-0.000000
C26	C	1.174587	0.493198	0.500000
C27	C	0.592275	-0.000787	-0.000006
C28	C	1.092275	0.499213	0.499994
C29	C	0.557396	0.112139	-0.000010
C30	C	1.057396	0.612139	0.499990
C31	C	0.604833	0.219057	-0.000016
C32	C	1.104833	0.719057	0.499984
C33	C	0.687143	0.213040	-0.000016
C34	C	1.187143	0.713040	0.499984
C35	C	0.311898	0.141919	-0.000017
C36	C	0.811898	0.641919	0.499983
C37	C	0.229582	0.147927	-0.000014
C38	C	0.729582	0.647927	0.499986
C39	C	0.217030	-0.071918	-0.000006
C40	C	0.717030	0.428082	0.499994
C41	C	0.299342	-0.077924	-0.000001
C42	C	0.799342	0.422076	0.499999
C43	C	0.346772	0.028993	-0.000011
C44	C	0.846772	0.528993	0.499989
N45	N	0.473260	0.118290	-0.000014
N46	N	0.973260	0.618290	0.499986
N47	N	0.430906	0.022841	-0.000014
N48	N	0.930906	0.522841	0.499986
C49	C	0.926428	-0.148727	-0.000001
C50	C	1.426428	0.351273	0.499999
C51	C	0.905815	-0.281373	-0.000004
C52	C	1.405815	0.218627	0.499996
C53	C	0.962732	-0.360889	-0.000006
C54	C	1.462732	0.139111	0.499994
C55	C	0.941428	-0.497986	-0.000009
C56	C	1.441428	0.002014	0.499991
C57	C	1.094548	0.047412	-0.000005
C58	C	1.594548	0.547412	0.499995
C59	C	1.182151	0.041017	-0.000011
C60	C	1.682151	0.541017	0.499989
C61	C	0.977741	0.289853	-0.000007
C62	C	1.477741	0.789853	0.499993
C63	C	0.998354	0.422499	-0.000010
C64	C	1.498354	0.922499	0.499990
N65	N	0.944405	0.086432	0.205295
N66	N	1.444405	0.586432	0.705295
N67	N	0.959768	0.054684	-0.205302
N68	N	1.459768	0.554684	0.294698
C69	C	0.984499	0.003287	0.250691
C70	C	1.484499	0.503287	0.750691
C71	C	0.981115	0.010312	0.341499
C72	C	1.481115	0.510312	0.841499
C73	C	0.937642	0.100487	0.386909
C74	C	1.437642	0.600487	0.886909
C75	C	0.897543	0.183635	0.341507
C76	C	1.397543	0.683635	0.841507
C77	C	0.900923	0.176605	0.250701
C78	C	1.400923	0.676605	0.750701
C79	C	0.923049	0.130802	0.658490
C80	C	1.423049	0.630802	1.158490
C81	C	0.919675	0.137828	0.749303
C82	C	1.419675	0.637828	1.249303
C83	C	1.003246	-0.035497	0.749288
C84	C	1.503246	0.464503	1.249288
C85	C	1.006625	-0.042516	0.658480
C86	C	1.506625	0.457484	1.158480
C87	C	0.966523	0.040629	0.613086
C88	C	1.466523	0.540629	1.113086
N89	N	0.934184	0.107671	0.479729
N90	N	1.434184	0.607671	0.979729
N91	N	0.969977	0.033438	0.520267
N92	N	1.469977	0.533438	1.020267
H93	H	0.178404	-0.158964	-0.000007
H94	H	0.678404	0.341036	0.499993
Cl95	Cl	1.062320	-0.309302	-0.000011
Cl96	Cl	1.562320	0.190698	0.499989
H97	H	1.062862	-0.544093	-0.000075
H98	H	1.562862	-0.044093	0.499925
Cl99	Cl	0.850513	0.281130	0.193633
Cl100	Cl	1.350513	0.781130	0.693633
Cl101	Cl	0.185735	0.289903	-0.000010
Cl102	Cl	0.685735	0.789903	0.499990
H103	H	1.042025	-0.115943	0.621508
H104	H	1.542025	0.384057	1.121508
H105	H	0.884272	0.211265	0.786272
H106	H	1.384272	0.711265	1.286272
H107	H	0.702979	-0.098759	0.000006
H108	H	1.202979	0.401241	0.500006
H109	H	1.019903	-0.070138	0.213723
H110	H	1.519903	0.429862	0.713723
Cl111	Cl	0.371514	0.276330	-0.000029
Cl112	Cl	0.871514	0.776330	0.499971
H113	H	0.890398	0.198503	0.621537
H114	H	1.390398	0.698503	1.121537
Cl115	Cl	0.532652	-0.135197	-0.000027
Cl116	Cl	1.032652	0.364803	0.499973
Cl117	Cl	0.806227	-0.332962	-0.000013
Cl118	Cl	1.306227	0.167038	0.499987
H119	H	1.013762	-0.057391	0.378459
H120	H	1.513762	0.442609	0.878459
H121	H	0.327735	-0.169880	0.000006
H122	H	0.827735	0.330120	0.500006
Cl123	Cl	0.841837	-0.549569	-0.000018
Cl124	Cl	1.341837	-0.049569	0.499982
H125	H	0.576428	0.311003	-0.000025
H126	H	1.076428	0.811003	0.499975
H127	H	0.862142	0.257054	0.378486
H128	H	1.362142	0.757054	0.878486
H129	H	0.725761	0.300098	-0.000015
H130	H	1.225761	0.800098	0.499985
Cl131	Cl	1.053653	-0.140020	0.806358
Cl132	Cl	1.553653	0.359980	1.306358
