data_functionalizedCrystal
_audit_creation_method	'MofGen! by Chris Wilmer'
_symmetry_space_group_name_H-M	'P1'
_symmetry_Int_Tables_number	1
_symmetry_cell_setting	triclinic
loop_
_symmetry_equiv_pos_as_xyz
  x,y,z
_cell_length_a	10.489741
_cell_length_b	10.489716
_cell_length_c	14.586319
_cell_angle_alpha	90.000245
_cell_angle_beta	89.999184
_cell_angle_gamma	84.534155
loop_
_atom_site_label
_atom_site_type_symbol
_atom_site_fract_x
_atom_site_fract_y
_atom_site_fract_z
O1	O	1.694036	0.179968	-0.076175
O2	O	1.322839	0.196861	-0.076188
O3	O	1.516900	0.002815	-0.076184
O4	O	1.499975	0.374015	-0.076178
O5	O	1.516887	0.002812	0.076296
O6	O	1.322825	0.196858	0.076293
O7	O	1.694023	0.179965	0.076306
Cu8	Cu	1.508423	0.188411	0.090222
Cu9	Cu	1.508439	0.188415	-0.090104
O10	O	1.499961	0.374012	0.076302
C11	C	1.275301	0.195584	0.000051
C12	C	1.133672	0.191767	0.000045
C13	C	1.065542	0.068301	0.000052
C14	C	0.973417	0.126626	-0.075126
C15	C	0.973438	0.126653	0.075208
C16	C	1.043412	0.250143	-0.075195
C17	C	1.043442	0.250152	0.075206
C18	C	0.951344	0.308568	0.000010
C19	C	1.515622	-0.044719	0.000053
C20	C	1.511817	-0.186350	0.000045
C21	C	1.630822	-0.284024	0.000057
C22	C	1.567944	-0.361383	-0.075123
C23	C	1.567903	-0.361350	0.075211
C24	C	1.448989	-0.261843	-0.075198
C25	C	1.448965	-0.261805	0.075203
C26	C	1.386000	-0.339115	0.000004
C27	C	1.741561	0.181243	0.000066
C28	C	1.883190	0.185060	0.000065
C29	C	1.501240	0.421545	0.000063
C30	C	1.505044	0.563176	0.000065
N31	N	1.508421	0.188408	0.217054
N32	N	1.508451	0.188408	-0.216936
C33	C	1.594380	0.102514	0.452062
C34	C	1.594384	0.102511	0.548043
C35	C	1.422482	0.274307	0.548049
C36	C	1.422474	0.274303	0.452070
C37	C	1.508430	0.188408	0.404079
C38	C	1.508442	0.188409	0.596039
C39	C	1.508445	0.188406	0.700107
C40	C	1.508425	0.188408	0.300005
H41	H	0.942459	0.074388	0.138765
H42	H	1.352501	0.344242	0.587133
H43	H	1.352476	0.344248	0.412999
H44	H	1.398767	-0.218288	0.138763
O45	O	1.124650	-0.052859	0.000081
C46	C	1.087491	-0.118420	0.078608
H47	H	0.991683	-0.071697	0.104548
H48	H	1.077664	-0.222720	0.060404
H49	H	1.163076	-0.113860	0.134368
H50	H	1.734335	-0.259347	-0.000015
O51	O	0.936502	0.064106	-0.150884
C52	C	0.995216	-0.062525	-0.150635
H53	H	1.022658	-0.091877	-0.077475
H54	H	0.925593	-0.129707	-0.179031
H55	H	1.084871	-0.068390	-0.195196
H56	H	1.074241	0.302345	-0.138824
O57	O	1.627664	-0.413334	0.151068
C58	C	1.539939	-0.476531	0.203525
H59	H	1.458711	-0.503286	0.157575
H60	H	1.590962	-0.567027	0.234853
H61	H	1.499208	-0.410387	0.260565
H62	H	1.664371	0.032567	0.587109
H63	H	1.282408	-0.363546	-0.000040
H64	H	1.618186	-0.404877	-0.138681
H65	H	1.398785	-0.218538	-0.138828
H66	H	1.664369	0.032571	0.412990
O67	O	1.080659	0.312253	0.151058
C68	C	1.166609	0.229142	0.202576
H69	H	1.213368	0.150900	0.155973
H70	H	1.243620	0.285617	0.233610
H71	H	1.112344	0.183703	0.259805
O72	O	0.892417	0.429798	-0.000195
C73	C	0.928129	0.494406	-0.079553
H74	H	0.960733	0.421478	-0.134708
H75	H	0.842634	0.559443	-0.105789
H76	H	1.009894	0.554541	-0.062336
