data_functionalizedCrystal
_audit_creation_method	'MofGen! by Chris Wilmer'
_symmetry_space_group_name_H-M	'P1'
_symmetry_Int_Tables_number	1
_symmetry_cell_setting	triclinic
loop_
_symmetry_equiv_pos_as_xyz
  x,y,z
_cell_length_a	13.262393
_cell_length_b	13.339070
_cell_length_c	11.804365
_cell_angle_alpha	105.114498
_cell_angle_beta	93.584098
_cell_angle_gamma	99.429408
loop_
_atom_site_label
_atom_site_type_symbol
_atom_site_fract_x
_atom_site_fract_y
_atom_site_fract_z
O1	O	1.378761	0.207878	0.347577
O2	O	1.091839	0.203606	0.254639
O3	O	1.202371	0.056139	0.290438
O4	O	1.268229	0.355345	0.311778
O5	O	1.173261	0.094920	0.479066
O6	O	1.062729	0.242386	0.443267
O7	O	1.349651	0.246658	0.536205
Cu8	Cu	1.203532	0.248063	0.506959
Cu9	Cu	1.237958	0.202201	0.283885
O10	O	1.239119	0.394125	0.500406
C11	C	1.039811	0.219669	0.336815
C12	C	0.928149	0.209744	0.300645
C13	C	1.401679	0.230594	0.454027
C14	C	1.513342	0.240518	0.490188
C15	C	1.176692	0.037050	0.381145
C16	C	1.143533	-0.077609	0.370394
C17	C	1.891559	0.183944	0.180829
C18	C	1.786648	0.174625	0.146848
C19	C	1.718316	0.191097	0.232680
C20	C	1.754906	0.216890	0.352499
C21	C	1.859828	0.226218	0.386483
C22	C	1.686586	0.233372	0.438335
C23	C	1.723175	0.259165	0.558153
C24	C	1.828087	0.268491	0.592132
C25	C	1.896419	0.252019	0.506300
C26	C	1.581663	0.224044	0.404350
C27	C	1.549933	0.266318	0.610005
C28	C	1.654843	0.275637	0.643985
N29	N	1.179325	0.280320	0.663860
C30	C	1.264798	0.413214	0.409696
C31	C	1.297959	0.527871	0.420440
C32	C	1.040122	0.874351	0.336906
C33	C	1.008961	0.766629	0.326830
C34	C	1.081208	0.706934	0.350231
C35	C	1.184621	0.754972	0.383711
C36	C	1.215785	0.862707	0.393798
C37	C	1.256870	0.695290	0.407123
C38	C	1.360284	0.743328	0.440603
C39	C	1.391442	0.851051	0.450687
C40	C	1.319195	0.910746	0.427286
C41	C	1.225707	0.587555	0.397036
C42	C	1.401369	0.575911	0.453928
C43	C	1.432530	0.683633	0.464004
N44	N	1.262170	0.169937	0.126986
C45	C	1.320294	0.092456	1.083465
C46	C	1.338603	0.068049	0.964734
C47	C	1.298785	0.121115	0.889509
C48	C	1.240654	0.198591	0.933028
C49	C	1.222349	0.223006	1.051773
C50	C	1.200841	0.251665	0.857818
C51	C	1.142710	0.329142	0.901336
C52	C	1.124408	0.353552	1.020070
C53	C	1.164226	0.300487	1.095294
C54	C	1.219146	0.227250	0.739072
C55	C	1.121202	0.357800	0.707381
C56	C	1.102892	0.382207	0.826112
H57	H	1.551883	0.203044	0.306794
H58	H	1.756865	0.153625	0.049292
H59	H	1.055561	0.445291	0.861560
H60	H	0.924763	0.727524	0.299564
C61	C	1.318920	0.094256	0.758899
N62	N	1.334082	0.074018	0.660517
C63	C	1.046927	0.588435	0.339136
N64	N	1.021103	0.499176	0.330770
H65	H	1.385934	0.004970	0.929305
C66	C	0.960663	0.940022	0.311170
N67	N	0.900810	0.989487	0.291783
H68	H	1.981846	0.259598	0.533961
H69	H	1.344563	0.998461	0.435480
C70	C	1.868333	0.296873	0.723936
N71	N	1.898644	0.318248	0.823212
C72	C	1.505197	0.903893	0.487530
N73	N	1.590879	0.943691	0.515280
H74	H	1.632894	0.183508	0.205006
C75	C	1.474771	0.284437	0.704427
N76	N	1.418154	0.298083	0.775539
C77	C	1.695112	0.304050	0.775786
N78	N	1.725446	0.325464	0.875058
C79	C	1.546282	0.736491	0.500846
N80	N	1.631959	0.776307	0.528598
H81	H	1.947203	0.170543	0.110958
H82	H	1.088780	0.401013	0.646133
H83	H	1.460198	0.527307	0.472985
C84	C	1.364089	0.034096	1.166218
N85	N	1.397078	-0.009866	1.228550
H86	H	1.266476	0.164169	0.703651
C87	C	1.144062	0.327309	1.225900
N88	N	1.128868	0.347502	1.324272
H89	H	1.141506	0.548455	0.369782
H90	H	1.077084	0.416646	1.055505
