data_functionalizedCrystal
_audit_creation_method	'MofGen! by Chris Wilmer'
_symmetry_space_group_name_H-M	'P1'
_symmetry_Int_Tables_number	1
_symmetry_cell_setting	triclinic
loop_
_symmetry_equiv_pos_as_xyz
  x,y,z
_cell_length_a	13.897449
_cell_length_b	19.805404
_cell_length_c	19.805399
_cell_angle_alpha	90.027110
_cell_angle_beta	90.020133
_cell_angle_gamma	90.030420
loop_
_atom_site_label
_atom_site_type_symbol
_atom_site_fract_x
_atom_site_fract_y
_atom_site_fract_z
Zn1	Zn	1.474592	-0.269464	0.382732
Zn2	Zn	1.474461	-0.382652	0.269545
Zn3	Zn	1.313290	-0.269484	0.269555
Zn4	Zn	1.313229	-0.382618	0.382690
O5	O	1.393893	-0.326055	0.326131
O6	O	1.609556	-0.284484	0.367730
O7	O	1.453053	-0.367663	0.174829
O8	O	1.334767	-0.174765	0.284591
O9	O	1.609460	-0.367644	0.284572
O10	O	1.453275	-0.174750	0.367741
O11	O	1.334641	-0.284519	0.174837
O12	O	1.178300	-0.284486	0.284550
O13	O	1.334663	-0.367585	0.477412
O14	O	1.178256	-0.367605	0.367670
O15	O	1.453216	-0.284451	0.477443
O16	O	1.452994	-0.477364	0.284532
O17	O	1.334537	-0.477339	0.367659
C18	C	1.393771	-0.501911	0.326105
C19	C	1.393807	-0.577143	0.326116
C20	C	1.143279	-0.326044	0.326107
C21	C	1.036065	-0.326056	0.326113
C22	C	1.455810	-1.038924	0.282941
C23	C	1.455765	-0.968236	0.282928
C24	C	1.394020	-0.932904	0.326166
C25	C	1.332308	-0.968265	0.369417
C26	C	1.332349	-1.038952	0.369426
C27	C	1.332140	-0.683192	0.369379
C28	C	1.332106	-0.612500	0.369368
C29	C	1.455556	-0.612475	0.282881
C30	C	1.455597	-0.683163	0.282890
C31	C	1.393883	-0.718517	0.326138
C32	C	1.393931	-0.795165	0.326151
C33	C	1.393975	-0.856257	0.326157
C34	C	0.948995	-0.326058	0.326124
C35	C	0.839763	-0.326063	0.326145
C36	C	1.645486	-0.326066	0.326155
C37	C	1.752700	-0.326070	0.326165
C38	C	1.393947	-0.326012	0.502673
C39	C	1.393970	-0.325994	0.577905
C40	C	1.394042	-0.149512	0.326172
C41	C	1.394106	-0.074280	0.326189
C42	C	1.393895	-0.326048	0.150275
C43	C	1.394059	-0.325876	0.075043
C44	C	1.455702	-0.282704	0.613267
C45	C	1.455712	-0.282684	0.683955
C46	C	1.393994	-0.325958	0.719281
C47	C	1.332256	-0.369250	0.683915
C48	C	1.332242	-0.369266	0.613228
C49	C	1.332310	-0.369187	0.968988
C50	C	1.332331	-0.369170	1.039681
C51	C	1.455780	-0.282605	1.039716
C52	C	1.455766	-0.282621	0.969029
C53	C	1.394025	-0.325910	0.933669
C54	C	1.394013	-0.325930	0.857020
C55	C	1.394010	-0.325943	0.795928
H56	H	1.506096	-1.067686	0.247734
H57	H	1.505963	-0.247467	0.584509
H58	H	1.282108	-1.067738	0.404646
O59	O	1.272326	-0.411113	1.074073
C60	C	1.142080	-0.420185	1.153841
C61	C	1.209981	-0.372611	1.114945
H62	H	1.091643	-0.389076	1.186884
H63	H	1.186294	-0.455561	1.186976
H64	H	1.097991	-0.451144	1.116416
H65	H	1.254084	-0.341609	1.152321
H66	H	1.165712	-0.337280	1.081800
H67	H	1.505805	-0.583682	0.247665
H68	H	1.282001	-0.404482	0.712683
H69	H	1.506009	-0.939450	0.247711
H70	H	1.505880	-0.711926	0.247683
O71	O	1.272237	-0.717634	0.411332
C72	C	1.217631	-0.826539	0.449723
C73	C	1.285503	-0.787615	0.402160
H74	H	1.228348	-0.883125	0.442334
H75	H	1.139831	-0.812749	0.437789
H76	H	1.234515	-0.812552	0.504300
H77	H	1.268705	-0.801581	0.347568
H78	H	1.363283	-0.801408	0.414153
H79	H	1.281822	-0.583734	0.404580
O80	O	1.272244	-0.934051	0.411446
C81	C	1.149857	-0.941541	0.497275
C82	C	1.217809	-0.980370	0.449694
H83	H	1.105843	-0.978973	0.528221
H84	H	1.099360	-0.908512	0.466202
H85	H	1.194119	-0.908383	0.532661
H86	H	1.173624	-1.013564	0.414299
H87	H	1.268308	-1.013356	0.480809
O88	O	1.272391	-0.411420	0.578902
C89	C	1.225451	-0.526558	0.557261
C90	C	1.293306	-0.478895	0.596166
H91	H	1.242323	-0.581120	0.571215
H92	H	1.236052	-0.519192	0.500664
H93	H	1.147686	-0.514637	0.571137
H94	H	1.371096	-0.490786	0.582347
H95	H	1.282621	-0.486270	0.652753
H96	H	1.506050	-0.247355	1.068514
H97	H	1.282051	-0.404446	0.940207
H98	H	1.505982	-0.247435	0.712743
H99	H	1.506026	-0.247385	0.940270
