data_functionalizedCrystal
_audit_creation_method	'MofGen! by Chris Wilmer'
_symmetry_space_group_name_H-M	'P1'
_symmetry_Int_Tables_number	1
_symmetry_cell_setting	triclinic
loop_
_symmetry_equiv_pos_as_xyz
  x,y,z
_cell_length_a	27.435584
_cell_length_b	27.434948
_cell_length_c	27.431174
_cell_angle_alpha	60.005483
_cell_angle_beta	60.011353
_cell_angle_gamma	59.993028
loop_
_atom_site_label
_atom_site_type_symbol
_atom_site_fract_x
_atom_site_fract_y
_atom_site_fract_z
O1	O	0.067437	-0.712144	0.595551
O2	O	0.567437	-0.212144	1.095551
O3	O	0.025356	-0.554453	0.479848
O4	O	0.525356	-0.054453	0.979848
O5	O	0.125206	-0.654236	0.479781
O6	O	0.625206	-0.154236	0.979781
O7	O	-0.032412	-0.612361	0.595618
O8	O	0.467588	-0.112361	1.095618
O9	O	0.158328	-0.621117	0.512835
O10	O	0.658328	-0.121117	1.012835
O11	O	0.058479	-0.521333	0.512902
O12	O	0.558479	-0.021333	1.012902
O13	O	0.100560	-0.679025	0.628605
O14	O	0.600560	-0.179025	1.128605
Zn15	Zn	0.084778	-0.594921	0.576001
Zn16	Zn	0.584778	-0.094921	1.076001
Zn17	Zn	0.041138	-0.638557	0.532452
Zn18	Zn	0.541138	-0.138557	1.032452
O19	O	0.000710	-0.579241	0.628672
O20	O	0.500710	-0.079241	1.128672
N21	N	0.114563	-0.565144	0.605726
N22	N	0.614563	-0.065144	1.105726
N23	N	0.011358	-0.668338	0.502727
N24	N	0.511358	-0.168338	1.002727
C25	C	0.156385	-0.523520	0.904506
C26	C	0.656385	-0.023520	1.404506
C27	C	0.413419	-0.523497	0.647322
C28	C	0.913419	-0.023497	1.147322
C29	C	0.156253	-0.523488	0.647384
C30	C	0.656253	-0.023488	1.147384
C31	C	0.156238	-0.266354	0.647407
C32	C	0.656238	0.233646	1.147407
C33	C	0.197637	-0.390463	0.688753
C34	C	0.697637	0.109537	1.188753
C35	C	0.197646	-0.482126	0.688741
C36	C	0.697646	0.017874	1.188741
C37	C	0.220575	-0.459215	0.711654
C38	C	0.720575	0.040785	1.211654
C39	C	0.320555	-0.441991	0.659023
C40	C	0.820555	0.058009	1.159023
C41	C	0.383051	-0.462825	0.638179
C42	C	0.883051	0.037175	1.138179
C43	C	0.383069	-0.563942	0.676737
C44	C	0.883069	-0.063942	1.176737
C45	C	0.320575	-0.543107	0.697583
C46	C	0.820575	-0.043107	1.197583
C47	C	0.212704	-0.359206	0.627313
C48	C	0.712704	0.140794	1.127313
C49	C	0.191849	-0.296705	0.606496
C50	C	0.691849	0.203295	1.106496
C51	C	0.140866	-0.296722	0.708562
C52	C	0.640866	0.203278	1.208562
C53	C	0.161721	-0.359223	0.729379
C54	C	0.661721	0.140777	1.229379
C55	C	0.136200	-0.467030	0.703858
C56	C	0.636200	0.032970	1.203858
C57	C	0.115361	-0.487857	0.683021
C58	C	0.615361	0.012143	1.183021
C59	C	0.217408	-0.538877	0.631968
C60	C	0.717408	-0.038877	1.131968
C61	C	0.238249	-0.518050	0.652796
C62	C	0.738249	-0.018050	1.152796
C63	C	0.136259	-0.467047	0.811668
C64	C	0.636259	0.032953	1.311668
C65	C	0.115461	-0.487892	0.874167
C66	C	0.615461	0.012108	1.374167
C67	C	0.217537	-0.538923	0.874131
C68	C	0.717537	-0.038923	1.374131
C69	C	0.238333	-0.518080	0.811631
C70	C	0.738333	-0.018080	1.311631
C71	C	0.197693	-0.482140	0.780401
C72	C	0.697693	0.017860	1.280401
C73	C	0.289320	-0.482131	0.688723
C74	C	0.789320	0.017869	1.188723
C75	C	0.132699	-0.546027	0.973247
C76	C	0.632699	-0.046027	1.473247
C77	C	0.482158	-0.545613	0.624075
C78	C	0.982158	-0.045613	1.124075
C79	C	0.132521	-0.546006	0.624886
C80	C	0.632521	-0.046006	1.124886
C81	C	0.132917	-0.197607	0.625310
C82	C	0.632917	0.302393	1.125310
C83	C	-0.098217	-0.686189	0.484419
C84	C	0.401783	-0.186189	0.984419
C85	C	-0.006438	-0.686322	0.392891
C86	C	0.493562	-0.186322	0.892891
C87	C	-0.006621	-0.777944	0.484592
C88	C	0.493379	-0.277944	0.984592
C89	C	-0.006606	-0.686315	0.484649
C90	C	0.493394	-0.186315	0.984649
C91	C	-0.029470	-0.709193	0.461638
C92	C	0.470530	-0.209193	0.961638
N93	N	0.538410	-0.565162	0.605628
N94	N	1.038410	-0.065162	1.105628
O95	O	0.742647	-0.575135	0.458625
O96	O	1.242647	-0.075135	0.958625
O97	O	0.742821	-0.691181	0.616169
O98	O	1.242821	-0.191181	1.116169
O99	O	0.742757	-0.690917	0.516248
O100	O	1.242757	-0.190917	1.016248
O101	O	0.742711	-0.575399	0.558546
O102	O	1.242711	-0.075399	1.058546
O103	O	0.643472	-0.657878	0.549405
O104	O	1.143472	-0.157878	1.049405
O105	O	0.643536	-0.658142	0.649326
O106	O	1.143536	-0.158142	1.149326
O107	O	0.643362	-0.542096	0.491782
O108	O	1.143362	-0.042096	0.991782
Zn109	Zn	0.627685	-0.594873	0.575818
Zn110	Zn	1.127685	-0.094873	1.075818
Zn111	Zn	0.758498	-0.638404	0.532133
Zn112	Zn	1.258498	-0.138404	1.032133
O113	O	0.643426	-0.542360	0.591702
O114	O	1.143426	-0.042360	1.091702
N115	N	0.847774	-0.668115	0.502317
N116	N	1.347774	-0.168115	1.002317
N117	N	0.114542	-0.141354	0.605766
N118	N	0.614542	0.358646	1.105766
O119	O	-0.032397	0.062987	0.595660
O120	O	0.467603	0.562987	1.095660
O121	O	0.125155	0.062987	0.479633
O122	O	0.625155	0.562987	0.979633
O123	O	0.025219	0.062974	0.479910
O124	O	0.525219	0.562974	0.979910
O125	O	0.067539	0.063001	0.595383
O126	O	0.567539	0.563001	1.095383
O127	O	0.058343	-0.036320	0.513009
O128	O	0.558343	0.463680	1.013009
O129	O	0.158279	-0.036306	0.512732
O130	O	0.658279	0.463694	1.012732
O131	O	0.000728	-0.036306	0.628759
O132	O	0.500728	0.463694	1.128759
Zn133	Zn	0.084763	-0.052071	0.576000
Zn134	Zn	0.584763	0.447929	1.076000
Zn135	Zn	0.041120	0.078752	0.532392
Zn136	Zn	0.541120	0.578752	1.032392
O137	O	0.100664	-0.036292	0.628482
O138	O	0.600664	0.463708	1.128482
N139	N	0.011333	0.168036	0.502628
N140	N	0.511333	0.668036	1.002628
N141	N	0.114782	-0.565197	1.029501
N142	N	0.614782	-0.065197	1.529501
O143	O	0.104681	-0.712124	1.233827
O144	O	0.604681	-0.212124	1.733827
O145	O	-0.011334	-0.554523	1.233839
O146	O	0.488666	-0.054523	1.733839
O147	O	-0.011066	-0.654443	1.233797
O148	O	0.488934	-0.154443	1.733797
O149	O	0.104414	-0.612204	1.233869
O150	O	0.604414	-0.112204	1.733869
O151	O	0.022028	-0.621336	1.134509
O152	O	0.522028	-0.121336	1.634509
O153	O	0.021760	-0.521417	1.134551
O154	O	0.521760	-0.021417	1.634551
O155	O	0.137775	-0.679018	1.134539
O156	O	0.637775	-0.179018	1.634539
Zn157	Zn	0.085022	-0.594961	1.118780
Zn158	Zn	0.585022	-0.094961	1.618780
Zn159	Zn	0.041420	-0.638580	1.249597
Zn160	Zn	0.541420	-0.138580	1.749597
O161	O	0.137508	-0.579098	1.134580
O162	O	0.637508	-0.079098	1.634580
N163	N	0.011658	-0.668350	1.338876
N164	N	0.511658	-0.168350	1.838876
C165	C	0.037974	-0.518023	0.480435
C166	C	0.537974	-0.018023	0.980435
C167	C	0.161625	-0.641592	0.480351
C168	C	0.661625	-0.141592	0.980351
C169	C	0.087941	-0.715455	0.628017
C170	C	0.587941	-0.215455	1.128017
C171	C	-0.035710	-0.591885	0.628101
C172	C	0.464290	-0.091885	1.128101
C173	C	0.693199	-0.690642	0.652596
C174	C	1.193199	-0.190642	1.152596
C175	C	0.693122	-0.690315	0.528855
C176	C	1.193122	-0.190315	1.028855
C177	C	0.692981	-0.542634	0.455356
C178	C	1.192981	-0.042634	0.955356
C179	C	0.693062	-0.542961	0.579095
C180	C	1.193062	-0.042961	1.079095
C181	C	0.161524	0.013463	0.480164
C182	C	0.661524	0.513463	0.980164
C183	C	0.037807	0.013324	0.480547
C184	C	0.537807	0.513324	0.980547
C185	C	-0.035683	0.013341	0.628188
C186	C	0.464317	0.513341	1.128188
C187	C	0.088076	0.013357	0.627845
C188	C	0.588076	0.513357	1.127845
C189	C	-0.010764	-0.518114	1.184196
C190	C	0.489236	-0.018114	1.684196
C191	C	-0.010426	-0.641846	1.184125
C192	C	0.489574	-0.141846	1.684125
C193	C	0.137205	-0.715426	1.184182
C194	C	0.637205	-0.215426	1.684182
C195	C	0.136875	-0.591687	1.184231
C196	C	0.636875	-0.091687	1.684231
H197	H	0.103160	-0.437777	0.786243
H198	H	0.603160	0.062223	1.286243
O199	O	0.692835	-0.499184	0.401385
O200	O	1.192835	0.000816	0.901385
C201	C	0.641389	-0.485336	0.390709
C202	C	1.141389	0.014664	0.890709
H203	H	0.624291	-0.524818	0.418560
H204	H	1.124291	-0.024818	0.918560
H205	H	0.652912	-0.475576	0.341343
H206	H	1.152912	0.024424	0.841343
H207	H	0.605365	-0.444417	0.403592
H208	H	1.105365	0.055583	0.903592
H209	H	0.173154	-0.582650	1.184245
H210	H	0.673154	-0.082650	1.684245
H211	H	0.693053	-0.506675	0.588146
H212	H	1.193053	-0.006675	1.088146
O213	O	0.027109	0.013231	0.437243
O214	O	0.527109	0.513231	0.937243
C215	C	0.068029	-0.038207	0.421200
C216	C	0.568029	0.461793	0.921200
H217	H	0.109407	-0.055343	0.433102
H218	H	0.609407	0.444657	0.933102
H219	H	0.081373	-0.026652	0.371121
H220	H	0.581373	0.473348	0.871121
H221	H	0.046397	-0.074219	0.446404
H222	H	0.546397	0.425781	0.946404
O223	O	0.215415	0.013821	0.436651
O224	O	0.715415	0.513821	0.936651
C225	C	0.252546	0.013928	0.458101
C226	C	0.752546	0.513928	0.958101
H227	H	0.223828	0.032534	0.496561
H228	H	0.723828	0.532534	0.996561
H229	H	0.280917	0.042984	0.420616
H230	H	0.780917	0.542984	0.920616
H231	H	0.282917	-0.033645	0.474471
H232	H	0.782917	0.466355	0.974471
H233	H	-0.046689	-0.650868	1.184063
H234	H	0.453311	-0.150868	1.684063
O235	O	-0.089663	0.013425	0.671668
O236	O	0.410337	0.513425	1.171668
C237	C	-0.116084	0.064865	0.687673
C238	C	0.383916	0.564865	1.187673
H239	H	-0.079879	0.082012	0.675560
H240	H	0.420121	0.582012	1.175560
H241	H	-0.141065	0.053308	0.737784
H242	H	0.358935	0.553308	1.237784
H243	H	-0.148674	0.100870	0.662616
H244	H	0.351326	0.600870	1.162616
H245	H	0.693242	-0.727072	0.697844
H246	H	1.193242	-0.227072	1.197844
H247	H	-0.047187	-0.472851	1.184199
H248	H	0.452813	0.027149	1.684199
H249	H	0.065433	-0.475593	0.899616
H250	H	0.565433	0.024407	1.399616
H251	H	0.173631	-0.760687	1.184171
H252	H	0.673631	-0.260687	1.684171
O253	O	0.257097	-0.573840	0.904371
O254	O	0.757097	-0.073840	1.404371
C255	C	0.315779	-0.582672	0.863369
C256	C	0.815779	-0.082672	1.363369
H257	H	0.315643	-0.575686	0.818824
H258	H	0.815643	-0.075686	1.318824
H259	H	0.345473	-0.630072	0.881410
H260	H	0.845473	-0.130072	1.381410
H261	H	0.333675	-0.549402	0.856719
H262	H	0.833675	-0.049402	1.356719
O263	O	0.215628	-0.652334	0.436971
O264	O	0.715628	-0.152334	0.936971
C265	C	0.226297	-0.700639	0.423174
C266	C	0.726297	-0.200639	0.923174
H267	H	0.198394	-0.729317	0.462649
H268	H	0.698394	-0.229317	0.962649
H269	H	0.275648	-0.728761	0.413496
H270	H	0.775648	-0.228761	0.913496
H271	H	0.213476	-0.682899	0.382222
H272	H	0.713476	-0.182899	0.882222
H273	H	0.288361	-0.530376	0.786177
H274	H	0.788361	-0.030376	1.286177
H275	H	0.097136	0.013366	0.664120
H276	H	0.597136	0.513366	1.164120
H277	H	0.065328	-0.475552	0.695316
H278	H	0.565328	0.024448	1.195316
O279	O	0.096677	-0.432116	0.738743
O280	O	0.596677	0.067884	1.238743
C281	C	0.037975	-0.423269	0.747623
C282	C	0.537975	0.076731	1.247623
H283	H	0.038069	-0.430242	0.709943
H284	H	0.538069	0.069758	1.209943
H285	H	0.008298	-0.375869	0.747964
H286	H	0.508298	0.124131	1.247964
H287	H	0.020092	-0.456539	0.792142
H288	H	0.520092	0.043461	1.292142
O289	O	-0.089740	-0.581133	0.671444
O290	O	0.410260	-0.081133	1.171444
C291	C	-0.126839	-0.522474	0.649852
C292	C	0.373161	-0.022474	1.149852
H293	H	-0.098087	-0.494128	0.611514
H294	H	0.401913	0.005872	1.111514
H295	H	-0.155440	-0.502481	0.687315
H296	H	0.344560	-0.002481	1.187315
H297	H	-0.156987	-0.523379	0.633269
H298	H	0.343013	-0.023379	1.133269
O299	O	0.098747	-0.769536	0.671297
O300	O	0.598747	-0.269536	1.171297
C301	C	0.157422	-0.806567	0.649650
C302	C	0.657422	-0.306567	1.149650
H303	H	0.173175	-0.790301	0.598798
H304	H	0.673175	-0.290301	1.098798
H305	H	0.158230	-0.854420	0.667885
H306	H	0.658230	-0.354420	1.167885
H307	H	0.188305	-0.804926	0.664762
H308	H	0.688305	-0.304926	1.164762
O309	O	0.693166	-0.733685	0.518151
O310	O	1.193166	-0.233685	1.018151
C311	C	0.693214	-0.785210	0.569408
C312	C	1.193214	-0.285210	1.069408
H313	H	0.712030	-0.784694	0.597906
H314	H	1.212030	-0.284694	1.097906
H315	H	0.722054	-0.826650	0.555392
H316	H	1.222054	-0.326650	1.055392
H317	H	0.645599	-0.785952	0.596373
H318	H	1.145599	-0.285952	1.096373
H319	H	0.250475	-0.568133	0.602707
H320	H	0.750475	-0.068133	1.102707
H321	H	0.295144	-0.575796	0.721768
H322	H	0.795144	-0.075796	1.221768
O323	O	0.297957	-0.532772	0.638066
O324	O	0.797957	-0.032772	1.138066
C325	C	0.329328	-0.568924	0.601851
C326	C	0.829328	-0.068924	1.101851
H327	H	0.299535	-0.591663	0.609841
H328	H	0.799535	-0.091663	1.109841
H329	H	0.371065	-0.604272	0.613527
H330	H	0.871065	-0.104272	1.113527
H331	H	0.342753	-0.540071	0.552902
H332	H	0.842753	-0.040071	1.052902
H333	H	0.408481	-0.430137	0.613993
H334	H	0.908481	0.069863	1.113993
O335	O	0.413343	-0.623197	0.685408
O336	O	0.913343	-0.123197	1.185408
C337	C	0.372372	-0.654157	0.716077
C338	C	0.872372	-0.154157	1.216077
H339	H	0.327829	-0.626894	0.741697
H340	H	0.827829	-0.126894	1.241697
H341	H	0.390451	-0.699230	0.748695
H342	H	0.890451	-0.199230	1.248695
H343	H	0.365707	-0.661385	0.682642
H344	H	0.865707	-0.161385	1.182642
H345	H	0.241946	-0.384640	0.594232
H346	H	0.741946	0.115360	1.094232
O347	O	0.290289	-0.382744	0.650390
O348	O	0.790289	0.117256	1.150390
C349	C	0.331263	-0.351783	0.619690
C350	C	0.831263	0.148217	1.119690
H351	H	0.375823	-0.383864	0.626892
H352	H	0.875823	0.116136	1.126892
H353	H	0.313213	-0.314092	0.637387
H354	H	0.813213	0.185908	1.137387
H355	H	0.337887	-0.332359	0.569968
H356	H	0.837887	0.167641	1.069968
H357	H	0.204115	-0.271255	0.556464
H358	H	0.704115	0.228745	1.056464
H359	H	0.111630	-0.271286	0.741644
H360	H	0.611630	0.228714	1.241644
H361	H	0.028987	-0.472723	0.444098
H362	H	0.528987	0.027277	0.944098
O363	O	0.147052	-0.389497	0.789084
O364	O	0.647052	0.110503	1.289084
C365	C	0.110865	-0.348522	0.820478
C366	C	0.610865	0.151478	1.320478
H367	H	0.118822	-0.303966	0.790676
H368	H	0.618822	0.196034	1.290676
H369	H	0.122599	-0.366588	0.862181
H370	H	0.622599	0.133412	1.362181
H371	H	0.061914	-0.341879	0.833962
H372	H	0.561914	0.158121	1.333962
