data_functionalizedCrystal
_audit_creation_method	'MofGen! by Chris Wilmer'
_symmetry_space_group_name_H-M	'P1'
_symmetry_Int_Tables_number	1
_symmetry_cell_setting	triclinic
loop_
_symmetry_equiv_pos_as_xyz
  x,y,z
_cell_length_a	17.038272
_cell_length_b	13.330367
_cell_length_c	14.853559
_cell_angle_alpha	89.997552
_cell_angle_beta	87.371505
_cell_angle_gamma	89.998118
loop_
_atom_site_label
_atom_site_type_symbol
_atom_site_fract_x
_atom_site_fract_y
_atom_site_fract_z
O1	O	1.037622	-0.083290	0.195789
O2	O	1.537622	0.416710	0.695789
O3	O	0.809988	-0.083320	0.192680
O4	O	1.309988	0.416680	0.692680
O5	O	0.929889	-0.083303	0.063462
O6	O	1.429889	0.416697	0.563462
O7	O	0.917721	-0.083307	0.325007
O8	O	1.417721	0.416693	0.825007
O9	O	0.929871	0.083544	0.063457
O10	O	1.429871	0.583544	0.563457
O11	O	0.809970	0.083528	0.192675
O12	O	1.309970	0.583528	0.692675
O13	O	1.037605	0.083557	0.195784
O14	O	1.537605	0.583557	0.695784
Cu15	Cu	0.923786	0.098777	0.194230
Cu16	Cu	1.423786	0.598777	0.694230
Cu17	Cu	0.923807	-0.098539	0.194235
Cu18	Cu	1.423807	0.401461	0.694235
O19	O	0.917704	0.083540	0.325002
O20	O	1.417704	0.583540	0.825002
C21	C	0.780847	0.000100	0.189850
C22	C	1.280847	0.500100	0.689850
C23	C	0.694043	0.000089	0.181414
C24	C	1.194043	0.500089	0.681414
N25	N	0.923777	0.237558	0.194226
N26	N	1.423777	0.737558	0.694226
N27	N	0.923821	-0.237321	0.194232
N28	N	1.423821	0.262679	0.694232
C29	C	0.644029	0.000088	0.258867
C30	C	1.144029	0.500088	0.758867
C31	C	0.562468	0.000102	0.250935
C32	C	1.062468	0.500102	0.750935
C33	C	0.530923	0.000109	0.165549
C34	C	1.030923	0.500109	0.665549
C35	C	0.580944	0.000113	0.088090
C36	C	1.080944	0.500113	0.588090
C37	C	0.662503	0.000106	0.096023
C38	C	1.162503	0.500106	0.596023
C39	C	0.285129	0.000137	0.137524
C40	C	0.785129	0.500137	0.637524
C41	C	0.203564	0.000140	0.129597
C42	C	0.703564	0.500140	0.629597
C43	C	0.185093	0.000132	0.292443
C44	C	0.685093	0.500132	0.792443
C45	C	0.266655	0.000119	0.300368
C46	C	0.766655	0.500119	0.800368
C47	C	0.316668	0.000128	0.222909
C48	C	0.816668	0.500128	0.722909
C49	C	0.447555	0.000120	0.157439
C50	C	0.947555	0.500120	0.657439
C51	C	0.400035	0.000124	0.231020
C52	C	0.900035	0.500124	0.731020
C53	C	1.066745	0.000135	0.198614
C54	C	1.566745	0.500135	0.698614
C55	C	1.153549	0.000140	0.207050
C56	C	1.653549	0.500140	0.707050
C57	C	0.929330	0.000119	0.029829
C58	C	1.429330	0.500119	0.529829
C59	C	0.927681	0.000113	-0.070379
C60	C	1.427681	0.500113	0.429621
C61	C	0.870712	0.710174	0.251428
C62	C	1.370712	1.210174	0.751428
C63	C	0.976922	0.710157	0.137036
C64	C	1.476922	1.210157	0.637036
C65	C	0.976913	0.605138	0.137032
C66	C	1.476913	1.105138	0.637032
C67	C	0.923804	0.552633	0.194229
C68	C	1.423804	1.052633	0.694229
C69	C	0.870703	0.605146	0.251428
C70	C	1.370703	1.105146	0.751428
C71	C	1.030018	0.552617	0.079840
C72	C	1.530018	1.052617	0.579840
C73	C	1.030012	0.447593	0.079835
C74	C	1.530012	0.947593	0.579835
C75	C	0.976898	0.395085	0.137028
C76	C	1.476898	0.895085	0.637028
C77	C	0.923795	0.447605	0.194229
C78	C	1.423795	0.947605	0.694229
C79	C	0.870685	0.395099	0.251425
C80	C	1.370685	0.895099	0.751425
C81	C	0.817577	0.447617	0.308623
C82	C	1.317577	0.947617	0.808623
C83	C	0.817589	0.552638	0.308621
C84	C	1.317589	1.052638	0.808621
C85	C	0.976887	0.290064	0.137029
C86	C	1.476887	0.790064	0.637029
C87	C	0.870676	0.290071	0.251426
C88	C	1.370676	0.790071	0.751426
C89	C	0.920697	-0.090837	-0.494078
C90	C	1.420697	0.409163	0.005922
C91	C	0.920678	0.091067	-0.494077
C92	C	1.420678	0.591067	0.005923
C93	C	0.922233	0.091068	-0.399927
C94	C	1.422233	0.591068	0.100073
C95	C	0.923020	0.000115	-0.352847
C96	C	1.423020	0.500115	0.147153
C97	C	0.922250	-0.090838	-0.399918
C98	C	1.422250	0.409162	0.100082
C99	C	0.922995	0.182020	-0.352848
C100	C	1.422995	0.682020	0.147152
C101	C	0.924550	0.182024	-0.258692
C102	C	1.424550	0.682024	0.241308
C103	C	0.925341	0.091071	-0.211611
C104	C	1.425341	0.591071	0.288389
C105	C	0.924573	0.000113	-0.258688
C106	C	1.424573	0.500113	0.241312
C107	C	0.925359	-0.090839	-0.211609
C108	C	1.425359	0.409161	0.288391
C109	C	0.924596	-0.181797	-0.258684
C110	C	1.424596	0.318203	0.241316
C111	C	0.923042	-0.181792	-0.352838
C112	C	1.423042	0.318208	0.147162
C113	C	0.926895	0.091065	-0.117458
C114	C	1.426895	0.591065	0.382542
C115	C	0.926912	-0.090841	-0.117450
C116	C	1.426912	0.409159	0.382550
C117	C	0.918262	0.000117	0.358635
C118	C	1.418262	0.500117	0.858635
C119	C	0.919911	0.000116	0.458843
C120	C	1.419911	0.500116	0.958843
H121	H	0.669705	0.000082	0.328398
H122	H	1.169705	0.500082	0.828398
H123	H	0.920033	0.165116	-0.532414
H124	H	1.420033	0.665116	-0.032414
H125	H	0.521749	0.000101	0.314006
H126	H	1.021749	0.500101	0.814006
H127	H	1.073263	0.595371	0.033277
H128	H	1.573263	1.095371	0.533277
F129	F	1.086531	0.391707	0.018960
F130	F	1.586531	0.891707	0.518960
F131	F	0.547370	0.000127	-0.002785
F132	F	1.047370	0.500127	0.497215
F133	F	0.131860	0.000125	0.374874
F134	F	0.631860	0.500125	0.874874
F135	F	0.761061	0.391726	0.369499
F136	F	1.261061	0.891726	0.869499
F137	F	0.925358	0.278829	-0.208599
F138	F	1.425358	0.778829	0.291401
F139	F	0.927754	-0.187647	-0.067352
F140	F	1.427754	0.312353	0.432648
F141	F	1.033409	0.234177	0.076165
F142	F	1.533409	0.734177	0.576165
F143	F	0.925434	-0.278592	-0.208568
F144	F	1.425434	0.221408	0.291432
F145	F	0.922233	-0.278587	-0.402945
F146	F	1.422233	0.221413	0.097055
F147	F	0.922143	0.278810	-0.402956
F148	F	1.422143	0.778810	0.097044
F149	F	0.919892	-0.187636	-0.544179
F150	F	1.419892	0.312364	-0.044179
H151	H	0.292332	0.000102	0.369899
H152	H	0.792332	0.500102	0.869899
F153	F	0.169994	0.000165	0.038713
F154	F	0.669994	0.500165	0.538713
H155	H	0.927499	0.165122	-0.079132
H156	H	1.427499	0.665122	0.420868
F157	F	0.761074	0.608535	0.369492
F158	F	1.261074	1.108535	0.869492
H159	H	0.325841	0.000144	0.074451
H160	H	0.825841	0.500144	0.574451
F161	F	0.715733	0.000110	0.013586
F162	F	1.215733	0.500110	0.513586
H163	H	0.827470	0.752936	0.297995
H164	H	1.327470	1.252936	0.797995
H165	H	0.425722	0.000123	0.300541
H166	H	0.925722	0.500123	0.800541
F167	F	0.814145	0.234199	0.312299
F168	F	1.314145	0.734199	0.812299
F169	F	0.413976	0.000124	0.066567
F170	F	0.913976	0.500124	0.566567
H171	H	1.020166	0.752910	0.090473
H172	H	1.520166	1.252910	0.590473
