data_functionalizedCrystal
_audit_creation_method	'MofGen! by Chris Wilmer'
_symmetry_space_group_name_H-M	'P1'
_symmetry_Int_Tables_number	1
_symmetry_cell_setting	triclinic
loop_
_symmetry_equiv_pos_as_xyz
  x,y,z
_cell_length_a	14.421503
_cell_length_b	11.792241
_cell_length_c	11.792241
_cell_angle_alpha	84.193416
_cell_angle_beta	90.004173
_cell_angle_gamma	89.996519
loop_
_atom_site_label
_atom_site_type_symbol
_atom_site_fract_x
_atom_site_fract_y
_atom_site_fract_z
O1	O	0.077022	-1.506916	-0.155552
O2	O	0.410355	-1.173582	0.177781
O3	O	0.743689	-0.840249	0.511114
O4	O	0.077044	-1.176575	-0.171585
O5	O	0.410377	-0.843241	0.161748
O6	O	0.743710	-0.509908	0.495082
O7	O	0.077026	-1.349761	0.001602
O8	O	0.410359	-1.016428	0.334935
O9	O	0.743692	-0.683095	0.668269
O10	O	0.077040	-1.333729	-0.328739
O11	O	0.410373	-1.000395	0.004594
O12	O	0.743707	-0.667062	0.337927
O13	O	-0.077198	-1.349733	0.001576
O14	O	0.256136	-1.016399	0.334909
O15	O	0.589469	-0.683066	0.668243
O16	O	-0.077180	-1.176546	-0.171611
O17	O	0.256154	-0.843212	0.161722
O18	O	0.589487	-0.509879	0.495056
O19	O	-0.077201	-1.506887	-0.155578
O20	O	0.256132	-1.173553	0.177755
O21	O	0.589465	-0.840220	0.511089
Cu22	Cu	-0.091272	-1.341714	-0.163597
Cu23	Cu	0.242061	-1.008380	0.169737
Cu24	Cu	0.575394	-0.675047	0.503070
Cu25	Cu	0.091115	-1.341748	-0.163566
Cu26	Cu	0.424448	-1.008414	0.169767
Cu27	Cu	0.757781	-0.675081	0.503100
O28	O	-0.077184	-1.333700	-0.328765
O29	O	0.256150	-1.000367	0.004568
O30	O	0.589483	-0.667033	0.337902
C31	C	-0.000065	-1.134269	-0.170591
C32	C	0.333268	-0.800936	0.162742
C33	C	0.666601	-0.467603	0.496076
C34	C	-0.000057	-1.008255	-0.167576
C35	C	0.333276	-0.674922	0.165757
C36	C	0.666609	-0.341589	0.499090
N37	N	-0.219554	-1.341698	-0.163618
N38	N	0.113780	-1.008365	0.169716
N39	N	0.447113	-0.675031	0.503049
C40	C	-0.000086	-1.348740	0.043880
C41	C	0.333248	-1.015407	0.377213
C42	C	0.666581	-0.682073	0.710547
C43	C	-0.000084	-1.345726	0.169894
C44	C	0.333249	-1.012392	0.503227
C45	C	0.666582	-0.679059	0.836560
C46	C	-0.469199	-1.261602	-0.243663
C47	C	-0.135866	-0.928269	0.089670
C48	C	0.197468	-0.594935	0.423004
C49	C	-0.531008	-1.364297	-0.266324
C50	C	-0.197674	-1.030964	0.067010
C51	C	0.135659	-0.697631	0.400343
C52	C	-0.408715	-1.341726	-0.163591
C53	C	-0.075382	-1.008392	0.169743
C54	C	0.257952	-0.675059	0.503076
C55	C	-0.531001	-1.239057	-0.140956
C56	C	-0.197667	-0.905723	0.192377
C57	C	0.135666	-0.572390	0.525710
C58	C	-0.591437	-1.341743	-0.163567
C59	C	-0.258103	-1.008410	0.169766
C60	C	0.075230	-0.675076	0.503100
C61	C	-0.469163	-1.444473	-0.186303
C62	C	-0.135829	-1.111140	0.147031
C63	C	0.197504	-0.777806	0.480364
C64	C	-0.469150	-1.319165	-0.060891
C65	C	-0.135817	-0.985831	0.272443
C66	C	0.197516	-0.652498	0.605776
C67	C	-0.530931	-1.421934	-0.083508
C68	C	-0.197598	-1.088601	0.249825
C69	C	0.135736	-0.755267	0.583158
C70	C	-0.303454	-1.341714	-0.163607
C71	C	0.029879	-1.008381	0.169726
C72	C	0.363213	-0.675047	0.503060
C73	C	-0.696695	-1.341766	-0.163550
C74	C	-0.363362	-1.008433	0.169783
C75	C	-0.030029	-0.675100	0.503117
N76	N	0.219396	-1.341772	-0.163537
N77	N	0.552729	-1.008439	0.169797
N78	N	0.886063	-0.675106	0.503130
C79	C	-0.000090	-1.549192	-0.156572
C80	C	0.333243	-1.215859	0.176761
C81	C	0.666576	-0.882525	0.510094
C82	C	-0.000092	-1.675206	-0.159587
C83	C	0.333241	-1.341873	0.173747
C84	C	0.666574	-1.008539	0.507080
C85	C	-0.000084	-0.777543	-0.162034
C86	C	0.333249	-0.444210	0.171300
C87	C	0.666583	-0.110877	0.504633
C88	C	-0.000069	-0.905928	-0.165113
C89	C	0.333264	-0.572595	0.168220
C90	C	0.666597	-0.239262	0.501553
C91	C	-0.000070	-1.334721	-0.371043
C92	C	0.333263	-1.001388	-0.037710
C93	C	0.666596	-0.668055	0.295624
C94	C	-0.000065	-1.337736	-0.497057
C95	C	0.333268	-1.004402	-0.163723
C96	C	0.666601	-0.671069	0.169610
C97	C	-0.000069	-1.340183	0.400606
C98	C	0.333265	-1.006849	0.733939
C99	C	0.666598	-0.673516	1.067272
C100	C	-0.000077	-1.343262	0.272221
C101	C	0.333256	-1.009929	0.605554
C102	C	0.666589	-0.676596	0.938887
H103	H	-0.442094	-1.193914	-0.311433
H104	H	-0.108761	-0.860580	0.021901
H105	H	0.224572	-0.527247	0.355234
H106	H	-0.557866	-1.489774	-0.015780
H107	H	-0.224532	-1.156440	0.317553
H108	H	0.108801	-0.823107	0.650887
Br109	Br	-0.576293	-1.396135	-0.411062
Br110	Br	-0.242959	-1.062801	-0.077728
Br111	Br	0.090374	-0.729468	0.255605
H112	H	-0.441959	-1.300034	0.025923
H113	H	-0.108625	-0.966701	0.359256
H114	H	0.224708	-0.633368	0.692589
H115	H	-0.442114	-1.531325	-0.205540
H116	H	-0.108781	-1.197992	0.127793
H117	H	0.224553	-0.864658	0.461126
H118	H	-0.558166	-1.152225	-0.121823
H119	H	-0.224833	-0.818891	0.211510
H120	H	0.108501	-0.485558	0.544843
