data_functionalizedCrystal
_audit_creation_method	'MofGen! by Chris Wilmer'
_symmetry_space_group_name_H-M	'P1'
_symmetry_Int_Tables_number	1
_symmetry_cell_setting	triclinic
loop_
_symmetry_equiv_pos_as_xyz
  x,y,z
_cell_length_a	17.052862
_cell_length_b	12.477989
_cell_length_c	12.477989
_cell_angle_alpha	60.281621
_cell_angle_beta	88.871308
_cell_angle_gamma	45.543180
loop_
_atom_site_label
_atom_site_type_symbol
_atom_site_fract_x
_atom_site_fract_y
_atom_site_fract_z
Zr1	Zr	0.873641	0.803456	0.098758
O2	O	0.691568	1.129777	-0.102590
O3	O	0.938065	0.545356	0.151297
O4	O	0.909486	0.811619	-0.076644
O5	O	0.732896	0.833285	0.315603
O6	O	1.071591	0.740455	-0.045729
O7	O	0.720147	0.863514	0.125350
O8	O	1.122712	0.264159	0.362016
O9	O	0.681775	1.309581	-0.092142
O10	O	1.076116	0.573140	0.207873
O11	O	0.964655	0.603690	0.326784
O12	O	0.931007	0.917180	0.058413
O13	O	0.819545	0.947730	0.177325
Zr14	Zr	1.152513	0.641745	0.451494
Zr15	Zr	1.132178	0.689957	0.148064
Zr16	Zr	0.893975	0.755244	0.402188
Zr17	Zr	0.858021	1.090222	0.115422
Zr18	Zr	1.168132	0.354979	0.434830
O19	O	1.088088	0.899845	0.398956
O20	O	1.059175	0.968396	-0.032483
O21	O	0.720481	1.061226	0.328848
O22	O	1.334585	0.315424	0.652843
O23	O	1.305672	0.383975	0.221404
O24	O	0.966978	0.476805	0.582735
O25	O	1.293257	0.611916	0.234650
O26	O	1.116667	0.633582	0.626896
O27	O	0.954563	0.704746	0.595981
O28	O	1.306007	0.581687	0.424902
O29	O	0.887278	1.219364	-0.052950
O30	O	1.138876	0.225837	0.603202
O31	O	1.344379	0.135620	0.642394
O32	O	1.328215	0.173942	0.401208
O33	O	0.697938	1.271259	0.149045
O34	O	0.903441	1.181042	0.188237
O35	O	1.095146	0.528021	0.491839
O36	O	1.206608	0.497471	0.372928
O37	O	1.061499	0.841511	0.223468
O38	O	0.950037	0.872061	0.342379
C39	C	1.032614	0.363900	0.254282
C40	C	1.039245	0.242160	0.247207
C41	C	0.689685	0.864571	0.213451
C42	C	0.579929	0.912754	0.192520
C43	C	0.573534	0.330217	0.445583
C44	C	0.676657	0.284941	0.465243
C45	C	0.652481	0.441890	0.397065
C46	C	0.525170	0.644123	0.309221
C47	C	0.422036	0.689405	0.289549
C48	C	0.500983	0.801078	0.241031
C49	C	0.373672	1.003311	0.153187
C50	C	0.270550	1.048584	0.133521
C51	C	0.294726	0.891635	0.201699
C52	C	0.604117	0.755796	0.260703
C53	C	0.452619	1.114984	0.104669
C54	C	0.349496	1.160260	0.085009
C55	C	1.336468	0.580631	0.336801
C56	C	1.446224	0.532447	0.357733
C57	C	0.987641	0.782906	-0.104419
C58	C	0.979009	0.803374	-0.233233
C59	C	0.993539	1.081301	0.295970
C60	C	0.986908	1.203041	0.303045
C61	C	1.038512	0.662295	0.654671
C62	C	1.047144	0.641827	0.783485
C63	C	1.356005	0.221930	0.315957
C64	C	1.472392	0.052007	0.329814
C65	C	1.058049	0.303594	0.633827
C66	C	1.073313	0.161387	0.755567
C67	C	1.381441	0.161624	0.695502
C68	C	1.506460	-0.028767	0.838173
C69	C	0.644713	1.283577	-0.145249
C70	C	0.519693	1.473968	-0.287921
C71	C	0.670148	1.223271	0.234296
C72	C	0.553761	1.393195	0.220438
C73	C	0.968104	1.141607	-0.083575
C74	C	0.952841	1.283814	-0.205314
C75	C	1.623363	-0.134127	0.843105
C76	C	1.740840	-0.313006	0.977151
C77	C	1.741412	-0.386528	1.106264
C78	C	1.624496	-0.281150	1.101328
C79	C	1.507021	-0.102267	0.967283
C80	C	0.402789	1.579342	-0.292852
C81	C	0.285310	1.758256	-0.426896
C82	C	0.284738	1.831785	-0.556008
C83	C	0.401655	1.726400	-0.551073
C84	C	0.519131	1.547497	-0.417030
C85	C	1.539470	-0.143517	0.435382
C86	C	1.648819	-0.303190	0.448404
C87	C	1.691093	-0.267338	0.355864
C88	C	1.624004	-0.071794	0.250285
C89	C	1.514652	0.087878	0.237257
C90	C	0.511524	1.357278	0.313000
C91	C	0.402179	1.516913	0.300010
C92	C	0.335068	1.712468	0.194449
C93	C	0.377314	1.748381	0.101883
C94	C	0.486663	1.588744	0.114882
H95	H	0.707768	0.591134	0.332237
Br96	Br	1.122380	0.142763	0.158490
Br97	Br	0.125293	2.074588	-0.737915
Br98	Br	0.602579	1.091900	0.456273
Br99	Br	0.154772	0.953071	0.175039
H100	H	1.112079	0.487864	-0.103655
Br101	Br	0.543964	1.637529	-0.010762
Br102	Br	0.400856	1.826212	-0.726311
Br103	Br	0.851925	0.507729	0.706074
Br104	Br	0.677780	1.404500	-0.410364
H105	H	0.190125	1.844035	-0.430887
Br106	Br	1.839503	-0.484062	0.373564
Br107	Br	0.792438	0.380442	0.423748
Br108	Br	1.348373	0.040696	0.960616
H109	H	0.246031	1.842437	0.183880
H110	H	0.780307	0.120285	0.536749
H111	H	0.166889	1.213258	0.061979
Br112	Br	1.681390	-0.023170	0.124702
H113	H	0.914056	0.957353	-0.346105
Br114	Br	0.286218	2.013792	-0.041374
Br115	Br	1.482124	-0.192227	0.560990
Br116	Br	1.900855	-0.629304	1.288172
H117	H	1.703430	-0.462397	0.534381
Br118	Br	1.423622	0.353232	0.093965
Br119	Br	0.344869	1.468128	0.425646
H120	H	1.156217	-0.005629	0.811392
H121	H	0.245827	1.324920	0.013484
Br122	Br	0.903750	0.302474	0.391727
H123	H	0.432929	1.242785	0.049150
Br124	Br	0.606330	0.117243	0.538083
H125	H	1.622922	-0.074293	0.737989
H126	H	1.624981	-0.341039	1.206469
Br127	Br	0.403530	1.479592	-0.117648
Br128	Br	1.899492	-0.455985	0.983815
