data_functionalizedCrystal
_audit_creation_method	'MofGen! by Chris Wilmer'
_symmetry_space_group_name_H-M	'P1'
_symmetry_Int_Tables_number	1
_symmetry_cell_setting	triclinic
loop_
_symmetry_equiv_pos_as_xyz
  x,y,z
_cell_length_a	18.100771
_cell_length_b	18.101398
_cell_length_c	18.101389
_cell_angle_alpha	89.975673
_cell_angle_beta	89.705900
_cell_angle_gamma	89.693777
loop_
_atom_site_label
_atom_site_type_symbol
_atom_site_fract_x
_atom_site_fract_y
_atom_site_fract_z
Zn1	Zn	0.295019	1.130681	-0.420447
Zn2	Zn	0.418852	1.129972	-0.297281
Zn3	Zn	0.295011	1.006840	-0.296608
Zn4	Zn	0.418821	1.006186	-0.421069
O5	O	0.356926	1.068420	-0.358851
O6	O	0.311462	1.234220	-0.404130
O7	O	0.402435	1.113615	-0.193559
O8	O	0.191373	1.023838	-0.312494
O9	O	0.402442	1.233699	-0.313640
O10	O	0.191379	1.114823	-0.403478
O11	O	0.311449	1.023150	-0.193065
O12	O	0.311418	0.903120	-0.313097
O13	O	0.402388	1.022724	-0.524620
O14	O	0.402381	0.902640	-0.404538
O15	O	0.311432	1.114189	-0.524163
O16	O	0.522487	1.112981	-0.314243
O17	O	0.522464	1.022036	-0.405190
C18	C	0.356896	0.876009	-0.358813
C19	C	0.356901	0.793695	-0.358814
C20	C	0.163752	1.069482	-0.357842
C21	C	0.081433	1.069935	-0.357411
C22	C	0.356947	0.494604	-0.358876
C23	C	0.299430	0.526208	-0.301622
C24	C	0.299584	0.611825	-0.301379
C25	C	0.356923	0.642987	-0.358845
C26	C	0.434936	0.611488	-0.337946
C27	C	0.434617	0.525844	-0.337548
C28	C	0.337129	0.526315	-0.437168
C29	C	0.335392	0.611975	-0.436730
C30	C	0.356915	0.726846	-0.358829
C31	C	0.356961	0.410744	-0.358891
C32	C	-0.217636	1.067987	-0.359355
C33	C	-0.186305	1.125240	-0.416589
C34	C	-0.100697	1.126022	-0.415865
C35	C	-0.069264	1.068953	-0.358391
C36	C	-0.101502	1.089925	-0.280565
C37	C	-0.187141	1.089782	-0.281454
C38	C	-0.184918	0.989827	-0.379059
C39	C	-0.099258	0.990798	-0.380226
C40	C	0.014589	1.069498	-0.357842
C41	C	-0.301489	1.067443	-0.359900
C42	C	0.549348	1.067381	-0.359873
C43	C	0.631667	1.067005	-0.360335
C44	C	0.356907	1.068463	-0.552013
C45	C	0.356899	1.068481	-0.634327
C46	C	0.356957	1.261581	-0.358891
C47	C	0.356970	1.343895	-0.358908
C48	C	0.356760	1.068525	-0.933418
C49	C	0.413806	1.010781	-0.902379
C50	C	0.414070	1.010935	-0.816762
C51	C	0.356829	1.068502	-0.785036
C52	C	0.378021	1.146424	-0.816257
C53	C	0.378396	1.146102	-0.901904
C54	C	0.278396	1.049026	-0.901415
C55	C	0.278849	1.047288	-0.815766
C56	C	0.356867	1.068494	-0.701176
C57	C	0.356724	1.068538	-1.017277
C58	C	0.356891	1.068420	-0.166441
C59	C	0.356690	1.068546	-0.084126
H60	H	0.241734	0.633148	-0.314431
H61	H	-0.077791	0.946157	-0.341301
C62	C	0.455776	1.168514	-0.929329
C63	C	0.516799	1.186578	-0.873296
C64	C	0.594178	1.209001	-0.900716
C65	C	0.610534	1.213359	-0.984169
C66	C	0.549508	1.195294	-1.040207
C67	C	0.472130	1.172872	-1.012787
H68	H	0.504693	1.183352	-0.811514
H69	H	0.639353	1.222374	-0.859233
H70	H	0.667814	1.229958	-1.004468
H71	H	0.561614	1.198520	-1.101989
H72	H	0.426955	1.159499	-1.054270
H73	H	0.400680	0.952812	-0.922893
H74	H	-0.205170	0.947189	-0.337357
H75	H	0.472156	1.023777	-0.796597
H76	H	0.312382	0.504595	-0.243937
C77	C	0.220974	1.105842	-0.928494
C78	C	0.177285	1.152859	-0.872252
C79	C	0.119869	1.209677	-0.899336
C80	C	0.106142	1.219479	-0.982662
C81	C	0.149831	1.172461	-1.038909
C82	C	0.207247	1.115643	-1.011826
H83	H	0.187446	1.145604	-0.810565
H84	H	0.087527	1.244483	-0.857698
H85	H	0.063639	1.261539	-1.002711
H86	H	0.139671	1.179716	-1.100597
H87	H	0.239589	1.080837	-1.053464
H88	H	0.312684	0.632215	-0.243358
H89	H	0.478938	0.631637	-0.378361
H90	H	0.471537	1.023494	-0.924219
C91	C	-0.070655	0.969400	-0.457619
C92	C	-0.023028	0.899368	-0.467857
C93	C	0.005582	0.877974	-0.545249
C94	C	-0.013433	0.926611	-0.612404
C95	C	-0.061062	0.996647	-0.602168
C96	C	-0.089673	1.018042	-0.524775
H97	H	-0.008950	0.863360	-0.418143
H98	H	0.040841	0.826128	-0.552826
H99	H	0.007746	0.910773	-0.669694
H100	H	-0.075141	1.032655	-0.651882
H101	H	-0.124931	1.069887	-0.517199
H102	H	-0.078854	1.112871	-0.473580
H103	H	0.451425	0.505750	-0.280326
H104	H	-0.080921	1.146722	-0.263254
C105	C	-0.213002	1.107373	-0.495186
C106	C	-0.259029	1.164525	-0.538343
C107	C	-0.285729	1.146658	-0.616943
C108	C	-0.266403	1.071639	-0.652387
C109	C	-0.220373	1.014483	-0.609231
C110	C	-0.193673	1.032350	-0.530630
H111	H	-0.273338	1.220063	-0.512105
H112	H	-0.319803	1.188970	-0.648890
H113	H	-0.286168	1.058413	-0.710572
H114	H	-0.206064	0.958945	-0.635469
H115	H	-0.159598	0.990038	-0.498683
C116	C	0.221037	0.498800	-0.319048
C117	C	0.204560	0.415426	-0.319178
C118	C	0.126166	0.388012	-0.336608
C119	C	0.064249	0.443971	-0.353908
C120	C	0.080724	0.527350	-0.353778
C121	C	0.159119	0.554764	-0.336349
H122	H	0.250397	0.373997	-0.306371
H123	H	0.113970	0.326289	-0.336703
H124	H	0.006217	0.423678	-0.366810
H125	H	0.034888	0.568779	-0.366585
H126	H	0.171314	0.616487	-0.336253
C127	C	0.494478	0.497551	-0.391445
C128	C	0.542421	0.552889	-0.434707
C129	C	0.602286	0.524600	-0.488596
C130	C	0.614208	0.440973	-0.499223
C131	C	0.566263	0.385629	-0.455960
C132	C	0.506398	0.413919	-0.402070
H133	H	0.533597	0.614799	-0.426842
H134	H	0.637778	0.565569	-0.520622
H135	H	0.658524	0.420031	-0.539115
H136	H	0.575087	0.323719	-0.463825
H137	H	0.470906	0.372950	-0.370044
C138	C	0.324724	1.206182	-0.929637
C139	C	0.281661	1.254301	-0.873850
C140	C	0.228000	1.314387	-0.901579
C141	C	0.217401	1.326353	-0.985095
C142	C	0.260465	1.278233	-1.040887
C143	C	0.314126	1.218147	-1.013158
H144	H	0.289506	1.245443	-0.812022
H145	H	0.196121	1.350008	-0.860278
H146	H	0.177677	1.370833	-1.005622
H147	H	0.252620	1.287090	-1.102715
H148	H	0.346005	1.182525	-1.054459
C149	C	0.396158	0.932859	-0.788244
C150	C	0.381511	0.869933	-0.843399
C151	C	0.363603	0.791853	-0.814886
C152	C	0.360343	0.776699	-0.731218
C153	C	0.374990	0.839627	-0.676057
C154	C	0.392898	0.917707	-0.704571
H155	H	0.383924	0.881150	-0.905340
H156	H	0.352760	0.745270	-0.855720
H157	H	0.347086	0.718900	-0.710110
H158	H	0.372577	0.828410	-0.614116
H159	H	0.403741	0.964290	-0.663737
C160	C	0.323657	1.206090	-0.788480
C161	C	0.259234	1.184700	-0.737002
C162	C	0.204868	1.244364	-0.709227
C163	C	0.214924	1.325418	-0.732930
C164	C	0.279350	1.346811	-0.784412
C165	C	0.333717	1.287148	-0.812187
H166	H	0.251788	1.124696	-0.719452
H167	H	0.157176	1.228526	-0.671117
H168	H	0.174679	1.369585	-0.712370
H169	H	0.286797	1.406816	-0.801961
H170	H	0.381409	1.302985	-0.850296
H171	H	0.262868	0.989946	-0.795347
C172	C	-0.215308	1.166993	-0.258839
C173	C	-0.159870	1.228352	-0.240098
C174	C	-0.188032	1.305565	-0.217486
C175	C	-0.271632	1.321420	-0.213615
C176	C	-0.327075	1.260059	-0.232357
C177	C	-0.298913	1.182845	-0.254969
H178	H	-0.097980	1.216617	-0.242963
H179	H	-0.146989	1.350989	-0.203612
H180	H	-0.292479	1.378578	-0.196876
H181	H	-0.388965	1.271793	-0.229492
H182	H	-0.339956	1.137422	-0.268843
H183	H	0.259090	0.993213	-0.922895
H184	H	0.277983	0.632599	-0.452497
H185	H	0.434697	1.163293	-0.795124
C186	C	0.387852	0.640643	-0.497409
C187	C	0.451446	0.692946	-0.477207
C188	C	0.503908	0.721621	-0.537885
C189	C	0.492774	0.697993	-0.618765
C190	C	0.429176	0.645688	-0.638970
C191	C	0.376715	0.617013	-0.578292
H192	H	0.459691	0.710439	-0.417332
H193	H	0.550987	0.760341	-0.522928
H194	H	0.531609	0.719220	-0.663682
H195	H	0.420932	0.628194	-0.698845
H196	H	0.329636	0.578292	-0.593249
C197	C	-0.215214	1.035914	-0.221851
C198	C	-0.159705	0.993167	-0.173596
C199	C	-0.187774	0.939306	-0.113990
C200	C	-0.271353	0.928192	-0.102639
C201	C	-0.326868	0.970941	-0.150896
C202	C	-0.298798	1.024802	-0.210502
H203	H	-0.097831	1.001393	-0.181997
H204	H	-0.146679	0.907661	-0.078267
H205	H	-0.292132	0.888321	-0.058515
H206	H	-0.388742	0.962715	-0.142494
H207	H	-0.339894	1.056447	-0.246224
H208	H	-0.205643	0.970411	-0.435115
H209	H	0.452036	0.632819	-0.281344
H210	H	0.281233	0.505016	-0.456251
H211	H	0.379023	0.505854	-0.479822
H212	H	-0.208654	1.182832	-0.403714
H213	H	-0.081047	1.184218	-0.402555
H214	H	-0.081185	1.049791	-0.236480
H215	H	0.234090	1.086307	-0.794138
