data_functionalizedCrystal
_audit_creation_method	'MofGen! by Chris Wilmer'
_symmetry_space_group_name_H-M	'P1'
_symmetry_Int_Tables_number	1
_symmetry_cell_setting	triclinic
loop_
_symmetry_equiv_pos_as_xyz
  x,y,z
_cell_length_a	16.625547
_cell_length_b	18.050590
_cell_length_c	16.625539
_cell_angle_alpha	89.966288
_cell_angle_beta	90.024822
_cell_angle_gamma	89.977571
loop_
_atom_site_label
_atom_site_type_symbol
_atom_site_fract_x
_atom_site_fract_y
_atom_site_fract_z
Zn1	Zn	1.232680	0.295659	0.455971
Zn2	Zn	1.482680	0.545659	0.705971
Zn3	Zn	1.732680	0.795659	0.955971
Zn4	Zn	1.982680	1.045659	1.205971
Zn5	Zn	1.232584	0.419857	0.321125
Zn6	Zn	1.482584	0.669857	0.571125
Zn7	Zn	1.732584	0.919857	0.821125
Zn8	Zn	1.982584	1.169857	1.071125
Zn9	Zn	1.097842	0.295685	0.321141
Zn10	Zn	1.347842	0.545685	0.571141
Zn11	Zn	1.597842	0.795685	0.821141
Zn12	Zn	1.847842	1.045685	1.071141
Zn13	Zn	1.097813	0.419812	0.455905
Zn14	Zn	1.347813	0.669812	0.705905
Zn15	Zn	1.597813	0.919812	0.955905
Zn16	Zn	1.847813	1.169812	1.205905
O17	O	1.165230	0.357753	0.388535
O18	O	1.415230	0.607753	0.638535
O19	O	1.665230	0.857753	0.888535
O20	O	1.915230	1.107753	1.138535
O21	O	1.345500	0.312142	0.438104
O22	O	1.595500	0.562142	0.688104
O23	O	1.845500	0.812142	0.938104
O24	O	2.095500	1.062142	1.188104
O25	O	1.214682	0.403415	0.208295
O26	O	1.464682	0.653415	0.458295
O27	O	1.714682	0.903415	0.708295
O28	O	1.964682	1.153415	0.958295
O29	O	1.115782	0.191757	0.339061
O30	O	1.365782	0.441757	0.589061
O31	O	1.615782	0.691757	0.839061
O32	O	1.865782	0.941757	1.089061
O33	O	1.345429	0.403390	0.339033
O34	O	1.595429	0.653390	0.589033
O35	O	1.845429	0.903390	0.839033
O36	O	2.095429	1.153390	1.089033
O37	O	1.214847	0.191738	0.438119
O38	O	1.464847	0.441738	0.688119
O39	O	1.714847	0.691738	0.938119
O40	O	1.964847	0.941738	1.188119
O41	O	1.115688	0.312186	0.208307
O42	O	1.365688	0.562186	0.458307
O43	O	1.615688	0.812186	0.708307
O44	O	1.865688	1.062186	0.958307
O45	O	0.985006	0.312143	0.338997
O46	O	1.235006	0.562143	0.588997
O47	O	1.485006	0.812143	0.838997
O48	O	1.735006	1.062143	1.088997
O49	O	1.115731	0.403313	0.568746
O50	O	1.365731	0.653313	0.818746
O51	O	1.615731	0.903313	1.068746
O52	O	1.865731	1.153313	1.318746
O53	O	0.984984	0.403338	0.438007
O54	O	1.234984	0.653338	0.688007
O55	O	1.484984	0.903338	0.938007
O56	O	1.734984	1.153338	1.188007
O57	O	1.214818	0.312099	0.568794
O58	O	1.464818	0.562099	0.818794
O59	O	1.714818	0.812099	1.068794
O60	O	1.964818	1.062099	1.318794
O61	O	1.214653	0.523776	0.338970
O62	O	1.464653	0.773776	0.588970
O63	O	1.714653	1.023776	0.838970
O64	O	1.964653	1.273776	1.088970
O65	O	1.115637	0.523742	0.437992
O66	O	1.365637	0.773742	0.687992
O67	O	1.615637	1.023742	0.937992
O68	O	1.865637	1.273742	1.187992
C69	C	0.955739	0.357739	0.388497
C70	C	1.205739	0.607739	0.638497
C71	C	1.455739	0.857739	0.888497
C72	C	1.705739	1.107739	1.138497
C73	C	0.866118	0.357751	0.388500
C74	C	1.116118	0.607751	0.638500
C75	C	1.366118	0.857751	0.888500
C76	C	1.616118	1.107751	1.138500
C77	C	0.793335	0.357752	0.388510
C78	C	1.043335	0.607752	0.638510
C79	C	1.293335	0.857752	0.888510
C80	C	1.543335	1.107752	1.138510
C81	C	0.702027	0.357756	0.388530
C82	C	0.952027	0.607756	0.638530
C83	C	1.202027	0.857756	0.888530
C84	C	1.452027	1.107756	1.138530
C85	C	0.629250	0.357763	0.388551
C86	C	0.879250	0.607763	0.638551
C87	C	1.129250	0.857763	0.888551
C88	C	1.379250	1.107763	1.138551
C89	C	0.537936	0.357768	0.388570
C90	C	0.787936	0.607768	0.638570
C91	C	1.037936	0.857768	0.888570
C92	C	1.287936	1.107768	1.138570
C93	C	1.165153	0.550705	0.388490
C94	C	1.415153	0.800705	0.638490
C95	C	1.665153	1.050705	0.888490
C96	C	1.915153	1.300705	1.138490
C97	C	1.165194	0.633251	0.388497
C98	C	1.415194	0.883251	0.638497
C99	C	1.665194	1.133251	0.888497
C100	C	1.915194	1.383251	1.138497
C101	C	1.219136	0.832693	0.334710
C102	C	1.469136	1.082693	0.584710
C103	C	1.719136	1.332693	0.834710
C104	C	1.969136	1.582693	1.084710
C105	C	1.238830	0.882024	0.408297
C106	C	1.488830	1.132024	0.658297
C107	C	1.738830	1.382024	0.908297
C108	C	1.988830	1.632024	1.158297
C109	C	1.165229	0.784382	0.388518
C110	C	1.415229	1.034382	0.638518
C111	C	1.665229	1.284382	0.888518
C112	C	1.915229	1.534382	1.138518
C113	C	1.145606	0.882132	0.314953
C114	C	1.395606	1.132132	0.564953
C115	C	1.645606	1.382132	0.814953
C116	C	1.895606	1.632132	1.064953
C117	C	1.165264	0.930367	0.388532
C118	C	1.415264	1.180367	0.638532
C119	C	1.665264	1.430367	0.888532
C120	C	1.915264	1.680367	1.138532
C121	C	1.184960	0.832625	0.462145
C122	C	1.434960	1.082625	0.712145
C123	C	1.684960	1.332625	0.962145
C124	C	1.934960	1.582625	1.212145
C125	C	1.091703	0.832730	0.368751
C126	C	1.341703	1.082730	0.618751
C127	C	1.591703	1.332730	0.868751
C128	C	1.841703	1.582730	1.118751
C129	C	1.111368	0.882038	0.442389
C130	C	1.361368	1.132038	0.692389
C131	C	1.611368	1.382038	0.942389
C132	C	1.861368	1.632038	1.192389
C133	C	1.165211	0.700283	0.388509
C134	C	1.415211	0.950283	0.638509
C135	C	1.665211	1.200283	0.888509
C136	C	1.915211	1.450283	1.138509
C137	C	1.165282	1.014463	0.388550
C138	C	1.415282	1.264463	0.638550
C139	C	1.665282	1.514463	0.888550
C140	C	1.915282	1.764463	1.138550
C141	C	1.375539	0.357768	0.388574
C142	C	1.625539	0.607768	0.638574
C143	C	1.875539	0.857768	0.888574
C144	C	2.125539	1.107768	1.138574
C145	C	1.465160	0.357775	0.388591
C146	C	1.715160	0.607775	0.638591
C147	C	1.965160	0.857775	0.888591
C148	C	2.215160	1.107775	1.138591
C149	C	1.165282	0.357698	0.598844
C150	C	1.415282	0.607698	0.848844
C151	C	1.665282	0.857698	1.098844
C152	C	1.915282	1.107698	1.348844
C153	C	1.165304	0.357674	0.688466
C154	C	1.415304	0.607674	0.938466
C155	C	1.665304	0.857674	1.188466
C156	C	1.915304	1.107674	1.438466
C157	C	1.165310	1.164048	0.388581
C158	C	1.415310	1.414048	0.638581
C159	C	1.665310	1.664048	0.888581
C160	C	1.915310	1.914048	1.138581
C161	C	1.165296	1.081502	0.388555
C162	C	1.415296	1.331502	0.638555
C163	C	1.665296	1.581502	0.888555
C164	C	1.915296	1.831502	1.138555
C165	C	1.165224	0.357755	0.179045
C166	C	1.415224	0.607755	0.429045
C167	C	1.665224	0.857755	0.679045
C168	C	1.915224	1.107755	0.929045
C169	C	1.165358	0.357569	0.089424
C170	C	1.415358	0.607569	0.339424
C171	C	1.665358	0.857569	0.589424
C172	C	1.915358	1.107569	0.839424
C173	C	1.165342	0.357591	1.016641
C174	C	1.415342	0.607591	1.266641
C175	C	1.665342	0.857591	1.516641
C176	C	1.915342	1.107591	1.766641
C177	C	1.165329	0.357617	0.925333
C178	C	1.415329	0.607617	1.175333
C179	C	1.665329	0.857617	1.425333
C180	C	1.915329	1.107617	1.675333
C181	C	1.165323	0.357633	0.852556
C182	C	1.415323	0.607633	1.102556
C183	C	1.665323	0.857633	1.352556
C184	C	1.915323	1.107633	1.602556
C185	C	1.165310	0.357658	0.761242
C186	C	1.415310	0.607658	1.011242
C187	C	1.665310	0.857658	1.261242
C188	C	1.915310	1.107658	1.511242
H189	H	1.264744	0.811026	0.289257
H190	H	1.514744	1.061026	0.539257
H191	H	1.764744	1.311026	0.789257
H192	H	2.014744	1.561026	1.039257
H193	H	1.128995	0.903878	0.252734
H194	H	1.378995	1.153878	0.502734
H195	H	1.628995	1.403878	0.752734
H196	H	1.878995	1.653878	1.002734
H197	H	1.301024	0.903679	0.425028
H198	H	1.551024	1.153679	0.675028
H199	H	1.801024	1.403679	0.925028
H200	H	2.051024	1.653679	1.175028
N201	N	1.051008	0.910558	0.502747
N202	N	1.301008	1.160558	0.752747
N203	N	1.551008	1.410558	1.002747
N204	N	1.801008	1.660558	1.252747
H205	H	1.051015	0.966509	0.502099
H206	H	1.301015	1.216509	0.752099
H207	H	1.551015	1.466509	1.002099
H208	H	1.801015	1.716509	1.252099
H209	H	0.995650	0.891777	0.488277
H210	H	1.245650	1.141777	0.738277
H211	H	1.495650	1.391777	0.988277
H212	H	1.745650	1.641777	1.238277
N213	N	1.009342	0.804020	0.346567
N214	N	1.259342	1.054020	0.596567
N215	N	1.509342	1.304020	0.846567
N216	N	1.759342	1.554020	1.096567
H217	H	0.994554	0.821997	0.290951
H218	H	1.244554	1.071997	0.540951
H219	H	1.494554	1.321997	0.790951
H220	H	1.744554	1.571997	1.040951
H221	H	1.009875	0.748074	0.347294
H222	H	1.259875	0.998074	0.597294
H223	H	1.509875	1.248074	0.847294
H224	H	1.759875	1.498074	1.097294
H225	H	1.201510	0.810972	0.524417
H226	H	1.451510	1.060972	0.774417
H227	H	1.701510	1.310972	1.024417
H228	H	1.951510	1.560972	1.274417
