data_functionalizedCrystal
_audit_creation_method	'MofGen! by Chris Wilmer'
_symmetry_space_group_name_H-M	'P1'
_symmetry_Int_Tables_number	1
_symmetry_cell_setting	triclinic
loop_
_symmetry_equiv_pos_as_xyz
  x,y,z
_cell_length_a	19.805407
_cell_length_b	14.908520
_cell_length_c	14.908757
_cell_angle_alpha	89.821571
_cell_angle_beta	93.304012
_cell_angle_gamma	93.320773
loop_
_atom_site_label
_atom_site_type_symbol
_atom_site_fract_x
_atom_site_fract_y
_atom_site_fract_z
Zn1	Zn	1.043347	-0.328786	0.529093
Zn2	Zn	1.030273	-0.487791	0.387401
Zn3	Zn	0.923300	-0.337448	0.378743
Zn4	Zn	0.923997	-0.479108	0.537711
O5	O	0.980229	-0.408283	0.458237
O6	O	1.136330	-0.349887	0.510313
O7	O	1.010319	-0.475107	0.260425
O8	O	0.944405	-0.210469	0.391457
O9	O	1.126724	-0.466707	0.406213
O10	O	1.032603	-0.204105	0.501918
O11	O	0.931727	-0.364650	0.254064
O12	O	0.828676	-0.356231	0.399814
O13	O	0.945593	-0.451909	0.662395
O14	O	0.829188	-0.460308	0.516607
O15	O	1.033279	-0.341467	0.656063
O16	O	1.010995	-0.612469	0.414571
O17	O	0.932914	-0.606090	0.525003
C18	C	0.804373	-0.408268	0.458207
C19	C	0.729140	-0.408281	0.458217
C20	C	0.694073	-0.462566	0.518943
C21	C	0.623385	-0.462567	0.518956
C22	C	0.587765	-0.408287	0.458237
C23	C	0.622838	-0.353996	0.397508
C24	C	0.693525	-0.353991	0.397500
C25	C	0.337765	-0.354014	0.397539
C26	C	0.267073	-0.354026	0.397550
C27	C	0.267625	-0.462590	0.518994
C28	C	0.338312	-0.462585	0.518987
C29	C	0.373379	-0.408291	0.458261
C30	C	0.450027	-0.408290	0.458249
C31	C	0.511118	-0.408293	0.458244
C32	C	0.970631	-0.641905	0.471681
C33	C	0.966588	-0.741847	0.477463
C34	C	1.040389	-0.936226	0.373426
C35	C	1.036592	-1.030131	0.378856
C36	C	0.955202	-1.023564	0.493755
C37	C	0.958998	-0.929659	0.488325
C38	C	1.001592	-0.885993	0.428158
C39	C	1.005385	-0.792087	0.422725
C40	C	0.923999	-0.785521	0.537628
C41	C	0.920202	-0.879426	0.543057
C42	C	1.156773	-0.408299	0.458268
C43	C	1.232005	-0.408306	0.458281
C44	C	0.990972	-0.394753	0.692767
C45	C	0.995550	-0.388987	0.792710
C46	C	0.989885	-0.173748	0.444760
C47	C	0.993999	-0.073804	0.439017
C48	C	0.912845	-0.493176	0.987110
C49	C	0.917144	-0.487762	1.081015
C50	C	1.008449	-0.372749	1.074428
C51	C	1.004150	-0.378163	0.980523
C52	C	0.956346	-0.438378	0.936867
C53	C	0.952044	-0.443787	0.842960
C54	C	1.043352	-0.328780	0.836375
C55	C	1.047651	-0.323365	0.930280
C56	C	0.969522	-0.421782	1.224620
C57	C	0.964944	-0.427549	1.124678
H58	H	0.239065	-0.506796	0.568443
C59	C	1.078827	-1.084690	0.319600
C60	C	1.122348	-1.135550	0.373706
C61	C	1.161286	-1.185802	0.319158
H62	H	1.049782	-1.123716	0.282477
H63	H	1.104777	-1.045243	0.283026
H64	H	1.096400	-1.174993	0.410265
H65	H	1.151407	-1.096546	0.410827
H66	H	1.187236	-1.146355	0.282584
H67	H	1.132235	-1.224824	0.282038
H68	H	1.190823	-1.220311	0.355861
C69	C	1.099443	-0.257878	0.977724
C70	C	1.065954	-0.197125	1.028301
C71	C	1.113642	-0.136775	1.072006
H72	H	1.129220	-0.290052	1.016404
H73	H	1.124726	-0.225961	0.934375
H74	H	1.040683	-0.229038	1.071644
H75	H	1.036181	-0.164929	0.989642
H76	H	1.138925	-0.104858	1.028658
H77	H	1.143416	-0.168957	1.110682
H78	H	1.090926	-0.095542	1.106321
C79	C	0.869998	-0.547215	1.135726
C80	C	0.884005	-0.529606	1.227310
C81	C	0.840594	-0.584371	1.277737
H82	H	0.824331	-0.534998	1.119684
H83	H	0.876727	-0.608534	1.123859
H84	H	0.877270	-0.468301	1.239172
H85	H	0.929664	-0.541828	1.243379
H86	H	0.847322	-0.645690	1.265870
H87	H	0.794929	-0.572149	1.261688
H88	H	0.850095	-0.572437	1.339882
C89	C	1.090623	-0.269172	0.781980
C90	C	1.133394	-0.215267	0.840315
C91	C	1.176939	-0.160336	0.790239
H92	H	1.117087	-0.305578	0.747317
H93	H	1.064681	-0.232055	0.743112
H94	H	1.159333	-0.252380	0.879167
H95	H	1.106949	-0.178843	0.874979
H96	H	1.150996	-0.123218	0.751371
H97	H	1.203397	-0.196749	0.755577
H98	H	1.205959	-0.123749	0.829811
H99	H	0.238074	-0.309819	0.348105
H100	H	0.366308	-0.309812	0.348086
C101	C	0.731681	-0.295205	0.331522
C102	C	0.767538	-0.349353	0.276744
C103	C	0.802702	-0.295226	0.215965
H104	H	0.700421	-0.262862	0.295272
H105	H	0.762483	-0.254106	0.363707
H106	H	0.736739	-0.390436	0.244562
H107	H	0.798810	-0.381696	0.312970
H108	H	0.833504	-0.254128	0.248149
H109	H	0.771437	-0.262886	0.179720
H110	H	0.827040	-0.331957	0.178796
H111	H	1.075065	-0.900674	0.324430
C112	C	0.900169	-0.509074	0.795391
C113	C	0.905700	-0.502073	0.702397
C114	C	0.857917	-0.562196	0.658551
H115	H	0.908247	-0.568645	0.814147
H116	H	0.855920	-0.495023	0.809964
H117	H	0.949938	-0.516130	0.687831
H118	H	0.897614	-0.442516	0.683616
H119	H	0.813668	-0.548146	0.673125
H120	H	0.866000	-0.621763	0.677314
H121	H	0.861659	-0.557449	0.595451
H122	H	0.873909	-0.542189	0.951564
H123	H	0.723069	-0.506771	0.568384
C124	C	0.873945	-0.926671	0.608467
C125	C	0.840793	-0.862575	0.655252
C126	C	0.798180	-0.906060	0.715523
H127	H	0.841362	-0.965336	0.576254
H128	H	0.900116	-0.960972	0.649845
H129	H	0.814623	-0.828289	0.613880
H130	H	0.873359	-0.823906	0.687484
H131	H	0.824352	-0.940362	0.756900
H132	H	0.765602	-0.944725	0.683302
H133	H	0.775686	-0.862578	0.747279
C134	C	0.584044	-0.295153	0.331628
C135	C	0.514631	-0.306792	0.344615
C136	C	0.478875	-0.252608	0.283934
H137	H	0.598636	-0.233960	0.341355
H138	H	0.592274	-0.311710	0.271922
H139	H	0.506406	-0.290229	0.404307
H140	H	0.500020	-0.367973	0.334881
H141	H	0.487104	-0.269165	0.224228
H142	H	0.493472	-0.191418	0.293666
H143	H	0.431774	-0.260504	0.292732
H144	H	0.920529	-1.059132	0.542746
C145	C	0.585430	-0.521616	0.584916
C146	C	0.631751	-0.569177	0.638064
C147	C	0.596811	-0.623596	0.698828
H148	H	0.561062	-0.485126	0.622271
H149	H	0.554680	-0.562773	0.552722
H150	H	0.662489	-0.528025	0.670256
H151	H	0.656120	-0.605684	0.600734
H152	H	0.566062	-0.664753	0.666633
H153	H	0.572445	-0.587100	0.736176
H154	H	0.628234	-0.655879	0.734890
H155	H	0.367310	-0.506789	0.568427
H156	H	1.047374	-0.323732	1.109989
C157	C	1.051694	-0.744840	0.357378
C158	C	1.084871	-0.808935	0.310627
C159	C	1.127544	-0.765447	0.250431
H160	H	1.025584	-0.710516	0.315969
H161	H	1.084257	-0.706194	0.389674
H162	H	1.052312	-0.847566	0.278333
H163	H	1.110993	-0.843262	0.352013
H164	H	1.160107	-0.726801	0.282727
H165	H	1.101429	-0.731125	0.209028
H166	H	1.150064	-0.808928	0.218709
H167	H	0.892406	-0.744611	0.582192
