data_functionalizedCrystal
_audit_creation_method	'MofGen! by Chris Wilmer'
_symmetry_space_group_name_H-M	'P1'
_symmetry_Int_Tables_number	1
_symmetry_cell_setting	triclinic
loop_
_symmetry_equiv_pos_as_xyz
  x,y,z
_cell_length_a	15.711784
_cell_length_b	22.610064
_cell_length_c	15.625325
_cell_angle_alpha	71.913689
_cell_angle_beta	101.033193
_cell_angle_gamma	90.011361
loop_
_atom_site_label
_atom_site_type_symbol
_atom_site_fract_x
_atom_site_fract_y
_atom_site_fract_z
O1	O	1.147526	-0.056891	0.494655
O2	O	1.647526	0.443109	0.994655
O3	O	0.895782	-0.042165	0.425979
O4	O	1.395782	0.457835	0.925979
O5	O	1.028381	-0.021856	0.331295
O6	O	1.528381	0.478144	0.831295
O7	O	1.014927	-0.077199	0.589340
O8	O	1.514927	0.422801	1.089340
O9	O	1.028358	-0.120228	0.331307
O10	O	1.528358	0.379772	0.831307
O11	O	0.895758	-0.140536	0.425992
O12	O	1.395758	0.359464	0.925992
O13	O	1.147503	-0.155262	0.494668
O14	O	1.647503	0.344738	0.994668
Zn15	Zn	1.021627	-0.163518	0.460332
Zn16	Zn	1.521627	0.336482	0.960332
Zn17	Zn	1.021658	-0.033909	0.460315
Zn18	Zn	1.521658	0.466091	0.960315
O19	O	1.014903	-0.175571	0.589353
O20	O	1.514903	0.324429	1.089353
C21	C	0.863552	-0.088945	0.414767
C22	C	1.363552	0.411055	0.914767
C23	C	0.767555	-0.081774	0.381328
C24	C	1.267555	0.418226	0.881328
N25	N	1.021612	-0.251973	0.460344
N26	N	1.521612	0.248027	0.960344
C27	C	0.642458	-0.054776	0.255441
C28	C	1.142458	0.445224	0.755441
C29	C	0.732661	-0.061516	0.286871
C30	C	1.232661	0.438484	0.786871
C31	C	0.712251	-0.095297	0.444391
C32	C	1.212251	0.404703	0.944391
C33	C	0.622044	-0.088557	0.412974
C34	C	1.122044	0.411443	0.912974
C35	C	0.587155	-0.068297	0.318498
C36	C	1.087155	0.431703	0.818498
C37	C	0.566741	-0.102077	0.476031
C38	C	1.066741	0.397923	0.976031
C39	C	0.476542	-0.095341	0.444616
C40	C	0.976542	0.404659	0.944616
C41	C	0.441646	-0.075083	0.350144
C42	C	0.941646	0.424917	0.850144
C43	C	0.496956	-0.061560	0.287083
C44	C	0.996956	0.438440	0.787083
C45	C	0.601631	-0.122341	0.570507
C46	C	1.101631	0.377659	1.070507
C47	C	0.546328	-0.135862	0.633564
C48	C	1.046328	0.364138	1.133564
C49	C	0.456127	-0.129121	0.602149
C50	C	0.956127	0.370879	1.102149
C51	C	0.421232	-0.108864	0.507677
C52	C	0.921232	0.391136	1.007677
C53	C	0.400817	-0.142644	0.665210
C54	C	0.900817	0.357356	1.165210
C55	C	0.310618	-0.135908	0.633795
C56	C	0.810618	0.364092	1.133795
C57	C	0.331033	-0.102127	0.476262
C58	C	0.831033	0.397873	0.976262
C59	C	1.080375	-0.651618	0.418399
C60	C	1.580375	-0.151618	0.918399
C61	C	1.080380	-0.713537	0.418394
C62	C	1.580380	-0.213537	0.918394
O63	O	1.130306	-0.737907	0.382732
O64	O	1.630306	-0.237907	0.882732
N65	N	1.021657	-0.753500	0.460296
N66	N	1.521657	-0.253500	0.960296
C67	C	0.962920	-0.731540	0.502198
C68	C	1.462920	-0.231540	1.002198
O69	O	0.912971	-0.771217	0.537838
O70	O	1.412971	-0.271217	1.037838
C71	C	0.962912	-0.669621	0.502197
C72	C	1.462912	-0.169621	1.002197
C73	C	1.021645	-0.629662	0.460300
C74	C	1.521645	-0.129662	0.960300
C75	C	1.139102	-0.611660	0.376505
C76	C	1.639102	-0.111660	0.876505
C77	C	1.139099	-0.549746	0.376512
C78	C	1.639099	-0.049746	0.876512
C79	C	1.080368	-0.527790	0.418413
C80	C	1.580368	-0.027790	0.918413
C81	C	1.021641	-0.567748	0.460307
C82	C	1.521641	-0.067748	0.960307
C83	C	0.904172	-0.647661	0.544093
C84	C	1.404172	-0.147661	1.044093
C85	C	0.904168	-0.585737	0.544088
C86	C	1.404168	-0.085737	1.044088
C87	C	0.962901	-0.545778	0.502191
C88	C	1.462901	-0.045778	1.002191
C89	C	0.962907	-0.483878	0.502215
C90	C	1.462907	0.016122	1.002215
N91	N	1.021630	-0.443915	0.460313
N92	N	1.521630	0.056085	0.960313
C93	C	1.080360	-0.465871	0.418412
C94	C	1.580360	0.034129	0.918412
C95	C	0.962940	-0.861573	0.502196
C96	C	1.462940	-0.361573	1.002196
C97	C	0.962951	-0.923492	0.502203
C98	C	1.462951	-0.423492	1.002203
C99	C	1.080410	-0.905485	0.418397
C100	C	1.580410	-0.405485	0.918397
C101	C	1.080402	-0.843566	0.418396
C102	C	1.580402	-0.343566	0.918396
C103	C	1.021663	-0.821610	0.460294
C104	C	1.521663	-0.321610	0.960294
C105	C	1.080349	-0.335847	0.418430
C106	C	1.580349	0.164153	0.918430
C107	C	1.080343	-0.273929	0.418443
C108	C	1.580343	0.226071	0.918443
C109	C	0.962881	-0.291941	0.502245
C110	C	1.462881	0.208059	1.002245
C111	C	0.962890	-0.353855	0.502235
C112	C	1.462890	0.146145	1.002235
C113	C	1.021627	-0.375805	0.460321
C114	C	1.521627	0.124195	0.960321
O115	O	0.913004	-0.459464	0.537856
O116	O	1.413004	0.040536	1.037856
O117	O	1.130293	-0.426185	0.382767
O118	O	1.630293	0.073815	0.882767
C119	C	1.179732	-0.108481	0.505880
C120	C	1.679732	0.391519	1.005880
C121	C	1.275730	-0.115648	0.539319
C122	C	1.775730	0.384352	1.039319
C123	C	1.027761	-0.063794	0.297511
C124	C	1.527761	0.436206	0.797511
C125	C	1.025936	-0.042197	0.196826
C126	C	1.525936	0.457803	0.696826
N127	N	1.021679	0.054547	0.460298
N128	N	1.521679	0.554547	0.960298
C129	C	1.019898	-0.239288	-0.134271
C130	C	1.519898	0.260712	0.365729
C131	C	1.018188	-0.218984	-0.228879
C132	C	1.518188	0.281016	0.271121
C133	C	1.018213	-0.111745	-0.228883
C134	C	1.518213	0.388255	0.271117
C135	C	1.019919	-0.132040	-0.134273
C136	C	1.519919	0.367960	0.365727
C137	C	1.020762	-0.195812	-0.086975
C138	C	1.520762	0.304188	0.413025
C139	C	1.020784	-0.088564	-0.086977
C140	C	1.520784	0.411436	0.413023
C141	C	1.022494	-0.108857	0.007625
C142	C	1.522494	0.391143	0.507625
C143	C	1.023340	-0.172627	0.054930
C144	C	1.523340	0.327373	0.554930
C145	C	1.022473	-0.216105	0.007627
C146	C	1.522473	0.283895	0.507627
C147	C	1.019947	-0.024792	-0.134276
C148	C	1.519947	0.475208	0.365724
C149	C	1.020812	0.018684	-0.086980
C150	C	1.520812	0.518684	0.413020
C151	C	1.022516	-0.001609	0.007622
C152	C	1.522516	0.498391	0.507622
C153	C	1.023362	-0.065379	0.054928
C154	C	1.523362	0.434621	0.554928
C155	C	1.023383	0.041869	0.054926
C156	C	1.523383	0.541869	0.554926
C157	C	1.025093	0.021575	0.149528
C158	C	1.525093	0.521575	0.649528
C159	C	1.025072	-0.085673	0.149530
C160	C	1.525072	0.414327	0.649530
C161	C	1.015524	-0.133632	0.623136
C162	C	1.515524	0.366368	1.123136
C163	C	1.017348	-0.155225	0.723821
C164	C	1.517348	0.344775	1.223821
H165	H	0.302625	-0.085623	0.399331
H166	H	0.802625	0.414377	0.899331
H167	H	0.856346	-0.680188	0.578209
H168	H	1.356346	-0.180188	1.078209
H169	H	0.265589	-0.146920	0.685143
H170	H	0.765589	0.353080	1.185143
C171	C	1.025996	-0.155825	0.201563
C172	C	1.525996	0.344175	0.701563
N173	N	1.026694	-0.208662	0.240755
N174	N	1.526694	0.291338	0.740755
H175	H	0.915066	-0.274056	0.536364
H176	H	1.415066	0.225944	1.036364
C177	C	0.439208	-0.164935	0.769131
C178	C	0.939208	0.335065	1.269131
N179	N	0.468124	-0.181725	0.847406
N180	N	0.968124	0.318275	1.347406
H181	H	0.740670	-0.111795	0.521314
H182	H	1.240670	0.388205	1.021314
C183	C	0.898347	-0.967443	0.548302
C184	C	1.398347	-0.467443	1.048302
N185	N	0.849680	-1.000543	0.583019
N186	N	1.349680	-0.500543	1.083019
C187	C	1.023396	-0.286258	0.059660
C188	C	1.523396	0.213742	0.559660
N189	N	1.024095	-0.339095	0.098852
N190	N	1.524095	0.160905	0.598852
C191	C	1.144953	-0.229976	0.372347
C192	C	1.644953	0.270024	0.872347
N193	N	1.193614	-0.196872	0.337626
N194	N	1.693614	0.303128	0.837626
H195	H	1.024736	-0.189149	0.131962
H196	H	1.524736	0.310851	0.631962
C197	C	1.020822	-0.309441	-0.082238
C198	C	1.520822	0.190559	0.417762
N199	N	1.021520	-0.362277	-0.043046
N200	N	1.521520	0.137723	0.456954
C201	C	0.700854	-0.129749	0.605062
C202	C	1.200854	0.370251	1.105062
N203	N	0.775589	-0.135327	0.631087
N204	N	1.275589	0.364673	1.131087
C205	C	1.145006	-0.799614	0.372299
C206	C	1.645006	-0.299614	0.872299
N207	N	1.193667	-0.766512	0.337573
N208	N	1.693667	-0.266512	0.837573
H209	H	1.022705	0.093792	0.016403
H210	H	1.522705	0.593792	0.516403
H211	H	1.017481	-0.254392	-0.267385
H212	H	1.517481	0.245608	0.232615
C213	C	0.604076	-0.032483	0.151512
C214	C	1.104076	0.467517	0.651512
N215	N	0.575166	-0.015693	0.073237
N216	N	1.075166	0.484307	0.573237
C217	C	1.017283	-0.041597	-0.280922
C218	C	1.517283	0.458403	0.219078
N219	N	1.016578	0.011240	-0.320119
N220	N	1.516578	0.511240	0.179881
C221	C	1.019881	0.088832	-0.139020
C222	C	1.519881	0.588832	0.360980
N223	N	1.019176	0.141668	-0.178216
N224	N	1.519176	0.641668	0.321784
H225	H	1.128177	-0.353711	0.384298
H226	H	1.628177	0.146289	0.884298
C227	C	1.026040	0.069401	0.201556
C228	C	1.526040	0.569401	0.701556
N229	N	1.026754	0.105425	0.240743
N230	N	1.526754	0.605425	0.740743
C231	C	0.793493	-0.046637	0.217495
C232	C	1.293493	0.453363	0.717495
N233	N	0.839312	-0.035430	0.165242
N234	N	1.339312	0.464570	0.665242
H235	H	1.186928	-0.629529	0.342380
H236	H	1.686928	-0.129529	0.842380
C237	C	0.342424	-0.067672	0.315587
C238	C	0.842424	0.432328	0.815587
N239	N	0.267689	-0.062088	0.289559
N240	N	0.767689	0.437912	0.789559
H241	H	1.018557	-0.008271	-0.211307
H242	H	1.518557	0.491729	0.288693
H243	H	0.574747	-0.152360	0.710487
H244	H	1.074747	0.347640	1.210487
C245	C	1.145010	-0.929646	0.372297
C246	C	1.645010	-0.429646	0.872297
N247	N	1.193662	-0.947846	0.337575
N248	N	1.693662	-0.447846	0.837575
H249	H	0.468548	-0.045056	0.210152
H250	H	0.968548	0.454944	0.710152
H251	H	1.186921	-0.517213	0.342392
H252	H	1.686921	-0.017213	0.842392
H253	H	0.915109	-0.843703	0.536322
H254	H	1.415109	-0.343703	1.036322
H255	H	0.856333	-0.567864	0.578204
H256	H	1.356333	-0.067864	1.078204
C257	C	0.898287	-0.397813	0.548331
C258	C	1.398287	0.102187	1.048331
N259	N	0.849621	-0.430916	0.583043
N260	N	1.349621	0.069084	1.083043
