data_functionalizedCrystal
_audit_creation_method	'MofGen! by Chris Wilmer'
_symmetry_space_group_name_H-M	'P1'
_symmetry_Int_Tables_number	1
_symmetry_cell_setting	triclinic
loop_
_symmetry_equiv_pos_as_xyz
  x,y,z
_cell_length_a	35.277628
_cell_length_b	35.288095
_cell_length_c	35.277682
_cell_angle_alpha	59.997929
_cell_angle_beta	89.998958
_cell_angle_gamma	60.000166
loop_
_atom_site_label
_atom_site_type_symbol
_atom_site_fract_x
_atom_site_fract_y
_atom_site_fract_z
O1	O	-0.323087	-0.271234	0.011271
O2	O	-0.267964	-0.193634	-0.011228
O3	O	-0.267962	-0.271233	0.066395
O4	O	-0.323089	-0.193635	-0.066351
O5	O	-0.204915	-0.334261	0.066394
O6	O	-0.204918	-0.256661	-0.011228
O7	O	-0.260040	-0.334261	0.011271
Cu8	Cu	-0.226722	-0.301216	0.000022
Cu9	Cu	-0.301282	-0.226679	0.000022
O10	O	-0.260043	-0.256662	-0.066351
C11	C	-0.163481	-0.071298	-0.023519
C12	C	-0.186872	-0.024531	-0.020298
C13	C	-0.117860	-0.093995	-0.023838
C14	C	-0.163483	-0.139918	-0.023524
C15	C	-0.186875	-0.166518	-0.020308
C16	C	-0.117862	-0.162510	-0.023843
C17	C	-0.094838	-0.139921	-0.023519
C18	C	-0.044836	-0.166525	-0.020298
C19	C	-0.186401	-0.093991	-0.023843
C20	C	-0.004439	-0.188019	-0.017694
C21	C	-0.205769	0.013252	-0.017695
C22	C	-0.205774	-0.188010	-0.017709
C23	C	0.046241	-0.214983	-0.014429
C24	C	-0.229477	0.060653	-0.014430
C25	C	-0.229483	-0.214971	-0.014450
C26	C	-0.500364	-0.466062	0.034181
C27	C	-0.477341	-0.511990	0.034503
C28	C	-0.431722	-0.466060	0.034178
C29	C	-0.408804	-0.511988	0.034500
C30	C	-0.431721	-0.534685	0.034181
C31	C	-0.477342	-0.443470	0.034500
C32	C	-0.665895	-0.342485	0.021756
C33	C	-0.712772	-0.317221	0.018243
C34	C	-0.736287	-0.338907	0.016481
C35	C	-0.787116	-0.311512	0.012664
C36	C	-0.712921	-0.385861	0.018236
C37	C	-0.666047	-0.411125	0.021755
C38	C	-0.642533	-0.389434	0.023515
C39	C	-0.389805	-0.687746	0.021758
C40	C	-0.368199	-0.731097	0.018245
C41	C	-0.322995	-0.752841	0.016478
C42	C	-0.299567	-0.799839	0.012662
C43	C	-0.299393	-0.731235	0.018230
C44	C	-0.320995	-0.687892	0.021751
C45	C	-0.366205	-0.666148	0.023512
C46	C	-0.389808	-0.342477	0.021744
C47	C	-0.368205	-0.317208	0.018222
C48	C	-0.322998	-0.338892	0.016457
C49	C	-0.299573	-0.311495	0.012637
C50	C	-0.299398	-0.385842	0.018210
C51	C	-0.321003	-0.411107	0.021730
C52	C	-0.366208	-0.389423	0.023501
C53	C	-0.591706	-0.416830	0.027326
C54	C	-0.551191	-0.438667	0.030366
C55	C	-0.408299	-0.438663	0.030360
C56	C	-0.389629	-0.416824	0.027317
C57	C	-0.408298	-0.581682	0.030365
C58	C	-0.389627	-0.619146	0.027325
C59	C	-0.432024	-0.061845	-0.438511
C60	C	-0.477645	-0.015917	-0.461431
C61	C	-0.432025	-0.061844	-0.369869
C62	C	-0.477645	-0.015916	-0.392892
C63	C	-0.500668	0.006779	-0.438513
C64	C	-0.409106	-0.084435	-0.392891
C65	C	-0.320834	-0.185425	-0.480424
C66	C	-0.299076	-0.210690	-0.502029
C67	C	-0.322531	-0.189005	-0.547237
C68	C	-0.298945	-0.216401	-0.570661
C69	C	-0.367745	-0.142051	-0.570839
C70	C	-0.389497	-0.116787	-0.549237
C71	C	-0.366040	-0.138476	-0.504027
C72	C	-0.666200	0.159838	-0.549704
C73	C	-0.713077	0.203188	-0.571462
C74	C	-0.736595	0.224934	-0.548009
C75	C	-0.787423	0.271931	-0.571594
C76	C	-0.713230	0.203329	-0.502796
C77	C	-0.666353	0.159987	-0.481041
C78	C	-0.642841	0.138241	-0.504500
C79	C	-0.320836	-0.185423	-0.204335
C80	C	-0.299080	-0.210691	-0.157455
C81	C	-0.322536	-0.189006	-0.133940
C82	C	-0.298950	-0.216402	-0.083110
C83	C	-0.367748	-0.142056	-0.157305
C84	C	-0.389502	-0.116792	-0.204182
C85	C	-0.366040	-0.138478	-0.227695
C86	C	-0.389632	-0.111079	-0.480604
C87	C	-0.408436	-0.089241	-0.461934
C88	C	-0.408437	-0.089240	-0.319041
C89	C	-0.389634	-0.111078	-0.278525
C90	C	-0.551496	0.053776	-0.462102
C91	C	-0.592011	0.091239	-0.480906
O92	O	0.196122	-0.334274	0.011291
O93	O	0.063378	-0.256674	-0.011208
O94	O	0.140994	-0.334276	0.066414
O95	O	0.118506	-0.256671	-0.066331
O96	O	0.140996	-0.271251	0.066419
O97	O	0.063380	-0.193649	-0.011203
O98	O	0.196124	-0.271249	0.011296
Cu99	Cu	0.129752	-0.226694	0.000047
Cu100	Cu	0.129750	-0.301228	0.000041
O101	O	0.118508	-0.193647	-0.066327
O102	O	-0.260036	0.184774	0.011294
O103	O	-0.204910	0.074561	-0.011204
O104	O	-0.204913	0.074554	0.066418
O105	O	-0.260033	0.184781	-0.066328
O106	O	-0.267961	0.074557	0.066413
O107	O	-0.267958	0.074564	-0.011209
O108	O	-0.323083	0.184777	0.011289
Cu109	Cu	-0.301278	0.129670	0.000040
Cu110	Cu	-0.226716	0.129668	0.000045
O111	O	-0.323081	0.184784	-0.066333
O112	O	-0.936929	0.397535	-0.602582
O113	O	-0.804185	0.287317	-0.547454
O114	O	-0.881802	0.287315	-0.547452
O115	O	-0.859312	0.397537	-0.602584
O116	O	-0.881801	0.287314	-0.610498
O117	O	-0.804183	0.287316	-0.610500
O118	O	-0.936927	0.397533	-0.665628
Cu119	Cu	-0.870555	0.342425	-0.643820
Cu120	Cu	-0.870557	0.342426	-0.569261
O121	O	-0.859310	0.397536	-0.665629
O122	O	-0.267961	-0.271234	-0.665316
O123	O	-0.323086	-0.193638	-0.610192
O124	O	-0.323085	-0.271236	-0.610189
O125	O	-0.267962	-0.193636	-0.665319
O126	O	-0.260038	-0.334264	-0.547142
O127	O	-0.260039	-0.256666	-0.547145
O128	O	-0.204914	-0.334262	-0.602269
Cu129	Cu	-0.226720	-0.301219	-0.568950
Cu130	Cu	-0.301280	-0.226681	-0.643511
O131	O	-0.204915	-0.256664	-0.602272
C132	C	-0.094840	-0.456607	0.293255
C133	C	-0.044837	-0.503376	0.316647
C134	C	-0.117862	-0.433912	0.316174
C135	C	-0.163483	-0.387984	0.224612
C136	C	-0.186875	-0.361381	0.174609
C137	C	-0.186401	-0.365393	0.247634
C138	C	-0.163483	-0.387984	0.293255
C139	C	-0.186874	-0.361382	0.316646
C140	C	-0.117862	-0.433912	0.247635
C141	C	-0.205772	-0.339889	0.335543
C142	C	-0.004440	-0.541160	0.335545
C143	C	-0.205773	-0.339888	0.134212
C144	C	-0.229480	-0.312925	0.359250
C145	C	0.046239	-0.588562	0.359254
C146	C	-0.229481	-0.312924	0.083532
C147	C	0.153295	-0.388013	0.293279
C148	C	0.150076	-0.361413	0.316673
C149	C	0.153614	-0.433940	0.316196
C150	C	0.153297	-0.388008	0.224634
C151	C	0.150079	-0.361403	0.174632
C152	C	0.153616	-0.433935	0.247655
C153	C	0.153293	-0.456633	0.293275
C154	C	0.150072	-0.503401	0.316665
C155	C	0.153617	-0.365420	0.247659
C156	C	0.147469	-0.541185	0.335561
C157	C	0.147474	-0.339922	0.335572
C158	C	0.147479	-0.339908	0.134234
C159	C	0.144204	-0.588587	0.359267
C160	C	0.144211	-0.312962	0.359282
C161	C	0.144218	-0.312942	0.083555
C162	C	-0.163482	-0.139963	0.293267
C163	C	-0.186875	-0.166567	0.316654
C164	C	-0.117861	-0.162559	0.316187
C165	C	-0.163482	-0.071333	0.224628
C166	C	-0.186873	-0.024557	0.174627
C167	C	-0.117860	-0.094033	0.247653
C168	C	-0.094838	-0.139967	0.293272
C169	C	-0.044835	-0.166574	0.316665
C170	C	-0.186401	-0.094030	0.247648
C171	C	-0.004438	-0.188070	0.335563
C172	C	-0.205773	-0.188061	0.335549
C173	C	-0.205771	0.013233	0.134231
C174	C	0.046242	-0.215038	0.359273
C175	C	-0.229482	-0.215026	0.359253
C176	C	-0.229479	0.060643	0.083553
C177	C	0.095627	0.006487	-0.438489
C178	C	0.095306	-0.016206	-0.461409
C179	C	0.095623	-0.062137	-0.369847
C180	C	0.095303	-0.084726	-0.392871
C181	C	0.095625	-0.062133	-0.438492
C182	C	0.095305	-0.016210	-0.392868
C183	C	0.108059	0.159543	-0.480399
C184	C	0.111575	0.202893	-0.502003
C185	C	0.113340	0.224640	-0.547210
C186	C	0.117161	0.271637	-0.570634
C187	C	0.111587	0.203038	-0.570814
C188	C	0.108065	0.159695	-0.549212
C189	C	0.106302	0.137948	-0.504002
C190	C	0.108054	-0.116452	-0.549685
C191	C	0.111568	-0.141562	-0.571444
C192	C	0.113332	-0.188519	-0.547992
C193	C	0.117148	-0.215753	-0.571578
C194	C	0.111577	-0.210363	-0.502779
C195	C	0.108055	-0.185249	-0.481023
C196	C	0.106297	-0.138292	-0.504481
C197	C	0.108046	-0.116473	-0.204312
C198	C	0.111564	-0.141591	-0.157432
C199	C	0.113326	-0.188548	-0.133918
C200	C	0.117142	-0.215786	-0.083088
C201	C	0.111574	-0.210388	-0.157283
C202	C	0.108058	-0.185270	-0.204161
C203	C	0.106290	-0.138308	-0.227673
C204	C	0.102487	0.090947	-0.480580
C205	C	0.099445	0.053484	-0.461911
C206	C	0.099438	-0.089371	-0.319019
C207	C	0.102477	-0.111078	-0.278503
C208	C	0.099442	-0.089362	-0.462081
C209	C	0.102482	-0.111066	-0.480886
O210	O	0.118477	-0.256700	0.452885
O211	O	0.140984	-0.334299	0.397762
O212	O	0.063360	-0.256699	0.397752
O213	O	0.196101	-0.334300	0.452895
O214	O	0.063367	-0.193672	0.334708
O215	O	0.140992	-0.271271	0.334718
O216	O	0.118484	-0.193673	0.389842
Cu217	Cu	0.129739	-0.226717	0.356523
Cu218	Cu	0.129730	-0.301254	0.431080
O219	O	0.196108	-0.271272	0.389852
C220	C	-0.500364	0.533998	-0.438484
C221	C	-0.477341	0.556591	-0.461399
C222	C	-0.431721	0.465364	-0.369840
C223	C	-0.408802	0.488061	-0.392859
C224	C	-0.431720	0.533995	-0.438478
C225	C	-0.477342	0.488064	-0.392865
C226	C	-0.665898	0.588334	-0.480407
C227	C	-0.712776	0.613450	-0.502014
C228	C	-0.736291	0.660414	-0.547220
C229	C	-0.787122	0.687654	-0.570647
C230	C	-0.712926	0.682257	-0.570819
C231	C	-0.666050	0.657138	-0.549214
C232	C	-0.642536	0.610174	-0.504006
C233	C	-0.389802	0.657585	-0.549654
C234	C	-0.368196	0.682850	-0.571408
C235	C	-0.322990	0.661164	-0.547952
C236	C	-0.299561	0.688558	-0.571532
C237	C	-0.299388	0.614205	-0.502740
C238	C	-0.320990	0.588935	-0.480990
C239	C	-0.366202	0.610633	-0.504452
C240	C	-0.389804	0.312282	-0.204314
C241	C	-0.368201	0.268929	-0.157436
C242	C	-0.322993	0.247179	-0.133918
C243	C	-0.299567	0.200174	-0.083089
C244	C	-0.299392	0.268786	-0.157278
C245	C	-0.320998	0.312139	-0.204154
C246	C	-0.366204	0.333881	-0.227670
C247	C	-0.591708	0.582942	-0.480581
C248	C	-0.551193	0.561234	-0.461909
C249	C	-0.408297	0.418359	-0.319013
C250	C	-0.389626	0.380890	-0.278499
C251	C	-0.408296	0.561393	-0.462062
C252	C	-0.389624	0.583232	-0.480862
H253	H	-0.223885	-0.074993	-0.024363
H254	H	-0.099381	-0.199518	0.353671
C255	C	-0.092883	-0.068380	0.222690
C256	C	-0.075104	-0.047980	0.242725
C257	C	-0.050124	-0.022332	0.217765
C258	C	-0.042923	-0.017084	0.172770
C259	C	-0.060702	-0.037484	0.152733
C260	C	-0.085682	-0.063132	0.177693
H261	H	-0.080435	-0.051865	0.276034
H262	H	-0.036963	-0.007231	0.232598
H263	H	-0.024431	0.001902	0.154293
H264	H	-0.055372	-0.033599	0.119424
H265	H	-0.098843	-0.078233	0.162860
H266	H	-0.223883	-0.328432	0.229146
H267	H	-0.371622	-0.121391	-0.374409
C268	C	-0.092895	-0.459570	0.222663
C269	C	-0.118220	-0.434608	0.172378
C270	C	-0.093255	-0.460264	0.147406
C271	C	-0.042966	-0.510883	0.172721
C272	C	-0.017638	-0.535848	0.223009
C273	C	-0.042603	-0.510191	0.247980
H274	H	-0.155449	-0.397135	0.153636
H275	H	-0.112004	-0.441784	0.110180
H276	H	-0.024485	-0.529875	0.154235
H277	H	0.019591	-0.573321	0.241751
H278	H	-0.023854	-0.528672	0.285207
C279	C	-0.502614	0.009744	-0.512069
C280	C	-0.520385	0.067942	-0.550260
C281	C	-0.545354	0.093602	-0.600896
C282	C	-0.552552	0.061064	-0.613341
C283	C	-0.534781	0.002861	-0.575149
C284	C	-0.509812	-0.022799	-0.524513
H285	H	-0.515057	0.092033	-0.541048
H286	H	-0.558509	0.136688	-0.629168
H287	H	-0.571035	0.080059	-0.650825
H288	H	-0.540109	-0.021229	-0.584361
H289	H	-0.496657	-0.065884	-0.496241
C290	C	0.154303	-0.459600	0.366831
C291	C	0.154650	-0.510222	0.392144
C292	C	0.155335	-0.535880	0.442776
C293	C	0.155673	-0.510917	0.468096
C294	C	0.155326	-0.460293	0.442784
C295	C	0.154641	-0.434635	0.392151
H296	H	0.154399	-0.528703	0.373400
H297	H	0.155592	-0.573355	0.461514
H298	H	0.156181	-0.529910	0.505577
H299	H	0.155577	-0.441811	0.461527
H300	H	0.154384	-0.397159	0.373414
H301	H	0.113009	-0.248624	-0.138135
C302	C	-0.439528	0.681440	-0.575461
C303	C	-0.478543	0.698790	-0.555251
C304	C	-0.528267	0.722641	-0.581056
C305	C	-0.538976	0.729141	-0.627070
C306	C	-0.499960	0.711790	-0.647283
C307	C	-0.450236	0.687940	-0.621478
H308	H	-0.470617	0.693979	-0.521186
H309	H	-0.557150	0.735485	-0.566093
H310	H	-0.575785	0.746796	-0.646172
H311	H	-0.507886	0.716602	-0.681348
H312	H	-0.421353	0.675096	-0.636441
H313	H	-0.223884	-0.075035	0.229163
H314	H	-0.301729	-0.203089	-0.443614
C315	C	-0.249348	-0.262334	-0.131754
C316	C	-0.210259	-0.263847	-0.110143
C317	C	-0.160525	-0.315487	-0.084442
C318	C	-0.149881	-0.365615	-0.080352
C319	C	-0.188972	-0.364104	-0.101963
C320	C	-0.238705	-0.312463	-0.127664
H321	H	-0.218137	-0.226737	-0.113171
H322	H	-0.131587	-0.316606	-0.068444
H323	H	-0.113065	-0.403843	-0.061327
H324	H	-0.181093	-0.401213	-0.098936
H325	H	-0.267643	-0.311345	-0.143662
C326	C	-0.092890	-0.068336	-0.024534
C327	C	-0.075119	-0.047921	-0.064979
C328	C	-0.050150	-0.022263	-0.065676
C329	C	-0.042951	-0.017019	-0.025928
C330	C	-0.060722	-0.037434	0.014519
C331	C	-0.085692	-0.063093	0.015217
H332	H	-0.080448	-0.051803	-0.094405
H333	H	-0.036995	-0.007151	-0.095618
H334	H	-0.024467	0.001974	-0.026444
H335	H	-0.055394	-0.033553	0.043946
H336	H	-0.098847	-0.078205	0.045159
C337	C	-0.092881	-0.212452	-0.024514
C338	C	-0.042587	-0.237422	-0.024845
C339	C	-0.017602	-0.287372	-0.025503
C340	C	-0.042909	-0.312352	-0.025830
C341	C	-0.093205	-0.287382	-0.025498
C342	C	-0.118191	-0.237433	-0.024840
H343	H	-0.023851	-0.218930	-0.024604
H344	H	0.019631	-0.305855	-0.025749
H345	H	-0.024413	-0.349328	-0.026316
H346	H	-0.111941	-0.305874	-0.025740
H347	H	-0.155423	-0.218949	-0.024595
H348	H	-0.731792	-0.278991	0.016812
H349	H	0.154138	-0.452930	0.229170
H350	H	0.154133	-0.328462	0.229178
H351	H	-0.495832	0.469078	-0.374381
C352	C	0.094605	-0.134652	-0.367905
C353	C	0.094261	-0.159623	-0.317615
C354	C	0.093564	-0.209548	-0.292650
C355	C	0.093212	-0.234501	-0.317975
C356	C	0.093556	-0.209529	-0.368268
C357	C	0.094252	-0.159605	-0.393233
H358	H	0.094522	-0.141152	-0.298865
H359	H	0.093310	-0.228033	-0.255420
H360	H	0.092696	-0.271458	-0.299495
H361	H	0.093294	-0.228001	-0.387018
H362	H	0.094507	-0.141119	-0.430463
C363	C	-0.249666	-0.755153	0.016291
C364	C	-0.209556	-0.778641	0.056762
C365	C	-0.159829	-0.802558	0.054820
C366	C	-0.150213	-0.802985	0.012408
C367	C	-0.190325	-0.779496	-0.028066
C368	C	-0.240051	-0.755580	-0.026125
H369	H	-0.216673	-0.778326	0.088161
H370	H	-0.130136	-0.819946	0.084782
H371	H	-0.113403	-0.820689	0.010971
H372	H	-0.183207	-0.779812	-0.059465
H373	H	-0.269744	-0.738191	-0.056086
C374	C	0.094609	0.009455	-0.512047
C375	C	0.094267	0.060073	-0.537365
C376	C	0.093569	0.085732	-0.588001
C377	C	0.093214	0.060772	-0.613319
C378	C	0.093557	0.010151	-0.588001
C379	C	0.094254	-0.015507	-0.537365
H380	H	0.094530	0.078552	-0.518623
H381	H	0.093316	0.123205	-0.606743
H382	H	0.092698	0.079766	-0.650803
H383	H	0.093294	-0.008328	-0.606743
H384	H	0.094508	-0.052980	-0.518623
H385	H	0.094825	0.002760	-0.374372
H386	H	0.113001	-0.123813	-0.138408
C387	C	-0.502615	0.009743	-0.367922
C388	C	-0.520387	0.067941	-0.387949
C389	C	-0.545356	0.093599	-0.362979
C390	C	-0.552553	0.061058	-0.317984
C391	C	-0.534781	0.002856	-0.297955
C392	C	-0.509812	-0.022802	-0.322925
H393	H	-0.515060	0.092033	-0.421259
H394	H	-0.558512	0.136684	-0.377806
H395	H	-0.571036	0.080051	-0.299500
H396	H	-0.540108	-0.021236	-0.264645
H397	H	-0.496656	-0.065887	-0.308098
H398	H	0.106608	-0.078237	-0.223453
C399	C	0.106114	0.135627	-0.430672
C400	C	0.108038	0.159389	-0.404711
C401	C	0.106093	0.135472	-0.354985
C402	C	0.102223	0.087792	-0.331219
C403	C	0.100299	0.064027	-0.357180
C404	C	0.102244	0.087945	-0.406906
H405	H	0.110902	0.194687	-0.422303
H406	H	0.107517	0.153064	-0.335767
H407	H	0.100783	0.070087	-0.294409
H408	H	0.097435	0.028729	-0.339588
H409	H	0.100820	0.070352	-0.426124
H410	H	-0.371321	-0.530978	0.035012
H411	H	0.113004	0.220477	-0.482781
C412	C	0.113528	0.226959	-0.620539
C413	C	0.075960	0.286169	-0.659552
C414	C	0.077902	0.310089	-0.709279
C415	C	0.117413	0.274800	-0.719994
C416	C	0.154984	0.215587	-0.680980
C417	C	0.153042	0.191666	-0.631253
H418	H	0.046709	0.312295	-0.651622
H419	H	0.050089	0.353923	-0.738160
H420	H	0.118851	0.292507	-0.756805
H421	H	0.184235	0.189460	-0.688910
H422	H	0.180855	0.147833	-0.602372
C423	C	0.113505	-0.117540	-0.621173
C424	C	0.073032	-0.060420	-0.661210
C425	C	0.074971	-0.036398	-0.710938
C426	C	0.117382	-0.069496	-0.720630
C427	C	0.157858	-0.126619	-0.680591
C428	C	0.155919	-0.150641	-0.630863
H429	H	0.041634	-0.035916	-0.654037
H430	H	0.045008	0.005889	-0.740577
H431	H	0.118817	-0.051713	-0.757442
H432	H	0.189256	-0.151123	-0.687764
H433	H	0.185882	-0.192928	-0.601224
C434	C	-0.738778	0.226947	-0.621191
C435	C	-0.742864	0.191535	-0.631817
C436	C	-0.768565	0.215292	-0.681545
C437	C	-0.790180	0.274461	-0.720647
C438	C	-0.786094	0.309876	-0.710023
C439	C	-0.760393	0.286119	-0.660294
H440	H	-0.726863	0.147732	-0.602870
H441	H	-0.771590	0.189076	-0.689410
H442	H	-0.809205	0.292048	-0.757459
H443	H	-0.802095	0.353679	-0.738970
H444	H	-0.757369	0.312336	-0.652429
H445	H	-0.099377	-0.452909	0.353658
H446	H	-0.495827	-0.530983	0.035020
H447	H	0.106637	0.142110	-0.568432
C448	C	0.113512	-0.262012	-0.476979
C449	C	0.155923	-0.314026	-0.467791
C450	C	0.157861	-0.365677	-0.441991
C451	C	0.117388	-0.365315	-0.425379
C452	C	0.074974	-0.313299	-0.434567
C453	C	0.073036	-0.261648	-0.460367
H454	H	0.185886	-0.314295	-0.480089
H455	H	0.189259	-0.404183	-0.435190
H456	H	0.118823	-0.403551	-0.406280
H457	H	0.045011	-0.313030	-0.422269
H458	H	0.041638	-0.223142	-0.467168
C459	C	-0.358163	0.462397	-0.367891
C460	C	-0.332842	0.411770	-0.317604
C461	C	-0.282205	0.386107	-0.292639
C462	C	-0.256887	0.411070	-0.317960
C463	C	-0.282208	0.461699	-0.368250
C464	C	-0.332845	0.487362	-0.393215
H465	H	-0.351584	0.393289	-0.298857
H466	H	-0.263461	0.348628	-0.255411
H467	H	-0.219402	0.392072	-0.299479
H468	H	-0.263466	0.480180	-0.386996
H469	H	-0.351589	0.524842	-0.430443
C470	C	-0.640032	-0.318628	0.023698
C471	C	-0.597189	-0.351846	0.066109
C472	C	-0.571324	-0.327991	0.068051
C473	C	-0.588303	-0.270918	0.027582
C474	C	-0.631148	-0.237696	-0.014832
C475	C	-0.657013	-0.261551	-0.016774
H476	H	-0.584618	-0.394098	0.096069
H477	H	-0.539607	-0.352584	0.099449
H478	H	-0.569157	-0.253259	0.029020
H479	H	-0.643719	-0.195444	-0.044792
H480	H	-0.688730	-0.236958	-0.048172
H481	H	-0.495829	-0.406511	0.035012
C482	C	-0.394160	0.245161	-0.131740
C483	C	-0.410811	0.221794	-0.148849
C484	C	-0.436771	0.198025	-0.123154
C485	C	-0.446079	0.197623	-0.080350
C486	C	-0.429427	0.220991	-0.063239
C487	C	-0.403468	0.244761	-0.088934
H488	H	-0.403921	0.222091	-0.180536
H489	H	-0.449097	0.180726	-0.135820
H490	H	-0.465295	0.180028	-0.061329
H491	H	-0.436318	0.220695	-0.031551
H492	H	-0.391142	0.262059	-0.076267
H493	H	-0.495826	0.593550	-0.498882
H494	H	0.106619	-0.078217	-0.568789
H495	H	-0.387416	0.721084	-0.608218
C496	C	-0.739095	0.227248	-0.476995
C497	C	-0.781935	0.227676	-0.467807
C498	C	-0.807801	0.251594	-0.442006
C499	C	-0.790827	0.275085	-0.425393
C500	C	-0.747985	0.274658	-0.434581
C501	C	-0.722118	0.250740	-0.460383
H502	H	-0.794502	0.210286	-0.480105
H503	H	-0.839516	0.251910	-0.435204
H504	H	-0.809975	0.292791	-0.406293
H505	H	-0.735417	0.292048	-0.422283
H506	H	-0.690404	0.250424	-0.467184
C507	C	-0.249669	-0.409702	0.016271
C508	C	-0.240048	-0.376489	-0.026140
C509	C	-0.190321	-0.400349	-0.028079
C510	C	-0.150214	-0.457421	0.012393
C511	C	-0.159833	-0.490637	0.054807
C512	C	-0.209560	-0.466777	0.056746
H513	H	-0.269739	-0.334237	-0.056103
H514	H	-0.183201	-0.375759	-0.059477
H515	H	-0.113403	-0.475083	0.010957
H516	H	-0.130142	-0.532889	0.084769
H517	H	-0.216680	-0.491367	0.088144
C518	C	-0.394164	-0.265565	0.016295
C519	C	-0.410811	-0.266019	0.056780
C520	C	-0.436770	-0.214378	0.054856
C521	C	-0.446081	-0.162282	0.012447
C522	C	-0.429433	-0.161825	-0.028041
C523	C	-0.403475	-0.213467	-0.026117
H524	H	-0.403919	-0.304586	0.088176
H525	H	-0.449093	-0.214716	0.084828
H526	H	-0.465297	-0.124054	0.011023
H527	H	-0.436326	-0.123259	-0.059437
H528	H	-0.391151	-0.213129	-0.056088
C529	C	-0.295030	-0.209278	-0.230199
C530	C	-0.245302	-0.260922	-0.204502
C531	C	-0.219500	-0.284774	-0.230368
C532	C	-0.243425	-0.256982	-0.281932
C533	C	-0.293156	-0.205335	-0.307633
C534	C	-0.318959	-0.181483	-0.281766
H535	H	-0.227589	-0.281498	-0.166328
H536	H	-0.182685	-0.323007	-0.211342
H537	H	-0.224324	-0.274639	-0.301080
H538	H	-0.310870	-0.184759	-0.345806
H539	H	-0.355773	-0.143250	-0.300792
H540	H	-0.262576	0.596543	-0.483644
C541	C	-0.295036	-0.664126	0.023677
C542	C	-0.245312	-0.688039	0.021734
C543	C	-0.219354	-0.664272	0.023658
C544	C	-0.243119	-0.616592	0.027525
C545	C	-0.292846	-0.592676	0.029468
C546	C	-0.318804	-0.616443	0.027544
H547	H	-0.227717	-0.723338	0.018871
H548	H	-0.182543	-0.681976	0.022219
H549	H	-0.223903	-0.598998	0.028949
H550	H	-0.310441	-0.557378	0.032330
H551	H	-0.355615	-0.598739	0.028982
C552	C	-0.439531	0.336200	-0.230182
C553	C	-0.465493	0.312438	-0.204489
C554	C	-0.515219	0.336357	-0.230359
C555	C	-0.538982	0.384038	-0.281923
C556	C	-0.513019	0.407802	-0.307618
C557	C	-0.463294	0.383883	-0.281748
H558	H	-0.447903	0.277139	-0.166316
H559	H	-0.534438	0.318764	-0.211338
H560	H	-0.575791	0.401744	-0.301073
H561	H	-0.530610	0.443101	-0.345791
H562	H	-0.444075	0.401476	-0.300770
H563	H	-0.262264	-0.248919	-0.482808
C564	C	-0.738787	-0.409714	0.016299
C565	C	-0.760441	-0.427068	0.053871
C566	C	-0.786306	-0.450923	0.051933
C567	C	-0.790519	-0.457425	0.012423
C568	C	-0.768864	-0.440071	-0.025152
C569	C	-0.742999	-0.416216	-0.023215
H570	H	-0.757323	-0.422255	0.083121
H571	H	-0.802336	-0.463769	0.079749
H572	H	-0.809666	-0.475084	0.010988
H573	H	-0.771982	-0.444883	-0.054403
H574	H	-0.726969	-0.403369	-0.051030
C575	C	-0.393554	-0.118196	-0.131443
C576	C	-0.439568	-0.111697	-0.127231
C577	C	-0.465374	-0.087836	-0.101372
C578	C	-0.445167	-0.070475	-0.079723
C579	C	-0.399151	-0.076974	-0.083934
C580	C	-0.373345	-0.100834	-0.109794
H581	H	-0.454528	-0.124549	-0.143257
H582	H	-0.499438	-0.083026	-0.098255
H583	H	-0.464271	-0.052812	-0.060580
H584	H	-0.384191	-0.064122	-0.067908
H585	H	-0.339281	-0.105645	-0.112910
H586	H	0.106623	-0.203035	-0.444212
C587	C	-0.640347	-0.462769	0.023684
C588	C	-0.666209	-0.486625	0.021744
C589	C	-0.640509	-0.538268	0.023672
C590	C	-0.588948	-0.566056	0.027538
C591	C	-0.563083	-0.542200	0.029478
C592	C	-0.588782	-0.490557	0.027551
H593	H	-0.704380	-0.466055	0.018882
H594	H	-0.659657	-0.555928	0.022236
H595	H	-0.569924	-0.604285	0.028965
H596	H	-0.524912	-0.562770	0.032341
H597	H	-0.569635	-0.472897	0.028987
C598	C	-0.738477	0.589428	-0.476055
C599	C	-0.760093	0.571954	-0.496147
C600	C	-0.785795	0.547932	-0.470187
C601	C	-0.789881	0.541383	-0.424135
C602	C	-0.768264	0.558857	-0.404040
C603	C	-0.742563	0.582879	-0.430001
H604	H	-0.757069	0.576802	-0.530240
H605	H	-0.801797	0.534996	-0.485063
H606	H	-0.808907	0.523600	-0.404918
H607	H	-0.771288	0.554009	-0.369948
H608	H	-0.726561	0.595814	-0.415125
C609	C	-0.394161	-0.754856	0.016311
C610	C	-0.374076	-0.814025	0.053884
C611	C	-0.400039	-0.837784	0.051948
C612	C	-0.446088	-0.802373	0.012440
C613	C	-0.466176	-0.743201	-0.025135
C614	C	-0.440212	-0.719442	-0.023200
H615	H	-0.339986	-0.840241	0.083132
H616	H	-0.385168	-0.881587	0.079764
H617	H	-0.465307	-0.819961	0.011008
H618	H	-0.500266	-0.716985	-0.054383
H619	H	-0.455083	-0.675639	-0.051016
H620	H	0.106630	-0.203055	-0.223182
C621	C	-0.393544	-0.118199	-0.620565
C622	C	-0.402730	-0.151415	-0.630180
C623	C	-0.428532	-0.127560	-0.679907
C624	C	-0.445147	-0.070490	-0.720020
C625	C	-0.435961	-0.037271	-0.710406
C626	C	-0.410159	-0.061126	-0.660679
H627	H	-0.390431	-0.193664	-0.600485
H628	H	-0.435332	-0.152152	-0.687024
H629	H	-0.464247	-0.052832	-0.756831
H630	H	-0.448260	0.004978	-0.740101
H631	H	-0.403359	-0.036534	-0.653562
C632	C	-0.738793	0.733913	-0.620543
C633	C	-0.743003	0.784122	-0.631252
C634	C	-0.768870	0.835780	-0.680977
C635	C	-0.790527	0.837229	-0.719994
C636	C	-0.786317	0.787019	-0.709286
C637	C	-0.760450	0.735361	-0.659560
H638	H	-0.726971	0.783051	-0.602368
H639	H	-0.771986	0.872949	-0.688904
H640	H	-0.809675	0.875470	-0.756804
H641	H	-0.802349	0.788090	-0.738169
H642	H	-0.757334	0.698192	-0.651634
H643	H	-0.646757	0.550094	-0.443598
C644	C	-0.249661	0.244863	-0.131413
C645	C	-0.210649	0.185658	-0.109769
C646	C	-0.160920	0.161736	-0.083907
C647	C	-0.150203	0.197020	-0.079687
C648	C	-0.189216	0.256228	-0.101332
C649	C	-0.238945	0.280150	-0.127195
H650	H	-0.218581	0.159536	-0.112892
H651	H	-0.132040	0.117906	-0.067884
H652	H	-0.113391	0.179311	-0.060542
H653	H	-0.181284	0.282350	-0.098209
H654	H	-0.267825	0.323980	-0.143217
H655	H	-0.426617	-0.324814	0.023182
H656	H	-0.426615	-0.670047	0.023195
H657	H	-0.647028	0.674924	-0.568431
H658	H	-0.301770	0.550701	-0.444180
H659	H	-0.301784	-0.449335	0.023157
H660	H	-0.426308	-0.078556	-0.568458
H661	H	-0.301778	0.329728	-0.223172
H662	H	-0.647332	0.142401	-0.444230
H663	H	-0.647059	0.142138	-0.568809
H664	H	-0.426314	-0.078564	-0.223203
