data_functionalizedCrystal
_audit_creation_method	'MofGen! by Chris Wilmer'
_symmetry_space_group_name_H-M	'P1'
_symmetry_Int_Tables_number	1
_symmetry_cell_setting	triclinic
loop_
_symmetry_equiv_pos_as_xyz
  x,y,z
_cell_length_a	29.839131
_cell_length_b	17.077404
_cell_length_c	17.077396
_cell_angle_alpha	90.021457
_cell_angle_beta	89.968087
_cell_angle_gamma	89.959476
loop_
_atom_site_label
_atom_site_type_symbol
_atom_site_fract_x
_atom_site_fract_y
_atom_site_fract_z
Zn1	Zn	-0.178864	-1.199954	-0.443865
Zn2	Zn	-0.253995	-1.199818	-0.312591
Zn3	Zn	-0.178878	-1.068685	-0.312608
Zn4	Zn	-0.253967	-1.068611	-0.443810
O5	O	-0.216426	-1.134267	-0.378219
O6	O	-0.188836	-1.309782	-0.426467
O7	O	-0.244048	-1.182398	-0.202746
O8	O	-0.116009	-1.086186	-0.330050
O9	O	-0.244034	-1.309683	-0.330020
O10	O	-0.115999	-1.182628	-0.426484
O11	O	-0.188860	-1.086055	-0.202759
O12	O	-0.188833	-0.958829	-0.329997
O13	O	-0.243986	-1.086059	-0.553664
O14	O	-0.244000	-0.958774	-0.426390
O15	O	-0.188809	-1.182556	-0.553705
O16	O	-0.316858	-1.182325	-0.329967
O17	O	-0.316837	-1.085928	-0.426373
C18	C	-0.216416	-0.930319	-0.378190
C19	C	-0.216422	-0.843069	-0.378196
C20	C	-0.333149	-1.134125	-0.378180
C21	C	-0.383083	-1.134136	-0.378189
C22	C	-0.245190	-0.802071	-0.428306
C23	C	-0.245190	-0.720091	-0.428316
C24	C	-0.216424	-0.679110	-0.378211
C25	C	-0.187652	-0.720114	-0.328099
C26	C	-0.187650	-0.802093	-0.328094
C27	C	-0.187659	-0.549244	-0.328112
C28	C	-0.187662	-0.467259	-0.328116
C29	C	-0.245199	-0.467242	-0.428334
C30	C	-0.245197	-0.549221	-0.428329
C31	C	-0.216426	-0.590219	-0.378216
C32	C	-0.692724	-1.184552	-0.328093
C33	C	-0.880397	-1.184649	-0.328124
O34	O	-0.904661	-1.227402	-0.285500
N35	N	-0.903868	-1.134430	-0.378278
C36	C	-0.880417	-1.084186	-0.428431
O37	O	-0.904687	-1.041479	-0.471097
C38	C	-0.692745	-1.084094	-0.428404
C39	C	-0.669277	-1.134311	-0.378241
C40	C	-0.669256	-1.234766	-0.277935
C41	C	-0.622341	-1.234738	-0.277925
C42	C	-0.598894	-1.184497	-0.328073
C43	C	-0.622362	-1.134283	-0.378231
C44	C	-0.669295	-1.033855	-0.478561
C45	C	-0.622374	-1.033837	-0.478552
C46	C	-0.598906	-1.084055	-0.428389
C47	C	-0.551999	-1.084014	-0.428369
N48	N	-0.528528	-1.134233	-0.378215
C49	C	-0.551976	-1.184475	-0.328067
C50	C	-0.978948	-1.084237	-0.428441
C51	C	-1.025866	-1.084259	-0.428447
C52	C	-1.025843	-1.184723	-0.328140
C53	C	-0.978924	-1.184697	-0.328131
C54	C	-0.955477	-1.134457	-0.378287
C55	C	-0.453450	-1.184412	-0.328049
C56	C	-0.406530	-1.184378	-0.328041
C57	C	-0.406558	-1.083917	-0.428351
C58	C	-0.453473	-1.083948	-0.428356
C59	C	-0.476918	-1.134202	-0.378203
O60	O	-0.527707	-1.041290	-0.470976
O61	O	-0.527698	-1.227188	-0.285420
C62	C	-0.739640	-1.184580	-0.328103
C63	C	-0.763108	-1.134366	-0.378262
C64	C	-0.739661	-1.084125	-0.428410
C65	C	-0.810026	-1.134388	-0.378268
C66	C	-0.833473	-1.184630	-0.328120
C67	C	-0.810003	-1.234849	-0.277965
C68	C	-0.763087	-1.234822	-0.277955
C69	C	-0.763131	-1.033905	-0.478564
C70	C	-0.810047	-1.033937	-0.478569
C71	C	-0.833494	-1.084178	-0.428421
C72	C	-0.099248	-1.134431	-0.378275
C73	C	-0.049313	-1.134500	-0.378299
C74	C	-0.216393	-1.134314	-0.582963
C75	C	-0.216379	-1.134335	-0.670213
C76	C	-0.216434	-0.339011	-0.378239
C77	C	-0.216430	-0.426261	-0.378226
C78	C	-0.187645	-1.184582	-0.711225
C79	C	-0.187630	-1.184592	-0.793206
C80	C	-0.216351	-1.134357	-0.834172
C81	C	-0.245086	-1.084104	-0.793154
C82	C	-0.245098	-1.084091	-0.711175
C83	C	-0.245059	-1.084135	-0.964024
C84	C	-0.245047	-1.084149	-1.046009
C85	C	-0.187591	-1.184636	-1.046055
C86	C	-0.187603	-1.184624	-0.964076
C87	C	-0.216339	-1.134371	-0.923063
C88	C	-0.216427	-1.134265	-0.174271
C89	C	-0.216314	-1.134397	-0.087021
H90	H	-0.268617	-0.835432	-0.469105
C91	C	-0.276844	-0.594298	-0.483443
N92	N	-0.300680	-0.628250	-0.524956
H93	H	-0.164234	-1.225511	-0.826594
H94	H	-0.603286	-0.992926	-0.519397
C95	C	-0.953163	-1.028986	-0.483641
N96	N	-0.933743	-0.987376	-0.525225
C97	C	-0.156016	-0.422182	-0.273001
N98	N	-0.132179	-0.388230	-0.231488
C99	C	-0.695100	-0.978613	-0.533748
N100	N	-0.714535	-0.937003	-0.575319
C101	C	-0.155982	-1.239914	-1.091170
N102	N	-0.132176	-1.281550	-1.125154
C103	C	-1.051643	-1.239994	-0.272981
N104	N	-1.071079	-1.281626	-0.231442
H105	H	-0.164219	-1.225534	-0.930723
H106	H	-0.268434	-1.043242	-1.079362
H107	H	-0.164259	-1.225492	-0.677876
C108	C	-0.276708	-1.028816	-0.666062
N109	N	-0.300517	-0.987179	-0.632084
H110	H	-0.472582	-1.043059	-0.469205
H111	H	-0.164227	-0.582622	-0.287311
H112	H	-0.268451	-1.043202	-0.930635
C113	C	-0.156008	-0.675032	-0.272985
N114	N	-0.132174	-0.641077	-0.231470
C115	C	-0.953114	-1.239942	-0.272951
N116	N	-0.933675	-1.281556	-0.231388
H117	H	-0.164222	-0.835472	-0.287293
C118	C	-0.276675	-1.028837	-0.838220
N119	N	-0.300468	-0.987209	-0.872164
H120	H	-1.044970	-1.043360	-0.469287
H121	H	-0.268624	-0.433857	-0.469141
H122	H	-0.387424	-1.225271	-0.287190
C123	C	-0.737278	-1.290062	-0.222769
N124	N	-0.717842	-1.331672	-0.181199
C125	C	-0.479233	-1.239690	-0.272873
N126	N	-0.498652	-1.281320	-0.231310
H127	H	-0.603236	-1.275632	-0.237080
C128	C	-0.380756	-1.028657	-0.483514
N129	N	-0.361322	-0.987040	-0.525068
C130	C	-0.835804	-1.290114	-0.222801
N131	N	-0.855239	-1.331740	-0.181257
H132	H	-0.268617	-0.686714	-0.469120
H133	H	-0.829150	-0.993037	-0.519417
H134	H	-0.688342	-1.275683	-0.237098
H135	H	-0.744044	-0.992994	-0.519402
