data_functionalizedCrystal
_audit_creation_method	'MofGen! by Chris Wilmer'
_symmetry_space_group_name_H-M	'P1'
_symmetry_Int_Tables_number	1
_symmetry_cell_setting	triclinic
loop_
_symmetry_equiv_pos_as_xyz
  x,y,z
_cell_length_a	19.121063
_cell_length_b	21.395364
_cell_length_c	21.395355
_cell_angle_alpha	90.025298
_cell_angle_beta	92.420740
_cell_angle_gamma	87.514290
loop_
_atom_site_label
_atom_site_type_symbol
_atom_site_fract_x
_atom_site_fract_y
_atom_site_fract_z
Zn1	Zn	-0.279388	-0.947241	-0.364896
Zn2	Zn	-0.396824	-0.942680	-0.264583
Zn3	Zn	-0.279423	-0.842455	-0.260133
Zn4	Zn	-0.396840	-0.837961	-0.369323
O5	O	-0.338119	-0.892584	-0.314734
O6	O	-0.294945	-1.034315	-0.351599
O7	O	-0.381258	-0.929357	-0.176315
O8	O	-0.181131	-0.860144	-0.270315
O9	O	-0.381224	-1.030964	-0.277900
O10	O	-0.181106	-0.937130	-0.347284
O11	O	-0.295004	-0.855722	-0.173045
O12	O	-0.295019	-0.754180	-0.274607
O13	O	-0.381252	-0.852486	-0.456413
O14	O	-0.381285	-0.750879	-0.354828
O15	O	-0.294961	-0.932773	-0.453161
O16	O	-0.495112	-0.925000	-0.282192
O17	O	-0.495124	-0.848064	-0.359144
C18	C	-0.338158	-0.729795	-0.314715
C19	C	-0.338192	-0.660153	-0.314723
C20	C	-0.293341	-0.629204	-0.353163
C21	C	-0.293325	-0.563769	-0.353164
C22	C	-0.338172	-0.529285	-0.314732
C23	C	-0.383026	-0.560242	-0.276285
C24	C	-0.383036	-0.625676	-0.276280
C25	C	-0.401427	-0.423157	-0.312098
C26	C	-0.401418	-0.357724	-0.312107
C27	C	-0.338140	-0.327466	-0.314742
C28	C	-0.274869	-0.362648	-0.317382
C29	C	-0.274879	-0.428082	-0.317377
C30	C	-0.338166	-0.458333	-0.314732
C31	C	-0.293267	-0.225565	-0.353185
C32	C	-0.293250	-0.160129	-0.353181
C33	C	-0.382957	-0.156603	-0.276306
C34	C	-0.382969	-0.222038	-0.276306
C35	C	-0.338125	-0.256515	-0.314749
C36	C	-0.520603	-0.885566	-0.321645
C37	C	-0.598671	-0.882621	-0.324623
C38	C	-0.635317	-0.921326	-0.285991
C39	C	-0.708670	-0.918560	-0.288795
C40	C	-0.745375	-0.877086	-0.330229
C41	C	-0.708723	-0.838380	-0.368865
C42	C	-0.635371	-0.841149	-0.366064
C43	C	-0.966850	-0.866720	-0.340693
C44	C	-1.040207	-0.863952	-0.343490
C45	C	-1.040149	-0.944133	-0.263420
C46	C	-0.966796	-0.946897	-0.260620
C47	C	-0.930151	-0.908193	-0.299259
C48	C	-0.820353	-0.874256	-0.333095
C49	C	-0.855174	-0.911026	-0.296395
C50	C	-0.154921	-0.899647	-0.307809
C51	C	-0.076854	-0.902657	-0.304858
C52	C	-0.338104	-0.892637	-0.478156
C53	C	-0.338098	-0.892659	-0.547798
C54	C	-0.338088	-0.056009	-0.314749
C55	C	-0.338097	-0.125650	-0.314749
C56	C	-0.293165	-0.934463	-0.578818
C57	C	-0.293134	-0.934464	-0.644252
C58	C	-0.338050	-0.892666	-0.678664
C59	C	-0.382987	-0.850854	-0.647636
C60	C	-0.383011	-0.850851	-0.582202
C61	C	-0.401293	-0.885287	-0.784734
C62	C	-0.401271	-0.885294	-0.850166
C63	C	-0.337976	-0.892673	-0.880482
C64	C	-0.274702	-0.900057	-0.845358
C65	C	-0.274726	-0.900053	-0.779925
C66	C	-0.338029	-0.892665	-0.749616
C67	C	-0.293006	-0.934479	-0.982454
C68	C	-0.292975	-0.934475	-1.047889
C69	C	-0.382834	-0.850869	-1.051272
C70	C	-0.382859	-0.850870	-0.985837
C71	C	-0.337946	-0.892678	-0.951432
C72	C	-0.338082	-0.892570	-0.151945
C73	C	-0.337890	-0.892677	-0.082297
H74	H	-0.419540	-0.532161	-0.244993
N75	N	-0.431330	-0.119417	-0.234856
H76	H	-0.459747	-0.148955	-0.210505
H77	H	-0.402686	-0.093368	-0.204819
N78	N	-0.748304	-0.793645	-0.413556
H79	H	-0.778692	-0.817944	-0.443776
H80	H	-0.778745	-0.763480	-0.389184
H81	H	-0.223162	-0.906066	-0.870039
N82	N	-0.431282	-0.805790	-1.088380
H83	H	-0.459755	-0.779307	-1.058796
H84	H	-0.402689	-0.777897	-1.114429
H85	H	-0.937019	-0.835205	-0.372153
H86	H	-0.223362	-0.456724	-0.319524
H87	H	-0.419453	-0.816832	-0.960580
H88	H	-0.850246	-0.840486	-0.366829
H89	H	-0.452937	-0.329084	-0.309961
N90	N	-0.431479	-0.805768	-0.548733
H91	H	-0.402948	-0.777836	-0.520486
H92	H	-0.459922	-0.779325	-0.580493
H93	H	-0.256540	-0.968504	-0.669514
N94	N	-0.815584	-0.955756	-0.251708
H95	H	-0.828383	-0.945562	-0.207421
H96	H	-0.828300	-1.000022	-0.262016
N97	N	-0.469513	-0.877329	-0.888045
H98	H	-0.459895	-0.878455	-0.934097
H99	H	-0.500911	-0.912349	-0.877813
N100	N	-0.595849	-0.799398	-0.407730
H101	H	-0.565465	-0.771523	-0.381081
H102	H	-0.565408	-0.826038	-0.435621
N103	N	-0.244975	-0.666390	-0.394623
H104	H	-0.216559	-0.636850	-0.418974
H105	H	-0.212431	-0.694790	-0.367933
H106	H	-0.936913	-0.980668	-0.226881
N107	N	-0.244724	-0.979553	-0.541710
H108	H	-0.216253	-1.006036	-0.571295
H109	H	-0.212234	-0.955302	-0.513316
N110	N	-0.206488	-0.908019	-0.742040
H111	H	-0.166385	-0.912696	-0.771169
H112	H	-0.199986	-0.870094	-0.714627
N113	N	-0.469566	-0.877336	-0.752039
H114	H	-0.509645	-0.872669	-0.784217
H115	H	-0.476079	-0.915264	-0.725158
N116	N	-0.206617	-0.330015	-0.320217
H117	H	-0.175129	-0.342611	-0.282840
H118	H	-0.182840	-0.342354	-0.359921
H119	H	-0.256431	-0.968519	-0.954440
N120	N	-0.244495	-0.979555	-1.081350
H121	H	-0.216047	-1.006036	-1.049623
H122	H	-0.273061	-1.007449	-1.109604
H123	H	-0.452960	-0.447787	-0.309952
N124	N	-1.079794	-0.819218	-0.388185
H125	H	-1.110184	-0.843520	-0.418399
H126	H	-1.110234	-0.789053	-0.363811
N127	N	-0.244948	-0.530378	-0.394624
H128	H	-0.216541	-0.562148	-0.418976
H129	H	-0.273588	-0.502132	-0.424661
N130	N	-0.595737	-0.966063	-0.241301
H131	H	-0.565253	-0.996236	-0.265628
H132	H	-0.565392	-0.941719	-0.211088
H133	H	-0.256748	-0.253638	-0.384483
N134	N	-0.431421	-0.805769	-0.684755
H135	H	-0.463955	-0.829974	-0.713152
H136	H	-0.459845	-0.779289	-0.655135
N137	N	-0.244860	-0.126746	-0.394632
H138	H	-0.216453	-0.158518	-0.418980
H139	H	-0.273487	-0.098492	-0.424671
H140	H	-0.419494	-0.247236	-0.245007
N141	N	-1.079676	-0.985883	-0.221757
H142	H	-1.045293	-1.012578	-0.195085
H143	H	-1.110159	-0.959246	-0.193900
H144	H	-0.419560	-0.650874	-0.244977
H145	H	-0.738505	-0.950076	-0.257336
