data_functionalizedCrystal
_audit_creation_method	'MofGen! by Chris Wilmer'
_symmetry_space_group_name_H-M	'P1'
_symmetry_Int_Tables_number	1
_symmetry_cell_setting	triclinic
loop_
_symmetry_equiv_pos_as_xyz
  x,y,z
_cell_length_a	11.026607
_cell_length_b	13.101018
_cell_length_c	11.026607
_cell_angle_alpha	85.900546
_cell_angle_beta	108.586017
_cell_angle_gamma	94.101240
loop_
_atom_site_label
_atom_site_type_symbol
_atom_site_fract_x
_atom_site_fract_y
_atom_site_fract_z
O1	O	1.732216	0.085212	0.528129
O2	O	2.065550	0.418546	0.861462
O3	O	2.398883	0.751879	1.194796
O4	O	1.365636	0.085214	0.467365
O5	O	1.698970	0.418547	0.800699
O6	O	2.032303	0.751881	1.134032
O7	O	1.518544	0.085210	0.314457
O8	O	1.851878	0.418543	0.647791
O9	O	2.185211	0.751876	0.981124
O10	O	1.579308	0.085217	0.681037
O11	O	1.912642	0.418550	1.014370
O12	O	2.245975	0.751884	1.347704
O13	O	1.507560	-0.085220	0.325437
O14	O	1.840893	0.248113	0.658771
O15	O	2.174227	0.581446	0.992104
O16	O	1.354652	-0.085216	0.478345
O17	O	1.687985	0.248117	0.811678
O18	O	2.021319	0.581451	1.145012
O19	O	1.721232	-0.085218	0.539109
O20	O	2.054565	0.248116	0.872442
O21	O	2.387899	0.581449	1.205775
Zn22	Zn	1.536198	-0.112276	0.510470
Zn23	Zn	1.869531	0.221057	0.843804
Zn24	Zn	2.202865	0.554390	1.177137
Zn25	Zn	1.550670	0.112273	0.496004
Zn26	Zn	1.884004	0.445606	0.829337
Zn27	Zn	2.217337	0.778939	1.162671
O28	O	1.568324	-0.085213	0.692017
O29	O	1.901657	0.248120	1.025350
O30	O	2.234991	0.581453	1.358683
C31	C	1.312485	-0.000001	0.461645
C32	C	1.645818	0.333333	0.794979
C33	C	1.979151	0.666666	1.128312
C34	C	1.170471	-0.000000	0.428228
C35	C	1.503804	0.333333	0.761562
C36	C	1.837137	0.666667	1.094895
C37	C	1.116822	0.000002	0.520498
C38	C	1.450155	0.333336	0.853831
C39	C	1.783488	0.666669	1.187165
C40	C	0.970043	0.000003	0.485962
C41	C	1.303376	0.333336	0.819295
C42	C	1.636710	0.666670	1.152629
N43	N	1.526330	-0.265525	0.520344
N44	N	1.859663	0.067808	0.853678
N45	N	2.192997	0.401142	1.187011
C46	C	1.573964	-0.525436	0.472681
C47	C	1.907298	-0.192102	0.806015
C48	C	2.240631	0.141231	1.139348
C49	C	1.512915	-0.474561	0.533781
C50	C	1.846249	-0.141228	0.867115
C51	C	2.179582	0.192105	1.200448
C52	C	1.520381	-0.358243	0.526303
C53	C	1.853715	-0.024909	0.859636
C54	C	2.187048	0.308424	1.192970
C55	C	1.566500	-0.641765	0.480159
C56	C	1.899833	-0.308432	0.813492
C57	C	2.233166	0.024902	1.146825
C58	C	1.774384	-0.000001	0.544829
C59	C	2.107717	0.333333	0.878162
C60	C	2.441051	0.666666	1.211495
C61	C	1.916398	0.000006	0.578245
C62	C	2.249732	0.333339	0.911578
C63	C	2.583065	0.666672	1.244912
C64	C	1.501842	-0.000004	0.272288
C65	C	1.835176	0.333329	0.605621
C66	C	2.168509	0.666663	0.938954
C67	C	1.468426	-0.000000	0.130273
C68	C	1.801759	0.333333	0.463607
C69	C	2.135092	0.666666	0.796940
N70	N	1.560546	0.265521	0.486122
N71	N	1.893880	0.598855	0.819455
N72	N	2.227213	0.932188	1.152789
C73	C	1.560695	0.000001	0.076624
C74	C	1.894029	0.333334	0.409957
C75	C	2.227362	0.666667	0.743291
C76	C	1.526160	0.000005	-0.070155
C77	C	1.859493	0.333338	0.263178
C78	C	2.192827	0.666671	0.596512
C79	C	1.585026	0.000003	0.734186
C80	C	1.918359	0.333336	1.067520
C81	C	2.251693	0.666669	1.400853
C82	C	1.618443	0.000006	0.876200
C83	C	1.951776	0.333339	1.209533
C84	C	2.285110	0.666672	1.542867
H85	H	1.179554	-0.000001	0.625061
H86	H	1.512888	0.333332	0.958394
H87	H	1.846221	0.666665	1.291728
H88	H	1.723018	0.000082	-0.061077
H89	H	2.056352	0.333416	0.272256
H90	H	2.389685	0.666749	0.605589
H91	H	1.107739	0.000024	0.323664
H92	H	1.441072	0.333357	0.656997
H93	H	1.774406	0.666691	0.990331
H94	H	0.979125	0.000001	0.682816
H95	H	1.312459	0.333334	1.016149
H96	H	1.645792	0.666667	1.349482
H97	H	1.455044	-0.518365	0.591708
H98	H	1.788377	-0.185031	0.925042
H99	H	2.121710	0.148302	1.258375
H100	H	1.631834	-0.481638	0.414760
H101	H	1.965168	-0.148304	0.748094
H102	H	2.298501	0.185029	1.081427
H103	H	0.907315	0.000027	0.381391
H104	H	1.240649	0.333361	0.714724
H105	H	1.573982	0.666694	1.048057
H106	H	1.665258	-0.000006	0.139358
H107	H	1.998591	0.333327	0.472691
H108	H	2.331925	0.666661	0.806024
H109	H	1.363863	0.000007	0.067540
H110	H	1.697197	0.333340	0.400873
H111	H	2.030530	0.666674	0.734206
H112	H	1.421591	0.000012	-0.132884
H113	H	1.754924	0.333345	0.200449
H114	H	2.088257	0.666679	0.533782
