data_functionalizedCrystal
_audit_creation_method	'MofGen! by Chris Wilmer'
_symmetry_space_group_name_H-M	'P1'
_symmetry_Int_Tables_number	1
_symmetry_cell_setting	triclinic
loop_
_symmetry_equiv_pos_as_xyz
  x,y,z
_cell_length_a	21.295420
_cell_length_b	21.295417
_cell_length_c	12.759387
_cell_angle_alpha	89.961464
_cell_angle_beta	89.977051
_cell_angle_gamma	90.026289
loop_
_atom_site_label
_atom_site_type_symbol
_atom_site_fract_x
_atom_site_fract_y
_atom_site_fract_z
Zn1	Zn	0.962345	-0.250647	-0.594017
Zn2	Zn	1.462345	0.249353	-0.094017
Zn3	Zn	0.962251	-0.355930	-0.418314
Zn4	Zn	1.462251	0.144070	0.081686
Zn5	Zn	0.857071	-0.250671	-0.418346
Zn6	Zn	1.357071	0.249329	0.081654
Zn7	Zn	0.857038	-0.355874	-0.593945
Zn8	Zn	1.357038	0.144126	-0.093945
O9	O	0.909676	-0.303280	-0.506156
O10	O	1.409676	0.196720	-0.006156
O11	O	1.050422	-0.264626	-0.570726
O12	O	1.550422	0.235374	-0.070726
O13	O	0.948273	-0.342000	-0.271297
O14	O	1.448273	0.158000	0.228703
O15	O	0.871090	-0.162578	-0.441693
O16	O	1.371090	0.337422	0.058307
O17	O	1.050352	-0.341977	-0.441637
O18	O	1.550352	0.158023	0.058363
O19	O	0.948434	-0.162561	-0.570757
O20	O	1.448434	0.337439	-0.070757
O21	O	0.870998	-0.264667	-0.271321
O22	O	1.370998	0.235333	0.228679
O23	O	0.768978	-0.264613	-0.441624
O24	O	1.268978	0.235387	0.058376
O25	O	0.871033	-0.341883	-0.740976
O26	O	1.371033	0.158117	-0.240976
O27	O	0.768953	-0.341906	-0.570635
O28	O	1.268953	0.158094	-0.070635
O29	O	0.948401	-0.264572	-0.741029
O30	O	1.448401	0.235428	-0.241029
O31	O	0.948240	-0.444012	-0.441568
O32	O	1.448240	0.055988	0.058432
O33	O	0.870941	-0.443971	-0.570604
O34	O	1.370941	0.056029	-0.070604
C35	C	0.746125	-0.303256	-0.506126
C36	C	1.246125	0.196744	-0.006126
C37	C	0.676157	-0.303261	-0.506138
C38	C	1.176157	0.196739	-0.006138
C39	C	0.176734	-0.263099	-0.573497
C40	C	0.676734	0.236901	-0.073497
C41	C	0.242477	-0.263094	-0.573497
C42	C	0.742477	0.236906	-0.073497
C43	C	0.275317	-0.303300	-0.506180
C44	C	0.775317	0.196700	-0.006180
C45	C	0.242410	-0.343524	-0.438877
C46	C	0.742410	0.156476	0.061123
C47	C	0.176668	-0.343532	-0.438887
C48	C	0.676668	0.156468	0.061113
N49	N	0.378508	-0.308051	-0.414185
N50	N	0.878508	0.191949	0.085815
N51	N	0.440960	-0.308040	-0.414179
N52	N	0.940960	0.191960	0.085821
C53	C	0.473392	-0.303279	-0.506149
C54	C	0.973392	0.196721	-0.006149
N55	N	0.441013	-0.298517	-0.598127
N56	N	0.941013	0.201483	-0.098127
N57	N	0.378556	-0.298525	-0.598132
N58	N	0.878556	0.201475	-0.098132
C59	C	0.346602	-0.303296	-0.506163
C60	C	0.846602	0.196704	-0.006163
C61	C	0.577577	-0.263055	-0.573453
C62	C	1.077577	0.236945	-0.073453
C63	C	0.643321	-0.263054	-0.573454
C64	C	1.143321	0.236946	-0.073454
C65	C	0.643252	-0.343481	-0.438825
C66	C	1.143252	0.156519	0.061175
C67	C	0.577510	-0.343485	-0.438833
C68	C	1.077510	0.156515	0.061167
C69	C	0.544676	-0.303268	-0.506145
C70	C	1.044676	0.196732	-0.006145
C71	C	0.909594	-0.466832	-0.506097
C72	C	1.409594	0.033168	-0.006097
C73	C	0.909616	-0.536800	-0.506108
C74	C	1.409616	-0.036800	-0.006108
C75	C	0.949902	-0.569667	-0.438987
C76	C	1.449902	-0.069667	0.061013
C77	C	0.949931	-0.635410	-0.439011
C78	C	1.449931	-0.135410	0.060989
C79	C	0.909664	-0.668283	-0.506144
C80	C	1.409664	-0.168283	-0.006144
C81	C	0.869375	-0.635408	-0.573277
C82	C	1.369375	-0.135408	-0.073277
C83	C	0.869351	-0.569667	-0.573259
C84	C	1.369351	-0.069667	-0.073259
N85	N	0.854597	-0.771544	-0.514143
N86	N	1.354597	-0.271544	-0.014143
N87	N	0.854621	-0.833995	-0.514154
N88	N	1.354621	-0.333995	-0.014154
C89	C	0.909734	-0.866357	-0.506204
C90	C	1.409734	-0.366357	-0.006204
N91	N	0.964823	-0.833909	-0.498222
N92	N	1.464823	-0.333909	0.001778
N93	N	0.964798	-0.771452	-0.498205
N94	N	1.464798	-0.271452	0.001795
C95	C	0.909685	-0.739568	-0.506171
C96	C	1.409685	-0.239568	-0.006171
C97	C	0.950055	-0.970510	-0.439106
C98	C	1.450055	-0.470510	0.060894
C99	C	0.950086	-1.036253	-0.439137
C100	C	1.450086	-0.536253	0.060863
C101	C	0.869524	-1.036250	-0.573397
C102	C	1.369524	-0.536250	-0.073397
C103	C	0.869500	-0.970508	-0.573372
C104	C	1.369500	-0.470508	-0.073372
C105	C	0.909764	-0.937642	-0.506221
C106	C	1.409764	-0.437642	-0.006221
C107	C	1.073866	-0.303305	-0.506186
C108	C	1.573866	0.196695	-0.006186
C109	C	1.143835	-0.303316	-0.506199
C110	C	1.643835	0.196684	-0.006199
C111	C	0.909724	-0.303219	-0.780189
C112	C	1.409724	0.196781	-0.280189
C113	C	0.909744	-0.303192	-0.896966
C114	C	1.409744	0.196808	-0.396966
C115	C	0.909776	-0.139090	-0.506237
C116	C	1.409776	0.360910	-0.006237
C117	C	0.909819	-0.069122	-0.506272
C118	C	1.409819	0.430878	-0.006272
C119	C	0.990314	-0.222695	-0.897041
C120	C	1.490314	0.277305	-0.397041
C121	C	1.030607	-0.182436	-0.951939
C122	C	1.530607	0.317564	-0.451939
C123	C	1.030623	-0.182413	-1.061660
C124	C	1.530623	0.317587	-0.561660
C125	C	0.990339	-0.222652	-1.116486
C126	C	1.490339	0.277348	-0.616486
C127	C	0.950045	-0.262910	-1.061588
C128	C	1.450045	0.237090	-0.561588
C129	C	0.950035	-0.262930	-0.951864
C130	C	1.450035	0.237070	-0.451864
C131	C	0.869473	-0.343404	-1.061514
C132	C	1.369473	0.156596	-0.561514
C133	C	0.869460	-0.343431	-0.951792
C134	C	1.369460	0.156569	-0.451792
C135	C	0.829189	-0.383642	-1.116340
C136	C	1.329189	0.116358	-0.616340
C137	C	0.788898	-0.423905	-1.061442
C138	C	1.288898	0.076095	-0.561442
C139	C	0.788885	-0.423926	-0.951713
C140	C	1.288885	0.076074	-0.451713
C141	C	0.829166	-0.383689	-0.896894
C142	C	1.329166	0.116311	-0.396894
C143	C	0.909665	-0.303296	-0.233188
C144	C	1.409665	0.196704	0.266812
C145	C	0.909767	-0.303145	-0.116412
C146	C	1.409767	0.196855	0.383588
H147	H	0.550723	-0.376231	-0.384027
H148	H	1.050723	0.123769	0.115973
H149	H	0.670106	-0.230307	-0.628264
H150	H	1.170106	0.269693	-0.128264
H151	H	0.836546	-0.542906	-0.627917
H152	H	1.336546	-0.042906	-0.127917
C153	C	0.990350	-0.222625	-1.237177
C154	C	1.490350	0.277375	-0.737177
H155	H	0.960588	-0.252352	-1.261966
H156	H	1.460588	0.247648	-0.761966
H157	H	1.030967	-0.233512	-1.262011
H158	H	1.530967	0.266488	-0.762011
H159	H	0.979489	-0.181992	-1.262012
H160	H	1.479489	0.318008	-0.762012
H161	H	0.669990	-0.376222	-0.384023
H162	H	1.169990	0.123778	0.115977
H163	H	0.829162	-0.383706	-0.807553
H164	H	1.329162	0.116294	-0.307553
C165	C	0.829206	-0.383618	-1.237030
C166	C	1.329206	0.116382	-0.737030
H167	H	0.858977	-0.353884	-1.261876
H168	H	1.358977	0.146116	-0.761876
H169	H	0.788596	-0.372718	-1.261849
H170	H	1.288596	0.127282	-0.761849
H171	H	0.840069	-0.424243	-1.261825
H172	H	1.340069	0.075757	-0.761825
H173	H	0.756099	-0.456660	-1.106090
H174	H	1.256099	0.043340	-0.606090
C175	C	0.994245	-0.671574	-0.365177
C176	C	1.494245	-0.171574	0.134823
H177	H	0.988494	-0.715434	-0.374812
H178	H	1.488494	-0.215434	0.125188
H179	H	0.985049	-0.660844	-0.294570
H180	H	1.485049	-0.160844	0.205430
H181	H	1.036535	-0.660759	-0.380617
H182	H	1.536535	-0.160759	0.119383
H183	H	0.150005	-0.230354	-0.628312
H184	H	0.650005	0.269646	-0.128312
C185	C	0.825081	-0.671565	-0.647119
C186	C	1.325081	-0.171565	-0.147119
H187	H	0.830861	-0.715426	-0.637509
H188	H	1.330861	-0.215426	-0.137509
H189	H	0.834267	-0.660750	-0.717721
H190	H	1.334267	-0.160750	-0.217721
H191	H	0.782785	-0.660832	-0.631668
H192	H	1.282785	-0.160832	-0.131668
C193	C	0.825234	-1.072403	-0.647247
C194	C	1.325234	-0.572403	-0.147247
H195	H	0.831016	-1.116264	-0.637644
H196	H	1.331016	-0.616264	-0.137644
H197	H	0.834422	-1.061583	-0.717847
H198	H	1.334422	-0.561583	-0.217847
H199	H	0.782937	-1.061673	-0.631799
H200	H	1.282937	-0.561673	-0.131799
H201	H	0.982843	-0.943749	-0.384431
H202	H	1.482843	-0.443749	0.115569
H203	H	0.269269	-0.230342	-0.628298
H204	H	0.769269	0.269658	-0.128298
C205	C	0.994402	-1.072407	-0.365300
C206	C	1.494402	-0.572407	0.134700
H207	H	1.018372	-1.043415	-0.325301
H208	H	1.518372	-0.543415	0.174699
H209	H	1.021830	-1.098009	-0.405533
H210	H	1.521830	-0.598009	0.094467
H211	H	0.970339	-1.098096	-0.319495
H212	H	1.470339	-0.598096	0.180505
H213	H	0.836693	-0.943746	-0.628023
H214	H	1.336693	-0.443746	-0.128023
C215	C	0.990301	-0.222721	-0.776350
C216	C	1.490301	0.277279	-0.276350
H217	H	1.020060	-0.192990	-0.751561
H218	H	1.520060	0.307010	-0.251561
H219	H	1.001152	-0.263351	-0.751509
H220	H	1.501152	0.236649	-0.251509
H221	H	0.949682	-0.211824	-0.751521
H222	H	1.449682	0.288176	-0.251521
H223	H	0.550842	-0.230308	-0.628262
H224	H	1.050842	0.269692	-0.128262
H225	H	0.982689	-0.542909	-0.384312
H226	H	1.482689	-0.042909	0.115688
H227	H	1.063405	-0.149674	-0.907287
H228	H	1.563405	0.350326	-0.407287
C229	C	0.278531	-0.387747	-0.364828
C230	C	0.778531	0.112253	0.135172
H231	H	0.322397	-0.381978	-0.374453
H232	H	0.822397	0.118022	0.125547
H233	H	0.267749	-0.430055	-0.380076
H234	H	0.767749	0.069945	0.119924
H235	H	0.267738	-0.378484	-0.294264
H236	H	0.767738	0.121516	0.205736
H237	H	0.756066	-0.456703	-0.907022
H238	H	1.256066	0.043297	-0.407022
C239	C	0.140477	-0.387768	-0.364849
C240	C	0.640477	0.112232	0.135151
H241	H	0.169449	-0.411712	-0.324752
H242	H	0.669449	0.088288	0.175248
H243	H	0.114830	-0.415224	-0.404956
H244	H	0.614830	0.084776	0.095044
H245	H	0.114831	-0.363654	-0.319143
H246	H	0.614831	0.136346	0.180857
C247	C	1.074945	-0.138132	-1.122051
C248	C	1.574945	0.361868	-0.622051
H249	H	1.098938	-0.114173	-1.073689
H250	H	1.598938	0.385827	-0.573689
H251	H	1.050891	-0.110692	-1.164865
H252	H	1.550891	0.389308	-0.664865
H253	H	1.102362	-0.162218	-1.164844
H254	H	1.602362	0.337782	-0.664844
