data_functionalizedCrystal
_audit_creation_method	'MofGen! by Chris Wilmer'
_symmetry_space_group_name_H-M	'P1'
_symmetry_Int_Tables_number	1
_symmetry_cell_setting	triclinic
loop_
_symmetry_equiv_pos_as_xyz
  x,y,z
_cell_length_a	10.654550
_cell_length_b	10.654550
_cell_length_c	9.130313
_cell_angle_alpha	89.995631
_cell_angle_beta	89.999724
_cell_angle_gamma	84.484931
loop_
_atom_site_label
_atom_site_type_symbol
_atom_site_fract_x
_atom_site_fract_y
_atom_site_fract_z
O1	O	1.667839	0.176399	-0.121690
O2	O	1.302361	0.193205	-0.121716
O3	O	1.493503	0.002063	-0.121693
O4	O	1.476697	0.367541	-0.121713
O5	O	1.493490	0.002057	0.121906
O6	O	1.302348	0.193199	0.121882
O7	O	1.667826	0.176393	0.121909
Cu8	Cu	1.485086	0.184796	0.144138
Cu9	Cu	1.485101	0.184802	-0.143946
O10	O	1.476684	0.367535	0.121886
C11	C	1.255556	0.191968	0.000080
C12	C	1.116113	0.188276	0.000070
C13	C	1.492263	-0.044738	0.000105
C14	C	1.488571	-0.184181	0.000103
C15	C	1.036628	0.300818	0.000068
C16	C	0.905607	0.297341	0.000093
C17	C	0.933570	0.068772	0.000117
C18	C	1.064588	0.072250	0.000101
C19	C	1.601112	-0.263667	0.000111
C20	C	1.597636	-0.394688	0.000092
C21	C	1.369066	-0.366725	0.000065
C22	C	1.372544	-0.235706	0.000073
C23	C	1.714631	0.177630	0.000110
C24	C	1.854074	0.181322	0.000110
C25	C	1.477925	0.414336	0.000084
C26	C	1.481616	0.553779	0.000077
N27	N	1.485084	0.184790	0.346761
N28	N	1.485113	0.184798	-0.346568
C29	C	1.569751	0.100188	0.423423
C30	C	1.569763	0.100189	0.576760
C31	C	1.400437	0.269404	0.576759
C32	C	1.400420	0.269396	0.423425
H33	H	0.840894	0.388984	0.000095
C34	C	0.876887	-0.058847	0.000133
H35	H	0.787473	-0.044802	0.000126
H36	H	0.904108	-0.105239	0.085080
H37	H	0.904100	-0.105227	-0.084827
C38	C	1.721428	-0.482122	0.000095
H39	H	1.702745	-0.567533	0.000068
H40	H	1.768953	-0.466410	0.085049
H41	H	1.768955	-0.466378	-0.084859
C42	C	1.152028	-0.051552	0.000097
H43	H	1.102579	-0.121151	0.000096
H44	H	1.203728	-0.054946	0.085038
H45	H	1.203710	-0.054941	-0.084869
H46	H	1.695588	-0.221720	0.000132
C47	C	1.093308	0.428437	0.000044
H48	H	1.182722	0.414394	0.000021
H49	H	1.066099	0.474825	0.084991
H50	H	1.066082	0.474821	-0.084916
H51	H	1.274601	-0.408693	0.000043
C52	C	1.307294	0.362469	0.339084
H53	H	1.319404	0.350339	0.236785
H54	H	1.321662	0.446418	0.364196
H55	H	1.223356	0.348048	0.364223
H56	H	1.280893	-0.170985	0.000062
C57	C	1.662865	0.007115	0.339097
H58	H	1.713282	-0.043278	0.406721
H59	H	1.715529	0.052773	0.279263
H60	H	1.617219	-0.045594	0.279302
H61	H	1.638704	0.031297	0.639174
C62	C	1.307327	0.362474	0.661094
H63	H	1.319471	0.350373	0.763394
H64	H	1.223389	0.348058	0.635985
H65	H	1.321699	0.446424	0.635943
