data_functionalizedCrystal
_audit_creation_method	'MofGen! by Chris Wilmer'
_symmetry_space_group_name_H-M	'P1'
_symmetry_Int_Tables_number	1
_symmetry_cell_setting	triclinic
loop_
_symmetry_equiv_pos_as_xyz
  x,y,z
_cell_length_a	6.817900
_cell_length_b	17.982959
_cell_length_c	17.078481
_cell_angle_alpha	96.484289
_cell_angle_beta	99.306161
_cell_angle_gamma	102.451857
loop_
_atom_site_label
_atom_site_type_symbol
_atom_site_fract_x
_atom_site_fract_y
_atom_site_fract_z
V1	V	-3.974480	-0.105234	-0.247692
O2	O	-3.968302	0.005240	-0.242636
O3	O	-3.921245	-0.208838	-0.246326
O4	O	-3.905609	-0.103535	-0.355570
O5	O	-3.984046	-0.100792	-0.132636
V6	V	-4.461387	-0.092030	-0.233891
O7	O	-4.228316	-0.134200	-0.277967
O8	O	-4.657750	-0.063065	-0.203616
O9	O	-4.291416	0.011574	-0.235257
O10	O	-4.584963	-0.202504	-0.238947
O11	O	-4.569219	-0.096473	-0.348947
O12	O	-4.307052	-0.093729	-0.126013
C13	C	-3.765732	-0.234097	-0.242503
C14	C	-3.803356	-0.318794	-0.242105
C15	C	-3.745786	-0.099772	-0.381854
C16	C	-3.770728	-0.099068	-0.470046
C17	C	-4.002196	-0.362462	-0.245888
C18	C	-4.037538	-0.442045	-0.245519
C19	C	-3.874035	-0.477956	-0.241361
C20	C	-3.675180	-0.434282	-0.237581
C21	C	-3.639843	-0.354702	-0.237956
C22	C	-3.817687	-0.755219	-0.236070
C23	C	-3.853040	-0.834804	-0.235693
C24	C	-4.215382	-0.842561	-0.243633
C25	C	-4.180045	-0.762981	-0.244007
C26	C	-3.981196	-0.719315	-0.240231
C27	C	-3.942877	-0.633023	-0.240633
C28	C	-3.912350	-0.564246	-0.240954
C29	C	-3.963600	-0.102541	-0.515533
C30	C	-3.987024	-0.101879	-0.598399
C31	C	-3.817575	-0.097751	-0.635778
C32	C	-3.624686	-0.094275	-0.590285
C33	C	-3.601263	-0.094931	-0.507419
C34	C	-3.868202	-0.095376	-0.883173
C35	C	-3.891643	-0.094722	-0.966045
C36	C	-4.253979	-0.102325	-0.974154
C37	C	-4.230540	-0.102985	-0.891287
C38	C	-4.037652	-0.099506	-0.845801
N39	N	-3.841515	-0.097077	-0.720480
N40	N	-4.013713	-0.100174	-0.761099
C41	C	-4.110271	0.036829	-0.239078
C42	C	-4.051884	0.121525	-0.239481
C43	C	-4.130218	-0.097495	-0.099725
C44	C	-4.084515	-0.098195	-0.011532
H45	H	-4.135341	-0.333228	-0.249266
H46	H	-3.477931	-0.319149	-0.234879
N47	N	-4.146369	-0.107000	-0.475221
H48	H	-4.272105	-0.109098	-0.516614
H49	H	-4.120996	-0.059994	-0.433164
N50	N	-4.413299	-0.107433	-0.850971
H51	H	-4.520128	-0.156422	-0.875018
H52	H	-4.472856	-0.061501	-0.859323
H53	H	-4.144076	-0.104703	-0.635430
N54	N	-4.252001	-0.489146	-0.249601
H55	H	-4.350214	-0.454320	-0.252287
H56	H	-4.256955	-0.514971	-0.200187
H57	H	-3.655776	-0.719674	-0.232990
N58	N	-4.356395	-0.724249	-0.248500
H59	H	-4.487728	-0.763991	-0.250846
H60	H	-4.367198	-0.698770	-0.298265
N61	N	-4.429825	-0.889642	-0.247599
H62	H	-4.427401	-0.945501	-0.246697
H63	H	-4.520566	-0.884829	-0.298797
H64	H	-3.719887	-0.864041	-0.232312
H65	H	-3.542058	-0.463528	-0.234201
N66	N	-4.462011	-0.106075	-1.023213
H67	H	-4.451146	-0.105032	-1.081380
H68	H	-4.513474	-0.060403	-1.002645
N69	N	-3.708871	-0.090256	-1.006364
H70	H	-3.687012	-0.042373	-1.032715
H71	H	-3.734178	-0.137292	-1.048379
N72	N	-3.660164	-0.091636	-0.834132
H73	H	-3.665912	-0.139182	-0.807422
H74	H	-3.618909	-0.044266	-0.791762
N75	N	-3.441915	-0.089815	-0.630594
H76	H	-3.486017	-0.089929	-0.689992
H77	H	-3.382252	-0.135714	-0.622189
N78	N	-3.393230	-0.091187	-0.458361
H79	H	-3.398972	-0.138730	-0.431647
H80	H	-3.352009	-0.043815	-0.415993
