data_functionalizedCrystal
_audit_creation_method	'MofGen! by Chris Wilmer'
_symmetry_space_group_name_H-M	'P1'
_symmetry_Int_Tables_number	1
_symmetry_cell_setting	triclinic
loop_
_symmetry_equiv_pos_as_xyz
  x,y,z
_cell_length_a	16.625548
_cell_length_b	17.077402
_cell_length_c	17.077396
_cell_angle_alpha	90.030619
_cell_angle_beta	89.982679
_cell_angle_gamma	89.976049
loop_
_atom_site_label
_atom_site_type_symbol
_atom_site_fract_x
_atom_site_fract_y
_atom_site_fract_z
Zn1	Zn	1.232652	0.312479	-0.443837
Zn2	Zn	1.232562	0.443756	-0.312568
Zn3	Zn	1.097822	0.312511	-0.312585
Zn4	Zn	1.097784	0.443710	-0.443792
O5	O	1.165205	0.378114	-0.378196
O6	O	1.345473	0.329900	-0.426436
O7	O	1.214667	0.426379	-0.202723
O8	O	1.115761	0.202660	-0.330022
O9	O	1.345407	0.426348	-0.329993
O10	O	1.214820	0.202637	-0.426452
O11	O	1.115674	0.329953	-0.202736
O12	O	0.984984	0.329908	-0.329978
O13	O	1.115696	0.426269	-0.553645
O14	O	0.984956	0.426299	-0.426375
O15	O	1.214783	0.329855	-0.553678
O16	O	1.214630	0.553597	-0.329949
O17	O	1.115609	0.553563	-0.426358
C18	C	1.165127	0.582062	-0.378164
C19	C	1.165168	0.669312	-0.378177
C20	C	0.955714	0.378103	-0.378174
C21	C	0.866093	0.378117	-0.378183
C22	C	1.165245	0.378053	-0.582940
C23	C	1.165263	0.378027	-0.670190
C24	C	0.537917	0.378122	-0.378216
C25	C	0.629226	0.378118	-0.378205
C26	C	0.702002	0.378120	-0.378199
C27	C	0.793317	0.378115	-0.378188
C28	C	1.375514	0.378126	-0.378218
C29	C	1.465135	0.378131	-0.378228
C30	C	1.165305	0.173370	-0.378244
C31	C	1.165348	0.086120	-0.378265
C32	C	1.216781	0.710293	-0.328031
C33	C	1.216820	0.792274	-0.328051
C34	C	1.165242	0.833271	-0.378214
C35	C	1.113626	0.792283	-0.428366
C36	C	1.113592	0.710304	-0.428349
C37	C	1.113701	0.963153	-0.428395
C38	C	1.113735	1.045138	-0.428411
C39	C	1.216930	1.045123	-0.328097
C40	C	1.216895	0.963144	-0.328080
C41	C	1.165278	0.922162	-0.378232
C42	C	1.113733	0.327812	-0.711186
C43	C	1.113746	0.327795	-0.793166
C44	C	1.165294	0.377988	-0.834149
C45	C	1.216826	0.428208	-0.793148
C46	C	1.216808	0.428230	-0.711169
C47	C	1.216861	0.428159	-0.964018
C48	C	1.216880	0.428137	-1.046002
C49	C	1.113799	0.327724	-1.046015
C50	C	1.113781	0.327746	-0.964036
C51	C	1.165314	0.377965	-0.923040
C52	C	1.165211	0.378118	-0.174248
C53	C	1.165350	0.377923	-0.086998
H54	H	1.258778	0.676919	-0.287179
F55	F	1.271756	0.835886	-0.274680
F56	F	1.058871	0.274385	-0.667576
F57	F	1.271706	0.481612	-0.920389
H58	H	1.071750	1.078515	-0.469273
H59	H	1.071564	0.676938	-0.469184
F60	F	1.271789	0.919513	-0.274691
H61	H	1.258793	0.469081	-0.826522
F62	F	1.058923	0.274319	-0.920421
F63	F	1.271747	0.481555	-1.089618
F64	F	1.058737	0.835918	-0.481758
F65	F	1.058871	0.274378	-0.836794
F66	F	1.058953	0.274276	-1.089647
H67	H	1.258960	1.078494	-0.287265
H68	H	1.071672	0.929788	-0.469237
H69	H	1.258775	0.469114	-0.677791
