data_functionalizedCrystal
_audit_creation_method	'MofGen! by Chris Wilmer'
_symmetry_space_group_name_H-M	'P1'
_symmetry_Int_Tables_number	1
_symmetry_cell_setting	triclinic
loop_
_symmetry_equiv_pos_as_xyz
  x,y,z
_cell_length_a	21.295420
_cell_length_b	21.295417
_cell_length_c	12.759393
_cell_angle_alpha	89.962952
_cell_angle_beta	89.977103
_cell_angle_gamma	90.027953
loop_
_atom_site_label
_atom_site_type_symbol
_atom_site_fract_x
_atom_site_fract_y
_atom_site_fract_z
Zn1	Zn	0.962348	-0.250608	-0.594027
Zn2	Zn	1.462348	0.249392	-0.094027
Zn3	Zn	0.962255	-0.355890	-0.418327
Zn4	Zn	1.462255	0.144110	0.081673
Zn5	Zn	0.857074	-0.250636	-0.418356
Zn6	Zn	1.357074	0.249364	0.081644
Zn7	Zn	0.857042	-0.355840	-0.593958
Zn8	Zn	1.357042	0.144160	-0.093958
O9	O	0.909680	-0.303244	-0.506167
O10	O	1.409680	0.196756	-0.006167
O11	O	1.050425	-0.264583	-0.570737
O12	O	1.550425	0.235417	-0.070737
O13	O	0.948277	-0.341960	-0.271310
O14	O	1.448277	0.158040	0.228690
O15	O	0.871091	-0.162543	-0.441700
O16	O	1.371091	0.337457	0.058300
O17	O	1.050357	-0.341934	-0.441651
O18	O	1.550357	0.158066	0.058349
O19	O	0.948435	-0.162522	-0.570765
O20	O	1.448435	0.337478	-0.070765
O21	O	0.871001	-0.264630	-0.271331
O22	O	1.371001	0.235370	0.228669
O23	O	0.768981	-0.264582	-0.441634
O24	O	1.268981	0.235418	0.058366
O25	O	0.871036	-0.341848	-0.740989
O26	O	1.371036	0.158152	-0.240989
O27	O	0.768957	-0.341875	-0.570648
O28	O	1.268957	0.158125	-0.070648
O29	O	0.948404	-0.264535	-0.741039
O30	O	1.448404	0.235465	-0.241039
O31	O	0.948246	-0.443973	-0.441584
O32	O	1.448246	0.056027	0.058416
O33	O	0.870946	-0.443936	-0.570620
O34	O	1.370946	0.056064	-0.070620
C35	C	0.746128	-0.303226	-0.506137
C36	C	1.246128	0.196774	-0.006137
C37	C	0.676160	-0.303234	-0.506149
C38	C	1.176160	0.196766	-0.006149
C39	C	0.176706	-0.343564	-0.573280
C40	C	0.676706	0.156436	-0.073280
C41	C	0.242449	-0.343564	-0.573269
C42	C	0.742449	0.156436	-0.073269
C43	C	0.275321	-0.303258	-0.506200
C44	C	0.775321	0.196742	-0.006200
C45	C	0.242445	-0.262959	-0.439119
C46	C	0.742445	0.237041	0.060881
C47	C	0.176703	-0.262965	-0.439124
C48	C	0.676703	0.237035	0.060876
N49	N	0.378561	-0.248142	-0.498300
N50	N	0.878561	0.251858	0.001700
N51	N	0.441012	-0.248138	-0.498301
N52	N	0.941012	0.251862	0.001699
C53	C	0.473395	-0.303240	-0.506178
C54	C	0.973395	0.196760	-0.006178
N55	N	0.440968	-0.358346	-0.514075
N56	N	0.940968	0.141654	-0.014075
N57	N	0.378511	-0.358349	-0.514079
N58	N	0.878511	0.141651	-0.014079
C59	C	0.346606	-0.303248	-0.506186
C60	C	0.846606	0.196752	-0.006186
C61	C	0.577549	-0.343539	-0.573238
C62	C	1.077549	0.156461	-0.073238
C63	C	0.643293	-0.343541	-0.573219
C64	C	1.143293	0.156459	-0.073219
C65	C	0.643287	-0.262930	-0.439075
C66	C	1.143287	0.237070	0.060925
C67	C	0.577545	-0.262934	-0.439088
C68	C	1.077545	0.237066	0.060912
C69	C	0.544680	-0.303238	-0.506175
C70	C	1.044680	0.196762	-0.006175
C71	C	0.909599	-0.466795	-0.506114
C72	C	1.409599	0.033205	-0.006114
C73	C	0.909623	-0.536763	-0.506126
C74	C	1.409623	-0.036763	-0.006126
C75	C	0.949873	-0.569562	-0.573378
C76	C	1.449873	-0.069562	-0.073378
C77	C	0.949895	-0.635305	-0.573404
C78	C	1.449895	-0.135305	-0.073404
C79	C	0.909674	-0.668246	-0.506160
C80	C	1.409674	-0.168246	-0.006160
C81	C	0.869416	-0.635439	-0.438903
C82	C	1.369416	-0.135439	0.061097
C83	C	0.869390	-0.569698	-0.438886
C84	C	1.369390	-0.069698	0.061114
N85	N	0.904916	-0.771514	-0.414213
N86	N	1.404916	-0.271514	0.085787
N87	N	0.904944	-0.833965	-0.414231
N88	N	1.404944	-0.333965	0.085769
C89	C	0.909747	-0.866320	-0.506207
C90	C	1.409747	-0.366320	-0.006207
N91	N	0.914534	-0.833865	-0.598165
N92	N	1.414534	-0.333865	-0.098165
N93	N	0.914509	-0.771408	-0.598145
N94	N	1.414509	-0.271408	-0.098145
C95	C	0.909697	-0.739531	-0.506170
C96	C	1.409697	-0.239531	-0.006170
C97	C	0.950023	-0.970405	-0.573493
C98	C	1.450023	-0.470405	-0.073493
C99	C	0.950041	-1.036149	-0.573520
C100	C	1.450041	-0.536149	-0.073520
C101	C	0.869566	-1.036281	-0.439010
C102	C	1.369566	-0.536281	0.060990
C103	C	0.869545	-0.970539	-0.438991
C104	C	1.369545	-0.470539	0.061009
C105	C	0.909777	-0.937605	-0.506231
C106	C	1.409777	-0.437605	-0.006231
C107	C	1.073870	-0.303261	-0.506198
C108	C	1.573870	0.196739	-0.006198
C109	C	1.143838	-0.303269	-0.506211
C110	C	1.643838	0.196731	-0.006211
C111	C	0.909727	-0.303183	-0.780201
C112	C	1.409727	0.196817	-0.280201
C113	C	0.909747	-0.303157	-0.896977
C114	C	1.409747	0.196843	-0.396977
C115	C	0.909777	-0.139053	-0.506244
C116	C	1.409777	0.360947	-0.006244
C117	C	0.909819	-0.069085	-0.506276
C118	C	1.409819	0.430915	-0.006276
C119	C	0.950035	-0.262894	-0.951867
C120	C	1.450035	0.237106	-0.451867
C121	C	0.950046	-0.262867	-1.061592
C122	C	1.450046	0.237133	-0.561592
C123	C	0.869478	-0.343372	-1.061526
C124	C	1.369478	0.156628	-0.561526
C125	C	0.869465	-0.343396	-0.951804
C126	C	1.369465	0.156604	-0.451804
C127	C	0.909669	-0.303258	-0.233200
C128	C	1.409669	0.196742	0.266800
C129	C	0.909771	-0.303107	-0.116424
C130	C	1.409771	0.196893	0.383576
H131	H	0.269213	-0.230142	-0.384510
H132	H	0.769213	0.269858	0.115490
Br133	Br	1.004730	-0.208225	-1.136082
Br134	Br	1.504730	0.291775	-0.636082
H135	H	0.982666	-0.662015	-0.628181
H136	H	1.482666	-0.162015	-0.128181
H137	H	0.982834	-0.230127	-0.907231
H138	H	1.482834	0.269873	-0.407231
H139	H	0.149942	-0.230149	-0.384509
H140	H	0.649942	0.269851	0.115491
H141	H	0.550789	-0.376358	-0.627863
H142	H	1.050789	0.123642	-0.127863
Br143	Br	0.687901	-0.398239	-0.664239
Br144	Br	1.187901	0.101761	-0.164239
H145	H	0.836666	-0.662264	-0.384154
H146	H	1.336666	-0.162264	0.115846
Br147	Br	0.814814	-0.397981	-1.135940
Br148	Br	1.314814	0.102019	-0.635940
H149	H	0.670051	-0.230113	-0.384463
H150	H	1.170051	0.269887	0.115537
H151	H	0.269215	-0.376378	-0.627887
H152	H	0.769215	0.123622	-0.127887
Br153	Br	1.004470	-0.524868	-0.664638
Br154	Br	1.504470	-0.024868	-0.164638
Br155	Br	0.814759	-0.525181	-0.347612
Br156	Br	1.314759	-0.025181	0.152388
Br157	Br	0.132106	-0.398265	-0.664321
Br158	Br	0.632106	0.101735	-0.164321
Br159	Br	1.004661	-1.080663	-0.664816
Br160	Br	1.504661	-0.580663	-0.164816
Br161	Br	1.004621	-0.925704	-0.664747
Br162	Br	1.504621	-0.425704	-0.164747
Br163	Br	0.532935	-0.208240	-0.348068
Br164	Br	1.032935	0.291760	0.151932
Br165	Br	0.814975	-1.080980	-0.347753
Br166	Br	1.314975	-0.580980	0.152247
Br167	Br	0.814778	-0.398037	-0.877303
Br168	Br	1.314778	0.101963	-0.377303
H169	H	0.836772	-0.943832	-0.384224
H170	H	1.336772	-0.443832	0.115776
