data_functionalizedCrystal
_audit_creation_method	'MofGen! by Chris Wilmer'
_symmetry_space_group_name_H-M	'P1'
_symmetry_Int_Tables_number	1
_symmetry_cell_setting	triclinic
loop_
_symmetry_equiv_pos_as_xyz
  x,y,z
_cell_length_a	16.109302
_cell_length_b	16.109301
_cell_length_c	14.586319
_cell_angle_alpha	90.005214
_cell_angle_beta	89.994552
_cell_angle_gamma	96.538369
loop_
_atom_site_label
_atom_site_type_symbol
_atom_site_fract_x
_atom_site_fract_y
_atom_site_fract_z
O1	O	1.103130	-0.106869	-0.076284
O2	O	1.603130	0.393131	0.423716
O3	O	0.861069	-0.120168	-0.076278
O4	O	1.361069	0.379832	0.423722
O5	O	0.988749	0.007513	-0.076272
O6	O	1.488749	0.507513	0.423728
O7	O	0.975450	-0.234549	-0.076290
O8	O	1.475450	0.265451	0.423710
O9	O	0.988740	0.007515	0.076209
O10	O	1.488740	0.507515	0.576209
O11	O	0.861060	-0.120166	0.076203
O12	O	1.361060	0.379834	0.576203
O13	O	1.103122	-0.106867	0.076196
O14	O	1.603122	0.393133	0.576196
Cu15	Cu	0.982090	-0.113516	0.090122
Cu16	Cu	1.482090	0.386484	0.590122
Cu17	Cu	0.982100	-0.113519	-0.090204
Cu18	Cu	1.482100	0.386481	0.409796
O19	O	0.975441	-0.234547	0.076191
O20	O	1.475441	0.265453	0.576191
C21	C	0.830089	-0.119628	-0.000036
C22	C	1.330089	0.380372	0.499964
C23	C	0.737794	-0.118013	-0.000033
C24	C	1.237794	0.381987	0.499967
C25	C	0.525448	-0.114276	0.083075
C26	C	1.025448	0.385724	0.583075
C27	C	0.438728	-0.112750	0.083072
C28	C	0.938728	0.387250	0.583072
C29	C	0.438748	-0.112756	-0.083171
C30	C	0.938748	0.387244	0.416829
C31	C	0.525468	-0.114277	-0.083167
C32	C	1.025468	0.385723	0.416833
C33	C	0.568815	-0.115041	-0.000041
C34	C	1.068815	0.384959	0.499959
C35	C	0.395375	-0.111994	-0.000048
C36	C	0.895375	0.388006	0.499952
C37	C	0.301350	-0.110338	-0.000052
C38	C	0.801350	0.389662	0.499948
C39	C	0.662847	-0.116695	-0.000037
C40	C	1.162847	0.383305	0.499963
C41	C	0.988206	0.038488	-0.000031
C42	C	1.488206	0.538488	0.499969
C43	C	0.986591	0.130784	-0.000030
C44	C	1.486591	0.630784	0.499970
C45	C	1.134101	-0.107407	-0.000047
C46	C	1.634101	0.392593	0.499953
C47	C	1.226396	-0.109022	-0.000056
C48	C	1.726396	0.390978	0.499944
N49	N	0.982088	-0.113514	0.216954
N50	N	1.482088	0.386486	0.716954
C51	C	0.975984	-0.265523	-0.000052
C52	C	1.475984	0.234477	0.499948
C53	C	0.977599	-0.357819	-0.000060
C54	C	1.477599	0.142181	0.499940
C55	C	1.058599	0.353056	-0.000046
C56	C	1.558599	0.853056	0.499954
C57	C	1.057074	0.439776	-0.000054
C58	C	1.557074	0.939776	0.499946
C59	C	0.905586	0.419902	-0.000046
C60	C	1.405586	0.919902	0.499954
C61	C	0.907111	0.333184	-0.000045
C62	C	1.407111	0.833184	0.499955
C63	C	0.983620	0.299763	-0.000040
C64	C	1.483620	0.799763	0.499960
C65	C	0.980571	0.473202	-0.000049
C66	C	1.480571	0.973202	0.499951
C67	C	0.978918	0.567228	-0.000057
C68	C	1.478918	1.067228	0.499943
C69	C	0.985273	0.205731	-0.000034
C70	C	1.485273	0.705731	0.499966
N71	N	0.982108	-0.113514	-0.217035
N72	N	1.482108	0.386486	0.282965
C73	C	1.038644	-0.056996	0.451963
C74	C	1.538644	0.443004	0.951963
C75	C	1.038647	-0.056994	0.547944
C76	C	1.538647	0.443006	1.047944
C77	C	0.925546	-0.170035	0.547949
C78	C	1.425546	0.329965	1.047949
C79	C	0.925541	-0.170032	0.451969
C80	C	1.425541	0.329968	0.951969
C81	C	0.982094	-0.113514	0.403979
C82	C	1.482094	0.386486	0.903979
C83	C	0.982102	-0.113514	0.595940
C84	C	1.482102	0.386486	1.095940
C85	C	0.982105	-0.113513	0.700007
C86	C	1.482105	0.386487	1.200007
C87	C	0.982091	-0.113514	0.299905
C88	C	1.482091	0.386486	0.799905
H89	H	0.403423	-0.112127	0.150754
H90	H	0.903423	0.387873	0.650754
H91	H	0.879503	-0.216052	0.587032
H92	H	1.379503	0.283948	1.087032
H93	H	0.846050	0.289790	-0.000043
H94	H	1.346050	0.789790	0.499957
H95	H	0.560778	-0.114897	-0.150854
H96	H	1.060778	0.385103	0.349146
H97	H	1.084694	-0.010972	0.587011
H98	H	1.584694	0.489028	1.087011
H99	H	1.120897	0.325848	-0.000044
H100	H	1.620897	0.825848	0.499956
H101	H	1.118130	0.483165	-0.000060
H102	H	1.618130	0.983165	0.499940
H103	H	0.843295	0.447124	-0.000048
H104	H	1.343295	0.947124	0.499952
Cl105	Cl	1.109737	0.014058	0.391636
Cl106	Cl	1.609737	0.514058	0.891636
H107	H	0.560739	-0.114899	0.150762
H108	H	1.060739	0.385101	0.650762
Cl109	Cl	0.384251	-0.111775	-0.187666
Cl110	Cl	0.884251	0.388225	0.312334
Cl111	Cl	0.854440	-0.241084	0.391640
Cl112	Cl	1.354440	0.258916	0.891640
