data_functionalizedCrystal
_audit_creation_method	'MofGen! by Chris Wilmer'
_symmetry_space_group_name_H-M	'P1'
_symmetry_Int_Tables_number	1
_symmetry_cell_setting	triclinic
loop_
_symmetry_equiv_pos_as_xyz
  x,y,z
_cell_length_a	10.654562
_cell_length_b	10.489741
_cell_length_c	9.730223
_cell_angle_alpha	89.998920
_cell_angle_beta	89.996961
_cell_angle_gamma	84.514639
loop_
_atom_site_label
_atom_site_type_symbol
_atom_site_fract_x
_atom_site_fract_y
_atom_site_fract_z
O1	O	1.667909	0.179234	-0.114380
O2	O	1.302440	0.196286	-0.114362
O3	O	1.493490	0.002158	-0.114363
O4	O	1.476858	0.373361	-0.114379
O5	O	1.493488	0.002163	0.114217
O6	O	1.302438	0.196291	0.114218
O7	O	1.667906	0.179239	0.114200
Zn8	Zn	1.485172	0.187766	0.150501
Zn9	Zn	1.485175	0.187759	-0.150663
O10	O	1.476856	0.373366	0.114201
C11	C	1.255641	0.195033	-0.000070
C12	C	1.116197	0.191277	-0.000064
C13	C	1.050664	0.189528	0.124525
C14	C	0.919640	0.186008	0.124502
C15	C	0.919692	0.185993	-0.124708
C16	C	1.050715	0.189503	-0.124684
C17	C	1.116145	0.191301	0.249145
C18	C	1.050612	0.189553	0.373744
C19	C	0.919588	0.186034	0.373721
C20	C	0.854098	0.184263	0.249100
C21	C	1.492233	-0.045370	-0.000074
C22	C	1.488475	-0.186998	-0.000076
C23	C	1.366915	-0.255085	-0.000081
C24	C	1.424338	-0.347230	0.112618
C25	C	1.424369	-0.347210	-0.112743
C26	C	1.545948	-0.277278	0.112716
C27	C	1.545962	-0.277248	-0.112747
C28	C	1.603472	-0.369366	-0.000021
C29	C	1.714706	0.180492	-0.000095
C30	C	1.854150	0.184248	-0.000111
C31	C	1.478113	0.420895	-0.000091
C32	C	1.481872	0.562523	-0.000098
N33	N	1.485179	0.187769	0.356037
N34	N	1.485177	0.187745	-0.356199
C35	C	1.569798	0.101839	0.427963
C36	C	1.569795	0.101823	0.571846
C37	C	1.400549	0.273680	0.571865
C38	C	1.400548	0.273688	0.427985
C39	C	1.654430	0.015920	0.356016
C40	C	1.739056	-0.070016	0.427942
C41	C	1.739053	-0.070032	0.571825
C42	C	1.654423	0.015889	0.643782
H43	H	1.104072	0.190934	-0.226135
F44	F	1.829111	-0.161464	0.351359
F45	F	1.236280	-0.190132	0.000067
F46	F	1.613121	-0.237011	0.237390
H47	H	1.703508	-0.418833	0.000037
H48	H	1.597353	-0.246228	-0.208036
F49	F	1.255591	0.195054	0.249180
H50	H	1.372920	-0.378153	-0.208031
H51	H	1.654442	0.015927	0.238859
H52	H	1.807951	-0.140013	0.630385
F53	F	1.310489	0.365119	0.648450
F54	F	1.310482	0.365143	0.351435
F55	F	0.714652	0.180486	0.249082
F56	F	1.654416	0.015856	0.796917
F57	F	1.120315	0.191426	0.506367
H58	H	0.866236	0.184601	0.475175
H59	H	0.866359	0.184554	-0.226169
H60	H	1.372902	-0.378217	0.207902
