data_functionalizedCrystal
_audit_creation_method	'MofGen! by Chris Wilmer'
_symmetry_space_group_name_H-M	'P1'
_symmetry_Int_Tables_number	1
_symmetry_cell_setting	triclinic
loop_
_symmetry_equiv_pos_as_xyz
  x,y,z
_cell_length_a	14.519709
_cell_length_b	23.532357
_cell_length_c	13.596369
_cell_angle_alpha	90.011519
_cell_angle_beta	89.999709
_cell_angle_gamma	83.254219
loop_
_atom_site_label
_atom_site_type_symbol
_atom_site_fract_x
_atom_site_fract_y
_atom_site_fract_z
O1	O	1.222963	0.074656	0.081676
O2	O	0.954380	0.083447	0.081707
O3	O	1.096795	-0.003846	0.081670
O4	O	1.080549	0.161948	0.081713
O5	O	1.096781	-0.003850	-0.081912
O6	O	0.954366	0.083443	-0.081876
O7	O	1.222949	0.074651	-0.081907
Zn8	Zn	1.088655	0.079046	-0.107864
Zn9	Zn	1.088674	0.079052	0.107664
O10	O	1.080535	0.161944	-0.081870
C11	C	0.920018	0.083035	-0.000080
C12	C	0.817652	0.081807	-0.000069
C13	C	0.442811	0.077287	-0.000115
C14	C	0.547104	0.078543	-0.000102
C15	C	0.630228	0.079547	-0.000091
C16	C	0.734527	0.080803	-0.000080
C17	C	1.096382	-0.025066	-0.000124
C18	C	1.095160	-0.088290	-0.000133
C19	C	1.087497	-0.480334	0.089090
C20	C	1.086336	-0.539739	0.089096
O21	O	1.085710	-0.570456	0.164931
N22	N	1.085752	-0.569455	-0.000072
C23	C	1.086321	-0.539763	-0.089251
O24	O	1.085717	-0.570493	-0.165095
C25	C	1.087475	-0.480359	-0.089256
C26	C	1.088068	-0.450646	-0.000083
C27	C	1.088089	-0.450621	0.178256
C28	C	1.089252	-0.391221	0.178250
C29	C	1.089823	-0.361533	0.089078
C30	C	1.089232	-0.391246	-0.000089
C31	C	1.088037	-0.450667	-0.178434
C32	C	1.089191	-0.391259	-0.178431
C33	C	1.089784	-0.361546	-0.089258
C34	C	1.090966	-0.302157	-0.089267
N35	N	1.091549	-0.272441	-0.000099
C36	C	1.090978	-0.302129	0.089073
C37	C	1.083894	-0.664515	-0.089235
C38	C	1.082746	-0.723919	-0.089231
C39	C	1.082759	-0.723890	0.089116
C40	C	1.083914	-0.664486	0.089112
C41	C	1.084478	-0.634799	-0.000067
C42	C	1.093422	-0.177384	0.089053
C43	C	1.094589	-0.117978	0.089039
C44	C	1.094570	-0.118011	-0.089307
C45	C	1.093408	-0.177412	-0.089294
C46	C	1.092831	-0.207096	-0.000106
O47	O	1.091588	-0.271402	-0.165063
O48	O	1.091570	-0.271390	0.164904
C49	C	1.257311	0.075063	-0.000117
C50	C	1.359678	0.076291	-0.000122
C51	C	1.080948	0.183165	-0.000073
C52	C	1.082170	0.246389	-0.000058
N53	N	1.088650	0.079042	-0.254955
C54	C	1.088673	0.079053	-0.656246
C55	C	1.088664	0.079052	-0.544595
C56	C	1.088662	0.079048	-0.455604
C57	C	1.088652	0.079045	-0.343946
N58	N	1.088687	0.079052	0.254756
H59	H	1.092947	-0.201545	0.161679
O60	O	1.084291	-0.635641	-0.175843
C61	C	1.005718	-0.562195	-0.279337
C62	C	1.005144	-0.594856	-0.181231
H63	H	0.941745	-0.529205	-0.283716
H64	H	1.005045	-0.593612	-0.343099
H65	H	1.070837	-0.539562	-0.283794
H66	H	0.940036	-0.617491	-0.176677
H67	H	1.005866	-0.563413	-0.117515
H68	H	1.095039	-0.093829	-0.161909
O69	O	1.093016	-0.206314	-0.175893
C70	C	1.171586	-0.279790	-0.279382
C71	C	1.172160	-0.247102	-0.181280
H72	H	1.235557	-0.312783	-0.283760
H73	H	1.172263	-0.248391	-0.343148
H74	H	1.106465	-0.302422	-0.283834
H75	H	1.237270	-0.224469	-0.176732
H76	H	1.171434	-0.278528	-0.117560
O77	O	1.082332	-0.752820	-0.175825
C78	C	1.160859	-0.826306	-0.279324
C79	C	1.161469	-0.793613	-0.181231
H80	H	1.224824	-0.859302	-0.283718
H81	H	1.161522	-0.794911	-0.343099
H82	H	1.095732	-0.848934	-0.283747
H83	H	1.226584	-0.770983	-0.176712
H84	H	1.160757	-0.825034	-0.117503
O85	O	1.087416	-0.479428	-0.265147
C86	C	1.087553	-0.473163	-0.442041
C87	C	1.088240	-0.440520	-0.343904
H88	H	1.088240	-0.441722	-0.505741
H89	H	1.022445	-0.495805	-0.446556
H90	H	1.151540	-0.506141	-0.446472
H91	H	1.024298	-0.407515	-0.339407
H92	H	1.153391	-0.417918	-0.339430
O93	O	1.084440	-0.635710	0.175822
C94	C	1.084391	-0.641973	0.352717
C95	C	1.083774	-0.674627	0.254585
H96	H	1.083872	-0.673424	0.416422
H97	H	1.020367	-0.609028	0.357255
H98	H	1.149463	-0.619291	0.357116
H99	H	1.018745	-0.697343	0.250119
H100	H	1.147842	-0.707539	0.250088
H101	H	1.089732	-0.367034	0.250865
O102	O	1.089576	-0.362380	-0.265035
C103	C	1.010991	-0.288925	-0.368501
C104	C	1.010429	-0.321594	-0.270403
H105	H	0.947019	-0.255934	-0.372865
H106	H	1.010309	-0.320336	-0.432271
H107	H	1.076111	-0.266293	-0.372963
H108	H	0.945321	-0.344228	-0.265846
H109	H	1.011161	-0.290156	-0.206680
H110	H	1.087621	-0.474786	0.250875
O111	O	1.095119	-0.089201	0.175755
C112	C	1.095065	-0.095457	0.352651
C113	C	1.094444	-0.128114	0.254522
H114	H	1.094539	-0.126906	0.416359
H115	H	1.031047	-0.062508	0.357185
H116	H	1.160143	-0.072781	0.357048
H117	H	1.029409	-0.150825	0.250058
H118	H	1.158506	-0.161031	0.250028
O119	O	1.082032	-0.752746	0.175717
C120	C	1.000847	-0.813458	0.279193
C121	C	1.001542	-0.780793	0.181101
H122	H	0.935787	-0.836153	0.283569
H123	H	1.001404	-0.782041	0.342969
H124	H	1.064881	-0.846398	0.283631
H125	H	0.937519	-0.747854	0.176568
H126	H	1.001033	-0.812245	0.117372
