data_functionalizedCrystal
_audit_creation_method	'MofGen! by Chris Wilmer'
_symmetry_space_group_name_H-M	'P1'
_symmetry_Int_Tables_number	1
_symmetry_cell_setting	triclinic
loop_
_symmetry_equiv_pos_as_xyz
  x,y,z
_cell_length_a	9.065215
_cell_length_b	9.065218
_cell_length_c	8.140239
_cell_angle_alpha	90.003526
_cell_angle_beta	89.999640
_cell_angle_gamma	85.015325
loop_
_atom_site_label
_atom_site_type_symbol
_atom_site_fract_x
_atom_site_fract_y
_atom_site_fract_z
O1	O	-1.960395	-0.216340	-0.136579
O2	O	-1.627061	0.116994	0.196754
O3	O	-1.293728	0.450327	0.530088
O4	O	-1.531110	-0.234090	-0.136588
O5	O	-1.197776	0.099243	0.196746
O6	O	-0.864443	0.432576	0.530079
O7	O	-1.754625	-0.010573	-0.136580
O8	O	-1.421292	0.322761	0.196754
O9	O	-1.087959	0.656094	0.530087
O10	O	-1.736879	-0.439858	-0.136587
O11	O	-1.403546	-0.106524	0.196746
O12	O	-1.070212	0.226809	0.530080
O13	O	-1.754624	-0.010561	0.136647
O14	O	-1.421290	0.322772	0.469981
O15	O	-1.087957	0.656106	0.803314
O16	O	-1.531108	-0.234079	0.136639
O17	O	-1.197774	0.099254	0.469973
O18	O	-0.864441	0.432588	0.803306
O19	O	-1.960393	-0.216328	0.136648
O20	O	-1.627060	0.117005	0.469981
O21	O	-1.293726	0.450338	0.803315
Zn22	Zn	-1.745750	-0.225202	0.180024
Zn23	Zn	-1.412417	0.108132	0.513358
Zn24	Zn	-1.079084	0.441465	0.846691
Zn25	Zn	-1.745752	-0.225217	-0.179964
Zn26	Zn	-1.412419	0.108116	0.153369
Zn27	Zn	-1.079086	0.441450	0.486703
O28	O	-1.736877	-0.439846	0.136640
O29	O	-1.403544	-0.106513	0.469974
O30	O	-1.070211	0.226821	0.803307
C31	C	-1.476122	-0.232380	0.000025
C32	C	-1.142789	0.100954	0.333358
C33	C	-0.809455	0.434287	0.666691
C34	C	-1.312279	-0.227282	0.000021
C35	C	-0.978946	0.106052	0.333355
C36	C	-0.645612	0.439385	0.666688
N37	N	-1.745755	-0.225216	-0.425647
N38	N	-1.412421	0.108117	-0.092313
N39	N	-1.079088	0.441450	0.241020
C40	C	-1.752919	0.044420	0.000031
C41	C	-1.419586	0.377753	0.333364
C42	C	-1.086252	0.711086	0.666698
C43	C	-1.747819	0.208263	0.000023
C44	C	-1.414486	0.541596	0.333356
C45	C	-1.081153	0.874929	0.666690
C46	C	-1.015381	-0.218039	0.000031
C47	C	-0.682047	0.115295	0.333364
C48	C	-0.348714	0.448628	0.666698
C49	C	-1.179224	-0.223136	0.000021
C50	C	-0.845890	0.110197	0.333354
C51	C	-0.512557	0.443530	0.666687
C52	C	-1.738584	-0.494838	0.000026
C53	C	-1.405250	-0.161505	0.333359
C54	C	-1.071917	0.171828	0.666692
C55	C	-1.743683	-0.658681	0.000023
C56	C	-1.410350	-0.325348	0.333356
C57	C	-1.077017	0.007985	0.666690
N58	N	-1.745759	-0.225191	0.425707
N59	N	-1.412426	0.108143	0.759040
N60	N	-1.079093	0.441476	1.092374
