data_functionalizedCrystal
_audit_creation_method	'MofGen! by Chris Wilmer'
_symmetry_space_group_name_H-M	'P1'
_symmetry_Int_Tables_number	1
_symmetry_cell_setting	triclinic
loop_
_symmetry_equiv_pos_as_xyz
  x,y,z
_cell_length_a	12.594517
_cell_length_b	12.594516
_cell_length_c	12.594510
_cell_angle_alpha	89.959726
_cell_angle_beta	90.011271
_cell_angle_gamma	89.986518
loop_
_atom_site_label
_atom_site_type_symbol
_atom_site_fract_x
_atom_site_fract_y
_atom_site_fract_z
Zn1	Zn	1.627253	0.423763	0.601537
Zn2	Zn	1.627140	0.601792	0.423540
Zn3	Zn	1.449258	0.423815	0.423596
Zn4	Zn	1.449235	0.601687	0.601500
O5	O	1.538221	0.512764	0.512543
O6	O	1.776184	0.447401	0.577916
O7	O	1.603506	0.578249	0.274601
O8	O	1.472926	0.274862	0.447239
O9	O	1.776101	0.578198	0.447143
O10	O	1.603699	0.274824	0.577971
O11	O	1.472817	0.447490	0.274643
O12	O	1.300309	0.447388	0.447204
O13	O	1.472887	0.578019	0.750451
O14	O	1.300292	0.578070	0.577909
O15	O	1.603676	0.447299	0.750478
O16	O	1.603483	0.750724	0.447108
O17	O	1.472777	0.750647	0.577855
C18	C	1.261680	0.512724	0.512559
C19	C	1.143375	0.512732	0.512591
C20	C	1.074143	0.583949	0.583545
C21	C	1.003337	0.486901	0.609733
C22	C	1.003382	0.609861	0.486380
C23	C	1.074127	0.415632	0.538830
C24	C	1.074178	0.538658	0.415432
C25	C	1.003404	0.441542	0.441583
C26	C	1.538144	0.789305	0.512494
C27	C	1.538209	0.907611	0.512509
C28	C	1.609375	0.976867	0.441464
C29	C	1.635378	1.047555	0.538601
C30	C	1.512317	1.047722	0.415410
C31	C	1.564262	0.976740	0.609697
C32	C	1.441155	0.976901	0.486441
C33	C	1.467121	1.047557	0.583645
C34	C	1.815842	0.512805	0.512527
C35	C	1.934148	0.512823	0.512521
C36	C	1.538292	0.512641	0.790164
C37	C	1.538322	0.512589	0.908470
C38	C	1.538303	1.235143	0.512588
C39	C	1.538272	1.116838	0.512537
C40	C	1.538213	0.512810	0.236002
C41	C	1.538389	0.512562	0.117697
C42	C	1.609479	0.441485	0.977737
C43	C	1.512404	0.415425	1.048548
C44	C	1.635454	0.538574	1.048458
C45	C	1.441195	0.486479	0.977722
C46	C	1.564310	0.609673	0.977626
C47	C	1.467168	0.583650	1.048405
H48	H	0.972301	0.691963	0.464242
C49	C	1.690696	0.934922	0.360391
H50	H	1.759645	0.959113	0.379101
H51	H	1.672960	0.960266	0.291579
H52	H	1.689667	0.859500	0.360497
C53	C	1.116117	0.665150	0.664700
H54	H	1.091860	0.646582	0.733677
H55	H	1.090856	0.733943	0.646784
H56	H	1.191540	0.664999	0.663720
H57	H	0.972221	0.465004	0.691868
H58	H	1.490446	0.333312	1.079700
H59	H	1.406966	1.078400	0.643807
C60	C	1.116256	0.568276	0.304510
H61	H	1.092078	0.637313	0.286015
H62	H	1.090983	0.518424	0.253902
H63	H	1.191678	0.567391	0.305191
C64	C	1.482749	1.089931	0.304489
H65	H	1.419975	1.131493	0.309268
H66	H	1.470965	1.031894	0.257822
H67	H	1.539090	1.132490	0.277959
C68	C	1.690635	0.360216	0.935819
H69	H	1.672018	0.291260	0.960109
H70	H	1.759433	0.378016	0.961086
H71	H	1.690505	0.361225	0.860396
H72	H	1.359056	0.464394	0.946780
C73	C	1.330278	0.934927	0.456591
H74	H	1.311962	0.959189	0.387533
H75	H	1.279567	0.960183	0.506363
H76	H	1.330909	0.859504	0.457435
C77	C	1.594013	0.720565	0.935502
H78	H	1.663061	0.738934	0.959677
H79	H	1.544195	0.771244	0.960749
H80	H	1.593136	0.719920	0.860080
C81	C	1.385827	0.664861	1.090071
H82	H	1.316914	0.646218	1.065720
H83	H	1.403675	0.733629	1.064714
H84	H	1.386695	0.664818	1.165496
H85	H	1.105073	0.333505	0.561063
H86	H	0.972540	0.381286	0.381550
C87	C	1.594017	0.934815	0.720675
H88	H	1.606423	0.993000	0.767008
H89	H	1.656471	0.892798	0.715808
H90	H	1.537500	0.892791	0.747682
H91	H	1.717569	0.560562	1.079535
C92	C	1.746287	1.089493	0.568412
H93	H	1.796750	1.065297	0.517856
H94	H	1.765193	1.064146	0.636911
H95	H	1.745344	1.164916	0.568836
