data_functionalizedCrystal
_audit_creation_method	'MofGen! by Chris Wilmer'
_symmetry_space_group_name_H-M	'P1'
_symmetry_Int_Tables_number	1
_symmetry_cell_setting	triclinic
loop_
_symmetry_equiv_pos_as_xyz
  x,y,z
_cell_length_a	18.101398
_cell_length_b	29.839131
_cell_length_c	18.101390
_cell_angle_alpha	89.964306
_cell_angle_beta	89.977223
_cell_angle_gamma	90.036686
loop_
_atom_site_label
_atom_site_type_symbol
_atom_site_fract_x
_atom_site_fract_y
_atom_site_fract_z
Zn1	Zn	1.132057	-0.178893	-0.418824
Zn2	Zn	1.632057	0.321107	0.081176
Zn3	Zn	1.131934	-0.254029	-0.294976
Zn4	Zn	1.631934	0.245971	0.205024
Zn5	Zn	1.008219	-0.178908	-0.294985
Zn6	Zn	1.508219	0.321092	0.205015
Zn7	Zn	1.008144	-0.253991	-0.418765
Zn8	Zn	1.508144	0.246009	0.081235
O9	O	1.070088	-0.216455	-0.356888
O10	O	1.570088	0.283545	0.143112
O11	O	1.235673	-0.188870	-0.402416
O12	O	1.735673	0.311130	0.097584
O13	O	1.115502	-0.244086	-0.191344
O14	O	1.615502	0.255914	0.308656
O15	O	1.024729	-0.116038	-0.311441
O16	O	1.524729	0.383962	0.188559
O17	O	1.235583	-0.244072	-0.311426
O18	O	1.735583	0.255928	0.188574
O19	O	1.115712	-0.116028	-0.402425
O20	O	1.615712	0.383972	0.097575
O21	O	1.024610	-0.188894	-0.191351
O22	O	1.524610	0.311106	0.308649
O23	O	0.904576	-0.188857	-0.311384
O24	O	1.404576	0.311143	0.188616
O25	O	1.024601	-0.244007	-0.522406
O26	O	1.524601	0.255993	-0.022406
O27	O	0.904521	-0.244021	-0.402324
O28	O	1.404521	0.255979	0.097676
O29	O	1.115640	-0.188833	-0.522449
O30	O	1.615640	0.311167	-0.022449
O31	O	1.115430	-0.316891	-0.311369
O32	O	1.615430	0.183109	0.188631
O33	O	1.024482	-0.316863	-0.402315
O34	O	1.524482	0.183137	0.097685
C35	C	0.877678	-0.216437	-0.356849
C36	C	1.377678	0.283563	0.143151
C37	C	0.795364	-0.216440	-0.356850
C38	C	1.295364	0.283560	0.143150
C39	C	0.496273	-0.216468	-0.356912
C40	C	0.996273	0.283532	0.143088
C41	C	0.527608	-0.181587	-0.299974
C42	C	1.027608	0.318413	0.200026
C43	C	0.613226	-0.181681	-0.299731
C44	C	1.113226	0.318319	0.200269
C45	C	0.644655	-0.216454	-0.356881
C46	C	1.144655	0.283546	0.143119
C47	C	0.613524	-0.263779	-0.335553
C48	C	1.113524	0.236221	0.164447
C49	C	0.527879	-0.263585	-0.335157
C50	C	1.027879	0.236415	0.164843
C51	C	0.527889	-0.204435	-0.435313
C52	C	1.027889	0.295565	0.064687
C53	C	0.613540	-0.203381	-0.434885
C54	C	1.113540	0.296619	0.065115
C55	C	0.728515	-0.216448	-0.356865
C56	C	1.228515	0.283552	0.143135
C57	C	0.412413	-0.216476	-0.356926
C58	C	0.912413	0.283524	0.143074
C59	C	1.069955	-0.333178	-0.356851
C60	C	1.569955	0.166822	0.143149
C61	C	1.069965	-0.383112	-0.356860
C62	C	1.569965	0.116888	0.143140
C63	C	1.117531	-0.692757	-0.309601
C64	C	1.617531	-0.192757	0.190399
C65	C	1.117622	-0.880430	-0.309629
C66	C	1.617622	-0.380430	0.190371
O67	O	1.157958	-0.904697	-0.269420
O68	O	1.657958	-0.404697	0.230580
N69	N	1.070242	-0.903897	-0.356943
N70	N	1.570242	-0.403897	0.143057
C71	C	1.022839	-0.880443	-0.404257
C72	C	1.522839	-0.380443	0.095743
O73	O	0.982546	-0.904709	-0.444506
O74	O	1.482546	-0.404709	0.055494
C75	C	1.022751	-0.692771	-0.404231
C76	C	1.522751	-0.192771	0.095769
C77	C	1.070130	-0.669306	-0.356909
C78	C	1.570130	-0.169306	0.143091
C79	C	1.164906	-0.669293	-0.262283
C80	C	1.664906	-0.169293	0.237717
C81	C	1.164880	-0.622378	-0.262273
C82	C	1.664880	-0.122378	0.237727
C83	C	1.117478	-0.598927	-0.309582
C84	C	1.617478	-0.098927	0.190418
C85	C	1.070104	-0.622391	-0.356899
C86	C	1.570104	-0.122391	0.143101
C87	C	0.975353	-0.669317	-0.451548
C88	C	1.475353	-0.169317	0.048452
C89	C	0.975336	-0.622396	-0.451539
C90	C	1.475336	-0.122396	0.048461
C91	C	1.022715	-0.598932	-0.404217
C92	C	1.522715	-0.098932	0.095783
C93	C	1.022676	-0.552024	-0.404198
C94	C	1.522676	-0.052024	0.095802
N95	N	1.070057	-0.528558	-0.356884
N96	N	1.570057	-0.028558	0.143116
C97	C	1.117458	-0.552009	-0.309576
C98	C	1.617458	-0.052009	0.190424
C99	C	1.022887	-0.978973	-0.404266
C100	C	1.522887	-0.478973	0.095734
C101	C	1.022907	-1.025891	-0.404272
C102	C	1.522907	-0.525891	0.095728
C103	C	1.117692	-1.025876	-0.309645
C104	C	1.617692	-0.525876	0.190355
C105	C	1.117667	-0.978957	-0.309636
C106	C	1.617667	-0.478957	0.190364
C107	C	1.070267	-0.955507	-0.356952
C108	C	1.570267	-0.455507	0.143048
C109	C	1.117399	-0.453483	-0.309559
C110	C	1.617399	0.046517	0.190441
C111	C	1.117366	-0.406563	-0.309551
C112	C	1.617366	0.093437	0.190449
C113	C	1.022585	-0.406583	-0.404181
C114	C	1.522585	0.093417	0.095819
C115	C	1.022614	-0.453498	-0.404186
C116	C	1.522614	0.046502	0.095814
C117	C	1.070027	-0.476947	-0.356872
C118	C	1.570027	0.023053	0.143128
O119	O	0.982367	-0.527729	-0.444393
O120	O	1.482367	-0.027729	0.055607
O121	O	1.157756	-0.527734	-0.269344
O122	O	1.657756	-0.027734	0.230656
C123	C	1.117557	-0.739673	-0.309610
C124	C	1.617557	-0.239673	0.190390
C125	C	1.070182	-0.763137	-0.356928
C126	C	1.570182	-0.263137	0.143072
C127	C	1.022781	-0.739686	-0.404237
C128	C	1.522781	-0.239686	0.095763
C129	C	1.070203	-0.810055	-0.356934
C130	C	1.570203	-0.310055	0.143066
C131	C	1.117604	-0.833506	-0.309625
C132	C	1.617604	-0.333506	0.190375
C133	C	1.164984	-0.810039	-0.262311
C134	C	1.664984	-0.310039	0.237689
C135	C	1.164958	-0.763124	-0.262302
C136	C	1.664958	-0.263124	0.237698
C137	C	0.975401	-0.763153	-0.451550
C138	C	1.475401	-0.263153	0.048450
C139	C	0.975430	-0.810068	-0.451556
C140	C	1.475430	-0.310068	0.048444
C141	C	1.022831	-0.833519	-0.404247
C142	C	1.522831	-0.333519	0.095753
C143	C	1.263250	-0.216474	-0.356927
C144	C	1.763250	0.283526	0.143073
C145	C	1.345564	-0.216482	-0.356943
C146	C	1.845564	0.283518	0.143057
C147	C	1.070126	-0.216414	-0.550050
C148	C	1.570126	0.283586	-0.050050
C149	C	1.070142	-0.216397	-0.632364
C150	C	1.570142	0.283603	-0.132364
C151	C	1.070243	-0.099277	-0.356941
C152	C	1.570243	0.400723	0.143059
C153	C	1.070308	-0.049342	-0.356963
C154	C	1.570308	0.450658	0.143037
C155	C	1.070168	-0.216383	-0.783072
C156	C	1.570168	0.283617	-0.283072
C157	C	1.127449	-0.181666	-0.814453
C158	C	1.627449	0.318334	-0.314453
C159	C	1.127688	-0.181760	-0.900072
C160	C	1.627688	0.318240	-0.400072
C161	C	1.070194	-0.216368	-0.931455
C162	C	1.570194	0.283632	-0.431455
C163	C	1.091056	-0.263754	-0.900342
C164	C	1.591056	0.236246	-0.400342
C165	C	1.091457	-0.263562	-0.814697
C166	C	1.591457	0.236438	-0.314697
C167	C	0.991887	-0.204125	-0.814623
C168	C	1.491887	0.295875	-0.314623
C169	C	0.992322	-0.203072	-0.900275
C170	C	1.492322	0.296928	-0.400275
C171	C	1.070208	-0.216363	-1.015314
C172	C	1.570208	0.283637	-0.515314
C173	C	1.070157	-0.216391	-0.699213
C174	C	1.570157	0.283609	-0.199213
C175	C	1.070093	-0.216463	-0.164477
C176	C	1.570093	0.283537	0.335523
C177	C	1.070221	-0.216354	-0.082163
C178	C	1.570221	0.283646	0.417837
H179	H	0.633894	-0.168555	-0.450967
H180	H	1.133894	0.331445	0.049033
N181	N	1.038584	-0.299007	-0.787189
N182	N	1.538584	0.200993	-0.287189
H183	H	1.066364	-0.321578	-0.756260
H184	H	1.566364	0.178422	-0.256260
H185	H	0.998863	-0.284467	-0.756211
H186	H	1.498863	0.215533	-0.256211
H187	H	0.507623	-0.229841	-0.477737
H188	H	1.007623	0.270159	0.022263
N189	N	0.966638	-0.159138	-0.786038
N190	N	1.466638	0.340862	-0.286038
H191	H	1.003012	-0.135259	-0.801655
H192	H	1.503012	0.364741	-0.301655
H193	H	0.916300	-0.151976	-0.806977
H194	H	1.416300	0.348024	-0.306977
N195	N	0.971750	-0.953687	-0.455298
N196	N	1.471750	-0.453687	0.044702
H197	H	0.937440	-0.934253	-0.425164
H198	H	1.437440	-0.434253	0.074836
H199	H	1.001859	-0.934215	-0.489643
H200	H	1.501859	-0.434215	0.010357
N201	N	0.971482	-0.156880	-0.927221
N202	N	1.471482	0.343120	-0.427221
H203	H	0.924241	-0.158693	-0.956743
H204	H	1.424241	0.341307	-0.456743
H205	H	0.963979	-0.136403	-0.883455
H206	H	1.463979	0.363597	-0.383455
H207	H	0.506058	-0.189452	-0.242218
H208	H	1.006058	0.310548	0.257782
H209	H	0.947393	-0.226498	-0.921634
H210	H	1.447393	0.273502	-0.421634
H211	H	1.185702	-0.189882	-0.920573
H212	H	1.685702	0.310118	-0.420573
N213	N	0.640475	-0.299138	-0.388751
N214	N	1.140475	0.200862	0.111249
H215	H	0.596764	-0.313735	-0.413716
H216	H	1.096764	0.186265	0.086284
H217	H	0.673221	-0.284759	-0.427248
H218	H	1.173221	0.215241	0.072752
N219	N	0.971793	-1.051193	-0.455303
N220	N	1.471793	-0.551193	0.044697
H221	H	0.983260	-1.042996	-0.508226
H222	H	1.483260	-0.542996	-0.008226
H223	H	0.979014	-1.084467	-0.448072
H224	H	1.479014	-0.584467	0.051928
N225	N	1.216116	-0.835335	-0.211287
N226	N	1.716116	-0.335335	0.288713
H227	H	1.204646	-0.827203	-0.158358
H228	H	1.704646	-0.327203	0.341642
H229	H	1.208917	-0.868609	-0.218539
H230	H	1.708917	-0.368609	0.281461
H231	H	1.185126	-0.189694	-0.792944
H232	H	1.685126	0.310306	-0.292944
H233	H	0.507048	-0.146386	-0.313196
H234	H	1.007048	0.353614	0.186804
H235	H	0.634937	-0.226935	-0.479582
H236	H	1.134937	0.273065	0.020418
N237	N	1.168471	-0.381255	-0.258511
N238	N	1.668471	0.118745	0.241489
H239	H	1.198505	-0.403234	-0.228547
H240	H	1.698505	0.096766	0.271453
H241	H	1.202713	-0.361756	-0.288689
H242	H	1.702713	0.138244	0.211311
N243	N	1.168777	-0.953654	-0.258601
N244	N	1.668777	-0.453654	0.241399
H245	H	1.203071	-0.934158	-0.288730
H246	H	1.703071	-0.434158	0.211270
H247	H	1.138647	-0.934244	-0.224255
H248	H	1.638647	-0.434244	0.275745
H249	H	1.050620	-0.290324	-0.920666
H250	H	1.550620	0.209676	-0.420666
H251	H	1.203509	-0.688382	-0.223758
H252	H	1.703509	-0.188382	0.276242
H253	H	0.936769	-0.688414	-0.490080
H254	H	1.436769	-0.188414	0.009920
H255	H	0.633679	-0.189636	-0.241637
H256	H	1.133679	0.310364	0.258363
H257	H	1.156009	-0.472569	-0.271034
H258	H	1.656009	0.027431	0.228966
H259	H	0.983989	-0.387482	-0.442696
H260	H	1.483989	0.112518	0.057304
H261	H	0.634937	-0.274160	-0.278857
H262	H	1.134937	0.225840	0.221143
N263	N	0.499352	-0.159517	-0.461019
N264	N	0.999352	0.340483	0.038981
H265	H	0.443656	-0.160452	-0.463979
H266	H	0.943656	0.339548	0.036021
H267	H	0.515001	-0.135561	-0.424864
H268	H	1.015001	0.364439	0.075136
H269	H	0.949213	-0.229409	-0.794325
H270	H	1.449213	0.270591	-0.294325
H271	H	1.148671	-0.273930	-0.794732
H272	H	1.648671	0.226070	-0.294732
H273	H	0.634277	-0.146587	-0.313101
H274	H	1.134277	0.353413	0.186899
N275	N	1.168816	-1.051177	-0.258620
N276	N	1.668816	-0.551177	0.241380
H277	H	1.203118	-1.070611	-0.288762
H278	H	1.703118	-0.570611	0.211238
H279	H	1.198785	-1.029170	-0.228652
H280	H	1.698785	-0.529170	0.271348
N281	N	0.501361	-0.277101	-0.259240
N282	N	1.001361	0.222899	0.240760
H283	H	0.545307	-0.283128	-0.226346
H284	H	1.045307	0.216872	0.273654
H285	H	0.470740	-0.252102	-0.237447
H286	H	0.970740	0.247898	0.262553
H287	H	1.114656	-0.146629	-0.921110
H288	H	1.614656	0.353371	-0.421110
N289	N	0.500402	-0.299175	-0.387685
N290	N	1.000402	0.200825	0.112315
H291	H	0.519086	-0.292580	-0.439141
H292	H	1.019086	0.207420	0.060859
H293	H	0.519112	-0.329453	-0.371209
H294	H	1.019112	0.170547	0.128791
H295	H	0.936738	-0.603305	-0.490072
H296	H	1.436738	-0.103305	0.009928
N297	N	1.215991	-0.597073	-0.211244
N298	N	1.715991	-0.097073	0.288756
H299	H	1.246024	-0.619054	-0.181284
H300	H	1.746024	-0.119054	0.318716
H301	H	1.250235	-0.577578	-0.241429
H302	H	1.750235	-0.077578	0.258571
H303	H	0.984037	-0.472604	-0.442722
H304	H	1.484037	0.027396	0.057278
N305	N	0.924319	-0.835374	-0.502593
N306	N	1.424319	-0.335374	-0.002593
H307	H	0.894290	-0.813394	-0.532558
H308	H	1.394290	-0.313394	-0.032558
H309	H	0.954452	-0.854806	-0.536901
H310	H	1.454452	-0.354806	-0.036901
H311	H	1.203538	-0.744023	-0.223768
H312	H	1.703538	-0.244023	0.276232
H313	H	0.936802	-0.744062	-0.490076
H314	H	1.436802	-0.244062	0.009924
N315	N	1.110407	-0.134987	-0.787202
N316	N	1.610407	0.365013	-0.287202
H317	H	1.065391	-0.135890	-0.754248
H318	H	1.565391	0.364110	-0.254248
H319	H	1.153974	-0.123120	-0.758363
H320	H	1.653974	0.376880	-0.258363
N321	N	1.166012	-0.277728	-0.928773
N322	N	1.666012	0.222272	-0.428773
H323	H	1.186563	-0.253436	-0.961798
H324	H	1.686563	0.246564	-0.461798
H325	H	1.200506	-0.282658	-0.885691
H326	H	1.700506	0.217342	-0.385691
