data_functionalizedCrystal
_audit_creation_method	'MofGen! by Chris Wilmer'
_symmetry_space_group_name_H-M	'P1'
_symmetry_Int_Tables_number	1
_symmetry_cell_setting	triclinic
loop_
_symmetry_equiv_pos_as_xyz
  x,y,z
_cell_length_a	10.723024
_cell_length_b	10.723024
_cell_length_c	9.198806
_cell_angle_alpha	89.997988
_cell_angle_beta	89.996352
_cell_angle_gamma	84.467869
loop_
_atom_site_label
_atom_site_type_symbol
_atom_site_fract_x
_atom_site_fract_y
_atom_site_fract_z
O1	O	1.657188	0.175024	-0.120879
O2	O	1.294035	0.191778	-0.120884
O3	O	1.483988	0.001825	-0.120876
O4	O	1.467235	0.364977	-0.120887
O5	O	1.483973	0.001824	0.120909
O6	O	1.294020	0.191777	0.120901
O7	O	1.657173	0.175024	0.120906
Cu8	Cu	1.475595	0.183401	0.142981
Cu9	Cu	1.475613	0.183401	-0.142958
O10	O	1.467220	0.364977	0.120898
C11	C	1.247528	0.190558	0.000008
C12	C	1.108974	0.186911	0.000007
C13	C	1.033991	0.293198	0.000002
C14	C	0.890788	0.289431	0.000001
C15	C	1.482762	-0.044675	0.000015
C16	C	1.479114	-0.183229	0.000010
C17	C	1.585401	-0.258212	0.000009
C18	C	1.581634	-0.401415	0.000004
C19	C	1.703680	0.176243	0.000011
C20	C	1.842234	0.179891	0.000003
C21	C	1.468447	0.411477	0.000004
C22	C	1.472094	0.550031	-0.000000
N23	N	1.475592	0.183399	0.344095
N24	N	1.475626	0.183393	-0.344072
C25	C	1.555347	0.103292	0.416295
C26	C	1.555367	0.103288	0.583707
H27	H	0.906659	0.088896	-0.000003
H28	H	1.407345	0.251984	0.593848
C29	C	1.254939	-0.142959	-0.000004
C30	C	1.352497	-0.239672	-0.000001
H31	H	1.176771	-0.177805	-0.000021
H32	H	1.260925	-0.092757	0.084312
H33	H	1.260951	-0.092738	-0.084321
H34	H	1.346492	-0.289888	0.084322
H35	H	1.346508	-0.289895	-0.084325
H36	H	1.407319	0.251975	0.406220
H37	H	1.067152	0.093125	-0.000028
C38	C	1.770571	0.031470	0.369186
C39	C	1.647542	0.010704	0.332484
H40	H	1.827495	-0.025699	0.317464
H41	H	1.785027	0.114828	0.344286
H42	H	1.782630	0.019341	0.470700
H43	H	1.635480	0.022842	0.230971
H44	H	1.633080	-0.072674	0.357374
C45	C	1.221373	0.399038	0.000005
C46	C	1.090436	0.419814	0.000002
H47	H	1.256214	0.477209	-0.000003
H48	H	1.248347	0.352919	0.084317
H49	H	1.248358	0.352912	-0.084315
H50	H	1.063450	0.465932	0.084328
H51	H	1.063451	0.465953	-0.084319
C52	C	1.720824	-0.127728	-0.124276
C53	C	1.712014	-0.201761	0.000013
H54	H	1.798988	-0.092875	-0.124267
H55	H	1.714847	-0.177951	-0.208576
H56	H	1.654618	-0.062137	-0.124261
H57	H	1.778214	-0.267358	-0.000008
H58	H	1.718003	-0.151536	0.084335
H59	H	0.826355	0.380421	-0.000009
H60	H	1.672624	-0.465848	0.000010
C61	C	1.626184	-0.112184	0.630833
C62	C	1.647548	0.010693	0.667513
H63	H	1.683100	-0.169348	0.682569
H64	H	1.542717	-0.126228	0.655732
H65	H	1.638268	-0.124313	0.529322
H66	H	1.635455	0.022825	0.769023
H67	H	1.731035	0.024743	0.642624
H68	H	1.381099	-0.385544	0.000010
