data_functionalizedCrystal
_audit_creation_method	'MofGen! by Chris Wilmer'
_symmetry_space_group_name_H-M	'P1'
_symmetry_Int_Tables_number	1
_symmetry_cell_setting	triclinic
loop_
_symmetry_equiv_pos_as_xyz
  x,y,z
_cell_length_a	16.974800
_cell_length_b	14.519731
_cell_length_c	13.596369
_cell_angle_alpha	89.993185
_cell_angle_beta	93.650975
_cell_angle_gamma	83.539176
loop_
_atom_site_label
_atom_site_type_symbol
_atom_site_fract_x
_atom_site_fract_y
_atom_site_fract_z
O1	O	1.049322	0.117474	0.001762
O2	O	1.549322	0.617474	0.501762
O3	O	0.819138	0.132460	-0.016569
O4	O	1.319138	0.632460	0.483431
O5	O	0.940324	-0.009290	-0.006909
O6	O	1.440324	0.490710	0.493091
O7	O	0.928136	0.259224	-0.007898
O8	O	1.428136	0.759224	0.492102
O9	O	0.940311	-0.009297	0.156673
O10	O	1.440311	0.490703	0.656673
O11	O	0.819125	0.132453	0.147013
O12	O	1.319125	0.632453	0.647013
O13	O	1.049309	0.117467	0.165344
O14	O	1.549309	0.617467	0.665344
Zn15	Zn	0.934215	0.124959	0.182151
Zn16	Zn	1.434215	0.624959	0.682151
Zn17	Zn	0.934232	0.124968	-0.033376
Zn18	Zn	1.434232	0.624968	0.466624
O19	O	0.928122	0.259217	0.155684
O20	O	1.428122	0.759217	0.655684
C21	C	0.789672	0.131889	0.062876
C22	C	1.289672	0.631889	0.562876
C23	C	0.701893	0.130187	0.055886
C24	C	1.201893	0.630187	0.555886
C25	C	0.660651	0.129381	0.141772
C26	C	1.160651	0.629381	0.641772
C27	C	0.578175	0.127767	0.135207
C28	C	1.078175	0.627767	0.635207
C29	C	0.536941	0.126965	0.042754
C30	C	1.036941	0.626965	0.542754
C31	C	0.578188	0.127768	-0.043139
C32	C	1.078188	0.627768	0.456861
C33	C	0.660664	0.129376	-0.036573
C34	C	1.160664	0.629376	0.463427
C35	C	0.290277	0.122151	0.013554
C36	C	0.790277	0.622151	0.513554
C37	C	0.207795	0.120546	0.006994
C38	C	0.707795	0.620546	0.506994
C39	C	0.207788	0.120543	0.185341
C40	C	0.707788	0.620543	0.685341
C41	C	0.290264	0.122157	0.191899
C42	C	0.790264	0.622157	0.691899
C43	C	0.331505	0.122955	0.106006
C44	C	0.831505	0.622955	0.606006
N45	N	0.452637	0.125318	0.036041
N46	N	0.952637	0.625318	0.536041
N47	N	0.415809	0.124595	0.112720
N48	N	0.915809	0.624595	0.612720
C49	C	0.939746	-0.043651	0.074837
C50	C	1.439746	0.456349	0.574837
C51	C	0.938035	-0.146026	0.074701
C52	C	1.438035	0.353974	0.574701
C53	C	0.936645	-0.229165	0.074588
C54	C	1.436645	0.270835	0.574588
C55	C	0.934907	-0.333468	0.074442
C56	C	1.434907	0.166532	0.574442
C57	C	0.933528	-0.416603	0.074326
C58	C	1.433528	0.083397	0.574326
C59	C	0.931791	-0.520913	0.074182
C60	C	1.431791	-0.020913	0.574182
C61	C	1.078775	0.118038	0.085897
C62	C	1.578775	0.618038	0.585897
C63	C	1.166554	0.119740	0.092881
C64	C	1.666554	0.619740	0.592881
C65	C	0.928700	0.293578	0.073936
C66	C	1.428700	0.793578	0.573936
C67	C	0.930412	0.395953	0.074066
C68	C	1.430412	0.895953	0.574066
N69	N	0.934208	0.124952	0.329242
N70	N	1.434208	0.624952	0.829242
C71	C	0.934225	0.124972	0.730534
C72	C	1.434225	0.624972	1.230534
C73	C	0.934218	0.124970	0.618882
C74	C	1.434218	0.624970	1.118882
C75	C	0.934217	0.124963	0.529892
C76	C	1.434217	0.624963	1.029892
C77	C	0.934209	0.124959	0.418233
C78	C	1.434209	0.624959	0.918233
N79	N	0.934237	0.124971	0.819533
N80	N	1.434237	0.624971	1.319533
H81	H	0.544602	0.127095	0.205145
H82	H	1.044602	0.627095	0.705145
H83	H	0.323832	0.122805	0.267184
H84	H	0.823832	0.622805	0.767184
O85	O	0.334753	0.123022	-0.079083
O86	O	0.834753	0.623022	0.420917
H87	H	0.292221	0.122206	-0.144471
H88	H	0.792221	0.622206	0.355529
O89	O	0.163258	0.120150	0.277975
O90	O	0.663258	0.620150	0.777975
H91	H	0.098962	0.119064	0.257880
H92	H	0.598962	0.619064	0.757880
O93	O	0.533720	0.126907	-0.142860
O94	O	1.033720	0.626907	0.357140
H95	H	0.469439	0.125665	-0.132999
H96	H	0.969439	0.625665	0.367001
O97	O	0.163323	0.119675	-0.092731
O98	O	0.663323	0.619675	0.407269
H99	H	0.118796	0.181775	-0.100551
H100	H	0.618796	0.681775	0.399449
O101	O	0.705156	0.130243	-0.129203
O102	O	1.205156	0.630243	0.370797
H103	H	0.682382	0.192764	-0.173782
H104	H	1.182382	0.692764	0.326218
H105	H	0.694218	0.130041	0.217057
H106	H	1.194218	0.630041	0.717057
