data_functionalizedCrystal
_audit_creation_method	'MofGen! by Chris Wilmer'
_symmetry_space_group_name_H-M	'P1'
_symmetry_Int_Tables_number	1
_symmetry_cell_setting	triclinic
loop_
_symmetry_equiv_pos_as_xyz
  x,y,z
_cell_length_a	15.944551
_cell_length_b	8.559649
_cell_length_c	7.088929
_cell_angle_alpha	84.674985
_cell_angle_beta	83.774879
_cell_angle_gamma	103.361299
loop_
_atom_site_label
_atom_site_type_symbol
_atom_site_fract_x
_atom_site_fract_y
_atom_site_fract_z
O1	O	-0.018804	-2.103727	-0.158956
O2	O	0.024575	-1.638526	-0.158968
O3	O	-0.120210	-1.883832	-0.158944
O4	O	0.125981	-1.858421	-0.158979
O5	O	-0.139599	-1.916614	0.159034
O6	O	0.005187	-1.671309	0.159010
O7	O	-0.038193	-2.136509	0.159023
Cu8	Cu	-0.018273	-1.906902	0.188050
Cu9	Cu	0.004656	-1.868133	-0.187996
O10	O	0.106593	-1.891203	0.158999
C11	C	0.018169	-1.595388	0.000020
C12	C	0.027954	-1.418008	0.000015
C13	C	-0.161130	-1.899168	0.000045
C14	C	-0.254172	-1.896006	0.000046
C15	C	-0.031786	-2.179647	0.000031
C16	C	-0.041571	-2.357025	0.000022
C17	C	-0.458727	-1.736394	0.000015
C18	C	-0.534087	-1.826675	0.156800
C19	C	-0.424528	-1.890284	0.000031
C20	C	-0.514957	-1.794391	-0.156702
C21	C	-0.589082	-1.884745	0.000009
C22	C	-0.498671	-1.980621	0.156945
C23	C	-0.479525	-1.948300	-0.156697
C24	C	-0.554877	-2.038697	0.000126
C25	C	-0.329732	-1.893471	0.000046
C26	C	-0.683878	-1.881571	0.000008
C27	C	0.147513	-1.875866	0.000005
C28	C	0.240556	-1.879027	-0.000008
N29	N	-0.034401	-1.934182	0.452541
N30	N	0.020776	-1.840866	-0.452487
H31	H	-0.417185	-1.608676	0.000169
H32	H	-0.108579	-1.440515	0.000023
C33	C	-0.111650	-2.064849	0.562841
H34	H	-0.144520	-2.120448	0.474694
H35	H	-0.147598	-2.015276	0.640951
H36	H	-0.090483	-2.139457	0.640905
H37	H	-0.522750	-1.715616	-0.289260
C38	C	0.118488	-1.305226	-0.000010
H39	H	0.160792	-1.367269	-0.000028
H40	H	0.118506	-1.250845	0.110867
H41	H	0.132023	-1.227999	-0.110919
C42	C	-0.566500	-1.757213	0.335851
H43	H	-0.533058	-1.649809	0.335660
H44	H	-0.560467	-1.822324	0.447184
H45	H	-0.625973	-1.756619	0.335141
C46	C	-0.488271	-2.086944	0.336214
H47	H	-0.428805	-2.088251	0.335163
H48	H	-0.522138	-2.194051	0.336679
H49	H	-0.507440	-2.044092	0.447406
H50	H	0.077957	-1.744154	0.465858
H51	H	-0.455510	-1.999667	-0.289250
C52	C	-0.610834	-2.211407	0.000247
H53	H	-0.605629	-2.277299	0.111719
H54	H	-0.591438	-2.255104	-0.110065
H55	H	-0.669967	-2.208364	-0.000793
