data_functionalizedCrystal
_audit_creation_method	'MofGen! by Chris Wilmer'
_symmetry_space_group_name_H-M	'P1'
_symmetry_Int_Tables_number	1
_symmetry_cell_setting	triclinic
loop_
_symmetry_equiv_pos_as_xyz
  x,y,z
_cell_length_a	16.120530
_cell_length_b	21.395343
_cell_length_c	21.395362
_cell_angle_alpha	89.884484
_cell_angle_beta	87.123863
_cell_angle_gamma	87.018714
loop_
_atom_site_label
_atom_site_type_symbol
_atom_site_fract_x
_atom_site_fract_y
_atom_site_fract_z
Zn1	Zn	1.275077	-0.402799	-0.297487
Zn2	Zn	1.274818	-0.298014	-0.402416
Zn3	Zn	1.135506	-0.292723	-0.292348
Zn4	Zn	1.135606	-0.397455	-0.396916
O5	O	1.205252	-0.347748	-0.347292
O6	O	1.391714	-0.393349	-0.315858
O7	O	1.256188	-0.209628	-0.387967
O8	O	1.154087	-0.307347	-0.205355
O9	O	1.391524	-0.316364	-0.392949
O10	O	1.256629	-0.388220	-0.209130
O11	O	1.153836	-0.205741	-0.307100
O12	O	1.018848	-0.302166	-0.301767
O13	O	1.154257	-0.485848	-0.383575
O14	O	1.018921	-0.379112	-0.378593
O15	O	1.256726	-0.489774	-0.310525
O16	O	1.256284	-0.311182	-0.489362
O17	O	1.154006	-0.384242	-0.485321
C18	C	0.988633	-0.339485	-0.339026
C19	C	0.895962	-0.335966	-0.335505
C20	C	1.205021	-0.184951	-0.347529
C21	C	1.205063	-0.115311	-0.347479
C22	C	1.205150	-0.347721	-0.510076
C23	C	1.205183	-0.347733	-0.579718
C24	C	0.726293	-0.329545	-0.329062
C25	C	0.685051	-0.365997	-0.365567
C26	C	0.590641	-0.362424	-0.361983
C27	C	0.820711	-0.333116	-0.332646
C28	C	1.422716	-0.356043	-0.355590
C29	C	1.515387	-0.359578	-0.359126
C30	C	1.151739	0.388480	-0.305306
C31	C	1.151689	0.323046	-0.305353
C32	C	1.205341	0.288316	-0.347200
C33	C	1.259033	0.319025	-0.389014
C34	C	1.259075	0.384457	-0.388970
C35	C	1.280432	0.181696	-0.354674
C36	C	1.280391	0.116265	-0.354714
C37	C	1.205209	0.086500	-0.347338
C38	C	1.130066	0.122175	-0.339910
C39	C	1.130109	0.187607	-0.339866
C40	C	1.205301	0.217365	-0.347252
C41	C	1.151463	-0.015151	-0.305580
C42	C	1.151411	-0.080585	-0.305631
C43	C	1.258763	-0.084606	-0.389289
C44	C	1.258807	-0.019173	-0.389241
C45	C	1.205158	0.015551	-0.347383
C46	C	1.205475	0.488820	-0.347066
C47	C	1.205427	0.419181	-0.347112
C48	C	1.258749	-0.389943	-1.083433
C49	C	1.258725	-0.389932	-1.017997
C50	C	1.205365	-0.347791	-0.983363
C51	C	1.152041	-0.305648	-1.014172
C52	C	1.152073	-0.305656	-1.079607
C53	C	1.130195	-0.339920	-0.876891
C54	C	1.130162	-0.339917	-0.811457
C55	C	1.205267	-0.347764	-0.781539
C56	C	1.280408	-0.355628	-0.817063
C57	C	1.280440	-0.355635	-0.882498
C58	C	1.205325	-0.347778	-0.912409
C59	C	1.258565	-0.389890	-0.679785
C60	C	1.258542	-0.389875	-0.614347
C61	C	1.151852	-0.305594	-0.610523
C62	C	1.151882	-0.305606	-0.675959
C63	C	1.205238	-0.347757	-0.710586
C64	C	1.205376	-0.347789	-0.183873
C65	C	1.205429	-0.347807	-0.114234
H66	H	0.720648	-0.399888	-0.399512
H67	H	0.690698	-0.295656	-0.295120
H68	H	1.108051	0.416748	-0.271224
C69	C	1.093158	-0.259237	-0.572437
H70	H	1.061409	-0.234141	-0.600156
H71	H	1.056833	-0.281790	-0.545497
H72	H	1.125032	-0.233168	-0.548166
C73	C	1.092636	0.289267	-0.259360
H74	H	1.060695	0.319319	-0.234423
H75	H	1.056503	0.265230	-0.282158
H76	H	1.124285	0.262421	-0.233115
H77	H	1.107686	-0.105581	-0.271590
H78	H	1.068925	0.216651	-0.333819
C79	C	1.093220	-0.259263	-0.709842
H80	H	1.061431	-0.234167	-0.679845
H81	H	1.125107	-0.233203	-0.736621
H82	H	1.056916	-0.281832	-0.733955
H83	H	1.068847	0.097942	-0.333900
C84	C	1.092434	0.023048	-0.259554
H85	H	1.060438	-0.004610	-0.234670
H86	H	1.124089	0.047253	-0.233268
H87	H	1.056339	0.050061	-0.282335
H88	H	1.302146	-0.424245	-0.992915
C89	C	1.047514	-0.331272	-0.772384
H90	H	1.058249	-0.332400	-0.729128
H91	H	1.020839	-0.292094	-0.782186
H92	H	1.012468	-0.364000	-0.781726
C93	C	1.047574	-0.331293	-0.909795
H94	H	1.002819	-0.326620	-0.879268
H95	H	1.048641	-0.295020	-0.935440
H96	H	1.040285	-0.366928	-0.934968
H97	H	1.302717	0.290743	-0.423086
C98	C	1.317780	-0.122802	-0.435319
H99	H	1.310070	-0.166169	-0.429356
H100	H	1.305962	-0.111497	-0.477024
H101	H	1.373726	-0.114313	-0.427967
H102	H	1.302527	0.005824	-0.423283
C103	C	1.363088	-0.364274	-0.921573
H104	H	1.407817	-0.368942	-0.894388
H105	H	1.362042	-0.400553	-0.946986
H106	H	1.370400	-0.328645	-0.947445
C107	C	1.363031	-0.364258	-0.784166
H108	H	1.407782	-0.368945	-0.814693
H109	H	1.370328	-0.328629	-0.758991
H110	H	1.361957	-0.400535	-0.758521
C111	C	1.363043	0.077029	-0.362883
H112	H	1.407823	0.104126	-0.367280
H113	H	1.370042	0.051130	-0.327221
H114	H	1.362259	0.051632	-0.399198
H115	H	1.341659	0.205925	-0.360675
H116	H	1.302798	0.409453	-0.423013
C117	C	1.317446	-0.436301	-1.121520
H118	H	1.349203	-0.461391	-1.093800
H119	H	1.285583	-0.462367	-1.145797
H120	H	1.353777	-0.413741	-1.148454
H121	H	1.302005	-0.424216	-0.707979
C122	C	1.093345	-0.259297	-0.976077
H123	H	1.100955	-0.265332	-0.932694
H124	H	1.105526	-0.217673	-0.987344
H125	H	1.037334	-0.266300	-0.984686
H126	H	1.301967	-0.424185	-0.589269
H127	H	1.108652	-0.271343	-1.104684
