data_functionalizedCrystal
_audit_creation_method	'MofGen! by Chris Wilmer'
_symmetry_space_group_name_H-M	'P1'
_symmetry_Int_Tables_number	1
_symmetry_cell_setting	triclinic
loop_
_symmetry_equiv_pos_as_xyz
  x,y,z
_cell_length_a	9.482900
_cell_length_b	10.654550
_cell_length_c	10.654551
_cell_angle_alpha	95.514820
_cell_angle_beta	99.426979
_cell_angle_gamma	99.377450
loop_
_atom_site_label
_atom_site_type_symbol
_atom_site_fract_x
_atom_site_fract_y
_atom_site_fract_z
O1	O	-0.120780	-1.687227	0.156923
O2	O	-0.120806	-1.321753	0.173725
O3	O	-0.120789	-1.512891	-0.017414
O4	O	-0.120797	-1.496088	0.348063
O5	O	0.121000	-1.474068	0.021568
O6	O	0.120983	-1.282929	0.212707
O7	O	0.121009	-1.648404	0.195905
Cu8	Cu	0.143073	-1.462122	0.207866
Cu9	Cu	-0.142870	-1.508035	0.161765
O10	O	0.120992	-1.457265	0.387045
C11	C	0.000085	-1.255544	0.191982
C12	C	0.000075	-1.116102	0.188288
N13	N	0.344191	-1.429838	0.240290
N14	N	-0.343987	-1.540328	0.129331
C15	C	0.416396	-1.498504	0.171322
C16	C	0.583811	-1.471652	0.198309
C17	C	0.000103	-1.492246	-0.044722
C18	C	0.000096	-1.488555	-0.184166
C19	C	0.000115	-1.714613	0.177648
C20	C	0.000116	-1.854056	0.181340
C21	C	0.000077	-1.036617	0.300830
C22	C	0.000102	-0.905592	0.297358
C23	C	0.000118	-0.933551	0.068791
C24	C	0.000103	-1.064572	0.072266
C25	C	-0.131705	-1.507984	-0.270919
C26	C	-0.131706	-1.504504	-0.401940
C27	C	0.131906	-1.462169	-0.359441
C28	C	0.131905	-1.465640	-0.228422
C29	C	0.000097	-1.477911	0.414352
C30	C	0.000095	-1.481604	0.553794
H31	H	0.645929	-1.392977	0.277335
H32	H	-0.239032	-1.526639	-0.234890
O33	O	0.582146	-1.634194	0.034962
C34	C	0.681791	-1.692847	-0.023898
H35	H	0.790339	-1.624005	-0.008241
H36	H	0.637701	-1.717900	-0.131117
H37	H	0.697908	-1.784062	0.020063
O38	O	0.342488	-1.592519	0.077127
C39	C	0.379569	-1.711175	0.104346
H40	H	0.490109	-1.693893	0.170493
H41	H	0.384656	-1.771163	0.011197
H42	H	0.293928	-1.764416	0.153354
O43	O	-0.259868	-1.523462	-0.486045
C44	C	-0.376197	-1.544395	-0.418877
H45	H	-0.337550	-1.580359	-0.324109
H46	H	-0.468374	-1.619060	-0.479037
H47	H	-0.416735	-1.450697	-0.399172
O48	O	0.000069	-0.883296	-0.043812
C49	C	0.000115	-0.750604	-0.022745
H50	H	-0.045664	-0.728039	0.067615
H51	H	-0.070075	-0.721001	-0.108371
H52	H	0.116117	-0.695473	-0.010444
O53	O	0.418452	-1.335908	0.334421
C54	C	0.506481	-1.243568	0.280792
H55	H	0.529124	-1.288861	0.186498
H56	H	0.613580	-1.207206	0.350243
H57	H	0.447923	-1.159971	0.262269
H58	H	0.000106	-1.129292	-0.019384
H59	H	0.000107	-0.840878	0.389001
O60	O	0.000127	-1.086454	0.413649
C61	C	0.000100	-0.988201	0.512229
H62	H	0.045888	-0.891561	0.483626
H63	H	0.070291	-1.005016	0.604480
H64	H	-0.115898	-0.988576	0.528297
H65	H	0.239220	-1.443515	-0.395492
H66	H	0.239240	-1.449809	-0.157782
