data_functionalizedCrystal
_audit_creation_method	'MofGen! by Chris Wilmer'
_symmetry_space_group_name_H-M	'P1'
_symmetry_Int_Tables_number	1
_symmetry_cell_setting	triclinic
loop_
_symmetry_equiv_pos_as_xyz
  x,y,z
_cell_length_a	10.686220
_cell_length_b	16.625545
_cell_length_c	10.686551
_cell_angle_alpha	94.407339
_cell_angle_beta	89.691918
_cell_angle_gamma	94.407346
loop_
_atom_site_label
_atom_site_type_symbol
_atom_site_fract_x
_atom_site_fract_y
_atom_site_fract_z
Zn1	Zn	1.972230	-0.196578	0.562377
Zn2	Zn	2.472230	0.303422	1.062377
Zn3	Zn	1.955958	-0.342521	0.352612
Zn4	Zn	2.455958	0.157479	0.852612
Zn5	Zn	1.746342	-0.217205	0.368694
Zn6	Zn	2.246342	0.282795	0.868694
Zn7	Zn	1.762389	-0.340887	0.578390
Zn8	Zn	2.262389	0.159113	1.078390
O9	O	1.859230	-0.274298	0.465518
O10	O	2.359230	0.225702	0.965518
O11	O	2.145616	-0.207990	0.521120
O12	O	2.645616	0.292010	1.021120
O13	O	1.914627	-0.335213	0.179199
O14	O	2.414627	0.164787	0.679199
O15	O	1.776401	-0.101630	0.394415
O16	O	2.276401	0.398370	0.894415
O17	O	2.133661	-0.315213	0.367006
O18	O	2.633661	0.184787	0.867006
O19	O	1.942360	-0.086476	0.536714
O20	O	2.442360	0.413524	1.036714
O21	O	1.760623	-0.243144	0.191014
O22	O	2.260623	0.256856	0.691014
O23	O	1.572927	-0.241560	0.409942
O24	O	2.072927	0.258440	0.909942
O25	O	1.803750	-0.312428	0.751811
O26	O	2.303750	0.187572	1.251811
O27	O	1.584716	-0.332428	0.564005
O28	O	2.084716	0.167572	1.064005
O29	O	1.957919	-0.206405	0.740047
O30	O	2.457919	0.293595	1.240047
O31	O	1.930186	-0.455142	0.382533
O32	O	2.430186	0.044858	0.882533
O33	O	1.787972	-0.453942	0.548411
O34	O	2.287972	0.046058	1.048411
C35	C	1.533305	-0.289056	0.490457
C36	C	2.033305	0.210944	0.990457
C37	C	1.393875	-0.295387	0.501155
C38	C	1.893875	0.204613	1.001155
C39	C	1.859090	-0.483797	0.465489
C40	C	2.359090	0.016203	0.965489
C41	C	1.859149	-0.573414	0.465510
C42	C	2.359149	-0.073414	0.965510
C43	C	1.859199	-0.646193	0.465531
C44	C	2.359199	-0.146193	0.965531
C45	C	1.859275	-0.737497	0.465553
C46	C	2.359275	-0.237497	0.965553
C47	C	1.859341	-0.810269	0.465564
C48	C	2.359341	-0.310269	0.965564
C49	C	1.859415	-0.901579	0.465584
C50	C	2.359415	-0.401579	0.965584
C51	C	2.186428	-0.259483	0.440483
C52	C	2.686428	0.240517	0.940483
C53	C	2.325860	-0.253169	0.429814
C54	C	2.825860	0.246831	0.929814
C55	C	1.884440	-0.256933	0.792719
C56	C	2.384440	0.243067	1.292719
C57	C	1.895183	-0.249534	0.932153
C58	C	2.395183	0.250466	1.432153
C59	C	1.859406	-0.063977	0.465572
C60	C	2.359406	0.436023	0.965572
C61	C	1.859481	0.025649	0.465595
C62	C	2.359481	0.525649	0.965595
C63	C	1.834190	-0.291533	0.139584
C64	C	2.334190	0.208467	0.639584
C65	C	1.823690	-0.298694	0.000133
C66	C	2.323690	0.201306	0.500133
H67	H	1.374297	-0.212182	0.360551
H68	H	1.874297	0.287818	0.860551
H69	H	1.964619	-0.201784	0.980628
H70	H	2.464619	0.298216	1.480628
F71	F	1.732948	-0.361111	0.936782
F72	F	2.232948	0.138889	1.436782
H73	H	1.345431	-0.336383	0.570415
H74	H	1.845431	0.163617	1.070415
