data_functionalizedCrystal
_audit_creation_method	'MofGen! by Chris Wilmer'
_symmetry_space_group_name_H-M	'P1'
_symmetry_Int_Tables_number	1
_symmetry_cell_setting	triclinic
loop_
_symmetry_equiv_pos_as_xyz
  x,y,z
_cell_length_a	18.050588
_cell_length_b	10.686154
_cell_length_c	10.686551
_cell_angle_alpha	90.306020
_cell_angle_beta	94.406696
_cell_angle_gamma	85.591450
loop_
_atom_site_label
_atom_site_type_symbol
_atom_site_fract_x
_atom_site_fract_y
_atom_site_fract_z
Zn1	Zn	-0.181113	-1.972214	0.562445
Zn2	Zn	0.318887	-1.472214	1.062445
Zn3	Zn	-0.315534	-1.955926	0.352681
Zn4	Zn	0.184466	-1.455926	0.852681
Zn5	Zn	-0.200106	-1.746323	0.368754
Zn6	Zn	0.299894	-1.246323	0.868754
Zn7	Zn	-0.314024	-1.762356	0.578453
Zn8	Zn	0.185976	-1.262356	1.078453
O9	O	-0.252694	-1.859205	0.465583
O10	O	0.247306	-1.359205	0.965583
O11	O	-0.191628	-2.145599	0.521193
O12	O	0.308372	-1.645599	1.021193
O13	O	-0.308802	-1.914595	0.179267
O14	O	0.191198	-1.414595	0.679267
O15	O	-0.093656	-1.776395	0.394475
O16	O	0.406344	-1.276395	0.894475
O17	O	-0.290387	-2.133632	0.367081
O18	O	0.209613	-1.633632	0.867081
O19	O	-0.079702	-1.942356	0.536778
O20	O	0.420298	-1.442356	1.036778
O21	O	-0.223998	-1.760601	0.191076
O22	O	0.276002	-1.260601	0.691076
O23	O	-0.222533	-1.572905	0.409997
O24	O	0.277467	-1.072905	0.909997
O25	O	-0.287813	-1.803721	0.751876
O26	O	0.212187	-1.303721	1.251876
O27	O	-0.306228	-1.584684	0.564062
O28	O	0.193772	-1.084684	1.064062
O29	O	-0.190164	-1.957902	0.740114
O30	O	0.309836	-1.457902	1.240114
O31	O	-0.419264	-1.930142	0.382604
O32	O	0.080736	-1.430142	0.882604
O33	O	-0.418155	-1.787927	0.548477
O34	O	0.081845	-1.287927	1.048477
C35	C	-0.266278	-1.533277	0.490511
C36	C	0.233722	-1.033277	0.990511
C37	C	-0.272106	-1.393846	0.501206
C38	C	0.227894	-0.893846	1.001206
C39	C	-0.445655	-1.859043	0.465558
C40	C	0.054345	-1.359043	0.965558
C41	C	-0.528197	-1.859092	0.465580
C42	C	-0.028197	-1.359092	0.965580
C43	C	-0.776441	-1.781887	0.555773
C44	C	-0.276441	-1.281887	1.055773
C45	C	-0.720699	-1.898637	0.577796
C46	C	-0.220699	-1.398637	1.077796
C47	C	-0.825303	-1.859357	0.465630
C48	C	-0.325303	-1.359357	0.965630
C49	C	-0.733967	-1.742487	0.443641
C50	C	-0.233967	-1.242487	0.943641
C51	C	-0.679325	-1.859221	0.465609
C52	C	-0.179325	-1.359221	0.965609
C53	C	-0.770643	-1.976174	0.487708
C54	C	-0.270643	-1.476174	0.987708
C55	C	-0.783922	-1.819942	0.353506
C56	C	-0.283922	-1.319942	0.853506
C57	C	-0.728201	-1.936768	0.375480
C58	C	-0.228201	-1.436768	0.875480
C59	C	-0.909397	-1.859435	0.465646
C60	C	-0.409397	-1.359435	0.965646
C61	C	-0.595233	-1.859157	0.465593
C62	C	-0.095233	-1.359157	0.965593
C63	C	-0.058977	-1.859404	0.465634
C64	C	0.441023	-1.359404	0.965634
C65	C	0.023573	-1.859488	0.465655
C66	C	0.523573	-1.359488	0.965655
C67	C	-0.236701	-1.884417	0.792785
C68	C	0.263299	-1.384417	1.292785
C69	C	-0.229886	-1.895160	0.932219
C70	C	0.270114	-1.395160	1.432219
C71	C	-0.239051	-1.186404	0.440550
C72	C	0.260949	-0.686404	0.940550
C73	C	-0.233219	-1.325836	0.429862
C74	C	0.266781	-0.825836	0.929862
C75	C	-0.268568	-1.834163	0.139649
C76	C	0.231432	-1.334163	0.639649
C77	C	-0.275164	-1.823663	0.000198
C78	C	0.224836	-1.323663	0.500198
H79	H	-0.195469	-1.374277	0.360599
H80	H	0.304531	-0.874277	0.860599
Cl81	Cl	-0.795689	-2.128739	0.516581
Cl82	Cl	-0.295689	-1.628739	1.016581
H83	H	-0.185908	-1.964602	0.980696
H84	H	0.314092	-1.464602	1.480696
Cl85	Cl	-0.330404	-1.319055	0.608138
Cl86	Cl	0.169596	-0.819055	1.108138
Cl87	Cl	-0.708765	-1.589982	0.414936
Cl88	Cl	-0.208765	-1.089982	0.914936
Cl89	Cl	-0.678174	-1.950033	0.724175
Cl90	Cl	-0.178174	-1.450033	1.224175
Cl91	Cl	-0.343069	-1.716467	0.925365
Cl92	Cl	0.156931	-1.216467	1.425365
H93	H	-0.707137	-2.002305	0.299234
H94	H	-0.207137	-1.502305	0.799234
Cl95	Cl	-0.809163	-1.680971	0.673548
Cl96	Cl	-0.309163	-1.180971	1.173548
H97	H	-0.811481	-1.786623	0.258725
H98	H	-0.311481	-1.286623	0.758725
