data_functionalizedCrystal
_audit_creation_method	'MofGen! by Chris Wilmer'
_symmetry_space_group_name_H-M	'P1'
_symmetry_Int_Tables_number	1
_symmetry_cell_setting	triclinic
loop_
_symmetry_equiv_pos_as_xyz
  x,y,z
_cell_length_a	19.288859
_cell_length_b	16.053789
_cell_length_c	19.288865
_cell_angle_alpha	87.098675
_cell_angle_beta	96.865014
_cell_angle_gamma	92.897197
loop_
_atom_site_label
_atom_site_type_symbol
_atom_site_fract_x
_atom_site_fract_y
_atom_site_fract_z
O1	O	0.923956	0.069456	-0.089232
O2	O	0.721695	0.069455	-0.100925
O3	O	0.828669	0.069439	0.006053
O4	O	0.816982	0.069472	-0.196209
O5	O	0.823452	-0.069421	0.011263
O6	O	0.716477	-0.069405	-0.095715
O7	O	0.918739	-0.069404	-0.084021
Zn8	Zn	0.816780	-0.091452	-0.089041
Zn9	Zn	0.823654	0.091503	-0.095906
O10	O	0.811764	-0.069388	-0.190999
C11	C	0.693210	0.000025	-0.097944
C12	C	0.616106	0.000024	-0.096817
C13	C	0.052065	0.000034	-0.151961
C14	C	0.124512	0.000039	-0.153026
C15	C	0.169218	0.000027	-0.090256
C16	C	0.141474	0.000032	-0.026417
C17	C	0.069028	0.000036	-0.025354
C18	C	0.288660	-0.048633	-0.041618
C19	C	0.361104	-0.048642	-0.042683
C20	C	0.392664	0.000019	-0.093534
C21	C	0.351770	0.048678	-0.143329
C22	C	0.279325	0.048681	-0.142266
C23	C	0.247774	0.000023	-0.091402
C24	C	0.498956	0.000025	-0.158524
C25	C	0.571404	0.000034	-0.159587
C26	C	0.588364	0.000019	-0.032976
C27	C	0.515917	0.000018	-0.031915
C28	C	0.471217	0.000017	-0.094691
N29	N	0.812093	-0.216313	-0.084355
C30	C	0.852447	-0.259996	-0.124737
C31	C	0.849178	-0.347404	-0.121455
C32	C	0.805551	-0.391127	-0.077794
C33	C	0.765196	-0.347437	-0.037407
C34	C	0.768469	-0.260031	-0.040686
C35	C	0.791264	-0.652540	-0.063478
C36	C	0.787992	-0.739952	-0.060204
C37	C	0.871975	-0.739913	-0.144251
C38	C	0.875241	-0.652505	-0.147529
C39	C	0.834889	-0.608824	-0.107140
N40	N	0.802208	-0.480471	-0.074440
N41	N	0.838237	-0.519481	-0.110491
C42	C	0.947224	0.000028	-0.087002
C43	C	1.024328	0.000035	-0.088130
C44	C	0.825684	0.000007	0.034534
C45	C	0.824555	-0.000001	0.111638
N46	N	0.828346	0.216364	-0.100586
C47	C	0.814749	0.000046	-0.219481
C48	C	0.815879	0.000059	-0.296585
C49	C	0.887323	-0.000005	0.156336
C50	C	0.886263	0.000009	0.228783
C51	C	0.822430	0.000009	0.256529
C52	C	0.759654	0.000017	0.211821
C53	C	0.760717	0.000013	0.139376
C54	C	0.770423	-0.048631	0.366640
C55	C	0.769363	-0.048631	0.439085
C56	C	0.819151	0.000028	0.479974
C57	C	0.870011	0.048676	0.448411
C58	C	0.871073	0.048671	0.375966
C59	C	0.821271	0.000015	0.335083
C60	C	0.880774	0.000039	0.603227
C61	C	0.879712	0.000058	0.675674
C62	C	0.753101	0.000058	0.658711
C63	C	0.754166	0.000048	0.586265
C64	C	0.818004	0.000035	0.558528
H65	H	0.462559	0.000025	-0.209640
H66	H	0.882040	-0.382967	-0.154337
C67	C	0.950992	0.000034	0.572712
H68	H	0.988225	0.000046	0.609711
H69	H	0.952220	-0.048393	0.546630
H70	H	0.955856	0.048460	0.542977
C71	C	0.637532	0.000008	0.036069
H72	H	0.684651	0.000002	0.026295
H73	H	0.630964	0.048429	0.060435
H74	H	0.627324	-0.048424	0.064072
H75	H	0.593986	0.000041	-0.211568
C76	C	0.746832	-0.604497	-0.019099
H77	H	0.755019	-0.546179	-0.027309
H78	H	0.698743	-0.618854	-0.031625
H79	H	0.759321	-0.618808	0.029009
C80	C	0.689441	0.000015	0.242339
H81	H	0.697797	0.000008	0.291887
H82	H	0.665423	0.048438	0.225159
H83	H	0.661787	-0.048415	0.228805
H84	H	0.939305	-0.000013	0.133757
C85	C	0.740003	-0.788050	-0.012174
H86	H	0.743829	-0.846362	-0.016014
H87	H	0.753597	-0.773739	0.034849
H88	H	0.692973	-0.773732	-0.025740
C89	C	0.927009	0.102182	0.341245
H90	H	0.920512	0.095202	0.292245
H91	H	0.922878	0.159270	0.350147
H92	H	0.972150	0.085072	0.359917
C93	C	0.682885	0.000062	0.689220
H94	H	0.645654	0.000066	0.652219
H95	H	0.678017	-0.048357	0.718955
H96	H	0.681661	0.048496	0.715300
C97	C	0.406080	-0.102166	0.012086
H98	H	0.376911	-0.131135	0.042531
H99	H	0.429650	-0.141287	-0.010871
H100	H	0.439418	-0.067092	0.038400
C101	C	0.717207	-0.395530	0.010618
H102	H	0.721030	-0.453843	0.006782
H103	H	0.730797	-0.381215	0.057640
H104	H	0.670177	-0.381210	-0.002953
H105	H	0.735609	-0.224466	-0.007803
C106	C	0.955310	-0.000002	0.277959
H107	H	0.993480	-0.000015	0.251064
H108	H	0.959351	0.048421	0.304752
H109	H	0.955699	-0.048432	0.308393
H110	H	0.910553	0.088299	0.481702
C111	C	0.715652	-0.102159	0.321669
H112	H	0.685218	-0.131139	0.350841
H113	H	0.689338	-0.067089	0.288329
H114	H	0.738615	-0.141283	0.298101
H115	H	0.493334	0.000013	0.020063
C116	C	0.386473	0.102209	-0.199269
H117	H	0.351742	0.131182	-0.228773
H118	H	0.419420	0.141326	-0.177140
H119	H	0.409657	0.067134	-0.226414
H120	H	0.930827	0.000059	0.712067
H121	H	0.262971	-0.088260	-0.000205
H122	H	0.910769	-0.616912	-0.183080
C123	C	0.038512	0.000035	0.044861
H124	H	-0.011035	0.000043	0.036504
H125	H	0.052049	-0.048389	0.072520
H126	H	0.055689	0.048464	0.068874
C127	C	0.190647	0.000016	0.042628
H128	H	0.237766	0.000005	0.032853
H129	H	0.184083	0.048437	0.066994
H130	H	0.180435	-0.048416	0.070629
C131	C	0.916365	-0.787964	-0.188668
H132	H	0.908174	-0.846282	-0.180460
H133	H	0.903849	-0.773633	-0.236765
H134	H	0.964467	-0.773631	-0.176171
C135	C	0.685120	0.000038	0.537096
H136	H	0.646950	0.000033	0.563994
H137	H	0.684719	0.048458	0.506655
H138	H	0.681086	-0.048396	0.510311
H139	H	0.887968	-0.224404	-0.160295
H140	H	0.709602	0.000016	0.102982
C141	C	0.002900	0.000043	-0.221011
H142	H	0.029800	0.000051	-0.259180
H143	H	-0.027538	-0.048377	-0.221411
H144	H	-0.023889	0.048477	-0.225048
C145	C	0.155031	0.000035	-0.223243
H146	H	0.118033	0.000030	-0.260476
H147	H	0.184763	0.048455	-0.228111
H148	H	0.181116	-0.048398	-0.224463
H149	H	0.727948	-0.088239	0.464776
H150	H	0.246032	0.088303	-0.182810
