data_functionalizedCrystal
_audit_creation_method	'MofGen! by Chris Wilmer'
_symmetry_space_group_name_H-M	'P1'
_symmetry_Int_Tables_number	1
_symmetry_cell_setting	triclinic
loop_
_symmetry_equiv_pos_as_xyz
  x,y,z
_cell_length_a	14.519731
_cell_length_b	13.596369
_cell_length_c	15.538191
_cell_angle_alpha	89.996877
_cell_angle_beta	114.519527
_cell_angle_gamma	90.005416
loop_
_atom_site_label
_atom_site_type_symbol
_atom_site_fract_x
_atom_site_fract_y
_atom_site_fract_z
O1	O	1.182314	0.081784	-0.123508
O2	O	1.682314	0.581784	0.376492
O3	O	0.908958	0.081784	-0.138020
O4	O	1.408958	0.581784	0.361980
O5	O	1.098847	0.081788	0.006272
O6	O	1.598847	0.581788	0.506272
O7	O	0.992425	0.081779	-0.267800
O8	O	1.492425	0.581779	0.232200
O9	O	1.098835	-0.081795	0.006279
O10	O	1.598835	0.418205	0.506279
O11	O	0.908947	-0.081799	-0.138013
O12	O	1.408947	0.418201	0.361987
O13	O	1.182302	-0.081799	-0.123500
O14	O	1.682302	0.418201	0.376500
Zn15	Zn	1.045623	-0.107772	-0.130755
Zn16	Zn	1.545623	0.392228	0.369245
Zn17	Zn	1.045638	0.107756	-0.130765
Zn18	Zn	1.545638	0.607756	0.369235
O19	O	0.992414	-0.081804	-0.267792
O20	O	1.492414	0.418196	0.232208
C21	C	0.874822	-0.000007	-0.137336
C22	C	1.374822	0.499993	0.362664
C23	C	0.773127	-0.000007	-0.135299
C24	C	1.273127	0.499993	0.364701
C25	C	0.690540	-0.000003	-0.133643
C26	C	1.190540	0.499997	0.366357
C27	C	0.586927	-0.000002	-0.131574
C28	C	1.086927	0.499998	0.368426
C29	C	0.504340	-0.000002	-0.129932
C30	C	1.004340	0.499998	0.370068
C31	C	0.400720	-0.000000	-0.127864
C32	C	0.900720	0.500000	0.372136
N33	N	1.045619	-0.254863	-0.130748
N34	N	1.545619	0.245137	0.369252
C35	C	1.045636	-0.656154	-0.130766
C36	C	1.545636	-0.156154	0.369234
C37	C	1.045628	-0.544503	-0.130764
C38	C	1.545628	-0.044503	0.369236
C39	C	1.045628	-0.455512	-0.130758
C40	C	1.545628	0.044488	0.369242
C41	C	1.045619	-0.343854	-0.130754
C42	C	1.545619	0.156146	0.369246
C43	C	1.216439	-0.000006	-0.124184
C44	C	1.716439	0.499994	0.375816
C45	C	1.318134	-0.000000	-0.126222
C46	C	1.818134	0.500000	0.373778
C47	C	1.109976	0.000000	0.041351
C48	C	1.609976	0.500000	0.541351
C49	C	1.143142	0.000010	0.145867
C50	C	1.643142	0.500010	0.645867
N51	N	1.045651	0.254848	-0.130765
N52	N	1.545651	0.754848	0.369235
C53	C	0.981285	-0.000013	-0.302872
C54	C	1.481285	0.499987	0.197128
C55	C	0.948119	-0.000017	-0.407387
C56	C	1.448119	0.499983	0.092613
C57	C	0.813645	-0.000011	0.434238
C58	C	1.313645	0.499989	0.934238
C59	C	0.844833	-0.000013	0.532449
C60	C	1.344833	0.499987	1.032449
C61	C	1.020257	-0.000013	0.554582
C62	C	1.520257	0.499987	1.054582
C63	C	0.989084	-0.000006	0.456372
C64	C	1.489084	0.499994	0.956372
C65	C	0.885777	-0.000006	0.396207
C66	C	1.385777	0.499994	0.896207
C67	C	1.061216	-0.000001	0.418340
C68	C	1.561216	0.499999	0.918340
C69	C	1.030045	0.000001	0.320138
C70	C	1.530045	0.500001	0.820138
C71	C	0.926742	-0.000002	0.259967
C72	C	1.426742	0.499998	0.759967
C73	C	0.854606	-0.000004	0.298004
C74	C	1.354606	0.499996	0.798004
C75	C	1.164523	-0.000008	0.478507
C76	C	1.664523	0.499992	0.978507
C77	C	1.236654	-0.000003	0.440475
C78	C	1.736654	0.499997	0.940475
C79	C	1.205484	0.000006	0.342271
C80	C	1.705484	0.500006	0.842271
C81	C	1.102181	0.000003	0.282100
C82	C	1.602181	0.500003	0.782100
C83	C	1.277620	0.000008	0.304234
C84	C	1.777620	0.500008	0.804234
C85	C	1.246449	0.000010	0.206032
C86	C	1.746449	0.500010	0.706032
C87	C	1.071010	0.000005	0.183898
C88	C	1.571010	0.500005	0.683898
H89	H	0.986887	0.000012	0.134908
H90	H	1.486887	0.500012	0.634908
H91	H	1.189899	-0.000000	0.558469
H92	H	1.689899	0.500000	1.058469
H93	H	0.770483	0.000003	0.249014
H94	H	1.270483	0.500003	0.749014
Br95	Br	0.884434	-0.000013	0.126690
Br96	Br	1.384434	0.499987	0.626690
H97	H	0.786087	-0.000031	0.563408
H98	H	1.286087	0.499969	1.063408
H99	H	1.320768	-0.000007	0.489475
H100	H	1.820768	0.499993	0.989475
H101	H	0.729522	-0.000004	0.385247
H102	H	1.229522	0.499996	0.885247
Br103	Br	1.160456	-0.000024	0.636242
Br104	Br	1.660456	0.499976	1.136242
H105	H	1.361733	-0.000002	0.353235
H106	H	1.861733	0.499998	0.853235
H107	H	1.305186	0.000013	0.175066
H108	H	1.805186	0.500013	0.675066
