data_functionalizedCrystal
_audit_creation_method	'MofGen! by Chris Wilmer'
_symmetry_space_group_name_H-M	'P1'
_symmetry_Int_Tables_number	1
_symmetry_cell_setting	triclinic
loop_
_symmetry_equiv_pos_as_xyz
  x,y,z
_cell_length_a	13.033293
_cell_length_b	12.645330
_cell_length_c	13.032268
_cell_angle_alpha	97.142779
_cell_angle_beta	90.920818
_cell_angle_gamma	82.811681
loop_
_atom_site_label
_atom_site_type_symbol
_atom_site_fract_x
_atom_site_fract_y
_atom_site_fract_z
Zn1	Zn	1.498457	0.329809	0.781451
Zn2	Zn	1.520197	0.482151	0.609463
Zn3	Zn	1.348317	0.324211	0.587627
Zn4	Zn	1.326447	0.526343	0.759499
O5	O	1.423354	0.415629	0.684510
O6	O	1.645260	0.333866	0.776962
O7	O	1.515648	0.440363	0.462660
O8	O	1.368288	0.176606	0.613386
O9	O	1.661232	0.445791	0.650603
O10	O	1.478595	0.180719	0.755788
O11	O	1.389368	0.324325	0.446617
O12	O	1.201497	0.367176	0.592101
O13	O	1.331013	0.521109	0.906317
O14	O	1.185429	0.515681	0.718374
O15	O	1.457388	0.376717	0.922445
O16	O	1.494441	0.636361	0.629317
O17	O	1.352094	0.668829	0.739548
C18	C	1.156146	0.445617	0.650486
C19	C	1.041830	0.458476	0.635955
C20	C	0.982950	0.408944	0.692093
C21	C	0.864798	0.422233	0.677076
C22	C	1.423279	0.691060	0.684446
C23	C	1.423336	0.808885	0.684465
C24	C	1.512763	0.955970	0.614921
C25	C	1.513009	0.833409	0.615163
C26	C	1.438949	0.865698	0.796595
C27	C	1.439620	0.988163	0.796238
C28	C	1.318091	0.984405	0.642897
C29	C	1.318934	0.861389	0.640547
C30	C	1.691606	0.385524	0.718667
C31	C	1.805919	0.372695	0.733222
C32	C	1.389336	0.454467	0.952738
C33	C	1.374840	0.471018	1.067040
C34	C	1.423431	1.139121	0.684570
C35	C	1.423400	1.021289	0.684518
C36	C	1.457300	0.376858	0.417333
C37	C	1.471995	0.359986	0.303056
C38	C	1.430904	0.406954	1.125980
C39	C	1.415923	0.424059	1.244118
H40	H	1.020011	0.356697	0.751269
H41	H	1.004770	0.510717	0.576774
H42	H	1.514572	0.829547	0.830529
C43	C	1.501982	0.779902	0.503431
H44	H	1.497315	0.833046	0.457483
H45	H	1.441234	0.745163	0.497830
H46	H	1.560616	0.728499	0.486041
H47	H	1.590635	0.980331	0.643287
H48	H	1.516186	1.011155	0.829887
H49	H	1.376631	1.032942	0.850629
C50	C	1.228391	1.043785	0.711251
H51	H	1.254930	1.090851	0.764876
H52	H	1.193827	0.992982	0.740709
H53	H	1.181097	1.084137	0.670369
H54	H	1.356822	0.491567	1.281113
H55	H	1.489991	0.339441	1.088979
H56	H	1.375252	0.851684	0.850440
H57	H	0.842974	0.320441	0.792401
C58	C	1.502173	0.982976	0.502937
H59	H	1.443151	1.034320	0.497617
H60	H	1.494581	0.919574	0.457559
H61	H	1.562277	1.011758	0.484564
C62	C	1.618759	0.785045	0.653851
H63	H	1.661732	0.840315	0.669490
H64	H	1.650456	0.732554	0.601637
H65	H	1.609329	0.752445	0.714313
H66	H	1.249883	0.845569	0.686417
H67	H	1.301229	1.007144	0.561827
C68	C	1.302681	0.809936	0.528985
H69	H	1.359276	0.756674	0.509247
H70	H	1.298300	0.863623	0.483639
H71	H	1.240444	0.777744	0.525251
C72	C	1.551827	0.268779	1.253089
H73	H	1.551430	0.269249	1.180242
H74	H	1.534594	0.201764	1.268751
H75	H	1.618716	0.279070	1.279436
C76	C	1.295017	0.562224	1.117015
H77	H	1.295426	0.561761	1.189863
H78	H	1.228129	0.551950	1.090670
H79	H	1.312265	0.629240	1.101356
H80	H	0.827742	0.474478	0.617891
