data_functionalizedCrystal
_audit_creation_method	'MofGen! by Chris Wilmer'
_symmetry_space_group_name_H-M	'P1'
_symmetry_Int_Tables_number	1
_symmetry_cell_setting	triclinic
loop_
_symmetry_equiv_pos_as_xyz
  x,y,z
_cell_length_a	6.817900
_cell_length_b	11.168129
_cell_length_c	14.858340
_cell_angle_alpha	93.501048
_cell_angle_beta	104.519754
_cell_angle_gamma	108.508637
loop_
_atom_site_label
_atom_site_type_symbol
_atom_site_fract_x
_atom_site_fract_y
_atom_site_fract_z
V1	V	-4.063997	-0.175510	-0.289968
O2	O	-4.024455	0.007605	-0.284440
O3	O	-4.040598	-0.347210	-0.287993
O4	O	-4.020275	-0.173174	-0.416430
O5	O	-4.044918	-0.167635	-0.155114
V6	V	-4.543779	-0.153564	-0.273838
O7	O	-4.333461	-0.223650	-0.325352
O8	O	-4.724512	-0.105425	-0.238454
O9	O	-4.343971	0.018136	-0.275813
O10	O	-4.700717	-0.336680	-0.279366
O11	O	-4.680254	-0.161439	-0.408692
O12	O	-4.364294	-0.155900	-0.147376
C13	C	-3.891529	-0.389055	-0.283421
C14	C	-3.953716	-0.529425	-0.282649
C15	C	-4.089715	-0.754438	-0.362442
C16	C	-4.025443	-0.609359	-0.363241
C17	C	-3.865604	-0.167053	-0.447254
C18	C	-3.911306	-0.166280	-0.550637
C19	C	-3.948419	-0.165650	-0.634595
C20	C	-3.994992	-0.164854	-0.739924
C21	C	-4.032128	-0.164220	-0.823876
C22	C	-4.078707	-0.163427	-0.929212
C23	C	-4.156382	0.059974	-0.280383
C24	C	-4.073434	0.200342	-0.281161
C25	C	-4.182307	-0.162025	-0.116548
C26	C	-4.115843	-0.162793	-0.013164
H27	H	-4.011923	-0.730967	-0.212166
H28	H	-4.151248	-0.823129	-0.431437
H29	H	-3.939865	-0.568370	-0.213056
C30	C	-4.044077	-0.556743	-0.457252
H31	H	-3.998422	-0.466137	-0.445456
H32	H	-3.955421	-0.581699	-0.489163
H33	H	-4.189892	-0.589919	-0.495132
