data_functionalizedCrystal
_audit_creation_method	'MofGen! by Chris Wilmer'
_symmetry_space_group_name_H-M	'P1'
_symmetry_Int_Tables_number	1
_symmetry_cell_setting	triclinic
loop_
_symmetry_equiv_pos_as_xyz
  x,y,z
_cell_length_a	27.732064
_cell_length_b	27.732048
_cell_length_c	12.376457
_cell_angle_alpha	101.176348
_cell_angle_beta	78.808732
_cell_angle_gamma	82.646040
loop_
_atom_site_label
_atom_site_type_symbol
_atom_site_fract_x
_atom_site_fract_y
_atom_site_fract_z
O1	O	0.650242	0.048240	-0.093810
O2	O	1.150242	0.548240	0.406190
O3	O	0.509454	0.056973	-0.093859
O4	O	1.009454	0.556973	0.406141
O5	O	0.584219	-0.017788	-0.093812
O6	O	1.084219	0.482212	0.406188
O7	O	0.575478	0.123001	-0.093858
O8	O	1.075478	0.623001	0.406142
O9	O	0.565534	0.000877	0.094189
O10	O	1.065534	0.500877	0.594189
O11	O	0.490770	0.075638	0.094142
O12	O	0.990770	0.575638	0.594142
O13	O	0.631558	0.066905	0.094190
O14	O	1.131558	0.566905	0.594190
Zn15	Zn	0.558197	0.074235	0.124015
Zn16	Zn	1.058197	0.574235	0.624015
Zn17	Zn	0.582815	0.049643	-0.123684
Zn18	Zn	1.082815	0.549643	0.376316
O19	O	0.556794	0.141666	0.094143
O20	O	1.056794	0.641666	0.594143
C21	C	0.482106	0.066120	0.000136
C22	C	0.982106	0.566120	0.500136
C23	C	0.428453	0.065562	0.000118
C24	C	0.928453	0.565562	0.500118
C25	C	0.051373	0.017603	0.000198
C26	C	0.551373	0.517603	0.500198
C27	C	0.253036	0.019646	0.000168
C28	C	0.753036	0.519646	0.500168
O29	O	0.284283	-0.017569	0.000223
O30	O	0.784283	0.482431	0.500223
N31	N	0.272165	0.063979	0.000149
N32	N	0.772165	0.563979	0.500149
C33	C	0.240875	0.107804	0.000144
C34	C	0.740875	0.607804	0.500144
O35	O	0.261772	0.145559	0.000138
O36	O	0.761772	0.645559	0.500138
C37	C	0.039212	0.105761	0.000182
C38	C	0.539212	0.605761	0.500182
C39	C	0.020086	0.061425	0.000190
C40	C	0.520086	0.561425	0.500190
C41	C	0.032247	-0.026730	0.000208
C42	C	0.532247	0.473270	0.500208
C43	C	-0.018165	-0.027241	0.000209
C44	C	0.481835	0.472759	0.500209
C45	C	-0.049452	0.016581	0.000201
C46	C	0.450548	0.516581	0.500201
C47	C	-0.030326	0.060914	0.000192
C48	C	0.469674	0.560914	0.500192
C49	C	0.007921	0.149587	0.000186
C50	C	0.507921	0.649587	0.500186
C51	C	-0.042498	0.149072	0.000198
C52	C	0.457502	0.649072	0.500198
C53	C	-0.061623	0.104736	0.000206
C54	C	0.438377	0.604736	0.500206
C55	C	-0.112024	0.104224	0.000185
C56	C	0.387976	0.604224	0.500185
N57	N	-0.131154	0.059892	0.000205
N58	N	0.368846	0.559892	0.500205
C59	C	-0.099868	0.016070	0.000213
C60	C	0.400132	0.516070	0.500213
C61	C	0.346751	0.108873	0.000122
C62	C	0.846751	0.608873	0.500122
C63	C	0.397167	0.109384	0.000110
C64	C	0.897167	0.609384	0.500110
C65	C	0.409325	0.021226	0.000136
C66	C	0.909325	0.521226	0.500136
C67	C	0.358909	0.020715	0.000140
C68	C	0.858909	0.520715	0.500140
C69	C	0.327622	0.064541	0.000141
C70	C	0.827622	0.564541	0.500141
C71	C	-0.205737	0.015001	0.000214
C72	C	0.294263	0.515001	0.500214
C73	C	-0.256154	0.014493	0.000211
C74	C	0.243846	0.514493	0.500211
C75	C	-0.268308	0.102651	0.000191
C76	C	0.231692	0.602651	0.500191
C77	C	-0.217895	0.103158	0.000188
C78	C	0.282105	0.603158	0.500188
C79	C	-0.186611	0.059330	0.000204
C80	C	0.313389	0.559330	0.500204
O81	O	-0.143301	0.141421	0.000143
O82	O	0.356699	0.641421	0.500143
O83	O	-0.120776	-0.021677	0.000243
O84	O	0.379224	0.478323	0.500243
C85	C	0.101785	0.018114	0.000197
C86	C	0.601785	0.518114	0.500197
C87	C	0.120911	0.062447	0.000188
C88	C	0.620911	0.562447	0.500188
C89	C	0.089625	0.106268	0.000180
C90	C	0.589625	0.606268	0.500180
C91	C	0.171327	0.062957	0.000176
C92	C	0.671327	0.562957	0.500176
C93	C	0.202613	0.019136	0.000184
C94	C	0.702613	0.519136	0.500184
C95	C	0.183483	-0.025197	0.000204
C96	C	0.683483	0.474803	0.500204
C97	C	0.133071	-0.025708	0.000205
C98	C	0.633071	0.474292	0.500205
C99	C	0.108754	0.150601	0.000160
C100	C	0.608754	0.650601	0.500160
C101	C	0.159167	0.151108	0.000157
C102	C	0.659167	0.651108	0.500157
C103	C	0.190453	0.107286	0.000165
C104	C	0.690453	0.607286	0.500165
C105	C	0.574693	-0.026462	0.000192
C106	C	1.074693	0.473538	0.500192
C107	C	0.574139	-0.080116	0.000201
C108	C	1.074139	0.419884	0.500201
C109	C	0.614847	-0.418933	0.000157
C110	C	1.114847	0.081067	0.500157
C111	C	0.612797	-0.620594	0.000140
C112	C	1.112797	-0.120594	0.500140
O113	O	0.650021	-0.651851	0.000103
O114	O	1.150021	-0.151851	0.500103
N115	N	0.568464	-0.639722	0.000126
N116	N	1.068464	-0.139722	0.500126
C117	C	0.524640	-0.608432	0.000109
C118	C	1.024640	-0.108432	0.500109
O119	O	0.486886	-0.629329	0.000085
O120	O	0.986886	-0.129329	0.500085
C121	C	0.526691	-0.406772	0.000117
C122	C	1.026691	0.093228	0.500117
C123	C	0.571026	-0.387646	0.000143
C124	C	1.071026	0.112354	0.500143
C125	C	0.659178	-0.399807	0.000181
C126	C	1.159178	0.100193	0.500181
C127	C	0.659690	-0.349394	0.000191
C128	C	1.159690	0.150606	0.500191
C129	C	0.615869	-0.318107	0.000177
C130	C	1.115869	0.181893	0.500177
C131	C	0.571538	-0.337233	0.000153
C132	C	1.071538	0.162767	0.500153
C133	C	0.482869	-0.375484	0.000092
C134	C	0.982869	0.124516	0.500092
C135	C	0.483386	-0.325066	0.000091
C136	C	0.983386	0.174934	0.500091
C137	C	0.527721	-0.305940	0.000116
C138	C	1.027721	0.194060	0.500116
C139	C	0.528228	-0.255534	0.000149
C140	C	1.028228	0.244466	0.500149
N141	N	0.572562	-0.236406	0.000163
N142	N	1.072562	0.263594	0.500163
C143	C	0.616382	-0.267692	0.000177
C144	C	1.116382	0.232308	0.500177
C145	C	0.523567	-0.714306	0.000107
C146	C	1.023567	-0.214306	0.500107
C147	C	0.523054	-0.764720	0.000106
C148	C	1.023054	-0.264720	0.500106
C149	C	0.611211	-0.776880	0.000136
C150	C	1.111211	-0.276880	0.500136
C151	C	0.611723	-0.726464	0.000144
C152	C	1.111723	-0.226464	0.500144
C153	C	0.567900	-0.695178	0.000121
C154	C	1.067900	-0.195178	0.500121
C155	C	0.617452	-0.161821	0.000200
C156	C	1.117452	0.338179	0.500200
C157	C	0.617959	-0.111402	0.000215
C158	C	1.117959	0.388598	0.500215
C159	C	0.529803	-0.099248	0.000179
C160	C	1.029803	0.400752	0.500179
C161	C	0.529295	-0.149662	0.000170
C162	C	1.029295	0.350338	0.500170
C163	C	0.573124	-0.180948	0.000177
C164	C	1.073124	0.319052	0.500177
O165	O	0.491026	-0.224249	0.000173
O166	O	0.991026	0.275751	0.500173
O167	O	0.654133	-0.246788	0.000176
O168	O	1.154133	0.253212	0.500176
C169	C	0.614335	-0.469346	0.000146
C170	C	1.114335	0.030654	0.500146
C171	C	0.570004	-0.488472	0.000122
C172	C	1.070004	0.011528	0.500122
C173	C	0.526183	-0.457186	0.000108
C174	C	1.026183	0.042814	0.500108
C175	C	0.569491	-0.538887	0.000122
C176	C	1.069491	-0.038887	0.500122
C177	C	0.613311	-0.570173	0.000136
C178	C	1.113311	-0.070173	0.500136
C179	C	0.657645	-0.551045	0.000150
C180	C	1.157645	-0.051045	0.500150
C181	C	0.658156	-0.500632	0.000160
C182	C	1.158156	-0.000632	0.500160
C183	C	0.481850	-0.476313	0.000094
C184	C	0.981850	0.023687	0.500094
C185	C	0.481342	-0.526727	0.000085
C186	C	0.981342	-0.026727	0.500085
C187	C	0.525163	-0.558013	0.000099
C188	C	1.025163	-0.058013	0.500099
C189	C	0.658906	0.057758	0.000193
C190	C	1.158906	0.557758	0.500193
C191	C	0.712560	0.058315	0.000203
C192	C	1.212560	0.558315	0.500203
C193	C	0.566320	0.150340	0.000137
C194	C	1.066320	0.650340	0.500137
C195	C	0.566874	0.203993	0.000120
C196	C	1.066874	0.703993	0.500120
N197	N	0.541400	0.091018	0.293063
N198	N	1.041400	0.591018	0.793063
N199	N	0.599616	0.032857	-0.292731
N200	N	1.099616	0.532857	0.207269
C201	C	0.638607	-0.006111	0.648109
C202	C	1.138607	0.493889	1.148109
C203	C	0.650361	-0.017858	0.529776
C204	C	1.150361	0.482142	1.029776
C205	C	0.623122	0.009360	0.470592
C206	C	1.123122	0.509360	0.970592
C207	C	0.584127	0.048326	0.529752
C208	C	1.084127	0.548326	1.029752
C209	C	0.572375	0.060076	0.648096
C210	C	1.072375	0.560076	1.148096
C211	C	0.556889	0.075548	0.470579
C212	C	1.056889	0.575548	0.970579
C213	C	0.517894	0.114514	0.529739
C214	C	1.017894	0.614514	1.029739
C215	C	0.506144	0.126262	0.648071
C216	C	1.006144	0.626262	1.148071
C217	C	0.533383	0.099044	0.707256
C218	C	1.033383	0.599044	1.207256
C219	C	0.568641	0.063798	0.352235
C220	C	1.068641	0.563798	0.852235
C221	C	0.502409	0.129985	0.352222
C222	C	1.002409	0.629985	0.852222
C223	C	0.490655	0.141732	0.470555
C224	C	0.990655	0.641732	0.970555
H225	H	0.023484	0.185690	0.000174
H226	H	0.523484	0.685690	0.500174
F227	F	0.520872	0.111544	0.833201
F228	F	1.020872	0.611544	1.333201
F229	F	0.691860	-0.059326	0.466818
F230	F	1.191860	0.440674	0.966818
H231	H	0.458905	0.173459	0.518737
H232	H	0.958905	0.673459	1.018737
F233	F	0.475864	-0.785068	0.000099
F234	F	0.975864	-0.285068	0.500099
H235	H	0.660785	-0.028266	0.696304
H236	H	1.160785	0.471734	1.196304
F237	F	0.657848	-0.810186	0.000149
F238	F	1.157848	-0.310186	0.500149
F239	F	0.417518	0.156570	0.000080
F240	F	0.917518	0.656570	0.500080
F241	F	0.483168	-0.065942	0.000165
F242	F	0.983168	0.434058	0.500165
H243	H	0.474396	0.157994	0.696239
H244	H	0.974396	0.657994	1.196239
H245	H	0.174734	0.187214	0.000143
H246	H	0.674734	0.687214	0.500143
H247	H	0.480229	0.152150	0.304035
H248	H	0.980229	0.652150	0.804035
H249	H	0.343341	-0.015387	0.000147
H250	H	0.843341	0.484613	0.500147
F251	F	0.216790	-0.071835	0.000207
F252	F	0.716790	0.428165	0.500207
F253	F	-0.276504	-0.032698	0.000213
F254	F	0.223496	0.467302	0.500213
F255	F	0.704281	-0.584351	0.000171
F256	F	1.204281	-0.084351	0.500171
H257	H	0.600391	0.032071	0.304078
H258	H	1.100391	0.532071	0.804078
H259	H	-0.180271	-0.020689	0.000227
H260	H	0.319729	0.479311	0.500227
H261	H	-0.033733	-0.063343	0.000220
H262	H	0.466267	0.436657	0.500220
H263	H	0.057715	-0.062416	0.000218
H264	H	0.557715	0.437584	0.500218
F265	F	0.476921	-0.681015	0.000081
F266	F	0.976921	-0.181015	0.500081
H267	H	0.434807	-0.014456	0.000139
H268	H	0.934807	0.485544	0.500139
F269	F	0.435208	-0.443022	0.000075
F270	F	0.935208	0.056978	0.500075
F271	F	0.313460	0.155521	0.000117
F272	F	0.813460	0.655521	0.500117
H273	H	0.446767	-0.391047	0.000064
H274	H	0.946767	0.108953	0.500064
F275	F	0.658910	-0.706113	0.000171
F276	F	1.158910	-0.206113	0.500171
H277	H	-0.067970	0.184762	0.000204
H278	H	0.432030	0.684762	0.500204
F279	F	0.665149	-0.091051	0.000241
F280	F	1.165149	0.408949	0.500241
F281	F	0.635631	-0.003143	0.344652
F282	F	1.135631	0.496857	0.844652
H283	H	0.493191	-0.165231	0.000181
H284	H	0.993191	0.334769	0.500181
F285	F	-0.197538	0.150344	0.000164
F286	F	0.302462	0.650344	0.500164
F287	F	-0.301613	0.149286	0.000176
F288	F	0.198387	0.649286	0.500176
H289	H	0.083285	0.186287	0.000155
H290	H	0.583285	0.686287	0.500155
F291	F	0.112724	-0.072897	0.000209
F292	F	0.612724	0.427103	0.500209
H293	H	0.695792	-0.333827	0.000207
H294	H	1.195792	0.166173	0.500207
F295	F	0.664100	-0.195111	0.000206
F296	F	1.164100	0.304889	0.500206
F297	F	0.436743	-0.291773	0.000063
F298	F	0.936743	0.208227	0.500063
F299	F	0.705823	-0.433098	0.000195
F300	F	1.205823	0.066902	0.500195
H301	H	0.694258	-0.485065	0.000181
H302	H	1.194258	0.014935	0.500181
H303	H	0.445235	-0.542293	0.000074
H304	H	0.945235	-0.042293	0.500074
