data_functionalizedCrystal
_audit_creation_method	'MofGen! by Chris Wilmer'
_symmetry_space_group_name_H-M	'P1'
_symmetry_Int_Tables_number	1
_symmetry_cell_setting	triclinic
loop_
_symmetry_equiv_pos_as_xyz
  x,y,z
_cell_length_a	19.805407
_cell_length_b	21.295417
_cell_length_c	19.805399
_cell_angle_alpha	90.029796
_cell_angle_beta	90.019573
_cell_angle_gamma	90.029702
loop_
_atom_site_label
_atom_site_type_symbol
_atom_site_fract_x
_atom_site_fract_y
_atom_site_fract_z
Zn1	Zn	1.034720	-0.250624	0.382709
Zn2	Zn	1.034629	-0.355893	0.269517
Zn3	Zn	0.921535	-0.250641	0.269534
Zn4	Zn	0.921492	-0.355859	0.382663
O5	O	0.978094	-0.303254	0.326106
O6	O	1.129425	-0.264595	0.367706
O7	O	1.019606	-0.341952	0.174802
O8	O	0.936605	-0.162549	0.284573
O9	O	1.129357	-0.341935	0.284544
O10	O	1.019762	-0.162537	0.367723
O11	O	0.936517	-0.264624	0.174815
O12	O	0.826813	-0.264592	0.284529
O13	O	0.936532	-0.341878	0.477386
O14	O	0.826781	-0.341895	0.367644
O15	O	1.019721	-0.264562	0.477420
O16	O	1.019564	-0.443977	0.284499
O17	O	0.936443	-0.443953	0.367628
C18	C	0.802238	-0.303242	0.326084
C19	C	0.727006	-0.303252	0.326091
C20	C	0.978008	-0.466806	0.326071
C21	C	0.978033	-0.536774	0.326079
C22	C	0.691663	-0.343564	0.369299
C23	C	0.620975	-0.343566	0.369308
C24	C	0.585630	-0.303257	0.326106
C25	C	0.620978	-0.262940	0.282895
C26	C	0.691665	-0.262936	0.282890
C27	C	0.335905	-0.262954	0.282918
C28	C	0.265213	-0.262962	0.282925
C29	C	0.265214	-0.343583	0.369336
C30	C	0.335901	-0.343579	0.369331
C31	C	0.371243	-0.303261	0.326123
C32	C	0.447891	-0.303259	0.326114
C33	C	0.508983	-0.303261	0.326111
C34	C	1.021308	-0.569577	0.369406
C35	C	1.021331	-0.635319	0.369423
C36	C	0.978087	-0.668256	0.326101
C37	C	0.934804	-0.635446	0.282771
C38	C	0.934777	-0.569704	0.282760
N39	N	0.972976	-0.771518	0.266865
N40	N	0.973006	-0.833969	0.266877
C41	C	0.978167	-0.866331	0.326131
N42	N	0.983309	-0.833882	0.385374
N43	N	0.983283	-0.771425	0.385362
C44	C	0.978112	-0.739542	0.326108
C45	C	1.021470	-0.970419	0.369480
C46	C	1.021489	-1.036163	0.369498
C47	C	0.934965	-1.036288	0.282840
C48	C	0.934942	-0.970546	0.282828
C49	C	0.978198	-0.937615	0.326147
C50	C	1.154637	-0.303267	0.326128
C51	C	1.229869	-0.303272	0.326138
C52	C	0.978132	-0.303214	0.502649
C53	C	0.978148	-0.303198	0.577881
C54	C	0.978199	-0.139064	0.326155
C55	C	0.978244	-0.069096	0.326176
C56	C	0.978095	-0.303248	0.150250
C57	C	0.978210	-0.303088	0.075018
C58	C	1.021465	-0.262937	0.613243
C59	C	1.021472	-0.262919	0.683932
C60	C	0.978165	-0.303165	0.719256
C61	C	0.934843	-0.343427	0.683888
C62	C	0.934833	-0.343441	0.613201
C63	C	0.934881	-0.343368	0.968962
C64	C	0.934896	-0.343352	1.039654
C65	C	1.021520	-0.262846	1.039692
C66	C	1.021510	-0.262860	0.969005
C67	C	0.978186	-0.303120	0.933644
C68	C	0.978178	-0.303138	0.856995
C69	C	0.978176	-0.303150	0.795903
H70	H	0.592201	-0.376392	0.404492
N71	N	0.727768	-0.221768	0.238742
N72	N	0.767182	-0.243859	0.195562
H73	H	0.792678	-0.214781	0.164382
H74	H	0.899593	-0.662267	0.247499
N75	N	0.229123	-0.384764	0.413488
N76	N	0.260689	-0.420750	0.452057
H77	H	0.235202	-0.449835	0.483238
H78	H	0.899553	-0.376219	0.584410
N79	N	0.890624	-0.384495	0.932857
N80	N	0.851964	-0.420426	0.964408
H81	H	0.820705	-0.449475	0.938907
H82	H	0.899751	-1.063105	0.247570
N83	N	1.065693	-0.221825	0.577153
N84	N	1.065679	-0.221840	0.514040
H85	H	1.096914	-0.192802	0.488552
N86	N	0.727753	-0.384749	0.413429
N87	N	0.696184	-0.420739	0.452004
H88	H	0.721670	-0.449827	0.483173
N89	N	0.371989	-0.221771	0.238776
N90	N	0.340421	-0.185789	0.200203
H91	H	0.365907	-0.156703	0.169023
N92	N	0.890604	-0.384528	0.719980
N93	N	0.890618	-0.384511	0.783092
H94	H	0.859374	-0.413540	0.808582
H95	H	0.364675	-0.376405	0.404509
H96	H	0.592195	-0.230118	0.247722
N97	N	0.229119	-0.221783	0.238787
N98	N	0.260680	-0.185787	0.200212
H99	H	0.235189	-0.156706	0.169040
N100	N	1.065532	-0.668845	0.413680
N101	N	1.041712	-0.705526	0.456793
H102	H	1.072930	-0.729203	0.488049
H103	H	1.056527	-0.542767	0.404681
H104	H	0.899707	-0.943836	0.247544
N105	N	0.890564	-0.536203	0.238498
N106	N	0.851950	-0.565615	0.199824
H107	H	0.820724	-0.541955	0.168563
N108	N	1.065656	-0.936787	0.413732
N109	N	1.104289	-0.966086	0.452419
H110	H	1.135496	-0.942336	0.483672
N111	N	1.065724	-0.221790	0.720043
N112	N	1.104391	-0.185863	0.688496
H113	H	1.135647	-0.156813	0.713999
H114	H	1.056728	-1.062870	0.404783
H115	H	1.056778	-0.230090	0.940248
N116	N	1.065772	-0.221724	1.075825
N117	N	1.065778	-0.221713	1.138938
H118	H	1.097031	-0.192673	1.164456
N119	N	0.890649	-0.384466	1.075728
N120	N	0.851968	-0.420406	1.044148
H121	H	0.820719	-0.449441	1.069625
