data_functionalizedCrystal
_audit_creation_method	'MofGen! by Chris Wilmer'
_symmetry_space_group_name_H-M	'P1'
_symmetry_Int_Tables_number	1
_symmetry_cell_setting	triclinic
loop_
_symmetry_equiv_pos_as_xyz
  x,y,z
_cell_length_a	11.792241
_cell_length_b	15.072220
_cell_length_c	11.792254
_cell_angle_alpha	90.001249
_cell_angle_beta	84.196007
_cell_angle_gamma	90.008318
loop_
_atom_site_label
_atom_site_type_symbol
_atom_site_fract_x
_atom_site_fract_y
_atom_site_fract_z
O1	O	1.506930	0.073697	0.155559
O2	O	1.176589	0.073717	0.171592
O3	O	1.349769	0.073700	-0.001594
O4	O	1.333751	0.073714	0.328745
O5	O	1.349726	-0.073865	-0.001584
O6	O	1.176546	-0.073848	0.171602
O7	O	1.506887	-0.073868	0.155569
Zn8	Zn	1.341710	-0.097287	0.163587
Zn9	Zn	1.341766	0.097136	0.163574
O10	O	1.333708	-0.073851	0.328755
C11	C	1.134277	-0.000062	0.170590
C12	C	1.008263	-0.000055	0.167576
N13	N	1.341679	-0.229976	0.163595
C14	C	0.777551	-0.000080	0.162033
C15	C	0.905936	-0.000066	0.165112
C16	C	1.341764	-0.589177	0.163570
C17	C	1.248784	-0.551561	0.255924
C18	C	1.249001	-0.448736	0.256264
C19	C	1.341721	-0.410973	0.163582
C20	C	1.460310	-0.448271	0.190177
C21	C	1.459790	-0.551129	0.190834
C22	C	1.317209	-0.551281	0.044352
C23	C	1.314497	-0.448417	0.045130
C24	C	1.341704	-0.310260	0.163587
C25	C	1.341789	-0.689891	0.163568
C26	C	1.549199	-0.000086	0.156571
C27	C	1.675213	-0.000088	0.159586
C28	C	1.348738	-0.000082	-0.043880
C29	C	1.345718	-0.000081	-0.169893
N30	N	1.341806	0.229825	0.163558
C31	C	1.343264	-0.000078	-0.272229
C32	C	1.340196	-0.000069	-0.400616
C33	C	1.334738	-0.000067	0.371041
C34	C	1.337758	-0.000062	0.497054
H35	H	1.160875	-0.423520	0.240312
F36	F	1.489096	-0.414588	0.302559
H37	H	1.531182	-0.423809	0.124731
H38	H	1.160376	-0.576318	0.240223
H39	H	1.232573	-0.577267	0.018960
H40	H	1.531179	-0.576010	0.126260
F41	F	1.200469	-0.416557	0.018769
F42	F	1.397198	-0.414833	-0.048983
H43	H	1.264328	-0.577397	0.343879
F44	F	1.269558	-0.416556	0.371891
H45	H	1.481315	-0.575108	0.277801
F46	F	1.405823	-0.583075	-0.045491
