data_functionalizedCrystal
_audit_creation_method	'MofGen! by Chris Wilmer'
_symmetry_space_group_name_H-M	'P1'
_symmetry_Int_Tables_number	1
_symmetry_cell_setting	triclinic
loop_
_symmetry_equiv_pos_as_xyz
  x,y,z
_cell_length_a	14.971486
_cell_length_b	14.048226
_cell_length_c	14.971494
_cell_angle_alpha	90.004714
_cell_angle_beta	83.615843
_cell_angle_gamma	90.001501
loop_
_atom_site_label
_atom_site_type_symbol
_atom_site_fract_x
_atom_site_fract_y
_atom_site_fract_z
O1	O	1.186951	0.079047	0.116564
O2	O	1.686951	0.579047	0.616564
O3	O	0.926551	0.079073	0.130523
O4	O	1.426551	0.579073	0.630523
O5	O	1.063726	0.079057	-0.006656
O6	O	1.563726	0.579057	0.493344
O7	O	1.049775	0.079063	0.253743
O8	O	1.549775	0.579063	0.753743
O9	O	1.063710	-0.079264	-0.006664
O10	O	1.563710	0.420736	0.493336
O11	O	0.926534	-0.079248	0.130515
O12	O	1.426534	0.420752	0.630515
O13	O	1.186934	-0.079274	0.116556
O14	O	1.686934	0.420726	0.616556
Zn15	Zn	1.056732	-0.104398	0.123534
Zn16	Zn	1.556732	0.395602	0.623534
Zn17	Zn	1.056753	0.104197	0.123545
Zn18	Zn	1.556753	0.604197	0.623545
O19	O	1.049759	-0.079258	0.253735
O20	O	1.549759	0.420742	0.753735
C21	C	0.893218	-0.000084	0.129895
C22	C	1.393218	0.499916	0.629895
C23	C	0.793921	-0.000075	0.128024
C24	C	1.293921	0.499925	0.628024
N25	N	1.056723	-0.246759	0.123526
N26	N	1.556723	0.253241	0.623526
C27	C	0.736698	-0.000074	0.208613
C28	C	1.236698	0.499926	0.708613
C29	C	0.643398	-0.000088	0.206850
C30	C	1.143398	0.499912	0.706850
C31	C	0.607323	-0.000096	0.124497
C32	C	1.107323	0.499904	0.624497
C33	C	0.664554	-0.000100	0.043902
C34	C	1.164554	0.499900	0.543902
C35	C	0.757851	-0.000092	0.045666
C36	C	1.257851	0.499908	0.545666
C37	C	0.470091	-0.000113	0.040231
C38	C	0.970091	0.499887	0.540231
C39	C	0.376787	-0.000118	0.038466
C40	C	0.876787	0.499882	0.538466
C41	C	0.355638	-0.000109	0.201415
C42	C	0.855638	0.499891	0.701415
C43	C	0.448936	-0.000102	0.203179
C44	C	0.948936	0.499898	0.703179
C45	C	0.506160	-0.000103	0.122583
C46	C	1.006160	0.499897	0.622583
C47	C	1.117484	-0.296584	0.062809
C48	C	1.617484	0.203416	0.562809
C49	C	1.117490	-0.396241	0.062808
C50	C	1.617490	0.103759	0.562808
C51	C	1.056739	-0.446072	0.123530
C52	C	1.556739	0.053928	0.623530
C53	C	0.995972	-0.396240	0.184251
C54	C	1.495972	0.103760	0.684251
C55	C	0.995962	-0.296584	0.184246
C56	C	1.495962	0.203416	0.684246
C57	C	0.995998	-0.603955	0.184257
C58	C	1.495998	-0.103955	0.684257
C59	C	0.996008	-0.703617	0.184263
C60	C	1.496008	-0.203617	0.684263
C61	C	1.117525	-0.703611	0.062819
C62	C	1.617525	-0.203611	0.562819
C63	C	1.117515	-0.603956	0.062815
C64	C	1.617515	-0.103956	0.562815
C65	C	1.056749	-0.554131	0.123537
C66	C	1.556749	-0.054131	0.623537
C67	C	1.220267	-0.000114	0.117184
C68	C	1.720267	0.499886	0.617184
C69	C	1.319564	-0.000118	0.119055
C70	C	1.819564	0.499882	0.619055
C71	C	1.063093	-0.000102	-0.039985
C72	C	1.563093	0.499898	0.460015
C73	C	1.061219	-0.000097	-0.139281
C74	C	1.561219	0.499903	0.360719
N75	N	1.056769	0.246558	0.123546
N76	N	1.556769	0.746558	0.623546
C77	C	1.060350	0.086205	-0.185922
C78	C	1.560350	0.586205	0.314078
C79	C	1.058583	0.086206	-0.279221
C80	C	1.558583	0.586206	0.220779
C81	C	1.057693	-0.000096	-0.325879
C82	C	1.557693	0.499904	0.174121
C83	C	1.058559	-0.086404	-0.279231
C84	C	1.558559	0.413596	0.220769
C85	C	1.060319	-0.086405	-0.185933
C86	C	1.560319	0.413595	0.314067
C87	C	1.054893	-0.086398	-0.473695
C88	C	1.554893	0.413602	0.026305
C89	C	1.053135	-0.086398	-0.566999
C90	C	1.553135	0.413602	-0.066999
C91	C	1.053158	0.086213	-0.566982
C92	C	1.553158	0.586213	-0.066982
C93	C	1.054917	0.086213	-0.473684
C94	C	1.554917	0.586213	0.026316
C95	C	1.055786	-0.000096	-0.427043
C96	C	1.555786	0.499904	0.072957
C97	C	1.050392	-0.000097	0.287064
C98	C	1.550392	0.499903	0.787064
C99	C	1.052266	-0.000095	0.386360
C100	C	1.552266	0.499905	0.886360
H101	H	0.766062	-0.000067	0.275674
H102	H	1.266062	0.499933	0.775674
C103	C	1.184365	-0.758421	-0.003979
C104	C	1.684365	-0.258421	0.496021
N105	N	1.234709	-0.799708	-0.054288
N106	N	1.734709	-0.299708	0.445712
C107	C	0.533036	-0.000111	-0.048429
C108	C	1.033036	0.499889	0.451571
N109	N	0.580445	-0.000103	-0.115207
N110	N	1.080445	0.499897	0.384793
C111	C	1.055852	-0.181343	-0.422393
C112	C	1.555852	0.318657	0.077607
N113	N	1.056580	-0.252854	-0.383753
N114	N	1.556580	0.247146	0.116247
H115	H	1.166957	-0.256018	0.013365
H116	H	1.666957	0.243982	0.513365
H117	H	0.946484	-0.256018	0.233688
H118	H	1.446484	0.243982	0.733688
C119	C	1.061329	0.181145	-0.134607
C120	C	1.561329	0.681145	0.365393
N121	N	1.062063	0.252658	-0.095958
N122	N	1.562063	0.752658	0.404042
C123	C	1.052197	0.181155	-0.618288
C124	C	1.552197	0.681155	-0.118288
N125	N	1.051476	0.252661	-0.656935
N126	N	1.551476	0.752661	-0.156935
H127	H	0.635174	-0.000120	-0.023152
H128	H	1.135174	0.499880	0.476848
H129	H	1.166987	-0.563383	0.013375
H130	H	1.666987	-0.063383	0.513375
C131	C	1.184309	-0.451044	-0.004008
C132	C	1.684309	0.048956	0.495992
N133	N	1.234633	-0.492321	-0.054345
N134	N	1.734633	0.007679	0.445655
C135	C	0.929174	-0.758429	0.251055
C136	C	1.429174	-0.258429	0.751055
N137	N	0.878832	-0.799714	0.301363
N138	N	1.378832	-0.299714	0.801363
H139	H	0.946513	-0.563390	0.233701
H140	H	1.446513	-0.063390	0.733701
H141	H	0.804442	-0.000092	-0.019958
H142	H	1.304442	0.499908	0.480042
H143	H	0.946503	-0.436818	0.233689
H144	H	1.446503	0.063182	0.733689
H145	H	1.057829	-0.156673	-0.317227
H146	H	1.557829	0.343327	0.182773
H147	H	0.478304	-0.000086	0.270238
H148	H	0.978304	0.499914	0.770238
C149	C	1.057710	0.181146	-0.330531
C150	C	1.557710	0.681146	0.169469
N151	N	1.057080	0.252658	-0.369182
N152	N	1.557080	0.752658	0.130818
C153	C	1.052149	-0.181334	-0.618320
C154	C	1.552149	0.318666	-0.118320
N155	N	1.051404	-0.252841	-0.656975
N156	N	1.551404	0.247159	-0.156975
C157	C	0.580456	-0.000105	0.295504
C158	C	1.080456	0.499895	0.795504
N159	N	0.533049	-0.000125	0.362283
N160	N	1.033049	0.499875	0.862283
H161	H	1.055649	0.156488	-0.435698
H162	H	1.555649	0.656488	0.064302
C163	C	0.292690	-0.000113	0.290071
C164	C	0.792690	0.499887	0.790071
N165	N	0.245274	-0.000112	0.356844
N166	N	0.745274	0.499888	0.856844
H167	H	1.061014	-0.156681	-0.147958
H168	H	1.561014	0.343319	0.352042
H169	H	0.347418	-0.000126	-0.028593
H170	H	0.847418	0.499874	0.471407
