data_functionalizedCrystal
_audit_creation_method	'MofGen! by Chris Wilmer'
_symmetry_space_group_name_H-M	'P1'
_symmetry_Int_Tables_number	1
_symmetry_cell_setting	triclinic
loop_
_symmetry_equiv_pos_as_xyz
  x,y,z
_cell_length_a	15.995292
_cell_length_b	14.519709
_cell_length_c	12.996460
_cell_angle_alpha	90.007090
_cell_angle_beta	90.006758
_cell_angle_gamma	83.574380
loop_
_atom_site_label
_atom_site_type_symbol
_atom_site_fract_x
_atom_site_fract_y
_atom_site_fract_z
O1	O	-1.111195	-0.118619	-0.085597
O2	O	-0.867435	-0.133355	-0.085593
O3	O	-0.995778	0.008265	-0.085586
O4	O	-0.982852	-0.260239	-0.085604
O5	O	-0.995764	0.008272	0.085548
O6	O	-0.867421	-0.133347	0.085541
O7	O	-1.111181	-0.118612	0.085537
Cu8	Cu	-0.989300	-0.125979	0.101165
Cu9	Cu	-0.989316	-0.125988	-0.101221
O10	O	-0.982838	-0.260231	0.085530
C11	C	-0.836232	-0.132751	-0.000026
C12	C	-0.743276	-0.130953	-0.000024
C13	C	-1.142384	-0.119215	-0.000033
C14	C	-1.235340	-0.121013	-0.000041
C15	C	-0.405528	-0.124343	-0.000035
C16	C	-0.428993	-0.226560	-0.000424
C17	C	-0.525671	-0.228503	-0.000034
C18	C	-0.573088	-0.127623	-0.000030
C19	C	-0.543902	-0.076515	0.097696
C20	C	-0.447110	-0.075284	0.097773
C21	C	-0.447267	-0.073206	-0.096838
C22	C	-0.543765	-0.076994	-0.098125
C23	C	-0.667787	-0.129471	-0.000024
C24	C	-0.310829	-0.122492	-0.000034
C25	C	-0.995168	0.042627	-0.000019
C26	C	-0.993363	0.145005	-0.000018
C27	C	-0.983447	-0.294593	-0.000040
C28	C	-0.985253	-0.396971	-0.000047
N29	N	-0.989295	-0.125971	0.243512
C30	C	-0.986718	0.519887	-0.000045
C31	C	-0.988563	0.415583	-0.000037
C32	C	-0.990040	0.332449	-0.000031
C33	C	-0.991886	0.228138	-0.000025
N34	N	-0.989328	-0.125988	-0.243568
C35	C	-0.989315	-0.125989	0.663326
C36	C	-0.989307	-0.125987	0.546521
C37	C	-0.989305	-0.125981	0.453423
C38	C	-0.989297	-0.125978	0.336610
H39	H	-0.401061	-0.265963	-0.070508
N40	N	-0.583765	0.016600	0.102282
N41	N	-0.629111	0.042568	0.177487
H42	H	-0.657271	0.108328	0.180725
N43	N	-0.569115	-0.121012	0.188944
N44	N	-0.616885	-0.076750	0.252182
H45	H	-0.634689	-0.108179	0.316626
H46	H	-0.420340	-0.110673	0.170822
H47	H	-0.418993	-0.105159	-0.170908
N48	N	-0.567121	-0.123659	-0.188840
N49	N	-0.511804	-0.156749	-0.250577
H50	H	-0.528302	-0.189705	-0.314646
N51	N	-0.548881	-0.279012	0.087963
N52	N	-0.585340	-0.350099	0.076466
H53	H	-0.601744	-0.385777	0.138610
H54	H	-0.544763	-0.268523	-0.070091
H55	H	-0.432447	-0.000338	0.102216
N56	N	-0.392655	-0.275701	0.086998
N57	N	-0.349552	-0.235768	0.149588
H58	H	-0.323888	-0.270470	0.211333
H59	H	-0.576625	-0.003362	-0.104025
N60	N	-0.429592	0.021186	-0.097635
N61	N	-0.386456	0.050776	-0.027295
H62	H	-0.373976	0.117440	-0.027844
