data_functionalizedCrystal
_audit_creation_method	'MofGen! by Chris Wilmer'
_symmetry_space_group_name_H-M	'P1'
_symmetry_Int_Tables_number	1
_symmetry_cell_setting	triclinic
loop_
_symmetry_equiv_pos_as_xyz
  x,y,z
_cell_length_a	16.120484
_cell_length_b	12.827893
_cell_length_c	12.827885
_cell_angle_alpha	90.019272
_cell_angle_beta	92.863928
_cell_angle_gamma	87.074569
loop_
_atom_site_label
_atom_site_type_symbol
_atom_site_fract_x
_atom_site_fract_y
_atom_site_fract_z
Zn1	Zn	-0.331866	-1.576504	-0.611895
Zn2	Zn	0.001467	-1.243170	-0.278562
Zn3	Zn	0.334800	-0.909837	0.054771
Zn4	Zn	-0.471301	-1.567505	-0.445998
Zn5	Zn	-0.137968	-1.234171	-0.112665
Zn6	Zn	0.195365	-0.900838	0.220668
Zn7	Zn	-0.331907	-1.401742	-0.437171
Zn8	Zn	0.001426	-1.068409	-0.103838
Zn9	Zn	0.334760	-0.735076	0.229495
Zn10	Zn	-0.471239	-1.392841	-0.620694
Zn11	Zn	-0.137906	-1.059508	-0.287361
Zn12	Zn	0.195427	-0.726175	0.045972
O13	O	-0.401579	-1.484648	-0.528940
O14	O	-0.068245	-1.151315	-0.195607
O15	O	0.265088	-0.817981	0.137727
O16	O	-0.350372	-1.721545	-0.589900
O17	O	-0.017038	-1.388212	-0.256567
O18	O	0.316295	-1.054879	0.076766
O19	O	-0.452853	-1.545475	-0.298594
O20	O	-0.119520	-1.212142	0.034739
O21	O	0.213813	-0.878809	0.368073
O22	O	-0.215236	-1.432416	-0.452972
O23	O	0.118097	-1.099083	-0.119639
O24	O	0.451430	-0.765749	0.213694
O25	O	-0.452814	-1.714934	-0.468017
O26	O	-0.119481	-1.381601	-0.134683
O27	O	0.213853	-1.048267	0.198650
O28	O	-0.215206	-1.560812	-0.581341
O29	O	0.118127	-1.227479	-0.248008
O30	O	0.451460	-0.894146	0.085325
O31	O	-0.350441	-1.423690	-0.292109
O32	O	-0.017107	-1.090357	0.041224
O33	O	0.316226	-0.757024	0.374558
O34	O	-0.350381	-1.254326	-0.461505
O35	O	-0.017047	-0.920993	-0.128171
O36	O	0.316286	-0.587660	0.205162
O37	O	-0.452708	-1.417245	-0.765761
O38	O	-0.119375	-1.083912	-0.432427
O39	O	0.213958	-0.750579	-0.099094
O40	O	-0.452748	-1.247787	-0.596338
O41	O	-0.119414	-0.914453	-0.263005
O42	O	0.213919	-0.581120	0.070329
O43	O	-0.350311	-1.552181	-0.759296
O44	O	-0.016978	-1.218848	-0.425963
O45	O	0.316355	-0.885515	-0.092629
O46	O	-0.587959	-1.536844	-0.476549
O47	O	-0.254625	-1.203511	-0.143215
O48	O	0.078708	-0.870177	0.190118
O49	O	-0.587913	-1.408520	-0.604897
O50	O	-0.254580	-1.075186	-0.271564
O51	O	0.078754	-0.741853	0.061769
C52	C	-0.401562	-1.213139	-0.528919
C53	C	-0.068229	-0.879806	-0.195586
C54	C	0.265104	-0.546473	0.137748
C55	C	-0.401576	-1.096985	-0.528936
C56	C	-0.068242	-0.763652	-0.195603
C57	C	0.265091	-0.430319	0.137731
C58	C	-0.618186	-1.470768	-0.542658
C59	C	-0.284852	-1.137434	-0.209325
C60	C	0.048481	-0.804101	0.124008
C61	C	-0.710851	-1.464925	-0.548562
C62	C	-0.377518	-1.131592	-0.215229
C63	C	-0.044185	-0.798259	0.118104
C64	C	-0.401498	-1.484724	-0.801505
C65	C	-0.068165	-1.151391	-0.468172
C66	C	0.265168	-0.818058	-0.134838
C67	C	-0.401464	-1.484757	-0.917656
C68	C	-0.068131	-1.151423	-0.584323
C69	C	0.265202	-0.818090	-0.250990
C70	C	-0.880512	-1.454265	-0.559362
C71	C	-0.547179	-1.120931	-0.226029
C72	C	-0.213846	-0.787598	0.107304
C73	C	-0.921804	-1.515219	-0.498534
C74	C	-0.588471	-1.181885	-0.165201
C75	C	-0.255138	-0.848552	0.168132
C76	C	-1.016209	-1.509287	-0.504544
C77	C	-0.682876	-1.175954	-0.171210
C78	C	-0.349543	-0.842620	0.162123
C79	C	-0.786099	-1.460195	-0.553355
C80	C	-0.452765	-1.126862	-0.220021
C81	C	-0.119432	-0.793528	0.113312
C82	C	-0.184125	-1.498611	-0.515191
C83	C	0.149208	-1.165278	-0.181857
C84	C	0.482541	-0.831944	0.151476
C85	C	-0.091460	-1.504561	-0.509332
C86	C	0.241873	-1.171228	-0.175998
C87	C	0.575207	-0.837894	0.157335
C88	C	-0.401595	-1.757217	-0.528962
C89	C	-0.068262	-1.423884	-0.195628
C90	C	0.265071	-1.090550	0.137705
C91	C	-0.401602	-1.873370	-0.528971
C92	C	-0.068269	-1.540036	-0.195637
C93	C	0.265064	-1.206703	0.137696
C94	C	-0.452309	-1.041987	-0.595563
C95	C	-0.118976	-0.708654	-0.262230
C96	C	0.214357	-0.375320	0.071104
C97	C	-0.452324	-0.921936	-0.595582
C98	C	-0.118991	-0.588602	-0.262249
C99	C	0.214343	-0.255269	0.071084
C100	C	-0.350785	-1.551535	-0.966241
C101	C	-0.017452	-1.218202	-0.632908
C102	C	0.315881	-0.884868	-0.299575
C103	C	-0.350749	-1.551570	-1.086289
C104	C	-0.017415	-1.218237	-0.752956
C105	C	0.315918	-0.884903	-0.419623
C106	C	-0.401598	-1.484636	-0.257431
C107	C	-0.068265	-1.151303	0.075902
C108	C	0.265069	-0.817969	0.409235
C109	C	-0.401397	-1.484821	-0.141266
C110	C	-0.068064	-1.151488	0.192067
C111	C	0.265269	-0.818154	0.525401
H112	H	-0.916059	-1.397630	-0.615947
H113	H	-0.582726	-1.064296	-0.282614
H114	H	-0.249393	-0.730963	0.050720
H115	H	-0.495730	-1.083779	-0.652594
H116	H	-0.162397	-0.750445	-0.319261
H117	H	0.170936	-0.417112	0.014073
H118	H	-0.444791	-1.427651	-1.099479
H119	H	-0.111458	-1.094317	-0.766145
H120	H	0.221876	-0.760984	-0.432812
H121	H	-0.444820	-1.427605	-0.964935
H122	H	-0.111487	-1.094272	-0.631602
H123	H	0.221846	-0.760939	-0.298269
O124	O	-0.293349	-1.627244	-0.903630
O125	O	0.039985	-1.293911	-0.570297
O126	O	0.373318	-0.960577	-0.236963
H127	H	-0.302397	-1.615344	-0.819165
H128	H	0.030936	-1.282010	-0.485832
H129	H	0.364269	-0.948677	-0.152498
H130	H	-0.358148	-1.055194	-0.471913
H131	H	-0.024815	-0.721861	-0.138579
H132	H	0.308518	-0.388527	0.194754
H133	H	-0.886255	-1.571857	-0.441944
H134	H	-0.552921	-1.238524	-0.108611
H135	H	-0.219588	-0.905190	0.224723
H136	H	-0.307363	-1.608744	-1.128084
H137	H	0.025970	-1.275411	-0.794751
H138	H	0.359303	-0.942078	-0.461417
H139	H	-0.495761	-0.874651	-0.652621
H140	H	-0.162428	-0.541317	-0.319288
H141	H	0.170905	-0.207984	0.014045
H142	H	-0.358168	-0.920648	-0.471922
H143	H	-0.024835	-0.587314	-0.138589
H144	H	0.308498	-0.253981	0.194744
