data_functionalizedCrystal
_audit_creation_method	'MofGen! by Chris Wilmer'
_symmetry_space_group_name_H-M	'P1'
_symmetry_Int_Tables_number	1
_symmetry_cell_setting	triclinic
loop_
_symmetry_equiv_pos_as_xyz
  x,y,z
_cell_length_a	17.699077
_cell_length_b	10.723023
_cell_length_c	16.776229
_cell_angle_alpha	89.994384
_cell_angle_beta	89.993415
_cell_angle_gamma	83.874062
loop_
_atom_site_label
_atom_site_type_symbol
_atom_site_fract_x
_atom_site_fract_y
_atom_site_fract_z
O1	O	1.005076	0.157762	-0.066276
O2	O	1.505076	0.657762	0.433724
O3	O	0.784827	0.178299	-0.066280
O4	O	1.284827	0.678299	0.433720
O5	O	0.900032	-0.013633	-0.066274
O6	O	1.400032	0.486367	0.433726
O7	O	0.889871	0.349694	-0.066281
O8	O	1.389871	0.849694	0.433719
O9	O	0.900017	-0.013645	0.066302
O10	O	1.400017	0.486355	0.566302
O11	O	0.784811	0.178287	0.066297
O12	O	1.284811	0.678287	0.566297
O13	O	1.005061	0.157750	0.066301
O14	O	1.505061	0.657750	0.566301
Zn15	Zn	0.894933	0.168017	0.087348
Zn16	Zn	1.394933	0.668017	0.587348
Zn17	Zn	0.894954	0.168032	-0.087327
Zn18	Zn	1.394954	0.668032	0.412673
O19	O	0.889855	0.349682	0.066295
O20	O	1.389855	0.849682	0.566295
C21	C	0.756617	0.177559	0.000008
C22	C	1.256617	0.677559	0.500008
C23	C	0.672585	0.175355	0.000007
C24	C	1.172585	0.675355	0.500007
C25	C	0.633103	0.174310	0.072275
C26	C	1.133103	0.674310	0.572275
C27	C	0.554147	0.172219	0.072276
C28	C	1.054147	0.672219	0.572276
C29	C	0.514674	0.171182	0.000008
C30	C	1.014674	0.671182	0.500008
C31	C	0.554163	0.172224	-0.072266
C32	C	1.054163	0.672224	0.427734
C33	C	0.633117	0.174305	-0.072266
C34	C	1.133117	0.674305	0.427734
C35	C	0.235746	0.163826	-0.072268
C36	C	0.735746	0.663826	0.427732
C37	C	0.156786	0.161748	-0.072262
C38	C	0.656786	0.661748	0.427738
C39	C	0.156776	0.161740	0.072275
C40	C	0.656776	0.661740	0.572275
C41	C	0.235731	0.163822	0.072275
C42	C	0.735731	0.663822	0.572275
C43	C	0.275212	0.164856	0.000001
C44	C	0.775212	0.664856	0.500001
C45	C	0.360825	0.167121	0.000001
C46	C	0.860825	0.667121	0.500001
C47	C	0.429062	0.168927	0.000007
C48	C	0.929062	0.668927	0.500007
C49	C	0.899285	-0.060126	0.000013
C50	C	1.399285	0.439874	0.500013
C51	C	0.897073	-0.198642	0.000010
C52	C	1.397073	0.301358	0.500010
C53	C	0.896095	-0.260385	-0.068669
C54	C	1.396095	0.239615	0.431331
C55	C	0.893809	-0.403549	-0.068674
C56	C	1.393809	0.096451	0.431326
C57	C	1.033270	0.158490	0.000011
C58	C	1.533270	0.658490	0.500011
C59	C	1.117302	0.160694	0.000007
C60	C	1.617302	0.660694	0.500007
C61	C	0.890602	0.396175	0.000006
C62	C	1.390602	0.896175	0.500006
C63	C	0.892814	0.534691	0.000004
C64	C	1.392814	1.034691	0.500004
N65	N	0.894925	0.168005	0.206559
N66	N	1.394925	0.668005	0.706559
N67	N	0.894968	0.168034	-0.206538
N68	N	1.394968	0.668034	0.293462
C69	C	0.945954	0.083053	0.248279
C70	C	1.445954	0.583053	0.748279
C71	C	0.945958	0.083052	0.331731
C72	C	1.445958	0.583052	0.831731
C73	C	0.894937	0.168010	0.373462
C74	C	1.394937	0.668010	0.873462
C75	C	0.843902	0.252967	0.331737
C76	C	1.343902	0.752967	0.831737
C77	C	0.843895	0.252961	0.248286
C78	C	1.343895	0.752961	0.748286
C79	C	0.843930	0.252992	0.668284
C80	C	1.343930	0.752992	1.168284
C81	C	0.843942	0.252994	0.751741
C82	C	1.343942	0.752994	1.251741
C83	C	0.945993	0.083082	0.751729
C84	C	1.445993	0.583082	1.251729
C85	C	0.945986	0.083076	0.668278
C86	C	1.445986	0.583076	1.168278
C87	C	0.894949	0.168028	0.626560
C88	C	1.394949	0.668028	1.126560
C89	C	0.894944	0.168026	0.536072
C90	C	1.394944	0.668026	1.036072
C91	C	0.894945	0.168019	0.463949
C92	C	1.394945	0.668019	0.963949
H93	H	0.665235	0.175164	0.131124
H94	H	1.165235	0.675164	0.631124
H95	H	0.802356	0.322138	0.365719
H96	H	1.302356	0.822138	0.865719
H97	H	0.802392	0.322180	0.785717
H98	H	1.302392	0.822180	1.285717
H99	H	0.987535	0.013899	0.634303
H100	H	1.487535	0.513899	1.134303
H101	H	0.665263	0.175159	-0.131115
H102	H	1.165263	0.675159	0.368885
C103	C	0.897255	-0.188618	-0.148103
C104	C	1.397255	0.311382	0.351897
N105	N	0.898131	-0.134566	-0.207935
N106	N	1.398131	0.365434	0.292065
H107	H	0.802341	0.322137	0.214319
H108	H	1.302341	0.822137	0.714319
H109	H	0.267883	0.164665	-0.131117
H110	H	0.767883	0.664665	0.368883
H111	H	0.267865	0.164672	0.131123
H112	H	0.767865	0.664672	0.631123
H113	H	0.522005	0.171347	0.131124
H114	H	1.022005	0.671347	0.631124
H115	H	0.892971	-0.456647	-0.127473
H116	H	1.392971	0.043353	0.372527
C117	C	0.893949	-0.393588	0.079445
C118	C	1.393949	0.106412	0.579445
N119	N	0.894802	-0.339558	0.139280
N120	N	1.394802	0.160442	0.639280
H121	H	0.124621	0.160892	0.131123
H122	H	0.624621	0.660892	0.631123
C123	C	1.002082	-0.010411	0.202382
C124	C	1.502082	0.489589	0.702382
N125	N	1.044358	-0.080815	0.167815
N126	N	1.544358	0.419185	0.667815
H127	H	0.522018	0.171370	-0.131108
H128	H	1.022018	0.671370	0.368892
C129	C	0.787887	0.346603	0.622405
C130	C	1.287887	0.846603	1.122405
N131	N	0.745708	0.417173	0.587847
N132	N	1.245708	0.917173	1.087847
H133	H	0.896213	-0.251769	0.058806
H134	H	1.396213	0.248231	0.558806
C135	C	1.002128	-0.010379	0.797626
C136	C	1.502128	0.489621	1.297626
N137	N	1.044409	-0.080771	0.832194
N138	N	1.544409	0.419229	1.332194
C139	C	1.002076	-0.010433	0.377618
C140	C	1.502076	0.489567	0.877618
N141	N	1.044339	-0.080862	0.412180
N142	N	1.544339	0.419138	0.912180
C143	C	0.113368	0.160594	-0.151767
C144	C	0.613368	0.660594	0.348233
N145	N	0.080667	0.159722	-0.211646
N146	N	0.580667	0.659722	0.288354
