data_functionalizedCrystal
_audit_creation_method	'MofGen! by Chris Wilmer'
_symmetry_space_group_name_H-M	'P1'
_symmetry_Int_Tables_number	1
_symmetry_cell_setting	triclinic
loop_
_symmetry_equiv_pos_as_xyz
  x,y,z
_cell_length_a	13.897449
_cell_length_b	15.298530
_cell_length_c	15.296720
_cell_angle_alpha	91.639580
_cell_angle_beta	80.337801
_cell_angle_gamma	99.680571
loop_
_atom_site_label
_atom_site_type_symbol
_atom_site_fract_x
_atom_site_fract_y
_atom_site_fract_z
Zn1	Zn	1.313877	-0.434394	0.434919
Zn2	Zn	1.323195	-0.555541	0.263117
Zn3	Zn	1.184365	-0.409086	0.288463
Zn4	Zn	1.130181	-0.580829	0.409550
O5	O	1.237905	-0.494962	0.349012
O6	O	1.450091	-0.450473	0.412139
O7	O	1.331355	-0.514940	0.143904
O8	O	1.220321	-0.289868	0.329115
O9	O	1.456937	-0.539479	0.285917
O10	O	1.315473	-0.308461	0.436716
O11	O	1.229357	-0.407340	0.162526
O12	O	1.042199	-0.431860	0.304515
O13	O	1.127973	-0.582578	0.535490
O14	O	1.002391	-0.558038	0.393477
O15	O	1.262933	-0.474993	0.554128
O16	O	1.278816	-0.681471	0.261317
O17	O	1.137009	-0.700050	0.368900
C18	C	0.987296	-0.494947	0.348994
C19	C	0.880077	-0.494966	0.349004
C20	C	1.188370	-0.534429	0.577480
C21	C	1.167261	-0.551247	0.674839
C22	C	1.203066	-0.722546	0.309625
C23	C	1.188244	-0.819913	0.292804
C24	C	0.683777	-0.494973	0.349026
C25	C	0.793013	-0.494966	0.349012
C26	C	1.489491	-0.494978	0.349031
C27	C	1.596702	-0.494985	0.349038
C28	C	1.272901	-0.266493	0.388573
C29	C	1.287815	-0.169133	0.405431
C30	C	1.131698	0.144031	0.228859
C31	C	1.117690	0.052558	0.213013
C32	C	1.160219	-0.002869	0.261116
C33	C	1.216761	0.033186	0.325067
C34	C	1.230777	0.124669	0.340909
C35	C	1.259298	-0.022232	0.373167
C36	C	1.315839	0.013823	0.437118
C37	C	1.329852	0.105298	0.452958
C38	C	1.287323	0.160725	0.404855
C39	C	1.245282	-0.113715	0.357325
C40	C	1.344361	-0.133077	0.469376
C41	C	1.358369	-0.041604	0.485221
C42	C	1.287312	-0.455586	0.121444
C43	C	1.308645	-0.438521	0.024128
C44	C	1.388832	-0.374606	0.988095
C45	C	1.408670	-0.358806	0.896621
C46	C	1.348320	-0.406915	0.841171
C47	C	1.268127	-0.470827	0.877204
C48	C	1.248291	-0.486633	0.968687
C49	C	1.207779	-0.518942	0.821763
C50	C	1.127586	-0.582854	0.857796
C51	C	1.107754	-0.598657	0.949270
C52	C	1.168104	-0.550548	1.004719
C53	C	1.227615	-0.503135	0.730280
C54	C	1.087074	-0.615162	0.710872
C55	C	1.067236	-0.630962	0.802346
H56	H	1.199245	-0.143062	0.305256
F57	F	1.302028	0.258057	0.421868
H58	H	1.375900	0.134654	0.505023
F59	F	1.146997	-0.567365	1.102078
F60	F	1.022417	-0.666690	0.987614
F61	F	1.389631	-0.192062	0.520571
F62	F	0.981892	-0.698981	0.840706
H63	H	1.097081	0.189166	0.189694
H64	H	1.148810	-0.077351	0.248211
F65	F	1.418540	-0.003221	0.553283
F66	F	1.312959	-0.435117	0.691942
F67	F	1.369435	-0.390096	0.743816
F68	F	1.057516	0.014192	0.144955
H69	H	1.437966	-0.335448	1.033249
F70	F	1.494014	-0.290790	0.858278
F71	F	1.022844	-0.666370	0.651862
