data_functionalizedCrystal
_audit_creation_method	'MofGen! by Chris Wilmer'
_symmetry_space_group_name_H-M	'P1'
_symmetry_Int_Tables_number	1
_symmetry_cell_setting	triclinic
loop_
_symmetry_equiv_pos_as_xyz
  x,y,z
_cell_length_a	12.759401
_cell_length_b	12.759400
_cell_length_c	12.759393
_cell_angle_alpha	89.969349
_cell_angle_beta	89.981680
_cell_angle_gamma	90.013177
loop_
_atom_site_label
_atom_site_type_symbol
_atom_site_fract_x
_atom_site_fract_y
_atom_site_fract_z
Zn1	Zn	1.606255	-0.418202	-0.594016
Zn2	Zn	1.606157	-0.593921	-0.418339
Zn3	Zn	1.430560	-0.418257	-0.418352
Zn4	Zn	1.430550	-0.593839	-0.593978
O5	O	1.518381	-0.506055	-0.506171
O6	O	1.753263	-0.441523	-0.570722
O7	O	1.582828	-0.570676	-0.271320
O8	O	1.453912	-0.271229	-0.441676
O9	O	1.753191	-0.570623	-0.441654
O10	O	1.582994	-0.271188	-0.570735
O11	O	1.453817	-0.441617	-0.271330
O12	O	1.283538	-0.441537	-0.441639
O13	O	1.453895	-0.570483	-0.741004
O14	O	1.283531	-0.570537	-0.570670
O15	O	1.582984	-0.441443	-0.741032
O16	O	1.582818	-0.740932	-0.441617
O17	O	1.453800	-0.740871	-0.570658
C18	C	1.245413	-0.506035	-0.506153
C19	C	1.128637	-0.506052	-0.506170
C20	C	1.518326	-0.779022	-0.506155
C21	C	1.518398	-0.895799	-0.506183
C22	C	0.964074	-0.573341	-0.573269
C23	C	1.073798	-0.573327	-0.573252
C24	C	1.073746	-0.438793	-0.439093
C25	C	0.964024	-0.438812	-0.439105
C26	C	0.909240	-0.640613	-0.640363
C27	C	0.964123	-0.707874	-0.707438
C28	C	1.073847	-0.707860	-0.707421
C29	C	1.128688	-0.640586	-0.640329
C30	C	1.585578	-0.950560	-0.573439
C31	C	1.585627	-1.060284	-0.573465
C32	C	1.451314	-1.060476	-0.438969
C33	C	1.451260	-0.950754	-0.438949
C34	C	1.652716	-0.895605	-0.640673
C35	C	1.719901	-0.950366	-0.707933
C36	C	1.719950	-1.060090	-0.707959
C37	C	1.652813	-1.115053	-0.640724
C38	C	1.792414	-0.506076	-0.506191
C39	C	1.909191	-0.506085	-0.506199
C40	C	1.518449	-0.505948	-0.780205
C41	C	1.518478	-0.505902	-0.896982
C42	C	1.518465	-0.232022	-0.506211
C43	C	1.518501	-0.115245	-0.506228
C44	C	1.451331	-0.438688	-0.951855
C45	C	1.451363	-0.438657	-1.061579
C46	C	1.585698	-0.573057	-1.061547
C47	C	1.585660	-0.573092	-0.951825
C48	C	1.384149	-0.371498	-0.897011
C49	C	1.316997	-0.304278	-0.951884
C50	C	1.317029	-0.304247	-1.061608
C51	C	1.384212	-0.371436	-1.116460
C52	C	1.518373	-0.506086	-0.233204
C53	C	1.518548	-0.505835	-0.116428
H54	H	0.819897	-0.640629	-0.640386
Cl55	Cl	1.384109	-0.371529	-0.759073
Cl56	Cl	1.652632	-0.757667	-0.640672
H57	H	1.262293	-0.249581	-0.907217
H58	H	1.774556	-0.905610	-0.762680
Cl59	Cl	1.232591	-0.219764	-1.130589
Cl60	Cl	0.895182	-0.792455	-0.791765
H61	H	1.774648	-1.104674	-0.762734
Cl62	Cl	1.653036	-1.252993	-0.640600
Cl63	Cl	1.366808	-0.881906	-0.354394
Cl64	Cl	1.366921	-1.129573	-0.354449
H65	H	1.384230	-0.371408	-1.205804
H66	H	1.640351	-0.627810	-0.907146
Cl67	Cl	1.142840	-0.792423	-0.791734
Cl68	Cl	1.266629	-0.640582	-0.640300
Cl69	Cl	1.670154	-0.657513	-1.130504
Cl70	Cl	1.142690	-0.354221	-0.354758
H71	H	0.919337	-0.384041	-0.384497
