data_functionalizedCrystal
_audit_creation_method	'MofGen! by Chris Wilmer'
_symmetry_space_group_name_H-M	'P1'
_symmetry_Int_Tables_number	1
_symmetry_cell_setting	triclinic
loop_
_symmetry_equiv_pos_as_xyz
  x,y,z
_cell_length_a	19.288864
_cell_length_b	14.853567
_cell_length_c	17.766277
_cell_angle_alpha	89.997439
_cell_angle_beta	89.976791
_cell_angle_gamma	83.385589
loop_
_atom_site_label
_atom_site_type_symbol
_atom_site_fract_x
_atom_site_fract_y
_atom_site_fract_z
O1	O	0.921733	0.112464	-0.062829
O2	O	0.719523	0.127636	-0.062777
O3	O	0.826029	-0.011211	-0.062807
O4	O	0.815227	0.251310	-0.062800
O5	O	0.826011	-0.011218	0.062382
O6	O	0.719504	0.127629	0.062411
O7	O	0.921714	0.112457	0.062359
Cu8	Cu	0.820607	0.120042	0.073816
Cu9	Cu	0.820630	0.120051	-0.074234
O10	O	0.815208	0.251303	0.062389
C11	C	0.693636	0.127144	-0.000176
C12	C	0.616527	0.125679	-0.000157
C13	C	0.825530	-0.044800	-0.000215
C14	C	0.824064	-0.144875	-0.000221
C15	C	0.572106	0.207147	-0.000166
C16	C	0.499654	0.205770	-0.000175
C17	C	0.471627	0.122920	-0.000188
C18	C	0.516058	0.041441	-0.000175
C19	C	0.588508	0.042820	-0.000159
C20	C	0.363152	0.057794	-0.044075
C21	C	0.290703	0.056418	-0.044095
C22	C	0.248167	0.118664	-0.000234
C23	C	0.278088	0.182300	0.043638
C24	C	0.350538	0.183679	0.043654
C25	C	0.393068	0.121416	-0.000205
C26	C	0.125185	0.198645	-0.000252
C27	C	0.052732	0.197265	-0.000255
C28	C	0.069138	0.032933	-0.000263
C29	C	0.141589	0.034316	-0.000252
C30	C	0.169608	0.117174	-0.000250
C31	C	0.754596	-0.557014	-0.000189
C32	C	0.881128	-0.579015	-0.000221
C33	C	0.882507	-0.484989	-0.000226
C34	C	0.819930	-0.426971	-0.000211
C35	C	0.755974	-0.462979	-0.000191
C36	C	0.946462	-0.448973	-0.000239
C37	C	0.947844	-0.354942	-0.000242
C38	C	0.885266	-0.296923	-0.000233
C39	C	0.821307	-0.332936	-0.000214
C40	C	0.758730	-0.274918	-0.000199
C41	C	0.694770	-0.310930	-0.000185
C42	C	0.693396	-0.404960	-0.000181
C43	C	0.886641	-0.202893	-0.000236
C44	C	0.760107	-0.180883	-0.000201
C45	C	0.947601	0.112949	-0.000243
C46	C	1.024710	0.114414	-0.000268
C47	C	0.815707	0.284893	-0.000205
C48	C	0.817174	0.384968	-0.000204
N49	N	0.820597	0.120036	0.177946
N50	N	0.820646	0.120050	-0.178364
C51	C	0.867773	0.058585	0.217320
C52	C	0.867777	0.058581	0.296122
C53	C	0.820612	0.120043	0.335547
C54	C	0.773427	0.181499	0.296164
C55	C	0.773419	0.181495	0.217363
C56	C	0.811590	0.202186	0.460389
C57	C	0.811602	0.202191	0.539187
C58	C	0.820630	0.120054	0.578593
C59	C	0.829661	0.037908	0.539190
C60	C	0.829653	0.037905	0.460390
C61	C	0.820614	0.120053	0.420992
C62	C	0.867813	0.058593	0.703413
C63	C	0.867813	0.058588	0.782216
C64	C	0.773465	0.181514	0.782256
C65	C	0.773463	0.181511	0.703455
C66	C	0.820640	0.120052	0.664038
H67	H	0.594914	0.274617	-0.000166
N68	N	1.016828	-0.316112	-0.000260
H69	H	1.044252	-0.337290	-0.046674
H70	H	1.008152	-0.247747	-0.000233
H71	H	0.906226	0.008547	0.671318
H72	H	0.624677	-0.023524	-0.000151
H73	H	0.735050	0.231554	0.671394
N74	N	0.692612	-0.118309	-0.000191
H75	H	0.651889	-0.155393	-0.000183
H76	H	0.690418	-0.078818	0.046219
H77	H	0.147999	0.266113	-0.000239
H78	H	0.243457	0.232986	0.079354
N79	N	1.013947	-0.511557	-0.000257
H80	H	1.041855	-0.500004	-0.046670
H81	H	1.041785	-0.499985	0.046176
H82	H	0.177758	-0.032025	-0.000248
N83	N	0.839390	-0.050688	0.417892
H84	H	0.882381	-0.052798	0.385177
H85	H	0.845081	-0.102671	0.454857
H86	H	0.938716	-0.173576	-0.000242
N87	N	0.801859	0.290785	0.417893
H88	H	0.803223	0.278319	0.361995
H89	H	0.755327	0.325110	0.431689
H90	H	0.804254	0.269079	0.571263
H91	H	0.906186	0.008539	0.185229
N92	N	0.258433	-0.012212	-0.091413
H93	H	0.296372	-0.051443	-0.119188
H94	H	0.232212	-0.051437	-0.057775
N95	N	0.451730	0.293643	-0.000187
H96	H	0.480474	0.346341	-0.000182
H97	H	0.421342	0.296641	-0.046604
N98	N	0.918660	-0.007703	0.338602
H99	H	0.948544	-0.046638	0.301674
H100	H	0.949396	0.026719	0.371277
H101	H	0.837012	-0.028976	0.571273
N102	N	0.722587	0.247799	0.824769
H103	H	0.749162	0.287635	0.857448
H104	H	0.692713	0.286667	0.787815
N105	N	0.624417	-0.443803	-0.000153
H106	H	0.584982	-0.392784	-0.000146
H107	H	0.621096	-0.482342	-0.046558
N108	N	0.918709	-0.007680	0.824688
H109	H	0.948599	-0.046603	0.787757
H110	H	0.949438	0.026761	0.857356
H111	H	0.735022	0.231541	0.328267
H112	H	0.493234	-0.026016	-0.000196
H113	H	0.643820	-0.263680	-0.000167
N114	N	0.004838	0.285157	-0.000221
H115	H	0.013878	0.321341	-0.046615
H116	H	-0.045299	0.271668	-0.000185
H117	H	0.397779	0.007104	-0.079796
H118	H	0.374897	0.235492	0.079378
H119	H	0.932075	-0.626258	-0.000228
N120	N	0.038919	-0.056429	-0.000269
H121	H	-0.013719	-0.044942	-0.000278
H122	H	0.055189	-0.092066	-0.046676
H123	H	0.735002	0.231537	0.185305
H124	H	0.702522	-0.586339	-0.000180
