data_functionalizedCrystal
_audit_creation_method	'MofGen! by Chris Wilmer'
_symmetry_space_group_name_H-M	'P1'
_symmetry_Int_Tables_number	1
_symmetry_cell_setting	triclinic
loop_
_symmetry_equiv_pos_as_xyz
  x,y,z
_cell_length_a	10.686285
_cell_length_b	10.686154
_cell_length_c	19.077251
_cell_angle_alpha	91.889376
_cell_angle_beta	92.254502
_cell_angle_gamma	89.657472
loop_
_atom_site_label
_atom_site_type_symbol
_atom_site_fract_x
_atom_site_fract_y
_atom_site_fract_z
Zn1	Zn	-0.372007	-1.978997	0.297540
Zn2	Zn	-0.573365	-1.985287	0.170984
Zn3	Zn	-0.380907	-1.760886	0.188796
Zn4	Zn	-0.597726	-1.785215	0.296148
O5	O	-0.481001	-1.877596	0.238367
O6	O	-0.384797	-2.154843	0.273881
O7	O	-0.541364	-1.947971	0.075456
O8	O	-0.204717	-1.777004	0.211258
O9	O	-0.532735	-2.159465	0.180901
O10	O	-0.198179	-1.937250	0.291152
O11	O	-0.399966	-1.783104	0.088542
O12	O	-0.423588	-1.589101	0.209908
O13	O	-0.574254	-1.818470	0.394224
O14	O	-0.582884	-1.606976	0.288779
O15	O	-0.408419	-1.960841	0.395247
O16	O	-0.751605	-1.971562	0.179551
O17	O	-0.769503	-1.824569	0.271508
C18	C	-0.506846	-1.552660	0.251125
C19	C	-0.517934	-1.413655	0.256599
C20	C	-0.805930	-1.901423	0.223460
C21	C	-0.944929	-1.911733	0.217101
C22	C	-0.154801	-1.853711	0.253347
C23	C	-0.015794	-1.843533	0.259730
C24	C	-0.493062	-1.891668	0.420827
C25	C	-0.498201	-1.897664	0.498581
C26	C	-0.455043	-1.203800	0.225555
C27	C	-0.443950	-1.342805	0.220085
C28	C	-0.426998	-1.814647	0.541922
C29	C	-0.431838	-1.820278	0.614980
C30	C	-0.507875	-1.908931	0.644695
C31	C	-0.579085	-1.991952	0.601348
C32	C	-0.574252	-1.986315	0.528292
C33	C	-0.530232	-1.934989	0.862458
C34	C	-0.535057	-1.940622	0.935520
C35	C	-0.387811	-1.768946	0.949147
C36	C	-0.382978	-1.763322	0.876089
C37	C	-0.454194	-1.846338	0.832749
N38	N	-0.512820	-1.914691	0.719371
N39	N	-0.449254	-1.840571	0.758073
C40	C	-0.469011	-1.863580	1.056616
C41	C	-0.463855	-1.857606	0.978862
H42	H	-0.372127	-1.388491	0.184637
O43	O	-0.961257	-1.764652	0.309150
C44	C	-0.882911	-1.833734	0.354981
H45	H	-0.914722	-1.935447	0.353698
H46	H	-0.782194	-1.829158	0.337657
C47	C	-0.851343	-1.653052	0.431751
C48	C	-0.890420	-1.777976	0.430181
H49	H	-0.855969	-1.618656	0.478138
H50	H	-0.904122	-1.606508	0.400873
H51	H	-0.767415	-1.649255	0.417311
H52	H	-0.974351	-1.781769	0.444611
H53	H	-0.837655	-1.824519	0.461063
O54	O	-0.643234	-2.067002	0.486118
C55	C	-0.562817	-2.139330	0.443967
H56	H	-0.470822	-2.087442	0.439107
H57	H	-0.543570	-2.233179	0.469113
C58	C	-0.738230	-2.225384	0.376492
C59	C	-0.625245	-2.161649	0.370517
H60	H	-0.776740	-2.239157	0.331186
H61	H	-0.792410	-2.176659	0.404891
H62	H	-0.722175	-2.303584	0.397450
H63	H	-0.641303	-2.083445	0.349569
H64	H	-0.571070	-2.210361	0.342113
O65	O	-0.999204	-1.990822	0.167690
C66	C	-0.905409	-2.052186	0.129347
H67	H	-0.816219	-1.993956	0.133125
H68	H	-0.885610	-2.148090	0.151912
C69	C	-1.059726	-2.139848	0.047237
C70	C	-0.950183	-2.068323	0.051873
H71	H	-1.087345	-2.149808	-0.000552
H72	H	-1.122918	-2.098510	0.073071
H73	H	-1.043211	-2.219760	0.066045
H74	H	-0.966703	-1.988408	0.033073
H75	H	-0.886994	-2.109648	0.026034
O76	O	-0.353114	-1.728413	0.513175
C77	C	-0.291287	-1.656367	0.567099
H78	H	-0.346302	-1.659811	0.616993
H79	H	-0.193174	-1.695806	0.577434
C80	C	-0.214399	-1.515509	0.483365
C81	C	-0.281975	-1.519731	0.544643
H82	H	-0.208648	-1.431227	0.469513
H83	H	-0.256048	-1.564050	0.447035
H84	H	-0.132645	-1.548382	0.491985
H85	H	-0.363732	-1.486874	0.536020
H86	H	-0.240339	-1.471181	0.580972
O87	O	-0.318525	-1.688244	0.991147
C88	C	-0.250406	-1.608765	0.949253
H89	H	-0.238554	-1.655659	0.895364
H90	H	-0.303249	-1.516538	0.943108
C91	C	-0.135181	-1.525587	1.050775
C92	C	-0.120614	-1.583188	0.984589
H93	H	-0.055121	-1.509805	1.072572
H94	H	-0.181076	-1.579130	1.079000
H95	H	-0.179221	-1.448738	1.045644
H96	H	-0.076589	-1.660043	0.989721
H97	H	-0.074708	-1.529658	0.956365
H98	H	-0.589770	-1.367963	0.292045
H99	H	-0.373862	-1.752672	0.650266
O100	O	-0.309294	-1.677140	0.847147
C101	C	-0.384128	-1.598295	0.804804
H102	H	-0.474670	-1.648499	0.787770
H103	H	-0.407107	-1.508795	0.835970
C104	C	-0.201320	-1.503589	0.760383
C105	C	-0.312521	-1.565255	0.739456
H106	H	-0.157149	-1.483202	0.720074
H107	H	-0.150902	-1.556704	0.788911
H108	H	-0.220485	-1.429013	0.786355
H109	H	-0.293354	-1.639836	0.713492
H110	H	-0.362934	-1.512150	0.710921
H111	H	-0.588236	-2.002574	0.827179
O112	O	-0.609034	-2.026784	0.964271
C113	C	-0.670832	-2.098869	0.910353
H114	H	-0.675799	-2.043943	0.860088
H115	H	-0.616971	-2.189902	0.900954
C116	C	-0.798284	-2.196294	0.993787
C117	C	-0.804394	-2.128829	0.932053
H118	H	-0.880669	-2.214780	1.007173
H119	H	-0.756647	-2.147733	1.030113
H120	H	-0.753395	-2.272147	0.985947
H121	H	-0.849269	-2.052970	0.939896
H122	H	-0.846042	-2.177378	0.895728
O123	O	-0.652844	-2.078028	0.630326
C124	C	-0.641866	-2.065185	0.704101
H125	H	-0.549268	-2.017933	0.720122
H126	H	-0.722714	-2.005613	0.724041
C127	C	-0.759480	-2.253495	0.716435
C128	C	-0.645744	-2.195468	0.736112
H129	H	-0.761877	-2.333859	0.736182
H130	H	-0.766880	-2.262146	0.666731
H131	H	-0.826840	-2.203839	0.733053
H132	H	-0.578387	-2.245116	0.719486
H133	H	-0.638332	-2.186829	0.785814
