data_functionalizedCrystal
_audit_creation_method	'MofGen! by Chris Wilmer'
_symmetry_space_group_name_H-M	'P1'
_symmetry_Int_Tables_number	1
_symmetry_cell_setting	triclinic
loop_
_symmetry_equiv_pos_as_xyz
  x,y,z
_cell_length_a	11.792241
_cell_length_b	14.421503
_cell_length_c	11.792241
_cell_angle_alpha	89.995827
_cell_angle_beta	84.193416
_cell_angle_gamma	90.003481
loop_
_atom_site_label
_atom_site_type_symbol
_atom_site_fract_x
_atom_site_fract_y
_atom_site_fract_z
O1	O	1.506916	0.077022	0.155552
O2	O	1.756916	0.327022	0.405552
O3	O	2.006916	0.577022	0.655552
O4	O	2.256916	0.827022	0.905552
O5	O	1.176575	0.077044	0.171585
O6	O	1.426575	0.327044	0.421585
O7	O	1.676575	0.577044	0.671585
O8	O	1.926575	0.827044	0.921585
O9	O	1.349761	0.077026	-0.001602
O10	O	1.599761	0.327026	0.248398
O11	O	1.849761	0.577026	0.498398
O12	O	2.099761	0.827026	0.748398
O13	O	1.333729	0.077040	0.328739
O14	O	1.583729	0.327040	0.578739
O15	O	1.833729	0.577040	0.828739
O16	O	2.083729	0.827040	1.078739
O17	O	1.349733	-0.077198	-0.001576
O18	O	1.599733	0.172802	0.248424
O19	O	1.849733	0.422802	0.498424
O20	O	2.099733	0.672802	0.748424
O21	O	1.176546	-0.077180	0.171611
O22	O	1.426546	0.172820	0.421611
O23	O	1.676546	0.422820	0.671611
O24	O	1.926546	0.672820	0.921611
O25	O	1.506887	-0.077201	0.155578
O26	O	1.756887	0.172799	0.405578
O27	O	2.006887	0.422799	0.655578
O28	O	2.256887	0.672799	0.905578
Cu29	Cu	1.341714	-0.091272	0.163597
Cu30	Cu	1.591714	0.158728	0.413597
Cu31	Cu	1.841714	0.408728	0.663597
Cu32	Cu	2.091714	0.658728	0.913597
Cu33	Cu	1.341748	0.091115	0.163566
Cu34	Cu	1.591748	0.341115	0.413566
Cu35	Cu	1.841748	0.591115	0.663566
Cu36	Cu	2.091748	0.841115	0.913566
O37	O	1.333700	-0.077184	0.328765
O38	O	1.583700	0.172816	0.578765
O39	O	1.833700	0.422816	0.828765
O40	O	2.083700	0.672816	1.078765
C41	C	1.134269	-0.000065	0.170591
C42	C	1.384269	0.249935	0.420591
C43	C	1.634269	0.499935	0.670591
C44	C	1.884269	0.749935	0.920591
C45	C	1.008255	-0.000057	0.167576
C46	C	1.258255	0.249943	0.417576
C47	C	1.508255	0.499943	0.667576
C48	C	1.758255	0.749943	0.917576
N49	N	1.341698	-0.219554	0.163618
N50	N	1.591698	0.030446	0.413618
N51	N	1.841698	0.280446	0.663618
N52	N	2.091698	0.530446	0.913618
C53	C	0.777543	-0.000084	0.162034
C54	C	1.027543	0.249916	0.412034
C55	C	1.277543	0.499916	0.662034
C56	C	1.527543	0.749916	0.912034
C57	C	0.905928	-0.000069	0.165113
C58	C	1.155928	0.249931	0.415113
C59	C	1.405928	0.499931	0.665113
C60	C	1.655928	0.749931	0.915113
C61	C	1.261602	-0.469199	0.243663
C62	C	1.511602	-0.219199	0.493663
C63	C	1.761602	0.030801	0.743663
C64	C	2.011602	0.280801	0.993663
C65	C	1.364297	-0.531008	0.266324
C66	C	1.614297	-0.281008	0.516324
C67	C	1.864297	-0.031008	0.766324
C68	C	2.114297	0.218992	1.016324
C69	C	1.341726	-0.408715	0.163591
C70	C	1.591726	-0.158715	0.413591
C71	C	1.841726	0.091285	0.663591
C72	C	2.091726	0.341285	0.913591
C73	C	1.239057	-0.531001	0.140956
C74	C	1.489057	-0.281001	0.390956
C75	C	1.739057	-0.031001	0.640956
C76	C	1.989057	0.218999	0.890956
C77	C	1.341743	-0.591437	0.163567
C78	C	1.591743	-0.341437	0.413567
C79	C	1.841743	-0.091437	0.663567
C80	C	2.091743	0.158563	0.913567
C81	C	1.444473	-0.469163	0.186303
C82	C	1.694473	-0.219163	0.436303
C83	C	1.944473	0.030837	0.686303
C84	C	2.194473	0.280837	0.936303
C85	C	1.319165	-0.469150	0.060891
C86	C	1.569165	-0.219150	0.310891
C87	C	1.819165	0.030850	0.560891
C88	C	2.069165	0.280850	0.810891
C89	C	1.421934	-0.530931	0.083508
C90	C	1.671934	-0.280931	0.333508
C91	C	1.921934	-0.030931	0.583508
C92	C	2.171934	0.219069	0.833508
C93	C	1.341714	-0.303454	0.163607
C94	C	1.591714	-0.053454	0.413607
C95	C	1.841714	0.196546	0.663607
C96	C	2.091714	0.446546	0.913607
C97	C	1.341766	-0.696695	0.163550
C98	C	1.591766	-0.446695	0.413550
C99	C	1.841766	-0.196695	0.663550
C100	C	2.091766	0.053305	0.913550
C101	C	1.549192	-0.000090	0.156572
C102	C	1.799192	0.249910	0.406572
C103	C	2.049192	0.499910	0.656572
C104	C	2.299192	0.749910	0.906572
C105	C	1.675206	-0.000092	0.159587
C106	C	1.925206	0.249908	0.409587
C107	C	2.175206	0.499908	0.659587
C108	C	2.425206	0.749908	0.909587
C109	C	1.348740	-0.000086	-0.043880
C110	C	1.598740	0.249914	0.206120
C111	C	1.848740	0.499914	0.456120
C112	C	2.098740	0.749914	0.706120
C113	C	1.345726	-0.000084	-0.169894
C114	C	1.595726	0.249916	0.080106
C115	C	1.845726	0.499916	0.330106
C116	C	2.095726	0.749916	0.580106
N117	N	1.341772	0.219396	0.163537
N118	N	1.591772	0.469396	0.413537
N119	N	1.841772	0.719396	0.663537
N120	N	2.091772	0.969396	0.913537
C121	C	1.340183	-0.000069	-0.400606
C122	C	1.590183	0.249931	-0.150606
C123	C	1.840183	0.499931	0.099394
C124	C	2.090183	0.749931	0.349394
C125	C	1.343262	-0.000077	-0.272221
C126	C	1.593262	0.249923	-0.022221
C127	C	1.843262	0.499923	0.227779
C128	C	2.093262	0.749923	0.477779
C129	C	1.334721	-0.000070	0.371043
C130	C	1.584721	0.249930	0.621043
C131	C	1.834721	0.499930	0.871043
C132	C	2.084721	0.749930	1.121043
C133	C	1.337736	-0.000065	0.497057
C134	C	1.587736	0.249935	0.747057
C135	C	1.837736	0.499935	0.997057
C136	C	2.087736	0.749935	1.247057
H137	H	1.193914	-0.442094	0.311433
H138	H	1.443914	-0.192094	0.561433
H139	H	1.693914	0.057906	0.811433
H140	H	1.943914	0.307906	1.061433
H141	H	1.383396	-0.558178	0.353165
H142	H	1.633396	-0.308178	0.603165
H143	H	1.883396	-0.058178	0.853165
H144	H	2.133396	0.191822	1.103165
H145	H	1.300034	-0.441959	-0.025923
H146	H	1.550034	-0.191959	0.224077
H147	H	1.800034	0.058041	0.474077
H148	H	2.050034	0.308041	0.724077
F149	F	1.510602	-0.566142	-0.005016
F150	F	1.760602	-0.316142	0.244984
F151	F	2.010602	-0.066142	0.494984
F152	F	2.260602	0.183858	0.744984
H153	H	1.152225	-0.558166	0.121823
H154	H	1.402225	-0.308166	0.371823
H155	H	1.652225	-0.058166	0.621823
H156	H	1.902225	0.191834	0.871823
H157	H	1.531325	-0.442114	0.205540
H158	H	1.781325	-0.192114	0.455540
H159	H	2.031325	0.057886	0.705540
H160	H	2.281325	0.307886	0.955540
