data_functionalizedCrystal
_audit_creation_method	'MofGen! by Chris Wilmer'
_symmetry_space_group_name_H-M	'P1'
_symmetry_Int_Tables_number	1
_symmetry_cell_setting	triclinic
loop_
_symmetry_equiv_pos_as_xyz
  x,y,z
_cell_length_a	16.625548
_cell_length_b	18.101395
_cell_length_c	16.625539
_cell_angle_alpha	89.972352
_cell_angle_beta	89.979432
_cell_angle_gamma	90.032172
loop_
_atom_site_label
_atom_site_type_symbol
_atom_site_fract_x
_atom_site_fract_y
_atom_site_fract_z
Zn1	Zn	1.232632	-0.294807	-0.455913
Zn2	Zn	1.732632	0.205193	0.044087
Zn3	Zn	1.232515	-0.418656	-0.321082
Zn4	Zn	1.732515	0.081344	0.178918
Zn5	Zn	1.097794	-0.294835	-0.321094
Zn6	Zn	1.597794	0.205165	0.178906
Zn7	Zn	1.097744	-0.418614	-0.455872
Zn8	Zn	1.597744	0.081386	0.044128
O9	O	1.165171	-0.356728	-0.388490
O10	O	1.665171	0.143272	0.111510
O11	O	1.345449	-0.311242	-0.438040
O12	O	1.845449	0.188758	0.061960
O13	O	1.214616	-0.402261	-0.208251
O14	O	1.714616	0.097739	0.291749
O15	O	1.115750	-0.191199	-0.339000
O16	O	1.615750	0.308801	0.161000
O17	O	1.345363	-0.402233	-0.338980
O18	O	1.845363	0.097767	0.161020
O19	O	1.214815	-0.191178	-0.438051
O20	O	1.714815	0.308822	0.061949
O21	O	1.115637	-0.311290	-0.208260
O22	O	1.615637	0.188710	0.291740
O23	O	0.984955	-0.311249	-0.338960
O24	O	1.484955	0.188751	0.161040
O25	O	1.115665	-0.402161	-0.568710
O26	O	1.615665	0.097839	-0.068710
O27	O	0.984918	-0.402188	-0.437981
O28	O	1.484918	0.097812	0.062019
O29	O	1.214767	-0.311201	-0.568740
O30	O	1.714767	0.188799	-0.068740
O31	O	1.214567	-0.522284	-0.338940
O32	O	1.714567	-0.022284	0.161060
O33	O	1.115552	-0.522252	-0.437969
O34	O	1.615552	-0.022252	0.062031
C35	C	0.955680	-0.356718	-0.388467
C36	C	1.455680	0.143282	0.111533
C37	C	0.866059	-0.356731	-0.388477
C38	C	1.366059	0.143269	0.111523
C39	C	0.537884	-0.356736	-0.388511
C40	C	1.037884	0.143264	0.111489
C41	C	0.629192	-0.356732	-0.388499
C42	C	1.129192	0.143268	0.111501
C43	C	0.701969	-0.356734	-0.388494
C44	C	1.201969	0.143266	0.111506
C45	C	0.793283	-0.356729	-0.388483
C46	C	1.293283	0.143271	0.111517
C47	C	1.165063	-0.549139	-0.388466
C48	C	1.665063	-0.049139	0.111534
C49	C	1.165091	-0.631453	-0.388483
C50	C	1.665091	-0.131453	0.111517
C51	C	1.165268	-0.930544	-0.388527
C52	C	1.665268	-0.430544	0.111473
C53	C	1.103114	-0.899230	-0.450988
C54	C	1.603114	-0.399230	0.049012
C55	C	1.102819	-0.813612	-0.450793
C56	C	1.602819	-0.313612	0.049207
C57	C	1.165180	-0.782161	-0.388506
C58	C	1.665180	-0.282161	0.111494
C59	C	1.142173	-0.813313	-0.303528
C60	C	1.642173	-0.313313	0.196472
C61	C	1.141772	-0.898959	-0.303901
C62	C	1.641772	-0.398959	0.196099
C63	C	1.250565	-0.898886	-0.410295
C64	C	1.750565	-0.398886	0.089705
C65	C	1.250063	-0.813235	-0.412159
C66	C	1.750063	-0.313235	0.087841
C67	C	1.165132	-0.698302	-0.388489
C68	C	1.665132	-0.198302	0.111511
C69	C	1.165314	-1.014403	-0.388538
C70	C	1.665314	-0.514403	0.111462
C71	C	1.375480	-0.356739	-0.388513
C72	C	1.875480	0.143261	0.111487
C73	C	1.465101	-0.356744	-0.388523
C74	C	1.965101	0.143256	0.111477
C75	C	1.165224	-0.356673	-0.598799
C76	C	1.665224	0.143327	-0.098799
C77	C	1.165246	-0.356649	-0.688420
C78	C	1.665246	0.143351	-0.188420
C79	C	1.165302	-0.163566	-0.388531
C80	C	1.665302	0.336434	0.111469
C81	C	1.165357	-0.081252	-0.388549
C82	C	1.665357	0.418748	0.111451
C83	C	1.165283	-0.356567	-1.016596
C84	C	1.665283	0.143433	-0.516596
C85	C	1.165271	-0.356592	-0.925287
C86	C	1.665271	0.143408	-0.425287
C87	C	1.165265	-0.356609	-0.852511
C88	C	1.665265	0.143391	-0.352511
C89	C	1.165252	-0.356633	-0.761197
C90	C	1.665252	0.143367	-0.261197
C91	C	1.165165	-0.356730	-0.178999
C92	C	1.665165	0.143270	0.321001
C93	C	1.165299	-0.356545	-0.089378
C94	C	1.665299	0.143455	0.410622
H95	H	1.117214	-0.792547	-0.513803
H96	H	1.617214	-0.292547	-0.013803
H97	H	1.039595	-0.793190	-0.436373
H98	H	1.539595	-0.293190	0.063627
H99	H	1.117366	-0.919777	-0.514202
H100	H	1.617366	-0.419777	-0.014202
N101	N	1.273069	-0.786252	-0.494988
N102	N	1.773069	-0.286252	0.005012
H103	H	1.281440	-0.829968	-0.531774
H104	H	1.781440	-0.329968	-0.031774
H105	H	1.228677	-0.754021	-0.517043
H106	H	1.728677	-0.254021	-0.017043
N107	N	1.278368	-0.927426	-0.490971
N108	N	1.778368	-0.427426	0.009029
H109	H	1.238920	-0.911853	-0.533932
H110	H	1.738920	-0.411853	-0.033932
H111	H	1.333213	-0.906414	-0.503665
H112	H	1.833213	-0.406414	-0.003665
N113	N	1.019873	-0.927819	-0.432135
N114	N	1.519873	-0.427819	0.067865
H115	H	1.022249	-0.960966	-0.383310
H116	H	1.522249	-0.460966	0.116690
H117	H	0.982857	-0.884813	-0.420935
H118	H	1.482857	-0.384813	0.079065
N119	N	1.311910	-0.925709	-0.350044
N120	N	1.811910	-0.425709	0.149956
H121	H	1.337256	-0.881934	-0.322185
H122	H	1.837256	-0.381934	0.177815
H123	H	1.284575	-0.958218	-0.308892
H124	H	1.784575	-0.458218	0.191108
H125	H	1.298821	-0.791822	-0.369981
H126	H	1.798821	-0.291822	0.130019
H127	H	1.079421	-0.919003	-0.285461
H128	H	1.579421	-0.419003	0.214539
H129	H	1.186018	-0.792943	-0.255720
H130	H	1.686018	-0.292943	0.244280
N131	N	1.199129	-0.926408	-0.240155
N132	N	1.699129	-0.426408	0.259845
H133	H	1.224559	-0.882871	-0.211933
H134	H	1.724559	-0.382871	0.288067
H135	H	1.168707	-0.957393	-0.199781
H136	H	1.668707	-0.457393	0.300219
N137	N	1.060458	-0.784992	-0.278655
N138	N	1.560458	-0.284992	0.221345
H139	H	1.038226	-0.751990	-0.322303
H140	H	1.538226	-0.251990	0.177697
H141	H	1.022893	-0.828125	-0.269922
H142	H	1.522893	-0.328125	0.230078
