data_functionalizedCrystal
_audit_creation_method	'MofGen! by Chris Wilmer'
_symmetry_space_group_name_H-M	'P1'
_symmetry_Int_Tables_number	1
_symmetry_cell_setting	triclinic
loop_
_symmetry_equiv_pos_as_xyz
  x,y,z
_cell_length_a	13.185408
_cell_length_b	27.731996
_cell_length_c	11.804365
_cell_angle_alpha	101.722393
_cell_angle_beta	82.233045
_cell_angle_gamma	67.297444
loop_
_atom_site_label
_atom_site_type_symbol
_atom_site_fract_x
_atom_site_fract_y
_atom_site_fract_z
O1	O	1.471368	-0.138848	-0.098895
O2	O	1.153030	-0.089746	-0.098931
O3	O	1.322110	-0.185949	-0.098886
O4	O	1.302288	-0.042645	-0.098940
O5	O	1.277598	-0.160642	0.099158
O6	O	1.108519	-0.064439	0.099113
O7	O	1.426856	-0.113541	0.099149
Cu8	Cu	1.263623	-0.086679	0.117214
Cu9	Cu	1.316263	-0.116608	-0.116996
O10	O	1.257777	-0.017338	0.099104
C11	C	1.090061	-0.072114	0.000087
C12	C	0.968747	-0.057288	0.000075
C13	C	0.897970	-0.004495	0.000052
C14	C	0.783986	0.009440	0.000058
C15	C	0.740769	-0.029419	0.000076
C16	C	0.811548	-0.082215	0.000090
C17	C	0.925542	-0.096149	0.000094
C18	C	0.768341	-0.121074	0.000118
C19	C	0.839120	-0.173869	0.000132
C20	C	0.953102	-0.187801	0.000135
C21	C	0.996319	-0.148942	0.000116
C22	C	0.654347	-0.107139	0.000114
C23	C	0.681919	-0.198794	0.000155
C24	C	0.795903	-0.212728	0.000150
C25	C	1.299446	-0.191251	0.000140
C26	C	1.298216	-0.244750	0.000152
C27	C	1.314772	-0.590290	-0.107861
C28	C	1.310116	-0.791360	-0.107882
O29	O	1.330102	-0.829080	-0.199694
N30	N	1.285274	-0.802709	0.000070
C31	C	1.261587	-0.763785	0.108036
O32	O	1.240340	-0.778050	0.199856
C33	C	1.266235	-0.562715	0.108056
C34	C	1.291090	-0.551371	0.000097
C35	C	1.339623	-0.578945	-0.215812
C36	C	1.340792	-0.528682	-0.215805
C37	C	1.317111	-0.489763	-0.107848
C38	C	1.292259	-0.501108	0.000103
C39	C	1.242540	-0.523790	0.216021
C40	C	1.243702	-0.473520	0.216017
C41	C	1.268556	-0.462177	0.108057
C42	C	1.269747	-0.411926	0.108067
N43	N	1.294589	-0.400576	0.000114
C44	C	1.318271	-0.439495	-0.107843
C45	C	1.259151	-0.869352	0.108018
C46	C	1.257991	-0.919619	0.108013
C47	C	1.306518	-0.947190	-0.107906
C48	C	1.307686	-0.896923	-0.107900
C49	C	1.283993	-0.858003	0.000065
C50	C	1.320726	-0.333937	-0.107822
C51	C	1.321898	-0.283669	-0.107805
C52	C	1.273365	-0.256101	0.108113
C53	C	1.272199	-0.306366	0.108098
C54	C	1.295877	-0.345283	0.000121
O55	O	1.249760	-0.374178	0.199830
O56	O	1.339491	-0.425216	-0.199649
C57	C	1.313602	-0.640554	-0.107867
C58	C	1.288751	-0.651898	0.000084
C59	C	1.265069	-0.612980	0.108041
C60	C	1.287591	-0.702166	0.000079
C61	C	1.311273	-0.741085	-0.107879
C62	C	1.336114	-0.729736	-0.215831
C63	C	1.337284	-0.679472	-0.215825
C64	C	1.240227	-0.624329	0.215994
C65	C	1.239061	-0.674594	0.215979
C66	C	1.262742	-0.713512	0.108021
C67	C	1.489826	-0.131173	0.000129
C68	C	1.611142	-0.146000	0.000133
C69	C	1.280441	-0.012036	0.000076
C70	C	1.281673	0.041462	0.000056
N71	N	1.226607	-0.065630	0.281945
N72	N	1.353289	-0.137661	-0.281727
C73	C	1.442179	-0.188216	0.655951
C74	C	1.470180	-0.204142	0.531296
C75	C	1.409289	-0.169515	0.468953
C76	C	1.320392	-0.118961	0.531275
C77	C	1.292393	-0.103032	0.655942
C78	C	1.259503	-0.084331	0.468943
C79	C	1.170606	-0.033777	0.531266
C80	C	1.142611	-0.017851	0.655920
C81	C	1.203503	-0.052477	0.718264
C82	C	1.287502	-0.100260	0.344277
C83	C	1.137716	-0.015075	0.344268
C84	C	1.109715	0.000850	0.468922
H85	H	1.342141	-0.274438	-0.195723
C86	C	1.335015	-0.884447	-0.226654
H87	H	1.348946	-0.914828	-0.290944
H88	H	1.400233	-0.877391	-0.231140
H89	H	1.272707	-0.853431	-0.231152
H90	H	1.542560	-0.245302	0.480558
C91	C	1.121710	-0.164275	0.000082
H92	H	1.157678	-0.201284	0.000082
H93	H	1.126915	-0.141679	0.069123
H94	H	1.157902	-0.159329	-0.069010
C95	C	1.385285	-0.155863	0.275730
H96	H	1.393251	-0.160389	0.192559
H97	H	1.369402	-0.184048	0.296173
H98	H	1.453543	-0.157451	0.296159
C99	C	1.364613	-0.666999	-0.334582
H100	H	1.378537	-0.697379	-0.398869
H101	H	1.429834	-0.659945	-0.339073
H102	H	1.302308	-0.635981	-0.339079
H103	H	1.070235	0.023316	0.706663
H104	H	1.180701	-0.039512	0.819768
C105	C	0.615393	-0.014094	0.000067
H106	H	0.579432	0.022912	0.000043
H107	H	0.579171	-0.019043	0.069129
H108	H	0.610227	-0.036693	-0.069004
H109	H	1.010725	-0.230789	0.000161
H110	H	1.432092	-0.182484	0.367453
H111	H	1.037333	0.042013	0.519680
C112	C	1.244863	-0.318846	0.226849
H113	H	1.230921	-0.288465	0.291145
H114	H	1.307147	-0.349867	0.231351
H115	H	1.179626	-0.325891	0.231322
H116	H	0.726365	0.052426	0.000046
H117	H	0.853547	-0.255714	0.000161
C118	C	1.230661	-0.932094	0.226769
H119	H	1.216713	-0.901710	0.291059
H120	H	1.292952	-0.963111	0.231274
H121	H	1.165430	-0.939144	0.231247
C122	C	1.509149	-0.226298	0.724529
H123	H	1.479737	-0.209571	0.807696
H124	H	1.586588	-0.233117	0.704091
H125	H	1.502423	-0.259701	0.704121
C126	C	1.070736	0.023018	0.275702
H127	H	1.100136	0.006289	0.192534
H128	H	1.077461	0.056418	0.296117
H129	H	0.993291	0.029837	0.296138
C130	C	0.945510	0.038243	0.000035
H131	H	1.023534	0.022381	0.000034
H132	H	0.905648	0.068182	0.069088
H133	H	0.936692	0.050529	-0.069046
H134	H	0.596729	-0.064153	0.000105
C135	C	1.247309	-0.213286	0.226860
H136	H	1.232345	-0.227239	0.291160
H137	H	1.182999	-0.181123	0.231327
H138	H	1.310519	-0.205087	0.231360
C139	C	0.634395	-0.241542	0.000165
H140	H	0.556375	-0.225684	0.000146
H141	H	0.643216	-0.253831	0.069234
H142	H	0.674262	-0.271479	-0.068899
H143	H	1.340002	-0.365618	-0.195746
C144	C	1.233102	-0.826547	0.226787
H145	H	1.218155	-0.840513	0.291070
H146	H	1.168787	-0.794380	0.231287
H147	H	1.296316	-0.818350	0.231285
H148	H	1.361028	-0.519451	-0.303718
H149	H	1.222303	-0.533016	0.303934
H150	H	1.325802	-0.978887	-0.195809
C151	C	1.217643	-0.430711	0.334781
H152	H	1.202684	-0.444672	0.399069
H153	H	1.153333	-0.398545	0.339265
H154	H	1.280856	-0.422514	0.339285
H155	H	1.358905	-0.610629	-0.303729
C156	C	1.362158	-0.772551	-0.334581
H157	H	1.357892	-0.804109	-0.319111
H158	H	1.436076	-0.781966	-0.378942
H159	H	1.308548	-0.757994	-0.378941
H160	H	1.218828	-0.683824	0.303899
H161	H	1.220943	-0.592645	0.303908
