data_functionalizedCrystal
_audit_creation_method	'MofGen! by Chris Wilmer'
_symmetry_space_group_name_H-M	'P1'
_symmetry_Int_Tables_number	1
_symmetry_cell_setting	triclinic
loop_
_symmetry_equiv_pos_as_xyz
  x,y,z
_cell_length_a	25.639242
_cell_length_b	25.639240
_cell_length_c	16.625539
_cell_angle_alpha	89.965942
_cell_angle_beta	90.029355
_cell_angle_gamma	89.960521
loop_
_atom_site_label
_atom_site_type_symbol
_atom_site_fract_x
_atom_site_fract_y
_atom_site_fract_z
Zn1	Zn	0.799243	0.208212	0.456066
Zn2	Zn	0.799148	0.295650	0.321220
Zn3	Zn	0.711808	0.208224	0.321226
Zn4	Zn	0.711756	0.295612	0.455989
O5	O	0.755489	0.251924	0.388625
O6	O	0.872396	0.219822	0.438208
O7	O	0.787544	0.284074	0.208388
O8	O	0.723469	0.135057	0.339148
O9	O	0.872325	0.284063	0.339137
O10	O	0.787706	0.135049	0.438214
O11	O	0.723376	0.219842	0.208393
O12	O	0.638636	0.219805	0.339073
O13	O	0.723380	0.283997	0.568832
O14	O	0.638598	0.284008	0.438083
O15	O	0.787656	0.219785	0.568888
O16	O	0.787493	0.368810	0.339062
O17	O	0.723287	0.368782	0.438077
C18	C	0.619646	0.251904	0.388570
C19	C	0.561532	0.251908	0.388566
C20	C	0.201158	0.285411	0.440131
C21	C	0.146554	0.285414	0.440143
O22	O	0.118308	0.313875	0.483939
N23	N	0.119250	0.251939	0.388678
C24	C	0.146553	0.218454	0.337202
O25	O	0.118315	0.189981	0.293428
C26	C	0.201156	0.218449	0.337194
C27	C	0.228457	0.251930	0.388657
C28	C	0.228459	0.318889	0.491590
C29	C	0.283060	0.318887	0.491576
C30	C	0.310359	0.285406	0.440103
C31	C	0.283058	0.251928	0.388643
C32	C	0.228458	0.184962	0.285722
C33	C	0.283065	0.184959	0.285719
C34	C	0.310366	0.218440	0.337183
C35	C	0.364958	0.218444	0.337155
N36	N	0.392262	0.251919	0.388621
C37	C	0.364963	0.285400	0.440095
C38	C	0.031882	0.218468	0.337224
C39	C	-0.022720	0.218475	0.337227
C40	C	-0.022715	0.285435	0.440170
C41	C	0.031888	0.285429	0.440162
C42	C	0.059186	0.251943	0.388689
C43	C	0.479628	0.285393	0.440061
C44	C	0.534233	0.285388	0.440040
C45	C	0.534223	0.218427	0.337100
C46	C	0.479623	0.218433	0.337118
C47	C	0.452326	0.251917	0.388605
O48	O	0.393238	0.189997	0.293384
O49	O	0.393207	0.313864	0.483869
C50	C	0.755388	0.387767	0.388578
C51	C	0.755393	0.445881	0.388585
C52	C	0.722014	0.697072	0.440139
C53	C	0.721999	0.642468	0.440132
O54	O	0.693553	0.614229	0.483953
N55	N	0.755445	0.615155	0.388617
C56	C	0.788912	0.642449	0.337109
O57	O	0.817359	0.614203	0.293291
C58	C	0.788929	0.697052	0.337120
C59	C	0.755477	0.724363	0.388633
C60	C	0.688565	0.724382	0.491648
C61	C	0.688580	0.778983	0.491653
C62	C	0.722043	0.806273	0.440148
C63	C	0.755492	0.778963	0.388638
C64	C	0.822398	0.724345	0.285617
C65	C	0.822413	0.778953	0.285633
C66	C	0.788961	0.806263	0.337146
C67	C	0.788969	0.860854	0.337138
N68	N	0.755523	0.888167	0.388654
C69	C	0.722060	0.860877	0.440159
C70	C	0.788874	0.527778	0.337092
C71	C	0.788855	0.473176	0.337076
C72	C	0.721943	0.473199	0.440101
C73	C	0.721960	0.527802	0.440111
C74	C	0.755428	0.555091	0.388607
C75	C	0.722093	0.975542	0.440165
C76	C	0.722108	1.030147	0.440162
C77	C	0.789022	1.030120	0.337141
C78	C	0.789005	0.975519	0.337140
C79	C	0.755538	0.948231	0.388658
O80	O	0.817402	0.889127	0.293342
O81	O	0.693622	0.889129	0.483977
C82	C	0.891862	0.251945	0.388680
C83	C	0.949976	0.251954	0.388704
C84	C	0.755523	0.251885	0.598934
C85	C	0.755537	0.251869	0.688555
C86	C	0.755583	1.115551	0.388675
C87	C	0.755571	1.057437	0.388657
C88	C	0.755485	0.251925	0.179134
C89	C	0.755572	0.251795	0.089514
C90	C	0.755561	0.251810	1.016731
C91	C	0.755553	0.251828	0.925423
C92	C	0.755550	0.251840	0.852646
C93	C	0.755541	0.251857	0.761332
H94	H	0.556459	0.312655	0.481948
O95	O	0.309601	0.351460	0.541461
C96	C	0.371232	0.422034	0.552128
C97	C	0.341201	0.385187	0.495534
H98	H	0.396796	0.449304	0.515020
H99	H	0.342359	0.445998	0.588906
H100	H	0.396801	0.398047	0.594369
H101	H	0.315631	0.409133	0.453245
H102	H	0.370103	0.361221	0.458813
O103	O	0.453047	0.185879	0.287243
C104	C	0.391486	0.115240	0.276647
C105	C	0.421532	0.152094	0.333209
H106	H	0.366007	0.087909	0.313789
H107	H	0.365844	0.139167	0.234427
H108	H	0.420395	0.091337	0.239845
H109	H	0.392661	0.176005	0.370064
H110	H	0.447181	0.128137	0.375376
O111	O	0.689609	0.949096	0.490319
C112	C	0.664192	0.932341	0.627433
C113	C	0.701005	0.962333	0.570730
H114	H	0.673399	0.943024	0.692458
H115	H	0.622033	0.943137	0.613268
H116	H	0.669913	0.888625	0.618547
H117	H	0.695329	1.006056	0.579584
H118	H	0.743149	0.951494	0.584909
H119	H	0.206238	0.346154	0.533511
O120	O	0.689451	0.554248	0.490232
C121	C	0.623060	0.548492	0.592382
C122	C	0.659858	0.518481	0.535670
H123	H	0.599116	0.519588	0.629121
H124	H	0.647032	0.573996	0.634645
H125	H	0.595764	0.574117	0.555315
H126	H	0.687161	0.492829	0.572671
H127	H	0.635854	0.493011	0.493404
O128	O	0.560828	0.185921	0.287179
C129	C	0.644952	0.156264	0.241526
C130	C	0.614886	0.193098	0.298110
H131	H	0.688664	0.162061	0.250332
H132	H	0.634290	0.114106	0.255816
H133	H	0.634157	0.165381	0.176491
H134	H	0.625666	0.184028	0.363164
H135	H	0.625552	0.235245	0.283751
H136	H	0.816127	0.549994	0.295144
O137	O	0.453198	0.317967	0.490101
C138	C	0.458980	0.384359	0.592237
C139	C	0.488976	0.347503	0.535599
H140	H	0.487894	0.408240	0.629049
H141	H	0.433397	0.411707	0.555191
H142	H	0.433436	0.360384	0.634443
H143	H	0.514548	0.371435	0.493382
H144	H	0.514527	0.320153	0.572695
O145	O	0.821296	0.446569	0.287055
C146	C	0.850958	0.362447	0.241409
C147	C	0.814180	0.392511	0.298083
H148	H	0.845225	0.318735	0.250318
H149	H	0.841801	0.373183	0.176363
H150	H	0.893109	0.373171	0.255631
H151	H	0.772017	0.381803	0.283934
H152	H	0.823382	0.381772	0.363113
O153	O	0.854855	0.805521	0.235567
C154	C	0.861960	0.867191	0.126701
C155	C	0.825161	0.837144	0.183357
H156	H	0.837967	0.892756	0.084464
H157	H	0.889280	0.892745	0.163735
H158	H	0.885878	0.838282	0.089923
H159	H	0.801209	0.866015	0.220147
H160	H	0.797875	0.811582	0.146277
H161	H	0.661316	0.702167	0.533594
H162	H	0.816265	1.052349	0.295204
O163	O	0.058325	0.317966	0.490233
C164	C	0.052552	0.384403	0.592304
C165	C	0.022551	0.347573	0.535648
H166	H	0.023641	0.408358	0.629024
H167	H	0.078130	0.360457	0.634588
H168	H	0.078101	0.411688	0.555195
H169	H	-0.003027	0.320281	0.572691
H170	H	-0.002994	0.371552	0.493361
O171	O	0.821542	0.949068	0.287066
C172	C	0.887883	0.954815	0.184838
C173	C	0.851067	0.984830	0.241515
H174	H	0.911756	0.983716	0.147984
H175	H	0.915240	0.929225	0.221856
H176	H	0.863877	0.929276	0.142674
H177	H	0.875031	1.010397	0.283691
H178	H	0.823709	1.010388	0.204447
O179	O	-0.049320	0.317907	0.490153
C180	C	-0.133444	0.347599	0.535752
C181	C	-0.103378	0.310793	0.479124
H182	H	-0.177156	0.341868	0.526843
H183	H	-0.122717	0.338467	0.600810
H184	H	-0.122713	0.389742	0.521485
H185	H	-0.114093	0.268637	0.493318
H186	H	-0.114108	0.319969	0.414082
O187	O	0.689686	1.056733	0.490248
C188	C	0.682631	1.118312	0.599143
C189	C	0.719404	1.088249	0.542460
H190	H	0.706643	1.143792	0.641382
H191	H	0.655318	1.143953	0.562131
H192	H	0.658702	1.089413	0.635918
H193	H	0.743366	1.117110	0.505674
H194	H	0.746682	1.062600	0.579519
H195	H	0.206239	0.157699	0.243813
H196	H	-0.044944	0.191216	0.295312
O197	O	0.854947	0.697906	0.235557
C198	C	0.921308	0.703670	0.133361
C199	C	0.884477	0.733676	0.190027
H200	H	0.945184	0.732578	0.096523
H201	H	0.948661	0.678081	0.170387
H202	H	0.897314	0.678132	0.091181
H203	H	0.908429	0.759243	0.232219
H204	H	0.857122	0.759233	0.152951
H205	H	0.054105	0.191199	0.295303
H206	H	0.305289	0.157687	0.243808
O207	O	0.656071	0.805427	0.541775
C208	C	0.589684	0.799666	0.643930
C209	C	0.626482	0.769658	0.587216
H210	H	0.565744	0.770760	0.680671
H211	H	0.613655	0.825172	0.686192
H212	H	0.562385	0.825289	0.606866
H213	H	0.653789	0.744008	0.624215
H214	H	0.602479	0.744186	0.544952
H215	H	0.694696	0.450969	0.482040
