data_functionalizedCrystal
_audit_creation_method	'MofGen! by Chris Wilmer'
_symmetry_space_group_name_H-M	'P1'
_symmetry_Int_Tables_number	1
_symmetry_cell_setting	triclinic
loop_
_symmetry_equiv_pos_as_xyz
  x,y,z
_cell_length_a	23.196402
_cell_length_b	14.560438
_cell_length_c	14.560438
_cell_angle_alpha	90.000844
_cell_angle_beta	60.001244
_cell_angle_gamma	60.002685
loop_
_atom_site_label
_atom_site_type_symbol
_atom_site_fract_x
_atom_site_fract_y
_atom_site_fract_z
Zr1	Zr	0.631006	-0.120487	0.884780
O2	O	0.751268	-0.267124	0.738138
O3	O	0.510742	-0.075541	0.929730
O4	O	0.631005	-0.267134	0.929734
O5	O	0.631006	0.075607	0.738135
O6	O	0.631006	-0.267135	1.080872
O7	O	0.631005	-0.075531	0.738134
O8	O	0.415877	0.075590	1.080864
O9	O	0.846135	-0.267118	0.738142
O10	O	0.560210	-0.056366	1.061697
O11	O	0.560210	0.056428	0.948905
O12	O	0.701804	-0.169148	0.948910
O13	O	0.701804	-0.056355	0.836118
Zr14	Zr	0.631011	0.120559	1.125829
Zr15	Zr	0.631008	-0.120489	1.125828
Zr16	Zr	0.631008	0.120561	0.884781
Zr17	Zr	0.782308	-0.120477	0.884786
Zr18	Zr	0.479709	0.120549	1.125822
O19	O	0.751275	0.075613	1.080879
O20	O	0.751272	-0.267127	1.080877
O21	O	0.751272	0.075615	0.738140
O22	O	0.510749	0.267196	1.272471
O23	O	0.510745	-0.075544	1.272469
O24	O	0.510745	0.267198	0.929731
O25	O	0.631010	-0.075535	1.272474
O26	O	0.631012	0.267205	1.080875
O27	O	0.631010	0.267207	0.929737
O28	O	0.631012	0.075603	1.272475
O29	O	0.846137	-0.267119	0.929743
O30	O	0.415879	0.267191	1.080865
O31	O	0.415881	0.267189	1.272467
O32	O	0.415879	0.075588	1.272466
O33	O	0.846137	-0.075517	0.738143
O34	O	0.846139	-0.075518	0.929744
O35	O	0.560212	0.169220	1.061699
O36	O	0.560212	0.056426	1.174491
O37	O	0.701807	-0.056356	1.061704
O38	O	0.701807	0.056437	0.948911
C39	C	0.441752	0.000023	1.005296
C40	C	0.377520	0.000018	1.005293
C41	C	0.631005	0.000038	0.703790
C42	C	0.631004	0.000039	0.601459
C43	C	0.631012	0.301550	1.005306
C44	C	0.631013	0.403881	1.005306
C45	C	0.347350	-0.058863	1.064162
C46	C	0.286989	-0.058854	1.064173
C47	C	0.256812	0.000021	1.005293
C48	C	0.286987	0.058916	0.946422
C49	C	0.347341	0.058914	0.946422
C50	C	0.194782	-0.008381	0.906673
C51	C	0.134432	-0.008387	0.906670
C52	C	0.070657	0.000033	1.005294
C53	C	0.067247	0.008436	1.103921
C54	C	0.127601	0.008435	1.103922
C55	C	0.191368	0.000030	1.005287
C56	C	-0.024964	-0.058841	1.064180
C57	C	-0.085330	-0.058824	1.064194
C58	C	-0.085325	0.058938	0.946432
C59	C	-0.024967	0.058928	0.946429
C60	C	0.005213	0.000032	1.005301
C61	C	0.820265	0.000049	1.005313
C62	C	0.884497	0.000053	1.005315
C63	C	0.631005	-0.301479	1.005303
C64	C	0.631004	-0.403810	1.005302
C65	C	0.704922	0.393089	0.946434
C66	C	0.704918	0.489243	0.946429
C67	C	0.557089	0.606981	1.064176
C68	C	0.557094	0.510827	1.064175
C69	C	0.557095	0.058906	0.612254
C70	C	0.557098	0.058906	0.516099
C71	C	0.704928	-0.058836	0.398357
C72	C	0.704923	-0.058829	0.494511
C73	C	0.631012	0.000034	1.306819
C74	C	0.631013	0.000033	1.409150
C75	C	0.441755	0.000021	1.306810
C76	C	0.377525	0.000015	1.409139
C77	C	0.441755	0.301537	1.005298
C78	C	0.377525	0.403864	1.005295
C79	C	0.441759	0.301535	1.306812
C80	C	0.377529	0.403861	1.409141
C81	C	0.820258	-0.301463	0.703797
C82	C	0.884488	-0.403790	0.601468
C83	C	0.820261	0.000051	0.703798
C84	C	0.884492	0.000056	0.601470
C85	C	0.820261	-0.301466	1.005311
C86	C	0.884492	-0.403793	1.005313
C87	C	0.347360	-0.058873	1.398316
C88	C	0.287017	-0.058901	1.494456
C89	C	0.256835	-0.000032	1.601416
C90	C	0.287006	0.058859	1.612236
C91	C	0.347352	0.058879	1.516098
C92	C	0.347362	0.510804	1.064171
C93	C	0.287019	0.606960	1.064165
C94	C	0.256835	0.596174	1.005288
C95	C	0.287003	0.489222	0.946405
C96	C	0.347350	0.393069	0.946406
C97	C	0.347366	0.393037	1.516082
C98	C	0.287024	0.489174	1.612240
C99	C	0.256841	0.596134	1.601455
C100	C	0.287010	0.606956	1.494502
C101	C	0.347356	0.510820	1.398347
C102	C	0.914658	-0.392966	0.494526
C103	C	0.975019	-0.489103	0.398368
C104	C	1.005205	-0.596062	0.409154
C105	C	0.975032	-0.606884	0.516106
C106	C	0.914676	-0.510748	0.612262
C107	C	0.914663	0.058935	0.612292
C108	C	0.975023	0.058936	0.516153
C109	C	1.005207	0.000064	0.409192
C110	C	0.975033	-0.058822	0.398372
C111	C	0.914679	-0.058829	0.494510
C112	C	0.914657	-0.392970	1.064201
C113	C	0.975001	-0.489108	1.064225
C114	C	1.005182	-0.596067	1.005354
C115	C	0.975012	-0.606887	0.946465
C116	C	0.914665	-0.510751	0.946448
H117	H	0.371918	-0.106816	1.112102
H118	H	0.890112	-0.519574	0.699336
H119	H	0.496914	0.106843	0.524899
H120	H	0.262419	-0.106803	1.112113
H121	H	-0.000393	-0.106794	1.112121
H122	H	0.765112	0.306013	0.898497
H123	H	0.999618	-0.106754	0.311272
H124	H	0.999617	-0.693982	0.524875
H125	H	0.890092	0.106883	0.699376
H126	H	0.890111	-0.519578	0.898489
Br127	Br	0.456780	0.525474	1.144067
H128	H	0.371931	0.305954	1.524885
Br129	Br	0.388280	0.525529	1.253215
H130	H	0.262419	0.480457	0.898470
H131	H	0.765103	0.480446	0.898487
H132	H	0.496907	0.694065	1.112107
Br133	Br	0.246040	0.752124	1.479884
Br134	Br	0.388287	0.138834	0.866525
H135	H	0.890085	-0.305883	0.485723
H136	H	0.999576	-0.480270	0.311293
Br137	Br	0.805242	-0.138725	0.253211
H138	H	0.999559	-0.480276	1.112178
Br139	Br	0.388273	0.247939	0.866499
Br140	Br	0.246034	0.138750	1.757406
H141	H	0.262463	0.694035	1.112118
Br142	Br	0.456777	0.138800	0.757395
H143	H	0.371904	0.106839	1.524926
H144	H	0.765113	-0.106764	0.485712
Br145	Br	0.388309	0.525474	1.144091
H146	H	0.371933	-0.106825	1.311232
H147	H	0.207698	0.674478	1.005297
H148	H	0.124819	0.015280	1.184228
Br149	Br	0.246082	-0.138826	1.479744
H150	H	0.207697	-0.000057	1.679689
H151	H	0.015314	0.015306	1.184235
H152	H	-0.109899	-0.106768	1.112139
Br153	Br	0.246091	0.474462	1.757375
H154	H	0.207704	0.674405	1.679760
H155	H	1.054350	-0.674333	0.330849
Br156	Br	1.015988	-0.752055	0.866562
Br157	Br	1.015958	0.138861	0.530864
Br158	Br	0.873736	-0.138738	0.479802
Br159	Br	-0.126274	0.138844	0.866525
H160	H	1.054352	0.000078	0.330920
H161	H	-0.000399	0.106871	0.898487
H162	H	0.890092	-0.305887	1.112141
Br163	Br	1.087084	-0.726528	1.005387
H164	H	0.246717	-0.015260	0.826350
Br165	Br	0.139070	-0.019802	0.772819
H166	H	0.262412	0.106853	0.898483
