data_functionalizedCrystal
_audit_creation_method	'MofGen! by Chris Wilmer'
_symmetry_space_group_name_H-M	'P1'
_symmetry_Int_Tables_number	1
_symmetry_cell_setting	triclinic
loop_
_symmetry_equiv_pos_as_xyz
  x,y,z
_cell_length_a	10.654550
_cell_length_b	14.048226
_cell_length_c	10.654550
_cell_angle_alpha	89.993740
_cell_angle_beta	95.515069
_cell_angle_gamma	90.003199
loop_
_atom_site_label
_atom_site_type_symbol
_atom_site_fract_x
_atom_site_fract_y
_atom_site_fract_z
O1	O	1.667844	0.079089	-0.176402
O2	O	1.302366	0.079107	-0.193208
O3	O	1.493508	0.079092	-0.002066
O4	O	1.476702	0.079104	-0.367544
O5	O	1.493485	-0.079230	-0.002054
O6	O	1.302343	-0.079215	-0.193196
O7	O	1.667821	-0.079232	-0.176390
Zn8	Zn	1.485078	-0.104360	-0.184791
Zn9	Zn	1.485109	0.104235	-0.184807
O10	O	1.476679	-0.079217	-0.367532
C11	C	1.255556	-0.000052	-0.191968
C12	C	1.116113	-0.000045	-0.188276
N13	N	1.485067	-0.246721	-0.184780
C14	C	1.036628	-0.000044	-0.300818
C15	C	0.905607	-0.000061	-0.297341
C16	C	0.933570	-0.000076	-0.068772
C17	C	1.064588	-0.000066	-0.072250
C18	C	1.569731	-0.296546	-0.100178
C19	C	1.569740	-0.396203	-0.100177
C20	C	1.485089	-0.446034	-0.184786
C21	C	1.400415	-0.396203	-0.269392
C22	C	1.400401	-0.296547	-0.269386
C23	C	1.400451	-0.603917	-0.269402
C24	C	1.400466	-0.703580	-0.269410
C25	C	1.569790	-0.703573	-0.100193
C26	C	1.569776	-0.603918	-0.100187
C27	C	1.485103	-0.554093	-0.184795
C28	C	1.714631	-0.000071	-0.177630
C29	C	1.854074	-0.000072	-0.181322
C30	C	1.492263	-0.000068	0.044738
C31	C	1.488571	-0.000067	0.184181
N32	N	1.485131	0.246596	-0.184808
C33	C	1.477925	-0.000055	-0.414336
C34	C	1.481616	-0.000050	-0.553779
C35	C	1.601112	-0.000072	0.263667
C36	C	1.597636	-0.000060	0.394688
C37	C	1.369066	-0.000042	0.366725
C38	C	1.372544	-0.000047	0.235706
H39	H	0.840894	-0.000062	-0.388984
H40	H	0.891602	-0.000098	0.025693
C41	C	1.241448	-0.000034	0.423407
H42	H	1.255493	-0.000042	0.512821
H43	H	1.195065	0.055177	0.396183
H44	H	1.195058	-0.055251	0.396198
H45	H	1.129309	-0.000070	0.019401
H46	H	1.331532	-0.744147	-0.338306
C47	C	1.248742	-0.000045	0.148266
H48	H	1.179143	-0.000046	0.197715
H49	H	1.245360	0.055164	0.096564
H50	H	1.245343	-0.055264	0.096588
C51	C	1.307260	-0.451010	-0.362425
H52	H	1.256815	-0.407060	-0.412791
H53	H	1.352855	-0.489888	-0.415145
H54	H	1.254608	-0.489882	-0.316716
H55	H	1.638669	-0.255980	-0.031285
H56	H	1.331457	-0.255980	-0.338276
C57	C	1.093302	-0.000031	-0.428441
H58	H	1.027193	-0.000042	-0.494967
H59	H	1.143828	0.055182	-0.434556
H60	H	1.143832	-0.055245	-0.434543
C61	C	1.728735	-0.000083	0.206993
H62	H	1.795262	-0.000075	0.273101
H63	H	1.734839	-0.055294	0.156474
H64	H	1.734849	0.055133	0.156455
C65	C	1.662883	-0.451007	-0.007127
H66	H	1.713309	-0.407056	0.043250
H67	H	1.617273	-0.489897	0.045581
H68	H	1.715555	-0.489867	-0.052813
C69	C	1.662918	-0.758376	-0.007116
H70	H	1.650794	-0.824864	-0.019223
H71	H	1.746850	-0.742036	-0.021533
H72	H	1.648543	-0.742051	0.076835
H73	H	1.638711	-0.563345	-0.031298
H74	H	1.689279	-0.000062	0.459401
H75	H	1.331497	-0.563353	-0.338295
