data_functionalizedCrystal
_audit_creation_method	'MofGen! by Chris Wilmer'
_symmetry_space_group_name_H-M	'P1'
_symmetry_Int_Tables_number	1
_symmetry_cell_setting	triclinic
loop_
_symmetry_equiv_pos_as_xyz
  x,y,z
_cell_length_a	6.817900
_cell_length_b	14.858329
_cell_length_c	14.125465
_cell_angle_alpha	95.625660
_cell_angle_beta	100.398878
_cell_angle_gamma	104.519616
loop_
_atom_site_label
_atom_site_type_symbol
_atom_site_fract_x
_atom_site_fract_y
_atom_site_fract_z
V1	V	-3.996446	-0.127871	-0.300249
V2	V	-3.663112	0.205463	0.033084
V3	V	-3.329779	0.538796	0.366418
O4	O	-3.979229	0.006967	-0.294251
O5	O	-3.645895	0.340300	0.039082
O6	O	-3.312562	0.673633	0.372415
O7	O	-3.953274	-0.254337	-0.298467
O8	O	-3.619941	0.078996	0.034867
O9	O	-3.286608	0.412330	0.368200
O10	O	-3.932494	-0.125543	-0.431074
O11	O	-3.599161	0.207790	-0.097741
O12	O	-3.265828	0.541123	0.235593
O13	O	-4.000152	-0.122719	-0.160726
O14	O	-3.666819	0.210615	0.172607
O15	O	-3.333486	0.543948	0.505941
V16	V	-4.481411	-0.111785	-0.283528
V17	V	-4.148078	0.221548	0.049805
V18	V	-3.814744	0.554881	0.383139
O19	O	-4.254540	-0.163156	-0.336928
O20	O	-3.921206	0.170178	-0.003594
O21	O	-3.587873	0.503511	0.329739
O22	O	-4.673514	-0.076500	-0.246849
O23	O	-4.340181	0.256833	0.086484
O24	O	-4.006848	0.590166	0.419818
O25	O	-4.301376	0.014681	-0.285310
O26	O	-3.968043	0.348014	0.048023
O27	O	-3.634709	0.681347	0.381357
O28	O	-4.616025	-0.246623	-0.289526
O29	O	-4.282691	0.086710	0.043808
O30	O	-3.949358	0.420044	0.377141
O31	O	-4.595101	-0.116938	-0.423051
O32	O	-4.261768	0.216396	-0.089717
O33	O	-3.928434	0.549729	0.243616
O34	O	-4.322156	-0.114113	-0.152703
O35	O	-3.988822	0.219220	0.180631
O36	O	-3.655489	0.552554	0.513964
C37	C	-3.800050	-0.285178	-0.293800
C38	C	-3.466717	0.048155	0.039533
C39	C	-3.133383	0.381489	0.372866
C40	C	-3.845936	-0.388563	-0.293215
C41	C	-3.512602	-0.055230	0.040118
C42	C	-3.179269	0.278103	0.373451
C43	C	-3.883195	-0.472522	-0.292731
C44	C	-3.549861	-0.139189	0.040602
C45	C	-3.216528	0.194144	0.373936
C46	C	-3.929957	-0.577854	-0.292128
C47	C	-3.596623	-0.244520	0.041205
C48	C	-3.263290	0.088813	0.374538
C49	C	-3.967243	-0.661807	-0.291649
C50	C	-3.633910	-0.328474	0.041684
C51	C	-3.300576	0.004859	0.375018
C52	C	-4.014008	-0.767145	-0.291045
C53	C	-3.680675	-0.433812	0.042289
C54	C	-3.347342	-0.100478	0.375622
C55	C	-3.773542	-0.120887	-0.462953
C56	C	-3.440209	0.212446	-0.129619
C57	C	-3.106876	0.545779	0.203714
C58	C	-3.802573	-0.119821	-0.569905
C59	C	-3.469240	0.213512	-0.236571
C60	C	-3.135907	0.546845	0.096762
C61	C	-3.855785	-0.117866	-0.765724
C62	C	-3.522452	0.215468	-0.432390
C63	C	-3.189119	0.548801	-0.099057
C64	C	-4.041440	-0.121788	-0.818053
C65	C	-3.708107	0.211545	-0.484720
C66	C	-3.374773	0.544878	-0.151387
C67	C	-4.071050	-0.120700	-0.927014
C68	C	-3.737717	0.212633	-0.593680
C69	C	-3.404383	0.545966	-0.260347
C70	C	-3.826168	-0.118954	-0.656753
C71	C	-3.492834	0.214380	-0.323420
C72	C	-3.159501	0.547713	0.009913
C73	C	-4.117942	0.045517	-0.289974
C74	C	-3.784609	0.378850	0.043359
C75	C	-3.451276	0.712184	0.376693
C76	C	-4.051294	0.148901	-0.290565
C77	C	-3.717961	0.482235	0.042768
C78	C	-3.384628	0.815568	0.376102
C79	C	-4.144450	-0.118772	-0.120819
C80	C	-3.811117	0.214562	0.212514
C81	C	-3.477784	0.547895	0.545848
C82	C	-4.094658	-0.119833	-0.013866
C83	C	-3.761325	0.213500	0.319467
C84	C	-3.427991	0.546833	0.652801
H85	H	-4.178151	-0.125973	-0.781024
H86	H	-3.844818	0.207360	-0.447690
H87	H	-3.511485	0.540693	-0.114357
H88	H	-3.719091	-0.113692	-0.802752
H89	H	-3.385757	0.219641	-0.469419
H90	H	-3.052424	0.552975	-0.136086
