data_functionalizedCrystal
_audit_creation_method	'MofGen! by Chris Wilmer'
_symmetry_space_group_name_H-M	'P1'
_symmetry_Int_Tables_number	1
_symmetry_cell_setting	triclinic
loop_
_symmetry_equiv_pos_as_xyz
  x,y,z
_cell_length_a	21.295419
_cell_length_b	21.295417
_cell_length_c	21.295411
_cell_angle_alpha	89.978356
_cell_angle_beta	89.975461
_cell_angle_gamma	90.045308
loop_
_atom_site_label
_atom_site_type_symbol
_atom_site_fract_x
_atom_site_fract_y
_atom_site_fract_z
Zn1	Zn	0.962356	-0.250432	-0.355911
Zn2	Zn	0.962258	-0.355684	-0.250637
Zn3	Zn	0.857079	-0.250460	-0.250656
Zn4	Zn	0.857048	-0.355695	-0.355868
O5	O	0.909685	-0.303068	-0.303268
O6	O	1.050432	-0.264378	-0.341956
O7	O	0.948278	-0.341733	-0.162550
O8	O	0.871098	-0.162367	-0.264645
O9	O	1.050360	-0.341706	-0.264611
O10	O	0.948444	-0.162347	-0.341975
O11	O	0.871003	-0.264425	-0.162564
O12	O	0.768985	-0.264436	-0.264603
O13	O	0.871045	-0.341724	-0.443963
O14	O	0.768963	-0.341751	-0.341902
O15	O	0.948414	-0.264388	-0.443995
O16	O	0.948248	-0.443775	-0.264570
O17	O	0.870951	-0.443783	-0.341883
C18	C	0.909603	-0.466619	-0.303233
C19	C	0.909625	-0.536588	-0.303239
C20	C	0.746133	-0.303098	-0.303250
C21	C	0.676165	-0.303126	-0.303258
C22	C	0.949909	-0.569429	-0.263024
C23	C	0.949939	-0.635172	-0.263038
C24	C	0.909673	-0.668070	-0.303261
C25	C	0.869385	-0.635220	-0.343485
C26	C	0.869361	-0.569479	-0.343474
N27	N	0.854606	-0.771351	-0.308054
N28	N	0.854630	-0.833802	-0.308061
C29	C	0.909743	-0.866145	-0.303297
N30	N	0.964832	-0.833676	-0.298514
N31	N	0.964807	-0.771219	-0.298504
C32	C	0.909694	-0.739355	-0.303278
C33	C	0.950063	-0.970272	-0.263095
C34	C	0.950093	-1.036016	-0.263113
C35	C	0.869534	-1.036063	-0.343557
C36	C	0.869510	-0.970321	-0.343541
C37	C	0.909773	-0.937429	-0.303307
C38	C	0.643358	-0.262927	-0.343593
C39	C	0.577616	-0.262910	-0.343596
C40	C	0.544683	-0.303104	-0.303269
C41	C	0.577498	-0.343305	-0.262926
C42	C	0.643239	-0.343317	-0.262920
N43	N	0.441407	-0.358181	-0.298349
N44	N	0.378956	-0.358168	-0.298359
C45	C	0.346608	-0.303071	-0.303283
N46	N	0.379071	-0.247985	-0.308210
N47	N	0.441528	-0.247999	-0.308205
C48	C	0.473397	-0.303095	-0.303271
C49	C	0.242516	-0.262850	-0.343624
C50	C	0.176772	-0.262832	-0.343622
C51	C	0.176655	-0.343233	-0.262955
C52	C	0.242397	-0.343245	-0.262953
C53	C	0.275324	-0.303055	-0.303291
C54	C	1.073875	-0.303038	-0.303286
C55	C	1.143843	-0.303025	-0.303294
C56	C	0.909737	-0.303055	-0.467458
C57	C	0.909760	-0.303049	-0.537426
C58	C	0.909785	-0.138878	-0.303317
C59	C	0.909828	-0.068909	-0.303338
C60	C	0.950044	-0.262778	-0.570311
C61	C	0.950043	-0.262751	-0.636053
C62	C	0.909764	-0.303006	-0.668909
C63	C	0.869472	-0.343279	-0.636017
C64	C	0.869470	-0.343301	-0.570276
N65	N	0.904908	-0.358075	-0.772124
N66	N	0.904914	-0.358052	-0.834576
C67	C	0.909768	-0.302942	-0.866984
N68	N	0.914629	-0.247853	-0.834581
N69	N	0.914626	-0.247876	-0.772124
C70	C	0.909762	-0.302986	-0.740194
C71	C	0.950054	-0.262638	-0.971154
C72	C	0.950049	-0.262610	-1.036897
C73	C	0.869481	-0.343143	-1.036860
C74	C	0.869483	-0.343166	-0.971118
C75	C	0.909773	-0.302914	-0.938268
C76	C	0.909669	-0.303036	-0.139716
C77	C	0.909769	-0.302864	-0.069749
H78	H	0.982696	-0.542651	-0.230264
C79	C	0.825180	-0.387427	-1.072994
H80	H	0.830954	-0.381651	-1.116857
H81	H	0.782889	-0.378231	-1.062205
H82	H	0.834375	-0.429725	-1.062220
C83	C	0.994400	-1.072145	-0.218867
H84	H	0.988652	-1.116009	-0.224638
H85	H	0.985193	-1.061402	-0.176565
H86	H	1.036692	-1.061319	-0.228109
H87	H	0.836752	-1.062848	-0.376310
H88	H	0.836703	-0.943579	-0.376286
H89	H	0.982850	-0.230001	-0.543569
C90	C	0.541274	-0.387519	-0.218570
H91	H	0.497422	-0.381760	-0.224355
H92	H	0.552033	-0.378248	-0.176291
H93	H	0.552014	-0.429831	-0.227709
H94	H	0.669950	-0.376052	-0.230073
H95	H	0.982857	-0.229859	-0.944406
H96	H	0.670163	-0.230200	-0.376439
C97	C	0.825094	-0.671403	-0.387731
H98	H	0.801101	-0.642425	-0.411685
H99	H	0.797686	-0.697093	-0.363632
H100	H	0.849175	-0.697005	-0.415186
C101	C	0.825170	-0.387561	-0.672156
H102	H	0.830946	-0.381785	-0.716019
H103	H	0.782879	-0.378361	-0.661368
H104	H	0.834362	-0.429859	-0.661381
H105	H	0.269326	-0.230121	-0.376465
H106	H	0.550899	-0.230172	-0.376441
H107	H	0.836556	-0.542739	-0.376223
H108	H	0.150062	-0.230094	-0.376467
C109	C	0.825164	-0.387609	-0.534102
H110	H	0.801178	-0.411584	-0.563083
H111	H	0.797751	-0.363549	-0.508440
H112	H	0.849238	-0.415042	-0.508471
C113	C	0.994248	-0.671305	-0.218794
H114	H	1.018220	-0.642300	-0.194828
H115	H	1.021675	-0.696910	-0.242898
H116	H	0.970179	-0.696990	-0.191350
H117	H	0.836683	-0.375963	-0.944343
C118	C	0.994364	-0.218310	-1.073070
H119	H	1.018361	-0.194347	-1.044088
H120	H	0.970305	-0.190875	-1.098707
H121	H	1.021777	-0.242384	-1.098726
H122	H	0.269109	-0.375982	-0.230110
C123	C	0.994356	-0.934088	-0.218846
H124	H	1.018361	-0.963066	-0.194903
H125	H	0.970282	-0.908486	-0.191390
H126	H	1.021763	-0.908398	-0.242952
C127	C	0.140439	-0.387444	-0.218593
H128	H	0.169397	-0.411386	-0.194567
H129	H	0.114777	-0.414902	-0.242621
H130	H	0.114806	-0.363313	-0.191209
H131	H	0.982846	-0.229954	-0.662833
