data_functionalizedCrystal
_audit_creation_method	'MofGen! by Chris Wilmer'
_symmetry_space_group_name_H-M	'P1'
_symmetry_Int_Tables_number	1
_symmetry_cell_setting	triclinic
loop_
_symmetry_equiv_pos_as_xyz
  x,y,z
_cell_length_a	15.995350
_cell_length_b	14.971482
_cell_length_c	14.048226
_cell_angle_alpha	89.999965
_cell_angle_beta	90.009906
_cell_angle_gamma	83.552491
loop_
_atom_site_label
_atom_site_type_symbol
_atom_site_fract_x
_atom_site_fract_y
_atom_site_fract_z
O1	O	0.109109	1.186816	0.079143
O2	O	0.122179	0.926400	0.079147
O3	O	-0.006236	1.063727	0.079144
O4	O	0.237525	1.049489	0.079146
O5	O	-0.006259	1.063727	-0.079177
O6	O	0.122156	0.926401	-0.079174
O7	O	0.109086	1.186817	-0.079178
Zn8	Zn	0.115617	1.056609	-0.104313
Zn9	Zn	0.115648	1.056608	0.104282
O10	O	0.237502	1.049490	-0.079175
C11	C	0.121584	0.893077	-0.000013
C12	C	0.119834	0.793781	-0.000011
C13	C	0.118997	0.747138	-0.086313
C14	C	0.117339	0.653841	-0.086314
C15	C	0.116525	0.607189	-0.000012
C16	C	0.117359	0.653839	0.086297
C17	C	0.119011	0.747135	0.086297
C18	C	0.113919	0.459381	0.086291
C19	C	0.112268	0.366079	0.086291
C20	C	0.112247	0.366088	-0.086320
C21	C	0.113899	0.459383	-0.086320
C22	C	0.114735	0.506027	-0.000011
C23	C	-0.037443	1.063138	-0.000014
C24	C	-0.130395	1.061374	-0.000009
C25	C	-0.468149	1.055037	-0.000012
C26	C	-0.420812	0.957235	0.000345
C27	C	-0.324120	0.959000	-0.000012
C28	C	-0.300585	1.058180	-0.000010
C29	C	-0.341628	1.106420	-0.090418
C30	C	-0.438267	1.103963	-0.090494
C31	C	-0.438596	1.105982	0.089547
C32	C	-0.341651	1.105959	0.090742
C33	C	-0.205886	1.059962	-0.000012
C34	C	-0.562849	1.053258	-0.000016
C35	C	0.268709	1.050078	-0.000014
C36	C	0.361661	1.051843	-0.000013
C37	C	0.109682	1.220140	-0.000016
C38	C	0.111432	1.319436	-0.000011
N39	N	0.115663	1.056608	0.246643
N40	N	0.115596	1.056616	-0.246673
C41	C	0.058855	1.117537	0.703481
C42	C	0.058864	1.117532	0.603824
C43	C	0.115619	1.056611	0.554013
C44	C	0.172363	0.995683	0.603865
C45	C	0.172349	0.995684	0.703521
C46	C	0.172389	0.995687	0.396151
C47	C	0.172404	0.995687	0.296488
C48	C	0.058904	1.117535	0.296453
C49	C	0.058890	1.117536	0.396109
C50	C	0.115635	1.056610	0.445955
H51	H	0.119694	0.785110	0.156573
H52	H	0.116644	0.615871	-0.156590
H53	H	0.111567	0.328106	-0.156596
N54	N	0.000906	1.179773	0.446967
N55	N	-0.051195	1.151533	0.502555
H56	H	-0.092150	1.195493	0.538465
N57	N	0.111430	0.318437	0.174453
N58	N	0.112165	0.360092	0.251506
H59	H	0.111571	0.326447	0.313773
N60	N	0.000867	1.179729	0.754388
N61	N	-0.051195	1.151416	0.809974
H62	H	-0.092154	1.195329	0.845937
N63	N	0.230333	0.933438	0.553001
N64	N	0.228908	0.850788	0.564131
H65	H	0.269850	0.806824	0.528209
H66	H	0.218594	0.946071	0.436732
N67	N	0.114735	0.507025	-0.174482
N68	N	0.113985	0.465372	-0.251536
H69	H	0.114572	0.499019	-0.313802
N70	N	0.114764	0.507015	0.174461
N71	N	0.114037	0.465353	0.251511
H72	H	0.114637	0.498994	0.313780
H73	H	0.119667	0.785115	-0.156590
N74	N	0.116508	0.606190	0.174453
N75	N	0.056612	0.562380	0.193705
H76	H	0.056012	0.528728	0.255968
N77	N	0.000898	1.179735	0.552883
N78	N	0.027630	1.235178	0.497252
H79	H	-0.013318	1.279096	0.461265
H80	H	-0.295726	0.921081	0.064796
N81	N	-0.461275	1.059834	-0.175278
N82	N	-0.405986	1.031060	-0.233981
H83	H	-0.422230	0.999892	-0.293862
N84	N	-0.323819	1.197828	-0.094625
N85	N	-0.280573	1.228511	-0.030887
H86	H	-0.267993	1.293069	-0.033854
N87	N	0.000935	1.179764	0.245540
N88	N	0.002342	1.262420	0.256648
H89	H	-0.038595	1.306365	0.220681
H90	H	0.218619	0.946077	0.255938
H91	H	-0.314427	1.070690	0.157623
N92	N	0.230311	0.933445	0.754426
N93	N	0.280981	0.879054	0.709944
H94	H	0.321917	0.835093	0.745893
H95	H	-0.439373	0.918145	0.065178
H96	H	-0.296302	0.920827	-0.064930
N97	N	-0.445458	0.908420	-0.080534
N98	N	-0.497735	0.945347	-0.138436
H99	H	-0.515144	0.910874	-0.195559
N100	N	-0.464369	1.065875	0.175523
N101	N	-0.446414	1.097446	0.254346
H102	H	-0.464614	1.069112	0.315063
H103	H	-0.470444	1.175767	-0.094594
N104	N	-0.306088	1.064373	-0.174816
N105	N	-0.312202	0.983109	-0.190075
H106	H	-0.287103	0.953407	-0.249680
N107	N	-0.322283	1.196691	0.097577
N108	N	-0.344127	1.251477	0.032646
H109	H	-0.330446	1.315560	0.037464
H110	H	-0.470286	1.178091	0.090156
