data_functionalizedCrystal
_audit_creation_method	'MofGen! by Chris Wilmer'
_symmetry_space_group_name_H-M	'P1'
_symmetry_Int_Tables_number	1
_symmetry_cell_setting	triclinic
loop_
_symmetry_equiv_pos_as_xyz
  x,y,z
_cell_length_a	17.038278
_cell_length_b	17.038272
_cell_length_c	12.503572
_cell_angle_alpha	93.777379
_cell_angle_beta	86.226501
_cell_angle_gamma	91.111028
loop_
_atom_site_label
_atom_site_type_symbol
_atom_site_fract_x
_atom_site_fract_y
_atom_site_fract_z
O1	O	1.052981	0.166285	-0.089331
O2	O	1.552981	0.666285	0.410669
O3	O	0.825170	0.163579	-0.089331
O4	O	1.325170	0.663579	0.410669
O5	O	0.937721	0.051026	-0.089323
O6	O	1.437721	0.551026	0.410677
O7	O	0.940430	0.278837	-0.089340
O8	O	1.440430	0.778837	0.410660
O9	O	0.929257	0.059506	0.089319
O10	O	1.429257	0.559506	0.589319
O11	O	0.816706	0.172058	0.089310
O12	O	1.316706	0.672058	0.589310
O13	O	1.044517	0.174764	0.089310
O14	O	1.544517	0.674764	0.589310
Cu15	Cu	0.929839	0.174186	0.105621
Cu16	Cu	1.429839	0.674186	0.605621
Cu17	Cu	0.939848	0.164157	-0.105643
Cu18	Cu	1.439848	0.664157	0.394357
O19	O	0.931966	0.287317	0.089302
O20	O	1.431966	0.787317	0.589302
C21	C	0.791645	0.165356	-0.000011
C22	C	1.291645	0.665356	0.499989
C23	C	0.704362	0.158009	-0.000011
C24	C	1.204362	0.658009	0.499989
C25	C	0.210936	0.112871	-0.000011
C26	C	0.710936	0.612871	0.499989
C27	C	0.292947	0.119781	-0.000005
C28	C	0.792947	0.619781	0.499995
C29	C	0.329348	0.194154	-0.000016
C30	C	0.829348	0.694154	0.499984
C31	C	0.283731	0.261622	-0.000021
C32	C	0.783731	0.761622	0.499979
C33	C	0.201721	0.254712	-0.000019
C34	C	0.701721	0.754712	0.499981
C35	C	0.576735	0.218567	-0.000014
C36	C	1.076735	0.718567	0.499986
C37	C	0.658752	0.225472	-0.000019
C38	C	1.158752	0.725472	0.499981
C39	C	0.667962	0.083630	-0.000001
C40	C	1.167962	0.583630	0.499999
C41	C	0.585950	0.076726	-0.000006
C42	C	1.085950	0.576726	0.499994
C43	C	0.540340	0.144194	-0.000006
C44	C	1.040340	0.644194	0.499994
C45	C	0.413177	0.201219	-0.000013
C46	C	0.913177	0.701219	0.499987
C47	C	0.456513	0.137129	-0.000001
C48	C	0.956513	0.637129	0.499999
C49	C	0.931026	0.025973	-0.000002
C50	C	1.431026	0.525973	0.499998
C51	C	0.923678	-0.061310	-0.000002
C52	C	1.423678	0.438690	0.499998
C53	C	1.078042	0.172987	-0.000013
C54	C	1.578042	0.672987	0.499987
C55	C	1.165326	0.180334	-0.000020
C56	C	1.665326	0.680334	0.499980
C57	C	0.991142	-0.106920	-0.000001
C58	C	1.491142	0.393080	0.499999
C59	C	0.984233	-0.188932	-0.000011
C60	C	1.484233	0.311068	0.499989
C61	C	0.909860	-0.225333	-0.000015
C62	C	1.409860	0.274667	0.499985
C63	C	0.842392	-0.179717	-0.000020
C64	C	1.342392	0.320283	0.499980
C65	C	0.849301	-0.097707	-0.000017
C66	C	1.349301	0.402293	0.499983
C67	C	0.885450	-0.472721	-0.000030
C68	C	1.385450	0.027279	0.499970
C69	C	0.878546	-0.554738	-0.000029
C70	C	1.378546	-0.054738	0.499971
C71	C	1.020388	-0.563947	-0.000023
C72	C	1.520388	-0.063947	0.499977
C73	C	1.027291	-0.481934	-0.000014
C74	C	1.527291	0.018066	0.499986
C75	C	0.959822	-0.436326	-0.000024
C76	C	1.459822	0.063674	0.499976
C77	C	0.902797	-0.309162	-0.000022
C78	C	1.402797	0.190838	0.499978
C79	C	0.966887	-0.352499	-0.000025
C80	C	1.466887	0.147501	0.499975
C81	C	0.938661	0.312369	-0.000021
C82	C	1.438661	0.812369	0.499979
C83	C	0.946009	0.399653	-0.000028
C84	C	1.446009	0.899653	0.499972
N85	N	0.922805	0.181239	0.254213
N86	N	1.422805	0.681239	0.754213
N87	N	0.946888	0.157098	-0.254234
N88	N	1.446888	0.657098	0.245766
C89	C	0.912458	0.191621	0.473328
C90	C	1.412458	0.691621	0.973328
C91	C	0.957233	0.146719	0.526658
C92	C	1.457233	0.646719	1.026658
C93	C	0.951475	0.152496	0.648581
C94	C	1.451475	0.652496	1.148581
C95	C	0.918214	0.185845	0.351394
C96	C	1.418214	0.685845	0.851394
H97	H	0.330080	0.064845	0.000006
H98	H	0.830080	0.564845	0.500006
O99	O	0.175484	0.040673	0.000140
O100	O	0.675484	0.540673	0.500140
C101	C	0.123953	0.036820	0.092674
C102	C	0.623953	0.536820	0.592674
H103	H	0.106203	0.098824	0.123510
H104	H	0.606203	0.598824	0.623510
H105	H	0.069220	0.000955	0.071871
H106	H	0.569220	0.500955	0.571871
H107	H	0.154764	0.007564	0.157466
H108	H	0.654764	0.507564	0.657466
H109	H	0.794365	-0.060572	-0.000018
H110	H	1.294365	0.439428	0.499982
H111	H	0.999890	0.103939	0.480749
H112	H	1.499890	0.603939	0.980749
O113	O	0.770095	-0.214977	0.000117
O114	O	1.270095	0.285023	0.500117
C115	C	0.724260	-0.187760	0.092647
C116	C	1.224260	0.312240	0.592647
H117	H	0.747982	-0.128063	0.123495
H118	H	1.247982	0.371937	0.623495
H119	H	0.660605	-0.181723	0.071835
H120	H	1.160605	0.318277	0.571835
H121	H	0.727130	-0.231483	0.157433
H122	H	1.227130	0.268517	0.657433
H123	H	1.039169	-0.226064	-0.000008
H124	H	1.539169	0.273936	0.499992
H125	H	0.426873	0.076574	-0.000005
H126	H	0.926873	0.576574	0.499995
O127	O	1.039095	-0.317059	-0.000164
O128	O	1.539095	0.182941	0.499836
C129	C	1.051726	-0.274300	-0.092697
C130	C	1.551726	0.225700	0.407303
H131	H	0.992648	-0.259485	-0.123550
H132	H	1.492648	0.240515	0.376450
H133	H	1.085605	-0.217588	-0.071884
H134	H	1.585605	0.282412	0.428116
H135	H	1.087139	-0.311248	-0.157479
H136	H	1.587139	0.188752	0.342521
H137	H	0.164586	0.309648	-0.000023
H138	H	0.664586	0.809648	0.499977
O139	O	0.830602	-0.344621	-0.000159
O140	O	1.330602	0.155379	0.499841
C141	C	0.826741	-0.396155	-0.092695
C142	C	1.326741	0.103845	0.407305
H143	H	0.888744	-0.413894	-0.123547
H144	H	1.388744	0.086106	0.376453
H145	H	0.790891	-0.450894	-0.071887
H146	H	1.290891	0.049106	0.428113
H147	H	0.797466	-0.365351	-0.157476
H148	H	1.297466	0.134649	0.342524
H149	H	0.869804	0.234399	0.519232
H150	H	1.369804	0.734399	1.019232
H151	H	0.817978	-0.584371	-0.000015
H152	H	1.317978	-0.084371	0.499985
H153	H	0.556319	0.016164	0.000002
H154	H	1.056319	0.516164	0.500002
H155	H	0.688385	0.286039	-0.000012
H156	H	1.188385	0.786039	0.499988
O157	O	0.712381	0.018178	0.000055
O158	O	1.212381	0.518178	0.500055
C159	C	0.792572	0.040219	0.000024
C160	C	1.292572	0.540219	0.500024
H161	H	0.798214	0.103719	0.033832
H162	H	1.298214	0.603719	0.533832
H163	H	0.824224	0.000017	0.051897
H164	H	1.324224	0.500017	0.551897
H165	H	0.820124	0.034744	-0.085679
H166	H	1.320124	0.534744	0.414321
O167	O	0.532557	0.284180	-0.000068
O168	O	1.032557	0.784180	0.499932
C169	C	0.582273	0.351303	-0.000055
C170	C	1.082273	0.851303	0.499945
H171	H	0.643683	0.333827	-0.033878
H172	H	1.143683	0.833827	0.466122
H173	H	0.557814	0.396446	-0.051924
H174	H	1.057814	0.896446	0.448076
H175	H	0.585523	0.377915	0.085644
H176	H	1.085523	0.877915	0.585644
H177	H	0.442823	0.261773	-0.000025
H178	H	0.942823	0.761773	0.499975
H179	H	1.051704	-0.077289	0.000008
H180	H	1.551704	0.422711	0.500008
H181	H	0.313375	0.322179	-0.000023
H182	H	0.813375	0.822179	0.499977
H183	H	1.075317	-0.601090	-0.000017
H184	H	1.575317	-0.101090	0.499983
O185	O	1.099565	-0.446627	-0.000201
O186	O	1.599565	0.053373	0.499799
C187	C	1.145416	-0.473870	-0.092704
C188	C	1.645416	0.026130	0.407296
H189	H	1.105088	-0.496781	-0.157377
H190	H	1.605088	0.003219	0.342623
H191	H	1.183605	-0.423500	-0.123751
H192	H	1.683605	0.076500	0.376249
H193	H	1.184630	-0.523358	-0.071786
H194	H	1.684630	-0.023358	0.428214
O195	O	0.819831	-0.428538	0.000022
O196	O	1.319831	0.071462	0.500022
C197	C	0.752710	-0.478257	-0.000000
C198	C	1.252710	0.021743	0.500000
H199	H	0.766980	-0.536463	0.033816
H200	H	1.266980	-0.036463	0.533816
H201	H	0.702649	-0.448884	0.051871
H202	H	1.202649	0.051116	0.551871
H203	H	0.734225	-0.489626	-0.085701
H204	H	1.234225	0.010374	0.414299
