data_functionalizedCrystal
_audit_creation_method	'MofGen! by Chris Wilmer'
_symmetry_space_group_name_H-M	'P1'
_symmetry_Int_Tables_number	1
_symmetry_cell_setting	triclinic
loop_
_symmetry_equiv_pos_as_xyz
  x,y,z
_cell_length_a	6.817900
_cell_length_b	12.200863
_cell_length_c	9.514088
_cell_angle_alpha	89.402400
_cell_angle_beta	118.843545
_cell_angle_gamma	107.143441
loop_
_atom_site_label
_atom_site_type_symbol
_atom_site_fract_x
_atom_site_fract_y
_atom_site_fract_z
V1	V	-4.236300	-0.160747	-0.500908
O2	O	-4.200703	0.005632	-0.491205
O3	O	-4.204774	-0.316721	-0.497644
O4	O	-4.270895	-0.159192	-0.719298
O5	O	-4.134123	-0.152987	-0.268017
V6	V	-4.706987	-0.140737	-0.473033
O7	O	-4.525715	-0.204639	-0.562055
O8	O	-4.867769	-0.096845	-0.411886
O9	O	-4.515306	0.015237	-0.476297
O10	O	-4.859981	-0.307116	-0.482736
O11	O	-4.926560	-0.148497	-0.705925
O12	O	-4.449184	-0.142292	-0.254643
C13	C	-4.051195	-0.354716	-0.489784
C14	C	-4.107259	-0.482233	-0.488570
C15	C	-4.135537	-0.153771	-0.772523
C16	C	-4.245218	-0.153532	-0.951059
C17	C	-4.209872	-0.715701	-0.486362
C18	C	-4.152762	-0.585782	-0.487591
C19	C	-4.332226	0.053225	-0.484153
C20	C	-4.255404	0.180741	-0.485377
C21	C	-4.247882	-0.147717	-0.201410
C22	C	-4.117438	-0.147950	-0.022872
H23	H	-4.438541	-0.158130	-1.026171
H24	H	-3.924138	-0.143365	-0.947772
