data_functionalizedCrystal
_audit_creation_method	'MofGen! by Chris Wilmer'
_symmetry_space_group_name_H-M	'P1'
_symmetry_Int_Tables_number	1
_symmetry_cell_setting	triclinic
loop_
_symmetry_equiv_pos_as_xyz
  x,y,z
_cell_length_a	16.625548
_cell_length_b	12.645330
_cell_length_c	12.645323
_cell_angle_alpha	90.024870
_cell_angle_beta	90.022465
_cell_angle_gamma	90.018760
loop_
_atom_site_label
_atom_site_type_symbol
_atom_site_fract_x
_atom_site_fract_y
_atom_site_fract_z
Zn1	Zn	1.232722	-0.422001	0.599440
Zn2	Zn	1.732722	0.077999	1.099440
Zn3	Zn	1.232632	-0.599289	0.422180
Zn4	Zn	1.732632	-0.099289	0.922180
Zn5	Zn	1.097880	-0.422043	0.422185
Zn6	Zn	1.597880	0.077957	0.922185
Zn7	Zn	1.097866	-0.599226	0.599396
Zn8	Zn	1.597866	-0.099226	1.099396
O9	O	1.165275	-0.510640	0.510801
O10	O	1.665275	-0.010640	1.010801
O11	O	1.345543	-0.445527	0.575943
O12	O	1.845543	0.054473	1.075943
O13	O	1.214725	-0.575821	0.273834
O14	O	1.714725	-0.075821	0.773834
O15	O	1.115810	-0.273690	0.445719
O16	O	1.615810	0.226310	0.945719
O17	O	1.345477	-0.575780	0.445711
O18	O	1.845477	-0.075780	0.945711
O19	O	1.214879	-0.273659	0.575948
O20	O	1.714879	0.226341	1.075948
O21	O	1.115723	-0.445599	0.273837
O22	O	1.615723	0.054401	0.773837
O23	O	0.985045	-0.445538	0.445677
O24	O	1.485045	0.054462	0.945677
O25	O	1.115787	-0.575673	0.747750
O26	O	1.615787	-0.075673	1.247750
O27	O	0.985035	-0.575714	0.575873
O28	O	1.485035	-0.075714	1.075873
O29	O	1.214865	-0.445466	0.747782
O30	O	1.714865	0.054534	1.247782
O31	O	1.214712	-0.747628	0.445668
O32	O	1.714712	-0.247628	0.945668
O33	O	1.115699	-0.747582	0.575868
O34	O	1.615699	-0.247582	1.075868
C35	C	0.955784	-0.510624	0.510771
C36	C	1.455784	-0.010624	1.010771
C37	C	0.866163	-0.510644	0.510783
C38	C	1.366163	-0.010644	1.010783
C39	C	0.537987	-0.510650	0.510829
C40	C	1.037987	-0.010650	1.010829
C41	C	0.629296	-0.510646	0.510813
C42	C	1.129296	-0.010646	1.010813
C43	C	0.702072	-0.510648	0.510805
C44	C	1.202072	-0.010648	1.010805
C45	C	0.793387	-0.510642	0.510791
C46	C	1.293387	-0.010642	1.010791
C47	C	1.165216	-0.786069	0.510786
C48	C	1.665216	-0.286069	1.010786
C49	C	1.165265	-0.903899	0.510815
C50	C	1.665265	-0.403899	1.010815
C51	C	1.103233	-1.071478	0.592976
C52	C	1.603233	-0.571478	1.092976
C53	C	1.102916	-0.948919	0.592712
C54	C	1.602916	-0.448919	1.092712
C55	C	1.142260	-0.948494	0.399093
C56	C	1.642260	-0.448494	0.899093
C57	C	1.141882	-1.071092	0.399592
C58	C	1.641882	-0.571092	0.899592
C59	C	1.250681	-1.070987	0.539469
C60	C	1.750681	-0.570987	1.039469
C61	C	1.250157	-0.948380	0.541912
C62	C	1.750157	-0.448380	1.041912
C63	C	1.375584	-0.510656	0.510831
C64	C	1.875584	-0.010656	1.010831
C65	C	1.465205	-0.510662	0.510844
C66	C	1.965205	-0.010662	1.010844
C67	C	1.165334	-0.510558	0.787306
C68	C	1.665334	-0.010558	1.287306
C69	C	1.165360	-0.510523	0.905136
C70	C	1.665360	-0.010523	1.405136
C71	C	1.165356	-0.234134	0.510839
C72	C	1.665356	0.265866	1.010839
C73	C	1.165391	-0.116304	0.510855
C74	C	1.665391	0.383696	1.010855
C75	C	1.165262	-0.510645	0.235371
C76	C	1.665262	-0.010645	0.735371
C77	C	1.165393	-0.510381	0.117541
C78	C	1.665393	-0.010381	0.617541
C79	C	1.102837	-0.592050	1.072680
C80	C	1.602837	-0.092050	1.572680
C81	C	1.103001	-0.592453	0.950120
C82	C	1.603001	-0.092453	1.450120
C83	C	1.250318	-0.540839	0.949656
C84	C	1.750318	-0.040839	1.449656
C85	C	1.249975	-0.541350	1.072254
C86	C	1.749975	-0.041350	1.572254
C87	C	1.143727	-0.398223	1.072334
C88	C	1.643727	0.101777	1.572334
C89	C	1.141832	-0.398896	0.949728
C90	C	1.641832	0.101104	1.449728
H91	H	1.117309	-0.918765	0.675553
H92	H	1.617309	-0.418765	1.175553
H93	H	1.186098	-0.919335	0.336234
H94	H	1.686098	-0.419335	0.836234
F95	F	1.274735	-0.646882	0.909545
F96	F	1.774735	-0.146882	1.409545
F97	F	1.021105	-1.111888	0.568533
F98	F	1.521105	-0.611888	1.068533
H99	H	1.185190	-1.100749	0.336318
H100	H	1.685190	-0.600749	0.836318
H101	H	1.184066	-0.334832	0.919106
H102	H	1.684066	0.165168	1.419106
H103	H	1.267506	-0.919229	0.624134
H104	H	1.767506	-0.419229	1.124134
H105	H	1.117494	-1.100890	0.676089
H106	H	1.617494	-0.600890	1.176089
F107	F	1.060107	-0.369015	0.911705
F108	F	1.560107	0.130985	1.411705
F109	F	1.061615	-0.908491	0.366836
F110	F	1.561615	-0.408491	0.866836
F111	F	1.203280	-0.318692	1.110255
F112	F	1.703280	0.181308	1.610255
F113	F	1.311213	-1.108891	0.461304
F114	F	1.811213	-0.608891	0.961304
F115	F	1.020268	-0.910704	0.567938
F116	F	1.520268	-0.410704	1.067938
F117	F	1.273978	-0.648516	1.109653
F118	F	1.773978	-0.148516	1.609653
H119	H	1.079534	-1.099785	0.375352
H120	H	1.579534	-0.599785	0.875352
F121	F	1.064161	-0.362103	1.112725
F122	F	1.564161	0.137897	1.612725
F123	F	1.278110	-1.111300	0.644144
F124	F	1.778110	-0.611300	1.144144
F125	F	1.313880	-0.908310	0.469433
F126	F	1.813880	-0.408310	0.969433
H127	H	1.040001	-0.573482	0.920018
H128	H	1.540001	-0.073482	1.420018
H129	H	1.039651	-0.573261	1.102154
H130	H	1.539651	-0.073261	1.602154
H131	H	1.117000	-0.674677	1.103499
H132	H	1.617000	-0.174677	1.603499
H133	H	1.117303	-0.675601	0.920806
H134	H	1.617303	-0.175601	1.420806
F135	F	1.312875	-0.465550	0.911577
F136	F	1.812875	0.034450	1.411577
F137	F	1.312928	-0.466930	1.111049
F138	F	1.812928	0.033070	1.611049
