data_functionalizedCrystal
_audit_creation_method	'MofGen! by Chris Wilmer'
_symmetry_space_group_name_H-M	'P1'
_symmetry_Int_Tables_number	1
_symmetry_cell_setting	triclinic
loop_
_symmetry_equiv_pos_as_xyz
  x,y,z
_cell_length_a	19.188925
_cell_length_b	19.188930
_cell_length_c	11.804365
_cell_angle_alpha	101.784974
_cell_angle_beta	78.191909
_cell_angle_gamma	83.143665
loop_
_atom_site_label
_atom_site_type_symbol
_atom_site_fract_x
_atom_site_fract_y
_atom_site_fract_z
O1	O	0.940301	0.073003	-0.099064
O2	O	0.736989	0.084742	-0.099062
O3	O	0.844509	-0.022780	-0.099040
O4	O	0.832781	0.180525	-0.099086
O5	O	0.816203	0.005498	0.099010
O6	O	0.708683	0.113020	0.098988
O7	O	0.911995	0.101281	0.098986
Cu8	Cu	0.807755	0.109732	0.117070
Cu9	Cu	0.841230	0.076291	-0.117147
O10	O	0.804475	0.208803	0.098964
C11	C	0.696825	0.098501	-0.000037
C12	C	0.619320	0.097362	-0.000035
C13	C	0.057552	0.152824	-0.000051
C14	C	0.130376	0.153900	-0.000057
C15	C	0.175308	0.090810	-0.000041
C16	C	0.147415	0.026635	-0.000048
C17	C	0.074594	0.025560	-0.000054
N18	N	0.286348	0.054761	0.067387
N19	N	0.355525	0.055787	0.067395
C20	C	0.394715	0.094046	-0.000028
N21	N	0.362113	0.131252	-0.067443
N22	N	0.292930	0.130228	-0.067445
C23	C	0.254272	0.091969	-0.000036
C24	C	0.501566	0.159381	-0.000036
C25	C	0.574393	0.160453	-0.000050
C26	C	0.591429	0.033189	-0.000029
C27	C	0.518605	0.032117	-0.000027
C28	C	0.473677	0.095216	-0.000025
C29	C	0.829975	-0.034651	-0.000011
C30	C	0.828833	-0.112155	-0.000001
C31	C	0.891924	-0.157079	0.000004
C32	C	0.890855	-0.229905	-0.000015
C33	C	0.826688	-0.257801	-0.000015
C34	C	0.763591	-0.212867	-0.000027
C35	C	0.764663	-0.140044	-0.000020
N36	N	0.768008	-0.356181	0.067385
N37	N	0.766993	-0.425360	0.067381
C38	C	0.823454	-0.477213	-0.000040
N39	N	0.880976	-0.457272	-0.067441
N40	N	0.881992	-0.388086	-0.067431
C41	C	0.825519	-0.336765	-0.000024
C42	C	0.885390	-0.601105	-0.000057
C43	C	0.884319	-0.673933	-0.000083
C44	C	0.757052	-0.656892	-0.000083
C45	C	0.758126	-0.584067	-0.000069
C46	C	0.822296	-0.556177	-0.000050
C47	C	0.952160	0.087521	-0.000042
C48	C	1.029666	0.088659	-0.000051
C49	C	0.819009	0.220674	-0.000067
C50	C	0.820152	0.298176	-0.000086
N51	N	0.784215	0.133253	0.281806
N52	N	0.864774	0.052764	-0.281882
C53	C	0.921301	-0.003731	0.655783
C54	C	0.939108	-0.021528	0.531125
C55	C	0.900386	0.017166	0.468790
C56	C	0.843855	0.073659	0.531124
C57	C	0.826050	0.091461	0.655794
C58	C	0.805135	0.112358	0.468800
C59	C	0.748604	0.168852	0.531134
C60	C	0.730802	0.186650	0.655792
C61	C	0.769523	0.147957	0.718128
C62	C	0.822940	0.094556	0.344130
C63	C	0.727689	0.189749	0.344140
C64	C	0.709882	0.207545	0.468798
H65	H	0.597097	0.212705	-0.000059
C66	C	0.706591	-0.062791	-0.101826
C67	C	0.695308	-0.090659	-0.000021
H68	H	0.663771	-0.032305	-0.101826
H69	H	0.744953	-0.035758	-0.101808
H70	H	0.718689	-0.101413	-0.170887
H71	H	0.683215	-0.052037	0.069040
H72	H	0.656934	-0.117693	-0.000028
H73	H	0.663853	0.253544	0.519566
H74	H	0.495899	-0.020132	-0.000020
H75	H	0.868968	0.048560	0.293388
C76	C	-0.011970	-0.034942	0.101760
C77	C	0.043934	-0.044973	-0.000048
H78	H	-0.030902	-0.078485	0.101757
H79	H	0.006217	-0.022027	0.170810
H80	H	-0.049145	0.002483	0.101743
H81	H	0.081111	-0.082395	-0.000028
H82	H	0.025748	-0.057898	-0.069117
C83	C	0.638437	0.278955	0.643278
C84	C	0.668667	0.248752	0.724312
H85	H	0.600076	0.317292	0.685581
H86	H	0.674365	0.297053	0.594640
H87	H	0.620357	0.243005	0.594671
H88	H	0.686752	0.284701	0.772914
H89	H	0.632732	0.230656	0.772971
C90	C	0.977745	-0.060160	0.290214
C91	C	0.919952	-0.002401	0.331763
H92	H	0.989820	-0.072244	0.205616
H93	H	1.018306	-0.046683	0.318388
H94	H	0.964296	-0.100728	0.318445
H95	H	0.933403	0.038170	0.303539
H96	H	0.879383	-0.015875	0.303576
C97	C	1.016756	-0.239438	0.000017
C98	C	0.960207	-0.279297	-0.000001
H99	H	1.059569	-0.269929	0.000034
H100	H	1.024406	-0.220538	-0.069043
H101	H	1.004648	-0.200822	0.069087
H102	H	0.972313	-0.317910	-0.069075
H103	H	0.952557	-0.298209	0.069066
C104	C	0.698899	-0.760954	-0.000096
C105	C	0.686518	-0.687547	-0.000087
H106	H	0.655352	-0.779879	-0.000095
H107	H	0.734735	-0.786235	-0.069156
H108	H	0.714995	-0.766530	0.068973
H109	H	0.670427	-0.681971	-0.069161
H110	H	0.650670	-0.662258	0.068980
H111	H	0.464983	0.210760	-0.000036
H112	H	0.184004	-0.024733	-0.000038
C113	C	0.632222	-0.574538	-0.000053
C114	C	0.688771	-0.534678	-0.000054
H115	H	0.589403	-0.544044	-0.000038
H116	H	0.644318	-0.613145	-0.069118
H117	H	0.624586	-0.593446	0.069012
H118	H	0.696410	-0.515774	-0.069123
H119	H	0.676672	-0.496057	0.069018
C120	C	0.691796	0.305241	0.305738
C121	C	0.685121	0.232287	0.275634
H122	H	0.665523	0.331499	0.263434
H123	H	0.673102	0.323923	0.388893
H124	H	0.741291	0.309778	0.285283
H125	H	0.635626	0.227750	0.296097
H126	H	0.703812	0.213600	0.192461
C127	C	0.974969	-0.543607	-0.101853
C128	C	0.955923	-0.570440	-0.000053
H129	H	1.018511	-0.524673	-0.101845
H130	H	0.981778	-0.581513	-0.170909
H131	H	0.937538	-0.506427	-0.101831
H132	H	0.993352	-0.607624	-0.000079
H133	H	0.949118	-0.532530	0.069021
H134	H	0.628013	-0.018182	-0.000024
C135	C	0.705437	-0.316932	-0.000020
C136	C	0.693057	-0.243527	-0.000023
H137	H	0.661889	-0.335857	-0.000014
H138	H	0.741272	-0.342217	-0.069080
H139	H	0.721535	-0.322504	0.069050
H140	H	0.676964	-0.237956	-0.069097
H141	H	0.657210	-0.218235	0.069044
H142	H	0.944176	-0.134377	0.000015
H143	H	0.935698	-0.710512	-0.000085
H144	H	0.153084	0.206154	-0.000046
H145	H	0.985135	-0.067523	0.480377
C146	C	1.017229	-0.099614	0.643270
C147	C	0.963855	-0.046264	0.724302
H148	H	1.043503	-0.125872	0.685574
H149	H	0.995187	-0.131594	0.594664
H150	H	1.049202	-0.077553	0.594631
H151	H	0.931878	-0.068325	0.772936
H152	H	0.985898	-0.014279	0.772929
C153	C	0.048033	0.278726	-0.000070
C154	C	0.008170	0.222180	-0.000065
H155	H	0.017545	0.321541	-0.000088
H156	H	0.066914	0.286357	0.068994
H157	H	0.086667	0.266633	-0.069135
H158	H	-0.030461	0.234271	0.069005
H159	H	-0.010722	0.214549	-0.069136
H160	H	0.755024	0.162444	0.819635
