data_functionalizedCrystal
_audit_creation_method	'MofGen! by Chris Wilmer'
_symmetry_space_group_name_H-M	'P1'
_symmetry_Int_Tables_number	1
_symmetry_cell_setting	triclinic
loop_
_symmetry_equiv_pos_as_xyz
  x,y,z
_cell_length_a	10.540491
_cell_length_b	9.016244
_cell_length_c	16.109301
_cell_angle_alpha	90.003662
_cell_angle_beta	96.016426
_cell_angle_gamma	89.993079
loop_
_atom_site_label
_atom_site_type_symbol
_atom_site_fract_x
_atom_site_fract_y
_atom_site_fract_z
O1	O	-1.684261	0.123331	0.116971
O2	O	-1.314682	0.123338	0.128053
O3	O	-1.509625	0.123319	0.001542
O4	O	-1.489319	0.123350	0.243482
O5	O	-1.509596	-0.123361	0.001545
O6	O	-1.314654	-0.123343	0.128055
O7	O	-1.684233	-0.123349	0.116974
Cu8	Cu	-1.499441	-0.145870	0.122515
Cu9	Cu	-1.499474	0.145859	0.122512
O10	O	-1.489291	-0.123331	0.243485
C11	C	-1.267376	-0.000002	0.127232
C12	C	-1.126460	0.000000	0.124771
N13	N	-1.499426	-0.351056	0.122517
C14	C	-0.907750	0.000581	0.212661
C15	C	-1.054309	0.000014	0.215286
C16	C	-1.082344	-0.140868	0.078441
C17	C	-0.935610	-0.140975	0.076457
C18	C	-0.935863	0.139546	0.074569
C19	C	-1.082145	0.141398	0.078855
C20	C	-1.394831	-0.586079	0.189965
C21	C	-1.395057	-0.414188	0.190217
C22	C	-1.631871	-0.413394	0.142237
C23	C	-1.631298	-0.585339	0.142715
C24	C	-1.472898	-0.585610	0.035128
C25	C	-1.469844	-0.413656	0.035694
C26	C	-0.731537	-0.000003	0.117806
C27	C	-0.872446	0.000015	0.120300
C28	C	-1.508788	-0.000022	-0.029437
C29	C	-1.506322	-0.000024	-0.121747
N30	N	-1.499499	0.351045	0.122503
C31	C	-1.616263	-0.000002	-0.343359
C32	C	-1.613936	0.000010	-0.430094
C33	C	-1.382644	0.000008	-0.411607
C34	C	-1.384972	0.000007	-0.324875
C35	C	-1.501785	-0.000006	-0.290753
C36	C	-1.497130	0.000008	-0.464220
C37	C	-1.494606	0.000021	-0.558261
C38	C	-1.504310	-0.000017	-0.196706
C39	C	-1.490127	0.000014	0.274463
C40	C	-1.492593	0.000025	0.366773
H41	H	-1.083150	0.100999	0.251531
H42	H	-0.914678	0.140490	0.006613
H43	H	-1.112728	-0.245696	0.110618
H44	H	-1.711609	-0.372497	0.094442
H45	H	-1.287538	0.000016	-0.439400
C46	C	-0.905839	-0.149643	-0.014990
H47	H	-0.983394	-0.153095	-0.050764
H48	H	-0.858342	-0.064701	-0.027900
H49	H	-0.857434	-0.236511	-0.022724
H50	H	-1.130684	-0.146116	0.011806
H51	H	-1.711615	-0.626928	0.095558
C52	C	-0.878005	0.283795	0.113212
H53	H	-0.917590	0.366639	0.084715
H54	H	-0.891718	0.288129	0.170509
H55	H	-0.789003	0.285613	0.108241
C56	C	-1.417454	-0.644403	0.277044
H57	H	-1.490413	-0.706901	0.272466
H58	H	-1.344987	-0.699142	0.299769
H59	H	-1.430949	-0.563136	0.312617
C60	C	-0.850397	0.137043	0.260308
H61	H	-0.804399	0.194894	0.224304
H62	H	-0.917036	0.195049	0.279046
H63	H	-0.794339	0.105368	0.306965
H64	H	-1.110294	0.245611	0.112565
C65	C	-1.662955	-0.639494	0.228831
H66	H	-1.676037	-0.556409	0.263195
H67	H	-1.738200	-0.698144	0.222264
H68	H	-1.594134	-0.697316	0.254171
H69	H	-1.291745	0.000008	-0.282040
H70	H	-0.863731	-0.099862	0.247723
C71	C	-1.739858	0.000020	-0.487960
H72	H	-1.721746	0.000041	-0.544503
H73	H	-1.787753	-0.086001	-0.477551
H74	H	-1.787756	0.086056	-0.477535
H75	H	-1.711380	-0.000010	-0.315581
H76	H	-1.082182	-0.101128	0.251754
C77	C	-0.880646	-0.283204	0.119244
H78	H	-0.948027	-0.340370	0.137676
H79	H	-0.838161	-0.339528	0.080691
H80	H	-0.821857	-0.257452	0.165779
C81	C	-1.664305	-0.355203	0.227377
H82	H	-1.744634	-0.393540	0.238752
H83	H	-1.600387	-0.386221	0.269788
H84	H	-1.667922	-0.249937	0.226112
H85	H	-1.132156	0.149895	0.012773
H86	H	-1.296608	-0.372044	0.178354
H87	H	-1.296070	-0.627472	0.178284
H88	H	-1.378426	-0.629059	0.016356
C89	C	-1.418014	-0.358573	0.277782
H90	H	-1.418226	-0.253207	0.278237
H91	H	-1.497965	-0.394179	0.291618
H92	H	-1.352002	-0.394006	0.317515
C93	C	-1.338229	-0.358628	0.015498
H94	H	-1.301454	-0.297749	0.059785
H95	H	-1.284243	-0.441295	0.009056
H96	H	-1.347798	-0.302860	-0.034802
H97	H	-1.549227	-0.626270	-0.015084
C98	C	-1.566142	-0.355632	-0.035382
H99	H	-1.625920	-0.292193	-0.012936
H100	H	-1.522110	-0.301957	-0.074236
H101	H	-1.609835	-0.436964	-0.062813
