data_functionalizedCrystal
_audit_creation_method	'MofGen! by Chris Wilmer'
_symmetry_space_group_name_H-M	'P1'
_symmetry_Int_Tables_number	1
_symmetry_cell_setting	triclinic
loop_
_symmetry_equiv_pos_as_xyz
  x,y,z
_cell_length_a	19.121102
_cell_length_b	19.120785
_cell_length_c	12.759401
_cell_angle_alpha	92.457337
_cell_angle_beta	92.444390
_cell_angle_gamma	89.914030
loop_
_atom_site_label
_atom_site_type_symbol
_atom_site_fract_x
_atom_site_fract_y
_atom_site_fract_z
Zn1	Zn	1.059767	-0.325035	0.640813
Zn2	Zn	1.559767	0.174965	1.140813
Zn3	Zn	1.054710	-0.442249	0.457309
Zn4	Zn	1.554710	0.057751	0.957309
Zn5	Zn	0.942559	-0.320017	0.457994
Zn6	Zn	1.442559	0.179983	0.957994
Zn7	Zn	0.937501	-0.437230	0.625791
Zn8	Zn	1.437501	0.062770	1.125791
O9	O	0.998634	-0.381133	0.545477
O10	O	1.498634	0.118867	1.045477
O11	O	1.157201	-0.344784	0.622471
O12	O	1.657201	0.155216	1.122471
O13	O	1.039833	-0.426035	0.310378
O14	O	1.539833	0.073965	0.810378
O15	O	0.962339	-0.222574	0.488819
O16	O	1.462339	0.277426	0.988819
O17	O	1.153485	-0.430901	0.487651
O18	O	1.653485	0.069099	0.987651
O19	O	1.048452	-0.226261	0.623136
O20	O	1.548452	0.273739	1.123136
O21	O	0.957436	-0.336231	0.310882
O22	O	1.457436	0.163769	0.810882
O23	O	0.843783	-0.331365	0.474252
O24	O	1.343783	0.168635	0.974252
O25	O	0.953720	-0.422347	0.774804
O26	O	1.453720	0.077653	1.274804
O27	O	0.840068	-0.417480	0.597532
O28	O	1.340068	0.082520	1.097532
O29	O	1.043548	-0.339918	0.785842
O30	O	1.543548	0.160082	1.285842
O31	O	1.034929	-0.539691	0.473084
O32	O	1.534929	-0.039691	0.973084
O33	O	0.948817	-0.536004	0.596867
O34	O	1.448817	-0.036004	1.096867
C35	C	0.816488	-0.373334	0.534337
C36	C	1.316488	0.126666	1.034337
C37	C	0.738565	-0.370014	0.529595
C38	C	1.238565	0.129986	1.029595
C39	C	0.990794	-0.563287	0.533295
C40	C	1.490794	-0.063287	1.033295
C41	C	0.987505	-0.641216	0.528123
C42	C	1.487505	-0.141216	1.028123
C43	C	0.966633	-1.081873	0.495394
C44	C	1.466633	-0.581873	0.995394
C45	C	0.969725	-1.008651	0.500254
C46	C	1.469725	-0.508651	1.000254
C47	C	1.016075	-0.973898	0.572666
C48	C	1.516075	-0.473898	1.072666
C49	C	1.059330	-1.012372	0.640230
C50	C	1.559330	-0.512372	1.140230
C51	C	1.056234	-1.085593	0.635375
C52	C	1.556234	-0.585593	1.135375
C53	C	1.027663	-0.752911	0.590832
C54	C	1.527663	-0.252911	1.090832
C55	C	1.030758	-0.679685	0.595680
C56	C	1.530758	-0.179685	1.095680
C57	C	0.941151	-0.675968	0.455704
C58	C	1.441151	-0.175968	0.955704
C59	C	0.938062	-0.749191	0.450851
C60	C	1.438062	-0.249191	0.950851
C61	C	0.981314	-0.787658	0.518419
C62	C	1.481314	-0.287658	1.018419
C63	C	1.019239	-0.899053	0.577633
C64	C	1.519239	-0.399053	1.077633
C65	C	0.978147	-0.862502	0.513456
C66	C	1.478147	-0.362502	1.013456
C67	C	0.700037	-0.413358	0.591442
C68	C	1.200037	0.086642	1.091442
C69	C	0.626820	-0.410230	0.586992
C70	C	1.126820	0.089770	1.086992
C71	C	0.592132	-0.363761	0.520688
C72	C	1.092132	0.136239	1.020688
C73	C	0.630665	-0.320412	0.458839
C74	C	1.130665	0.179588	0.958839
C75	C	0.703881	-0.323537	0.463295
C76	C	1.203881	0.176463	0.963295
C77	C	0.371163	-0.352075	0.504033
C78	C	0.871163	0.147925	1.004033
C79	C	0.297942	-0.348955	0.499579
C80	C	0.797942	0.151045	0.999579
C81	C	0.294102	-0.438772	0.627734
C82	C	0.794102	0.061228	1.127734
C83	C	0.367320	-0.441896	0.632180
C84	C	0.867320	0.058104	1.132180
C85	C	0.405846	-0.398545	0.570335
C86	C	0.905846	0.101455	1.070335
C87	C	0.517292	-0.360564	0.516136
C88	C	1.017292	0.139436	1.016136
C89	C	0.480685	-0.401739	0.574893
C90	C	0.980685	0.098261	1.074893
C91	C	1.181491	-0.388962	0.556661
C92	C	1.681491	0.111038	1.056661
C93	C	1.259414	-0.392299	0.561427
C94	C	1.759414	0.107701	1.061427
C95	C	0.998634	-0.381132	0.819510
C96	C	1.498634	0.118868	1.319510
C97	C	0.998634	-0.381132	0.936286
C98	C	1.498634	0.118868	1.436286
C99	C	1.006524	-0.198268	0.557730
C100	C	1.506524	0.301732	1.057730
C101	C	1.009886	-0.120342	0.562951
C102	C	1.509886	0.379658	1.062951
C103	C	1.045404	-0.338221	0.996896
C104	C	1.545404	0.161779	1.496896
C105	C	1.045401	-0.338224	1.106620
C106	C	1.545401	0.161776	1.606620
C107	C	0.951856	-0.424054	1.095114
C108	C	1.451856	0.075946	1.595114
C109	C	0.951857	-0.424047	0.985392
C110	C	1.451857	0.075953	1.485392
C111	C	1.092181	-0.295305	0.947791
C112	C	1.592181	0.204695	1.447791
C113	C	1.138955	-0.252391	1.008401
C114	C	1.638955	0.247609	1.508401
C115	C	1.138952	-0.252394	1.118125
C116	C	1.638952	0.247606	1.618125
C117	C	1.092175	-0.295311	1.167238
C118	C	1.592175	0.204689	1.667238
C119	C	0.998629	-0.381147	1.272508
C120	C	1.498629	0.118853	1.772508
C121	C	0.998631	-0.381141	1.155732
C122	C	1.498631	0.118859	1.655732
H123	H	0.928892	-1.110163	0.436424
H124	H	1.428892	-0.610163	0.936424
H125	H	1.091450	-1.116914	0.690395
H126	H	1.591450	-0.616914	1.190395
H127	H	0.728275	-0.451201	0.645430
H128	H	1.228275	0.048799	1.145430
N129	N	1.092198	-0.295298	0.835713
N130	N	1.592198	0.204702	1.335713
N131	N	1.133967	-0.256982	0.791878
N132	N	1.633967	0.243018	1.291878
H133	H	1.133980	-0.256978	0.712723
H134	H	1.633980	0.243022	1.212723
N135	N	1.106675	-0.976891	0.714216
N136	N	1.606675	-0.476891	1.214216
N137	N	1.101629	-0.984848	0.810326
N138	N	1.601629	-0.484848	1.310326
H139	H	1.135069	-0.959793	0.862581
H140	H	1.635069	-0.459793	1.362581
H141	H	1.068505	-0.651393	0.654650
H142	H	1.568505	-0.151393	1.154650
N143	N	0.595223	-0.272943	0.391125
N144	N	1.095223	0.227057	0.891125
N145	N	0.529852	-0.270158	0.387153
N146	N	1.029852	0.229842	0.887153
H147	H	0.504821	-0.236633	0.339327
H148	H	1.004821	0.263367	0.839327
H149	H	0.913763	-0.458978	0.936042
H150	H	1.413763	0.041022	1.436042
H151	H	0.595454	-0.445526	0.637354
H152	H	1.095454	0.054474	1.137354
N153	N	1.186741	-0.208563	0.958238
N154	N	1.686741	0.291437	1.458238
N155	N	1.251229	-0.215987	0.974141
N156	N	1.751229	0.284013	1.474141
H157	H	1.284980	-0.185032	0.938715
H158	H	1.784980	0.314968	1.438715
N159	N	0.481856	-0.313092	0.448420
N160	N	0.981856	0.186908	0.948420
N161	N	0.442927	-0.266713	0.485999
N162	N	0.942927	0.233287	0.985999
H163	H	0.417898	-0.233184	0.438177
H164	H	0.917898	0.266816	0.938177
H165	H	1.177032	-0.217446	1.167471
H166	H	1.677032	0.282554	1.667471
H167	H	0.934504	-0.977329	0.445244
H168	H	1.434504	-0.477329	0.945244
N169	N	0.930816	-0.898013	0.439489
N170	N	1.430816	-0.398013	0.939489
N171	N	0.953802	-0.939930	0.371387
N172	N	1.453802	-0.439930	0.871387
H173	H	0.920378	-0.965019	0.319144
H174	H	1.420378	-0.465019	0.819144
H175	H	0.900320	-0.777481	0.391883
H176	H	1.400320	-0.277481	0.891883
N177	N	0.896978	-0.636663	0.386697
N178	N	1.396978	-0.136663	0.886697
N179	N	0.899747	-0.571288	0.391037
N180	N	1.399747	-0.071288	0.891037
H181	H	0.868547	-0.543528	0.342299
H182	H	1.368547	-0.043528	0.842299
N183	N	1.071845	-0.792187	0.659860
N184	N	1.571845	-0.292187	1.159860
N185	N	1.113225	-0.761147	0.724507
N186	N	1.613225	-0.261147	1.224507
H187	H	1.144430	-0.788888	0.773263
H188	H	1.644430	-0.288888	1.273263
N189	N	1.066575	-0.863534	0.651590
N190	N	1.566575	-0.363534	1.151590
N191	N	1.112986	-0.824547	0.620125
N192	N	1.612986	-0.324547	1.120125
H193	H	1.146412	-0.799455	0.672361
H194	H	1.646412	-0.299455	1.172361
N195	N	0.402740	-0.489370	0.699911
N196	N	0.902740	0.010630	1.199911
N197	N	0.368331	-0.528067	0.755128
N198	N	0.868331	-0.028067	1.255128
H199	H	0.393345	-0.561598	0.802962
H200	H	0.893345	-0.061598	1.302962
H201	H	0.262726	-0.474065	0.678087
H202	H	0.762726	0.025935	1.178087
H203	H	0.269701	-0.311106	0.445594
H204	H	0.769701	0.188894	0.945594
H205	H	0.913773	-0.458995	1.135111
H206	H	1.413773	0.041005	1.635111
N207	N	0.410500	-0.307794	0.440848
N208	N	0.910500	0.192206	0.940848
N209	N	0.379517	-0.266312	0.381648
N210	N	0.879517	0.233688	0.881648
H211	H	0.407300	-0.235038	0.337017
H212	H	0.907300	0.264962	0.837017
N213	N	0.743228	-0.279251	0.400123
N214	N	1.243228	0.220749	0.900123
N215	N	0.712250	-0.237760	0.340932
N216	N	1.212250	0.262240	0.840932
H217	H	0.740038	-0.206477	0.296319
H218	H	1.240038	0.293523	0.796319
N219	N	0.516126	-0.449207	0.642603
N220	N	1.016126	0.050793	1.142603
N221	N	0.555059	-0.495580	0.605016
N222	N	1.055059	0.004420	1.105016
H223	H	0.580096	-0.529107	0.652832
H224	H	1.080096	-0.029107	1.152832
H225	H	1.092168	-0.295301	1.256583
H226	H	1.592168	0.204699	1.756583
