data_functionalizedCrystal
_audit_creation_method	'MofGen! by Chris Wilmer'
_symmetry_space_group_name_H-M	'P1'
_symmetry_Int_Tables_number	1
_symmetry_cell_setting	triclinic
loop_
_symmetry_equiv_pos_as_xyz
  x,y,z
_cell_length_a	14.908520
_cell_length_b	18.215407
_cell_length_c	18.215399
_cell_angle_alpha	89.982187
_cell_angle_beta	93.269364
_cell_angle_gamma	93.315133
loop_
_atom_site_label
_atom_site_type_symbol
_atom_site_fract_x
_atom_site_fract_y
_atom_site_fract_z
Zn1	Zn	-0.359299	1.108171	-0.432985
Zn2	Zn	-0.510167	1.100983	-0.317018
Zn3	Zn	-0.359313	0.985103	-0.309937
Zn4	Zn	-0.510101	0.977976	-0.440045
O5	O	-0.434720	1.043058	-0.374996
O6	O	-0.379334	1.210201	-0.417611
O7	O	-0.490189	1.085585	-0.213096
O8	O	-0.233067	1.007419	-0.320342
O9	O	-0.490176	1.204919	-0.332411
O10	O	-0.233057	1.097837	-0.410744
O11	O	-0.379357	1.000449	-0.207894
O12	O	-0.379294	0.881174	-0.327187
O13	O	-0.490064	0.995272	-0.542091
O14	O	-0.490077	0.875938	-0.422777
O15	O	-0.379270	1.090926	-0.536904
O16	O	-0.636403	1.078675	-0.339256
O17	O	-0.636354	0.988302	-0.429643
C18	C	-0.434680	0.851854	-0.374980
C19	C	-0.434685	0.770055	-0.374992
C20	C	-0.377116	0.507734	-0.419440
C21	C	-0.377101	0.584594	-0.419437
C22	C	-0.492354	0.579122	-0.330570
C23	C	-0.492372	0.502263	-0.330577
C24	C	-0.434748	0.466572	-0.375011
C25	C	-0.434715	0.620290	-0.375001
C26	C	-0.434700	0.703624	-0.374997
C27	C	-0.434764	0.383232	-0.375016
C28	C	-0.669112	1.031955	-0.386000
C29	C	-0.769386	1.027272	-0.390732
C30	C	-0.957801	1.112675	-0.305580
C31	C	-1.052017	1.108277	-0.310024
C32	C	-1.052037	1.014085	-0.404067
C33	C	-0.957821	1.018482	-0.399623
C34	C	-0.910706	1.067778	-0.350377
C35	C	-0.816488	1.072171	-0.345930
C36	C	-0.816509	0.977982	-0.439976
C37	C	-0.910726	0.973585	-0.444420
C38	C	-0.199413	1.054225	-0.363966
C39	C	-0.099139	1.058983	-0.359265
C40	C	-0.434658	1.043106	-0.566946
C41	C	-0.434631	1.043126	-0.648744
C42	C	-0.434761	1.235009	-0.375013
C43	C	-0.434778	1.316807	-0.375020
C44	C	-0.376887	1.092953	-0.834236
C45	C	-0.376861	1.092963	-0.911093
C46	C	-0.492236	0.993358	-0.916483
C47	C	-0.492257	0.993346	-0.839627
C48	C	-0.434584	1.043147	-0.798505
C49	C	-0.434537	1.043170	-0.952219
C50	C	-0.434509	1.043180	-1.035552
C51	C	-0.434611	1.043136	-0.715168
C52	C	-0.434717	1.043056	-0.183790
C53	C	-0.434489	1.043190	-0.101981
H54	H	-0.539267	0.608191	-0.294392
Cl55	Cl	-0.304678	0.462868	-0.475302
Cl56	Cl	-0.969964	0.911619	-0.506327
H57	H	-1.090359	1.144839	-0.273547
Cl58	Cl	-0.564792	0.930723	-0.794705
Cl59	Cl	-0.757259	1.134139	-0.284020
Cl60	Cl	-0.304332	1.155585	-0.956009
H61	H	-0.539308	0.468748	-0.294397
Cl62	Cl	-0.898568	1.174634	-0.243663
H63	H	-1.090414	0.973955	-0.444165
H64	H	-0.778154	0.941422	-0.476451
H65	H	-0.539194	0.952814	-0.949974
Cl66	Cl	-0.304649	0.636338	-0.475296
Cl67	Cl	-0.304380	1.155557	-0.782542
