data_functionalizedCrystal
_audit_creation_method	'MofGen! by Chris Wilmer'
_symmetry_space_group_name_H-M	'P1'
_symmetry_Int_Tables_number	1
_symmetry_cell_setting	triclinic
loop_
_symmetry_equiv_pos_as_xyz
  x,y,z
_cell_length_a	17.699083
_cell_length_b	15.538191
_cell_length_c	16.776229
_cell_angle_alpha	89.995703
_cell_angle_beta	89.998886
_cell_angle_gamma	65.277554
loop_
_atom_site_label
_atom_site_type_symbol
_atom_site_fract_x
_atom_site_fract_y
_atom_site_fract_z
O1	O	0.971508	0.119201	-0.066172
O2	O	1.471508	0.619201	0.433828
O3	O	0.746892	0.134709	-0.066198
O4	O	1.246892	0.634709	0.433802
O5	O	0.902923	-0.010275	-0.066184
O6	O	1.402923	0.489725	0.433816
O7	O	0.815476	0.264184	-0.066186
O8	O	1.315476	0.764184	0.433814
O9	O	0.902910	-0.010283	0.066393
O10	O	1.402910	0.489717	0.566393
O11	O	0.746879	0.134700	0.066379
O12	O	1.246879	0.634700	0.566379
O13	O	0.971495	0.119192	0.066404
O14	O	1.471495	0.619192	0.566404
Zn15	Zn	0.859185	0.126945	0.087441
Zn16	Zn	1.359185	0.626945	0.587441
Zn17	Zn	0.859202	0.126956	-0.087235
Zn18	Zn	1.359202	0.626956	0.412765
O19	O	0.815463	0.264176	0.066390
O20	O	1.315463	0.764176	0.566390
C21	C	0.718840	0.134149	0.000087
C22	C	1.218840	0.634149	0.500087
C23	C	0.635277	0.132482	0.000077
C24	C	1.135277	0.632482	0.500077
C25	C	0.912066	-0.045395	0.000103
C26	C	1.412066	0.454605	0.500103
C27	C	0.939318	-0.150032	0.000098
C28	C	1.439318	0.349968	0.500098
C29	C	0.563403	0.217584	0.000077
C30	C	1.063403	0.717584	0.500077
C31	C	0.484889	0.216012	0.000087
C32	C	0.984889	0.716012	0.500087
C33	C	0.478252	0.129337	0.000092
C34	C	0.978252	0.629337	0.500092
C35	C	0.550134	0.044228	0.000095
C36	C	1.050134	0.544228	0.500095
C37	C	0.628646	0.045801	0.000090
C38	C	1.128646	0.545801	0.500090
C39	C	0.233505	0.037882	0.000115
C40	C	0.733505	0.537882	0.500115
C41	C	0.154985	0.036316	0.000117
C42	C	0.654985	0.536316	0.500117
C43	C	0.089748	0.208094	0.000111
C44	C	0.589748	0.708094	0.500111
C45	C	0.168260	0.209667	0.000107
C46	C	0.668260	0.709667	0.500107
C47	C	0.240135	0.124558	0.000114
C48	C	0.740135	0.624558	0.500114
C49	C	0.325269	0.126264	0.000104
C50	C	0.825269	0.626264	0.500104
C51	C	0.393120	0.127630	0.000096
C52	C	0.893120	0.627630	0.500096
C53	C	0.668571	-0.437202	0.000084
C54	C	1.168571	0.062798	0.500084
C55	C	0.694198	-0.535527	0.000089
C56	C	1.194198	-0.035527	0.500089
C57	C	0.838344	-0.558300	0.000105
C58	C	1.338344	-0.058300	0.500105
C59	C	0.812729	-0.459975	0.000096
C60	C	1.312729	0.040025	0.500096
C61	C	0.727842	-0.399434	0.000087
C62	C	1.227842	0.100566	0.500087
C63	C	0.872000	-0.422207	0.000099
C64	C	1.372000	0.077793	0.500099
C65	C	0.846387	-0.323891	0.000095
C66	C	1.346387	0.176109	0.500095
C67	C	0.761503	-0.263343	0.000087
C68	C	1.261503	0.236657	0.500087
C69	C	0.702229	-0.301118	0.000082
C70	C	1.202229	0.198882	0.500082
C71	C	0.956887	-0.482750	0.000114
C72	C	1.456887	0.017250	0.500114
C73	C	1.016158	-0.444981	0.000117
C74	C	1.516158	0.055019	0.500117
C75	C	0.990545	-0.346663	0.000107
C76	C	1.490545	0.153337	0.500107
C77	C	0.905661	-0.286116	0.000100
C78	C	1.405661	0.213884	0.500100
C79	C	1.049819	-0.308889	0.000112
C80	C	1.549819	0.191111	0.500112
C81	C	1.024206	-0.210573	0.000107
C82	C	1.524206	0.289427	0.500107
C83	C	0.880048	-0.187800	0.000095
C84	C	1.380048	0.312200	0.500095
C85	C	0.999546	0.119752	0.000117
C86	C	1.499546	0.619752	0.500117
C87	C	1.083109	0.121419	0.000122
C88	C	1.583109	0.621419	0.500122
C89	C	0.806321	0.299297	0.000102
C90	C	1.306321	0.799297	0.500102
C91	C	0.779068	0.403933	0.000101
C92	C	1.279068	0.903933	0.500101
N93	N	0.859179	0.126936	0.206652
N94	N	1.359179	0.626936	0.706652
N95	N	0.859216	0.126957	-0.206446
N96	N	1.359216	0.626957	0.293554
C97	C	0.928278	0.062764	0.248375
C98	C	1.428278	0.562764	0.748375
C99	C	0.928282	0.062763	0.331827
C100	C	1.428282	0.562763	0.831827
C101	C	0.859189	0.126940	0.373555
C102	C	1.359189	0.626940	0.873555
C103	C	0.790084	0.191115	0.331826
C104	C	1.290084	0.691115	0.831826
C105	C	0.790078	0.191111	0.248375
C106	C	1.290078	0.691111	0.748375
C107	C	0.790106	0.191134	0.668373
C108	C	1.290106	0.691134	1.168373
C109	C	0.790118	0.191135	0.751829
C110	C	1.290118	0.691135	1.251829
C111	C	0.928310	0.062786	0.751825
C112	C	1.428310	0.562786	1.251825
C113	C	0.928304	0.062781	0.668375
C114	C	1.428304	0.562781	1.168375
C115	C	0.859198	0.126953	0.626653
C116	C	1.359198	0.626953	1.126653
C117	C	0.859193	0.126952	0.536164
C118	C	1.359193	0.626952	1.036164
C119	C	0.859195	0.126946	0.464042
C120	C	1.359195	0.626946	0.964042
H121	H	0.426369	0.285311	0.000086
H122	H	0.926369	0.785311	0.500086
O123	O	0.797597	-0.128941	-0.000060
O124	O	1.297597	0.371059	0.499940
C125	C	0.778489	-0.071372	-0.068714
C126	C	1.278489	0.428628	0.431286
H127	H	0.827116	-0.107467	-0.116698
H128	H	1.327116	0.392533	0.383302
H129	H	0.714451	-0.060176	-0.091772
H130	H	1.214451	0.439824	0.408228
H131	H	0.778448	0.000076	-0.053190
H132	H	1.278448	0.500076	0.446810
O133	O	0.981913	-0.578277	0.000154
O134	O	1.481913	-0.078277	0.500154
C135	C	1.069544	-0.623613	0.000149
C136	C	1.569544	-0.123613	0.500149
H137	H	1.095593	-0.573402	0.025253
H138	H	1.595593	-0.073402	0.525253
H139	H	1.091052	-0.690079	0.038644
H140	H	1.591052	-0.190079	0.538644
H141	H	1.092846	-0.644019	-0.063450
H142	H	1.592846	-0.144019	0.436550
H143	H	0.599448	-0.387905	0.000070
H144	H	1.099448	0.112095	0.500070
H145	H	0.733851	0.243398	0.785803
H146	H	1.233851	0.743398	1.285803
O147	O	1.081669	-0.173721	0.000142
O148	O	1.581669	0.326279	0.500142
C149	C	1.040857	-0.073963	0.000118
C150	C	1.540857	0.426037	0.500118
H151	H	0.975413	-0.050755	0.025212
H152	H	1.475413	0.449245	0.525212
H153	H	1.077150	-0.043867	0.038611
H154	H	1.577150	0.456133	0.538611
H155	H	1.037009	-0.046600	-0.063486
H156	H	1.537009	0.453400	0.436514
O157	O	0.619801	-0.242165	0.000035
O158	O	1.119801	0.257835	0.500035
C159	C	0.609909	-0.147292	0.000055
C160	C	1.109909	0.352708	0.500055
H161	H	0.668362	-0.143655	-0.025036
H162	H	1.168362	0.356345	0.474964
H163	H	0.554149	-0.102649	-0.038442
H164	H	1.054149	0.397351	0.461558
H165	H	0.599218	-0.118855	0.063658
H166	H	1.099218	0.381145	0.563658
O167	O	0.995450	0.000330	0.207968
O168	O	1.495450	0.500330	0.707968
C169	C	1.056446	-0.056295	0.262694
C170	C	1.556446	0.443705	0.762694
H171	H	1.025699	-0.057306	0.322184
H172	H	1.525699	0.442694	0.822184
H173	H	1.088679	-0.131592	0.238590
H174	H	1.588679	0.368408	0.738590
H175	H	1.104283	-0.025776	0.271560
H176	H	1.604283	0.474224	0.771560
H177	H	0.645927	-0.566272	0.000098
H178	H	1.145927	-0.066272	0.500098
H179	H	0.149589	-0.034270	0.000122
H180	H	0.649589	0.465730	0.500122
H181	H	1.118934	-0.358196	0.000127
H182	H	1.618934	0.141804	0.500127
O183	O	0.569953	0.301723	0.000175
O184	O	1.069953	0.801723	0.500175
C185	C	0.613402	0.307781	0.068843
C186	C	1.113402	0.807781	0.568843
H187	H	0.653489	0.233443	0.091737
H188	H	1.153489	0.733443	0.591737
H189	H	0.654804	0.345239	0.053394
H190	H	1.154804	0.845239	0.553394
H191	H	0.567049	0.349559	0.116925
H192	H	1.067049	0.849559	0.616925
O193	O	0.995331	0.000335	0.372389
O194	O	1.495331	0.500335	0.872389
C195	C	0.970774	-0.057750	0.420685
C196	C	1.470774	0.442250	0.920685
H197	H	0.911499	-0.059255	0.395548
H198	H	1.411499	0.440745	0.895548
H199	H	1.022257	-0.132717	0.421628
H200	H	1.522257	0.367283	0.921628
H201	H	0.958709	-0.028247	0.483930
H202	H	1.458709	0.471753	0.983930
O203	O	0.920767	-0.617247	0.000078
O204	O	1.420767	-0.117247	0.500078
C205	C	0.930667	-0.712123	0.000104
C206	C	1.430667	-0.212123	0.500104
H207	H	0.872222	-0.715766	-0.024997
H208	H	1.372222	-0.215766	0.475003
H209	H	0.986436	-0.756761	-0.038382
H210	H	1.486436	-0.256761	0.461618
H211	H	0.941349	-0.740562	0.063710
H212	H	1.441349	-0.240562	0.563710
H213	H	0.173657	0.280246	0.000099
H214	H	0.673657	0.780246	0.500099
H215	H	0.733809	0.243365	0.214405
H216	H	1.233809	0.743365	0.714405
O217	O	0.303233	-0.044875	0.000083
O218	O	0.803233	0.455125	0.500083
C219	C	0.280534	-0.121710	0.000106
C220	C	0.780534	0.378290	0.500106
H221	H	0.215005	-0.097646	-0.024995
H222	H	0.715005	0.402354	0.475005
H223	H	0.326033	-0.181329	-0.038381
H224	H	0.826033	0.318671	0.461619
H225	H	0.282212	-0.148287	0.063711
H226	H	0.782212	0.351713	0.563711
H227	H	0.031216	0.277393	0.000110
H228	H	0.531216	0.777393	0.500110
H229	H	0.544725	-0.026345	0.000111
H230	H	1.044725	0.473655	0.500111
H231	H	0.984568	0.010526	0.634403
H232	H	1.484568	0.510526	1.134403
O233	O	1.098637	-0.503700	0.000017
O234	O	1.598637	-0.003700	0.500017
C235	C	1.136224	-0.486619	-0.068657
C236	C	1.636224	0.013381	0.431343
H237	H	1.097134	-0.411997	-0.091553
H238	H	1.597134	0.088003	0.408447
H239	H	1.201286	-0.493673	-0.053215
H240	H	1.701286	0.006327	0.446785
H241	H	1.140647	-0.540373	-0.116734
H242	H	1.640647	-0.040373	0.383266
H243	H	0.984580	0.010531	0.785804
H244	H	1.484580	0.510531	1.285804
O245	O	0.722928	0.253563	0.627975
O246	O	1.222928	0.753563	1.127975
C247	C	0.661942	0.310192	0.682703
C248	C	1.161942	0.810192	1.182703
H249	H	0.692702	0.311209	0.742183
H250	H	1.192702	0.811209	1.242183
H251	H	0.629704	0.385488	0.658587
H252	H	1.129704	0.885488	1.158587
H253	H	0.614108	0.279673	0.691592
H254	H	1.114108	0.779673	1.191592
H255	H	0.733824	0.243366	0.365805
H256	H	1.233824	0.743366	0.865805
O257	O	0.736719	-0.167854	0.000189
O258	O	1.236719	0.332146	0.500189
C259	C	0.767671	-0.141246	0.068864
C260	C	1.267671	0.358754	0.568864
H261	H	0.824518	-0.204549	0.091763
H262	H	1.324518	0.295451	0.591763
H263	H	0.785966	-0.081066	0.053421
H264	H	1.285966	0.418934	0.553421
H265	H	0.717558	-0.116608	0.116938
H266	H	1.217558	0.383392	0.616938
H267	H	0.687169	-0.023498	0.000090
H268	H	1.187169	0.476502	0.500090
