data_functionalizedCrystal
_audit_creation_method	'MofGen! by Chris Wilmer'
_symmetry_space_group_name_H-M	'P1'
_symmetry_Int_Tables_number	1
_symmetry_cell_setting	triclinic
loop_
_symmetry_equiv_pos_as_xyz
  x,y,z
_cell_length_a	16.959454
_cell_length_b	16.959455
_cell_length_c	18.215399
_cell_angle_alpha	90.023285
_cell_angle_beta	89.976304
_cell_angle_gamma	89.981743
loop_
_atom_site_label
_atom_site_type_symbol
_atom_site_fract_x
_atom_site_fract_y
_atom_site_fract_z
Zn1	Zn	-0.314728	-1.208417	-0.416205
Zn2	Zn	-0.446913	-1.208330	-0.293148
Zn3	Zn	-0.314749	-1.076236	-0.293145
Zn4	Zn	-0.446864	-1.076210	-0.416166
O5	O	-0.380814	-1.142298	-0.354666
O6	O	-0.332275	-1.319016	-0.399899
O7	O	-0.429411	-1.190781	-0.190164
O8	O	-0.204135	-1.093817	-0.309485
O9	O	-0.429391	-1.318952	-0.309490
O10	O	-0.204120	-1.190930	-0.399897
O11	O	-0.332310	-1.093732	-0.190161
O12	O	-0.332262	-0.965621	-0.309446
O13	O	-0.429307	-1.093773	-0.519155
O14	O	-0.429327	-0.965603	-0.399829
O15	O	-0.332227	-1.190905	-0.519184
O16	O	-0.557518	-1.190756	-0.309451
O17	O	-0.557482	-1.093689	-0.399832
C18	C	-0.380792	-0.936932	-0.354634
C19	C	-0.380802	-0.849075	-0.354637
C20	C	-0.330192	-0.807787	-0.307653
C21	C	-0.431416	-0.807809	-0.401629
C22	C	-0.431424	-0.725263	-0.401637
C23	C	-0.380814	-0.683976	-0.354653
C24	C	-0.330197	-0.725234	-0.307661
C25	C	-0.482035	-0.683999	-0.448633
C26	C	-0.482045	-0.601448	-0.448643
C27	C	-0.431438	-0.560159	-0.401655
C28	C	-0.380819	-0.601422	-0.354660
C29	C	-0.330209	-0.560135	-0.307676
C30	C	-0.279593	-0.601396	-0.260678
C31	C	-0.279590	-0.683945	-0.260672
C32	C	-0.431442	-0.477610	-0.401660
C33	C	-0.330214	-0.477581	-0.307684
C34	C	-0.586180	-1.142232	-0.354654
C35	C	-0.674036	-1.142276	-0.354673
C36	C	-1.045523	-1.091828	-0.401722
C37	C	-1.045501	-1.192988	-0.307685
C38	C	-0.962955	-1.192960	-0.307678
C39	C	-0.921689	-1.142365	-0.354693
C40	C	-0.962970	-1.091797	-0.401715
C41	C	-0.921668	-1.243521	-0.260652
C42	C	-0.839118	-1.243495	-0.260643
C43	C	-0.797850	-1.192903	-0.307662
C44	C	-0.839136	-1.142334	-0.354687
C45	C	-0.797870	-1.091739	-0.401702
C46	C	-0.839154	-1.041173	-0.448730
C47	C	-0.921702	-1.041205	-0.448735
C48	C	-0.715302	-1.192871	-0.307658
C49	C	-0.715317	-1.091708	-0.401695
C50	C	-0.174645	-1.142386	-0.354695
C51	C	-0.086789	-1.142424	-0.354707
C52	C	-0.380759	-1.142346	-0.546619
C53	C	-0.380736	-1.142367	-0.628418
C54	C	-0.380832	-0.348466	-0.354690
C55	C	-0.380832	-0.436323	-0.354676
C56	C	-0.330139	-1.192961	-0.816629
C57	C	-0.330116	-1.192971	-0.893487
C58	C	-0.431210	-1.091828	-0.893446
C59	C	-0.431229	-1.091815	-0.816588
C60	C	-0.380694	-1.142386	-0.778182
C61	C	-0.380653	-1.142409	-0.931898
C62	C	-0.380628	-1.142418	-1.015232
C63	C	-0.380718	-1.142376	-0.694843
C64	C	-0.380811	-1.142296	-0.163460
C65	C	-0.380611	-1.142428	-0.081661
H66	H	-0.238383	-0.567769	-0.222426
F67	F	-0.671405	-1.037860	-0.451740
H68	H	-0.289002	-0.443970	-0.269422
H69	H	-0.955323	-1.000037	-0.487022
H70	H	-0.955273	-1.284708	-0.222369
H71	H	-0.472396	-1.050625	-0.785284
F72	F	-0.795188	-1.297316	-0.210596
F73	F	-1.089460	-1.038019	-0.451774
F74	F	-0.225723	-0.727864	-0.210660
H75	H	-0.681692	-1.234037	-0.269364
F76	F	-0.276354	-1.246782	-0.775756
F77	F	-0.535905	-0.727944	-0.498623
H78	H	-0.472355	-1.050656	-0.924726
H79	H	-0.288948	-1.234153	-0.924787
F80	F	-0.795227	-0.987324	-0.498762
H81	H	-0.288984	-0.841386	-0.269386
F82	F	-0.535916	-0.557542	-0.498661
F83	F	-0.485302	-0.433700	-0.451680
F84	F	-0.485279	-0.851752	-0.451626
H85	H	-1.079104	-1.234176	-0.269403
