data_functionalizedCrystal
_audit_creation_method	'MofGen! by Chris Wilmer'
_symmetry_space_group_name_H-M	'P1'
_symmetry_Int_Tables_number	1
_symmetry_cell_setting	triclinic
loop_
_symmetry_equiv_pos_as_xyz
  x,y,z
_cell_length_a	12.645330
_cell_length_b	19.077241
_cell_length_c	19.076919
_cell_angle_alpha	90.113904
_cell_angle_beta	92.276250
_cell_angle_gamma	87.690224
loop_
_atom_site_label
_atom_site_type_symbol
_atom_site_fract_x
_atom_site_fract_y
_atom_site_fract_z
Zn1	Zn	-0.384843	-1.058320	-0.440586
Zn2	Zn	0.115157	-0.558320	0.059414
Zn3	Zn	-0.554731	-1.062973	-0.323089
Zn4	Zn	-0.054731	-0.562973	0.176911
Zn5	Zn	-0.384285	-0.945535	-0.318363
Zn6	Zn	0.115715	-0.445535	0.181637
Zn7	Zn	-0.568871	-0.940793	-0.435825
Zn8	Zn	-0.068871	-0.440793	0.064175
O9	O	-0.473183	-1.001905	-0.379466
O10	O	0.026817	-0.501905	0.120534
O11	O	-0.401696	-1.157270	-0.428970
O12	O	0.098304	-0.657270	0.071030
O13	O	-0.525970	-1.051326	-0.224131
O14	O	-0.025970	-0.551326	0.275869
O15	O	-0.236010	-0.960534	-0.334592
O16	O	0.263990	-0.460534	0.165408
O17	O	-0.526511	-1.160689	-0.342645
O18	O	-0.026511	-0.660689	0.157355
O19	O	-0.236421	-1.043396	-0.424388
O20	O	0.263579	-0.543396	0.075612
O21	O	-0.400743	-0.965046	-0.220659
O22	O	0.099257	-0.465046	0.279341
O23	O	-0.414454	-0.846573	-0.329975
O24	O	0.085546	-0.346573	0.170025
O25	O	-0.550611	-0.952451	-0.534787
O26	O	-0.050611	-0.452451	-0.034787
O27	O	-0.550069	-0.843089	-0.416273
O28	O	-0.050069	-0.343089	0.083727
O29	O	-0.415406	-1.038798	-0.538285
O30	O	0.084594	-0.538798	-0.038285
O31	O	-0.704955	-1.046728	-0.338028
O32	O	-0.204955	-0.546728	0.161972
O33	O	-0.715344	-0.956963	-0.420855
O34	O	-0.215344	-0.456963	0.079145
C35	C	-0.483736	-0.819334	-0.372095
C36	C	0.016264	-0.319334	0.127905
C37	C	-0.488278	-0.741229	-0.368959
C38	C	0.011722	-0.241229	0.131041
C39	C	-0.425538	-0.702753	-0.412498
C40	C	0.074462	-0.202753	0.087502
C41	C	-0.429800	-0.629365	-0.409545
C42	C	0.070200	-0.129365	0.090455
C43	C	-0.496807	-0.594454	-0.363055
C44	C	0.003193	-0.094454	0.136945
C45	C	-0.559549	-0.632936	-0.319511
C46	C	-0.059549	-0.132936	0.180489
C47	C	-0.555281	-0.706322	-0.322461
C48	C	-0.055281	-0.206322	0.177539
C49	C	-0.516523	-0.375163	-0.349402
C50	C	-0.016523	0.124837	0.150598
C51	C	-0.520789	-0.301771	-0.346457
C52	C	-0.020789	0.198229	0.153543
C53	C	-0.391038	-0.298205	-0.436491
C54	C	0.108962	0.201795	0.063509
C55	C	-0.386780	-0.371593	-0.439440
C56	C	0.113220	0.128407	0.060560
C57	C	-0.449518	-0.410068	-0.395893
C58	C	0.050482	0.089932	0.104107
N59	N	-0.501168	-0.519440	-0.360037
N60	N	-0.001168	-0.019440	0.139963
N61	N	-0.445151	-0.485081	-0.398908
N62	N	0.054849	0.014919	0.101092
C63	C	-0.748615	-1.001854	-0.379454
C64	C	-0.248615	-0.501854	0.120546
C65	C	-0.866443	-1.001896	-0.379475
C66	C	-0.366443	-0.501896	0.120525
C67	C	-1.040584	-0.945642	-0.431758
C68	C	-0.540584	-0.445642	0.068242
C69	C	-0.918030	-0.945373	-0.431571
C70	C	-0.418030	-0.445373	0.068429
C71	C	-0.907532	-0.984830	-0.304614
C72	C	-0.407532	-0.484830	0.195386
C73	C	-1.030170	-0.984486	-0.304932
C74	C	-0.530170	-0.484486	0.195068
C75	C	-1.030418	-1.075571	-0.401465
C76	C	-0.530418	-0.575571	0.098535
C77	C	-0.907940	-1.075050	-0.403066
C78	C	-0.407940	-0.575050	0.096934
C79	C	-0.196675	-1.001975	-0.379494
C80	C	0.303325	-0.501975	0.120506
C81	C	-0.078844	-1.002005	-0.379506
C82	C	0.421156	-0.502005	0.120494
C83	C	-0.484648	-0.994577	-0.562745
C84	C	0.015352	-0.494577	-0.062745
C85	C	-0.489534	-0.991454	-0.640848
C86	C	0.010466	-0.491454	-0.140848
C87	C	-0.462582	-0.185189	-0.386860
C88	C	0.037418	0.314811	0.113140
C89	C	-0.458049	-0.263295	-0.389997
C90	C	0.041951	0.236705	0.110003
C91	C	-0.421439	-1.034940	-0.679364
C92	C	0.078561	-0.534940	-0.179364
C93	C	-0.426026	-1.031997	-0.752749
C94	C	0.073974	-0.531997	-0.252749
C95	C	-0.498715	-0.985571	-0.787618
C96	C	0.001285	-0.485571	-0.287618
C97	C	-0.566812	-0.942079	-0.749098
C98	C	-0.066812	-0.442079	-0.249098
C99	C	-0.562219	-0.945019	-0.675713
C100	C	-0.062219	-0.445019	-0.175713
C101	C	-0.519995	-0.971954	-1.006899
C102	C	-0.019995	-0.471954	-0.506899
C103	C	-0.524585	-0.969019	-1.080288
C104	C	-0.024585	-0.469019	-0.580288
C105	C	-0.383797	-1.058936	-1.083935
C106	C	0.116203	-0.558936	-0.583935
C107	C	-0.379215	-1.061874	-1.010549
C108	C	0.120785	-0.561874	-0.510549
C109	C	-0.447309	-1.018381	-0.972035
C110	C	0.052691	-0.518381	-0.472035
N111	N	-0.503407	-0.982563	-0.862630
N112	N	-0.003407	-0.482563	-0.362630
N113	N	-0.442610	-1.021385	-0.897024
N114	N	0.057390	-0.521385	-0.397024
C115	C	-0.461683	-1.009246	-0.196901
C116	C	0.038317	-0.509246	0.303099
C117	C	-0.456490	-1.012505	-0.118804
C118	C	0.043510	-0.512505	0.381196
H119	H	-0.378713	-0.598041	-0.445001
H120	H	0.121287	-0.098041	0.054999
C121	C	-0.594498	-0.263370	-0.295315
C122	C	-0.094498	0.236630	0.204685
H123	H	-0.631245	-0.296794	-0.269798
H124	H	-0.131245	0.203206	0.230202
H125	H	-0.644095	-0.233671	-0.320993
H126	H	-0.144095	0.266329	0.179007
H127	H	-0.553618	-0.235961	-0.263594
H128	H	-0.053618	0.264039	0.236406
H129	H	-0.891195	-0.890773	-0.416787
H130	H	-0.391195	-0.390773	0.083213
H131	H	-1.063548	-1.091722	-0.455283
H132	H	-0.563548	-0.591722	0.044717
H133	H	-1.054998	-1.023918	-0.264512
H134	H	-0.554998	-0.523918	0.235488
H135	H	-0.328358	-1.094345	-1.115301
H136	H	0.171642	-0.594345	-0.615301
H137	H	-0.614103	-0.604506	-0.281654
H138	H	-0.114103	-0.104506	0.218346
C139	C	-0.604536	-0.917944	-1.118647
C140	C	-0.104536	-0.417944	-0.618647
H141	H	-0.597524	-0.922429	-1.167868
H142	H	-0.097524	-0.422429	-0.667868
H143	H	-0.590991	-0.871216	-1.104715
H144	H	-0.090991	-0.371216	-0.604715
H145	H	-0.674424	-0.928689	-1.107029
H146	H	-0.174424	-0.428689	-0.607029
H147	H	-0.339959	-0.266871	-0.471943
H148	H	0.160041	0.233129	0.028057
H149	H	-0.362251	-1.072747	-0.650979
H150	H	0.137749	-0.572747	-0.150979
C151	C	-0.585540	-0.417479	-0.301510
C152	C	-0.085540	0.082521	0.198490
H153	H	-0.573399	-0.466186	-0.309918
H154	H	-0.073399	0.033814	0.190082
H155	H	-0.658128	-0.405037	-0.311233
H156	H	-0.158128	0.094963	0.188767
H157	H	-0.567658	-0.407330	-0.253829
H158	H	-0.067658	0.092670	0.246171
C159	C	-0.869011	-0.913080	-0.279588
C160	C	-0.369011	-0.413080	0.220412
H161	H	-0.894282	-0.903221	-0.234234
H162	H	-0.394282	-0.403221	0.265766
H163	H	-0.895200	-0.877665	-0.311413
H164	H	-0.395200	-0.377665	0.188587
H165	H	-0.793779	-0.914094	-0.277668
H166	H	-0.293779	-0.414094	0.222332
H167	H	-0.606370	-0.737649	-0.287006
H168	H	-0.106370	-0.237649	0.212994
C169	C	-0.872003	-1.092520	-0.477506
C170	C	-0.372003	-0.592520	0.022494
H171	H	-0.831873	-1.055393	-0.494143
H172	H	-0.331873	-0.555393	0.005857
H173	H	-0.932383	-1.098172	-0.507917
H174	H	-0.432383	-0.598172	-0.007917
H175	H	-0.829557	-1.134770	-0.476377
H176	H	-0.329557	-0.634770	0.023623
H177	H	-0.370976	-0.731172	-0.450357
H178	H	0.129024	-0.231172	0.049643
H179	H	-0.890610	-0.955705	-0.486986
H180	H	-0.390610	-0.455705	0.013014
C181	C	-0.351127	-1.079835	-0.795113
C182	C	0.148873	-0.579835	-0.295113
H183	H	-0.307189	-1.107913	-0.763836
H184	H	0.192811	-0.607913	-0.263836
H185	H	-0.308277	-1.051824	-0.822658
H186	H	0.191723	-0.551824	-0.322658
H187	H	-0.391711	-1.109296	-0.824974
H188	H	0.108289	-0.609296	-0.324974
C189	C	-0.860088	-1.134448	-0.355723
C190	C	-0.360088	-0.634448	0.144277
H191	H	-0.886521	-1.177999	-0.371185
H192	H	-0.386521	-0.677999	0.128815
H193	H	-0.879079	-1.126059	-0.308673
H194	H	-0.379079	-0.626059	0.191327
H195	H	-0.785133	-1.135939	-0.358111
H196	H	-0.285133	-0.635939	0.141889
H197	H	-0.332220	-0.400012	-0.477299
H198	H	0.167780	0.099988	0.022701
C199	C	-1.084167	-0.959366	-0.506838
C200	C	-0.584167	-0.459366	-0.006838
H201	H	-1.126078	-0.999597	-0.506996
H202	H	-0.626078	-0.499597	-0.006996
H203	H	-1.026908	-0.967104	-0.537047
H204	H	-0.526908	-0.467104	-0.037047
H205	H	-1.126467	-0.919847	-0.522782
H206	H	-0.626467	-0.419847	-0.022782
H207	H	-1.073875	-0.891381	-0.417148
H208	H	-0.573875	-0.391381	0.082852
C209	C	-1.071820	-0.911957	-0.280278
C210	C	-0.571820	-0.411957	0.219722
H211	H	-1.013778	-0.882979	-0.270167
H212	H	-0.513778	-0.382979	0.229833
H213	H	-1.110891	-0.917216	-0.239231
H214	H	-0.610891	-0.417216	0.260769
H215	H	-1.116472	-0.890924	-0.316238
H216	H	-0.616472	-0.390924	0.183762
H217	H	-0.617659	-0.909601	-0.644355
H218	H	-0.117659	-0.409601	-0.144355
C219	C	-0.861602	-1.038700	-0.250402
C220	C	-0.361602	-0.538700	0.249598
H221	H	-0.816848	-1.072155	-0.272995
H222	H	-0.316848	-0.572155	0.227005
H223	H	-0.917807	-1.061910	-0.229897
H224	H	-0.417807	-0.561910	0.270103
H225	H	-0.821793	-1.015265	-0.214874
H226	H	-0.321793	-0.515265	0.285126
H227	H	-1.054570	-1.117526	-0.363444
H228	H	-0.554570	-0.617526	0.136556
C229	C	-0.299258	-1.112944	-0.972198
C230	C	0.200742	-0.612944	-0.472198
H231	H	-0.259355	-1.138419	-1.005647
H232	H	0.240645	-0.638419	-0.505647
H233	H	-0.336254	-1.144695	-0.944805
H234	H	0.163746	-0.644695	-0.444805
H235	H	-0.252825	-1.087220	-0.942488
H236	H	0.247175	-0.587220	-0.442488
C237	C	-0.594901	-0.924119	-0.964539
C238	C	-0.094901	-0.424119	-0.464539
H239	H	-0.581752	-0.932511	-0.915839
H240	H	-0.081752	-0.432511	-0.415839
H241	H	-0.666286	-0.933904	-0.976975
H242	H	-0.166286	-0.433904	-0.476975
H243	H	-0.582861	-0.876426	-0.974661
H244	H	-0.082861	-0.376426	-0.474661
C245	C	-0.646769	-0.891012	-0.787452
C246	C	-0.146769	-0.391012	-0.287452
H247	H	-0.639761	-0.895494	-0.836674
H248	H	-0.139761	-0.395494	-0.336674
H249	H	-0.633233	-0.844284	-0.773519
H250	H	-0.133233	-0.344284	-0.273519
H251	H	-0.716652	-0.901766	-0.775832
H252	H	-0.216652	-0.401766	-0.275832
