data_functionalizedCrystal
_audit_creation_method	'MofGen! by Chris Wilmer'
_symmetry_space_group_name_H-M	'P1'
_symmetry_Int_Tables_number	1
_symmetry_cell_setting	triclinic
loop_
_symmetry_equiv_pos_as_xyz
  x,y,z
_cell_length_a	25.639239
_cell_length_b	10.685972
_cell_length_c	10.685880
_cell_angle_alpha	99.082357
_cell_angle_beta	94.335559
_cell_angle_gamma	85.596964
loop_
_atom_site_label
_atom_site_type_symbol
_atom_site_fract_x
_atom_site_fract_y
_atom_site_fract_z
Zn1	Zn	-0.172305	-1.995566	-0.866668
Zn2	Zn	-0.253534	-1.979072	-0.654386
Zn3	Zn	-0.172329	-1.767005	-0.638135
Zn4	Zn	-0.265932	-1.783171	-0.850281
O5	O	-0.216025	-1.881203	-0.752368
O6	O	-0.177882	-2.171016	-0.852167
O7	O	-0.237584	-1.937273	-0.474606
O8	O	-0.099158	-1.797461	-0.668507
O9	O	-0.237561	-2.158898	-0.696205
O10	O	-0.099140	-1.965384	-0.836409
O11	O	-0.177923	-1.781468	-0.462666
O12	O	-0.189944	-1.591511	-0.652618
O13	O	-0.258690	-1.825014	-1.030080
O14	O	-0.258714	-1.603388	-0.808481
O15	O	-0.189903	-1.981059	-1.042119
O16	O	-0.328347	-1.952948	-0.680316
O17	O	-0.337455	-1.809021	-0.824239
C18	C	-0.225677	-1.551390	-0.727008
C19	C	-0.229820	-1.410297	-0.716189
C20	C	-0.351872	-1.880986	-0.752293
C21	C	-0.409986	-1.881012	-0.752313
C22	C	-0.765587	-1.956369	-0.677581
C23	C	-0.820191	-1.956419	-0.677602
O24	O	-0.844383	-2.020264	-0.613982
N25	N	-0.852260	-1.881433	-0.752469
C26	C	-0.829724	-1.806401	-0.827330
O27	O	-0.862015	-1.742625	-0.891012
C28	C	-0.775121	-1.806358	-0.827315
C29	C	-0.743054	-1.881340	-0.752433
C30	C	-0.733521	-2.031345	-0.602707
C31	C	-0.678921	-2.031293	-0.602685
C32	C	-0.656388	-1.956264	-0.677537
C33	C	-0.688455	-1.881287	-0.752411
C34	C	-0.752586	-1.731334	-0.902182
C35	C	-0.697979	-1.731299	-0.902161
C36	C	-0.665912	-1.806280	-0.827280
C37	C	-0.611322	-1.806206	-0.827241
N38	N	-0.579253	-1.881192	-0.752374
C39	C	-0.601786	-1.956221	-0.677522
C40	C	-0.944392	-1.806498	-0.827357
C41	C	-0.998993	-1.806533	-0.827365
C42	C	-0.989457	-1.956554	-0.677639
C43	C	-0.934854	-1.956511	-0.677625
C44	C	-0.912323	-1.881485	-0.752490
C45	C	-0.487123	-1.956104	-0.677480
C46	C	-0.432519	-1.956041	-0.677461
C47	C	-0.442061	-1.806026	-0.827191
C48	C	-0.496660	-1.806084	-0.827206
C49	C	-0.519189	-1.881133	-0.752347
O50	O	-0.587093	-1.742397	-0.890832
O51	O	-0.569488	-2.019999	-0.613863
C52	C	-0.079647	-1.881459	-0.752473
C53	C	-0.021531	-1.881568	-0.752518
C54	C	-0.225677	-1.906680	-1.083443
C55	C	-0.229790	-1.917536	-1.224528
C56	C	-0.206332	-1.212304	-0.777821
C57	C	-0.202192	-1.353398	-0.788652
C58	C	-0.206371	-1.855899	-0.422586
C59	C	-0.202104	-1.845289	-0.281521
H60	H	-0.406411	-2.017099	-0.616479
C61	C	-0.166292	-1.751603	-1.202891
C62	C	-0.141585	-1.687108	-1.283737
C63	C	-0.108597	-1.600781	-1.211340
H64	H	-0.140557	-1.796124	-1.154906
H65	H	-0.186414	-1.692253	-1.146936
H66	H	-0.121464	-1.746450	-1.339670
H67	H	-0.167307	-1.642562	-1.331723
H68	H	-0.128720	-1.541431	-1.155384
H69	H	-0.082866	-1.645312	-1.163358
H70	H	-0.091834	-1.557003	-1.266182
C71	C	-0.265554	-2.011300	-1.303232
C72	C	-0.249572	-2.134465	-1.280707
C73	C	-0.282508	-2.220870	-1.353172
H74	H	-0.263684	-2.006592	-1.390792
H75	H	-0.300609	-1.991082	-1.280087
H76	H	-0.214525	-2.154677	-1.303859
H77	H	-0.251444	-2.139213	-1.193161
H78	H	-0.317564	-2.200652	-1.330027
H79	H	-0.280636	-2.216150	-1.440727
H80	H	-0.271673	-2.304445	-1.337890
H81	H	-0.175365	-1.412625	-0.858966
H82	H	-0.505460	-2.017219	-0.616526
C83	C	-0.265664	-1.331277	-0.622625
C84	C	-0.303531	-1.260681	-0.688578
C85	C	-0.336563	-1.187887	-0.602434
H86	H	-0.245584	-1.275219	-0.563451
H87	H	-0.282474	-1.385855	-0.578637
H88	H	-0.286723	-1.206108	-0.732545
H89	H	-0.323624	-1.316707	-0.747747
H90	H	-0.353373	-1.242465	-0.558446
H91	H	-0.316479	-1.131837	-0.543264
H92	H	-0.362263	-1.139988	-0.647172
H93	H	-0.652815	-2.092353	-0.541714
C94	C	-0.757879	-2.112846	-0.521291
C95	C	-0.718100	-2.178463	-0.455703
C96	C	-0.740514	-2.253537	-0.380663
H97	H	-0.778942	-2.171985	-0.573998
H98	H	-0.778998	-2.060112	-0.462149
H99	H	-0.696989	-2.231193	-0.514837
H100	H	-0.697033	-2.119356	-0.402972
H101	H	-0.761633	-2.200803	-0.321522
H102	H	-0.761577	-2.312668	-0.433380
H103	H	-0.713527	-2.298059	-0.336144
H104	H	-0.908748	-2.017568	-0.616651
H105	H	-1.007813	-2.017651	-0.616695
C106	C	-1.033894	-1.725153	-0.908523
C107	C	-1.086538	-1.741221	-0.892511
C108	C	-1.118701	-1.666267	-0.967250
H109	H	-1.026932	-1.750143	-0.995286
H110	H	-1.026969	-1.638406	-0.883301
H111	H	-1.093460	-1.827949	-0.917740
H112	H	-1.093516	-1.716223	-0.805765
H113	H	-1.111776	-1.579520	-0.942028
H114	H	-1.111734	-1.691263	-1.054008
H115	H	-1.154423	-1.677150	-0.956387
H116	H	-0.926050	-1.745392	-0.888316
H117	H	-0.778686	-1.670270	-0.963152
C118	C	-0.673617	-1.649707	-0.983488
C119	C	-0.713391	-1.584038	-1.049040
C120	C	-0.690970	-1.508853	-1.123957
H121	H	-0.652485	-1.702332	-1.042655
H122	H	-0.652564	-1.590604	-0.930662
H123	H	-0.734435	-1.643134	-1.101862
H124	H	-0.734525	-1.531389	-0.989905
H125	H	-0.669917	-1.449750	-1.071131
H126	H	-0.669838	-1.561488	-1.183116
H127	H	-0.717952	-1.464279	-1.168434
C128	C	-0.531390	-1.724636	-0.908636
C129	C	-0.499966	-1.658939	-0.974204
C130	C	-0.531937	-1.583922	-1.049255
H131	H	-0.552938	-1.665545	-0.855938
H132	H	-0.552839	-1.777415	-0.967790
H133	H	-0.478526	-1.606164	-0.915058
H134	H	-0.478418	-1.717999	-1.026925
H135	H	-0.553386	-1.636701	-1.108409
H136	H	-0.553484	-1.524839	-0.996548
H137	H	-0.510621	-1.539347	-1.093760
C138	C	-0.417490	-1.724707	-0.908422
C139	C	-0.362808	-1.740750	-0.892397
C140	C	-0.340155	-1.665881	-0.967228
H141	H	-0.428369	-1.637955	-0.883311
H142	H	-0.428330	-1.749811	-0.995177
H143	H	-0.351972	-1.715640	-0.805661
H144	H	-0.351914	-1.827487	-0.917516
H145	H	-0.350995	-1.690984	-1.053983
H146	H	-0.351038	-1.579133	-0.942110
H147	H	-0.303052	-1.676765	-0.956374
