data_functionalizedCrystal
_audit_creation_method	'MofGen! by Chris Wilmer'
_symmetry_space_group_name_H-M	'P1'
_symmetry_Int_Tables_number	1
_symmetry_cell_setting	triclinic
loop_
_symmetry_equiv_pos_as_xyz
  x,y,z
_cell_length_a	11.026607
_cell_length_b	10.654550
_cell_length_c	10.065875
_cell_angle_alpha	98.875770
_cell_angle_beta	79.302338
_cell_angle_gamma	96.535460
loop_
_atom_site_label
_atom_site_type_symbol
_atom_site_fract_x
_atom_site_fract_y
_atom_site_fract_z
O1	O	1.632231	0.512406	-0.113491
O2	O	1.278420	0.452411	-0.113493
O3	O	1.463459	0.301436	-0.113487
O4	O	1.447191	0.663381	-0.113497
O5	O	1.428176	0.330372	0.113500
O6	O	1.243137	0.481347	0.113494
O7	O	1.596947	0.541343	0.113496
Zn8	Zn	1.414440	0.515940	0.149534
Zn9	Zn	1.460927	0.477814	-0.149531
O10	O	1.411908	0.692318	0.113490
C11	C	1.215474	0.455811	0.000000
C12	C	1.080483	0.422816	-0.000001
C13	C	1.007444	0.513919	-0.000004
C14	C	0.867923	0.479820	-0.000005
C15	C	1.444623	0.268847	0.000005
C16	C	1.441050	0.128627	0.000000
C17	C	1.549998	0.072791	0.000005
C18	C	1.546634	-0.058961	-0.000005
C19	C	1.325363	-0.079031	-0.000018
C20	C	1.328730	0.052718	-0.000018
C21	C	1.662318	0.148700	0.000023
C22	C	1.771275	0.092866	0.000030
C23	C	1.767911	-0.038887	0.000020
C24	C	1.655590	-0.114805	0.000004
C25	C	1.659894	0.537943	-0.000000
C26	C	1.794886	0.570936	-0.000008
C27	C	1.430744	0.724907	-0.000005
C28	C	1.434319	0.865125	-0.000009
N29	N	1.382723	0.541960	0.353639
N30	N	1.492654	0.451786	-0.353636
C31	C	1.449884	0.486858	0.421420
C32	C	1.425483	0.506896	0.578586
H33	H	1.665069	0.255982	0.000035
O34	O	1.292486	0.615932	0.422996
C35	C	1.234799	0.663302	0.329458
H36	H	1.248590	0.598476	0.227563
H37	H	1.131496	0.666018	0.370870
H38	H	1.277660	0.763714	0.314305
H39	H	1.233917	-0.140853	-0.000029
H40	H	1.048204	0.617161	0.000001
H41	H	0.827174	0.376568	-0.000037
O42	O	1.539919	0.412820	0.351672
C43	C	1.486738	0.310100	0.269018
H44	H	1.395382	0.336190	0.247801
H45	H	1.552807	0.288875	0.168456
H46	H	1.469022	0.222175	0.323958
H47	H	1.862728	0.154682	0.000008
O48	O	1.335252	0.580714	0.648300
C49	C	1.246697	0.506994	0.730946
H50	H	1.290761	0.422042	0.752201
H51	H	1.212515	0.567968	0.831490
H52	H	1.165211	0.471362	0.675979
O53	O	1.873850	-0.092916	0.000080
C54	C	1.973706	0.002336	0.000059
H55	H	1.936987	0.098784	0.043034
H56	H	2.039863	-0.020314	0.065964
H57	H	2.025015	0.005559	-0.108835
H58	H	1.568219	0.389766	0.588046
O59	O	0.843407	0.694159	0.000224
C60	C	0.785978	0.769388	0.117758
H61	H	0.746157	0.706224	0.199934
H62	H	0.857205	0.845214	0.157212
H63	H	0.708135	0.817556	0.091173
H64	H	1.039727	0.319571	-0.000033
O65	O	1.222972	0.106997	-0.000259
C66	C	1.236594	0.167649	-0.117802
H67	H	1.311131	0.123159	-0.199966
H68	H	1.144918	0.155249	-0.157266
H69	H	1.264746	0.273580	-0.091223
O70	O	1.652503	-0.242800	-0.000196
C71	C	1.730314	-0.296294	-0.117776
H72	H	1.802947	-0.219503	-0.156962
H73	H	1.778340	-0.376138	-0.091345
H74	H	1.672576	-0.336497	-0.200097
