data_functionalizedCrystal
_audit_creation_method	'MofGen! by Chris Wilmer'
_symmetry_space_group_name_H-M	'P1'
_symmetry_Int_Tables_number	1
_symmetry_cell_setting	triclinic
loop_
_symmetry_equiv_pos_as_xyz
  x,y,z
_cell_length_a	16.974800
_cell_length_b	10.540535
_cell_length_c	16.053802
_cell_angle_alpha	92.590127
_cell_angle_beta	91.074188
_cell_angle_gamma	83.955736
loop_
_atom_site_label
_atom_site_type_symbol
_atom_site_fract_x
_atom_site_fract_y
_atom_site_fract_z
O1	O	1.049987	0.161811	0.001540
O2	O	1.549987	0.661811	0.501540
O3	O	0.820634	0.181243	-0.013964
O4	O	1.320634	0.681243	0.486036
O5	O	0.940544	-0.013238	-0.005850
O6	O	1.440544	0.486762	0.494150
O7	O	0.930076	0.356292	-0.006574
O8	O	1.430076	0.856292	0.493426
O9	O	0.933944	-0.002577	0.132562
O10	O	1.433944	0.497423	0.632562
O11	O	0.814034	0.191904	0.124448
O12	O	1.314034	0.691904	0.624448
O13	O	1.043386	0.172472	0.139952
O14	O	1.543386	0.672472	0.639952
Zn15	Zn	0.927662	0.183881	0.154176
Zn16	Zn	1.427662	0.683881	0.654176
Zn17	Zn	0.936358	0.169835	-0.028188
Zn18	Zn	1.436358	0.669835	0.471812
O19	O	0.923476	0.366953	0.131838
O20	O	1.423476	0.866953	0.631838
C21	C	0.787966	0.185639	0.053256
C22	C	1.287966	0.685639	0.553256
C23	C	0.700457	0.182840	0.047341
C24	C	1.200457	0.682840	0.547341
C25	C	0.655752	0.187333	0.120012
C26	C	1.155752	0.687333	0.620012
C27	C	0.573530	0.184683	0.114457
C28	C	1.073530	0.684683	0.614457
C29	C	0.536014	0.177549	0.036229
C30	C	1.036014	0.677549	0.536229
C31	C	0.580725	0.173052	-0.036448
C32	C	1.080725	0.673052	0.463552
C33	C	0.662946	0.175693	-0.030892
C34	C	1.162946	0.675693	0.469108
C35	C	0.290496	0.169018	0.011520
C36	C	0.790496	0.669018	0.511520
C37	C	0.208268	0.166381	0.005968
C38	C	0.708268	0.666381	0.505968
C39	C	0.201079	0.178011	0.156874
C40	C	0.701079	0.678011	0.656874
C41	C	0.283302	0.180659	0.162423
C42	C	0.783302	0.680659	0.662423
C43	C	0.328006	0.176155	0.089747
C44	C	0.828006	0.676155	0.589747
N45	N	0.451970	0.174844	0.030548
N46	N	0.951970	0.674844	0.530548
N47	N	0.412050	0.178851	0.095428
N48	N	0.912050	0.678851	0.595428
C49	C	0.936460	-0.055202	0.063304
C50	C	1.436460	0.444798	0.563304
C51	C	0.934113	-0.196124	0.063146
C52	C	1.434113	0.303876	0.563146
C53	C	0.846564	-0.231811	0.057222
C54	C	1.346564	0.268189	0.557222
C55	C	0.844110	-0.378409	0.056726
C56	C	1.344110	0.121591	0.556726
C57	C	0.977841	-0.411975	-0.013057
C58	C	1.477841	0.088025	0.486943
C59	C	0.979706	-0.265234	-0.012983
C60	C	1.479706	0.234766	0.487017
C61	C	0.973473	-0.253263	0.144509
C62	C	1.473473	0.246737	0.644509
C63	C	0.969376	-0.399485	0.145258
C64	C	1.469376	0.100515	0.645258
C65	C	1.076055	0.168076	0.072730
C66	C	1.576055	0.668076	0.572730
C67	C	1.163563	0.170875	0.078640
C68	C	1.663563	0.670875	0.578640
C69	C	0.927561	0.408917	0.062683
C70	C	1.427561	0.908917	0.562683
C71	C	0.929907	0.549838	0.062835
C72	C	1.429907	1.049838	0.562835
N73	N	0.921733	0.193466	0.278635
N74	N	1.421733	0.693466	0.778635
N75	N	0.942294	0.160240	-0.152647
N76	N	1.442294	0.660240	0.347353
C77	C	0.972774	0.110743	0.325783
C78	C	1.472774	0.610743	0.825783
C79	C	0.968633	0.117460	0.412910
C80	C	1.468633	0.617460	0.912910
C81	C	0.913456	0.206907	0.452887
C82	C	1.413456	0.706907	0.952887
C83	C	0.862409	0.289633	0.405732
C84	C	1.362409	0.789633	0.905732
C85	C	0.866546	0.282909	0.318607
C86	C	1.366546	0.782909	0.818607
C87	C	0.895384	0.236242	0.713074
C88	C	1.395384	0.736242	1.213074
C89	C	0.891253	0.242962	0.800205
C90	C	1.391253	0.742962	1.300205
C91	C	0.997477	0.070787	0.807376
C92	C	1.497477	0.570787	1.307376
C93	C	1.001612	0.064076	0.720249
C94	C	1.501612	0.564076	1.220249
C95	C	0.950563	0.146798	0.673102
C96	C	1.450563	0.646798	1.173102
N97	N	0.909224	0.213777	0.541944
N98	N	1.409224	0.713777	1.041944
N99	N	0.954791	0.139920	0.584046
N100	N	1.454791	0.639920	1.084046
H101	H	0.177725	0.160576	-0.057738
H102	H	0.677725	0.660576	0.442262
Cl103	Cl	0.702907	0.196310	0.218361
Cl104	Cl	1.202907	0.696310	0.718361
Cl105	Cl	1.079041	-0.231179	-0.011444
Cl106	Cl	1.579041	0.268821	0.488556
Cl107	Cl	0.935393	-0.466150	-0.107208
Cl108	Cl	1.435393	0.033850	0.392792
H109	H	0.816201	-0.192325	-0.001495
H110	H	1.316201	0.307675	0.498505
H111	H	0.943302	-0.205899	0.202474
H112	H	1.443302	0.294101	0.702474
H113	H	0.817478	0.362458	0.438287
H114	H	1.317478	0.862458	0.938287
Cl115	Cl	0.517331	0.190355	0.205819
Cl116	Cl	1.017331	0.690355	0.705819
Cl117	Cl	0.790486	-0.159710	0.141034
Cl118	Cl	1.290486	0.340290	0.641034
Cl119	Cl	1.075590	-0.486502	-0.010655
Cl120	Cl	1.575590	0.013498	0.489345
H121	H	0.313842	0.186462	0.226125
H122	H	0.813842	0.686462	0.726125
Cl123	Cl	1.070980	-0.048370	0.669992
Cl124	Cl	1.570980	0.451630	1.169992
Cl125	Cl	1.072866	-0.220033	0.152417
Cl126	Cl	1.572866	0.279967	0.652417
Cl127	Cl	0.821881	0.355422	0.850456
Cl128	Cl	1.321881	0.855422	1.350456
H129	H	0.952698	-0.229278	-0.074189
H130	H	1.452698	0.270722	0.425811
H131	H	0.812450	-0.410850	-0.002481
H132	H	1.312450	0.089150	0.497519
H133	H	0.934449	-0.423244	0.201440
H134	H	1.434449	0.076756	0.701440
Cl135	Cl	1.061646	-0.033204	0.866650
Cl136	Cl	1.561646	0.466796	1.366650
Cl137	Cl	0.346685	0.163359	-0.079846
Cl138	Cl	0.846685	0.663359	0.420154
H139	H	0.824982	0.350268	0.280220
H140	H	1.324982	0.850268	0.780220
H141	H	0.550174	0.167234	-0.100143
H142	H	1.050174	0.667234	0.399857
Cl143	Cl	0.144876	0.183666	0.248233
Cl144	Cl	0.644876	0.683666	0.748233
H145	H	1.031769	-0.448839	0.154492
H146	H	1.531769	0.051161	0.654492
Cl147	Cl	1.042148	-0.001704	0.275536
Cl148	Cl	1.542148	0.498296	0.775536
H149	H	0.699344	0.172036	-0.090069
H150	H	1.199344	0.672036	0.409931
Cl151	Cl	0.786608	-0.416400	0.140397
Cl152	Cl	1.286608	0.083600	0.640397
Cl153	Cl	1.032799	0.013463	0.472183
Cl154	Cl	1.532799	0.513463	0.972183
H155	H	0.853820	0.303599	0.674693
H156	H	1.353820	0.803599	1.174693
