data_functionalizedCrystal
_audit_creation_method	'MofGen! by Chris Wilmer'
_symmetry_space_group_name_H-M	'P1'
_symmetry_Int_Tables_number	1
_symmetry_cell_setting	triclinic
loop_
_symmetry_equiv_pos_as_xyz
  x,y,z
_cell_length_a	15.995350
_cell_length_b	10.654550
_cell_length_c	9.730223
_cell_angle_alpha	90.004253
_cell_angle_beta	89.999643
_cell_angle_gamma	83.988653
loop_
_atom_site_label
_atom_site_type_symbol
_atom_site_fract_x
_atom_site_fract_y
_atom_site_fract_z
O1	O	-1.111924	-0.161873	-0.114173
O2	O	-0.868265	-0.181862	-0.114201
O3	O	-0.995697	0.010945	-0.114178
O4	O	-0.984492	-0.354680	-0.114196
O5	O	-0.995688	0.010950	0.114402
O6	O	-0.868257	-0.181857	0.114379
O7	O	-1.111916	-0.161867	0.114407
Zn8	Zn	-0.990085	-0.171861	0.150685
Zn9	Zn	-0.990096	-0.171868	-0.150479
O10	O	-0.984484	-0.354674	0.114384
C11	C	-0.837061	-0.181033	0.000085
C12	C	-0.744096	-0.178555	0.000075
C13	C	-1.143119	-0.162696	0.000118
C14	C	-1.236084	-0.165174	0.000119
C15	C	-0.406297	-0.169658	0.000104
C16	C	-0.452934	-0.032344	0.000621
C17	C	-0.549639	-0.034822	0.000096
C18	C	-0.573883	-0.174071	0.000090
C19	C	-0.533194	-0.241802	-0.130438
C20	C	-0.436539	-0.238352	-0.130538
C21	C	-0.436207	-0.241184	0.129400
C22	C	-0.533152	-0.241151	0.131116
C23	C	-0.668595	-0.176573	0.000078
C24	C	-0.311585	-0.167161	0.000107
C25	C	-0.994870	0.057735	0.000111
C26	C	-0.992409	0.197146	0.000109
C27	C	-0.985311	-0.401464	0.000091
C28	C	-0.987772	-0.540875	0.000085
N29	N	-0.990084	-0.171856	0.356221
C30	C	-1.067438	0.277612	0.000117
C31	C	-1.065121	0.408602	0.000100
C32	C	-0.912737	0.378649	0.000072
C33	C	-0.915055	0.247661	0.000080
N34	N	-0.990104	-0.171864	-0.356015
C35	C	-1.046530	-0.086517	0.428157
C36	C	-1.046538	-0.086517	0.572040
C37	C	-0.933651	-0.257207	0.572038
C38	C	-0.933640	-0.257199	0.428158
H39	H	-0.434090	0.022545	0.094228
N40	N	-1.141753	0.490816	0.000104
N41	N	-1.157466	0.567239	-0.096251
H42	H	-1.211591	0.625306	-0.096250
N43	N	-1.104184	0.000657	0.645542
N44	N	-1.104178	0.000660	0.774005
H45	H	-1.144887	0.062239	0.825919
H46	H	-0.887697	-0.326693	0.630623
N47	N	-0.875978	-0.344396	0.354691
N48	N	-0.877794	-0.460477	0.370741
H49	H	-0.837070	-0.522056	0.318856
H50	H	-0.849758	0.419794	0.000051
N51	N	-0.427969	0.036212	-0.116144
N52	N	-0.481633	0.078940	-0.202140
H53	H	-0.463999	0.127361	-0.284603
H54	H	-0.577189	0.018773	-0.093630
N55	N	-0.584904	0.031980	0.117472
N56	N	-0.538100	0.080764	0.200352
H57	H	-0.563002	0.127955	0.283249
H58	H	-0.853953	0.182141	0.000069
H59	H	-1.092489	-0.017023	0.369590
H60	H	-0.417947	-0.188965	-0.228107
H61	H	-0.404876	-0.339166	-0.136465
N62	N	-0.551660	-0.370139	-0.136520
N63	N	-0.595120	-0.413218	-0.044503
H64	H	-0.608162	-0.503857	-0.048793
H65	H	-0.561299	-0.194763	-0.227576
H66	H	-0.405033	-0.342424	0.130279
N67	N	-0.410108	-0.184884	0.253522
N68	N	-0.333672	-0.179660	0.276566
H69	H	-0.315238	-0.139890	0.364222
N70	N	-0.567033	-0.179081	0.252245
N71	N	-0.558624	-0.065120	0.271714
H72	H	-0.582557	-0.021270	0.357254
N73	N	-0.553200	-0.368522	0.140995
N74	N	-0.628216	-0.390828	0.149262
H75	H	-0.642386	-0.480784	0.156221
H76	H	-1.130424	0.236488	0.000138
