data_functionalizedCrystal
_audit_creation_method	'MofGen! by Chris Wilmer'
_symmetry_space_group_name_H-M	'P1'
_symmetry_Int_Tables_number	1
_symmetry_cell_setting	triclinic
loop_
_symmetry_equiv_pos_as_xyz
  x,y,z
_cell_length_a	21.295419
_cell_length_b	21.295418
_cell_length_c	21.295395
_cell_angle_alpha	89.910905
_cell_angle_beta	90.091026
_cell_angle_gamma	89.982466
loop_
_atom_site_label
_atom_site_type_symbol
_atom_site_fract_x
_atom_site_fract_y
_atom_site_fract_z
Zn1	Zn	0.249881	0.962764	-0.356307
Zn2	Zn	0.355291	0.962636	-0.251062
Zn3	Zn	0.250069	0.857404	-0.251016
Zn4	Zn	0.355146	0.857509	-0.356259
O5	O	0.302597	0.910078	-0.303661
O6	O	0.263847	1.050836	-0.342385
O7	O	0.341472	0.948579	-0.162966
O8	O	0.161954	0.871389	-0.264984
O9	O	0.341290	1.050742	-0.265062
O10	O	0.161817	0.948797	-0.342340
O11	O	0.264166	0.871265	-0.162932
O12	O	0.264025	0.769328	-0.264937
O13	O	0.341043	0.871569	-0.444355
O14	O	0.341225	0.769406	-0.342259
O15	O	0.263706	0.948899	-0.444390
O16	O	0.443361	0.948681	-0.265015
O17	O	0.443254	0.871445	-0.342303
C18	C	0.302630	0.746526	-0.303588
C19	C	0.302659	0.676558	-0.303572
C20	C	0.138406	0.910096	-0.303662
C21	C	0.068438	0.910103	-0.303663
C22	C	0.342911	0.643749	-0.343773
C23	C	0.342895	0.578006	-0.343801
C24	C	0.302635	0.545076	-0.303617
C25	C	0.262376	0.577894	-0.263414
C26	C	0.262388	0.643635	-0.263391
N27	N	0.297790	0.441754	-0.248558
N28	N	0.297782	0.379302	-0.248582
C29	C	0.302595	0.347001	-0.303684
N30	N	0.307427	0.379511	-0.358764
N31	N	0.307439	0.441968	-0.358740
C32	C	0.302617	0.473791	-0.303638
C33	C	0.342831	0.242906	-0.343919
C34	C	0.342811	0.177162	-0.343949
C35	C	0.262295	0.177051	-0.263555
C36	C	0.262312	0.242794	-0.263531
C37	C	0.302583	0.275717	-0.303713
C38	C	0.035521	0.869891	-0.343899
C39	C	-0.030222	0.869897	-0.343908
C40	C	-0.063044	0.910108	-0.303670
C41	C	-0.030119	0.950329	-0.263431
C42	C	0.035623	0.950326	-0.263427
N43	N	-0.166181	0.914879	-0.248575
N44	N	-0.228632	0.914877	-0.248580
C45	C	-0.261119	0.910120	-0.303678
N46	N	-0.228795	0.905351	-0.358773
N47	N	-0.166338	0.905349	-0.358767
C48	C	-0.134330	0.910116	-0.303669
C49	C	-0.365322	0.869912	-0.343927
C50	C	-0.431066	0.869922	-0.343937
C51	C	-0.430961	0.950351	-0.263454
C52	C	-0.365219	0.950344	-0.263450
C53	C	-0.332403	0.910121	-0.303685
C54	C	0.466148	0.910078	-0.303673
C55	C	0.536116	0.910135	-0.303699
C56	C	0.302337	0.910260	-0.467852
C57	C	0.302227	0.910338	-0.537820
C58	C	0.302564	1.074269	-0.303734
C59	C	0.302550	1.144237	-0.303765
C60	C	0.302809	0.909933	-0.140109
C61	C	0.302743	0.909977	-0.070141
C62	C	0.262760	0.869453	-0.037286
C63	C	0.262692	0.869500	0.028456
C64	C	0.302618	0.910064	0.061342
C65	C	0.342603	0.950595	0.028479
C66	C	0.342665	0.950552	-0.037262
N67	N	0.357584	0.915353	0.164689
N68	N	0.357523	0.915390	0.227141
C69	C	0.302431	0.910198	0.259416
N70	N	0.247401	0.904954	0.226880
N71	N	0.247463	0.904913	0.164423
C72	C	0.302554	0.910115	0.132627
C73	C	0.262371	0.869722	0.363556
C74	C	0.262302	0.869773	0.429299
C75	C	0.342218	0.950865	0.429321
C76	C	0.342282	0.950818	0.363579
C77	C	0.302359	0.910243	0.330700
H78	H	0.375702	0.670551	-0.376493
H79	H	0.375672	0.551287	-0.376540
C80	C	-0.451453	0.839362	-0.450516
C81	C	-0.467249	0.825715	-0.388169
H82	H	-0.473790	0.812066	-0.477821
H83	H	-0.462256	0.881661	-0.459749
H84	H	-0.407602	0.833602	-0.456261
H85	H	-0.511100	0.831479	-0.382423
H86	H	-0.456451	0.783406	-0.378932
H87	H	-0.057028	0.837150	-0.376675
H88	H	0.229594	0.551078	-0.230697
H89	H	0.229609	0.670348	-0.230654
H90	H	0.375619	0.269714	-0.376640
H91	H	-0.457685	0.983095	-0.230693
C92	C	0.421212	1.031018	0.422735
C93	C	0.386103	0.995458	0.465460
H94	H	0.448301	1.058553	0.445049
H95	H	0.445521	1.003748	0.397219
H96	H	0.393624	1.054879	0.396967
H97	H	0.413691	0.971593	0.491225
H98	H	0.361793	1.022732	0.490986
H99	H	-0.338602	0.837168	-0.376698
C100	C	0.177837	0.860323	0.289425
C101	C	0.218483	0.825131	0.327410
H102	H	0.150744	0.832793	0.267110
H103	H	0.153533	0.887590	0.314949
H104	H	0.201670	0.884445	0.260449
H105	H	0.194650	0.801013	0.356390
H106	H	0.242789	0.797853	0.301884
H107	H	0.375224	0.983553	-0.064012
C108	C	0.377997	0.986659	0.129266
C109	C	0.386492	0.995182	0.064624
H110	H	0.405096	1.014185	0.151579
H111	H	0.335630	0.995578	0.139911
H112	H	0.387517	0.944436	0.140149
H113	H	0.376968	1.037404	0.053740
H114	H	0.428869	0.986268	0.053975
C115	C	-0.371721	1.029836	-0.183893
C116	C	-0.329032	0.994540	-0.219212
H117	H	-0.349379	1.057120	-0.156580
H118	H	-0.397409	1.053947	-0.211331
H119	H	-0.397321	1.002377	-0.159806
H120	H	-0.303435	1.021999	-0.243303
H121	H	-0.303333	0.970427	-0.191771
C122	C	0.422412	0.183880	-0.423396
C123	C	0.387062	0.141095	-0.388139
H124	H	0.449734	0.161611	-0.450673
H125	H	0.394994	0.209580	-0.447512
H126	H	0.446491	0.209458	-0.395912
H127	H	0.362979	0.115520	-0.415623
H128	H	0.414483	0.115384	-0.364021
H129	H	0.062424	0.983073	-0.230661
C130	C	0.183327	0.789603	0.422671
C131	C	0.218350	0.825226	0.465416
H132	H	0.156195	0.762099	0.444969
H133	H	0.159068	0.816837	0.396907
H134	H	0.210967	0.765708	0.397153
H135	H	0.190709	0.849125	0.490931
H136	H	0.242611	0.797989	0.491191
H137	H	-0.056846	0.983071	-0.230669
C138	C	0.226556	0.076229	-0.227864
C139	C	0.218059	0.140862	-0.219364
H140	H	0.199252	0.053886	-0.200573
H141	H	0.217319	0.065534	-0.270166
H142	H	0.268857	0.065432	-0.218606
H143	H	0.175758	0.151659	-0.228626
H144	H	0.227291	0.151561	-0.177052
C145	C	0.377848	0.986766	0.262813
C146	C	0.386229	0.995366	0.327460
H147	H	0.404975	1.014276	0.240516
H148	H	0.387395	0.944539	0.252157
H149	H	0.335491	0.995663	0.251922
H150	H	0.428585	0.986465	0.338351
H151	H	0.376686	1.037603	0.338120
C152	C	0.182731	0.236078	-0.184067
C153	C	0.218072	0.278862	-0.219334
H154	H	0.155420	0.258347	-0.156779
H155	H	0.158647	0.210503	-0.211539
H156	H	0.210161	0.210375	-0.159956
H157	H	0.190643	0.304562	-0.243449
H158	H	0.242158	0.304448	-0.191858
C159	C	0.028809	0.790391	-0.423453
C160	C	0.071591	0.825684	-0.388132
H161	H	0.051080	0.763103	-0.450763
H162	H	0.003219	0.766284	-0.396015
H163	H	0.003120	0.817852	-0.447543
H164	H	0.097276	0.798223	-0.364038
H165	H	0.097191	0.849793	-0.415573
C166	C	0.232913	0.762626	-0.057348
C167	C	0.218872	0.824855	-0.073419
H168	H	0.205813	0.735094	-0.079652
H169	H	0.275279	0.753715	-0.068003
H170	H	0.227157	0.756866	-0.013490
H171	H	0.224631	0.830616	-0.117276
H172	H	0.176495	0.833769	-0.062768
C173	C	0.254527	0.784817	0.102563
C174	C	0.218746	0.824951	0.064584
H175	H	0.227396	0.757318	0.124868
H176	H	0.282151	0.760922	0.077037
H177	H	0.278293	0.808995	0.131548
H178	H	0.194984	0.800773	0.035595
H179	H	0.191111	0.848848	0.090112
