data_functionalizedCrystal
_audit_creation_method	'MofGen! by Chris Wilmer'
_symmetry_space_group_name_H-M	'P1'
_symmetry_Int_Tables_number	1
_symmetry_cell_setting	triclinic
loop_
_symmetry_equiv_pos_as_xyz
  x,y,z
_cell_length_a	19.288864
_cell_length_b	13.596369
_cell_length_c	19.288874
_cell_angle_alpha	90.006506
_cell_angle_beta	83.138236
_cell_angle_gamma	90.019175
loop_
_atom_site_label
_atom_site_type_symbol
_atom_site_fract_x
_atom_site_fract_y
_atom_site_fract_z
O1	O	0.921352	0.082108	0.086648
O2	O	0.719092	0.082041	0.098337
O3	O	0.826063	0.082069	-0.008637
O4	O	0.814381	0.082080	0.193623
O5	O	0.826052	-0.081514	-0.008643
O6	O	0.719081	-0.081542	0.098332
O7	O	0.921341	-0.081475	0.086643
Zn8	Zn	0.820210	-0.107481	0.092486
Zn9	Zn	0.820224	0.108047	0.092494
O10	O	0.814370	-0.081503	0.193617
C11	C	0.693210	0.000241	0.097958
C12	C	0.616106	0.000215	0.096829
N13	N	0.820205	-0.254573	0.092481
C14	C	0.571412	0.000234	0.159597
C15	C	0.498965	0.000245	0.158536
C16	C	0.471215	0.000256	0.094704
C17	C	0.515919	0.000232	0.031928
C18	C	0.588365	0.000211	0.032991
C19	C	0.362955	0.057597	0.044527
C20	C	0.290511	0.057623	0.043467
C21	C	0.247770	0.000316	0.091425
C22	C	0.277480	-0.057006	0.140453
C23	C	0.349926	-0.057027	0.141516
C24	C	0.392661	0.000278	0.093545
C25	C	0.124520	0.000345	0.153046
C26	C	0.052072	0.000350	0.151983
C27	C	0.069027	0.000346	0.025374
C28	C	0.141474	0.000332	0.026439
C29	C	0.169215	0.000336	0.090277
C30	C	0.820223	-0.655864	0.092494
C31	C	0.820216	-0.544212	0.092493
C32	C	0.820214	-0.455222	0.092488
C33	C	0.820207	-0.343563	0.092486
C34	C	0.947223	0.000327	0.087022
C35	C	1.024327	0.000360	0.088151
C36	C	0.825680	0.000277	-0.034516
C37	C	0.824549	0.000277	-0.111619
N38	N	0.820234	0.255138	0.092494
C39	C	0.816417	-0.088871	-0.667192
C40	C	0.817473	-0.088876	-0.594744
C41	C	0.818010	0.000293	-0.558510
C42	C	0.817473	0.089472	-0.594727
C43	C	0.816410	0.089475	-0.667172
C44	C	0.860380	0.068619	-0.449176
C45	C	0.861447	0.068613	-0.376733
C46	C	0.821285	0.000289	-0.335064
C47	C	0.780065	-0.068046	-0.365848
C48	C	0.779002	-0.068043	-0.438294
C49	C	0.819162	0.000300	-0.479955
C50	C	0.822961	-0.088891	-0.220298
C51	C	0.824013	-0.088892	-0.147849
C52	C	0.824020	0.089458	-0.147834
C53	C	0.822962	0.089457	-0.220281
C54	C	0.822436	0.000280	-0.256510
C55	C	0.814753	0.000291	0.219496
C56	C	0.815884	0.000297	0.296599
H57	H	0.593994	0.000239	0.211579
H58	H	0.822527	-0.161504	-0.249796
H59	H	0.266326	0.104302	0.003548
H60	H	0.397750	0.104270	0.005473
H61	H	0.824449	0.162061	-0.118332
O62	O	0.631855	0.000331	-0.027939
C63	C	0.674282	0.085057	-0.031116
H64	H	0.677783	0.113302	0.024006
H65	H	0.728808	0.065993	-0.057160
H66	H	0.650565	0.144386	-0.062762
H67	H	0.493321	0.000254	-0.020044
H68	H	0.815988	-0.161486	-0.696684
H69	H	0.817894	-0.161489	-0.565255
H70	H	0.893081	0.124267	-0.483097
O71	O	0.184923	0.000154	-0.034515
C72	C	0.227319	-0.084564	-0.037686
H73	H	0.200655	-0.143776	-0.002089
H74	H	0.235630	-0.113000	-0.093664
H75	H	0.279952	-0.065424	-0.019871
H76	H	0.747363	-0.123684	-0.331923
H77	H	0.745440	-0.123684	-0.463355
H78	H	0.824445	-0.161506	-0.118368
O79	O	0.822491	0.176164	-0.255357
C80	C	0.823176	0.254868	-0.207842
H81	H	0.845912	0.228730	-0.159144
H82	H	0.856593	0.317242	-0.233281
H83	H	0.767580	0.282274	-0.192679
H84	H	0.817908	0.162074	-0.565220
O85	O	0.815988	0.176036	-0.702437
C86	C	0.875527	0.181411	-0.752380
H87	H	0.895419	0.103998	-0.765926
H88	H	0.861256	0.219148	-0.801510
H89	H	0.918050	0.225433	-0.730093
O90	O	0.041965	0.000403	-0.036573
C91	C	-0.031562	0.000398	-0.024053
H92	H	-0.048731	0.031369	0.030207
H93	H	-0.053664	0.047898	-0.064882
H94	H	-0.051748	-0.078076	-0.027360
H95	H	0.895014	0.124250	-0.351674
H96	H	0.462568	0.000258	0.209651
H97	H	0.374114	-0.103704	0.181435
O98	O	0.151358	0.000295	0.215116
C99	C	0.096370	0.000328	0.270292
H100	H	0.047203	-0.030631	0.250975
H101	H	0.111358	-0.047168	0.314869
H102	H	0.086084	0.078809	0.289647
H103	H	0.015681	0.000360	0.203098
O104	O	0.236046	-0.112554	0.187192
C105	C	0.244739	-0.082444	0.255569
H106	H	0.264830	-0.003530	0.254433
H107	H	0.192457	-0.086656	0.289920
H108	H	0.283959	-0.132796	0.277645
