data_functionalizedCrystal
_audit_creation_method	'MofGen! by Chris Wilmer'
_symmetry_space_group_name_H-M	'P1'
_symmetry_Int_Tables_number	1
_symmetry_cell_setting	triclinic
loop_
_symmetry_equiv_pos_as_xyz
  x,y,z
_cell_length_a	15.297475
_cell_length_b	16.120531
_cell_length_c	15.296720
_cell_angle_alpha	101.981864
_cell_angle_beta	88.382886
_cell_angle_gamma	96.306499
loop_
_atom_site_label
_atom_site_type_symbol
_atom_site_fract_x
_atom_site_fract_y
_atom_site_fract_z
Zn1	Zn	1.212865	0.646896	0.754998
Zn2	Zn	1.712865	1.146896	1.254998
Zn3	Zn	1.230627	0.766582	0.613767
Zn4	Zn	1.730627	1.266582	1.113767
Zn5	Zn	1.094668	0.600201	0.581188
Zn6	Zn	1.594668	1.100201	1.081188
Zn7	Zn	1.059365	0.758412	0.734537
Zn8	Zn	1.559365	1.258412	1.234537
O9	O	1.149381	0.693023	0.671123
O10	O	1.649381	1.193023	1.171123
O11	O	1.336360	0.685734	0.758460
O12	O	1.836360	1.185734	1.258460
O13	O	1.234800	0.728389	0.486163
O14	O	1.734800	1.228389	0.986163
O15	O	1.117688	0.490094	0.599173
O16	O	1.617688	0.990094	1.099173
O17	O	1.349410	0.773667	0.654699
O18	O	1.849410	1.273667	1.154699
O19	O	1.204526	0.524401	0.726870
O20	O	1.704526	1.024401	1.226870
O21	O	1.134912	0.606149	0.462228
O22	O	1.634912	1.106149	0.962228
O23	O	0.968846	0.598227	0.579333
O24	O	1.468846	1.098227	1.079333
O25	O	1.057519	0.759742	0.860534
O26	O	1.557519	1.259742	1.360534
O27	O	0.942909	0.714464	0.691998
O28	O	1.442909	1.214464	1.191998
O29	O	1.170294	0.677811	0.875566
O30	O	1.670294	1.177811	1.375566
O31	O	1.200568	0.881800	0.634860
O32	O	1.700568	1.381800	1.134860
O33	O	1.074743	0.875797	0.723589
O34	O	1.574743	1.375797	1.223589
C35	C	0.924468	0.650393	0.629911
C36	C	1.424468	1.150393	1.129911
C37	C	0.828243	0.632178	0.612302
C38	C	1.328243	1.132178	1.112302
C39	C	0.503126	0.823212	0.796978
C40	C	1.003126	1.323212	1.296978
C41	C	0.593534	0.840332	0.813521
C42	C	1.093534	1.340332	1.313521
C43	C	0.652216	0.788295	0.763218
C44	C	1.152216	1.288295	1.263218
C45	C	0.620481	0.719135	0.696369
C46	C	1.120481	1.219135	1.196369
C47	C	0.530065	0.702018	0.679821
C48	C	1.030065	1.202018	1.179821
C49	C	0.679155	0.667101	0.646060
C50	C	1.179155	1.167101	1.146060
C51	C	0.647420	0.597941	0.579211
C52	C	1.147420	1.097941	1.079211
C53	C	0.557013	0.580827	0.562666
C54	C	1.057013	1.080827	1.062666
C55	C	0.498331	0.632864	0.612969
C56	C	0.998331	1.132864	1.112969
C57	C	0.769570	0.684218	0.662608
C58	C	1.269570	1.184218	1.162608
C59	C	0.796509	0.563024	0.545450
C60	C	1.296509	1.063024	1.045450
C61	C	0.706102	0.545904	0.528908
C62	C	1.206102	1.045904	1.028908
C63	C	1.135772	0.908961	0.680563
C64	C	1.635772	1.408961	1.180563
C65	C	1.130024	1.001359	0.684645
C66	C	1.630024	1.501359	1.184645
C67	C	1.119531	1.170535	0.692118
C68	C	1.619531	1.670535	1.192118
C69	C	1.179273	1.214670	0.650084
C70	C	1.679273	1.714670	1.150084
C71	C	1.173435	1.308806	0.654241
C72	C	1.673435	1.808806	1.154241
C73	C	1.125368	1.076391	0.687961
C74	C	1.625368	1.576391	1.187961
C75	C	1.375173	0.735820	0.712496
C76	C	1.875173	1.235820	1.212496
C77	C	1.471392	0.754058	0.730127
C78	C	1.971392	1.254058	1.230127
C79	C	1.107988	0.723074	0.900909
C80	C	1.607988	1.223074	1.400909
C81	C	1.090348	0.735880	0.998831
C82	C	1.590348	1.235880	1.498831
C83	C	1.163036	1.476241	0.661648
C84	C	1.663036	1.976241	1.161648
C85	C	1.168783	1.383841	0.657554
C86	C	1.668783	1.883841	1.157554
C87	C	1.190668	0.663038	0.442236
C88	C	1.690668	1.163038	0.942236
C89	C	1.208490	0.650030	0.344336
C90	C	1.708490	1.150030	0.844336
C91	C	1.275496	0.601358	1.306162
C92	C	1.775496	1.101358	1.806162
C93	C	1.292074	0.589328	1.214161
C94	C	1.792074	1.089328	1.714161
C95	C	1.241644	0.625965	1.160324
C96	C	1.741644	1.125965	1.660324
C97	C	1.174632	0.674633	1.198497
C98	C	1.674632	1.174633	1.698497
C99	C	1.158057	0.686669	1.290508
C100	C	1.658057	1.186669	1.790508
C101	C	1.124205	0.711277	1.144670
C102	C	1.624205	1.211277	1.644670
C103	C	1.057194	0.759945	1.182843
C104	C	1.557194	1.259945	1.682843
C105	C	1.040620	0.771978	1.274845
C106	C	1.540620	1.271978	1.774845
C107	C	1.091051	0.735342	1.328682
C108	C	1.591051	1.235342	1.828682
C109	C	1.140781	0.699240	1.052659
C110	C	1.640781	1.199240	1.552659
C111	C	1.023342	0.784552	1.037005
C112	C	1.523342	1.284552	1.537005
C113	C	1.006763	0.796581	1.129006
C114	C	1.506763	1.296581	1.629006
H115	H	0.531180	0.524520	0.508225
H116	H	1.031180	1.024520	1.008225
F117	F	0.402106	0.614643	0.595371
F118	F	0.902106	1.114643	1.095371
F119	F	0.672316	0.472301	0.457765
F120	F	1.172316	0.972301	0.957765
F121	F	1.046952	1.213550	0.743232
F122	F	1.546952	1.713550	1.243232
F123	F	0.627302	0.913934	0.884661
F124	F	1.127302	1.413934	1.384661
F125	F	1.251854	1.171653	0.598962
F126	F	1.751854	1.671653	1.098962
F127	F	1.329165	0.562380	1.363465
F128	F	1.829165	1.062380	1.863465
H129	H	0.844289	0.520652	0.504488
H130	H	1.344289	1.020652	1.004488
H131	H	1.195342	0.659613	1.021588
H132	H	1.695342	1.159613	1.521588
H133	H	1.255147	0.616168	1.085413
H134	H	1.755147	1.116168	1.585413
F135	F	1.363390	0.537535	1.173541
F136	F	1.863390	1.037535	1.673541
F137	F	1.073413	0.748146	1.426603
F138	F	1.573413	1.248146	1.926603
H139	H	0.455342	0.865578	0.837923
H140	H	0.955342	1.365578	1.337923
H141	H	0.986062	0.811616	1.305923
H142	H	1.486062	1.311616	1.805923
H143	H	0.952202	0.836208	1.160099
H144	H	1.452202	1.336208	1.660099
F145	F	0.969670	0.823551	0.979713
F146	F	1.469670	1.323551	1.479713
H147	H	0.725829	0.802237	0.776691
H148	H	1.225829	1.302237	1.276691
F149	F	0.803334	0.757820	0.733752
F150	F	1.303334	1.257820	1.233752
