data_functionalizedCrystal
_audit_creation_method	'MofGen! by Chris Wilmer'
_symmetry_space_group_name_H-M	'P1'
_symmetry_Int_Tables_number	1
_symmetry_cell_setting	triclinic
loop_
_symmetry_equiv_pos_as_xyz
  x,y,z
_cell_length_a	11.169417
_cell_length_b	15.297327
_cell_length_c	11.169409
_cell_angle_alpha	99.639791
_cell_angle_beta	89.980176
_cell_angle_gamma	99.707226
loop_
_atom_site_label
_atom_site_type_symbol
_atom_site_fract_x
_atom_site_fract_y
_atom_site_fract_z
Zn1	Zn	1.752166	-0.359064	-0.761131
Zn2	Zn	1.717262	-0.509956	-0.595155
Zn3	Zn	1.551440	-0.359119	-0.560478
Zn4	Zn	1.516683	-0.509883	-0.795783
O5	O	1.634387	-0.434505	-0.678137
O6	O	1.915484	-0.379088	-0.739125
O7	O	1.695203	-0.490001	-0.422618
O8	O	1.607220	-0.232867	-0.558081
O9	O	1.889840	-0.489948	-0.617183
O10	O	1.754693	-0.232827	-0.705500
O11	O	1.573374	-0.379181	-0.397141
O12	O	1.378881	-0.379110	-0.591682
O13	O	1.547982	-0.489823	-0.959124
O14	O	1.353345	-0.489876	-0.764559
O15	O	1.720991	-0.379016	-0.933665
O16	O	1.661501	-0.636191	-0.650783
O17	O	1.514136	-0.636137	-0.798184
C18	C	1.322566	-0.434492	-0.678118
C19	C	1.189162	-0.434508	-0.678144
C20	C	1.580292	-0.668898	-0.732033
C21	C	1.557259	-0.769172	-0.755130
C22	C	1.799500	-1.051814	-0.513469
C23	C	1.821139	-0.957602	-0.491762
C24	C	1.755172	-0.910490	-0.557602
C25	C	1.667560	-0.957599	-0.645153
C26	C	1.645911	-1.051821	-0.666855
C27	C	1.601583	-0.910496	-0.710988
C28	C	1.513971	-0.957606	-0.798539
C29	C	1.492327	-1.051818	-0.820238
C30	C	1.558295	-1.098930	-0.754397
C31	C	1.623232	-0.816275	-0.689286
C32	C	1.469643	-0.816281	-0.842672
C33	C	1.448003	-0.910493	-0.864379
C34	C	1.947426	-0.434520	-0.678156
C35	C	2.080825	-0.434526	-0.678165
C36	C	1.634503	-0.434405	-0.991157
C37	C	1.634552	-0.434362	-1.124547
C38	C	1.688727	-0.199198	-0.624057
C39	C	1.711884	-0.098924	-0.601011
C40	C	1.634357	-0.434540	-0.366320
C41	C	1.634599	-0.434329	-0.232872
H42	H	1.772795	-0.833778	-0.539922
H43	H	1.892471	-0.919249	-0.420479
O44	O	1.363033	-0.956220	-0.949580
C45	C	1.394495	-0.933095	-1.063893
H46	H	1.496336	-0.907126	-1.064052
H47	H	1.342687	-0.878433	-1.082625
C48	C	1.236198	-1.048650	-1.163049
C49	C	1.361282	-1.016761	-1.163247
H50	H	1.215705	-1.100258	-1.224337
H51	H	1.214997	-1.064228	-1.086034
H52	H	1.193039	-1.003090	-1.178655
H53	H	1.404438	-1.062317	-1.147626
H54	H	1.382489	-1.001193	-1.240263
O55	O	1.863464	-1.097717	-0.449628
C56	C	1.825522	-1.190976	-0.487514
H57	H	1.783269	-1.203817	-0.583081
H58	H	1.755434	-1.217769	-0.422474
C59	C	1.987726	-1.223535	-0.370288
C60	C	1.935840	-1.239307	-0.487668
H61	H	2.055773	-1.253349	-0.370378
H62	H	2.013287	-1.160705	-0.344759
H63	H	1.929309	-1.245862	-0.316100
H64	H	1.994252	-1.216970	-0.541851
H65	H	1.910292	-1.302134	-0.513207
O66	O	1.405739	-0.770486	-0.906757
C67	C	1.486577	-0.715883	-0.971735
H68	H	1.574588	-0.744216	-0.985755
H69	H	1.507134	-0.644498	-0.918187
C70	C	1.320126	-0.679595	-1.078889
C71	C	1.428219	-0.714398	-1.096118
H72	H	1.284127	-0.678675	-1.155612
H73	H	1.265662	-0.716379	-1.035110
H74	H	1.337272	-0.620111	-1.034262
H75	H	1.411069	-0.773885	-1.140730
H76	H	1.482678	-0.677624	-1.139908
O77	O	1.537054	-1.190451	-0.775489
C78	C	1.414801	-1.222030	-0.751817
H79	H	1.358119	-1.167768	-0.759751
H80	H	1.408455	-1.238822	-0.656103
C81	C	1.436016	-1.373788	-0.834793
C82	C	1.366397	-1.307145	-0.844547
H83	H	1.406158	-1.426293	-0.891989
H84	H	1.518381	-1.352514	-0.850737
H85	H	1.430722	-1.387770	-0.755027
H86	H	1.371704	-1.293156	-0.924307
H87	H	1.284030	-1.328419	-0.828618
H88	H	1.420974	-1.090172	-0.891513
H89	H	1.694565	-0.777926	-0.618002
