data_functionalizedCrystal
_audit_creation_method	'MofGen! by Chris Wilmer'
_symmetry_space_group_name_H-M	'P1'
_symmetry_Int_Tables_number	1
_symmetry_cell_setting	triclinic
loop_
_symmetry_equiv_pos_as_xyz
  x,y,z
_cell_length_a	17.077404
_cell_length_b	19.805404
_cell_length_c	17.077396
_cell_angle_alpha	90.029459
_cell_angle_beta	90.019501
_cell_angle_gamma	90.029818
loop_
_atom_site_label
_atom_site_type_symbol
_atom_site_fract_x
_atom_site_fract_y
_atom_site_fract_z
Zn1	Zn	1.200018	-0.269459	0.443837
Zn2	Zn	1.700018	0.230541	0.943837
Zn3	Zn	1.199910	-0.382652	0.312569
Zn4	Zn	1.699910	0.117348	0.812569
Zn5	Zn	1.068750	-0.269483	0.312585
Zn6	Zn	1.568750	0.230517	0.812585
Zn7	Zn	1.068702	-0.382612	0.443793
Zn8	Zn	1.568702	0.117388	0.943793
O9	O	1.134345	-0.326052	0.378196
O10	O	1.634345	0.173948	0.878196
O11	O	1.309851	-0.284481	0.426436
O12	O	1.809851	0.215519	0.926436
O13	O	1.182486	-0.367667	0.202724
O14	O	1.682486	0.132333	0.702724
O15	O	1.086228	-0.174763	0.330022
O16	O	1.586228	0.325237	0.830022
O17	O	1.309771	-0.367644	0.329994
O18	O	1.809771	0.132356	0.829994
O19	O	1.182670	-0.174746	0.426452
O20	O	1.682670	0.325254	0.926452
O21	O	1.086123	-0.284522	0.202736
O22	O	1.586123	0.215478	0.702736
O23	O	0.958897	-0.284483	0.329978
O24	O	1.458897	0.215517	0.829978
O25	O	1.086147	-0.367575	0.553646
O26	O	1.586147	0.132425	1.053646
O27	O	0.958862	-0.367598	0.426376
O28	O	1.458862	0.132402	0.926376
O29	O	1.182624	-0.284442	0.553678
O30	O	1.682624	0.215558	1.053678
O31	O	1.182440	-0.477363	0.329951
O32	O	1.682440	0.022637	0.829951
O33	O	1.086042	-0.477334	0.426360
O34	O	1.586042	0.022666	0.926360
C35	C	0.930397	-0.326039	0.378174
C36	C	1.430397	0.173961	0.878174
C37	C	0.843147	-0.326050	0.378184
C38	C	1.343147	0.173950	0.878184
C39	C	1.134245	-0.501908	0.378166
C40	C	1.634245	-0.001908	0.878166
C41	C	1.134275	-0.577140	0.378179
C42	C	1.634275	-0.077140	0.878179
C43	C	0.802160	-0.369394	0.428297
C44	C	1.302160	0.130606	0.928297
C45	C	0.720179	-0.369395	0.428310
C46	C	1.220179	0.130605	0.928310
C47	C	0.679188	-0.326056	0.378204
C48	C	1.179188	0.173944	0.878204
C49	C	0.720181	-0.282708	0.328089
C50	C	1.220181	0.217292	0.828089
C51	C	0.802160	-0.282703	0.328080
C52	C	1.302160	0.217297	0.828080
C53	C	0.549311	-0.282721	0.328107
C54	C	1.049311	0.217279	0.828107
C55	C	0.467327	-0.282726	0.328114
C56	C	0.967327	0.217274	0.828114
C57	C	0.467330	-0.369413	0.428337
C58	C	0.967330	0.130587	0.928337
C59	C	0.549309	-0.369409	0.428329
C60	C	1.049309	0.130591	0.928329
C61	C	0.590297	-0.326061	0.378212
C62	C	1.090297	0.173939	0.878212
C63	C	1.184732	-1.038923	0.328106
C64	C	1.684732	-0.538923	0.828106
C65	C	1.184695	-0.968235	0.328090
C66	C	1.684695	-0.468235	0.828090
C67	C	1.134448	-0.932901	0.378238
C68	C	1.634448	-0.432901	0.878238
C69	C	1.084229	-0.968260	0.428398
C70	C	1.584229	-0.468260	0.928398
C71	C	1.084262	-1.038947	0.428409
C72	C	1.584262	-0.538947	0.928409
C73	C	1.084092	-0.683186	0.428355
C74	C	1.584092	-0.183186	0.928355
C75	C	1.084064	-0.612494	0.428342
C76	C	1.584064	-0.112494	0.928342
C77	C	1.184525	-0.612475	0.328036
C78	C	1.684525	-0.112475	0.828036
C79	C	1.184559	-0.683162	0.328047
C80	C	1.684559	-0.183162	0.828047
C81	C	1.134337	-0.718514	0.378204
C82	C	1.634337	-0.218514	0.878204
C83	C	1.134376	-0.795162	0.378219
C84	C	1.634376	-0.295162	0.878219
C85	C	1.134412	-0.856254	0.378227
C86	C	1.634412	-0.356254	0.878227
C87	C	1.339089	-0.326064	0.378218
C88	C	1.839089	0.173936	0.878218
C89	C	1.426339	-0.326070	0.378228
C90	C	1.926339	0.173930	0.878228
C91	C	1.134393	-0.326002	0.582940
C92	C	1.634393	0.173998	1.082940
C93	C	1.134413	-0.325980	0.670190
C94	C	1.634413	0.174020	1.170190
C95	C	1.134466	-0.149509	0.378244
C96	C	1.634466	0.350491	0.878244
C97	C	1.134518	-0.074277	0.378264
C98	C	1.634518	0.425723	0.878264
C99	C	1.134343	-0.326052	0.174248
C100	C	1.634343	0.173948	0.674248
C101	C	1.134475	-0.325883	0.086999
C102	C	1.634475	0.174117	0.586999
C103	C	1.184650	-0.282690	0.711199
C104	C	1.684650	0.217310	1.211199
C105	C	1.184660	-0.282667	0.793179
C106	C	1.684660	0.217333	1.293179
C107	C	1.134435	-0.325939	0.834150
C108	C	1.634435	0.174061	1.334150
C109	C	1.084192	-0.369232	0.793136
C110	C	1.584192	0.130768	1.293136
C111	C	1.084179	-0.369251	0.711157
C112	C	1.584179	0.130749	1.211157
C113	C	1.084224	-0.369191	0.964006
C114	C	1.584224	0.130809	1.464006
C115	C	1.084237	-0.369174	1.045990
C116	C	1.584237	0.130826	1.545990
C117	C	1.184704	-0.282608	1.046029
C118	C	1.684704	0.217392	1.546029
C119	C	1.184691	-0.282626	0.964050
C120	C	1.684691	0.217374	1.464050
C121	C	1.134449	-0.325920	0.923041
C122	C	1.634449	0.174080	1.423041
H123	H	0.835529	-0.404688	0.469097
H124	H	1.335529	0.095312	0.969097
Br125	Br	1.252879	-0.223944	0.848831
Br126	Br	1.752879	0.276056	1.348831
H127	H	1.225593	-0.247394	0.930694
H128	H	1.725593	0.252606	1.430694
Br129	Br	0.604937	-0.223890	0.260092
Br130	Br	1.104937	0.276110	0.760092
H131	H	1.043144	-0.583727	0.469179
H132	H	1.543144	-0.083727	0.969179
H133	H	1.043312	-0.939487	0.469226
H134	H	1.543312	-0.439487	0.969226
H135	H	0.433954	-0.404706	0.469146
H136	H	0.933954	0.095294	0.969146
H137	H	1.043192	-0.711962	0.469190
H138	H	1.543192	-0.211962	0.969190
Br139	Br	1.016035	-0.427946	0.908352
Br140	Br	1.516035	0.072054	1.408352
H141	H	1.225612	-0.247355	1.079422
H142	H	1.725612	0.252645	1.579422
Br143	Br	0.664552	-0.223883	0.260094
Br144	Br	1.164552	0.276117	0.760094
H145	H	0.582682	-0.404703	0.469125
H146	H	1.082682	0.095297	0.969125
Br147	Br	0.411696	-0.223913	0.260107
Br148	Br	0.911696	0.276087	0.760107
H149	H	1.043338	-0.404408	1.079346
H150	H	1.543338	0.095592	1.579346
Br151	Br	1.016024	-0.427956	0.848737
Br152	Br	1.516024	0.072044	1.348737
Br153	Br	1.015992	-0.428001	0.655501
Br154	Br	1.515992	0.071999	1.155501
Br155	Br	0.857788	-0.223874	0.260071
Br156	Br	1.357788	0.276126	0.760071
Br157	Br	1.016105	-1.086927	0.496476
Br158	Br	1.516105	-0.586927	0.996476
H159	H	0.686811	-0.404691	0.469117
H160	H	1.186811	0.095309	0.969117
Br161	Br	1.252934	-1.086869	0.260050
Br162	Br	1.752934	-0.586869	0.760050
Br163	Br	1.252759	-0.731111	0.259993
Br164	Br	1.752759	-0.231111	0.759993
Br165	Br	1.252853	-0.920258	0.260023
Br166	Br	1.752853	-0.420258	0.760023
H167	H	1.225416	-0.583683	0.287193
H168	H	1.725416	-0.083683	0.787193
Br169	Br	1.252822	-0.223965	0.655604
Br170	Br	1.752822	0.276035	1.155604
