data_functionalizedCrystal
_audit_creation_method	'MofGen! by Chris Wilmer'
_symmetry_space_group_name_H-M	'P1'
_symmetry_Int_Tables_number	1
_symmetry_cell_setting	triclinic
loop_
_symmetry_equiv_pos_as_xyz
  x,y,z
_cell_length_a	27.731994
_cell_length_b	14.519731
_cell_length_c	12.996460
_cell_angle_alpha	89.992872
_cell_angle_beta	90.000496
_cell_angle_gamma	83.154694
loop_
_atom_site_label
_atom_site_type_symbol
_atom_site_fract_x
_atom_site_fract_y
_atom_site_fract_z
O1	O	0.641473	0.109494	-0.085423
O2	O	0.500756	0.126230	-0.085457
O3	O	0.574840	-0.016441	-0.085430
O4	O	0.567389	0.252165	-0.085450
O5	O	0.574832	-0.016449	0.085704
O6	O	0.500748	0.126223	0.085677
O7	O	0.641465	0.109486	0.085711
Cu8	Cu	0.571106	0.117854	0.101320
Cu9	Cu	0.571115	0.117863	-0.101066
O10	O	0.567381	0.252158	0.085684
C11	C	0.482743	0.125883	0.000106
C12	C	0.429082	0.124848	0.000093
C13	C	0.574487	-0.050798	0.000137
C14	C	0.573441	-0.153160	0.000138
C15	C	0.572591	-0.236289	0.000135
C16	C	0.571529	-0.340579	0.000127
C17	C	0.570686	-0.423703	0.000120
C18	C	0.569623	-0.528000	0.000114
C19	C	0.096328	0.118328	0.093418
C20	C	-0.105349	0.114394	0.093430
O21	O	-0.131428	0.113843	0.172765
N22	N	-0.130562	0.113910	0.000145
C23	C	-0.105352	0.114403	-0.093150
O24	O	-0.131424	0.113892	-0.172494
C25	C	0.096324	0.118330	-0.093161
C26	C	0.121534	0.118823	0.000131
C27	C	0.121538	0.118820	0.186701
C28	C	0.171954	0.119808	0.186697
C29	C	0.197160	0.120304	0.093410
C30	C	0.171950	0.119812	0.000127
C31	C	0.121534	0.118816	-0.186454
C32	C	0.171956	0.119795	-0.186448
C33	C	0.197166	0.120289	-0.093157
C34	C	0.247572	0.121296	-0.093165
N35	N	0.272785	0.121780	0.000120
C36	C	0.247579	0.121284	0.093408
C37	C	-0.211236	0.112344	-0.093137
C38	C	-0.261655	0.111364	-0.093135
C39	C	-0.261648	0.111353	0.093445
C40	C	-0.211228	0.112340	0.093441
C41	C	-0.186023	0.112828	0.000148
C42	C	0.353456	0.123360	0.093392
C43	C	0.403876	0.124353	0.093380
C44	C	0.403865	0.124358	-0.093199
C45	C	0.353449	0.123371	-0.093188
C46	C	0.328246	0.122869	0.000116
O47	O	0.273682	0.121838	-0.172458
O48	O	0.273661	0.121775	0.172740
C49	C	0.045912	0.117339	0.093422
C50	C	0.020702	0.116847	0.000138
C51	C	0.045908	0.117342	-0.093149
C52	C	-0.029717	0.115867	0.000141
C53	C	-0.054923	0.115371	0.093428
C54	C	-0.029710	0.115855	0.186713
C55	C	0.020706	0.116844	0.186709
C56	C	0.020695	0.116858	-0.186434
C57	C	-0.029721	0.115871	-0.186422
C58	C	-0.054927	0.115375	-0.093135
C59	C	0.659478	0.109833	0.000146
C60	C	0.713139	0.110868	0.000153
C61	C	0.567734	0.286515	0.000114
C62	C	0.568780	0.388876	0.000107
N63	N	0.571103	0.117847	0.243667
N64	N	0.571122	0.117862	-0.243413
C65	C	0.571114	0.117864	0.663481
C66	C	0.571110	0.117862	0.546676
C67	C	0.571109	0.117856	0.453578
C68	C	0.571104	0.117853	0.336765
H69	H	0.424399	0.124758	0.169352
C70	C	0.199679	0.120335	-0.289082
N71	N	0.220559	0.120745	-0.366385
H72	H	0.332921	0.122984	-0.169153
C73	C	-0.057446	0.115308	0.289330
N74	N	-0.078339	0.114889	0.366616
C75	C	0.199679	0.120338	0.289326
N76	N	0.220558	0.120731	0.366631
C77	C	0.431602	0.124897	-0.195810
N78	N	0.452495	0.125295	-0.273098
C79	C	-0.057445	0.115324	-0.289057
N80	N	-0.078325	0.114902	-0.366360
C81	C	0.325739	0.122818	0.196031
N82	N	0.304862	0.122417	0.273339
H83	H	-0.282177	0.110977	-0.169102
H84	H	-0.190718	0.112740	-0.169113
C85	C	0.048431	0.117378	0.289338
N86	N	0.069310	0.117778	0.366643
H87	H	0.041213	0.117259	-0.262401
H88	H	0.101020	0.118415	0.262671
H89	H	-0.190706	0.112743	0.169407
H90	H	-0.282179	0.110952	0.169403
C91	C	0.093815	0.118258	-0.289084
N92	N	0.072939	0.117831	-0.366390
