data_functionalizedCrystal
_audit_creation_method	'MofGen! by Chris Wilmer'
_symmetry_space_group_name_H-M	'P1'
_symmetry_Int_Tables_number	1
_symmetry_cell_setting	triclinic
loop_
_symmetry_equiv_pos_as_xyz
  x,y,z
_cell_length_a	16.109301
_cell_length_b	16.109301
_cell_length_c	15.186229
_cell_angle_alpha	89.994833
_cell_angle_beta	89.999006
_cell_angle_gamma	83.461532
loop_
_atom_site_label
_atom_site_type_symbol
_atom_site_fract_x
_atom_site_fract_y
_atom_site_fract_z
O1	O	1.103130	0.106867	-0.073183
O2	O	0.861069	0.120166	-0.073196
O3	O	0.988749	-0.007514	-0.073180
O4	O	0.975450	0.234548	-0.073199
O5	O	0.988741	-0.007516	0.073277
O6	O	0.861060	0.120164	0.073262
O7	O	1.103122	0.106865	0.073274
Zn8	Zn	0.982090	0.113515	0.096521
Zn9	Zn	0.982101	0.113517	-0.096443
O10	O	0.975441	0.234546	0.073259
C11	C	0.830089	0.119627	0.000031
C12	C	0.737794	0.118011	0.000027
C13	C	0.988206	-0.038490	0.000049
C14	C	0.986591	-0.130785	0.000050
C15	C	0.428796	0.188494	0.000037
C16	C	0.515516	0.190020	0.000032
C17	C	0.535389	0.038531	0.000031
C18	C	0.448671	0.037007	0.000030
C19	C	0.395376	0.111991	0.000037
C20	C	0.568815	0.115041	0.000033
C21	C	0.662841	0.116694	0.000028
C22	C	0.301344	0.110338	0.000041
C23	C	1.058599	-0.353058	0.000040
C24	C	1.057075	-0.439778	0.000033
C25	C	0.905586	-0.419904	0.000028
C26	C	0.907111	-0.333185	0.000029
C27	C	0.983620	-0.299765	0.000040
C28	C	0.980571	-0.473204	0.000031
C29	C	0.978918	-0.567230	0.000023
C30	C	0.985273	-0.205733	0.000046
C31	C	1.134101	0.107405	0.000045
C32	C	1.226396	0.109020	0.000044
C33	C	0.975984	0.265522	0.000028
C34	C	0.977599	0.357817	0.000021
N35	N	0.982088	0.113512	0.228214
N36	N	0.982109	0.113512	-0.228135
C37	C	1.038644	0.056994	0.453944
C38	C	1.038647	0.056992	0.546133
C39	C	0.925547	0.170033	0.546128
C40	C	0.925541	0.170030	0.453940
C41	C	0.982094	0.113512	0.407850
C42	C	0.982103	0.113513	0.592228
C43	C	0.982105	0.113511	0.692184
C44	C	0.982091	0.113512	0.307888
H45	H	0.385405	0.249551	0.000042
H46	H	1.084694	0.010970	0.583660
H47	H	0.843295	-0.447126	0.000021
C48	C	0.820941	-0.224129	0.075312
C49	C	0.824689	-0.274595	0.000027
H50	H	0.770063	-0.187954	0.075302
H51	H	0.823484	-0.258374	0.126376
H52	H	0.866730	-0.191821	0.075304
H53	H	0.778904	-0.306907	0.000038
H54	H	0.822138	-0.240345	-0.051050
H55	H	0.542722	0.252317	0.000030
H56	H	0.879503	0.216050	0.583664
C57	C	0.677148	-0.026397	0.000044
C58	C	0.593974	-0.043889	0.000037
H59	H	0.713313	-0.077282	0.000055
H60	H	0.687277	0.004969	-0.051027
H61	H	0.687265	0.004973	0.051120
H62	H	0.583855	-0.075254	-0.051043
H63	H	0.583841	-0.075268	0.051113
C64	C	0.477019	-0.112587	0.000040
C65	C	0.411930	-0.047093	0.000034
H66	H	0.454334	-0.164503	0.000045
H67	H	0.510429	-0.108841	-0.051029
H68	H	0.510429	-0.108842	0.051117
H69	H	0.378523	-0.050835	-0.051047
H70	H	0.378505	-0.050841	0.051109
H71	H	1.084692	0.010973	0.416419
C72	C	1.208184	-0.381416	0.000027
C73	C	1.142696	-0.316321	0.000035
H74	H	1.260103	-0.358736	0.000016
H75	H	1.204443	-0.414827	0.051098
H76	H	1.204428	-0.414823	-0.051048
H77	H	1.146449	-0.282917	0.051114
H78	H	1.146439	-0.282895	-0.051041
H79	H	1.118130	-0.483167	0.000031
H80	H	0.879487	0.216054	0.416409
