data_functionalizedCrystal
_audit_creation_method	'MofGen! by Chris Wilmer'
_symmetry_space_group_name_H-M	'P1'
_symmetry_Int_Tables_number	1
_symmetry_cell_setting	triclinic
loop_
_symmetry_equiv_pos_as_xyz
  x,y,z
_cell_length_a	12.759395
_cell_length_b	17.637651
_cell_length_c	12.759387
_cell_angle_alpha	78.750696
_cell_angle_beta	89.980569
_cell_angle_gamma	101.219287
loop_
_atom_site_label
_atom_site_type_symbol
_atom_site_fract_x
_atom_site_fract_y
_atom_site_fract_z
Zn1	Zn	1.521699	-0.314730	-0.509300
Zn2	Zn	1.486057	-0.446967	-0.298044
Zn3	Zn	1.345987	-0.314769	-0.333630
Zn4	Zn	1.310473	-0.446907	-0.473702
O5	O	1.416054	-0.380843	-0.403669
O6	O	1.663990	-0.332280	-0.481281
O7	O	1.467422	-0.429472	-0.155732
O8	O	1.399074	-0.204123	-0.386724
O9	O	1.637803	-0.429434	-0.326072
O10	O	1.528169	-0.204094	-0.515788
O11	O	1.364513	-0.332347	-0.181877
O12	O	1.194257	-0.332289	-0.352206
O13	O	1.338546	-0.429332	-0.625457
O14	O	1.168165	-0.429370	-0.455116
O15	O	1.493733	-0.332222	-0.651610
O16	O	1.432986	-0.557600	-0.291555
O17	O	1.303985	-0.557556	-0.420610
C18	C	1.143090	-0.380828	-0.403660
C19	C	1.026310	-0.380840	-0.403676
C20	C	1.053515	-0.279837	-0.565469
C21	C	1.012254	-0.229345	-0.646371
C22	C	0.902528	-0.229360	-0.646380
C23	C	0.834061	-0.279869	-0.565477
C24	C	0.875322	-0.330361	-0.484575
C25	C	0.985051	-0.330343	-0.484576
C26	C	0.848119	-0.431358	-0.322780
C27	C	0.957843	-0.431350	-0.322773
C28	C	0.779651	-0.481868	-0.241877
C29	C	0.820911	-0.532365	-0.160977
C30	C	0.930643	-0.532349	-0.160972
C31	C	0.999104	-0.481841	-0.241871
C32	C	1.360793	-0.586266	-0.348381
C33	C	1.337248	-0.674147	-0.324763
C34	C	1.595603	-0.962807	-0.583419
C35	C	1.573445	-1.045384	-0.561208
C36	C	1.439108	-1.045522	-0.426684
C37	C	1.461258	-0.962943	-0.448879
C38	C	1.539505	-0.921592	-0.527248
C39	C	1.405160	-0.921727	-0.392709
C40	C	1.427305	-0.839156	-0.414907
C41	C	1.505546	-0.797799	-0.493275
C42	C	1.561650	-0.839020	-0.549446
C43	C	1.326908	-0.963080	-0.314345
C44	C	1.270811	-0.921865	-0.258175
C45	C	1.292960	-0.839291	-0.280368
C46	C	1.371201	-0.797934	-0.358736
C47	C	1.236857	-0.798070	-0.224196
C48	C	1.259001	-0.715498	-0.246394
C49	C	1.393346	-0.715363	-0.380934
C50	C	1.690083	-0.380860	-0.403678
C51	C	1.806858	-0.380867	-0.403682
C52	C	1.416154	-0.380766	-0.677723
C53	C	1.416197	-0.380733	-0.794509
C54	C	1.471559	-0.174618	-0.459196
C55	C	1.495212	-0.086737	-0.482858
C56	C	1.577800	-0.279619	-0.821761
C57	C	1.658620	-0.229051	-0.890251
C58	C	1.658653	-0.229022	-0.999980
C59	C	1.577856	-0.279565	-1.041221
C60	C	1.497037	-0.330134	-0.972731
C61	C	1.497014	-0.330159	-0.863000
C62	C	1.335431	-0.431242	-0.945481
C63	C	1.335400	-0.431276	-0.835750
C64	C	1.254634	-0.481786	-0.986722
C65	C	1.173817	-0.532360	-0.918231
C66	C	1.173788	-0.532387	-0.808495
C67	C	1.254580	-0.481845	-0.767260
C68	C	1.416030	-0.380863	-0.130696
C69	C	1.416250	-0.380674	-0.013971
H70	H	0.964231	-0.573463	-0.095088
F71	F	1.528854	-0.709918	-0.517161
H72	H	1.207099	-0.955544	-0.194370
H73	H	1.577883	-0.279531	-1.130572
H74	H	1.213319	-0.681940	-0.200655
H75	H	0.690308	-0.481874	-0.241888
H76	H	0.765158	-0.573482	-0.095109
H77	H	1.457071	-0.681693	-0.444742
F78	F	1.153570	-0.842089	-0.140807
H79	H	1.142861	-0.279817	-0.565466
H80	H	1.577789	-0.279645	-0.732413
F81	F	1.254671	-0.481753	-1.103507
H82	H	1.724401	-0.187898	-0.856660
F83	F	1.355827	-1.089539	-0.343287
F84	F	1.644941	-0.795007	-0.632845
F85	F	1.087833	-0.586141	-0.962131
H86	H	1.308871	-1.030315	-0.296285
F87	F	1.085128	-0.175591	-0.732469
H88	H	1.088451	-0.481820	-0.241870
F89	F	1.678894	-0.918794	-0.666817
F90	F	1.744658	-0.175191	-1.072877
H91	H	1.107965	-0.573558	-0.752738
F92	F	1.633164	-1.089246	-0.620993
H93	H	0.868936	-0.188240	-0.712253
F94	F	0.717284	-0.279873	-0.565482
F95	F	1.254560	-0.481873	-0.650477
