data_functionalizedCrystal
_audit_creation_method	'MofGen! by Chris Wilmer'
_symmetry_space_group_name_H-M	'P1'
_symmetry_Int_Tables_number	1
_symmetry_cell_setting	triclinic
loop_
_symmetry_equiv_pos_as_xyz
  x,y,z
_cell_length_a	8.597187
_cell_length_b	11.792241
_cell_length_c	7.681481
_cell_angle_alpha	84.218353
_cell_angle_beta	88.166928
_cell_angle_gamma	84.765473
loop_
_atom_site_label
_atom_site_type_symbol
_atom_site_fract_x
_atom_site_fract_y
_atom_site_fract_z
O1	O	2.038025	0.202356	-0.455622
O2	O	1.588069	0.210418	-0.387362
O3	O	1.823967	0.041409	-0.423136
O4	O	1.802126	0.371365	-0.419848
O5	O	1.853002	0.020558	-0.134682
O6	O	1.617104	0.189567	-0.098907
O7	O	2.067060	0.181506	-0.167167
Zn8	Zn	1.846692	0.182226	-0.087239
Zn9	Zn	1.808437	0.209697	-0.467290
O10	O	1.831161	0.350514	-0.131393
C11	C	1.544982	0.197965	-0.234396
C12	C	1.373339	0.191909	-0.208357
C13	C	1.837113	-0.011332	-0.278701
C14	C	1.833007	-0.137418	-0.278080
C15	C	1.825454	-0.368262	-0.276964
C16	C	1.829650	-0.239803	-0.277585
C17	C	2.110146	0.193959	-0.320137
C18	C	2.281788	0.200015	-0.346188
C19	C	1.818015	0.403255	-0.275832
C20	C	1.822120	0.529342	-0.276464
N21	N	1.872811	0.163477	0.172134
N22	N	1.782330	0.228438	-0.726665
H23	H	1.320405	0.180349	-0.070443
C24	C	1.352542	0.215615	-0.529995
C25	C	1.427694	0.316733	-0.550571
C26	C	1.492909	0.331133	-0.719858
H27	H	1.272245	0.219964	-0.613145
H28	H	1.426128	0.152442	-0.547710
H29	H	1.354115	0.379890	-0.532875
H30	H	1.508013	0.312408	-0.467462
H31	H	1.566494	0.267961	-0.737573
H32	H	1.412602	0.335478	-0.802994
H33	H	1.543919	0.399737	-0.733836
C34	C	1.996120	0.075034	0.253380
C35	C	2.075706	0.017923	0.121293
C36	C	2.189317	-0.063547	0.196067
H37	H	1.947278	0.021399	0.332731
H38	H	2.068066	0.112153	0.314330
H39	H	2.003771	-0.019195	0.060370
H40	H	2.124582	0.071527	0.041932
H41	H	2.261263	-0.026427	0.257018
H42	H	2.140462	-0.117173	0.275418
H43	H	2.243340	-0.102299	0.106458
H44	H	1.689968	0.294743	0.212144
