data_functionalizedCrystal
_audit_creation_method	'MofGen! by Chris Wilmer'
_symmetry_space_group_name_H-M	'P1'
_symmetry_Int_Tables_number	1
_symmetry_cell_setting	triclinic
loop_
_symmetry_equiv_pos_as_xyz
  x,y,z
_cell_length_a	21.295418
_cell_length_b	18.050591
_cell_length_c	18.050583
_cell_angle_alpha	90.027308
_cell_angle_beta	89.965047
_cell_angle_gamma	89.979518
loop_
_atom_site_label
_atom_site_type_symbol
_atom_site_fract_x
_atom_site_fract_y
_atom_site_fract_z
Zn1	Zn	-0.250704	-1.135321	-0.420079
Zn2	Zn	-0.355983	-1.135226	-0.295884
Zn3	Zn	-0.250719	-1.011133	-0.295884
Zn4	Zn	-0.355926	-1.011090	-0.420013
O5	O	-0.303333	-1.073193	-0.357965
O6	O	-0.264687	-1.239233	-0.403633
O7	O	-0.342050	-1.118743	-0.191959
O8	O	-0.162628	-1.027665	-0.312386
O9	O	-0.342035	-1.239163	-0.312387
O10	O	-0.162617	-1.118905	-0.403632
O11	O	-0.264713	-1.027573	-0.191959
O12	O	-0.264658	-0.907203	-0.312322
O13	O	-0.341938	-1.027591	-0.523946
O14	O	-0.341953	-0.907171	-0.403519
O15	O	-0.264632	-1.118863	-0.523995
O16	O	-0.444065	-1.118702	-0.312322
O17	O	-0.444023	-1.027499	-0.403519
C18	C	-0.466885	-1.073106	-0.357930
C19	C	-0.536853	-1.073137	-0.357939
C20	C	-0.303301	-0.880241	-0.357914
C21	C	-0.303303	-0.797695	-0.357909
C22	C	-1.036312	-1.120860	-0.310599
C23	C	-0.970569	-1.120832	-0.310581
C24	C	-0.937692	-1.073297	-0.358017
C25	C	-0.970563	-1.025774	-0.405461
C26	C	-1.036305	-1.025798	-0.405472
N27	N	-0.834434	-1.067522	-0.423001
N28	N	-0.771983	-1.067503	-0.422988
C29	C	-0.739618	-1.073220	-0.357986
N30	N	-0.772063	-1.078970	-0.292995
N31	N	-0.834520	-1.078993	-0.293008
C32	C	-0.866407	-1.073265	-0.358010
C33	C	-0.635469	-1.120706	-0.310522
C34	C	-0.569725	-1.120672	-0.310504
C35	C	-0.569721	-1.025618	-0.405390
C36	C	-0.635463	-1.025648	-0.405402
C37	C	-0.668333	-1.073196	-0.357969
C38	C	-0.261212	-0.598240	-0.308420
C39	C	-0.318628	-0.548820	-0.290138
C40	C	-0.303316	-0.646564	-0.357935
C41	C	-0.245914	-0.548902	-0.376207
C42	C	-0.303323	-0.500579	-0.357958
C43	C	-0.360761	-0.598232	-0.339618
C44	C	-0.288008	-0.598319	-0.425718
C45	C	-0.345463	-0.548921	-0.407462
C46	C	-0.303311	-0.730663	-0.357919
C47	C	-0.303334	-0.416483	-0.357973
C48	C	-0.139143	-1.073300	-0.358017
C49	C	-0.069175	-1.073346	-0.358039
C50	C	-0.303277	-1.073233	-0.551671
C51	C	-0.303253	-1.073250	-0.634217
C52	C	-0.303355	-0.266898	-0.358004
C53	C	-0.303336	-0.349444	-0.357986
C54	C	-0.261171	-1.122930	-0.883069
C55	C	-0.318611	-1.141053	-0.833655
C56	C	-0.303213	-1.073298	-0.931337
C57	C	-0.245796	-1.055187	-0.833670
C58	C	-0.303230	-1.073276	-0.785352
C59	C	-0.360683	-1.091456	-0.883010
C60	C	-0.287829	-1.005558	-0.883029
C61	C	-0.345309	-1.023655	-0.833637
C62	C	-0.303202	-1.073312	-1.015435
C63	C	-0.303246	-1.073262	-0.701255
C64	C	-0.303344	-1.073195	-0.165013
C65	C	-0.303190	-1.073322	-0.082468
H66	H	-1.063070	-1.159575	-0.271973
N67	N	-0.936984	-0.977231	-0.453928
N68	N	-0.944281	-0.982118	-0.522463
H69	H	-0.920565	-0.947832	-0.556694
H70	H	-0.197373	-0.527195	-0.391626
H71	H	-0.331633	-1.198330	-0.811964
H72	H	-0.542953	-0.986912	-0.444010
H73	H	-0.225655	-1.164944	-0.904772
N74	N	-0.937000	-1.169370	-0.262112
N75	N	-0.966356	-1.211815	-0.219764
H76	H	-0.942651	-1.246097	-0.185533
H77	H	-0.409257	-1.106848	-0.904593
N78	N	-0.389974	-0.970992	-0.806588
N79	N	-0.446793	-0.977757	-0.822543
H80	H	-0.478340	-0.940566	-0.803439
N81	N	-0.271466	-0.933725	-0.910254
N82	N	-0.219342	-0.906102	-0.894478
H83	H	-0.207778	-0.855370	-0.913707
H84	H	-0.225648	-0.619894	-0.266505
H85	H	-0.197233	-1.039878	-0.811993
H86	H	-1.063062	-0.987107	-0.444106
N87	N	-0.669040	-1.169268	-0.262061
N88	N	-0.639686	-1.211680	-0.219695
H89	H	-0.663394	-1.245975	-0.185465
H90	H	-0.662221	-0.986959	-0.444036
N91	N	-0.536164	-1.169208	-0.262030
N92	N	-0.565523	-1.211653	-0.219685
H93	H	-0.541820	-1.245932	-0.185449
H94	H	-0.331582	-0.527079	-0.232825
H95	H	-0.409322	-0.619810	-0.324109
H96	H	-0.381113	-0.527403	-0.449345
N97	N	-0.271731	-0.625608	-0.497596
N98	N	-0.219639	-0.609847	-0.525364
H99	H	-0.208137	-0.629121	-0.576129
