data_functionalizedCrystal
_audit_creation_method	'MofGen! by Chris Wilmer'
_symmetry_space_group_name_H-M	'P1'
_symmetry_Int_Tables_number	1
_symmetry_cell_setting	triclinic
loop_
_symmetry_equiv_pos_as_xyz
  x,y,z
_cell_length_a	17.699083
_cell_length_b	19.188930
_cell_length_c	16.776229
_cell_angle_alpha	89.988225
_cell_angle_beta	89.998886
_cell_angle_gamma	83.213899
loop_
_atom_site_label
_atom_site_type_symbol
_atom_site_fract_x
_atom_site_fract_y
_atom_site_fract_z
O1	O	1.003962	0.088294	-0.066185
O2	O	1.503962	0.588294	0.433815
O3	O	0.783569	0.099782	-0.066213
O4	O	1.283569	0.599782	0.433787
O5	O	0.900126	-0.007611	-0.066183
O6	O	1.400126	0.492389	0.433817
O7	O	0.887405	0.195686	-0.066215
O8	O	1.387405	0.695686	0.433785
O9	O	0.900110	-0.007617	0.066394
O10	O	1.400110	0.492383	0.566394
O11	O	0.783553	0.099775	0.066364
O12	O	1.283553	0.599775	0.566364
O13	O	1.003947	0.088288	0.066391
O14	O	1.503947	0.588288	0.566391
Zn15	Zn	0.893748	0.094030	0.087427
Zn16	Zn	1.393748	0.594030	0.587427
Zn17	Zn	0.893768	0.094039	-0.087249
Zn18	Zn	1.393768	0.594039	0.412751
O19	O	0.887390	0.195680	0.066361
O20	O	1.387390	0.695680	0.566361
C21	C	0.755365	0.099367	0.000072
C22	C	1.255365	0.599367	0.500072
C23	C	0.671348	0.098132	0.000062
C24	C	1.171348	0.598132	0.500062
C25	C	0.899706	-0.033625	0.000108
C26	C	1.399706	0.466375	0.500108
C27	C	0.898469	-0.111131	0.000114
C28	C	1.398469	0.388869	0.500114
C29	C	0.622644	0.161169	0.000053
C30	C	1.122644	0.661169	0.500053
C31	C	0.543702	0.160004	0.000063
C32	C	1.043702	0.660004	0.500063
C33	C	0.513466	0.095802	0.000078
C34	C	1.013466	0.595802	0.500078
C35	C	0.562176	0.032761	0.000090
C36	C	1.062176	0.532761	0.500090
C37	C	0.641117	0.033926	0.000085
C38	C	1.141117	0.533926	0.500085
C39	C	0.243819	0.028060	0.000111
C40	C	0.743819	0.528060	0.500111
C41	C	0.164873	0.026900	0.000113
C42	C	0.664873	0.526900	0.500113
C43	C	0.146405	0.154139	0.000088
C44	C	0.646405	0.654139	0.500088
C45	C	0.225345	0.155304	0.000084
C46	C	0.725345	0.655304	0.500084
C47	C	0.274049	0.092263	0.000100
C48	C	0.774049	0.592263	0.500100
C49	C	0.359646	0.093526	0.000090
C50	C	0.859646	0.593526	0.500090
C51	C	0.427870	0.094538	0.000082
C52	C	0.927870	0.594538	0.500082
C53	C	0.966861	-0.155978	0.000127
C54	C	1.466861	0.344022	0.500127
C55	C	0.965699	-0.228804	0.000114
C56	C	1.465699	0.271196	0.500114
C57	C	0.896142	-0.256778	0.000105
C58	C	1.396142	0.243222	0.500105
C59	C	0.827741	-0.211921	0.000088
C60	C	1.327741	0.288079	0.500088
C61	C	0.828905	-0.139098	0.000093
C62	C	1.328905	0.360902	0.500093
N63	N	0.842969	-0.364845	0.045216
N64	N	1.342969	0.135155	0.545216
N65	N	0.841868	-0.434025	0.045213
N66	N	1.341868	0.065975	0.545213
C67	C	0.892632	-0.476191	0.000088
C68	C	1.392632	0.023809	0.500088
N69	N	0.944550	-0.446565	-0.045024
N70	N	1.444550	0.053435	0.454976
N71	N	0.945653	-0.377379	-0.045018
N72	N	1.445653	0.122621	0.454982
C73	C	0.894873	-0.335742	0.000099
C74	C	1.394873	0.164258	0.500099
C75	C	0.959769	-0.600004	0.000085
C76	C	1.459769	-0.100004	0.500085
C77	C	0.958604	-0.672830	0.000067
C78	C	1.458604	-0.172830	0.500067
C79	C	0.820644	-0.655946	0.000049
C80	C	1.320644	-0.155946	0.500049
C81	C	0.821811	-0.583121	0.000059
C82	C	1.321811	-0.083121	0.500059
C83	C	0.891375	-0.555155	0.000081
C84	C	1.391375	-0.055155	0.500081
C85	C	1.032151	0.088703	0.000104
C86	C	1.532151	0.588703	0.500104
C87	C	1.116167	0.089938	0.000109
C88	C	1.616167	0.589938	0.500109
C89	C	0.887810	0.221695	0.000069
C90	C	1.387810	0.721695	0.500069
C91	C	0.889046	0.299201	0.000057
C92	C	1.389046	0.799201	0.500057
N93	N	0.893739	0.094024	0.206638
N94	N	1.393739	0.594024	0.706638
N95	N	0.893782	0.094040	-0.206460
N96	N	1.393782	0.594040	0.293540
C97	C	0.945366	0.046490	0.248368
C98	C	1.445366	0.546490	0.748368
C99	C	0.945370	0.046490	0.331821
C100	C	1.445370	0.546490	0.831821
C101	C	0.893751	0.094027	0.373541
C102	C	1.393751	0.594027	0.873541
C103	C	0.842118	0.141563	0.331805
C104	C	1.342118	0.641563	0.831805
C105	C	0.842111	0.141559	0.248354
C106	C	1.342111	0.641559	0.748354
C107	C	0.842146	0.141576	0.668352
C108	C	1.342146	0.641576	1.168352
C109	C	0.842158	0.141578	0.751808
C110	C	1.342158	0.641578	1.251808
C111	C	0.945405	0.046507	0.751818
C112	C	1.445405	0.546507	1.251818
C113	C	0.945398	0.046503	0.668368
C114	C	1.445398	0.546503	1.168368
C115	C	0.893763	0.094037	0.626639
C116	C	1.393763	0.594037	1.126639
C117	C	0.893758	0.094036	0.536150
C118	C	1.393758	0.594036	1.036150
C119	C	0.893759	0.094031	0.464028
C120	C	1.393759	0.594031	0.964028
H121	H	0.647256	0.213450	0.000040
H122	H	1.147256	0.713450	0.500040
H123	H	0.987447	0.007800	0.785803
H124	H	1.487447	0.507800	1.285803
C125	C	0.744130	-0.686706	0.000036
C126	C	1.244130	-0.186706	0.500036
H127	H	0.703564	-0.649562	0.000027
H128	H	1.203564	-0.149562	0.500027
H129	H	0.740801	-0.714776	0.046264
H130	H	1.240801	-0.214776	0.546264
H131	H	0.740816	-0.714750	-0.046207
H132	H	1.240816	-0.214750	0.453793
H133	H	1.021394	-0.265325	0.000121
H134	H	1.521394	0.234675	0.500121
H135	H	0.987404	0.007783	0.214405
H136	H	1.487404	0.507783	0.714405
C137	C	0.751230	-0.242690	0.000081
C138	C	1.251230	0.257310	0.500081
H139	H	0.760332	-0.292485	0.000088
H140	H	1.260332	0.207515	0.500088
H141	H	0.723084	-0.227279	-0.046155
H142	H	1.223084	0.272721	0.453845
H143	H	0.723076	-0.227295	0.046316
H144	H	1.223076	0.272705	0.546316
C145	C	0.490131	0.229345	0.000050
C146	C	0.990131	0.729345	0.500050
H147	H	0.519445	0.267748	0.000030
H148	H	1.019445	0.767748	0.500030
H149	H	0.458955	0.231537	0.046284
H150	H	0.958955	0.731537	0.546284
H151	H	0.458951	0.231535	-0.046186
H152	H	0.958951	0.731535	0.453814
C153	C	0.753671	-0.089763	0.000087
C154	C	1.253671	0.410237	0.500087
H155	H	0.712077	-0.116851	0.000083
H156	H	1.212077	0.383149	0.500083
H157	H	0.751263	-0.060990	-0.046141
H158	H	1.251263	0.439010	0.453859
H159	H	0.751254	-0.061019	0.046330
H160	H	1.251254	0.438981	0.546330
C161	C	1.036285	-0.569237	0.000100
C162	C	1.536285	-0.069237	0.500100
H163	H	1.076851	-0.606380	0.000094
H164	H	1.576851	-0.106380	0.500094
H165	H	1.039602	-0.541192	0.046336
H166	H	1.539602	-0.041192	0.546336
H167	H	1.039610	-0.541168	-0.046134
H168	H	1.539610	-0.041168	0.453866
H169	H	1.014299	-0.709345	0.000073
H170	H	1.514299	-0.209345	0.500073
C171	C	0.785360	0.193858	0.797700
C172	C	1.285360	0.693858	1.297700
H173	H	0.754599	0.222160	0.760896
H174	H	1.254599	0.722160	1.260896
H175	H	0.812478	0.222898	0.830247
H176	H	1.312478	0.722898	1.330247
H177	H	0.753951	0.168761	0.830260
H178	H	1.253951	0.668761	1.330260
H179	H	0.249959	0.207584	0.000068
H180	H	0.749959	0.707584	0.500068
H181	H	0.766119	-0.546605	0.000054
H182	H	1.266119	-0.046605	0.500054
C183	C	1.002167	-0.005791	0.377721
C184	C	1.502167	0.494209	0.877721
H185	H	1.032917	-0.034095	0.340922
H186	H	1.532917	0.465905	0.840922
H187	H	0.975052	-0.034828	0.410289
H188	H	1.475052	0.465172	0.910289
H189	H	1.033588	0.019301	0.410261
H190	H	1.533588	0.519301	0.910261
H191	H	0.987434	0.007797	0.634402
H192	H	1.487434	0.507797	1.134402
C193	C	0.092833	0.223486	0.000076
C194	C	0.592833	0.723486	0.500076
H195	H	0.122148	0.261888	0.000056
H196	H	0.622148	0.761888	0.500056
H197	H	0.061655	0.225681	0.046308
H198	H	0.561655	0.725681	0.546308
H199	H	0.061655	0.225675	-0.046162
H200	H	0.561655	0.725675	0.453838
H201	H	0.140258	-0.025384	0.000126
H202	H	0.640258	0.474616	0.500126
C203	C	0.785356	0.193867	0.622460
C204	C	1.285356	0.693867	1.122460
H205	H	0.754623	0.222182	0.659262
H206	H	1.254623	0.722182	1.159262
H207	H	0.753930	0.168789	0.589917
H208	H	1.253930	0.668789	1.089917
H209	H	0.812485	0.222901	0.589896
H210	H	1.312485	0.722901	1.089896
H211	H	0.283465	-0.023272	0.000125
H212	H	0.783465	0.476728	0.500125
H213	H	0.800085	0.180266	0.365778
H214	H	1.300085	0.680266	0.865778
H215	H	0.537552	-0.019514	0.000113
H216	H	1.037552	0.480486	0.500113
C217	C	0.694694	-0.035413	0.000095
C218	C	1.194694	0.464587	0.500095
H219	H	0.746038	-0.025524	0.000099
H220	H	1.246038	0.474476	0.500099
H221	H	0.685553	-0.061745	-0.046130
H222	H	1.185553	0.438255	0.453870
H223	H	0.685552	-0.061743	0.046340
H224	H	1.185552	0.438257	0.546340
C225	C	1.043379	-0.125219	0.000136
C226	C	1.543379	0.374781	0.500136
H227	H	1.083944	-0.162363	0.000134
H228	H	1.583944	0.337637	0.500134
H229	H	1.046699	-0.097168	0.046368
H230	H	1.546699	0.402832	0.546368
H231	H	1.046703	-0.097156	-0.046103
H232	H	1.546703	0.402844	0.453897
H233	H	0.800070	0.180265	0.214378
H234	H	1.300070	0.680265	0.714378
