data_functionalizedCrystal
_audit_creation_method	'MofGen! by Chris Wilmer'
_symmetry_space_group_name_H-M	'P1'
_symmetry_Int_Tables_number	1
_symmetry_cell_setting	triclinic
loop_
_symmetry_equiv_pos_as_xyz
  x,y,z
_cell_length_a	19.805407
_cell_length_b	19.805405
_cell_length_c	19.805399
_cell_angle_alpha	89.972514
_cell_angle_beta	90.017803
_cell_angle_gamma	89.974956
loop_
_atom_site_label
_atom_site_type_symbol
_atom_site_fract_x
_atom_site_fract_y
_atom_site_fract_z
Zn1	Zn	1.034729	0.269527	0.382688
Zn2	Zn	1.534729	0.769527	0.882688
Zn3	Zn	1.034642	0.382716	0.269500
Zn4	Zn	1.534642	0.882716	0.769500
Zn5	Zn	0.921544	0.269541	0.269516
Zn6	Zn	1.421544	0.769541	0.769516
Zn7	Zn	0.921505	0.382674	0.382650
Zn8	Zn	1.421505	0.882674	0.882650
O9	O	0.978105	0.326115	0.326089
O10	O	1.478105	0.826115	0.826089
O11	O	1.129434	0.284554	0.367683
O12	O	1.629434	0.784554	0.867683
O13	O	1.019619	0.367726	0.174786
O14	O	1.519619	0.867726	0.674786
O15	O	0.936611	0.174822	0.284551
O16	O	1.436611	0.674822	0.784551
O17	O	1.129370	0.367713	0.284524
O18	O	1.629370	0.867713	0.784524
O19	O	1.019768	0.174813	0.367698
O20	O	1.519768	0.674813	0.867698
O21	O	0.936526	0.284576	0.174797
O22	O	1.436526	0.784576	0.674797
O23	O	0.826822	0.284536	0.284515
O24	O	1.326822	0.784536	0.784515
O25	O	0.936545	0.367642	0.477372
O26	O	1.436545	0.867642	0.977372
O27	O	0.826794	0.367655	0.367634
O28	O	1.326794	0.867655	0.867634
O29	O	1.019730	0.284514	0.477400
O30	O	1.519730	0.784514	0.977400
O31	O	1.019581	0.477427	0.284487
O32	O	1.519581	0.977427	0.784487
O33	O	0.936460	0.477397	0.367618
O34	O	1.436460	0.977397	0.867618
C35	C	0.802249	0.326093	0.326072
C36	C	1.302249	0.826093	0.826072
C37	C	0.727017	0.326101	0.326081
C38	C	1.227017	0.826101	0.826081
C39	C	0.691707	0.282876	0.369448
C40	C	1.191707	0.782876	0.869448
C41	C	0.621019	0.282880	0.369450
C42	C	1.121019	0.782880	0.869450
C43	C	0.585641	0.326112	0.326089
C44	C	1.085641	0.826112	0.826089
C45	C	0.620956	0.369338	0.282718
C46	C	1.120956	0.869338	0.782718
C47	C	0.691644	0.369330	0.282712
C48	C	1.191644	0.869330	0.782712
C49	C	0.335883	0.369368	0.282739
C50	C	0.835883	0.869368	0.782739
C51	C	0.265191	0.369374	0.282749
C52	C	0.765191	0.869374	0.782749
C53	C	0.265258	0.282918	0.369477
C54	C	0.765258	0.782918	0.869477
C55	C	0.335945	0.282910	0.369471
C56	C	0.835945	0.782910	0.869471
C57	C	0.371254	0.326134	0.326098
C58	C	0.871254	0.826134	0.826098
C59	C	0.447903	0.326128	0.326094
C60	C	0.947903	0.826128	0.826094
C61	C	0.508994	0.326121	0.326096
C62	C	1.008994	0.826121	0.826096
C63	C	0.978025	0.501971	0.326061
C64	C	1.478025	1.001971	0.826061
C65	C	0.978052	0.577203	0.326072
C66	C	1.478052	1.077203	0.826072
C67	C	1.021375	0.612540	0.282833
C68	C	1.521375	1.112540	0.782833
C69	C	1.021402	0.683228	0.282850
C70	C	1.521402	1.183228	0.782850
C71	C	0.978103	0.718578	0.326104
C72	C	1.478103	1.218578	0.826104
C73	C	0.934779	0.683236	0.369349
C74	C	1.434779	1.183236	0.869349
C75	C	0.934755	0.612549	0.369334
C76	C	1.434755	1.112549	0.869334
C77	C	0.934872	0.968309	0.369408
C78	C	1.434872	1.468309	0.869408
C79	C	0.934897	1.039001	0.369417
C80	C	1.434897	1.539001	0.869417
C81	C	1.021518	1.038989	0.282923
C82	C	1.521518	1.538989	0.782923
C83	C	1.021495	0.968302	0.282909
C84	C	1.521495	1.468302	0.782909
C85	C	0.978174	0.932965	0.326156
C86	C	1.478174	1.432965	0.826156
C87	C	0.978146	0.856317	0.326138
C88	C	1.478146	1.356317	0.826138
C89	C	0.978127	0.795225	0.326119
C90	C	1.478127	1.295225	0.826119
C91	C	1.154648	0.326136	0.326106
C92	C	1.654648	0.826136	0.826106
C93	C	1.229880	0.326146	0.326113
C94	C	1.729880	0.826146	0.826113
C95	C	0.978143	0.326072	0.502631
C96	C	1.478143	0.826072	1.002631
C97	C	0.978159	0.326054	0.577863
C98	C	1.478159	0.826054	1.077863
C99	C	0.978198	1.149572	0.326139
C100	C	1.478198	1.649572	0.826139
C101	C	0.978223	1.074340	0.326180
C102	C	1.478223	1.574340	0.826180
C103	C	0.978106	0.326108	0.150233
C104	C	1.478106	0.826108	0.650233
C105	C	0.978221	0.325936	0.075001
C106	C	1.478221	0.825936	0.575001
C107	C	1.021475	0.282767	0.613223
C108	C	1.521475	0.782767	1.113223
C109	C	1.021482	0.282747	0.683912
C110	C	1.521482	0.782747	1.183912
C111	C	0.978176	0.326018	0.719239
C112	C	1.478176	0.826018	1.219239
C113	C	0.934856	0.369308	0.683874
C114	C	1.434856	0.869308	1.183874
C115	C	0.934846	0.369323	0.613187
C116	C	1.434846	0.869323	1.113187
C117	C	0.934894	0.369244	0.968948
C118	C	1.434894	0.869244	1.468948
C119	C	0.934908	0.369227	1.039640
C120	C	1.434908	0.869227	1.539640
C121	C	1.021530	0.282668	1.039672
C122	C	1.521530	0.782668	1.539672
C123	C	1.021520	0.282684	0.968985
C124	C	1.521520	0.782684	1.468985
C125	C	0.978197	0.325970	0.933627
C126	C	1.478197	0.825970	1.433627
C127	C	0.978189	0.325990	0.856978
C128	C	1.478189	0.825990	1.356978
C129	C	0.978187	0.326002	0.795886
C130	C	1.478187	0.826002	1.295886
H131	H	0.592147	0.404535	0.247409
H132	H	1.092147	0.904535	0.747409
H133	H	0.720392	0.404528	0.247398
H134	H	1.220392	0.904528	0.747398
H135	H	0.899628	0.404501	0.940168
H136	H	1.399628	0.904501	1.440168
H137	H	0.899567	0.404565	0.584398
H138	H	1.399567	0.904565	1.084398
H139	H	1.056631	0.583763	0.247607
H140	H	1.556631	1.083763	0.747607
C141	C	0.887098	0.573674	0.416896
C142	C	1.387098	1.073674	0.916896
C143	C	0.810159	0.583452	0.411305
C144	C	1.310159	1.083452	0.911305
C145	C	0.762502	0.544578	0.458870
C146	C	1.262502	1.044578	0.958870
C147	C	0.791785	0.495925	0.512027
C148	C	1.291785	0.995925	1.012027
C149	C	0.868728	0.486144	0.517621
C150	C	1.368728	0.986144	1.017621
C151	C	0.916385	0.525019	0.470055
C152	C	1.416385	1.025019	0.970055
H153	H	0.788478	0.619470	0.371953
H154	H	1.288478	1.119470	0.871953
H155	H	0.705544	0.551818	0.454729
H156	H	1.205544	1.051818	0.954729
H157	H	0.756507	0.467148	0.547238
H158	H	1.256507	0.967148	1.047238
H159	H	0.890409	0.450127	0.556973
H160	H	1.390409	0.950127	1.056973
H161	H	0.973343	0.517778	0.474197
H162	H	1.473343	1.017778	0.974197
C163	C	0.887217	0.929440	0.416972
C164	C	1.387217	1.429440	0.916972
C165	C	0.916498	0.880789	0.470130
C166	C	1.416498	1.380789	0.970130
C167	C	0.868841	0.841915	0.517695
C168	C	1.368841	1.341915	1.017695
C169	C	0.791902	0.851692	0.512101
C170	C	1.291902	1.351692	1.012101
C171	C	0.762616	0.900346	0.458940
C172	C	1.262616	1.400346	0.958940
C173	C	0.810274	0.939220	0.411376
C174	C	1.310274	1.439220	0.911376
H175	H	0.973457	0.873549	0.474273
H176	H	1.473457	1.373549	0.974273
H177	H	0.890521	0.805898	0.557048
H178	H	1.390521	1.305898	1.057048
H179	H	0.756623	0.822915	0.547311
H180	H	1.256623	1.322915	1.047311
H181	H	0.705658	0.907586	0.454798
H182	H	1.205658	1.407586	0.954798
H183	H	0.788594	0.975237	0.372023
H184	H	1.288594	1.475237	0.872023
H185	H	1.056795	1.067768	0.247712
H186	H	1.556795	1.567768	0.747712
C187	C	0.887269	1.077887	0.417004
C188	C	1.387269	1.577887	0.917004
C189	C	0.810323	1.068232	0.411420
C190	C	1.310323	1.568232	0.911420
C191	C	0.762697	1.107119	0.459003
C192	C	1.262697	1.607119	0.959003
C193	C	0.792018	1.155660	0.512171
C194	C	1.292018	1.655660	1.012171
C195	C	0.868968	1.165318	0.517757
C196	C	1.368968	1.665318	1.017757
C197	C	0.916593	1.126431	0.470174
C198	C	1.416593	1.626431	0.970174
H199	H	0.788614	1.032297	0.372060
H200	H	1.288614	1.532297	0.872060
H201	H	0.705734	1.099969	0.454867
H202	H	1.205734	1.599969	0.954867
H203	H	0.756762	1.184446	0.547395
H204	H	1.256762	1.684446	1.047395
H205	H	0.890676	1.201253	0.557117
H206	H	1.390676	1.701253	1.057117
H207	H	0.973557	1.133581	0.474310
H208	H	1.473557	1.633581	0.974310
H209	H	0.899641	0.404465	1.068402
H210	H	1.399641	0.904465	1.568402
C211	C	1.069113	0.235166	0.574366
C212	C	1.569113	0.735166	1.074366
C213	C	1.063631	0.158218	0.584103
C214	C	1.563631	0.658218	1.084103
C215	C	1.111268	0.110615	0.545248
C216	C	1.611268	0.610615	1.045248
C217	C	1.164387	0.139959	0.496655
C218	C	1.664387	0.639959	0.996655
C219	C	1.169871	0.216911	0.486916
C220	C	1.669871	0.716911	0.986916
C221	C	1.122234	0.264515	0.525771
C222	C	1.622234	0.764515	1.025771
H223	H	1.024308	0.136492	0.620076
H224	H	1.524308	0.636492	1.120076
H225	H	1.107209	0.053650	0.552458
H226	H	1.607209	0.553650	1.052458
H227	H	1.199651	0.104720	0.467892
H228	H	1.699651	0.604720	0.967892
H229	H	1.209194	0.238637	0.450943
H230	H	1.709194	0.738637	0.950943
H231	H	1.126293	0.321480	0.518561
H232	H	1.626293	0.821480	1.018561
C233	C	1.069126	0.929418	0.235330
C234	C	1.569126	1.429418	0.735330
C235	C	1.116785	0.968288	0.187769
C236	C	1.616785	1.468288	0.687769
C237	C	1.164420	0.929405	0.140192
C238	C	1.664420	1.429405	0.640192
C239	C	1.164395	0.851652	0.140176
C240	C	1.664395	1.351652	0.640176
C241	C	1.116735	0.812777	0.187738
C242	C	1.616735	1.312777	0.687738
C243	C	1.069100	0.851660	0.235316
C244	C	1.569100	1.351660	0.735316
H245	H	1.116805	1.025849	0.187780
H246	H	1.616805	1.525849	0.687780
H247	H	1.199701	0.958183	0.104983
H248	H	1.699701	1.458183	0.604983
H249	H	1.199657	0.822868	0.104956
H250	H	1.699657	1.322868	0.604956
H251	H	1.116715	0.755216	0.187728
H252	H	1.616715	1.255216	0.687728
H253	H	1.033819	0.822882	0.270525
H254	H	1.533819	1.322882	0.770525
H255	H	0.720506	0.247674	0.404759
H256	H	1.220506	0.747674	0.904759
H257	H	0.899527	0.712023	0.404570
H258	H	1.399527	1.212023	0.904570
H259	H	0.364746	0.247709	0.404783
H260	H	0.864746	0.747709	0.904783
C261	C	1.069128	0.235128	0.722807
C262	C	1.569128	0.735128	1.222807
C263	C	1.116766	0.187533	0.683950
C264	C	1.616766	0.687533	1.183950
C265	C	1.164412	0.139909	0.722845
C266	C	1.664412	0.639909	1.222845
C267	C	1.164420	0.139882	0.800598
C268	C	1.664420	0.639882	1.300598
C269	C	1.116781	0.187479	0.839460
C270	C	1.616781	0.687479	1.339460
C271	C	1.069135	0.235102	0.800565
C272	C	1.569135	0.735102	1.300565
H273	H	1.116761	0.187551	0.626388
H274	H	1.616761	0.687551	1.126388
H275	H	1.199677	0.104674	0.694076
H276	H	1.699677	0.604674	1.194076
H277	H	1.199691	0.104628	0.829391
H278	H	1.699691	0.604628	1.329391
H279	H	1.116786	0.187460	0.897022
H280	H	1.616786	0.687460	1.397022
H281	H	1.033870	0.270337	0.829334
H282	H	1.533870	0.770337	1.329334
C283	C	1.069181	0.235045	1.078568
C284	C	1.569181	0.735045	1.578568
C285	C	1.069194	0.235019	1.156321
C286	C	1.569194	0.735019	1.656321
C287	C	1.116845	0.187399	1.195215
C288	C	1.616845	0.687399	1.695215
C289	C	1.164483	0.139805	1.156355
C290	C	1.664483	0.639805	1.656355
C291	C	1.164472	0.139830	1.078598
C292	C	1.664472	0.639830	1.578598
C293	C	1.116821	0.187449	1.039704
C294	C	1.616821	0.687449	1.539704
H295	H	1.033928	0.270252	1.185091
H296	H	1.533928	0.770252	1.685091
H297	H	1.116854	0.187381	1.252776
H298	H	1.616854	0.687381	1.752776
H299	H	1.199758	0.104554	1.185146
H300	H	1.699758	0.604554	1.685146
H301	H	1.199738	0.104596	1.049827
H302	H	1.699738	0.604596	1.549827
H303	H	1.116812	0.187467	0.982143
H304	H	1.616812	0.687467	1.482143
H305	H	1.056679	0.711997	0.247639
H306	H	1.556679	1.211997	0.747639
C307	C	0.887218	0.416908	0.722732
C308	C	1.387218	0.916908	1.222732
C309	C	0.887229	0.416896	0.800486
C310	C	1.387229	0.916896	1.300486
C311	C	0.839592	0.464499	0.839342
C312	C	1.339592	0.964499	1.339342
C313	C	0.791944	0.512113	0.800445
C314	C	1.291944	1.012113	1.300445
C315	C	0.791931	0.512127	0.722687
C316	C	1.291931	1.012127	1.222687
C317	C	0.839568	0.464524	0.683831
C318	C	1.339568	0.964524	1.183831
H319	H	0.922503	0.381647	0.829283
H320	H	1.422503	0.881647	1.329283
H321	H	0.839602	0.464489	0.896903
H322	H	1.339602	0.964489	1.396903
H323	H	0.756680	0.547352	0.829208
H324	H	1.256680	1.047352	1.329208
H325	H	0.756657	0.547375	0.693890
H326	H	1.256657	1.047375	1.193890
H327	H	0.839558	0.464534	0.626270
H328	H	1.339558	0.964534	1.126270
H329	H	1.056786	0.247450	0.940225
H330	H	1.556786	0.747450	1.440225
H331	H	0.592272	0.247684	0.404765
H332	H	1.092272	0.747684	0.904765
H333	H	0.236501	0.247721	0.404791
H334	H	0.736501	0.747721	0.904791
C335	C	0.226274	0.416928	0.235045
C336	C	0.726274	0.916928	0.735045
C337	C	0.235958	0.411294	0.158108
C338	C	0.735958	0.911294	0.658108
C339	C	0.197041	0.458845	0.110408
C340	C	0.697041	0.958845	0.610408
C341	C	0.148441	0.512031	0.139643
C342	C	0.648441	1.012031	0.639643
C343	C	0.138755	0.517667	0.216584
C344	C	0.638755	1.017667	0.716584
C345	C	0.177672	0.470116	0.264284
C346	C	0.677672	0.970116	0.764284
H347	H	0.271936	0.371920	0.136463
H348	H	0.771936	0.871920	0.636463
H349	H	0.204211	0.454672	0.053451
H350	H	0.704211	0.954672	0.553451
H351	H	0.119632	0.547231	0.104332
H352	H	0.619632	1.047231	0.604332
H353	H	0.102776	0.557041	0.238229
H354	H	0.602776	1.057041	0.738229
H355	H	0.170502	0.474289	0.321241
H356	H	0.670502	0.974289	0.821241
C357	C	0.374717	0.416922	0.235038
C358	C	0.874717	0.916922	0.735038
C359	C	0.335801	0.464482	0.187351
C360	C	0.835801	0.964482	0.687351
C361	C	0.374638	0.512041	0.139651
C362	C	0.874638	1.012041	0.639651
C363	C	0.452391	0.512040	0.139638
C364	C	0.952391	1.012040	0.639638
C365	C	0.491311	0.464479	0.187328
C366	C	0.991311	0.964479	0.687328
C367	C	0.452474	0.416920	0.235028
C368	C	0.952474	0.916920	0.735028
H369	H	0.278239	0.464484	0.187358
H370	H	0.778239	0.964484	0.687358
H371	H	0.345826	0.547249	0.104348
H372	H	0.845826	1.047249	0.604348
H373	H	0.481141	0.547247	0.104328
H374	H	0.981141	1.047247	0.604328
H375	H	0.548873	0.464477	0.187320
H376	H	1.048873	0.964477	0.687320
H377	H	0.481286	0.381712	0.270331
H378	H	0.981286	0.881712	0.770331
