data_functionalizedCrystal
_audit_creation_method	'MofGen! by Chris Wilmer'
_symmetry_space_group_name_H-M	'P1'
_symmetry_Int_Tables_number	1
_symmetry_cell_setting	triclinic
loop_
_symmetry_equiv_pos_as_xyz
  x,y,z
_cell_length_a	17.038272
_cell_length_b	13.101039
_cell_length_c	14.044220
_cell_angle_alpha	93.667477
_cell_angle_beta	92.150217
_cell_angle_gamma	86.404528
loop_
_atom_site_label
_atom_site_type_symbol
_atom_site_fract_x
_atom_site_fract_y
_atom_site_fract_z
O1	O	1.055801	-0.085089	0.202095
O2	O	0.827941	-0.085119	0.198806
O3	O	0.938450	-0.085095	0.062191
O4	O	0.945292	-0.085114	0.338710
O5	O	0.930523	0.085333	0.072010
O6	O	0.820014	0.085309	0.208625
O7	O	1.047873	0.085339	0.211914
Zn8	Zn	0.932685	0.112383	0.211829
Zn9	Zn	0.943130	-0.112163	0.198891
O10	O	0.937364	0.085314	0.348530
C11	C	0.794640	0.000091	0.200726
C12	C	0.707224	0.000080	0.191806
N13	N	0.925562	0.265630	0.220658
N14	N	0.950258	-0.265410	0.190055
C15	C	0.662839	0.000075	0.273694
C16	C	0.580701	0.000090	0.265309
C17	C	0.542950	0.000102	0.175034
C18	C	0.587341	0.000110	0.093140
C19	C	0.669477	0.000102	0.101527
C20	C	0.295118	0.000131	0.145406
C21	C	0.212976	0.000136	0.137025
C22	C	0.206341	0.000117	0.309195
C23	C	0.288480	0.000104	0.317573
C24	C	0.332863	0.000117	0.235680
C25	C	0.458992	0.000114	0.166461
C26	C	0.416819	0.000113	0.244254
C27	C	1.081174	0.000126	0.209994
C28	C	1.168591	0.000131	0.218913
C29	C	0.931492	0.000119	0.031544
C30	C	0.922561	0.000119	-0.074402
C31	C	0.915872	0.474670	0.232680
C32	C	0.959946	0.525556	0.178037
C33	C	0.954554	0.641873	0.184725
C34	C	0.921263	0.358342	0.225992
C35	C	0.906233	0.000103	-0.268381
C36	C	0.969578	0.000108	-0.320905
C37	C	0.960493	0.000098	-0.428842
C38	C	0.915317	0.000112	-0.160434
C39	C	0.944322	0.000098	0.379176
C40	C	0.953254	0.000091	0.485121
H41	H	0.544566	0.000084	0.331991
C42	C	0.879917	0.507926	0.395915
C43	C	0.859470	0.533774	0.302616
H44	H	0.845094	0.544419	0.439089
H45	H	0.932326	0.525450	0.411406
H46	H	0.876185	0.436379	0.400525
H47	H	0.863208	0.605321	0.298004
H48	H	0.807048	0.516258	0.287120
H49	H	1.001729	0.481763	0.126232
C50	C	0.818813	-0.087513	-0.379056
C51	C	0.823817	0.000097	-0.317103
H52	H	0.767935	-0.087508	-0.409147
H53	H	0.827733	-0.146932	-0.343861
H54	H	0.857373	-0.087504	-0.426186
H55	H	0.785261	0.000085	-0.269968
H56	H	0.814888	0.059532	-0.352300
H57	H	1.030636	0.000047	-0.284815
H58	H	0.319211	0.000082	0.391084
C59	C	0.648022	0.000069	0.443032
C60	C	0.704330	0.000064	0.372928
H61	H	0.673636	0.000071	0.504296
H62	H	0.618883	-0.059357	0.432757
H63	H	0.613365	0.059508	0.439595
H64	H	0.738984	-0.059379	0.376361
H65	H	0.733482	0.059495	0.383207
C66	C	0.077487	0.000130	0.372790
C67	C	0.157552	0.000116	0.399209
H68	H	0.047368	0.000138	0.428366
H69	H	0.068149	-0.059296	0.332632
H70	H	0.062641	0.059568	0.339469
H71	H	0.172399	-0.059327	0.432525
H72	H	0.166895	0.059548	0.439384
H73	H	0.447559	0.000108	0.317756
C74	C	0.197406	-0.087450	-0.017364
C75	C	0.171477	0.000152	0.037789
H76	H	0.171787	-0.087437	-0.078626
H77	H	0.185341	-0.146875	0.013206
H78	H	0.252675	-0.087436	-0.024089
H79	H	0.116208	0.000135	0.044520
H80	H	0.183536	0.059593	0.007212
C81	C	0.395392	-0.087481	0.049903
C82	C	0.343897	0.000132	0.055387
H83	H	0.425510	-0.087477	-0.005672
H84	H	0.365968	-0.146899	0.046789
H85	H	0.429630	-0.087473	0.104867
H86	H	0.309655	0.000120	0.000426
H87	H	0.373323	0.059565	0.058493
C88	C	0.602155	0.000129	-0.076198
C89	C	0.545848	0.000123	-0.006093
H90	H	0.576539	0.000140	-0.137460
H91	H	0.636810	-0.059301	-0.072770
H92	H	0.631295	0.059564	-0.065914
H93	H	0.516712	-0.059317	-0.016372
H94	H	0.511180	0.059558	-0.009524
C95	C	0.798334	0.000105	0.037938
C96	C	0.718270	0.000107	0.011514
H97	H	0.828454	0.000118	-0.017635
H98	H	0.813185	-0.059328	0.071248
H99	H	0.807664	0.059536	0.078110
H100	H	0.708940	-0.059328	-0.028653
H101	H	0.703414	0.059547	-0.021811
H102	H	0.428245	0.000153	0.092960
