data_functionalizedCrystal
_audit_creation_method	'MofGen! by Chris Wilmer'
_symmetry_space_group_name_H-M	'P1'
_symmetry_Int_Tables_number	1
_symmetry_cell_setting	triclinic
loop_
_symmetry_equiv_pos_as_xyz
  x,y,z
_cell_length_a	6.817900
_cell_length_b	10.773890
_cell_length_c	11.102193
_cell_angle_alpha	95.424971
_cell_angle_beta	108.604059
_cell_angle_gamma	96.645716
loop_
_atom_site_label
_atom_site_type_symbol
_atom_site_fract_x
_atom_site_fract_y
_atom_site_fract_z
V1	V	-4.050643	-0.172603	-0.394187
O2	O	-4.073469	0.008285	-0.388814
O3	O	-3.967597	-0.342235	-0.389442
O4	O	-4.028352	-0.169952	-0.567040
O5	O	-4.012294	-0.165190	-0.209986
V6	V	-4.535377	-0.150967	-0.372404
O7	O	-4.309245	-0.220066	-0.441970
O8	O	-4.726973	-0.103504	-0.324621
O9	O	-4.395217	0.018665	-0.377149
O10	O	-4.629948	-0.331855	-0.377777
O11	O	-4.691124	-0.158380	-0.556605
O12	O	-4.334462	-0.153618	-0.199551
C13	C	-3.803325	-0.383587	-0.382695
C14	C	-3.816886	-0.522263	-0.379968
C15	C	-3.880823	-0.163822	-0.609238
C16	C	-3.943652	-0.162777	-0.750533
C17	C	-3.995677	-0.590126	-0.384707
C18	C	-4.009697	-0.733455	-0.381888
C19	C	-3.983403	-0.391260	-0.784119
C20	C	-4.032788	-0.505006	-0.867291
C21	C	-4.091823	-0.504017	-1.000048
C22	C	-4.101478	-0.389270	-1.049636
C23	C	-4.052092	-0.275525	-0.966464
C24	C	-3.993052	-0.276526	-0.833705
C25	C	-4.012357	-0.047045	-0.932879
C26	C	-3.953307	-0.048031	-0.800120
C27	C	-4.022011	0.067701	-0.982467
C28	C	-3.972611	0.181450	-0.899294
C29	C	-3.913571	0.180456	-0.766529
C30	C	-3.903921	0.065715	-0.716949
C31	C	-4.222829	0.060010	-0.383893
C32	C	-4.188508	0.198685	-0.386628
C33	C	-4.145331	-0.159752	-0.157347
C34	C	-4.061742	-0.160790	-0.016051
H35	H	-4.138370	-0.542116	-0.390858
H36	H	-3.980491	0.274867	-0.939681
H37	H	-4.331215	-0.753312	-0.392778
C38	C	-4.146159	-0.629132	-1.091540
H39	H	-4.131950	-0.697613	-1.042999
H40	H	-4.286329	-0.637476	-1.148118
H41	H	-4.053683	-0.629502	-1.139933
H42	H	-3.873372	0.273082	-0.698817
H43	H	-3.674199	-0.570274	-0.373831
H44	H	-3.855838	0.064895	-0.608852
C45	C	-3.918475	-0.392354	-0.638091
H46	H	-3.919814	-0.476979	-0.620470
H47	H	-3.781471	-0.346392	-0.597756
H48	H	-4.014128	-0.354383	-0.605959
H49	H	-3.866997	-0.781461	-0.375751
C50	C	-4.022155	-0.631217	-0.812742
H51	H	-3.979904	-0.615520	-0.721764
H52	H	-4.156305	-0.681990	-0.845489
H53	H	-3.923659	-0.673995	-0.837308
C54	C	-4.086913	0.068799	-1.128494
H55	H	-4.085592	0.153425	-1.146111
H56	H	-3.991271	0.030825	-1.160620
H57	H	-4.223932	0.022842	-1.168837
C58	C	-4.166430	-0.388184	-1.195666
H59	H	-4.194454	-0.472360	-1.238098
H60	H	-4.288758	-0.349753	-1.223586
H61	H	-4.056115	-0.341782	-1.215407
