data_functionalizedCrystal
_audit_creation_method	'MofGen! by Chris Wilmer'
_symmetry_space_group_name_H-M	'P1'
_symmetry_Int_Tables_number	1
_symmetry_cell_setting	triclinic
loop_
_symmetry_equiv_pos_as_xyz
  x,y,z
_cell_length_a	13.897449
_cell_length_b	13.897447
_cell_length_c	12.827893
_cell_angle_alpha	90.008482
_cell_angle_beta	90.007275
_cell_angle_gamma	90.020357
loop_
_atom_site_label
_atom_site_type_symbol
_atom_site_fract_x
_atom_site_fract_y
_atom_site_fract_z
Zn1	Zn	1.474537	-0.384161	0.590937
Zn2	Zn	1.974537	0.115839	1.090937
Zn3	Zn	1.474471	-0.545424	0.416193
Zn4	Zn	1.974471	-0.045424	0.916193
Zn5	Zn	1.313271	-0.384147	0.416200
Zn6	Zn	1.813271	0.115853	0.916200
Zn7	Zn	1.313202	-0.545418	0.590883
Zn8	Zn	1.813202	-0.045418	1.090883
O9	O	1.393870	-0.464788	0.503553
O10	O	1.893870	0.035212	1.003553
O11	O	1.609510	-0.405562	0.567776
O12	O	2.109510	0.094438	1.067776
O13	O	1.453089	-0.524027	0.269958
O14	O	1.953089	-0.024027	0.769958
O15	O	1.334720	-0.249168	0.439404
O16	O	1.834720	0.250832	0.939404
O17	O	1.609461	-0.524041	0.439393
O18	O	2.109461	-0.024041	0.939393
O19	O	1.453201	-0.249178	0.567783
O20	O	1.953201	0.250822	1.067783
O21	O	1.334656	-0.405538	0.269963
O22	O	1.834656	0.094462	0.769963
O23	O	1.178281	-0.405532	0.439352
O24	O	1.678281	0.094468	0.939352
O25	O	1.334603	-0.524031	0.737126
O26	O	1.834603	-0.024031	1.237126
O27	O	1.178230	-0.524017	0.567691
O28	O	1.678230	-0.024017	1.067691
O29	O	1.453134	-0.405556	0.737165
O30	O	1.953134	0.094444	1.237165
O31	O	1.453022	-0.680405	0.439341
O32	O	1.953022	-0.180405	0.939341
O33	O	1.334539	-0.680401	0.567684
O34	O	1.834539	-0.180401	1.067684
C35	C	1.143256	-0.464773	0.503517
C36	C	1.643256	0.035227	1.003517
C37	C	1.036042	-0.464790	0.503526
C38	C	1.536042	0.035210	1.003526
C39	C	1.393792	-0.715402	0.503529
C40	C	1.893792	-0.215402	1.003529
C41	C	1.393847	-0.822616	0.503553
C42	C	1.893847	-0.322616	1.003553
C43	C	0.948972	-0.464793	0.503543
C44	C	1.448972	0.035207	1.003543
C45	C	0.839740	-0.464800	0.503575
C46	C	1.339740	0.035200	1.003575
C47	C	1.393893	-0.909686	0.503577
C48	C	1.893893	-0.409686	1.003577
C49	C	1.393961	-1.018918	0.503604
C50	C	1.893961	-0.518918	1.003604
C51	C	1.645463	-0.464803	0.503590
C52	C	2.145463	0.035197	1.003590
C53	C	1.752677	-0.464810	0.503606
C54	C	2.252677	0.035190	1.003606
C55	C	1.393868	-0.464794	0.776123
C56	C	1.893868	0.035206	1.276123
C57	C	1.393867	-0.464797	0.892276
C58	C	1.893867	0.035203	1.392276
C59	C	1.393975	-0.213195	0.503600
C60	C	1.893975	0.286805	1.003600
C61	C	1.394020	-0.105981	0.503620
C62	C	1.894020	0.394019	1.003620
C63	C	1.335220	-0.523418	1.064086
C64	C	1.835220	-0.023418	1.564086
C65	C	1.335220	-0.523417	0.944035
C66	C	1.835220	-0.023417	1.444035
C67	C	1.393866	-0.464803	1.232043
C68	C	1.893866	0.035197	1.732043
C69	C	1.393867	-0.464800	1.115890
C70	C	1.893867	0.035200	1.615890
H71	H	1.285014	-0.573605	0.899485
H72	H	1.785014	-0.073605	1.399485
H73	H	1.444082	-0.414613	0.936820
H74	H	1.944082	0.085387	1.436820
H75	H	1.285008	-0.573601	1.108611
H76	H	1.785008	-0.073601	1.608611
H77	H	1.444071	-0.414610	1.071365
H78	H	1.944071	0.085390	1.571365
