data_functionalizedCrystal
_audit_creation_method	'MofGen! by Chris Wilmer'
_symmetry_space_group_name_H-M	'P1'
_symmetry_Int_Tables_number	1
_symmetry_cell_setting	triclinic
loop_
_symmetry_equiv_pos_as_xyz
  x,y,z
_cell_length_a	15.944493
_cell_length_b	14.421503
_cell_length_c	15.944551
_cell_angle_alpha	89.996660
_cell_angle_beta	83.486891
_cell_angle_gamma	90.007064
loop_
_atom_site_label
_atom_site_type_symbol
_atom_site_fract_x
_atom_site_fract_y
_atom_site_fract_z
O1	O	1.114560	0.077101	0.108089
O2	O	1.364560	0.327101	0.358089
O3	O	1.614560	0.577101	0.608089
O4	O	1.864560	0.827101	0.858089
O5	O	0.870003	0.077106	0.121496
O6	O	1.120003	0.327106	0.371496
O7	O	1.370003	0.577106	0.621496
O8	O	1.620003	0.827106	0.871496
O9	O	0.998960	0.077095	-0.007484
O10	O	1.248960	0.327095	0.242516
O11	O	1.498960	0.577095	0.492516
O12	O	1.748960	0.827095	0.742516
O13	O	0.985603	0.077112	0.237068
O14	O	1.235603	0.327112	0.487068
O15	O	1.485603	0.577112	0.737068
O16	O	1.735603	0.827112	0.987068
O17	O	0.998938	-0.077128	-0.007465
O18	O	1.248938	0.172872	0.242535
O19	O	1.498938	0.422872	0.492535
O20	O	1.748938	0.672872	0.742535
O21	O	0.869982	-0.077117	0.121515
O22	O	1.119982	0.172883	0.371515
O23	O	1.369982	0.422883	0.621515
O24	O	1.619982	0.672883	0.871515
O25	O	1.114538	-0.077122	0.108108
O26	O	1.364538	0.172878	0.358108
O27	O	1.614538	0.422878	0.608108
O28	O	1.864538	0.672878	0.858108
Cu29	Cu	0.992258	-0.091201	0.114813
Cu30	Cu	1.242258	0.158799	0.364813
Cu31	Cu	1.492258	0.408799	0.614813
Cu32	Cu	1.742258	0.658799	0.864813
Cu33	Cu	0.992283	0.091186	0.114790
Cu34	Cu	1.242283	0.341186	0.364790
Cu35	Cu	1.492283	0.591186	0.614790
Cu36	Cu	1.742283	0.841186	0.864790
O37	O	0.985582	-0.077111	0.237087
O38	O	1.235582	0.172889	0.487087
O39	O	1.485582	0.422889	0.737087
O40	O	1.735582	0.672889	0.987087
C41	C	0.838698	-0.000005	0.120957
C42	C	1.088698	0.249995	0.370957
C43	C	1.338698	0.499995	0.620957
C44	C	1.588698	0.749995	0.870957
C45	C	0.745449	-0.000003	0.119314
C46	C	0.995449	0.249997	0.369314
C47	C	1.245449	0.499997	0.619314
C48	C	1.495449	0.749997	0.869314
C49	C	0.509689	0.000002	0.195235
C50	C	0.759689	0.250002	0.445235
C51	C	1.009689	0.500002	0.695235
C52	C	1.259689	0.750002	0.945235
C53	C	0.459120	-0.076045	0.154303
C54	C	0.709120	0.173955	0.404303
C55	C	0.959120	0.423955	0.654303
C56	C	1.209120	0.673955	0.904303
C57	C	0.574728	-0.000005	0.116270
C58	C	0.824728	0.249995	0.366270
C59	C	1.074728	0.499995	0.616270
C60	C	1.324728	0.749995	0.866270
C61	C	0.459146	0.076008	0.154266
C62	C	0.709146	0.326008	0.404266
C63	C	0.959146	0.576008	0.654266
C64	C	1.209146	0.826008	0.904266
C65	C	0.409819	-0.000003	0.113336
C66	C	0.659819	0.249997	0.363336
C67	C	0.909819	0.499997	0.613336
C68	C	1.159819	0.749997	0.863336
C69	C	0.525388	-0.076115	0.075360
C70	C	0.775388	0.173885	0.325360
C71	C	1.025388	0.423885	0.575360
C72	C	1.275388	0.673885	0.825360
C73	C	0.525417	0.076005	0.075334
C74	C	0.775417	0.326005	0.325334
C75	C	1.025417	0.576005	0.575334
C76	C	1.275417	0.826005	0.825334
C77	C	0.474880	-0.000060	0.034345
C78	C	0.724880	0.249940	0.284345
C79	C	0.974880	0.499940	0.534345
C80	C	1.224880	0.749940	0.784345
C81	C	0.669728	-0.000007	0.117963
C82	C	0.919728	0.249993	0.367963
C83	C	1.169728	0.499993	0.617963
C84	C	1.419728	0.749993	0.867963
C85	C	0.314821	-0.000008	0.111637
C86	C	0.564821	0.249992	0.361637
C87	C	0.814821	0.499992	0.611637
C88	C	1.064821	0.749992	0.861637
N89	N	0.992246	-0.219483	0.114828
N90	N	1.242246	0.030517	0.364828
N91	N	1.492246	0.280517	0.614828
N92	N	1.742246	0.530517	0.864828
C93	C	0.932607	-0.469131	0.174442
C94	C	1.182607	-0.219131	0.424442
C95	C	1.432607	0.030869	0.674442
C96	C	1.682607	0.280869	0.924442
C97	C	1.008509	-0.530934	0.190733
C98	C	1.258509	-0.280934	0.440733
C99	C	1.508509	-0.030934	0.690733
C100	C	1.758509	0.219066	0.940733
C101	C	0.992267	-0.408644	0.114808
C102	C	1.242267	-0.158644	0.364808
C103	C	1.492267	0.091356	0.614808
C104	C	1.742267	0.341356	0.864808
C105	C	0.916384	-0.530935	0.098537
C106	C	1.166384	-0.280935	0.348537
C107	C	1.416384	-0.030935	0.598537
C108	C	1.666384	0.219065	0.848537
C109	C	0.992280	-0.591366	0.114791
C110	C	1.242280	-0.341366	0.364791
C111	C	1.492280	-0.091366	0.614791
C112	C	1.742280	0.158634	0.864791
C113	C	1.068207	-0.469086	0.131138
C114	C	1.318207	-0.219086	0.381138
C115	C	1.568207	0.030914	0.631138
C116	C	1.818207	0.280914	0.881138
C117	C	0.976033	-0.469082	0.038908
C118	C	1.226033	-0.219082	0.288908
C119	C	1.476033	0.030918	0.538908
C120	C	1.726033	0.280918	0.788908
C121	C	1.051990	-0.530857	0.055167
C122	C	1.301990	-0.280857	0.305167
C123	C	1.551990	-0.030857	0.555167
C124	C	1.801990	0.219143	0.805167
C125	C	0.992258	-0.303383	0.114821
C126	C	1.242258	-0.053383	0.364821
C127	C	1.492258	0.196617	0.614821
C128	C	1.742258	0.446617	0.864821
C129	C	0.992297	-0.696625	0.114778
C130	C	1.242297	-0.446625	0.364778
C131	C	1.492297	-0.196625	0.614778
C132	C	1.742297	0.053375	0.864778
C133	C	1.145844	-0.000009	0.108646
C134	C	1.395844	0.249991	0.358646
C135	C	1.645844	0.499991	0.608646
C136	C	1.895844	0.749991	0.858646
C137	C	1.239092	-0.000004	0.110289
C138	C	1.489092	0.249996	0.360289
C139	C	1.739092	0.499996	0.610289
C140	C	1.989092	0.749996	0.860289
C141	C	0.998395	-0.000017	-0.038768
C142	C	1.248395	0.249983	0.211232
C143	C	1.498395	0.499983	0.461232
C144	C	1.748395	0.749983	0.711232
C145	C	0.996732	-0.000017	-0.132014
C146	C	1.246732	0.249983	0.117986
C147	C	1.496732	0.499983	0.367986
C148	C	1.746732	0.749983	0.617986
N149	N	0.992302	0.219467	0.114768
N150	N	1.242302	0.469467	0.364768
N151	N	1.492302	0.719467	0.614768
N152	N	1.742302	0.969467	0.864768
C153	C	0.912826	-0.000003	-0.346853
C154	C	1.162826	0.249997	-0.096853
C155	C	1.412826	0.499997	0.153147
C156	C	1.662826	0.749997	0.403147
C157	C	0.951779	-0.076045	-0.407869
C158	C	1.201779	0.173955	-0.157869
C159	C	1.451779	0.423955	0.092131
C160	C	1.701779	0.673955	0.342131
C161	C	0.993725	-0.000010	-0.302739
C162	C	1.243725	0.249990	-0.052739
C163	C	1.493725	0.499990	0.197261
C164	C	1.743725	0.749990	0.447261
C165	C	0.951819	0.076007	-0.407872
C166	C	1.201819	0.326007	-0.157872
C167	C	1.451819	0.576007	0.092128
C168	C	1.701819	0.826007	0.342128
C169	C	0.990814	0.000001	-0.467651
C170	C	1.240814	0.250001	-0.217651
C171	C	1.490814	0.500001	0.032349
C172	C	1.740814	0.750001	0.282349
C173	C	1.032700	-0.076115	-0.362527
C174	C	1.282700	0.173885	-0.112527
C175	C	1.532700	0.423885	0.137473
C176	C	1.782700	0.673885	0.387473
C177	C	1.032729	0.076006	-0.362523
C178	C	1.282729	0.326006	-0.112523
C179	C	1.532729	0.576006	0.137477
C180	C	1.782729	0.826006	0.387477
C181	C	1.071741	-0.000055	-0.423521
C182	C	1.321741	0.249945	-0.173521
C183	C	1.571741	0.499945	0.076479
C184	C	1.821741	0.749945	0.326479
C185	C	0.995399	-0.000017	-0.207737
C186	C	1.245399	0.249983	0.042263
C187	C	1.495399	0.499983	0.292263
C188	C	1.745399	0.749983	0.542263
C189	C	0.989146	0.000002	-0.562652
C190	C	1.239146	0.250002	-0.312652
C191	C	1.489146	0.500002	-0.062652
C192	C	1.739146	0.750002	0.187348
C193	C	0.986147	0.000003	0.268372
C194	C	1.236147	0.250003	0.518372
C195	C	1.486147	0.500003	0.768372
C196	C	1.736147	0.750003	1.018372
C197	C	0.987809	0.000009	0.361617
C198	C	1.237809	0.250009	0.611617
C199	C	1.487809	0.500009	0.861617
C200	C	1.737809	0.750009	1.111617
H201	H	0.459415	-0.000109	-0.033726
H202	H	0.709415	0.249891	0.216274
H203	H	0.959415	0.499891	0.466274
H204	H	1.209415	0.749891	0.716274
H205	H	0.962267	-0.441892	-0.025251
H206	H	1.212267	-0.191892	0.224749
H207	H	1.462267	0.058108	0.474749
H208	H	1.712267	0.308108	0.724749
H209	H	0.525313	-0.000064	0.263254
H210	H	0.775313	0.249936	0.513254
H211	H	1.025313	0.499936	0.763254
H212	H	1.275313	0.749936	1.013254
Br213	Br	0.809419	-0.576222	0.075609
Br214	Br	1.059419	-0.326222	0.325609
Br215	Br	1.309419	-0.076222	0.575609
Br216	Br	1.559419	0.173778	0.825609
H217	H	1.138950	-0.000099	-0.456694
H218	H	1.388950	0.249901	-0.206694
H219	H	1.638950	0.499901	0.043306
H220	H	1.888950	0.749901	0.293306
Br221	Br	1.089673	-0.183382	-0.329214
Br222	Br	1.339673	0.066618	-0.079214
Br223	Br	1.589673	0.316618	0.170786
Br224	Br	1.839673	0.566618	0.420786
Br225	Br	1.089729	0.183160	-0.328994
Br226	Br	1.339729	0.433160	-0.078994
Br227	Br	1.589729	0.683160	0.171006
Br228	Br	1.839729	0.933160	0.421006
H229	H	0.554372	0.140295	0.042003
H230	H	0.804372	0.390295	0.292003
H231	H	1.054372	0.640295	0.542003
H232	H	1.304372	0.890295	0.792003
H233	H	1.132399	-0.442033	0.144970
H234	H	1.382399	-0.192033	0.394970
H235	H	1.632399	0.057967	0.644970
H236	H	1.882399	0.307967	0.894970
H237	H	0.845675	-0.000077	-0.313532
H238	H	1.095675	0.249923	-0.063532
H239	H	1.345675	0.499923	0.186468
H240	H	1.595675	0.749923	0.436468
Br241	Br	0.894779	0.183148	-0.441362
Br242	Br	1.144779	0.433148	-0.191362
Br243	Br	1.394779	0.683148	0.058638
Br244	Br	1.644779	0.933148	0.308638
H245	H	1.022251	-0.558102	0.254913
H246	H	1.272251	-0.308102	0.504913
H247	H	1.522251	-0.058102	0.754913
H248	H	1.772251	0.191898	1.004913
Br249	Br	1.136178	-0.575753	-0.028904
Br250	Br	1.386178	-0.325753	0.221096
Br251	Br	1.636178	-0.075753	0.471096
Br252	Br	1.886178	0.174247	0.721096
H253	H	0.917552	-0.140331	-0.427962
H254	H	1.167552	0.109669	-0.177962
H255	H	1.417552	0.359669	0.072038
H256	H	1.667552	0.609669	0.322038
Br257	Br	0.573414	-0.183381	0.019824
Br258	Br	0.823414	0.066619	0.269824
Br259	Br	1.073414	0.316619	0.519824
Br260	Br	1.323414	0.566619	0.769824
Br261	Br	0.410926	0.183149	0.209859
Br262	Br	0.660926	0.433149	0.459859
Br263	Br	0.910926	0.683149	0.709859
Br264	Br	1.160926	0.933149	0.959859
H265	H	0.430174	-0.140331	0.187659
H266	H	0.680174	0.109669	0.437659
H267	H	0.930174	0.359669	0.687659
H268	H	1.180174	0.609669	0.937659
Br269	Br	0.848600	-0.423953	0.258558
Br270	Br	1.098600	-0.173953	0.508558
Br271	Br	1.348600	0.076047	0.758558
Br272	Br	1.598600	0.326047	1.008558
