data_functionalizedCrystal
_audit_creation_method	'MofGen! by Chris Wilmer'
_symmetry_space_group_name_H-M	'P1'
_symmetry_Int_Tables_number	1
_symmetry_cell_setting	triclinic
loop_
_symmetry_equiv_pos_as_xyz
  x,y,z
_cell_length_a	16.974897
_cell_length_b	15.995300
_cell_length_c	15.455313
_cell_angle_alpha	92.669102
_cell_angle_beta	83.675220
_cell_angle_gamma	83.436676
loop_
_atom_site_label
_atom_site_type_symbol
_atom_site_fract_x
_atom_site_fract_y
_atom_site_fract_z
O1	O	1.056141	0.099350	-0.146182
O2	O	0.825156	0.113753	-0.129986
O3	O	0.946984	-0.015368	-0.138532
O4	O	0.934313	0.228472	-0.137635
O5	O	0.940017	-0.008015	0.006218
O6	O	0.818190	0.121107	0.014765
O7	O	1.049174	0.106704	-0.001431
Cu8	Cu	0.933046	0.114577	0.019884
Cu9	Cu	0.941285	0.105880	-0.151301
O10	O	0.927347	0.235826	0.007115
C11	C	0.792115	0.117017	-0.055538
C12	C	0.704043	0.115775	-0.049362
C13	C	0.942984	-0.042885	-0.066124
C14	C	0.941435	-0.135831	-0.066024
C15	C	0.666457	0.111185	-0.125359
C16	C	0.583701	0.110033	-0.119543
C17	C	0.538535	0.113463	-0.037731
C18	C	0.576127	0.118056	0.038270
C19	C	0.658880	0.119214	0.032455
C20	C	0.290632	0.110433	-0.011876
C21	C	0.207874	0.109271	-0.006066
C22	C	0.215454	0.101250	-0.163881
C23	C	0.298209	0.102404	-0.169689
C24	C	0.335793	0.107001	-0.093688
N25	N	0.453946	0.112282	-0.031785
N26	N	0.420380	0.108188	-0.099634
C27	C	0.938573	-0.306000	-0.065815
C28	C	1.025317	-0.353870	-0.071899
C29	C	1.023719	-0.450533	-0.071456
C30	C	0.935757	-0.473543	-0.065610
C31	C	0.888750	-0.428017	0.019904
C32	C	0.890942	-0.331391	0.019816
C33	C	0.897580	-0.339472	-0.144708
C34	C	0.897640	-0.436471	-0.145790
C35	C	0.934161	-0.568231	-0.065491
C36	C	0.940167	-0.211312	-0.065928
C37	C	1.082215	0.103440	-0.075881
C38	C	1.170287	0.104682	-0.082062
C39	C	0.931347	0.263342	-0.065295
C40	C	0.932896	0.356288	-0.065401
N41	N	0.927257	0.120693	0.140286
N42	N	0.947080	0.099758	-0.271703
C43	C	0.979031	0.065857	0.182047
C44	C	0.974661	0.070490	0.273162
C45	C	0.918519	0.129963	0.322513
C46	C	0.866739	0.184801	0.280745
C47	C	0.871106	0.180164	0.189632
C48	C	0.899667	0.149958	0.595417
C49	C	0.895305	0.154593	0.686535
C50	C	1.003227	0.040281	0.678946
C51	C	1.007592	0.035652	0.587832
C52	C	0.955810	0.090487	0.546072
N53	N	0.914052	0.134702	0.415646
N54	N	0.960274	0.085743	0.452940
H55	H	0.703226	0.108389	-0.191979
C56	C	1.060179	-0.020041	0.724882
C57	C	1.121932	-0.085461	0.670598
C58	C	1.178885	-0.145789	0.716533
C59	C	1.174086	-0.140697	0.816753
C60	C	1.112332	-0.075275	0.871043
C61	C	1.055378	-0.014947	0.825108
H62	H	1.125487	-0.089232	0.596404
H63	H	1.224600	-0.194219	0.676343
H64	H	1.216247	-0.185356	0.850756
H65	H	1.108777	-0.071504	0.945237
H66	H	1.009663	0.033483	0.865298
H67	H	0.821023	0.233223	0.320932
C68	C	0.526444	0.121830	0.128265
C69	C	0.459493	0.194838	0.154597
C70	C	0.409812	0.198609	0.244593
C71	C	0.427082	0.129372	0.308257
C72	C	0.494037	0.056359	0.281926
C73	C	0.543718	0.052588	0.191930
H74	H	0.446706	0.246096	0.107468
H75	H	0.360248	0.252658	0.264084
H76	H	0.390305	0.132164	0.374877
H77	H	0.506824	0.005101	0.329055
H78	H	0.593282	-0.001462	0.172439
C79	C	0.928822	-0.302582	0.100498
C80	C	0.938657	-0.208872	0.117118
C81	C	0.976539	-0.180068	0.197800
C82	C	1.004587	-0.244974	0.261861
C83	C	0.994753	-0.338689	0.245243
C84	C	0.956871	-0.367493	0.164561
H85	H	0.917894	-0.160820	0.069694
H86	H	0.983819	-0.110693	0.210102
H87	H	1.032630	-0.223651	0.321587
H88	H	1.015516	-0.386742	0.292667
H89	H	0.949591	-0.436868	0.152259
H90	H	1.063019	-0.338559	-0.133501
C91	C	0.814155	0.240486	0.143691
C92	C	0.752427	0.305934	0.197970
C93	C	0.695470	0.366255	0.152031
C94	C	0.700241	0.361127	0.051813
C95	C	0.761972	0.295676	-0.002471
C96	C	0.818928	0.235355	0.043468
H97	H	0.748893	0.309732	0.272163
H98	H	0.649774	0.414706	0.192217
H99	H	0.658079	0.405781	0.017807
H100	H	0.765506	0.291878	-0.076664
H101	H	0.864625	0.186904	0.003282
H102	H	0.915316	-0.453377	0.079459
H103	H	0.553102	0.106295	-0.181428
H104	H	0.334979	0.099604	-0.236309
H105	H	0.171098	0.112089	0.060559
C106	C	0.174108	0.096203	-0.247478
C107	C	0.127272	0.021601	-0.265820
C108	C	0.085927	0.016558	-0.349421
C109	C	0.091417	0.086117	-0.414680
C110	C	0.138255	0.160724	-0.396340
C111	C	0.179601	0.165767	-0.312739
H112	H	0.123206	-0.029895	-0.217509
H113	H	0.051254	-0.038671	-0.362997
H114	H	0.060810	0.082384	-0.476567
H115	H	0.142321	0.212220	-0.444651
H116	H	0.214274	0.220997	-0.299163
H117	H	0.689481	0.122955	0.094339
H118	H	1.056840	-0.331363	-0.015282
C119	C	1.073245	-0.493264	-0.154529
C120	C	1.114530	-0.439464	-0.221738
C121	C	1.164063	-0.482191	-0.304812
C122	C	1.172311	-0.578718	-0.320678
C123	C	1.131024	-0.632525	-0.253467
C124	C	1.081492	-0.589798	-0.170393
H125	H	1.108426	-0.368003	-0.209995
H126	H	1.194626	-0.442359	-0.354566
H127	H	1.208978	-0.610347	-0.382175
H128	H	1.137129	-0.703985	-0.265210
H129	H	1.050929	-0.629629	-0.120639
C130	C	1.065337	-0.484291	0.005709
C131	C	1.100128	-0.423270	0.067124
C132	C	1.141749	-0.457027	0.144294
C133	C	1.148578	-0.551805	0.160048
C134	C	1.113786	-0.612831	0.098631
C135	C	1.072166	-0.579074	0.021462
H136	H	1.095073	-0.353105	0.055464
H137	H	1.167504	-0.411851	0.189758
H138	H	1.179388	-0.576794	0.217173
H139	H	1.118841	-0.682996	0.110292
H140	H	1.046410	-0.624250	-0.024003
H141	H	0.321224	0.114171	0.050010
H142	H	1.024751	0.017432	0.141871
H143	H	0.827076	-0.298642	0.027804
C144	C	1.069345	-0.029771	0.533543
C145	C	1.067436	-0.124481	0.546162
C146	C	1.129190	-0.189901	0.491871
C147	C	1.192853	-0.160611	0.424960
C148	C	1.194764	-0.065897	0.412337
C149	C	1.133010	-0.000477	0.466629
H150	H	1.020307	-0.146167	0.595697
H151	H	1.127776	-0.260015	0.501215
H152	H	1.238567	-0.209039	0.384769
H153	H	1.241893	-0.044211	0.362803
H154	H	1.134425	0.069637	0.457285
H155	H	0.849585	0.203027	0.726713
H156	H	0.823970	-0.441672	0.027274
H157	H	0.929148	-0.322281	-0.209259
H158	H	0.932005	-0.467059	-0.209025
C159	C	0.811325	-0.457138	-0.146767
C160	C	0.794214	-0.549617	-0.152059
C161	C	0.707893	-0.570279	-0.153023
C162	C	0.638682	-0.498461	-0.148695
C163	C	0.655790	-0.405975	-0.143403
C164	C	0.742112	-0.385313	-0.142439
H165	H	0.845450	-0.602787	-0.155263
H166	H	0.695228	-0.638743	-0.156941
H167	H	0.574781	-0.513755	-0.149408
H168	H	0.604554	-0.352805	-0.140198
H169	H	0.754776	-0.316849	-0.138521
H170	H	0.833660	-0.307443	-0.141010
H171	H	1.016819	0.025838	0.307164
H172	H	0.857505	0.194609	0.561423
