data_functionalizedCrystal
_audit_creation_method	'MofGen! by Chris Wilmer'
_symmetry_space_group_name_H-M	'P1'
_symmetry_Int_Tables_number	1
_symmetry_cell_setting	triclinic
loop_
_symmetry_equiv_pos_as_xyz
  x,y,z
_cell_length_a	14.446369
_cell_length_b	14.446369
_cell_length_c	14.446369
_cell_angle_alpha	90.000001
_cell_angle_beta	60.002158
_cell_angle_gamma	119.999750
loop_
_atom_site_label
_atom_site_type_symbol
_atom_site_fract_x
_atom_site_fract_y
_atom_site_fract_z
Zr1	Zr	1.013284	0.121568	0.891731
O2	O	1.206387	0.269370	0.743932
O3	O	0.820170	0.076252	0.937038
O4	O	1.013278	0.269371	0.937040
O5	O	1.013287	-0.076078	0.743930
O6	O	1.013287	0.269379	1.089369
O7	O	1.013278	0.076251	0.743930
O8	O	0.667851	-0.076075	1.089365
O9	O	1.358723	0.269377	0.743933
O10	O	0.899611	0.056939	1.070044
O11	O	0.899611	-0.056748	0.956363
O12	O	1.126971	0.170625	0.956365
O13	O	1.126971	0.056937	0.842684
Zr14	Zr	1.013311	-0.121366	1.134678
Zr15	Zr	1.013297	0.121581	1.134678
Zr16	Zr	1.013297	-0.121379	0.891731
Zr17	Zr	1.256242	0.121579	0.891733
Zr18	Zr	0.770353	-0.121377	1.134675
O19	O	1.206425	-0.076051	1.089370
O20	O	1.206406	0.269388	1.089371
O21	O	1.206406	-0.076069	0.743931
O22	O	0.820208	-0.269168	1.282477
O23	O	0.820189	0.076271	1.282477
O24	O	0.820189	-0.269187	0.937038
O25	O	1.013308	0.076279	1.282479
O26	O	1.013316	-0.269170	1.089368
O27	O	1.013308	-0.269178	0.937040
O28	O	1.013316	-0.076049	1.282479
O29	O	1.358733	0.269387	0.937043
O30	O	0.667861	-0.269186	1.089365
O31	O	0.667872	-0.269175	1.282476
O32	O	0.667861	-0.076065	1.282476
O33	O	1.358733	0.076267	0.743933
O34	O	1.358744	0.076277	0.937043
O35	O	0.899623	-0.170423	1.070044
O36	O	0.899623	-0.056736	1.183725
O37	O	1.126984	0.056950	1.070046
O38	O	1.126984	-0.056738	0.956365
C39	C	0.709394	0.000087	1.013202
C40	C	0.606252	0.000082	1.013201
C41	C	1.013281	0.303990	1.013205
C42	C	1.013275	0.407127	1.013205
C43	C	1.013314	-0.303789	1.013204
C44	C	1.013320	-0.406926	1.013204
C45	C	0.459242	-0.071949	0.941845
C46	C	0.566862	-0.071658	0.941457
C47	C	0.655238	0.123614	0.960897
C48	C	0.548006	0.123240	0.960361
C49	C	0.372804	-0.050356	1.136910
C50	C	0.478954	-0.052877	1.136728
C51	C	1.317201	0.000115	1.013207
C52	C	1.420343	0.000119	1.013208
C53	C	1.013281	0.000084	0.709315
C54	C	1.013275	0.000079	0.606178
C55	C	0.869894	0.482107	1.085259
C56	C	0.869797	0.374778	1.084947
C57	C	1.084496	0.481684	0.889682
C58	C	1.083586	0.588543	0.890077
C59	C	1.086548	0.590126	1.063675
C60	C	1.083846	0.481454	1.066175
C61	C	0.869894	-0.071251	0.531194
C62	C	0.869797	-0.071659	0.638522
C63	C	1.084506	-0.052217	0.531618
C64	C	1.083595	-0.052732	0.424760
C65	C	1.086539	0.123819	0.423186
C66	C	1.083836	0.123616	0.531858
C67	C	1.013314	0.000117	1.317094
C68	C	1.013320	0.000122	1.420231
C69	C	0.709411	0.000103	1.317091
C70	C	0.606274	0.000104	1.420227
C71	C	0.709411	-0.303803	1.013201
C72	C	0.606274	-0.406945	1.013200
C73	C	0.709427	-0.303786	1.317091
C74	C	0.606297	-0.406923	1.420227
C75	C	1.317167	0.303988	0.709318
C76	C	1.420298	0.407124	0.606182
C77	C	1.317184	0.000098	0.709318
C78	C	1.420320	0.000098	0.606181
C79	C	1.317184	0.304004	1.013207
C80	C	1.420320	0.407146	1.013209
C81	C	0.459977	-0.071215	1.638583
C82	C	0.566894	-0.071627	1.531358
C83	C	0.479419	-0.052198	1.423554
C84	C	0.372047	-0.052711	1.531316
C85	C	0.547017	0.123848	1.529945
C86	C	0.655483	0.123643	1.423983
C87	C	0.459956	-0.481938	0.941154
C88	C	0.566877	-0.374604	0.941459
C89	C	0.479428	-0.481498	1.136725
C90	C	0.372053	-0.588361	1.136337
C91	C	0.547016	-0.589949	0.962741
C92	C	0.655486	-0.481272	0.960234
C93	C	0.459970	-0.625283	1.495208
C94	C	0.566903	-0.518057	1.387880
C95	C	0.479452	-0.410236	1.494765
C96	C	0.372065	-0.517998	1.601623
C97	C	0.547010	-0.516651	1.603239
C98	C	0.655491	-0.410689	1.494568
H99	H	0.530159	-0.162623	0.976541
N100	N	0.599427	-0.595409	0.844076
H101	H	0.691383	-0.525234	0.789490
H102	H	0.600328	-0.664834	0.841503
H103	H	0.440908	-0.408094	1.443146
H104	H	0.342089	-0.004086	1.504664
N105	N	0.795295	-0.192535	0.709765
H106	H	0.838801	-0.228944	0.664379
H107	H	0.794925	-0.193222	0.779859
N108	N	0.693351	0.197790	1.026462
H109	H	0.788666	0.263500	0.974426
H110	H	0.637642	0.227570	1.058061
H111	H	0.500457	-0.005845	1.194378
N112	N	0.775313	-0.413189	0.839676
H113	H	0.797643	-0.334523	0.819444
H114	H	0.851312	-0.407818	0.832252
H115	H	0.656244	-0.519681	1.333622
H116	H	1.035038	-0.142381	0.583220
H117	H	0.588696	0.163648	0.869334
N118	N	0.517285	-0.192497	1.534600
H119	H	0.425793	-0.245718	1.605766
H120	H	0.515987	-0.202579	1.465983
N121	N	1.222503	0.199977	0.498027
H122	H	1.265313	0.278685	0.450397
H123	H	1.221454	0.203327	0.568351
H124	H	0.813547	0.320988	1.049943
H125	H	0.526037	0.179853	1.008982
H126	H	0.687601	0.181286	1.344829
H127	H	0.342107	-0.491342	1.680201
H128	H	1.188815	0.667124	0.833468
H129	H	1.192197	0.177246	0.344973
H130	H	0.501658	-0.002726	1.345291
H131	H	1.032964	0.588269	0.849672
N132	N	0.251830	-0.588023	1.189842
H133	H	0.219455	-0.589019	1.270317
H134	H	0.274552	-0.517512	1.144856
N135	N	0.795780	0.302881	1.205427
H136	H	0.762921	0.340784	1.259218
H137	H	0.719058	0.225789	1.222713
N138	N	0.428320	-0.171639	1.420750
H139	H	0.426925	-0.176884	1.351689
H140	H	0.487172	-0.191990	1.417364
H141	H	0.656242	-0.036548	1.532972
N142	N	0.599414	-0.582908	1.608715
H143	H	0.541584	-0.662977	1.613156
H144	H	0.691382	-0.545452	1.538539
H145	H	0.745946	-0.411255	1.443174
H146	H	0.439361	-0.143884	1.175802
N147	N	0.248684	-0.169022	1.194780
H148	H	0.176624	-0.171695	1.265141
H149	H	0.222119	-0.191193	1.141311
N150	N	0.698020	-0.305846	1.528392
H151	H	0.643293	-0.328340	1.613776
H152	H	0.793321	-0.264799	1.498136
H153	H	0.497219	-0.036308	1.692537
N154	N	0.341214	-0.191353	1.711410
H155	H	0.303016	-0.227063	1.668198
H156	H	0.367594	-0.236534	1.731872
N157	N	0.338399	0.018839	1.207677
H158	H	0.353500	0.082567	1.159903
H159	H	0.243357	-0.031281	1.274272
N160	N	0.698047	-0.515082	1.022524
H161	H	0.685972	-0.482555	1.086248
H162	H	0.643315	-0.600471	1.054674
N163	N	1.222512	0.515290	1.003885
H164	H	1.233402	0.485092	1.058091
H165	H	1.241563	0.482770	0.940154
H166	H	0.586589	0.167542	1.579960
H167	H	0.813606	0.479770	1.176453
H168	H	0.813878	0.481069	1.050573
H169	H	1.040655	0.594245	1.153261
H170	H	1.192216	0.668326	1.011423
N171	N	0.795700	-0.191396	0.532575
H172	H	0.703673	-0.236665	0.604132
H173	H	0.792410	-0.190824	0.464383
H174	H	0.370292	-0.480904	0.975837
N175	N	0.795780	-0.025194	0.710418
H176	H	0.762919	-0.004262	0.672515
H177	H	0.719059	-0.084625	0.787509
H178	H	0.747539	0.164298	0.870740
N179	N	1.015080	0.413343	1.186710
H180	H	1.060913	0.461590	1.220327
H181	H	0.921219	0.388364	1.233000
N182	N	0.508901	-0.306567	1.530838
H183	H	0.544514	-0.303509	1.576564
H184	H	0.575914	-0.236298	1.461410
H185	H	0.813596	-0.036355	0.533528
N186	N	0.775331	0.175401	1.424691
H187	H	0.797672	0.119071	1.422583
H188	H	0.851313	0.246024	1.356112
H189	H	0.529449	-0.520507	1.334082
N190	N	1.016553	-0.173299	0.425105
H191	H	0.987866	-0.225613	0.494535
H192	H	0.937546	-0.195685	0.426222
H193	H	1.189990	0.508916	0.833664
N194	N	1.224247	0.013314	0.495542
H195	H	1.242767	0.077684	0.527261
H196	H	1.237800	-0.038835	0.525146
N197	N	0.514184	-0.480283	1.706834
H198	H	0.417786	-0.512952	1.755457
H199	H	0.535861	-0.508727	1.751759
N200	N	0.428349	-0.413144	1.190629
H201	H	0.406910	-0.386465	1.144255
H202	H	0.346757	-0.461912	1.270089
N203	N	1.018971	0.413336	0.835771
H204	H	0.943168	0.334095	0.891153
H205	H	0.985733	0.450721	0.814724
H206	H	0.522233	-0.668161	1.014976
N207	N	1.025742	0.181695	0.417740
H208	H	0.950114	0.128309	0.413298
H209	H	0.993023	0.203473	0.487929
N210	N	1.015076	0.175390	0.599973
H211	H	0.938535	0.119066	0.678645
H212	H	1.078333	0.246003	0.605317
H213	H	1.188825	-0.004106	0.346181
H214	H	0.342104	-0.666939	1.192944
H215	H	0.522223	0.177271	1.502498
H216	H	0.656219	-0.320337	0.850499
N217	N	0.251894	-0.173295	1.598086
H218	H	0.269033	-0.225616	1.557371
H219	H	0.230764	-0.195568	1.675935
N220	N	0.509268	-0.478840	0.820357
H221	H	0.588488	-0.480842	0.785020
H222	H	0.438136	-0.546649	0.819618
N223	N	0.509283	-0.696767	1.492118
H224	H	0.506431	-0.708805	1.562618
H225	H	0.452060	-0.772534	1.488688
N226	N	0.251863	-0.584674	1.601247
H227	H	0.274504	-0.606937	1.530735
H228	H	0.181093	-0.655154	1.670562
N229	N	0.517275	-0.303333	0.987804
H230	H	0.425783	-0.341604	1.008124
H231	H	0.515983	-0.294528	1.057713
N232	N	0.508885	-0.517561	1.210944
H233	H	0.544510	-0.563277	1.178386
H234	H	0.575890	-0.448127	1.214205
N235	N	0.341544	-0.192745	0.988061
H236	H	0.261860	-0.201930	1.055705
H237	H	0.326428	-0.211292	0.927409
N238	N	0.506567	-0.026006	0.821702
H239	H	0.585489	0.055398	0.786002
H240	H	0.531284	-0.072850	0.776525
N241	N	0.684491	-0.025302	0.820597
H242	H	0.666557	-0.004970	0.767365
H243	H	0.763190	0.044604	0.810521
N244	N	0.341219	-0.698100	1.493810
H245	H	0.261883	-0.710147	1.564742
H246	H	0.355968	-0.659042	1.424995
