data_functionalizedCrystal
_audit_creation_method	'MofGen! by Chris Wilmer'
_symmetry_space_group_name_H-M	'P1'
_symmetry_Int_Tables_number	1
_symmetry_cell_setting	triclinic
loop_
_symmetry_equiv_pos_as_xyz
  x,y,z
_cell_length_a	21.295418
_cell_length_b	11.169416
_cell_length_c	11.169409
_cell_angle_alpha	89.969126
_cell_angle_beta	90.042364
_cell_angle_gamma	89.973844
loop_
_atom_site_label
_atom_site_type_symbol
_atom_site_fract_x
_atom_site_fract_y
_atom_site_fract_z
Zn1	Zn	0.962435	0.477203	0.679277
Zn2	Zn	0.962377	0.677944	0.478599
Zn3	Zn	0.857161	0.477329	0.478532
Zn4	Zn	0.857165	0.677898	0.679165
O5	O	0.909785	0.577593	0.578893
O6	O	1.050517	0.503798	0.652731
O7	O	0.948394	0.651403	0.310640
O8	O	0.871149	0.309362	0.505181
O9	O	1.050475	0.651281	0.505294
O10	O	0.948493	0.309270	0.652667
O11	O	0.871092	0.504012	0.310591
O12	O	0.769072	0.503968	0.505072
O13	O	0.871155	0.651204	0.847130
O14	O	0.769075	0.651326	0.652476
O15	O	0.948497	0.503754	0.847212
O16	O	0.948398	0.845887	0.505186
O17	O	0.871099	0.845854	0.652540
C18	C	0.909760	0.889418	0.578884
C19	C	0.909807	1.022818	0.578920
C20	C	0.746233	0.577657	0.578755
C21	C	0.676265	0.577712	0.578725
C22	C	0.909833	0.577460	0.891936
C23	C	0.909854	0.577403	1.025336
C24	C	0.643416	0.654543	0.655363
C25	C	0.577674	0.654514	0.655417
C26	C	0.544783	0.577666	0.578811
C27	C	0.577639	0.500820	0.502167
C28	C	0.643380	0.500843	0.502124
N29	N	0.441506	0.568308	0.473837
N30	N	0.379055	0.568293	0.473882
C31	C	0.346708	0.577589	0.578938
N32	N	0.379172	0.586925	0.683951
N33	N	0.441629	0.586946	0.683905
C34	C	0.473497	0.577632	0.578850
C35	C	0.242574	0.654392	0.655642
C36	C	0.176830	0.654354	0.655698
C37	C	0.176797	0.500667	0.502437
C38	C	0.242539	0.500699	0.502392
C39	C	0.275424	0.577568	0.578992
C40	C	1.073975	0.577531	0.579033
C41	C	1.143943	0.577504	0.579092
C42	C	0.909827	0.264551	0.578929
C43	C	0.909845	0.131151	0.578944
C44	C	0.909773	0.577640	0.267069
C45	C	0.909874	0.577358	0.133669
H46	H	0.670187	0.717134	0.717739
F47	F	0.542707	0.736290	0.736990
F48	F	0.277500	0.418927	0.420818
H49	H	0.550855	0.438248	0.439796
F50	F	0.678341	0.419065	0.420552
H51	H	0.150017	0.438090	0.440068
F52	F	0.141870	0.736126	0.737278
H53	H	0.269350	0.716977	0.718021
