data_functionalizedCrystal
_audit_creation_method	'MofGen! by Chris Wilmer'
_symmetry_space_group_name_H-M	'P1'
_symmetry_Int_Tables_number	1
_symmetry_cell_setting	triclinic
loop_
_symmetry_equiv_pos_as_xyz
  x,y,z
_cell_length_a	14.971490
_cell_length_b	23.532407
_cell_length_c	13.448316
_cell_angle_alpha	89.988737
_cell_angle_beta	90.009093
_cell_angle_gamma	96.767837
loop_
_atom_site_label
_atom_site_type_symbol
_atom_site_fract_x
_atom_site_fract_y
_atom_site_fract_z
O1	O	-1.186161	0.074227	-0.082756
O2	O	-0.925668	0.083112	-0.082748
O3	O	-1.063770	-0.004229	-0.082734
O4	O	-1.048059	0.161567	-0.082770
O5	O	-1.063752	-0.004234	0.082650
O6	O	-0.925650	0.083106	0.082636
O7	O	-1.186144	0.074221	0.082628
Cu8	Cu	-1.055896	0.078663	0.097733
Cu9	Cu	-1.055916	0.078670	-0.097853
O10	O	-1.048042	0.161562	0.082614
C11	C	-0.892339	0.082711	-0.000054
C12	C	-0.793054	0.081520	-0.000050
C13	C	-0.365412	0.076379	-0.090219
C14	C	-0.458701	0.077497	-0.090216
C15	C	-0.505331	0.078057	-0.000063
C16	C	-0.458669	0.077493	0.090094
C17	C	-0.365383	0.076371	0.090091
C18	C	-0.653107	0.079834	0.090096
C19	C	-0.746399	0.080957	0.090100
C20	C	-0.746424	0.080960	-0.090211
C21	C	-0.653138	0.079838	-0.090215
C22	C	-0.606482	0.079275	-0.000058
C23	C	-1.063361	-0.025449	-0.000039
C24	C	-1.062158	-0.088671	-0.000032
C25	C	-1.136340	-0.487456	-0.000089
C26	C	-1.135222	-0.546861	-0.000096
O27	O	-1.203989	-0.583311	-0.000135
N28	N	-1.053121	-0.569840	-0.000093
C29	C	-0.972131	-0.533410	-0.000092
O30	O	-0.902195	-0.558409	-0.000091
C31	C	-0.973250	-0.474006	-0.000092
C32	C	-1.055356	-0.451031	-0.000085
C33	C	-1.218440	-0.464481	-0.000083
C34	C	-1.219557	-0.405080	-0.000074
C35	C	-1.138574	-0.368654	-0.000070
C36	C	-1.056473	-0.391630	-0.000076
C37	C	-0.892261	-0.437577	-0.000098
C38	C	-0.893386	-0.378170	-0.000098
C39	C	-0.975493	-0.355195	-0.000092
C40	C	-0.976607	-0.295803	-0.000062
N41	N	-1.058709	-0.272825	-0.000066
C42	C	-1.139692	-0.309250	-0.000070
C43	C	-0.969789	-0.658162	-0.000095
C44	C	-0.968670	-0.717565	-0.000088
C45	C	-1.131761	-0.731012	-0.000094
C46	C	-1.132879	-0.671609	-0.000094
C47	C	-1.051891	-0.635184	-0.000098
C48	C	-1.142032	-0.184504	-0.000049
C49	C	-1.143141	-0.125097	-0.000036
C50	C	-0.980050	-0.111655	-0.000035
C51	C	-0.978940	-0.171056	-0.000043
C52	C	-1.059938	-0.207480	-0.000053
O53	O	-0.907876	-0.259319	-0.000027
O54	O	-1.209617	-0.284242	-0.000084
C55	C	-0.219473	0.074622	-0.000065
C56	C	-0.318757	0.075817	-0.000069
C57	C	-1.048451	0.182782	-0.000083
C58	C	-1.049653	0.246004	-0.000097
N59	N	-1.055888	0.078659	0.235297
N60	N	-1.055931	0.078670	-0.235417
C61	C	-1.117058	0.040000	0.287344
C62	C	-1.117064	0.040000	0.391447
C63	C	-1.055903	0.078661	0.443502
C64	C	-0.994726	0.117321	0.391448
C65	C	-0.994717	0.117318	0.287347
C66	C	-0.994751	0.117325	0.608428
C67	C	-0.994761	0.117329	0.712537
C68	C	-1.117098	0.040006	0.712528
C69	C	-1.117088	0.040003	0.608427
C70	C	-1.055913	0.078665	0.556380
H71	H	-0.496644	0.077945	0.163499
O72	O	-0.806031	-0.338883	-0.000100
H73	H	-0.802631	-0.311505	0.067308
H74	H	-0.327397	0.075919	0.163500
H75	H	-1.166894	0.008525	0.566044
H76	H	-0.496684	0.077952	-0.163625
O77	O	-1.219108	-0.770310	-0.000105
H78	H	-1.258417	-0.762150	0.067306
H79	H	-1.207988	-0.214153	-0.000061
H80	H	-0.944956	0.148810	0.754914
O81	O	-1.308115	-0.380302	-0.000096
H82	H	-1.364232	-0.415618	-0.000116
H83	H	-0.825401	-0.456272	-0.000109
H84	H	-1.284390	-0.494133	-0.000090
O85	O	-1.183039	-0.001694	0.447591
H86	H	-1.226285	0.022332	0.495004
H87	H	-0.944905	0.148797	0.244971
O88	O	-1.183010	-0.001713	0.231208
H89	H	-1.172728	0.004777	0.150074
O90	O	-0.796744	0.081565	-0.187452
H91	H	-0.748645	0.080995	-0.250142
H92	H	-1.166909	0.008527	0.754911
O93	O	-0.928771	0.159018	0.552275
H94	H	-0.939772	0.203429	0.572216
O95	O	-0.315121	0.075763	-0.187456
H96	H	-0.363242	0.076332	-0.250142
O97	O	-0.602842	0.079214	-0.187448
H98	H	-0.650957	0.079781	-0.250140
H99	H	-0.912082	-0.189763	-0.000021
H100	H	-0.914116	-0.081986	-0.000028
O101	O	-1.221435	-0.646829	-0.000105
H102	H	-1.277555	-0.682143	-0.000116
H103	H	-0.901810	-0.736265	-0.000076
O104	O	-1.231708	-0.100322	-0.000038
H105	H	-1.236124	-0.073594	0.067377
H106	H	-0.903834	-0.628508	-0.000090
H107	H	-0.944923	0.148798	0.433837
H108	H	-0.784362	0.081416	0.163511
H109	H	-0.615121	0.079382	0.163511
