data_functionalizedCrystal
_audit_creation_method	'MofGen! by Chris Wilmer'
_symmetry_space_group_name_H-M	'P1'
_symmetry_Int_Tables_number	1
_symmetry_cell_setting	triclinic
loop_
_symmetry_equiv_pos_as_xyz
  x,y,z
_cell_length_a	6.817900
_cell_length_b	16.305597
_cell_length_c	10.943624
_cell_angle_alpha	93.792899
_cell_angle_beta	108.838799
_cell_angle_gamma	103.455834
loop_
_atom_site_label
_atom_site_type_symbol
_atom_site_fract_x
_atom_site_fract_y
_atom_site_fract_z
V1	V	-4.088114	-0.116694	-0.402994
O2	O	-4.074525	0.005630	-0.394867
O3	O	-4.039148	-0.231407	-0.400676
O4	O	-4.066500	-0.114889	-0.578553
O5	O	-4.046984	-0.111694	-0.215758
V6	V	-4.568344	-0.102064	-0.380546
O7	O	-4.356595	-0.148787	-0.452236
O8	O	-4.750061	-0.069971	-0.331304
O9	O	-4.394104	0.012649	-0.382864
O10	O	-4.699330	-0.224388	-0.388673
O11	O	-4.726871	-0.107064	-0.567782
O12	O	-4.366752	-0.103869	-0.204986
C13	C	-3.883145	-0.259371	-0.394431
C14	C	-3.924575	-0.353150	-0.393706
C15	C	-4.075307	-0.693909	-0.391134
C16	C	-3.838504	-0.653078	-0.384083
C17	C	-3.795003	-0.555480	-0.384326
C18	C	-4.000526	-0.524854	-0.392411
C19	C	-4.065013	-0.550229	-0.272111
C20	C	-4.106682	-0.647761	-0.271221
C21	C	-4.232848	-0.673080	-0.518137
C22	C	-4.186359	-0.575567	-0.520365
C23	C	-3.958272	-0.429312	-0.393128
C24	C	-4.117563	-0.789450	-0.390407
C25	C	-3.918033	-0.110741	-0.621330
C26	C	-3.981641	-0.110024	-0.764854
C27	C	-3.827604	-0.105197	-0.841983
C28	C	-4.000152	-0.176838	-0.948245
C29	C	-3.922456	-0.037114	-0.914328
C30	C	-4.153385	-0.181732	-0.869240
C31	C	-4.075623	-0.041944	-0.835299
C32	C	-4.248303	-0.113606	-0.941531
C33	C	-4.213449	0.040609	-0.389104
C34	C	-4.151258	0.134387	-0.389838
C35	C	-4.178559	-0.108020	-0.162202
C36	C	-4.094190	-0.108732	-0.018677
H37	H	-4.276684	-0.674605	-0.271140
H38	H	-3.825445	0.023991	-0.934859
H39	H	-4.406466	-0.700077	-0.524558
N40	N	-3.728488	-0.534260	-0.492171
N41	N	-3.713939	-0.591597	-0.567783
H42	H	-3.666958	-0.576615	-0.643953
H43	H	-4.250411	-0.242919	-0.848927
H44	H	-3.649215	-0.101738	-0.798522
H45	H	-3.968909	-0.233867	-0.997410
H46	H	-4.340760	-0.555733	-0.533736
N47	N	-4.472201	-0.118090	-0.995787
N48	N	-4.609402	-0.180950	-0.986736
H49	H	-4.767533	-0.184121	-1.025056
H50	H	-3.993018	-0.659266	-0.175669
N51	N	-3.797507	-0.691311	-0.491495
N52	N	-3.942327	-0.749100	-0.574496
H53	H	-3.913379	-0.776108	-0.650360
N54	N	-4.114693	0.029606	-0.773578
N55	N	-4.021300	0.103746	-0.781100
H56	H	-4.048870	0.154286	-0.737504
H57	H	-3.654094	-0.521052	-0.292464
N58	N	-3.689095	-0.670025	-0.269175
N59	N	-3.756258	-0.712042	-0.192453
H60	H	-3.650743	-0.724012	-0.111296
H61	H	-4.219179	-0.705587	-0.609369
H62	H	-4.215242	-0.530377	-0.273425
H63	H	-3.932462	-0.514622	-0.177391
H64	H	-4.141176	-0.559872	-0.609380
