data_functionalizedCrystal
_audit_creation_method	'MofGen! by Chris Wilmer'
_symmetry_space_group_name_H-M	'P1'
_symmetry_Int_Tables_number	1
_symmetry_cell_setting	triclinic
loop_
_symmetry_equiv_pos_as_xyz
  x,y,z
_cell_length_a	15.995350
_cell_length_b	12.837942
_cell_length_c	11.295483
_cell_angle_alpha	85.469583
_cell_angle_beta	94.101747
_cell_angle_gamma	89.160658
loop_
_atom_site_label
_atom_site_type_symbol
_atom_site_fract_x
_atom_site_fract_y
_atom_site_fract_z
O1	O	-1.126724	-0.126645	-0.098922
O2	O	-0.884267	-0.143143	-0.098946
O3	O	-1.000119	0.016009	-0.098927
O4	O	-1.010872	-0.285796	-0.098941
O5	O	-0.989941	0.002051	0.099122
O6	O	-0.874089	-0.157100	0.099103
O7	O	-1.116547	-0.140602	0.099127
Cu8	Cu	-0.994389	-0.150125	0.117198
Cu9	Cu	-1.006425	-0.133619	-0.117018
O10	O	-1.000695	-0.299753	0.099108
C11	C	-0.847929	-0.149439	0.000075
C12	C	-0.754816	-0.147393	0.000066
C13	C	-0.991398	0.047651	0.000096
C14	C	-0.980565	0.162728	0.000093
C15	C	-1.152885	-0.134305	0.000103
C16	C	-1.245998	-0.136350	0.000104
C17	C	-0.416481	-0.140051	0.000091
C18	C	-0.454849	-0.026737	0.000538
C19	C	-0.551725	-0.028750	0.000083
C20	C	-0.584333	-0.143693	0.000079
C21	C	-0.553518	-0.191629	-0.113014
C22	C	-0.456659	-0.188775	-0.113101
C23	C	-0.444934	-0.206989	0.112118
C24	C	-0.541801	-0.207067	0.113605
C25	C	-0.679196	-0.145757	0.000069
C26	C	-0.321619	-0.137990	0.000094
C27	C	-1.009416	-0.331395	0.000082
C28	C	-1.020249	-0.446472	0.000077
N29	N	-0.985930	-0.161734	0.281933
C30	C	-1.110803	0.403687	0.000081
C31	C	-1.100628	0.511813	0.000078
C32	C	-0.950041	0.487109	0.000075
C33	C	-0.960216	0.378983	0.000078
C34	C	-1.040599	0.337276	0.000083
C35	C	-1.050773	0.229147	0.000095
C36	C	-0.900187	0.204446	0.000083
C37	C	-0.890012	0.312572	0.000080
N38	N	-1.014890	-0.122002	-0.281753
C39	C	-1.075780	-0.038379	0.531237
C40	C	-1.069394	-0.047159	0.655900
C41	C	-0.966767	-0.188069	0.655923
C42	C	-0.973153	-0.179289	0.531261
C43	C	-1.027662	-0.104442	0.468922
C44	C	-1.034052	-0.095668	0.344257
C45	C	-0.931422	-0.236572	0.344283
C46	C	-0.925036	-0.245352	0.468945
H47	H	-0.572482	0.009482	0.081154
C48	C	-0.906790	-0.270369	0.724517
N49	N	-0.861608	-0.332351	0.776184
H50	H	-0.439442	-0.142049	-0.197638
C51	C	-0.801594	0.358461	0.000089
N52	N	-0.734995	0.393023	0.000105
H53	H	-1.157795	0.565882	0.000073
H54	H	-0.884597	0.521087	0.000059
C55	C	-0.865072	-0.327672	0.537532
N56	N	-0.819906	-0.389676	0.589190
H57	H	-1.108575	0.006638	0.706634
H58	H	-0.892244	-0.290368	0.293532
H59	H	-0.428544	0.012855	0.081642
C60	C	-1.139196	0.183272	0.000096
N61	N	-1.205799	0.148723	0.000092
H62	H	-0.435801	0.024046	-0.080115
H63	H	-1.176253	0.369728	0.000097
H64	H	-1.078439	-0.034727	0.293502
C65	C	-0.422418	-0.300703	-0.120063
N66	N	-0.396632	-0.385005	-0.125320
C67	C	-0.590233	0.038746	-0.109629
N68	N	-0.619236	0.089586	-0.192270
C69	C	-0.581998	-0.305309	-0.118708
N70	N	-0.603453	-0.390933	-0.122995
C71	C	-0.593500	-0.131154	-0.226718
N72	N	-0.623612	-0.085597	-0.312358
H73	H	-0.417037	-0.175975	0.197840
H74	H	-0.419801	-0.290612	0.112880
C75	C	-0.822958	0.131384	0.000086
N76	N	-0.764791	0.076352	0.000092
H77	H	-1.120169	0.022558	0.480480
H78	H	-0.561562	-0.172152	0.197271
H79	H	-0.563503	-0.291368	0.120433
