data_functionalizedCrystal
_audit_creation_method	'MofGen! by Chris Wilmer'
_symmetry_space_group_name_H-M	'P1'
_symmetry_Int_Tables_number	1
_symmetry_cell_setting	triclinic
loop_
_symmetry_equiv_pos_as_xyz
  x,y,z
_cell_length_a	10.654558
_cell_length_b	11.792241
_cell_length_c	9.730223
_cell_angle_alpha	89.998500
_cell_angle_beta	90.000400
_cell_angle_gamma	84.340866
loop_
_atom_site_label
_atom_site_type_symbol
_atom_site_fract_x
_atom_site_fract_y
_atom_site_fract_z
O1	O	1.667377	0.159460	-0.114271
O2	O	1.301857	0.174639	-0.114278
O3	O	1.493487	0.001899	-0.114265
O4	O	1.475747	0.332199	-0.114285
O5	O	1.493485	0.001904	0.114315
O6	O	1.301855	0.174643	0.114302
O7	O	1.667375	0.159464	0.114309
Zn8	Zn	1.484614	0.167054	0.150597
Zn9	Zn	1.484617	0.167049	-0.150567
O10	O	1.475744	0.332203	0.114295
C11	C	1.255061	0.173524	0.000011
C12	C	1.115628	0.170184	0.000008
C13	C	1.492372	-0.040392	0.000024
C14	C	1.489036	-0.166413	0.000023
C15	C	0.919104	0.165486	-0.124591
C16	C	1.050117	0.168614	-0.124592
C17	C	1.050119	0.168613	0.124618
C18	C	0.919109	0.165477	0.124618
C19	C	0.853599	0.163928	-0.249199
C20	C	0.919099	0.165497	-0.373810
C21	C	1.050112	0.168625	-0.373811
C22	C	1.115626	0.170185	-0.249202
C23	C	1.482903	-0.397140	-0.000000
C24	C	1.486311	-0.268747	0.000013
C25	C	1.714170	0.160579	0.000016
C26	C	1.853604	0.163919	0.000010
C27	C	1.476860	0.374495	0.000003
C28	C	1.480195	0.500516	-0.000005
N29	N	1.484621	0.167058	0.356133
N30	N	1.484620	0.167036	-0.356103
C31	C	1.569497	0.090595	0.428065
C32	C	1.569494	0.090581	0.571948
C33	C	1.399735	0.243503	0.571955
C34	C	1.399733	0.243510	0.428074
C35	C	1.654385	0.014142	0.356124
C36	C	1.739269	-0.062326	0.428056
C37	C	1.739266	-0.062340	0.571939
C38	C	1.654379	0.014115	0.643890
H39	H	0.746920	0.161384	-0.249212
H40	H	1.103470	0.169886	0.226069
H41	H	1.222307	0.172726	-0.249213
H42	H	0.865750	0.164219	-0.475262
H43	H	0.865774	0.164222	0.226079
C44	C	1.832637	-0.146426	0.348919
C45	C	1.832659	-0.146408	0.190656
C46	C	1.926028	-0.230511	0.111523
C47	C	2.019377	-0.314632	0.190652
C48	C	2.019358	-0.314653	0.348924
C49	C	1.925989	-0.230549	0.428057
H50	H	1.763554	-0.084134	0.132072
H51	H	1.926041	-0.230496	-0.005641
H52	H	2.088494	-0.376890	0.132073
H53	H	2.088463	-0.376927	0.407508
H54	H	1.925976	-0.230565	0.545221
C55	C	1.306373	0.327606	0.651096
C56	C	1.306540	0.327753	0.809358
C57	C	1.213180	0.411862	0.888496
C58	C	1.119653	0.495823	0.809372
C59	C	1.119483	0.495680	0.651100
C60	C	1.212843	0.411571	0.571962
H61	H	1.375778	0.265597	0.867939
H62	H	1.213307	0.411968	1.005660
H63	H	1.050543	0.558086	0.867955
H64	H	1.050245	0.557836	0.592520
H65	H	1.212716	0.411465	0.454799
H66	H	1.103440	0.169892	-0.475275
H67	H	1.654398	0.014149	0.238968
H68	H	1.808372	-0.124610	0.630505
H69	H	1.654375	0.014089	0.761050
H70	H	1.330618	0.305772	0.369507
