data_functionalizedCrystal
_audit_creation_method	'MofGen! by Chris Wilmer'
_symmetry_space_group_name_H-M	'P1'
_symmetry_Int_Tables_number	1
_symmetry_cell_setting	triclinic
loop_
_symmetry_equiv_pos_as_xyz
  x,y,z
_cell_length_a	16.992694
_cell_length_b	27.732048
_cell_length_c	15.455313
_cell_angle_alpha	92.637842
_cell_angle_beta	87.142206
_cell_angle_gamma	86.655439
loop_
_atom_site_label
_atom_site_type_symbol
_atom_site_fract_x
_atom_site_fract_y
_atom_site_fract_z
O1	O	1.042606	0.100467	-0.072038
O2	O	1.542606	0.600467	0.427962
O3	O	0.814336	0.099342	-0.072063
O4	O	1.314336	0.599342	0.427937
O5	O	0.935560	0.029815	-0.072033
O6	O	1.435560	0.529815	0.427967
O7	O	0.921382	0.169994	-0.072068
O8	O	1.421382	0.669994	0.427932
O9	O	0.928628	0.033773	0.072227
O10	O	1.428628	0.533773	0.572227
O11	O	0.807404	0.103301	0.072197
O12	O	1.307404	0.603301	0.572197
O13	O	1.035674	0.104425	0.072223
O14	O	1.535674	0.604425	0.572223
Cu15	Cu	0.920906	0.104225	0.085382
Cu16	Cu	1.420906	0.604225	0.585382
Cu17	Cu	0.929104	0.099543	-0.085222
Cu18	Cu	1.429104	0.599543	0.414778
O19	O	0.914450	0.173953	0.072193
O20	O	1.414450	0.673953	0.572193
C21	C	0.781675	0.099876	0.000064
C22	C	1.281675	0.599876	0.500064
C23	C	0.694684	0.095561	0.000055
C24	C	1.194684	0.595561	0.500055
C25	C	0.643939	0.137184	0.000046
C26	C	1.143939	0.637184	0.500046
C27	C	0.562201	0.133129	0.000059
C28	C	1.062201	0.633129	0.500059
C29	C	0.531209	0.087449	0.000075
C30	C	1.031209	0.587449	0.500075
C31	C	0.581960	0.045823	0.000087
C32	C	1.081960	0.545823	0.500087
C33	C	0.663696	0.049880	0.000080
C34	C	1.163696	0.549880	0.500080
C35	C	0.287814	0.070637	0.000102
C36	C	0.787814	0.570637	0.500102
C37	C	0.206071	0.066583	0.000106
C38	C	0.706071	0.566583	0.500106
C39	C	0.186318	0.153889	0.000080
C40	C	0.686318	0.653889	0.500080
C41	C	0.268057	0.157941	0.000068
C42	C	0.768057	0.657941	0.500068
C43	C	0.318800	0.116315	0.000084
C44	C	0.818800	0.616315	0.500084
N45	N	0.447660	0.083302	0.000086
N46	N	0.947660	0.583302	0.500086
N47	N	0.402347	0.120463	0.000080
N48	N	0.902347	0.620463	0.500080
C49	C	0.931796	0.013774	0.000100
C50	C	1.431796	0.513774	0.500100
C51	C	0.930900	-0.039919	0.000107
C52	C	1.430900	0.460081	0.500107
C53	C	0.996895	-0.375882	0.000069
C54	C	1.496895	0.124118	0.500069
C55	C	0.993571	-0.577686	0.000057
C56	C	1.493571	-0.077686	0.500057
O57	O	1.053919	-0.606333	0.000026
O58	O	1.553919	-0.106333	0.500026
N59	N	0.921689	-0.599917	0.000050
N60	N	1.421689	-0.099917	0.500050
C61	C	0.850634	-0.571695	0.000040
C62	C	1.350634	-0.071695	0.500040
O63	O	0.789419	-0.595235	0.000025
O64	O	1.289419	-0.095235	0.500025
C65	C	0.853960	-0.369892	0.000046
C66	C	1.353960	0.130108	0.500046
C67	C	0.925846	-0.347663	0.000062
C68	C	1.425846	0.152337	0.500062
C69	C	1.068775	-0.353652	0.000084
C70	C	1.568775	0.146348	0.500084
C71	C	1.069605	-0.303204	0.000092
C72	C	1.569605	0.196796	0.500092
C73	C	0.998556	-0.274986	0.000085
C74	C	1.498556	0.225014	0.500085
C75	C	0.926676	-0.297215	0.000070
C76	C	1.426676	0.202785	0.500070
C77	C	0.782906	-0.341671	0.000030
C78	C	1.282906	0.158329	0.500030
C79	C	0.783744	-0.291218	0.000030
C80	C	1.283744	0.208782	0.500030
C81	C	0.855630	-0.268989	0.000046
C82	C	1.355630	0.231011	0.500046
C83	C	0.856457	-0.218549	0.000071
C84	C	1.356457	0.281451	0.500071
N85	N	0.928338	-0.196317	0.000078
N86	N	1.428338	0.303683	0.500078
C87	C	0.999387	-0.224535	0.000085
C88	C	1.499387	0.275465	0.500085
C89	C	0.848893	-0.677644	0.000038
C90	C	1.348893	-0.177644	0.500038
C91	C	0.848061	-0.728095	0.000038
C92	C	1.348061	-0.228095	0.500038
C93	C	0.990998	-0.734082	0.000054
C94	C	1.490998	-0.234082	0.500054
C95	C	0.991829	-0.683630	0.000060
C96	C	1.491829	-0.183630	0.500060
C97	C	0.920775	-0.655413	0.000046
C98	C	1.420775	-0.155413	0.500046
C99	C	1.001126	-0.118591	0.000102
C100	C	1.501126	0.381409	0.500102
C101	C	1.001949	-0.068138	0.000114
C102	C	1.501949	0.431862	0.500114
C103	C	0.859013	-0.062155	0.000094
C104	C	1.359013	0.437845	0.500094
C105	C	0.858189	-0.112603	0.000087
C106	C	1.358189	0.387397	0.500087
C107	C	0.929251	-0.140820	0.000088
C108	C	1.429251	0.359180	0.500088
O109	O	0.796141	-0.189872	0.000092
O110	O	1.296141	0.310128	0.500092
O111	O	1.060595	-0.200987	0.000081
O112	O	1.560595	0.299013	0.500081
C113	C	0.996065	-0.426330	0.000062
C114	C	1.496065	0.073670	0.500062
C115	C	0.924185	-0.448559	0.000047
C116	C	1.424185	0.051441	0.500047
C117	C	0.853136	-0.420341	0.000039
C118	C	1.353136	0.079659	0.500039
C119	C	0.923354	-0.499010	0.000047
C120	C	1.423354	0.000990	0.500047
C121	C	0.994403	-0.527228	0.000054
C122	C	1.494403	-0.027228	0.500054
C123	C	1.066285	-0.504997	0.000061
C124	C	1.566285	-0.004997	0.500061
C125	C	1.067115	-0.454549	0.000069
C126	C	1.567115	0.045451	0.500069
C127	C	0.781254	-0.442573	0.000032
C128	C	1.281254	0.057427	0.500032
C129	C	0.780430	-0.493021	0.000025
C130	C	1.280430	0.006979	0.500025
C131	C	0.851480	-0.521240	0.000033
C132	C	1.351480	-0.021240	0.500033
C133	C	1.068335	0.103892	0.000094
C134	C	1.568335	0.603892	0.500094
C135	C	1.155327	0.108206	0.000097
C136	C	1.655327	0.608206	0.500097
C137	C	0.918214	0.189993	0.000058
C138	C	1.418214	0.689993	0.500058
C139	C	0.919111	0.243687	0.000046
C140	C	1.419111	0.743687	0.500046
N141	N	0.915146	0.107517	0.205376
N142	N	1.415146	0.607517	0.705376
N143	N	0.934870	0.096247	-0.205217
N144	N	1.434870	0.596247	0.294783
C145	C	0.966664	0.077992	0.250783
C146	C	1.466664	0.577992	0.750783
C147	C	0.962315	0.080486	0.341590
C148	C	1.462315	0.580486	0.841590
C149	C	0.906451	0.112509	0.386988
C150	C	1.406451	0.612509	0.886988
C151	C	0.854928	0.142036	0.341575
C152	C	1.354928	0.642036	0.841575
C153	C	0.859274	0.139538	0.250770
C154	C	1.359274	0.639538	0.750770
C155	C	0.887693	0.123276	0.658565
C156	C	1.387693	0.623276	1.158565
C157	C	0.883353	0.125773	0.749377
C158	C	1.383353	0.625773	1.249377
C159	C	0.990739	0.064222	0.749385
C160	C	1.490739	0.564222	1.249385
C161	C	0.995083	0.061730	0.658578
C162	C	1.495083	0.561730	1.158578
C163	C	0.943557	0.091254	0.613173
C164	C	1.443557	0.591254	1.113173
N165	N	0.902006	0.115061	0.479807
N166	N	1.402006	0.615061	0.979807
N167	N	0.947999	0.088700	0.520356
N168	N	1.447999	0.588700	1.020356
H169	H	0.520888	0.167023	0.000050
H170	H	1.020888	0.667023	0.500050
O171	O	0.548535	-0.003446	0.000113
O172	O	1.048535	0.496554	0.500113
H173	H	0.571782	-0.025217	-0.058674
H174	H	1.071782	0.474783	0.441326
O175	O	0.342538	0.025741	0.000112
O176	O	0.842538	0.525741	0.500112
H177	H	0.377425	0.027112	0.058913
H178	H	0.877425	0.527112	0.558913
O179	O	0.803710	0.171379	0.201780
O180	O	1.303710	0.671379	0.701780
H181	H	0.812402	0.209913	0.219174
H182	H	1.312402	0.709913	0.719174
O183	O	0.832125	0.155126	0.609604
O184	O	1.332125	0.655126	1.109604
H185	H	0.844522	0.148008	0.538833
H186	H	1.344522	0.648008	1.038833
H187	H	1.032688	0.040184	0.786363
H188	H	1.532688	0.540184	1.286363
O189	O	0.172646	0.017311	0.000131
O190	O	0.672646	0.517311	0.500131
H191	H	0.133056	0.014995	0.058929
H192	H	0.633056	0.514995	0.558929
O193	O	0.718434	0.004987	0.000088
O194	O	1.218434	0.504987	0.500088
H195	H	0.683154	-0.027459	0.000093
H196	H	1.183154	0.472541	0.500093
H197	H	0.809439	0.168108	0.378544
H198	H	1.309439	0.668108	0.878544
H199	H	0.724370	-0.359761	0.000012
H200	H	1.224370	0.140239	0.500012
H201	H	0.669166	0.174382	0.000032
H202	H	1.169166	0.674382	0.500032
H203	H	1.124135	-0.527981	0.000070
H204	H	1.624135	-0.027981	0.500070
H205	H	0.293284	0.195138	0.000044
H206	H	0.793284	0.695138	0.500044
O207	O	1.079486	-0.044161	0.000117
O208	O	1.579486	0.455839	0.500117
H209	H	1.128750	-0.072263	0.000108
H210	H	1.628750	0.427737	0.500108
O211	O	1.055329	0.027186	0.609612
O212	O	1.555329	0.527186	1.109612
H213	H	1.090418	0.007070	0.656443
H214	H	1.590418	0.507070	1.156443
O215	O	0.702891	-0.516995	0.000010
O216	O	1.202891	-0.016995	0.500010
H217	H	0.653631	-0.488892	-0.000002
H218	H	1.153631	0.011108	0.499998
O219	O	1.026904	0.043440	0.201826
O220	O	1.526904	0.543440	0.701826
H221	H	1.021272	0.046662	0.131054
H222	H	1.521272	0.546662	0.631054
H223	H	0.144995	0.187778	0.000068
H224	H	0.644995	0.687778	0.500068
H225	H	1.058992	-0.141559	0.000100
H226	H	1.558992	0.358441	0.500100
H227	H	1.128142	-0.285110	0.000102
H228	H	1.628142	0.214890	0.500102
O229	O	1.145413	-0.384085	0.000104
O230	O	1.645413	0.115915	0.500104
H231	H	1.195526	-0.360143	0.000124
H232	H	1.695526	0.139857	0.500124
H233	H	0.725882	-0.268245	0.000017
H234	H	1.225882	0.231755	0.500017
H235	H	0.837859	0.151851	0.786336
H236	H	1.337859	0.651851	1.286336
O237	O	1.069361	-0.659655	0.000061
O238	O	1.569361	-0.159655	0.500061
H239	H	1.118623	-0.687758	0.000059
H240	H	1.618623	-0.187758	0.500059
H241	H	0.801166	-0.039170	0.000091
H242	H	1.301166	0.460830	0.500091
H243	H	0.799653	-0.130703	0.000098
H244	H	1.299653	0.369297	0.500098
O245	O	0.772247	-0.647214	0.000042
O246	O	1.272247	-0.147214	0.500042
H247	H	0.740635	-0.657076	-0.058752
H248	H	1.240635	-0.157076	0.441248
H249	H	1.004264	0.056444	0.378560
H250	H	1.504264	0.556444	0.878560
O251	O	1.067634	-0.764522	0.000055
O252	O	1.567634	-0.264522	0.500055
H253	H	1.054972	-0.803336	0.000045
H254	H	1.554972	-0.303336	0.500045
H255	H	0.789524	-0.746189	0.000040
H256	H	1.289524	-0.246189	0.500040
H257	H	1.125651	-0.436454	0.000081
H258	H	1.625651	0.063546	0.500081
H259	H	0.723396	-0.419602	0.000024
H260	H	1.223396	0.080398	0.500024
