data_functionalizedCrystal
_audit_creation_method	'MofGen! by Chris Wilmer'
_symmetry_space_group_name_H-M	'P1'
_symmetry_Int_Tables_number	1
_symmetry_cell_setting	triclinic
loop_
_symmetry_equiv_pos_as_xyz
  x,y,z
_cell_length_a	10.723024
_cell_length_b	27.732048
_cell_length_c	9.798715
_cell_angle_alpha	89.991917
_cell_angle_beta	89.996609
_cell_angle_gamma	83.555262
loop_
_atom_site_label
_atom_site_type_symbol
_atom_site_fract_x
_atom_site_fract_y
_atom_site_fract_z
O1	O	1.654382	0.067789	-0.113499
O2	O	1.290961	0.074278	-0.113505
O3	O	1.483959	0.000707	-0.113476
O4	O	1.461384	0.141360	-0.113528
O5	O	1.483944	0.000707	0.113507
O6	O	1.290947	0.074278	0.113477
O7	O	1.654368	0.067789	0.113483
Zn8	Zn	1.472655	0.071033	0.149519
Zn9	Zn	1.472674	0.071033	-0.149540
O10	O	1.461370	0.141360	0.113454
C11	C	1.244474	0.073806	-0.000014
C12	C	1.105978	0.072393	-0.000016
C13	C	1.029292	0.113559	-0.000032
C14	C	0.886149	0.112100	-0.000033
C15	C	1.483478	-0.017303	0.000019
C16	C	1.482051	-0.070967	0.000030
C17	C	1.587117	-0.409130	-0.000038
C18	C	1.581823	-0.610822	-0.000057
O19	O	1.677898	-0.641481	-0.000115
N20	N	1.467383	-0.630656	-0.000058
C21	C	1.354259	-0.600064	-0.000063
O22	O	1.256800	-0.621562	-0.000078
C23	C	1.359554	-0.398373	-0.000053
C24	C	1.474001	-0.378541	-0.000039
C25	C	1.701554	-0.389298	-0.000025
C26	C	1.702877	-0.338877	-0.000013
C27	C	1.589761	-0.308289	-0.000013
C28	C	1.475324	-0.328121	-0.000026
C29	C	1.246432	-0.367781	-0.000068
C30	C	1.247766	-0.317356	-0.000069
C31	C	1.362213	-0.297524	-0.000054
C32	C	1.363531	-0.247113	-0.000015
N33	N	1.477970	-0.227278	-0.000014
C34	C	1.591085	-0.257867	-0.000014
C35	C	1.351487	-0.705956	-0.000065
C36	C	1.350163	-0.756378	-0.000065
C37	C	1.577727	-0.767133	-0.000062
C38	C	1.579050	-0.716709	-0.000052
C39	C	1.465926	-0.686121	-0.000064
C40	C	1.593854	-0.151980	0.000013
C41	C	1.595166	-0.101555	0.000031
C42	C	1.367603	-0.090805	0.000021
C43	C	1.366290	-0.141226	0.000010
C44	C	1.479425	-0.171813	0.000002
O45	O	1.267507	-0.216425	0.000028
O46	O	1.688531	-0.236359	-0.000029
C47	C	1.585794	-0.459550	-0.000050
C48	C	1.471357	-0.479382	-0.000063
C49	C	1.358241	-0.448793	-0.000064
C50	C	1.470033	-0.529804	-0.000063
C51	C	1.583148	-0.560392	-0.000062
C52	C	1.697587	-0.540558	-0.000062
C53	C	1.698910	-0.490138	-0.000049
C54	C	1.243802	-0.468628	-0.000065
C55	C	1.242489	-0.519048	-0.000075
C56	C	1.355604	-0.549637	-0.000074
C57	C	1.700855	0.068261	-0.000010
C58	C	1.839351	0.069674	-0.000018
C59	C	1.461851	0.159370	-0.000044
C60	C	1.463278	0.213034	-0.000064
N61	N	1.472651	0.071033	0.353618
N62	N	1.472687	0.071030	-0.353640
C63	C	1.553691	0.040006	0.421408
C64	C	1.553711	0.040005	0.578570
H65	H	0.905234	0.034430	-0.000013
H66	H	1.065659	0.036068	-0.000037
C67	C	1.646427	0.004637	0.656216
C68	C	1.769005	0.012769	0.621554
C69	C	1.854450	-0.019799	0.693069
H70	H	1.633447	-0.027672	0.632937
H71	H	1.634230	0.009346	0.751530
H72	H	1.781198	0.008057	0.526262
H73	H	1.782026	0.045072	0.644837
H74	H	1.842252	-0.015091	0.788383
H75	H	1.841458	-0.052106	0.669785
H76	H	1.937628	-0.014283	0.669571
H77	H	1.792104	-0.473996	-0.000038
H78	H	1.789690	-0.565472	-0.000055
H79	H	1.149285	-0.535190	-0.000075
C80	C	1.719558	-0.080118	-0.000029
C81	C	1.818332	-0.117702	-0.000073
C82	C	1.932935	-0.097975	-0.000150
H83	H	1.724984	-0.060684	0.079107
H84	H	1.724878	-0.060680	-0.079211
H85	H	1.813015	-0.137132	0.079101
H86	H	1.812948	-0.137139	-0.079203
H87	H	1.938255	-0.078537	-0.079332
H88	H	1.938348	-0.078541	0.078987
H89	H	1.999967	-0.123472	-0.000192
C90	C	0.798447	0.159132	0.000159
C91	C	0.820535	0.186010	0.116909
C92	C	0.739777	0.229343	0.117122
H93	H	0.713871	0.151974	0.000229
H94	H	0.813276	0.177457	-0.078961
H95	H	0.805696	0.167689	0.196008
H96	H	0.905094	0.193181	0.116864
H97	H	0.754606	0.247668	0.038002
H98	H	0.655206	0.222180	0.117188
H99	H	0.754760	0.247587	0.196328
H100	H	1.793672	-0.414198	-0.000029
H101	H	1.403280	0.097593	0.411932
C102	C	1.228753	-0.672691	0.000145
C103	C	1.222865	-0.643426	0.116904
C104	C	1.109830	-0.612775	0.117140
H105	H	1.160311	-0.691668	0.000217
H106	H	1.224524	-0.652765	-0.078969
H107	H	1.227082	-0.663350	0.195997
H108	H	1.291280	-0.624439	0.116856
H109	H	1.105601	-0.592849	0.038026
H110	H	1.041397	-0.631756	0.117208
H111	H	1.105825	-0.592912	0.196352
C112	C	1.121078	-0.435364	0.000153
C113	C	1.115192	-0.406103	0.116921
C114	C	1.002157	-0.375451	0.117166
H115	H	1.052635	-0.454341	0.000220
H116	H	1.116848	-0.415435	-0.078954
H117	H	1.119409	-0.426029	0.196008
H118	H	1.183608	-0.387116	0.116879
H119	H	0.997928	-0.355522	0.038059
H120	H	0.933724	-0.394432	0.117229
H121	H	0.998154	-0.355591	0.196384
C122	C	1.225776	-0.777813	-0.000134
C123	C	1.127007	-0.740227	-0.000174
C124	C	1.012400	-0.759951	-0.000265
H125	H	1.220337	-0.797256	0.078996
H126	H	1.220463	-0.797240	-0.079322
H127	H	1.132316	-0.720807	0.079006
H128	H	1.132404	-0.720780	-0.079298
H129	H	1.007088	-0.779379	-0.079453
H130	H	1.006974	-0.779395	0.078866
H131	H	0.945372	-0.734453	-0.000305
C132	C	1.124847	-0.284204	-0.000292
C133	C	1.055883	-0.293227	-0.117060
C134	C	0.942639	-0.262702	-0.117300
H135	H	1.141839	-0.251317	-0.000355
H136	H	1.077803	-0.290271	0.078815
H137	H	1.102916	-0.287156	-0.196147
H138	H	1.038857	-0.326108	-0.117021
H139	H	0.895595	-0.268770	-0.038193
H140	H	0.959644	-0.229817	-0.117360
H141	H	0.895828	-0.268823	-0.196519
H142	H	1.796071	-0.322736	-0.000006
H143	H	1.685980	-0.176879	0.000001
H144	H	1.403306	0.097596	0.588073
H145	H	1.672242	-0.700566	-0.000041
C146	C	1.244703	-0.057646	-0.000203
C147	C	1.175742	-0.066666	-0.116975
C148	C	1.062514	-0.036131	-0.117232
H149	H	1.261717	-0.024761	-0.000272
H150	H	1.197648	-0.063706	0.078901
H151	H	1.222787	-0.060601	-0.196059
H152	H	1.158695	-0.099544	-0.116931
H153	H	1.015459	-0.042192	-0.038128
H154	H	1.079540	-0.003249	-0.117297
H155	H	1.015705	-0.042250	-0.196454
C156	C	1.646048	0.004520	0.343702
C157	C	1.626433	-0.043032	0.378315
C158	C	1.711479	-0.075731	0.306734
H159	H	1.729361	0.009902	0.366961
H160	H	1.633714	0.009207	0.248398
H161	H	1.638777	-0.047717	0.473598
H162	H	1.543137	-0.048430	0.355053
H163	H	1.699145	-0.071043	0.211430
H164	H	1.794787	-0.070343	0.329998
H165	H	1.698175	-0.107998	0.330199
H166	H	1.669830	-0.792046	-0.000060
H167	H	1.273098	-0.157373	0.000036
H168	H	1.069611	0.149884	-0.000037
H169	H	1.153237	-0.383919	-0.000088
