data_functionalizedCrystal
_audit_creation_method	'MofGen! by Chris Wilmer'
_symmetry_space_group_name_H-M	'P1'
_symmetry_Int_Tables_number	1
_symmetry_cell_setting	triclinic
loop_
_symmetry_equiv_pos_as_xyz
  x,y,z
_cell_length_a	17.038272
_cell_length_b	15.455313
_cell_length_c	16.992695
_cell_angle_alpha	92.847427
_cell_angle_beta	90.889890
_cell_angle_gamma	87.131318
loop_
_atom_site_label
_atom_site_type_symbol
_atom_site_fract_x
_atom_site_fract_y
_atom_site_fract_z
O1	O	1.051316	-0.072023	0.167773
O2	O	1.384649	0.261311	0.501106
O3	O	1.717983	0.594644	0.834440
O4	O	0.823516	-0.072048	0.165057
O5	O	1.156849	0.261285	0.498390
O6	O	1.490183	0.594618	0.831724
O7	O	0.936503	-0.072029	0.052212
O8	O	1.269836	0.261305	0.385545
O9	O	1.603169	0.594638	0.718878
O10	O	0.938330	-0.072042	0.280618
O11	O	1.271663	0.261291	0.613952
O12	O	1.604996	0.594624	0.947285
O13	O	0.930040	0.072232	0.058636
O14	O	1.263373	0.405566	0.391969
O15	O	1.596706	0.738899	0.725303
O16	O	0.817053	0.072213	0.171481
O17	O	1.150387	0.405546	0.504815
O18	O	1.483720	0.738879	0.838148
O19	O	1.044853	0.072238	0.174197
O20	O	1.378186	0.405572	0.507531
O21	O	1.711520	0.738905	0.840864
Cu22	Cu	0.930363	0.085398	0.173426
Cu23	Cu	1.263696	0.418731	0.506759
Cu24	Cu	1.597030	0.752064	0.840093
Cu25	Cu	0.938006	-0.085208	0.165828
Cu26	Cu	1.271339	0.248126	0.499162
Cu27	Cu	1.604673	0.581459	0.832495
O28	O	0.931867	0.072219	0.287043
O29	O	1.265200	0.405552	0.620376
O30	O	1.598533	0.738885	0.953709
C31	C	0.791002	0.000079	0.165800
C32	C	1.124335	0.333412	0.499133
C33	C	1.457668	0.666746	0.832466
C34	C	0.703747	0.000069	0.158432
C35	C	1.037080	0.333403	0.491765
C36	C	1.370414	0.666736	0.825099
C37	C	0.930922	0.000101	0.026055
C38	C	1.264255	0.333435	0.359388
C39	C	1.597588	0.666768	0.692721
C40	C	0.923911	0.000100	-0.061457
C41	C	1.257245	0.333434	0.271876
C42	C	1.590578	0.666767	0.605209
N43	N	0.924993	0.205392	0.178770
N44	N	1.258326	0.538726	0.512103
N45	N	1.591660	0.872059	0.845436
C46	C	0.657877	0.000066	0.226072
C47	C	0.991210	0.333399	0.559405
C48	C	1.324543	0.666733	0.892738
C49	C	0.575891	0.000078	0.219145
C50	C	0.909224	0.333412	0.552479
C51	C	1.242558	0.666745	0.885812
C52	C	0.539777	0.000088	0.144578
C53	C	0.873111	0.333421	0.477911
C54	C	1.206444	0.666755	0.811245
C55	C	0.585653	0.000094	0.076933
C56	C	0.918987	0.333427	0.410267
C57	C	1.252320	0.666761	0.743600
C58	C	0.667637	0.000088	0.083861
C59	C	1.000971	0.333421	0.417194
C60	C	1.334304	0.666754	0.750527
C61	C	0.292483	0.000113	0.120105
C62	C	0.625816	0.333446	0.453438
C63	C	0.959149	0.666779	0.786771
C64	C	0.210493	0.000116	0.113182
C65	C	0.543826	0.333450	0.446515
C66	C	0.877159	0.666783	0.779849
C67	C	0.200736	0.000102	0.255395
C68	C	0.534069	0.333436	0.588728
C69	C	0.867403	0.666769	0.922062
C70	C	0.282722	0.000091	0.262316
C71	C	0.616056	0.333424	0.595649
C72	C	0.949389	0.666758	0.928982
C73	C	0.328591	0.000102	0.194671
C74	C	0.661924	0.333435	0.528005
C75	C	0.995258	0.666768	0.861338
C76	C	0.455975	0.000098	0.137496
C77	C	0.789308	0.333431	0.470830
C78	C	1.122642	0.666765	0.804163
C79	C	0.412391	0.000098	0.201754
C80	C	0.745725	0.333431	0.535087
C81	C	1.079058	0.666764	0.868421
C82	C	1.077368	0.000109	0.173455
C83	C	1.410701	0.333442	0.506788
C84	C	1.744034	0.666776	0.840121
C85	C	1.164623	0.000113	0.180822
C86	C	1.497956	0.333446	0.514155
C87	C	1.831289	0.666780	0.847489
N88	N	0.943382	-0.205202	0.160479
N89	N	1.276715	0.128131	0.493812
N90	N	1.610049	0.461464	0.827145
C91	C	0.973013	0.250795	0.130849
C92	C	1.306346	0.584128	0.464183
C93	C	1.639679	0.917461	0.797516
C94	C	0.968959	0.341602	0.134898
C95	C	1.302293	0.674935	0.468232
C96	C	1.635626	1.008269	0.801565
C97	C	0.916890	0.387005	0.186872
C98	C	1.250223	0.720338	0.520206
C99	C	1.583556	1.053672	0.853539
C100	C	0.868865	0.341596	0.234795
C101	C	1.202198	0.674930	0.568128
C102	C	1.535531	1.008263	0.901461
C103	C	0.872915	0.250791	0.230741
C104	C	1.206248	0.584124	0.564075
C105	C	1.539581	0.917457	0.897408
C106	C	0.899407	0.658583	0.204348
C107	C	1.232740	0.991917	0.537681
C108	C	1.566074	1.325250	0.871014
C109	C	0.895362	0.749395	0.208399
C110	C	1.228696	1.082729	0.541733
C111	C	1.562029	1.416062	0.875066
C112	C	0.995456	0.749395	0.108501
C113	C	1.328790	1.082728	0.441835
C114	C	1.662123	1.416061	0.775168
C115	C	0.999505	0.658587	0.104456
C116	C	1.332838	0.991921	0.437789
C117	C	1.666172	1.325254	0.771122
C118	C	0.951477	0.613187	0.152375
C119	C	1.284811	0.946520	0.485708
C120	C	1.618144	1.279853	0.819042
N121	N	0.912747	0.479824	0.191014
N122	N	1.246080	0.813158	0.524347
N123	N	1.579414	1.146491	0.857681
N124	N	0.955617	0.520369	0.148229
N125	N	1.288950	0.853702	0.481562
N126	N	1.622283	1.187035	0.814896
C127	C	0.991551	0.000109	-0.107185
C128	C	1.324884	0.333442	0.226148
C129	C	1.658218	0.666776	0.559481
C130	C	0.984960	0.000100	-0.189412
C131	C	1.318293	0.333433	0.143921
C132	C	1.651626	0.666767	0.477255
C133	C	0.910728	0.000089	-0.225909
C134	C	1.244061	0.333422	0.107424
C135	C	1.577395	0.666755	0.440758
C136	C	0.843083	0.000078	-0.180175
C137	C	1.176417	0.333411	0.153159
C138	C	1.509750	0.666744	0.486492
C139	C	0.849675	0.000080	-0.097950
C140	C	1.183009	0.333414	0.235383
C141	C	1.516342	0.666747	0.568717
C142	C	0.883406	0.000074	-0.471330
C143	C	1.216739	0.333407	-0.137996
C144	C	1.550073	0.666740	0.195337
C145	C	0.876819	0.000073	-0.553561
C146	C	1.210152	0.333407	-0.220227
C147	C	1.543485	0.666740	0.113106
C148	C	1.018696	0.000094	-0.562792
C149	C	1.352029	0.333428	-0.229459
C150	C	1.685363	0.666761	0.103874
C151	C	1.025281	0.000102	-0.480565
C152	C	1.358615	0.333435	-0.147232
C153	C	1.691948	0.666769	0.186101
C154	C	0.957637	0.000086	-0.434839
C155	C	1.290970	0.333420	-0.101505
C156	C	1.624304	0.666753	0.231828
N157	N	0.903989	0.000082	-0.309958
N158	N	1.237322	0.333416	0.023376
N159	N	1.570655	0.666749	0.356709
N160	N	0.964377	0.000087	-0.350792
N161	N	1.297710	0.333420	-0.017458
N162	N	1.631044	0.666753	0.315875
C163	C	0.937448	0.000087	0.313200
C164	C	1.270781	0.333420	0.646533
C165	C	1.604114	0.666753	0.979866
C166	C	0.944458	0.000082	0.400711
C167	C	1.277792	0.333415	0.734045
C168	C	1.611125	0.666749	1.067378
H169	H	0.687274	0.000058	0.286792
H170	H	1.020608	0.333391	0.620126
H171	H	1.353941	0.666724	0.953459
H172	H	0.852959	0.786358	0.250726
H173	H	1.186292	1.119692	0.584059
H174	H	1.519626	1.453025	0.917393
Br175	Br	1.110494	0.000115	-0.624854
Br176	Br	1.443827	0.333449	-0.291520
Br177	Br	1.777161	0.666782	0.041813
H178	H	1.041904	0.621622	0.062134
H179	H	1.375237	0.954955	0.395468
H180	H	1.708571	1.288289	0.728801
H181	H	0.441799	0.000095	0.262467
H182	H	0.775132	0.333428	0.595800
H183	H	1.108465	0.666762	0.929133
Br184	Br	1.034126	0.403222	0.069859
Br185	Br	1.367460	0.736556	0.403193
Br186	Br	1.700793	1.069889	0.736526
Br187	Br	0.406957	0.000110	0.036300
Br188	Br	0.740290	0.333443	0.369633
Br189	Br	1.073623	0.666776	0.702967
H190	H	0.312120	0.000073	0.323036
H191	H	0.645454	0.333407	0.656369
H192	H	0.978787	0.666740	0.989702
Br193	Br	1.076761	0.000111	-0.251469
Br194	Br	1.410094	0.333444	0.081864
Br195	Br	1.743428	0.666778	0.415197
Br196	Br	1.043688	0.189186	0.060315
Br197	Br	1.377022	0.522519	0.393649
Br198	Br	1.710355	0.855852	0.726982
Br199	Br	0.729891	0.000100	-0.007940
Br200	Br	1.063224	0.333433	0.325394
Br201	Br	1.396557	0.666767	0.658727
Br202	Br	1.060632	0.811013	0.043469
Br203	Br	1.393965	1.144346	0.376803
Br204	Br	1.727299	1.477680	0.710136
H205	H	1.085729	0.000111	-0.450856
H206	H	1.419062	0.333445	-0.117522
H207	H	1.752395	0.666778	0.215811
H208	H	0.782642	0.000063	-0.209897
H209	H	1.115975	0.333396	0.123436
H210	H	1.449309	0.666730	0.456770
Br211	Br	0.834230	0.596973	0.269381
Br212	Br	1.167564	0.930306	0.602714
Br213	Br	1.500897	1.263639	0.936047
H214	H	0.329819	0.000122	0.065023
H215	H	0.663153	0.333455	0.398357
H216	H	0.996486	0.666789	0.731690
H217	H	0.556243	0.000114	0.016219
H218	H	0.889576	0.333447	0.349553
H219	H	1.222909	0.666781	0.682886
Br220	Br	1.092299	0.000137	-0.057662
Br221	Br	1.425632	0.333470	0.275672
Br222	Br	1.758965	0.666803	0.609005
Br223	Br	0.798191	0.403211	0.305327
Br224	Br	1.131524	0.736545	0.638660
Br225	Br	1.464858	1.069878	0.971993
H226	H	0.816366	0.000078	-0.583273
H227	H	1.149700	0.333412	-0.249939
H228	H	1.483033	0.666745	0.083394
H229	H	0.833811	0.213825	0.269762
H230	H	1.167144	0.547158	0.603095
H231	H	1.500478	0.880491	0.936429
H232	H	0.163381	0.000096	0.310467
H233	H	0.496714	0.333429	0.643801
H234	H	0.830048	0.666762	0.977134
H235	H	0.828325	0.000061	-0.434109
H236	H	1.161658	0.333394	-0.100775
H237	H	1.494991	0.666728	0.232558
H238	H	0.538547	0.000075	0.274225
H239	H	0.871880	0.333408	0.607558
H240	H	1.205213	0.666741	0.940892
H241	H	0.794596	0.000073	-0.060719
H242	H	1.127929	0.333407	0.272615
H243	H	1.461262	0.666740	0.605948
H244	H	0.181092	0.000123	0.052458
H245	H	0.514425	0.333456	0.385791
H246	H	0.847759	0.666790	0.719124
