data_functionalizedCrystal
_audit_creation_method	'MofGen! by Chris Wilmer'
_symmetry_space_group_name_H-M	'P1'
_symmetry_Int_Tables_number	1
_symmetry_cell_setting	triclinic
loop_
_symmetry_equiv_pos_as_xyz
  x,y,z
_cell_length_a	12.837942
_cell_length_b	14.971486
_cell_length_c	14.048226
_cell_angle_alpha	90.001501
_cell_angle_beta	89.994377
_cell_angle_gamma	90.778465
loop_
_atom_site_label
_atom_site_type_symbol
_atom_site_fract_x
_atom_site_fract_y
_atom_site_fract_z
O1	O	0.135106	-1.198338	-0.079050
O2	O	0.635106	-0.698338	0.420950
O3	O	0.151285	-0.939302	-0.079075
O4	O	0.651285	-0.439302	0.420925
O5	O	-0.007715	-1.063076	-0.079057
O6	O	0.492285	-0.563076	0.420943
O7	O	0.294105	-1.074564	-0.079068
O8	O	0.794105	-0.574564	0.420932
O9	O	-0.007724	-1.063059	0.079264
O10	O	0.492276	-0.563059	0.579264
O11	O	0.151275	-0.939284	0.079246
O12	O	0.651275	-0.439284	0.579246
O13	O	0.135096	-1.198320	0.079272
O14	O	0.635096	-0.698320	0.579272
Zn15	Zn	0.143184	-1.068800	0.104396
Zn16	Zn	0.643184	-0.568800	0.604396
Zn17	Zn	0.143197	-1.068822	-0.104199
Zn18	Zn	0.643197	-0.568822	0.395801
O19	O	0.294096	-1.074546	0.079254
O20	O	0.794096	-0.574546	0.579254
C21	C	0.150556	-0.905907	0.000082
C22	C	0.650556	-0.405907	0.500082
C23	C	0.148388	-0.806427	0.000072
C24	C	0.648388	-0.306427	0.500072
C25	C	-0.046345	-1.059187	0.000103
C26	C	0.453655	-0.559187	0.500103
C27	C	-0.161436	-1.047612	0.000100
C28	C	0.338564	-0.547612	0.500100
C29	C	0.135824	-1.231715	0.000112
C30	C	0.635824	-0.731715	0.500112
C31	C	0.137993	-1.331195	0.000116
C32	C	0.637993	-0.831195	0.500116
C33	C	-0.402222	-1.186755	0.000094
C34	C	0.097778	-0.686755	0.500094
C35	C	-0.510362	-1.175884	0.000091
C36	C	-0.010362	-0.675884	0.500091
C37	C	-0.485856	-1.015001	0.000085
C38	C	0.014144	-0.515001	0.500085
C39	C	-0.377717	-1.025872	0.000088
C40	C	0.122283	-0.525872	0.500088
C41	C	-0.335904	-1.111751	0.000093
C42	C	0.164096	-0.611751	0.500093
C43	C	-0.227763	-1.122621	0.000103
C44	C	0.272237	-0.622621	0.500103
C45	C	-0.203260	-0.961739	0.000090
C46	C	0.296740	-0.461739	0.500090
C47	C	-0.311399	-0.950868	0.000087
C48	C	0.188601	-0.450868	0.500087
C49	C	0.332726	-1.078436	0.000092
C50	C	0.832726	-0.578436	0.500092
C51	C	0.447817	-1.090010	0.000088
C52	C	0.947817	-0.590010	0.500088
N53	N	0.143175	-1.068791	0.246756
N54	N	0.643175	-0.568791	0.746756
C55	C	0.241796	-0.757077	0.000070
C56	C	0.741796	-0.257077	0.500070
C57	C	0.239752	-0.663606	0.000085
C58	C	0.739752	-0.163606	0.500085
C59	C	0.144300	-0.619486	0.000094
C60	C	0.644300	-0.119486	0.500094
C61	C	0.050885	-0.668842	0.000099
C62	C	0.550885	-0.168842	0.500099
C63	C	0.052930	-0.762313	0.000091
C64	C	0.552930	-0.262313	0.500091
C65	C	0.046630	-0.474021	0.000112
C66	C	0.546630	0.025979	0.500112
C67	C	0.044585	-0.380545	0.000118
C68	C	0.544585	0.119455	0.500118
C69	C	0.233453	-0.375314	0.000105
C70	C	0.733453	0.124686	0.500105
C71	C	0.235498	-0.468784	0.000098
C72	C	0.735498	0.031216	0.500098
C73	C	0.142082	-0.518135	0.000101
C74	C	0.642082	-0.018135	0.500101
N75	N	0.143197	-1.068838	-0.246560
N76	N	0.643197	-0.568838	0.253440
C77	C	0.072799	-1.123619	0.296583
C78	C	0.572799	-0.623619	0.796583
C79	C	0.072799	-1.123625	0.396240
C80	C	0.572799	-0.623625	0.896240
C81	C	0.143180	-1.068807	0.446070
C82	C	0.643180	-0.568807	0.946070
C83	C	0.213559	-1.013972	0.396237
C84	C	0.713559	-0.513972	0.896237
C85	C	0.213554	-1.013962	0.296581
C86	C	0.713554	-0.513962	0.796581
C87	C	0.213567	-1.013998	0.603951
C88	C	0.713567	-0.513998	1.103951
C89	C	0.213573	-1.014009	0.703614
C90	C	0.713573	-0.514009	1.203614
C91	C	0.072811	-1.123662	0.703610
C92	C	0.572811	-0.623662	1.203610
C93	C	0.072806	-1.123652	0.603954
C94	C	0.572806	-0.623652	1.103954
C95	C	0.143187	-1.068818	0.554128
C96	C	0.643187	-0.568818	1.054128
H97	H	-0.368178	-1.256681	0.000108
H98	H	0.131822	-0.756681	0.500108
H99	H	0.270875	-0.969343	0.563386
H100	H	0.770875	-0.469343	1.063386
H101	H	-0.345458	-0.880947	0.000079
H102	H	0.154542	-0.380947	0.500079
O103	O	-0.581895	-1.256778	0.000103
O104	O	-0.081895	-0.756778	0.500103
H105	H	-0.534648	-1.318318	0.000116
H106	H	-0.034648	-0.818318	0.500116
O107	O	-0.530960	-0.922378	0.000067
O108	O	-0.030960	-0.422378	0.500067
H109	H	-0.504337	-0.885881	0.064590
H110	H	-0.004337	-0.385881	0.564590
H111	H	0.015502	-1.168294	0.563383
H112	H	0.515502	-0.668294	1.063383
H113	H	-0.149251	-0.900666	0.000097
H114	H	0.350749	-0.400666	0.500097
H115	H	0.270861	-0.969332	0.436814
H116	H	0.770861	-0.469332	0.936814
O117	O	0.344749	-0.804663	0.000069
O118	O	0.844749	-0.304663	0.500069
H119	H	0.409357	-0.754640	0.000083
H120	H	0.909357	-0.254640	0.500083
O121	O	0.289451	-0.954826	0.242823
O122	O	0.789451	-0.454826	0.742823
H123	H	0.370300	-0.973109	0.261920
H124	H	0.870300	-0.473109	0.761920
H125	H	-0.193721	-1.192549	0.000111
H126	H	0.306279	-0.692549	0.500111
H127	H	0.315815	-0.623429	0.000082
H128	H	0.815815	-0.123429	0.500082
O129	O	-0.003110	-1.182800	0.757342
O130	O	0.496890	-0.682800	1.257342
H131	H	0.008704	-1.173591	0.835011
H132	H	0.508704	-0.673591	1.335011
H133	H	0.313223	-0.504704	0.000081
H134	H	0.813223	-0.004704	0.500081
H135	H	0.270884	-0.969369	0.744180
H136	H	0.770884	-0.469369	1.244180
H137	H	-0.026834	-0.632913	0.000120
H138	H	0.473166	-0.132913	0.500120
O139	O	-0.054129	-0.527245	0.000115
O140	O	0.445871	-0.027245	0.500115
H141	H	-0.057725	-0.569952	0.064646
H142	H	0.442275	-0.069952	0.564646
H143	H	-0.023133	-0.802492	0.000092
H144	H	0.476867	-0.302492	0.500092
O145	O	0.334213	-0.322095	0.000113
O146	O	0.834213	0.177905	0.500113
H147	H	0.316760	-0.249687	0.000133
H148	H	0.816760	0.250313	0.500133
H149	H	-0.033141	-0.344625	0.000127
H150	H	0.466859	0.155375	0.500127
O151	O	-0.003116	-1.182742	0.242838
O152	O	0.496884	-0.682742	0.742838
H153	H	-0.052060	-1.220861	0.294232
H154	H	0.447940	-0.720861	0.794232
O155	O	-0.003087	-1.182779	0.449985
O156	O	0.496913	-0.682779	0.949985
H157	H	-0.052013	-1.220910	0.398593
H158	H	0.447987	-0.720910	0.898593
