data_functionalizedCrystal
_audit_creation_method	'MofGen! by Chris Wilmer'
_symmetry_space_group_name_H-M	'P1'
_symmetry_Int_Tables_number	1
_symmetry_cell_setting	triclinic
loop_
_symmetry_equiv_pos_as_xyz
  x,y,z
_cell_length_a	16.120297
_cell_length_b	13.033652
_cell_length_c	13.032721
_cell_angle_alpha	76.639675
_cell_angle_beta	99.654124
_cell_angle_gamma	80.349162
loop_
_atom_site_label
_atom_site_type_symbol
_atom_site_fract_x
_atom_site_fract_y
_atom_site_fract_z
Zn1	Zn	-0.339468	-1.545364	-0.241124
Zn2	Zn	0.160532	-1.045364	0.258876
Zn3	Zn	-0.218564	-1.531488	-0.409964
Zn4	Zn	0.281436	-1.031488	0.090036
Zn5	Zn	-0.218549	-1.376547	-0.254935
Zn6	Zn	0.281451	-0.876547	0.245065
Zn7	Zn	-0.380559	-1.342167	-0.444281
Zn8	Zn	0.119441	-0.842167	0.055719
O9	O	-0.289285	-1.448892	-0.337576
O10	O	0.210715	-0.948892	0.162424
O11	O	-0.306239	-1.693406	-0.243380
O12	O	0.193761	-1.193406	0.256620
O13	O	-0.100161	-1.519515	-0.380817
O14	O	0.399839	-1.019515	0.119183
O15	O	-0.217387	-1.419137	-0.103202
O16	O	0.282613	-0.919137	0.396798
O17	O	-0.217411	-1.683210	-0.367425
O18	O	0.282589	-1.183210	0.132575
O19	O	-0.306225	-1.543166	-0.093055
O20	O	0.193775	-1.043166	0.406945
O21	O	-0.100151	-1.405681	-0.266918
O22	O	0.399849	-0.905681	0.233082
O23	O	-0.257231	-1.222105	-0.300194
O24	O	0.242769	-0.722105	0.199806
O25	O	-0.493508	-1.360541	-0.425914
O26	O	0.006492	-0.860541	0.074086
O27	O	-0.376258	-1.196846	-0.439306
O28	O	0.123742	-0.696846	0.060694
O29	O	-0.463319	-1.509829	-0.276656
O30	O	0.036681	-1.009829	0.223344
O31	O	-0.257255	-1.486178	-0.564417
O32	O	0.242745	-0.986178	-0.064417
O33	O	-0.376272	-1.347085	-0.589630
O34	O	0.123728	-0.847085	-0.089630
C35	C	-0.321203	-1.170612	-0.374973
C36	C	0.178797	-0.670612	0.125027
C37	C	-0.334880	-1.051558	-0.390999
C38	C	0.165120	-0.551558	0.109001
C39	C	-0.282157	-1.010957	-0.329223
C40	C	0.217843	-0.510957	0.170777
C41	C	-0.296292	-0.887909	-0.345785
C42	C	0.203708	-0.387909	0.154215
C43	C	-0.509972	-1.432898	-0.353572
C44	C	-0.009972	-0.932898	0.146428
C45	C	-0.604015	-1.426083	-0.360389
C46	C	-0.104015	-0.926083	0.139611
C47	C	-0.776194	-1.413603	-0.372816
C48	C	-0.276194	-0.913603	0.127184
C49	C	-0.803166	-1.484434	-0.301987
C50	C	-0.303166	-0.984434	0.198013
C51	C	-0.898972	-1.477490	-0.308902
C52	C	-0.398972	-0.977490	0.191098
C53	C	-0.680380	-1.420545	-0.365903
C54	C	-0.180380	-0.920545	0.134097
C55	C	-0.069441	-1.464895	-0.321557
C56	C	0.430559	-0.964895	0.178443
C57	C	0.024661	-1.471958	-0.314410
C58	C	0.524661	-0.971958	0.185590
C59	C	-0.321239	-1.411423	-0.615889
C60	C	0.178761	-0.911423	-0.115889
C61	C	-0.334926	-1.395490	-0.734941
C62	C	0.165074	-0.895490	-0.234941
C63	C	-0.257236	-0.728259	-0.300025
C64	C	0.242764	-0.228259	0.199975
C65	C	-0.243562	-0.847312	-0.284001
C66	C	0.256438	-0.347312	0.215999
C67	C	-0.282173	-1.457261	-0.775504
C68	C	0.217827	-0.957261	-0.275504
C69	C	-0.296318	-1.440795	-0.898551
C70	C	0.203682	-0.940795	-0.398551
C71	C	-0.257221	-1.486534	-0.058174
C72	C	0.242779	-0.986534	0.441826
C73	C	-0.243557	-1.502575	0.060891
C74	C	0.256443	-1.002575	0.560891
H75	H	-0.351897	-0.831576	-0.410943
H76	H	0.148103	-0.331576	0.089057
C77	C	-0.737165	-1.573405	-0.213061
C78	C	-0.237165	-1.073405	0.286939
H79	H	-0.680499	-1.566467	-0.220027
H80	H	-0.180499	-1.066467	0.279973
H81	H	-0.745117	-1.566413	-0.144210
H82	H	-0.245117	-1.066413	0.355790
H83	H	-0.745152	-1.642230	-0.220105
H84	H	-0.245152	-1.142230	0.279895
C85	C	-0.371486	-1.352879	-0.974680
C86	C	0.128514	-0.852879	-0.474680
H87	H	-0.402752	-1.316264	-0.933275
H88	H	0.097248	-0.816264	-0.433275
H89	H	-0.349430	-1.302786	-1.022296
H90	H	0.150570	-0.802786	-0.522296
H91	H	-0.408659	-1.385358	-1.015426
H92	H	0.091341	-0.885358	-0.515426
C93	C	-0.168444	-0.923403	-0.195979
C94	C	0.331556	-0.423403	0.304021
H95	H	-0.168800	-0.996124	-0.196386
H96	H	0.331200	-0.496124	0.303614
H97	H	-0.115448	-0.907137	-0.209861
H98	H	0.384552	-0.407137	0.290139
H99	H	-0.174754	-0.913900	-0.127377
H100	H	0.325246	-0.413900	0.372623
H101	H	-0.825052	-1.347755	-0.438642
H102	H	-0.325052	-0.847755	0.061358
H103	H	-0.226539	-1.522341	-0.719139
H104	H	0.273461	-1.022341	-0.219139
C105	C	-0.409997	-0.975463	-0.479011
C106	C	0.090003	-0.475463	0.020989
H107	H	-0.409647	-0.902744	-0.478591
H108	H	0.090353	-0.402744	0.021409
H109	H	-0.403701	-0.984963	-0.547613
H110	H	0.096299	-0.484963	-0.047613
H111	H	-0.462994	-0.991729	-0.465113
H112	H	0.037006	-0.491729	0.034887
C113	C	-0.168376	-1.590472	-0.862979
C114	C	0.331624	-1.090472	-0.362979
H115	H	-0.168720	-1.589997	-0.790266
H116	H	0.331280	-1.089997	-0.290266
H117	H	-0.174610	-1.659114	-0.872403
H118	H	0.325390	-1.159114	-0.372403
H119	H	-0.115409	-1.576509	-0.879292
H120	H	0.384591	-1.076509	-0.379292
H121	H	-0.390565	-1.330418	-0.791308
H122	H	0.109435	-0.830418	-0.291308
H123	H	-0.226552	-1.067293	-0.264077
H124	H	0.273448	-0.567293	0.235923
