data_functionalizedCrystal
_audit_creation_method	'MofGen! by Chris Wilmer'
_symmetry_space_group_name_H-M	'P1'
_symmetry_Int_Tables_number	1
_symmetry_cell_setting	triclinic
loop_
_symmetry_equiv_pos_as_xyz
  x,y,z
_cell_length_a	17.077404
_cell_length_b	25.639239
_cell_length_c	17.077396
_cell_angle_alpha	89.968926
_cell_angle_beta	89.980499
_cell_angle_gamma	90.038911
loop_
_atom_site_label
_atom_site_type_symbol
_atom_site_fract_x
_atom_site_fract_y
_atom_site_fract_z
Zn1	Zn	1.199968	-0.208148	-0.443829
Zn2	Zn	1.199839	-0.295585	-0.312557
Zn3	Zn	1.068700	-0.208166	-0.312576
Zn4	Zn	1.068632	-0.295554	-0.443780
O5	O	1.134285	-0.251863	-0.378185
O6	O	1.309798	-0.219752	-0.426427
O7	O	1.182418	-0.284010	-0.202712
O8	O	1.086196	-0.134998	-0.330016
O9	O	1.309703	-0.283992	-0.329982
O10	O	1.182638	-0.134985	-0.426446
O11	O	1.086071	-0.219783	-0.202727
O12	O	0.958844	-0.219753	-0.329969
O13	O	1.086080	-0.283939	-0.553634
O14	O	0.958794	-0.283957	-0.426364
O15	O	1.182572	-0.219722	-0.553669
O16	O	1.182352	-0.368746	-0.329935
O17	O	1.085954	-0.368724	-0.426345
C18	C	0.930337	-0.251854	-0.378164
C19	C	0.843087	-0.251862	-0.378173
C20	C	0.802092	-0.285344	-0.428285
C21	C	0.720111	-0.285345	-0.428298
C22	C	0.679128	-0.251867	-0.378194
C23	C	0.720129	-0.218382	-0.328079
C24	C	0.802108	-0.218378	-0.328071
C25	C	0.549259	-0.218392	-0.328098
C26	C	0.467275	-0.218396	-0.328105
C27	C	0.467262	-0.285358	-0.428325
C28	C	0.549241	-0.285355	-0.428317
C29	C	0.590237	-0.251871	-0.378201
C30	C	1.134153	-0.387706	-0.378150
C31	C	1.134168	-0.445820	-0.378160
C32	C	1.184610	-0.806182	-0.328071
C33	C	1.184641	-0.860787	-0.328081
O34	O	1.227391	-0.889023	-0.285454
N35	N	1.134423	-0.888102	-0.378237
C36	C	1.084177	-0.860811	-0.428392
O37	O	1.041467	-0.889059	-0.471056
C38	C	1.084151	-0.806208	-0.428385
C39	C	1.134367	-0.778895	-0.378220
C40	C	1.234822	-0.778869	-0.277910
C41	C	1.234790	-0.724269	-0.277899
C42	C	1.184547	-0.696981	-0.328048
C43	C	1.134335	-0.724294	-0.378209
C44	C	1.033910	-0.778917	-0.478543
C45	C	1.033889	-0.724310	-0.478532
C46	C	1.084104	-0.696997	-0.428367
C47	C	1.084060	-0.642406	-0.428346
N48	N	1.134278	-0.615090	-0.378190
C49	C	1.184521	-0.642378	-0.328041
C50	C	1.084236	-0.975482	-0.428404
C51	C	1.084258	-1.030084	-0.428408
C52	C	1.184722	-1.030056	-0.328098
C53	C	1.184696	-0.975452	-0.328091
C54	C	1.134454	-0.948166	-0.378248
C55	C	1.184450	-0.527713	-0.328020
C56	C	1.184412	-0.473107	-0.328011
C57	C	1.083951	-0.473140	-0.428324
C58	C	1.083986	-0.527741	-0.428331
C59	C	1.134242	-0.555026	-0.378176
O60	O	1.041334	-0.614135	-0.470954
O61	O	1.227232	-0.614123	-0.285392
C62	C	1.339029	-0.251873	-0.378208
C63	C	1.426279	-0.251877	-0.378217
C64	C	1.134333	-0.251825	-0.582930
C65	C	1.134353	-0.251808	-0.670180
C66	C	1.134439	-0.115490	-0.378239
C67	C	1.134505	-0.057376	-0.378261
C68	C	1.184598	-0.218368	-0.711190
C69	C	1.184608	-0.218350	-0.793170
C70	C	1.134375	-0.251777	-0.834139
C71	C	1.084124	-0.285219	-0.793123
C72	C	1.084111	-0.285233	-0.711144
C73	C	1.084156	-0.285187	-0.963994
C74	C	1.084169	-0.285174	-1.045978
C75	C	1.184652	-0.218304	-1.046019
C76	C	1.184639	-0.218319	-0.964040
C77	C	1.134389	-0.251762	-0.923030
C78	C	1.134283	-0.251864	-0.174238
C79	C	1.134415	-0.251733	-0.086988
H80	H	0.835454	-0.312607	-0.469084
H81	H	0.835486	-0.191112	-0.287269
O82	O	1.233669	-1.056492	-0.279426
C83	C	1.367254	-1.073099	-0.241526
C84	C	1.311900	-1.043129	-0.296678
H85	H	1.430516	-1.062314	-0.255465
H86	H	1.353582	-1.062386	-0.178201
H87	H	1.358639	-1.116818	-0.250118
H88	H	1.320484	-0.999402	-0.288155
H89	H	1.325586	-1.053885	-0.359983
H90	H	1.225506	-0.191150	-0.677838
O91	O	1.035447	-1.056532	-0.477206
C92	C	0.935766	-1.050781	-0.576666
C93	C	0.991014	-1.020767	-0.521449
H94	H	0.899815	-1.021879	-0.612438
H95	H	0.971754	-1.076287	-0.617806
H96	H	0.894787	-1.076405	-0.540584
H97	H	1.032004	-0.995116	-0.557467
H98	H	0.954977	-0.995295	-0.480306
H99	H	0.686754	-0.191121	-0.287287
O100	O	1.233351	-0.185770	-0.924285
C101	C	1.271574	-0.096838	-0.899297
C102	C	1.216349	-0.133643	-0.944350
H103	H	1.257859	-0.054686	-0.915516
H104	H	1.262935	-0.102542	-0.833649
H105	H	1.334857	-0.106045	-0.915415
H106	H	1.153044	-0.124459	-0.928298
H107	H	1.225055	-0.127932	-1.009987
O108	O	1.035478	-0.317690	-1.085817
C109	C	1.024828	-0.388229	-1.178400
C110	C	1.080064	-0.351449	-1.133314
H111	H	1.060853	-0.415524	-1.216824
H112	H	0.988912	-0.412169	-1.135050
H113	H	0.983815	-0.364191	-1.216745
H114	H	1.121124	-0.375445	-1.094968
H115	H	1.115924	-0.327506	-1.176706
H116	H	1.225375	-0.549922	-0.287182
O117	O	1.233448	-0.185937	-0.833099
C118	C	1.339466	-0.178885	-0.925659
C119	C	1.284196	-0.215656	-0.880500
H120	H	1.380521	-0.202899	-0.963981
H121	H	1.303496	-0.151548	-0.964090
H122	H	1.375334	-0.154983	-0.882288
H123	H	1.248316	-0.239592	-0.923815
H124	H	1.320211	-0.242959	-0.842057
H125	H	0.582636	-0.191121	-0.287296
H126	H	1.043040	-0.450914	-0.469153
H127	H	0.433908	-0.191129	-0.287315
O128	O	1.233382	-0.185827	-1.085973
C129	C	1.277951	-0.156177	-1.212285
C130	C	1.222717	-0.192974	-1.167131
H131	H	1.269359	-0.161950	-1.277909
H132	H	1.264205	-0.114011	-1.196231
H133	H	1.341228	-0.165355	-1.196134
H134	H	1.159421	-0.183842	-1.183258
H135	H	1.236531	-0.235129	-1.183189
O136	O	1.035418	-0.317744	-0.671214
C137	C	1.024775	-0.388367	-0.578653
C138	C	1.080010	-0.351574	-0.623813
H139	H	1.060807	-0.415734	-0.540331
H140	H	0.983766	-0.364394	-0.540222
H141	H	0.988855	-0.412235	-0.622024
H142	H	1.115981	-0.327698	-0.580498
H143	H	1.120968	-0.375576	-0.662256
H144	H	0.992977	-0.702096	-0.519379
H145	H	1.043221	-0.312433	-0.826487
H146	H	1.275682	-0.702034	-0.237052
O147	O	0.680379	-0.317849	-0.477080
C148	C	0.655307	-0.343342	-0.610534
C149	C	0.700362	-0.306503	-0.555376
H150	H	0.671434	-0.334174	-0.673849
H151	H	0.671401	-0.385495	-0.596684
H152	H	0.589677	-0.337607	-0.601900
H153	H	0.766002	-0.312191	-0.563980
H154	H	0.684202	-0.264364	-0.569240
O155	O	0.589090	-0.317929	-0.476875
C156	C	0.681635	-0.388496	-0.487235
C157	C	0.636539	-0.351649	-0.432151
H158	H	0.720020	-0.415760	-0.451099
H159	H	0.638291	-0.412467	-0.523045
H160	H	0.720019	-0.364510	-0.528353
H161	H	0.598154	-0.375595	-0.390985
H162	H	0.679925	-0.327677	-0.396396
O163	O	1.233269	-0.446657	-0.279254
C164	C	1.332884	-0.452402	-0.179728
C165	C	1.277608	-0.482419	-0.234914
H166	H	1.368735	-0.481302	-0.143852
H167	H	1.373948	-0.426807	-0.215760
H168	H	1.296843	-0.426868	-0.138676
H169	H	1.313586	-0.507981	-0.275977
H170	H	1.236542	-0.507981	-0.198833
O171	O	1.283656	-0.805290	-0.229115
C172	C	1.383321	-0.799481	-0.129644
C173	C	1.328046	-0.769500	-0.184862
H174	H	1.419236	-0.770558	-0.093863
H175	H	1.347356	-0.825069	-0.088512
H176	H	1.424331	-0.825018	-0.165726
H177	H	1.287024	-0.743934	-0.148843
H178	H	1.364059	-0.743945	-0.225996
H179	H	1.225586	-0.953217	-0.287242
O180	O	0.427322	-0.317834	-0.476987
C181	C	0.301023	-0.347538	-0.521389
C182	C	0.346161	-0.310724	-0.466259
H183	H	0.235397	-0.341810	-0.512722
H184	H	0.317123	-0.338411	-0.584725
H185	H	0.317141	-0.389679	-0.507492
H186	H	0.330067	-0.268571	-0.480084
H187	H	0.330057	-0.319896	-0.402939
O188	O	1.035532	-0.948954	-0.477206
C189	C	1.024860	-0.887250	-0.583144
C190	C	1.080105	-0.917266	-0.527938
H191	H	1.060875	-0.861615	-0.624164
H192	H	0.988989	-0.916133	-0.619046
H193	H	0.983806	-0.861753	-0.547047
H194	H	1.121207	-0.942763	-0.563974
H195	H	1.115921	-0.888354	-0.492033
H196	H	0.993016	-0.801146	-0.519390
O197	O	1.035331	-0.317732	-0.924277
C198	C	0.935670	-0.384056	-0.932883
C199	C	0.990922	-0.347229	-0.977959
H200	H	0.899739	-0.407907	-0.976266
H201	H	0.971654	-0.411434	-0.894529
H202	H	0.894673	-0.360061	-0.894473
H203	H	1.031930	-0.371183	-1.016412
H204	H	0.954889	-0.319851	-1.016264
H205	H	1.043099	-0.549980	-0.469182
