data_functionalizedCrystal
_audit_creation_method	'MofGen! by Chris Wilmer'
_symmetry_space_group_name_H-M	'P1'
_symmetry_Int_Tables_number	1
_symmetry_cell_setting	triclinic
loop_
_symmetry_equiv_pos_as_xyz
  x,y,z
_cell_length_a	12.645330
_cell_length_b	12.645331
_cell_length_c	12.645323
_cell_angle_alpha	89.978207
_cell_angle_beta	89.973156
_cell_angle_gamma	90.016671
loop_
_atom_site_label
_atom_site_type_symbol
_atom_site_fract_x
_atom_site_fract_y
_atom_site_fract_z
Zn1	Zn	-0.422039	1.620722	-0.599446
Zn2	Zn	0.077961	2.120722	-0.099446
Zn3	Zn	-0.599333	1.620606	-0.422186
Zn4	Zn	-0.099333	2.120606	0.077814
Zn5	Zn	-0.422081	1.443439	-0.422191
Zn6	Zn	0.077919	1.943439	0.077809
Zn7	Zn	-0.599258	1.443418	-0.599402
Zn8	Zn	-0.099258	1.943418	-0.099402
O9	O	-0.510678	1.532047	-0.510806
O10	O	-0.010678	2.032047	-0.010806
O11	O	-0.445572	1.769054	-0.575949
O12	O	0.054428	2.269054	-0.075949
O13	O	-0.575869	1.597065	-0.273840
O14	O	-0.075869	2.097065	0.226160
O15	O	-0.273728	1.467013	-0.445724
O16	O	0.226272	1.967013	0.054276
O17	O	-0.575829	1.768969	-0.445717
O18	O	-0.075829	2.268969	0.054283
O19	O	-0.273697	1.597262	-0.575953
O20	O	0.226303	2.097262	-0.075953
O21	O	-0.445643	1.466901	-0.273843
O22	O	0.054357	1.966901	0.226157
O23	O	-0.445570	1.295089	-0.445681
O24	O	0.054430	1.795089	0.054319
O25	O	-0.575700	1.466978	-0.747755
O26	O	-0.075700	1.966978	-0.247755
O27	O	-0.575741	1.295074	-0.575877
O28	O	-0.075741	1.795074	-0.075877
O29	O	-0.445499	1.597242	-0.747788
O30	O	0.054501	2.097242	-0.247788
O31	O	-0.747671	1.597045	-0.445674
O32	O	-0.247671	2.097045	0.054326
O33	O	-0.747615	1.466866	-0.575873
O34	O	-0.247615	1.966866	-0.075873
C35	C	-0.510653	1.256617	-0.510776
C36	C	-0.010653	1.756617	-0.010776
C37	C	-0.510667	1.138787	-0.510788
C38	C	-0.010667	1.638787	-0.010788
C39	C	-0.786108	1.531969	-0.510791
C40	C	-0.286108	2.031969	-0.010791
C41	C	-0.903938	1.532033	-0.510821
C42	C	-0.403938	2.032033	-0.010821
C43	C	-0.428400	0.971197	-0.429333
C44	C	0.071600	1.471197	0.070667
C45	C	-0.428613	1.093757	-0.428974
C46	C	0.071387	1.593757	0.071026
C47	C	-0.622343	1.094267	-0.480273
C48	C	-0.122343	1.594267	0.019727
C49	C	-0.621893	0.971668	-0.479717
C50	C	-0.121893	1.471668	0.020283
C51	C	-0.482323	0.971636	-0.623072
C52	C	0.017677	1.471636	-0.123072
C53	C	-0.479828	1.094241	-0.622448
C54	C	0.020172	1.594241	-0.122448
C55	C	-1.071511	1.450475	-0.592982
C56	C	-0.571511	1.950475	-0.092982
C57	C	-0.948951	1.450058	-0.592717
C58	C	-0.448951	1.950058	-0.092717
C59	C	-0.948535	1.501789	-0.399099
C60	C	-0.448535	2.001789	0.100901
C61	C	-1.071133	1.501292	-0.399597
C62	C	-0.571133	2.001292	0.100403
C63	C	-1.071028	1.644334	-0.539475
C64	C	-0.571028	2.144334	-0.039475
C65	C	-0.948421	1.643646	-0.541918
C66	C	-0.448421	2.143646	-0.041918
C67	C	-0.234173	1.532153	-0.510844
C68	C	0.265827	2.032153	-0.010844
C69	C	-0.116343	1.532198	-0.510861
C70	C	0.383657	2.032198	-0.010861
C71	C	-0.510586	1.532120	-0.787312
C72	C	-0.010586	2.032120	-0.287312
C73	C	-0.510547	1.532152	-0.905142
C74	C	-0.010547	2.032152	-0.405142
C75	C	-0.510704	1.808552	-0.510838
C76	C	-0.010704	2.308552	-0.010838
C77	C	-0.510715	1.926382	-0.510851
C78	C	-0.010715	2.426382	-0.010851
C79	C	-0.592441	1.450207	-0.950003
C80	C	-0.092441	1.950207	-0.450003
C81	C	-0.592133	1.449919	-1.072563
C82	C	-0.092133	1.949919	-0.572563
C83	C	-0.398649	1.502283	-1.073044
C84	C	0.101351	2.002283	-0.573044
C85	C	-0.399189	1.501655	-0.950446
C86	C	0.100811	2.001655	-0.450446
C87	C	-0.539437	1.644240	-0.950333
C88	C	-0.039437	2.144240	-0.450333
C89	C	-0.541835	1.643672	-1.072939
C90	C	-0.041835	2.143672	-0.572939
C91	C	-0.510693	1.532034	-0.235377
C92	C	-0.010693	2.032034	0.264623
C93	C	-0.510433	1.532208	-0.117547
C94	C	-0.010433	2.032208	0.382453
H95	H	-0.345802	1.123857	-0.448100
H96	H	0.154198	1.623857	0.051900
H97	H	-1.101870	1.671922	-0.619558
H98	H	-0.601870	2.171922	-0.119558
F99	F	-0.372419	1.132295	-0.652535
F100	F	0.127581	1.632295	-0.152535
F101	F	-1.108638	1.394149	-0.367914
F102	F	-0.608638	1.894149	0.132086
F103	F	-0.644221	1.679916	-0.909930
F104	F	-0.144221	2.179916	-0.409930
H105	H	-0.919716	1.366926	-0.573760
H106	H	-0.419716	1.866926	-0.073760
F107	F	-0.366102	1.396402	-1.113170
F108	F	0.133898	1.896402	-0.613170
H109	H	-0.919380	1.559426	-0.336240
H110	H	-0.419380	2.059426	0.163760
F111	F	-0.908529	1.395761	-0.366841
F112	F	-0.408529	1.895761	0.133159
F113	F	-0.560686	0.933757	-0.702462
F114	F	-0.060686	1.433757	-0.202462
F115	F	-1.109905	1.575708	-0.316889
F116	F	-0.609905	2.075708	0.183111
H117	H	-0.675012	1.468602	-1.102653
H118	H	-0.175012	1.968602	-0.602653
F119	F	-0.649366	1.673178	-1.110956
F120	F	-0.149366	2.173178	-0.610956
F121	F	-0.908356	1.727426	-0.469439
F122	F	-0.408356	2.227426	0.030561
F123	F	-0.653361	0.934225	-0.372486
F124	F	-0.153361	1.434225	0.127514
H125	H	-0.479786	1.705289	-0.921328
H126	H	0.020214	2.205289	-0.421328
F127	F	-1.109953	1.474975	-0.701619
F128	F	-0.609953	1.974975	-0.201619
F129	F	-0.567712	1.342263	-0.909739
F130	F	-0.067712	1.842263	-0.409739
F131	F	-0.319831	0.932686	-0.454061
F132	F	0.180169	1.432686	0.045939
H133	H	-0.486539	1.707980	-1.103564
H134	H	0.013461	2.207980	-0.603564
H135	H	-0.919268	1.666453	-0.624140
H136	H	-0.419268	2.166453	-0.124140
H137	H	-0.335930	1.560155	-1.102181
H138	H	0.164070	2.060155	-0.602181
H139	H	-1.100019	1.705220	-0.479663
H140	H	-0.600019	2.205220	0.020337
F141	F	-0.453137	1.132032	-0.320277
F142	F	0.046863	1.632032	0.179723
F143	F	-0.452639	0.930861	-0.321278
F144	F	0.047361	1.430861	0.178722
H145	H	-0.675612	1.468654	-0.920527
H146	H	-0.175612	1.968654	-0.420527
H147	H	-0.572951	1.366879	-1.101889
H148	H	-0.072951	1.866879	-0.601889
F149	F	-0.909531	1.474788	-0.700997
F150	F	-0.409531	1.974788	-0.200997
F151	F	-0.367240	1.394578	-0.913062
F152	F	0.132760	1.894578	-0.413062
F153	F	-1.111918	1.342497	-0.568537
F154	F	-0.611918	1.842497	-0.068537
F155	F	-0.316689	1.576302	-0.911651
F156	F	0.183311	2.076302	-0.411651
H157	H	-0.535408	1.124898	-0.686433
H158	H	-0.035408	1.624898	-0.186433
H159	H	-0.685313	1.123435	-0.537783
H160	H	-0.185313	1.623435	-0.037783
F161	F	-0.704774	0.932916	-0.553933
F162	F	-0.204774	1.432916	-0.053933
H163	H	-0.646833	1.124924	-0.399115
H164	H	-0.146833	1.624924	0.100885
H165	H	-0.402311	0.940739	-0.650823
H166	H	0.097689	1.440739	-0.150823
