data_functionalizedCrystal
_audit_creation_method	'MofGen! by Chris Wilmer'
_symmetry_space_group_name_H-M	'P1'
_symmetry_Int_Tables_number	1
_symmetry_cell_setting	triclinic
loop_
_symmetry_equiv_pos_as_xyz
  x,y,z
_cell_length_a	19.121102
_cell_length_b	18.050589
_cell_length_c	18.050582
_cell_angle_alpha	90.018205
_cell_angle_beta	87.546607
_cell_angle_gamma	92.417299
loop_
_atom_site_label
_atom_site_type_symbol
_atom_site_fract_x
_atom_site_fract_y
_atom_site_fract_z
Zn1	Zn	1.073672	0.344221	-0.468310
Zn2	Zn	1.407005	0.677554	-0.134977
Zn3	Zn	1.740339	1.010887	0.198357
Zn4	Zn	1.073587	0.468400	-0.344126
Zn5	Zn	1.406921	0.801734	-0.010792
Zn6	Zn	1.740254	1.135067	0.322541
Zn7	Zn	0.956231	0.338926	-0.338843
Zn8	Zn	1.289565	0.672259	-0.005510
Zn9	Zn	1.622898	1.005592	0.327824
Zn10	Zn	0.956182	0.463065	-0.462984
Zn11	Zn	1.289515	0.796398	-0.129651
Zn12	Zn	1.622849	1.129731	0.203682
O13	O	1.014918	0.403653	-0.403566
O14	O	1.348251	0.736986	-0.070232
O15	O	1.681585	1.070319	0.263101
O16	O	1.171944	0.365142	-0.456277
O17	O	1.505278	0.698476	-0.122943
O18	O	1.838611	1.031809	0.210390
O19	O	1.058005	0.451242	-0.239500
O20	O	1.391338	0.784575	0.093834
O21	O	1.724672	1.117909	0.427167
O22	O	0.971866	0.235706	-0.356035
O23	O	1.305199	0.569039	-0.022701
O24	O	1.638533	0.902373	0.310632
O25	O	1.171882	0.456376	-0.365039
O26	O	1.505216	0.789710	-0.031705
O27	O	1.838549	1.123043	0.301628
O28	O	1.058149	0.239596	-0.451154
O29	O	1.391482	0.572930	-0.117821
O30	O	1.724816	0.906263	0.215513
O31	O	0.971784	0.356118	-0.235618
O32	O	1.305117	0.689451	0.097715
O33	O	1.638451	1.022784	0.431048
O34	O	0.857941	0.350944	-0.350871
O35	O	1.191274	0.684277	-0.017537
O36	O	1.524608	1.017611	0.315796
O37	O	0.971782	0.447283	-0.567616
O38	O	1.305115	0.780616	-0.234283
O39	O	1.638449	1.113949	0.099050
O40	O	0.857905	0.442148	-0.442077
O41	O	1.191238	0.775482	-0.108744
O42	O	1.524571	1.108815	0.224590
O43	O	1.058101	0.359969	-0.571529
O44	O	1.391435	0.693302	-0.238196
O45	O	1.724768	1.026635	0.095138
O46	O	1.057957	0.571614	-0.359875
O47	O	1.391291	0.904948	-0.026541
O48	O	1.724624	1.238281	0.306792
O49	O	0.971700	0.567694	-0.447200
O50	O	1.305034	0.901028	-0.113866
O51	O	1.638367	1.234361	0.219467
C52	C	1.014833	0.596601	-0.403550
C53	C	1.348167	0.929934	-0.070216
C54	C	1.681500	1.263268	0.263117
C55	C	1.014861	0.679148	-0.403570
C56	C	1.348195	1.012482	-0.070237
C57	C	1.681528	1.345815	0.263096
C58	C	0.832439	0.395393	-0.395323
C59	C	1.165772	0.728727	-0.061990
C60	C	1.499106	1.062060	0.271343
C61	C	0.754374	0.391878	-0.391815
C62	C	1.087707	0.725211	-0.058481
C63	C	1.421040	1.058544	0.274852
C64	C	1.014946	0.403621	-0.597273
C65	C	1.348279	0.736954	-0.263939
C66	C	1.681612	1.070288	0.069394
C67	C	1.014957	0.403608	-0.679819
C68	C	1.348291	0.736941	-0.346486
C69	C	1.681624	1.070274	-0.013152
C70	C	0.717698	0.437783	-0.437578
C71	C	1.051031	0.771116	-0.104245
C72	C	1.384364	1.104450	0.229089
C73	C	0.644347	0.434470	-0.434285
C74	C	0.977680	0.767803	-0.100951
C75	C	1.311014	1.101136	0.232382
C76	C	0.607673	0.385255	-0.385224
C77	C	0.941007	0.718588	-0.051891
C78	C	1.274340	1.051921	0.281443
C79	C	0.644354	0.339345	-0.339459
C80	C	0.977688	0.672678	-0.006126
C81	C	1.311021	1.006011	0.327208
C82	C	0.717704	0.342654	-0.342756
C83	C	1.051037	0.675988	-0.009423
C84	C	1.384370	1.009321	0.323910
C85	C	0.386206	0.372879	-0.372900
C86	C	0.719539	0.706212	-0.039566
C87	C	1.052872	1.039545	0.293767
C88	C	0.312851	0.369574	-0.369604
C89	C	0.646184	0.702907	-0.036271
C90	C	0.979518	1.036240	0.297063
C91	C	0.312849	0.464698	-0.464431
C92	C	0.646182	0.798032	-0.131098
C93	C	0.979516	1.131365	0.202235
C94	C	0.386200	0.468007	-0.467721
C95	C	0.719533	0.801340	-0.134388
C96	C	1.052866	1.134674	0.198945
C97	C	0.422874	0.422094	-0.421959
C98	C	0.756208	0.755427	-0.088626
C99	C	1.089541	1.088761	0.244708
C100	C	0.532697	0.381869	-0.381855
C101	C	0.866030	0.715202	-0.048522
C102	C	1.199364	1.048535	0.284812
C103	C	0.497849	0.425477	-0.425332
C104	C	0.831182	0.758810	-0.091999
C105	C	1.164516	1.092143	0.241335
C106	C	1.198110	0.411945	-0.411841
C107	C	1.531443	0.745279	-0.078508
C108	C	1.864777	1.078612	0.254826
C109	C	1.276175	0.415479	-0.415367
C110	C	1.609509	0.748812	-0.082034
C111	C	1.942842	1.082146	0.251299
C112	C	1.015022	0.209952	-0.403599
C113	C	1.348356	0.543285	-0.070266
C114	C	1.681689	0.876619	0.263068
C115	C	1.015067	0.127408	-0.403613
C116	C	1.348400	0.460741	-0.070280
C117	C	1.681733	0.794075	0.263053
C118	C	0.968001	0.876496	-0.451043
C119	C	1.301334	1.209829	-0.117709
C120	C	1.634667	1.543163	0.215624
C121	C	0.950885	0.925157	-0.382504
C122	C	1.284219	1.258490	-0.049171
C123	C	1.617552	1.591823	0.284163
C124	C	1.014930	0.830282	-0.403583
C125	C	1.348264	1.163615	-0.070250
C126	C	1.681597	1.496948	0.263083
C127	C	1.032080	0.928704	-0.472131
C128	C	1.365414	1.262038	-0.138798
C129	C	1.698747	1.595371	0.194536
C130	C	1.014996	0.976270	-0.403602
C131	C	1.348329	1.309603	-0.070268
C132	C	1.681662	1.642936	0.263065
C133	C	0.997781	0.877853	-0.335007
C134	C	1.331114	1.211187	-0.001674
C135	C	1.664448	1.544520	0.331659
C136	C	1.079006	0.881398	-0.424681
C137	C	1.412339	1.214731	-0.091348
C138	C	1.745673	1.548065	0.241985
C139	C	1.061915	0.930037	-0.356097
C140	C	1.395248	1.263371	-0.022764
C141	C	1.728582	1.596704	0.310569
C142	C	1.014891	0.746182	-0.403574
C143	C	1.348224	1.079515	-0.070240
C144	C	1.681558	1.412848	0.263093
C145	C	1.015035	1.060368	-0.403604
C146	C	1.348369	1.393701	-0.070270
C147	C	1.681702	1.727035	0.263063
C148	C	0.968053	0.451023	-0.877144
C149	C	1.301386	0.784356	-0.543810
C150	C	1.634720	1.117690	-0.210477
C151	C	1.032131	0.472072	-0.929423
C152	C	1.365464	0.805405	-0.596090
C153	C	1.698797	1.138738	-0.262757
C154	C	1.014992	0.403553	-0.830951
C155	C	1.348325	0.736886	-0.497618
C156	C	1.681659	1.070219	-0.164284
C157	C	0.950950	0.382485	-0.925755
C158	C	1.284283	0.715818	-0.592421
C159	C	1.617616	1.049151	-0.259088
C160	C	1.015020	0.403500	-0.976938
C161	C	1.348353	0.736834	-0.643604
C162	C	1.681687	1.070167	-0.310271
C163	C	1.079103	0.424638	-0.882145
C164	C	1.412437	0.757972	-0.548812
C165	C	1.745770	1.091305	-0.215478
C166	C	0.997879	0.335018	-0.878470
C167	C	1.331212	0.668351	-0.545137
C168	C	1.664546	1.001684	-0.211803
C169	C	1.062001	0.356043	-0.930729
C170	C	1.395334	0.689376	-0.597396
C171	C	1.728668	1.022710	-0.264063
C172	C	1.014975	0.403584	-0.746852
C173	C	1.348308	0.736918	-0.413519
C174	C	1.681642	1.070251	-0.080185
C175	C	1.015044	0.403469	-1.061035
C176	C	1.348377	0.736802	-0.727702
C177	C	1.681711	1.070135	-0.394369
C178	C	1.014931	0.403633	-0.210614
C179	C	1.348265	0.736966	0.122719
C180	C	1.681598	1.070299	0.456052
C181	C	1.015056	0.403443	-0.128075
C182	C	1.348389	0.736776	0.205259
C183	C	1.681722	1.070110	0.538592
H184	H	0.614489	0.471851	-0.471549
H185	H	0.947822	0.805185	-0.138216
H186	H	1.281156	1.138518	0.195117
O187	O	0.273278	0.316499	-0.316688
O188	O	0.606612	0.649832	0.016646
O189	O	0.939945	0.983165	0.349979
H190	H	0.287363	0.258859	-0.330156
H191	H	0.620696	0.592193	0.003177
H192	H	0.954029	0.925526	0.336510
H193	H	0.527712	0.465544	-0.465280
H194	H	0.861045	0.798878	-0.131947
H195	H	1.194379	1.132211	0.201387
H196	H	0.502829	0.341799	-0.341908
H197	H	0.836163	0.675133	-0.008575
H198	H	1.169496	1.008466	0.324758
O199	O	1.051328	0.548809	-0.959050
O200	O	1.384661	0.882143	-0.625716
O201	O	1.717994	1.215476	-0.292383
H202	H	1.012278	0.588135	-0.937532
H203	H	1.345611	0.921468	-0.604199
H204	H	1.678945	1.254802	-0.270865
H205	H	0.928256	0.853053	-0.491115
H206	H	1.261589	1.186387	-0.157782
H207	H	1.594922	1.519720	0.175551
O208	O	0.879149	0.950746	-0.358863
O209	O	1.212482	1.284079	-0.025530
O210	O	1.545815	1.617412	0.307804
H211	H	0.840258	0.929250	-0.398332
H212	H	1.173591	1.262583	-0.064999
H213	H	1.506924	1.595917	0.268334
H214	H	0.614489	0.299269	-0.299516
H215	H	0.947822	0.632603	0.033817
H216	H	1.281155	0.965936	0.367151
H217	H	0.983239	0.855630	-0.277026
H218	H	1.316572	1.188963	0.056307
H219	H	1.649906	1.522297	0.389641
O220	O	1.114651	0.302839	-0.961635
O221	O	1.447984	0.636172	-0.628302
O222	O	1.781317	0.969505	-0.294969
H223	H	1.167748	0.320477	-0.944142
H224	H	1.501081	0.653810	-0.610809
H225	H	1.834415	0.987143	-0.277476
H226	H	0.928395	0.491224	-0.853688
H227	H	1.261729	0.824557	-0.520354
H228	H	1.595062	1.157890	-0.187021
O229	O	0.425756	0.521082	-0.520643
O230	O	0.759089	0.854415	-0.187310
O231	O	1.092422	1.187749	0.146024
H232	H	0.387929	0.552442	-0.551919
H233	H	0.721262	0.885775	-0.218585
H234	H	1.054596	1.219108	0.114748
O235	O	1.114525	0.960914	-0.302889
O236	O	1.447859	1.294247	0.030445
O237	O	1.781192	1.627581	0.363778
H238	H	1.100152	0.940412	-0.246068
H239	H	1.433485	1.273746	0.087266
H240	H	1.766819	1.607079	0.420599
H241	H	1.133291	0.442501	-0.862985
H242	H	1.466624	0.775835	-0.529652
H243	H	1.799957	1.109168	-0.196319
H244	H	0.983369	0.277097	-0.856096
H245	H	1.316703	0.610430	-0.522763
H246	H	1.650036	0.943764	-0.189430
O247	O	1.150807	0.855955	-0.448256
O248	O	1.484140	1.189289	-0.114922
O249	O	1.817473	1.522622	0.218411
H250	H	1.164928	0.876363	-0.505166
H251	H	1.498262	1.209696	-0.171832
H252	H	1.831595	1.543030	0.161501
H253	H	1.046560	0.951014	-0.530094
H254	H	1.379893	1.284348	-0.196761
H255	H	1.713227	1.617681	0.136573
O256	O	0.425744	0.323364	-0.323527
O257	O	0.759077	0.656697	0.009806
O258	O	1.092410	0.990031	0.343139
H259	H	0.459184	0.287120	-0.358323
H260	H	0.792517	0.620454	-0.024989
H261	H	1.125850	0.953787	0.308344
O262	O	0.879196	0.358897	-0.951252
O263	O	1.212529	0.692230	-0.617919
O264	O	1.545862	1.025564	-0.284585
H265	H	0.840322	0.398408	-0.929724
H266	H	1.173655	0.731741	-0.596390
H267	H	1.506989	1.065075	-0.263057
O268	O	0.757261	0.293140	-0.293396
O269	O	1.090594	0.626474	0.039938
O270	O	1.423928	0.959807	0.373271
H271	H	0.814426	0.303703	-0.303936
H272	H	1.147760	0.637037	0.029397
H273	H	1.481093	0.970370	0.362731
O274	O	0.757252	0.490862	-0.490497
O275	O	1.090586	0.824195	-0.157163
O276	O	1.423919	1.157529	0.176170
H277	H	0.719423	0.522219	-0.521771
H278	H	1.052757	0.855553	-0.188438
H279	H	1.386090	1.188886	0.144896
H280	H	0.282981	0.502077	-0.501689
H281	H	0.616314	0.835410	-0.168356
H282	H	0.949647	1.168744	0.164977
