data_functionalizedCrystal
_audit_creation_method	'MofGen! by Chris Wilmer'
_symmetry_space_group_name_H-M	'P1'
_symmetry_Int_Tables_number	1
_symmetry_cell_setting	triclinic
loop_
_symmetry_equiv_pos_as_xyz
  x,y,z
_cell_length_a	19.851628
_cell_length_b	14.395555
_cell_length_c	14.395555
_cell_angle_alpha	60.002398
_cell_angle_beta	90.001047
_cell_angle_gamma	60.001403
loop_
_atom_site_label
_atom_site_type_symbol
_atom_site_fract_x
_atom_site_fract_y
_atom_site_fract_z
Zr1	Zr	0.648861	1.016933	-0.121963
O2	O	0.541299	1.210712	-0.270281
O3	O	0.681839	0.823136	-0.076494
O4	O	0.681832	1.016931	-0.270289
O5	O	0.541305	1.016924	0.076381
O6	O	0.792681	1.016949	-0.270298
O7	O	0.541306	1.016917	-0.076486
O8	O	0.792693	0.670286	0.076366
O9	O	0.541293	1.363588	-0.270282
O10	O	0.778623	0.902867	-0.057111
O11	O	0.695897	0.902859	0.056979
O12	O	0.695889	1.131027	-0.171190
O13	O	0.613163	1.131019	-0.057100
Zr14	Zr	0.825650	1.016972	0.121829
Zr15	Zr	0.825652	1.016961	-0.121977
Zr16	Zr	0.648859	1.016944	0.121842
Zr17	Zr	0.648851	1.260752	-0.121966
Zr18	Zr	0.825660	0.773153	0.121831
O19	O	0.792672	1.210769	0.076360
O20	O	0.792673	1.210753	-0.270300
O21	O	0.541298	1.210728	0.076379
O22	O	0.933211	0.823193	0.270146
O23	O	0.933213	0.823177	-0.076514
O24	O	0.681837	0.823152	0.270166
O25	O	0.933205	1.016981	-0.076516
O26	O	0.792678	1.016974	0.270155
O27	O	0.681830	1.016956	0.270164
O28	O	0.933205	1.016988	0.076351
O29	O	0.681819	1.363611	-0.270293
O30	O	0.792692	0.670294	0.270159
O31	O	0.933218	0.670317	0.270148
O32	O	0.933219	0.670308	0.076355
O33	O	0.541292	1.363597	-0.076489
O34	O	0.681817	1.363619	-0.076500
O35	O	0.778622	0.902877	0.171055
O36	O	0.861347	0.902886	0.056966
O37	O	0.778614	1.131046	-0.057113
O38	O	0.695888	1.131038	0.056976
C39	C	0.737268	0.711972	-0.000064
C40	C	0.737272	0.608464	-0.000063
C41	C	0.782370	0.547891	-0.062280
C42	C	0.815058	0.409792	0.044985
C43	C	0.704588	0.562128	-0.107316
C44	C	0.770006	0.471666	0.107265
C45	C	0.659492	0.624076	-0.045113
C46	C	0.692161	0.485987	0.062216
C47	C	0.516117	1.016917	-0.000050
C48	C	0.441064	1.016904	-0.000044
C49	C	0.304808	0.892531	0.062142
C50	C	0.237357	0.954720	0.107230
C51	C	0.303633	1.016939	-0.000059
C52	C	0.237350	0.954742	-0.045108
C53	C	0.170884	1.016962	-0.000072
C54	C	0.237170	1.079128	0.045091
C55	C	0.237173	1.079132	-0.107306
C56	C	0.169709	1.141412	-0.062245
C57	C	0.380108	1.016921	-0.000049
C58	C	0.094407	1.016989	-0.000081
C59	C	0.958394	1.016988	-0.000084
C60	C	1.033446	1.017000	-0.000090
C61	C	0.737257	1.016939	-0.305031
C62	C	0.737258	1.016934	-0.408533
C63	C	0.737243	1.321933	-0.000070
C64	C	0.737239	1.425441	-0.000071
C65	C	0.782372	0.892531	-0.406920
C66	C	0.704583	0.954712	-0.499937
C67	C	0.815027	0.954759	-0.499945
C68	C	0.659423	1.079115	-0.500186
C69	C	0.769923	1.079144	-0.500179
C70	C	0.692088	1.141416	-0.593213
C71	C	0.737254	1.016966	0.304896
C72	C	0.737253	1.016971	0.408398
C73	C	0.958406	0.712008	-0.000081
C74	C	1.033463	0.608512	-0.000086
C75	C	0.737266	0.711986	0.304900
C76	C	0.737270	0.608483	0.408403
C77	C	0.958405	0.712022	0.304883
C78	C	1.033461	0.608531	0.408380
C79	C	0.516106	1.321883	-0.305017
C80	C	0.441050	1.425374	-0.408514
C81	C	0.516105	1.321897	-0.000053
C82	C	0.441048	1.425393	-0.000049
C83	C	0.737245	1.321919	-0.305034
C84	C	0.737241	1.425422	-0.408537
C85	C	1.025529	0.559900	-0.059645
C86	C	1.096046	0.462669	-0.059672
C87	C	1.174496	0.414045	-0.000133
C88	C	1.182428	0.462666	0.059428
C89	C	1.111912	0.559903	0.059448
C90	C	1.111897	0.559935	0.397430
C91	C	1.182427	0.462708	0.494667
C92	C	1.174519	0.414072	0.602853
C93	C	1.096074	0.462678	0.613801
C94	C	1.025546	0.559909	0.516565
C95	C	0.362614	1.473982	-0.397564
C96	C	0.292084	1.571239	-0.494801
C97	C	0.299992	1.619880	-0.602987
C98	C	0.378437	1.571268	-0.613935
C99	C	0.448965	1.474019	-0.516699
C100	C	0.448982	1.474015	0.059500
C101	C	0.378465	1.571273	0.059501
C102	C	0.300015	1.619901	-0.000042
C103	C	0.292083	1.571274	-0.059599
C104	C	0.362599	1.474024	-0.059605
C105	C	0.692165	0.547888	0.406792
C106	C	0.769959	0.409798	0.499805
C107	C	0.659509	0.562119	0.499820
C108	C	0.815109	0.471693	0.500053
C109	C	0.704603	0.624088	0.500052
C110	C	0.782444	0.486007	0.593083
H111	H	0.880822	0.318173	0.083091
H112	H	0.676949	0.902127	-0.500866
H113	H	0.593622	1.131647	-0.499359
O114	O	0.646451	1.267090	-0.688094
C115	C	0.614076	1.354824	-0.656175
H116	H	0.611331	1.303162	-0.566633
H117	H	0.549312	1.443565	-0.718259
H118	H	0.655403	1.388691	-0.657824
H119	H	1.118352	0.599520	0.309348
H120	H	0.236687	0.902143	0.197923
O121	O	0.231537	1.714214	-0.697520
C122	C	0.231643	1.666678	-0.762663
H123	H	0.297498	1.583981	-0.741423
H124	H	0.205672	1.749740	-0.856999
H125	H	0.191846	1.627876	-0.742245
O126	O	0.386165	1.618240	-0.719000
C127	C	0.429603	1.514403	-0.731407
H128	H	0.468592	1.417167	-0.643847
H129	H	0.471454	1.529069	-0.782701
H130	H	0.383890	1.513008	-0.777705
H131	H	1.246312	0.423062	0.107903
O132	O	0.949309	0.607080	0.527065
C133	C	0.905948	0.583258	0.474421
H134	H	0.932865	0.571172	0.408130
H135	H	0.838074	0.669613	0.431265
H136	H	0.911839	0.489730	0.541296
H137	H	0.356127	1.434439	-0.108094
H138	H	0.512830	1.434444	-0.525629
O139	O	1.258560	0.415599	0.483814
C140	C	1.250407	0.479393	0.367474
H141	H	1.187473	0.519444	0.315638
H142	H	1.300979	0.406448	0.353907
H143	H	1.256176	0.563869	0.338800
H144	H	0.797576	1.131684	-0.499207
O145	O	0.949390	0.607020	-0.117587
C146	C	0.957525	0.543227	-0.170134
H147	H	1.020456	0.503167	-0.181927
H148	H	0.906947	0.616176	-0.256637
H149	H	0.951752	0.458758	-0.114330
H150	H	0.512854	1.434430	0.107995
O151	O	0.646604	0.580229	0.311723
C152	C	0.564973	0.626891	0.311634
H153	H	0.564222	0.587508	0.402500
H154	H	0.539750	0.592046	0.274844
H155	H	0.524938	0.738848	0.257489
O156	O	0.386035	1.618665	0.117274
C157	C	0.306979	1.714907	0.104544
H158	H	0.260227	1.757467	0.024106
H159	H	0.307776	1.796698	0.097750
H160	H	0.289009	1.668382	0.181481
H161	H	0.242603	1.699088	-0.000028
O162	O	0.215812	1.618615	-0.117330
C163	C	0.155284	1.714892	-0.104562
H164	H	0.182785	1.698919	-0.024138
H165	H	0.100901	1.706996	-0.097716
H166	H	0.133219	1.816609	-0.181505
H167	H	1.089571	0.423093	-0.108174
O168	O	1.243119	0.319573	0.697186
C169	C	1.314041	0.287141	0.664308
H170	H	1.297838	0.313945	0.574540
H171	H	1.363854	0.177231	0.725732
H172	H	1.337781	0.344017	0.666066
O173	O	0.238164	1.141622	-0.215410
C174	C	0.309890	1.054253	-0.223935
H175	H	0.359038	0.972946	-0.136064
H176	H	0.334024	1.109898	-0.283209
H177	H	0.294608	1.009267	-0.259424
O178	O	0.802810	0.300601	0.500774
C179	C	0.755077	0.332372	0.403684
H180	H	0.690161	0.423872	0.370922
H181	H	0.751729	0.246915	0.426964
H182	H	0.784741	0.352018	0.334659
H183	H	0.676961	0.599319	-0.198015
O184	O	0.238024	1.141716	0.090686
C185	C	0.309329	1.140929	0.090160
H186	H	0.358575	1.056364	0.087293
H187	H	0.333665	1.127897	0.170534
H188	H	0.293407	1.237886	0.012230
H189	H	1.089647	0.423064	0.701899
H190	H	0.880909	0.434327	0.499223
H191	H	0.356159	1.434384	-0.309482
H192	H	0.228218	1.610803	-0.485865
H193	H	0.820648	0.458986	0.672708
O194	O	0.671471	0.733475	0.498836
C195	C	0.589441	0.782099	0.497405
H196	H	0.564188	0.746433	0.461736
H197	H	0.549996	0.894064	0.441610
H198	H	0.587807	0.745120	0.587710
H199	H	0.236692	0.902136	-0.083203
H200	H	0.797708	0.434285	0.198008
O201	O	0.893537	0.891848	-0.500831
C202	C	0.940871	0.760702	-0.403761
H203	H	0.911392	0.752804	-0.334616
H204	H	1.006103	0.728959	-0.371192
H205	H	0.943393	0.694298	-0.426981
H206	H	1.231908	0.334867	-0.000157
O207	O	0.581001	0.606704	0.500761
C208	C	0.525868	0.735764	0.402597
H209	H	0.560181	0.783168	0.368716
H210	H	0.473791	0.795574	0.424905
H211	H	0.499049	0.732913	0.334795
H212	H	0.820567	0.574975	-0.114803
H213	H	0.654018	0.458956	0.114900
H214	H	0.593743	0.715717	-0.083244
H215	H	0.111964	1.246690	-0.114840
O216	O	0.373898	0.767126	0.124884
C217	C	0.444304	0.768811	0.123239
H218	H	0.427340	0.866228	0.044788
H219	H	0.494234	0.684616	0.120494
H220	H	0.468270	0.756949	0.203101
O221	O	1.119524	0.607077	0.117409
C222	C	1.081350	0.583252	0.201024
H223	H	1.033278	0.571167	0.175986
H224	H	1.050054	0.669605	0.208274
H225	H	1.129846	0.489723	0.286424
H226	H	0.820459	0.787340	-0.327162
