data_functionalizedCrystal
_audit_creation_method	'MofGen! by Chris Wilmer'
_symmetry_space_group_name_H-M	'P1'
_symmetry_Int_Tables_number	1
_symmetry_cell_setting	triclinic
loop_
_symmetry_equiv_pos_as_xyz
  x,y,z
_cell_length_a	13.032831
_cell_length_b	19.805405
_cell_length_c	19.805399
_cell_angle_alpha	90.029301
_cell_angle_beta	97.189586
_cell_angle_gamma	82.830509
loop_
_atom_site_label
_atom_site_type_symbol
_atom_site_fract_x
_atom_site_fract_y
_atom_site_fract_z
Zn1	Zn	-1.597580	0.401093	-0.513861
Zn2	Zn	-1.597448	0.514271	-0.400659
Zn3	Zn	-1.422827	0.386715	-0.386340
Zn4	Zn	-1.422771	0.499844	-0.499466
O5	O	-1.510157	0.450481	-0.450082
O6	O	-1.743800	0.428162	-0.510862
O7	O	-1.574253	0.497371	-0.304040
O8	O	-1.446087	0.293913	-0.403288
O9	O	-1.743703	0.511313	-0.427692
O10	O	-1.574477	0.304476	-0.496977
O11	O	-1.445960	0.403656	-0.293520
O12	O	-1.276582	0.389667	-0.389329
O13	O	-1.445991	0.486725	-0.596095
O14	O	-1.276541	0.472783	-0.472442
O15	O	-1.574423	0.414173	-0.606671
O16	O	-1.574198	0.607067	-0.413734
O17	O	-1.445864	0.596468	-0.486327
C18	C	-1.238644	0.428100	-0.427770
C19	C	-1.122489	0.418541	-0.418242
C20	C	-1.510039	0.626327	-0.450039
C21	C	-1.510084	0.701563	-0.450051
C22	C	-1.782730	0.472950	-0.472480
C23	C	-1.898884	0.482525	-0.482025
C24	C	-1.070711	0.455470	-0.455055
C25	C	-0.950660	0.445592	-0.445207
C26	C	-1.510215	0.450443	-0.626629
C27	C	-1.510240	0.450427	-0.701863
C28	C	-1.510303	0.273950	-0.450141
C29	C	-1.510366	0.198724	-0.450167
C30	C	-1.576973	0.742409	-0.412303
C31	C	-1.577018	0.813101	-0.412321
C32	C	-1.510167	0.842945	-0.450085
C33	C	-1.443275	0.802094	-0.487838
C34	C	-1.443237	0.731404	-0.487823
C35	C	-1.443429	1.087180	-0.487901
C36	C	-1.443471	1.157876	-0.487912
C37	C	-1.577210	1.168877	-0.412400
C38	C	-1.577172	1.098187	-0.412384
C39	C	-1.510284	1.057342	-0.450140
C40	C	-1.510238	0.980690	-0.450120
C41	C	-1.510207	0.919596	-0.450101
C42	C	-1.577116	0.412647	-0.742716
C43	C	-1.577127	0.412629	-0.813405
C44	C	-1.510266	0.450394	-0.843241
C45	C	-1.443383	0.488175	-0.802383
C46	C	-1.443368	0.488190	-0.731695
C47	C	-1.443442	0.488117	-1.087461
C48	C	-1.443465	0.488101	-1.158155
C49	C	-1.577201	0.412556	-1.169172
C50	C	-1.577186	0.412570	-1.098483
C51	C	-1.510299	0.450348	-1.057631
C52	C	-1.510287	0.450367	-0.980982
C53	C	-1.510283	0.450379	-0.919890
C54	C	-1.510158	0.450475	-0.274226
C55	C	-1.510336	0.450317	-0.199009
H56	H	-1.115260	0.494396	-0.493864
H57	H	-1.388940	0.518921	-0.826681
C58	C	-1.650513	0.709587	-0.370757
N59	N	-1.705908	0.684868	-0.339465
H60	H	-1.388771	0.698147	-0.518563
H61	H	-1.388994	0.518889	-1.054209
C62	C	-1.650668	0.371101	-0.709903
N63	N	-1.706066	0.339804	-0.685190
C64	C	-0.890486	0.392996	-0.392777
N65	N	-0.845161	0.353382	-0.353286
C66	C	-0.959056	0.535121	-0.534457
N67	N	-1.004378	0.574736	-0.573947
H68	H	-1.388849	0.826399	-0.518590
H69	H	-1.077941	0.379610	-0.379437
C70	C	-1.650697	0.371069	-0.858340
N71	N	-1.706114	0.339764	-0.892185
C72	C	-1.650594	0.858028	-0.370790
N73	N	-1.706013	0.891867	-0.339506
C74	C	-1.650703	1.065362	-0.370834
N75	N	-1.706088	1.040639	-0.339538
H76	H	-1.631634	0.381820	-1.074195
H77	H	-1.631677	1.202142	-0.381660
H78	H	-1.389034	1.182172	-0.518669
C79	C	-1.650765	0.370989	-1.214114
N80	N	-1.706172	0.339682	-1.247964
C81	C	-1.369902	0.529643	-1.190972
N82	N	-1.314497	0.560930	-1.215690
H83	H	-1.388966	1.053930	-0.518642
C84	C	-1.369801	0.529752	-0.686757
N85	N	-1.314387	0.561056	-0.652911
