data_functionalizedCrystal
_audit_creation_method	'MofGen! by Chris Wilmer'
_symmetry_space_group_name_H-M	'P1'
_symmetry_Int_Tables_number	1
_symmetry_cell_setting	triclinic
loop_
_symmetry_equiv_pos_as_xyz
  x,y,z
_cell_length_a	14.971486
_cell_length_b	10.654550
_cell_length_c	9.130313
_cell_angle_alpha	90.000276
_cell_angle_beta	89.995272
_cell_angle_gamma	95.950470
loop_
_atom_site_label
_atom_site_type_symbol
_atom_site_fract_x
_atom_site_fract_y
_atom_site_fract_z
O1	O	0.125631	-1.666492	-0.121691
O2	O	0.137600	-1.300885	-0.121718
O3	O	0.001469	-1.493487	-0.121693
O4	O	0.261762	-1.473889	-0.121716
O5	O	0.001465	-1.493474	0.121906
O6	O	0.137596	-1.300872	0.121881
O7	O	0.125627	-1.666479	0.121908
Cu8	Cu	0.131611	-1.483674	0.144137
Cu9	Cu	0.131616	-1.483689	-0.143947
O10	O	0.261758	-1.473876	0.121883
C11	C	0.136720	-1.254090	0.000078
C12	C	0.134090	-1.114675	0.000068
C13	C	-0.031863	-1.492604	0.000106
C14	C	-0.131174	-1.489978	0.000104
C15	C	0.126508	-1.713274	0.000109
C16	C	0.129137	-1.852689	0.000109
C17	C	-0.187783	-1.603127	0.000114
C18	C	-0.281096	-1.600651	0.000099
C19	C	-0.317798	-1.485026	0.000085
C20	C	-0.261181	-1.371868	0.000071
C21	C	-0.167870	-1.374345	0.000075
C22	C	-0.455672	-1.366714	0.000065
C23	C	-0.548989	-1.364237	0.000064
C24	C	-0.568898	-1.593020	0.000089
C25	C	-0.475587	-1.595497	0.000093
C26	C	-0.418976	-1.482339	0.000082
C27	C	0.295090	-1.474759	0.000081
C28	C	0.394401	-1.477385	0.000073
N29	N	0.131608	-1.483672	0.346760
C30	C	0.214242	-1.034329	0.000065
C31	C	0.211766	-0.903335	0.000091
C32	C	0.048979	-0.933044	0.000116
C33	C	0.051456	-1.064036	0.000101
N34	N	0.131613	-1.483701	-0.346570
C35	C	0.071354	-1.568985	0.423422
C36	C	0.071354	-1.568997	0.576759
C37	C	0.191869	-1.398379	0.576757
C38	C	0.191864	-1.398362	0.423423
H39	H	-0.327185	-1.692789	0.000110
N40	N	0.256862	-1.306348	0.340729
H41	H	0.247711	-1.319281	0.231960
H42	H	0.245939	-1.217251	0.367546
N43	N	0.256856	-1.306377	0.659456
H44	H	0.296782	-1.354428	0.723054
H45	H	0.294965	-1.252346	0.587532
N46	N	0.006364	-1.660975	0.340714
H47	H	0.017251	-1.750123	0.367374
H48	H	-0.057188	-1.646313	0.367443
N49	N	-0.034997	-1.150707	0.000121
H50	H	-0.087722	-1.098753	0.000136
H51	H	-0.037518	-1.205702	-0.090185
H52	H	-0.445708	-1.689649	0.000115
H53	H	-0.157909	-1.697282	0.000134
H54	H	-0.614995	-1.685158	0.000093
H55	H	0.022290	-1.638465	0.639174
H56	H	-0.409581	-1.274568	0.000053
N57	N	-0.588578	-1.239530	0.000037
H58	H	-0.538558	-1.168220	0.000016
H59	H	-0.626856	-1.233545	-0.090272
H60	H	-0.018299	-0.891798	0.000152
H61	H	-0.121779	-1.282207	0.000068
N62	N	-0.300764	-1.247158	0.000070
H63	H	-0.250740	-1.175854	0.000063
H64	H	-0.339043	-1.241149	-0.090234
N65	N	0.303364	-1.088950	0.000029
H66	H	0.353764	-1.018170	0.000032
H67	H	0.307939	-1.142662	0.090325
N68	N	0.298215	-0.816675	0.000170
H69	H	0.350936	-0.868636	0.000173
H70	H	0.300765	-0.761635	-0.090101
