data_functionalizedCrystal
_audit_creation_method	'MofGen! by Chris Wilmer'
_symmetry_space_group_name_H-M	'P1'
_symmetry_Int_Tables_number	1
_symmetry_cell_setting	triclinic
loop_
_symmetry_equiv_pos_as_xyz
  x,y,z
_cell_length_a	13.897449
_cell_length_b	29.839131
_cell_length_c	13.897441
_cell_angle_alpha	89.964857
_cell_angle_beta	89.979267
_cell_angle_gamma	90.042700
loop_
_atom_site_label
_atom_site_type_symbol
_atom_site_fract_x
_atom_site_fract_y
_atom_site_fract_z
Zn1	Zn	1.474544	-0.178824	-0.545351
Zn2	Zn	1.474371	-0.253959	-0.384039
Zn3	Zn	1.313233	-0.178845	-0.384069
Zn4	Zn	1.313148	-0.253929	-0.545292
O5	O	1.393824	-0.216389	-0.464688
O6	O	1.609502	-0.188794	-0.523965
O7	O	1.452959	-0.244016	-0.249061
O8	O	1.334739	-0.115975	-0.405500
O9	O	1.609375	-0.243995	-0.405450
O10	O	1.453253	-0.115959	-0.523993
O11	O	1.334571	-0.188830	-0.249083
O12	O	1.178240	-0.188802	-0.405443
O13	O	1.334594	-0.243945	-0.680281
O14	O	1.178177	-0.243966	-0.523893
O15	O	1.453171	-0.188765	-0.680325
O16	O	1.452876	-0.316822	-0.405393
O17	O	1.334426	-0.316800	-0.523864
C18	C	1.143209	-0.216383	-0.464666
C19	C	1.035995	-0.216391	-0.464679
C20	C	0.839700	-0.216393	-0.464704
C21	C	0.948933	-0.216391	-0.464688
C22	C	1.393649	-0.333112	-0.464640
C23	C	1.393663	-0.383046	-0.464652
C24	C	1.455613	-0.692688	-0.403090
C25	C	1.455732	-0.880361	-0.403127
O26	O	1.508265	-0.904625	-0.350748
N27	N	1.394024	-0.903831	-0.464760
C28	C	1.332286	-0.880380	-0.526393
O29	O	1.279809	-0.904649	-0.578824
C30	C	1.332172	-0.692708	-0.526360
C31	C	1.393878	-0.669240	-0.464716
C32	C	1.517314	-0.669221	-0.341451
C33	C	1.517280	-0.622305	-0.341439
C34	C	1.455545	-0.598857	-0.403065
C35	C	1.393844	-0.622325	-0.464703
C36	C	1.270440	-0.669258	-0.587997
C37	C	1.270419	-0.622336	-0.587985
C38	C	1.332124	-0.598869	-0.526341
C39	C	1.332074	-0.551962	-0.526317
N40	N	1.393782	-0.528492	-0.464684
C41	C	1.455518	-0.551939	-0.403057
C42	C	1.332349	-0.978911	-0.526405
C43	C	1.332375	-1.025828	-0.526412
C44	C	1.455823	-1.025806	-0.403147
C45	C	1.455790	-0.978888	-0.403136
C46	C	1.394057	-0.955441	-0.464772
C47	C	1.455441	-0.453414	-0.403035
C48	C	1.455398	-0.406494	-0.403026
C49	C	1.331955	-0.406520	-0.526294
C50	C	1.331993	-0.453436	-0.526301
C51	C	1.393744	-0.476881	-0.464668
O52	O	1.279576	-0.527669	-0.578676
O53	O	1.508002	-0.527662	-0.350650
C54	C	1.455647	-0.739604	-0.403102
C55	C	1.393946	-0.763071	-0.464741
C56	C	1.332211	-0.739623	-0.526367
C57	C	1.393973	-0.809989	-0.464748
C58	C	1.455708	-0.833437	-0.403122
C59	C	1.517416	-0.809967	-0.341489
C60	C	1.517382	-0.763051	-0.341476
C61	C	1.270503	-0.763093	-0.588000
C62	C	1.270541	-0.810009	-0.588007
C63	C	1.332276	-0.833457	-0.526381
C64	C	1.645417	-0.216395	-0.464710
C65	C	1.752631	-0.216398	-0.464720
C66	C	1.393892	-0.216349	-0.716281
C67	C	1.393921	-0.216332	-0.823495
C68	C	1.394025	-0.099211	-0.464757
C69	C	1.394111	-0.049276	-0.464786
C70	C	1.393948	-0.216302	-1.019790
C71	C	1.393930	-0.216320	-0.910558
C72	C	1.393811	-0.216396	-0.214073
C73	C	1.393969	-0.216287	-0.106860
H74	H	1.505646	-0.387388	-0.352824
C75	C	1.264486	-1.051637	-0.594217
N76	N	1.213353	-1.071075	-0.645293
C77	C	1.202611	-0.737307	-0.655824
N78	N	1.151478	-0.717887	-0.706919
C79	C	1.202654	-0.835818	-0.655824
N80	N	1.151529	-0.855255	-0.706908
C81	C	1.523364	-0.479197	-0.335231
N82	N	1.574518	-0.498617	-0.284155
H83	H	1.506090	-1.044906	-0.352969
H84	H	1.567528	-0.603201	-0.291246
C85	C	1.585228	-0.695006	-0.273646
N86	N	1.636379	-0.714424	-0.222565
H87	H	1.567628	-0.743947	-0.291280
H88	H	1.506036	-0.959783	-0.352940
H89	H	1.282075	-0.959823	-0.576598
H90	H	1.220189	-0.688357	-0.638190
C91	C	1.264053	-0.380719	-0.594083
N92	N	1.212916	-0.361283	-0.645148
H93	H	1.220149	-0.603248	-0.638179
H94	H	1.281751	-0.472544	-0.576499
C95	C	1.585324	-0.835769	-0.273698
N96	N	1.636472	-0.855205	-0.222646
