data_functionalizedCrystal
_audit_creation_method	'MofGen! by Chris Wilmer'
_symmetry_space_group_name_H-M	'P1'
_symmetry_Int_Tables_number	1
_symmetry_cell_setting	triclinic
loop_
_symmetry_equiv_pos_as_xyz
  x,y,z
_cell_length_a	16.625546
_cell_length_b	12.759401
_cell_length_c	12.759393
_cell_angle_alpha	89.979062
_cell_angle_beta	89.964881
_cell_angle_gamma	90.023993
loop_
_atom_site_label
_atom_site_type_symbol
_atom_site_fract_x
_atom_site_fract_y
_atom_site_fract_z
Zn1	Zn	-0.320930	1.606210	-0.593986
Zn2	Zn	-0.455784	1.606077	-0.418292
Zn3	Zn	-0.320973	1.430508	-0.418322
Zn4	Zn	-0.455728	1.430476	-0.593930
O5	O	-0.388354	1.518318	-0.506132
O6	O	-0.338824	1.753213	-0.570692
O7	O	-0.437943	1.582745	-0.271275
O8	O	-0.208135	1.453884	-0.441660
O9	O	-0.437901	1.753116	-0.441610
O10	O	-0.208103	1.582971	-0.570720
O11	O	-0.338897	1.453756	-0.271297
O12	O	-0.338843	1.283483	-0.441605
O13	O	-0.437805	1.453830	-0.740958
O14	O	-0.437847	1.283460	-0.570623
O15	O	-0.338770	1.582940	-0.741000
O16	O	-0.568609	1.582714	-0.441555
O17	O	-0.568568	1.453701	-0.570595
C18	C	-0.388344	1.245350	-0.506112
C19	C	-0.388359	1.128574	-0.506128
C20	C	-0.439989	1.073727	-0.573202
C21	C	-0.439992	0.964003	-0.573223
C22	C	-0.336733	0.963982	-0.439086
C23	C	-0.336726	1.073704	-0.439071
C24	C	-0.597844	1.518218	-0.506088
C25	C	-0.687466	1.518272	-0.506105
C26	C	-1.015641	1.518455	-0.506214
C27	C	-0.924333	1.518401	-0.506187
C28	C	-0.851556	1.518363	-0.506159
C29	C	-0.760242	1.518310	-0.506132
C30	C	-0.178045	1.518446	-0.506200
C31	C	-0.088424	1.518501	-0.506228
C32	C	-0.388364	1.792351	-0.506154
C33	C	-0.388369	1.909128	-0.506163
C34	C	-0.388276	1.518396	-0.780166
C35	C	-0.388243	1.518430	-0.896943
C36	C	-0.336667	1.585663	-0.951828
C37	C	-0.336632	1.585681	-1.061552
C38	C	-0.439757	1.451230	-1.061496
C39	C	-0.439787	1.451208	-0.951774
C40	C	-0.388372	1.518300	-0.233165
C41	C	-0.388178	1.518470	-0.116389
H42	H	-0.294697	0.919294	-0.384490
H43	H	-0.481785	1.396451	-0.907085
H44	H	-0.294633	1.640427	-1.106235
H45	H	-0.481723	1.396502	-1.106153
H46	H	-0.482029	1.118399	-0.627806
H47	H	-0.482033	0.919352	-0.627843
O48	O	-0.286545	1.126827	-0.373811
C49	C	-0.240965	1.054872	-0.314641
H50	H	-0.273991	0.976640	-0.310930
H51	H	-0.179764	1.043250	-0.353262
C52	C	-0.188675	1.193736	-0.207406
C53	C	-0.229241	1.097653	-0.202840
H54	H	-0.181439	1.220126	-0.138443
H55	H	-0.219381	1.242214	-0.247272
H56	H	-0.137679	1.184037	-0.239594
H57	H	-0.280240	1.107355	-0.170664
H58	H	-0.198544	1.049177	-0.162966
H59	H	-0.294695	1.640397	-0.907188
