data_functionalizedCrystal
_audit_creation_method	'MofGen! by Chris Wilmer'
_symmetry_space_group_name_H-M	'P1'
_symmetry_Int_Tables_number	1
_symmetry_cell_setting	triclinic
loop_
_symmetry_equiv_pos_as_xyz
  x,y,z
_cell_length_a	23.532407
_cell_length_b	10.723024
_cell_length_c	9.198806
_cell_angle_alpha	90.002012
_cell_angle_beta	89.998595
_cell_angle_gamma	83.658273
loop_
_atom_site_label
_atom_site_type_symbol
_atom_site_fract_x
_atom_site_fract_y
_atom_site_fract_z
O1	O	-0.756242	-0.151465	-0.120708
O2	O	-0.590521	-0.173381	-0.120750
O3	O	-0.677204	0.019272	-0.120722
O4	O	-0.669559	-0.344118	-0.120735
O5	O	-0.677197	0.019273	0.121063
O6	O	-0.590514	-0.173381	0.121035
O7	O	-0.756235	-0.151465	0.121077
Cu8	Cu	-0.673374	-0.162423	0.143133
Cu9	Cu	-0.673382	-0.162423	-0.142806
O10	O	-0.669552	-0.344118	0.121050
C11	C	-0.676644	0.065755	0.000168
C12	C	-0.674980	0.204257	0.000163
C13	C	-0.569298	-0.172823	0.000137
C14	C	-0.506070	-0.171145	0.000121
C15	C	-0.777458	-0.152023	0.000187
C16	C	-0.840686	-0.153701	0.000194
C17	C	-0.107638	-0.274629	0.000183
C18	C	-0.048228	-0.273070	0.000192
O19	O	-0.012106	-0.369001	0.000242
N20	N	-0.024859	-0.158538	0.000194
C21	C	-0.060903	-0.045557	0.000201
O22	O	-0.035570	0.052005	0.000205
C23	C	-0.120312	-0.047117	0.000203
C24	C	-0.143678	-0.161656	0.000187
C25	C	-0.131005	-0.389159	0.000169
C26	C	-0.190411	-0.390717	0.000157
C27	C	-0.226451	-0.277745	0.000160
C28	C	-0.203084	-0.163215	0.000175
C29	C	-0.156356	0.065863	0.000221
C30	C	-0.215768	0.064293	0.000223
C31	C	-0.239134	-0.050247	0.000207
C32	C	-0.298530	-0.051801	0.000166
N33	N	-0.321900	-0.166333	0.000165
C34	C	-0.285860	-0.279305	0.000162
C35	C	0.063861	-0.042289	0.000201
C36	C	0.123269	-0.040728	0.000189
C37	C	0.135940	-0.268242	0.000183
C38	C	0.076531	-0.269802	0.000184
C39	C	0.040491	-0.156821	0.000199
C40	C	-0.410618	-0.282569	0.000136
C41	C	-0.470030	-0.284117	0.000118
C42	C	-0.482696	-0.056604	0.000132
C43	C	-0.423289	-0.055055	0.000142
C44	C	-0.387251	-0.168048	0.000149
O45	O	-0.334687	0.044080	0.000123
O46	O	-0.311201	-0.376851	0.000177
C47	C	-0.670112	-0.390600	0.000156
C48	C	-0.671776	-0.529103	0.000152
N49	N	-0.673372	-0.162421	0.344247
C50	C	-0.723483	0.280751	0.000173
C51	C	-0.721764	0.423901	0.000167
N52	N	-0.673388	-0.162414	-0.343920
C53	C	-0.709768	-0.081180	0.416456
C54	C	-0.709777	-0.081176	0.583868
H55	H	-0.489051	-0.377393	0.000104
O56	O	-0.623884	0.252399	0.000339
C57	C	-0.592722	0.211279	0.125573
H58	H	-0.608535	0.121149	0.167333
H59	H	-0.545366	0.192763	0.097396
H60	H	-0.599067	0.286671	0.213255
H61	H	-0.381282	-0.374578	0.000146
O62	O	-0.095943	-0.498830	-0.000037
C63	C	-0.061212	-0.504754	-0.125287
H64	H	-0.057804	-0.405754	-0.167017
H65	H	-0.016757	-0.551828	-0.097141
H66	H	-0.080991	-0.561469	-0.212979
O67	O	-0.774495	0.232253	0.000253
C68	C	-0.764855	0.100122	0.000215
H69	H	-0.720520	0.069137	0.045978
H70	H	-0.798514	0.060472	0.070422
H71	H	-0.767737	0.063910	-0.115780
H72	H	-0.740920	-0.011624	0.354339
O73	O	-0.746926	0.001979	0.657780
C74	C	-0.737029	0.125326	0.620727
H75	H	-0.715109	0.124881	0.510182
H76	H	-0.779528	0.187503	0.615668
H77	H	-0.708447	0.163336	0.706367
H78	H	0.057511	-0.363070	0.000179
H79	H	-0.642229	-0.231976	0.593994
H80	H	0.034520	0.049719	0.000200
O81	O	-0.636228	-0.245568	0.418180
C82	C	-0.646118	-0.368920	0.381120
H83	H	-0.668028	-0.368485	0.270567
H84	H	-0.603616	-0.431091	0.376076
H85	H	-0.674705	-0.406931	0.466748
H86	H	0.165295	-0.360230	0.000187
O87	O	-0.771250	0.502479	0.000112
C88	C	-0.758516	0.627912	0.000142
H89	H	-0.713759	0.632224	-0.045641
H90	H	-0.790988	0.687359	-0.070050
H91	H	-0.760505	0.665583	0.116138
H92	H	-0.209430	-0.483987	0.000143
H93	H	0.142288	0.052542	0.000180
H94	H	-0.137342	0.159133	0.000235
O95	O	-0.250753	0.174078	-0.000027
C96	C	-0.240074	0.243677	-0.125224
H97	H	-0.220033	0.177546	-0.212749
H98	H	-0.282015	0.294257	-0.167261
H99	H	-0.209540	0.315506	-0.096901
O100	O	-0.400682	0.056316	0.000203
C101	C	-0.445234	0.155692	0.000153
H102	H	-0.485728	0.121231	0.045914
H103	H	-0.432507	0.235706	0.070354
H104	H	-0.453494	0.190498	-0.115846
O105	O	-0.517770	0.053049	-0.000055
C106	C	-0.552503	0.058968	-0.125295
H107	H	-0.555893	-0.040030	-0.167061
H108	H	-0.596965	0.105997	-0.097123
H109	H	-0.532739	0.115724	-0.212970
O110	O	-0.622250	0.392453	-0.000117
C111	C	-0.620109	0.316224	-0.125318
H112	H	-0.649024	0.364315	-0.212835
H113	H	-0.574298	0.300897	-0.167365
H114	H	-0.635272	0.221823	-0.096997
