data_functionalizedCrystal
_audit_creation_method	'MofGen! by Chris Wilmer'
_symmetry_space_group_name_H-M	'P1'
_symmetry_Int_Tables_number	1
_symmetry_cell_setting	triclinic
loop_
_symmetry_equiv_pos_as_xyz
  x,y,z
_cell_length_a	16.959453
_cell_length_b	16.959455
_cell_length_c	16.959447
_cell_angle_alpha	90.023646
_cell_angle_beta	89.968429
_cell_angle_gamma	89.982281
loop_
_atom_site_label
_atom_site_type_symbol
_atom_site_fract_x
_atom_site_fract_y
_atom_site_fract_z
Zn1	Zn	-0.314771	-1.208369	-0.447098
Zn2	Zn	-0.446964	-1.208286	-0.314917
Zn3	Zn	-0.314792	-1.076198	-0.314914
Zn4	Zn	-0.446900	-1.076156	-0.447034
O5	O	-0.380857	-1.142252	-0.380991
O6	O	-0.332325	-1.318969	-0.429592
O7	O	-0.429466	-1.190746	-0.204306
O8	O	-0.204178	-1.093783	-0.332475
O9	O	-0.429446	-1.318908	-0.332479
O10	O	-0.204163	-1.190889	-0.429590
O11	O	-0.332360	-1.093702	-0.204304
O12	O	-0.332298	-0.965581	-0.332412
O13	O	-0.429338	-1.093712	-0.557654
O14	O	-0.429358	-0.965551	-0.429480
O15	O	-0.332264	-1.190849	-0.557701
O16	O	-0.557566	-1.190706	-0.332417
O17	O	-0.557520	-1.093631	-0.429483
C18	C	-0.380824	-0.936886	-0.380939
C19	C	-0.380829	-0.849029	-0.380936
C20	C	-0.431354	-0.477511	-0.330360
C21	C	-0.330378	-0.477596	-0.431642
C22	C	-0.330368	-0.560142	-0.431627
C23	C	-0.380853	-0.601376	-0.380979
C24	C	-0.431347	-0.560065	-0.330346
C25	C	-0.279880	-0.601460	-0.482265
C26	C	-0.279868	-0.684011	-0.482254
C27	C	-0.330350	-0.725247	-0.431601
C28	C	-0.380846	-0.683930	-0.380965
C29	C	-0.431330	-0.725164	-0.330317
C30	C	-0.481823	-0.683849	-0.279676
C31	C	-0.481829	-0.601300	-0.279694
C32	C	-0.330344	-0.807795	-0.431584
C33	C	-0.431324	-0.807718	-0.330303
C34	C	-0.586223	-1.142177	-0.380960
C35	C	-0.674080	-1.142216	-0.380973
C36	C	-0.715430	-1.091719	-0.330374
C37	C	-0.715283	-1.192747	-0.431590
C38	C	-0.797829	-1.192784	-0.431607
C39	C	-0.839179	-1.142287	-0.381008
C40	C	-0.797983	-1.091753	-0.330392
C41	C	-0.839031	-1.243312	-0.482228
C42	C	-0.921582	-1.243350	-0.482248
C43	C	-0.962934	-1.192856	-0.431644
C44	C	-0.921733	-1.142321	-0.381025
C45	C	-0.963083	-1.091824	-0.330426
C46	C	-0.921883	-1.041291	-0.279802
C47	C	-0.839335	-1.041259	-0.279788
C48	C	-1.045482	-1.192889	-0.431659
C49	C	-1.045636	-1.091857	-0.330443
C50	C	-0.174689	-1.142350	-0.381039
C51	C	-0.086832	-1.142391	-0.381060
C52	C	-0.380791	-1.142285	-0.587159
C53	C	-0.380764	-1.142299	-0.675016
C54	C	-0.380882	-0.348420	-0.381029
C55	C	-0.380870	-0.436277	-0.381008
C56	C	-0.431222	-1.091819	-1.046470
C57	C	-0.330138	-1.192968	-1.046514
C58	C	-0.330155	-1.192947	-0.963968
C59	C	-0.380707	-1.142362	-0.922669
C60	C	-0.431242	-1.091798	-0.963916
C61	C	-0.279626	-1.243516	-0.922715
C62	C	-0.279641	-1.243497	-0.840164
C63	C	-0.330190	-1.192908	-0.798863
C64	C	-0.380727	-1.142341	-0.840115
C65	C	-0.431279	-1.091756	-0.798817
C66	C	-0.481813	-1.041185	-0.840067
C67	C	-0.481791	-1.041209	-0.922616
C68	C	-0.330211	-1.192884	-0.716315
C69	C	-0.431299	-1.091735	-0.716263
C70	C	-0.380865	-1.142265	-0.175625
C71	C	-0.380670	-1.142404	-0.087769
H72	H	-0.522937	-0.567654	-0.238464
H73	H	-0.238474	-1.284704	-0.956346
Br74	Br	-0.499903	-1.023074	-0.660221
Br75	Br	-0.211061	-1.312126	-0.784188
H76	H	-0.522976	-1.000002	-0.806431
Br77	Br	-0.211383	-0.545497	-0.551011
Br78	Br	-0.977489	-1.311924	-0.550953
Br79	Br	-0.659166	-1.261262	-0.500271
H80	H	-1.079297	-1.050738	-0.289236
Br81	Br	-0.550369	-0.972586	-0.978602
H82	H	-0.805362	-1.284421	-0.523429
Br83	Br	-0.978011	-0.972752	-0.211145
Br84	Br	-0.659520	-1.023148	-0.261669
H85	H	-0.238754	-0.717643	-0.523488
H86	H	-0.472363	-1.050643	-1.080059
H87	H	-0.289070	-1.234060	-0.682732
Br88	Br	-0.499835	-0.863672	-0.261556
Br89	Br	-0.550343	-0.739819	-0.210950
Br90	Br	-0.499872	-0.421444	-0.261631
Br91	Br	-1.101393	-1.261458	-0.500360
Br92	Br	-0.261543	-1.261624	-1.102563
Br93	Br	-0.261830	-0.863863	-0.500310
H94	H	-0.805785	-1.000117	-0.238573
Br95	Br	-0.261878	-0.421636	-0.500386
