data_functionalizedCrystal
_audit_creation_method	'MofGen! by Chris Wilmer'
_symmetry_space_group_name_H-M	'P1'
_symmetry_Int_Tables_number	1
_symmetry_cell_setting	triclinic
loop_
_symmetry_equiv_pos_as_xyz
  x,y,z
_cell_length_a	14.971486
_cell_length_b	15.944551
_cell_length_c	13.448316
_cell_angle_alpha	89.992444
_cell_angle_beta	89.998199
_cell_angle_gamma	83.556434
loop_
_atom_site_label
_atom_site_type_symbol
_atom_site_fract_x
_atom_site_fract_y
_atom_site_fract_z
O1	O	1.186829	0.109463	-0.082580
O2	O	0.926415	0.122572	-0.082607
O3	O	1.063733	-0.006250	-0.082584
O4	O	1.049511	0.238286	-0.082603
O5	O	1.063716	-0.006258	0.082800
O6	O	0.926398	0.122564	0.082777
O7	O	1.186812	0.109456	0.082804
Cu8	Cu	1.056603	0.116009	0.097891
Cu9	Cu	1.056624	0.116018	-0.097694
O10	O	1.049494	0.238278	0.082781
C11	C	0.893082	0.121982	0.000081
C12	C	0.793787	0.120225	0.000071
C13	C	0.736480	0.195904	0.000067
C14	C	0.643182	0.194249	0.000082
C15	C	0.607194	0.116913	0.000094
C16	C	0.664508	0.041227	0.000102
C17	C	0.757804	0.042884	0.000094
C18	C	0.470049	0.037780	0.000116
C19	C	0.376747	0.036123	0.000122
C20	C	0.355428	0.189145	0.000104
C21	C	0.448724	0.190801	0.000096
C22	C	0.506032	0.115116	0.000101
C23	C	1.063134	-0.037549	0.000108
C24	C	1.061364	-0.130797	0.000109
C25	C	0.972017	-0.345738	0.000086
C26	C	1.013498	-0.406720	0.081634
C27	C	1.058162	-0.301526	0.000101
C28	C	1.013536	-0.406696	-0.081421
C29	C	1.055062	-0.466441	0.000089
C30	C	1.099667	-0.361279	0.081717
C31	C	1.099692	-0.361248	-0.081412
C32	C	1.141236	-0.422212	0.000156
C33	C	1.059945	-0.206522	0.000109
C34	C	1.053286	-0.561444	0.000088
C35	C	1.220145	0.110046	0.000113
C36	C	1.319440	0.111802	0.000117
C37	C	1.050093	0.269576	0.000087
C38	C	1.051863	0.362824	0.000080
N39	N	1.056595	0.116002	0.235456
N40	N	1.056639	0.116019	-0.235258
C41	C	1.117419	0.058983	0.287506
C42	C	1.117425	0.058982	0.391610
C43	C	1.056610	0.116005	0.443660
C44	C	0.995780	0.173027	0.391602
C45	C	0.995771	0.173023	0.287501
C46	C	0.995805	0.173033	0.608582
C47	C	0.995815	0.173038	0.712691
C48	C	1.117459	0.058992	0.712691
C49	C	1.117449	0.058988	0.608590
C50	C	1.056620	0.116011	0.556539
H51	H	0.478022	0.253775	0.000076
H52	H	0.635199	-0.021741	0.000126
H53	H	0.977055	-0.426866	0.150570
O54	O	0.813566	-0.030575	-0.000038
C55	C	0.931238	-0.117531	-0.085745
C56	C	0.868154	-0.034297	-0.085714
H57	H	0.975375	-0.120575	-0.155017
H58	H	0.975513	-0.120593	-0.016582
H59	H	0.889475	-0.173077	-0.085689
H60	H	0.909847	0.021296	-0.085805
H61	H	0.823876	-0.031308	-0.154871
O62	O	0.299675	0.262614	-0.000032
C63	C	0.182005	0.349577	-0.085751
C64	C	0.245081	0.266338	-0.085700
H65	H	0.137863	0.352624	-0.155017
H66	H	0.137735	0.352645	-0.016582
H67	H	0.223775	0.405119	-0.085721
H68	H	0.203382	0.210750	-0.085766
H69	H	0.289355	0.263344	-0.154864
H70	H	0.596526	0.255875	0.000077
H71	H	0.347448	-0.026851	0.000133
H72	H	0.765774	0.258881	0.000056
O73	O	1.143142	-0.337039	-0.163576
C74	C	1.194075	-0.221509	-0.255167
C75	C	1.144878	-0.248816	-0.162052
H76	H	1.195478	-0.150177	-0.253977
H77	H	1.265841	-0.254136	-0.255880
H78	H	1.157267	-0.240001	-0.324623
H79	H	1.181611	-0.230329	-0.092547
H80	H	1.073110	-0.216196	-0.161427
H81	H	0.900512	-0.312499	0.000160
H82	H	1.212804	-0.455303	0.000210
O83	O	0.970196	-0.430672	-0.163773
C84	C	0.965583	-0.433515	-0.342837
C85	C	1.014770	-0.406337	-0.249664
H86	H	1.001589	-0.413835	-0.412303
H87	H	0.965253	-0.504979	-0.342506
H88	H	0.893444	-0.401796	-0.342673
H89	H	1.086929	-0.437996	-0.249767
H90	H	1.015027	-0.334865	-0.250031
O91	O	1.143029	-0.337253	0.164028
C92	C	1.193389	-0.221868	0.256345
C93	C	1.144249	-0.248962	0.163099
H94	H	1.194408	-0.150485	0.255615
H95	H	1.156908	-0.240917	0.325783
H96	H	1.265295	-0.254161	0.256636
H97	H	1.072342	-0.216682	0.162712
H98	H	1.180799	-0.229928	0.093704
H99	H	0.946260	0.219453	0.433988
H100	H	1.166945	0.012552	0.245134
H101	H	0.516708	-0.023852	0.000122
O102	O	1.176605	0.003572	0.442017
C103	C	1.297244	-0.109558	0.431031
C104	C	1.230278	-0.046840	0.373822
H105	H	1.340643	-0.150345	0.375921
H106	H	1.341984	-0.073253	0.479723
H107	H	1.258630	-0.151550	0.479815
H108	H	1.268818	-0.004832	0.324984
H109	H	1.185539	-0.083198	0.325194
H110	H	1.166973	0.012560	0.566210
H111	H	1.166987	0.012562	0.755077
H112	H	0.946293	0.219471	0.755065
H113	H	0.946269	0.219464	0.566206
H114	H	0.946241	0.219452	0.245122
