data_functionalizedCrystal
_audit_creation_method	'MofGen! by Chris Wilmer'
_symmetry_space_group_name_H-M	'P1'
_symmetry_Int_Tables_number	1
_symmetry_cell_setting	triclinic
loop_
_symmetry_equiv_pos_as_xyz
  x,y,z
_cell_length_a	10.489716
_cell_length_b	10.489741
_cell_length_c	9.565339
_cell_angle_alpha	89.999484
_cell_angle_beta	90.003220
_cell_angle_gamma	84.534155
loop_
_atom_site_label
_atom_site_type_symbol
_atom_site_fract_x
_atom_site_fract_y
_atom_site_fract_z
O1	O	-1.694071	-0.179810	-0.116248
O2	O	-1.322871	-0.196735	-0.116253
O3	O	-1.516918	-0.002674	-0.116242
O4	O	-1.500025	-0.373871	-0.116259
O5	O	-1.516902	-0.002686	0.116278
O6	O	-1.322856	-0.196747	0.116267
O7	O	-1.694056	-0.179822	0.116272
Zn8	Zn	-1.508453	-0.188286	0.153187
Zn9	Zn	-1.508474	-0.188271	-0.153168
O10	O	-1.500009	-0.373883	0.116261
C11	C	-1.275332	-0.195470	0.000006
C12	C	-1.133701	-0.191665	0.000005
C13	C	-1.515634	0.044852	0.000017
C14	C	-1.511817	0.186481	0.000015
C15	C	-1.741596	-0.181087	0.000010
C16	C	-1.883227	-0.184892	0.000002
C17	C	-1.036027	-0.310669	-0.000004
C18	C	-0.958673	-0.247791	0.114650
C19	C	-0.958695	-0.247751	-0.114597
C20	C	-1.058213	-0.128836	0.114753
C21	C	-1.058240	-0.128814	-0.114597
C22	C	-0.980935	-0.065848	0.000085
C23	C	-1.501293	-0.421409	-0.000001
C24	C	-1.505110	-0.563038	-0.000008
N25	N	-1.508449	-0.188297	0.362267
C26	C	-1.388351	0.254610	0.000003
C27	C	-1.446668	0.346732	0.114648
C28	C	-1.446712	0.346718	-0.114599
C29	C	-1.570184	0.276737	0.114754
C30	C	-1.570212	0.276714	-0.114595
C31	C	-1.628618	0.368808	0.000078
N32	N	-1.508488	-0.188250	-0.362247
C33	C	-1.418681	-0.278013	0.453465
C34	C	-1.534180	-0.303814	0.546644
C35	C	-1.393001	-0.162506	0.546643
C36	C	-1.624006	-0.214155	0.453394
C37	C	-1.482750	-0.072797	0.453385
C38	C	-1.598332	-0.098549	0.546522
H39	H	-0.915184	-0.298033	0.211574
H40	H	-1.555942	-0.401469	0.587607
H41	H	-1.622415	0.245679	-0.211523
H42	H	-1.101522	-0.078633	0.211779
H43	H	-1.721677	-0.236065	0.412606
H44	H	-1.342838	-0.353954	0.412605
C45	C	-0.899967	-0.315626	-0.245530
H46	H	-0.857315	-0.256631	-0.299517
H47	H	-0.965952	-0.347165	-0.299876
H48	H	-0.840379	-0.384956	-0.217962
C49	C	-1.701012	0.003972	0.601390
H50	H	-1.782951	-0.014546	0.569287
H51	H	-1.683441	0.085786	0.568046
H52	H	-1.700007	0.003900	0.700701
C53	C	-1.376129	0.388564	-0.245536
H54	H	-1.290777	0.349070	-0.245386
H55	H	-1.374881	0.478994	-0.245060
H56	H	-1.419172	0.363415	-0.326946
H57	H	-1.622374	0.245905	0.211787
H58	H	-1.394420	0.377734	0.211571
C59	C	-0.947915	0.074087	0.000179
H60	H	-0.982313	0.116157	0.081692
H61	H	-0.983517	0.116649	-0.080487
H62	H	-0.857530	0.075780	-0.000576
H63	H	-1.460952	0.024827	0.412389
H64	H	-1.295352	-0.140714	0.587606
C65	C	-1.765867	0.435602	0.000164
H66	H	-1.809506	0.411648	0.081678
H67	H	-1.810062	0.410571	-0.080501
H68	H	-1.762701	0.525808	-0.000599
C69	C	-1.117036	-0.061009	-0.245535
H70	H	-1.082807	-0.103434	-0.326919
H71	H	-1.097237	0.025489	-0.246357
H72	H	-1.207347	-0.063283	-0.244128
C73	C	-1.251218	0.187528	0.000134
H74	H	-1.238492	0.136130	-0.081367
H75	H	-1.239096	0.134962	0.080810
H76	H	-1.191461	0.250122	0.001013
C77	C	-1.069377	-0.450498	0.000138
H78	H	-1.035118	-0.492599	0.081699
H79	H	-1.033817	-0.493172	-0.080478
H80	H	-1.159786	-0.451983	-0.000690
