data_functionalizedCrystal
_audit_creation_method	'MofGen! by Chris Wilmer'
_symmetry_space_group_name_H-M	'P1'
_symmetry_Int_Tables_number	1
_symmetry_cell_setting	triclinic
loop_
_symmetry_equiv_pos_as_xyz
  x,y,z
_cell_length_a	10.489741
_cell_length_b	10.489716
_cell_length_c	14.586319
_cell_angle_alpha	90.005519
_cell_angle_beta	89.999881
_cell_angle_gamma	84.534155
loop_
_atom_site_label
_atom_site_type_symbol
_atom_site_fract_x
_atom_site_fract_y
_atom_site_fract_z
O1	O	0.179810	1.694075	0.076232
O2	O	0.679810	2.194075	0.576232
O3	O	0.196736	1.322876	0.076236
O4	O	0.696736	1.822876	0.576236
O5	O	0.002674	1.516922	0.076229
O6	O	0.502674	2.016922	0.576229
O7	O	0.373871	1.500029	0.076240
O8	O	0.873871	2.000029	0.576240
O9	O	0.002686	1.516898	-0.076252
O10	O	0.502686	2.016898	0.423748
O11	O	0.196747	1.322852	-0.076245
O12	O	0.696747	1.822852	0.423755
O13	O	0.179821	1.694051	-0.076248
O14	O	0.679821	2.194051	0.423752
Cu15	Cu	0.188285	1.508449	-0.090169
Cu16	Cu	0.688285	2.008449	0.409831
Cu17	Cu	0.188272	1.508478	0.090157
Cu18	Cu	0.688272	2.008478	0.590157
O19	O	0.373883	1.500005	-0.076241
O20	O	0.873883	2.000005	0.423759
C21	C	0.195470	1.275332	-0.000004
C22	C	0.695470	1.775332	0.499996
C23	C	0.191665	1.133701	-0.000003
C24	C	0.691665	1.633701	0.499997
C25	C	0.310669	1.036027	0.000003
C26	C	0.810669	1.536027	0.500003
C27	C	0.247791	0.958669	-0.075184
C28	C	0.747791	1.458669	0.424816
C29	C	0.247751	0.958699	0.075150
C30	C	0.747751	1.458699	0.575150
C31	C	0.128836	1.058208	-0.075252
C32	C	0.628836	1.558208	0.424748
C33	C	0.128814	1.058244	0.075150
C34	C	0.628814	1.558244	0.575150
C35	C	0.065848	0.980935	-0.000056
C36	C	0.565848	1.480935	0.499944
C37	C	-0.044852	1.515634	-0.000011
C38	C	0.455148	2.015634	0.499989
C39	C	-0.186481	1.511817	-0.000010
C40	C	0.313519	2.011817	0.499990
C41	C	-0.254610	1.388351	-0.000002
C42	C	0.245390	1.888351	0.499998
C43	C	-0.346732	1.446663	-0.075183
C44	C	0.153268	1.946663	0.424817
C45	C	-0.346718	1.446716	0.075151
C46	C	0.153282	1.946716	0.575151
C47	C	-0.276737	1.570180	-0.075253
C48	C	0.223263	2.070180	0.424747
C49	C	-0.276714	1.570216	0.075149
C50	C	0.223286	2.070216	0.575149
C51	C	-0.368808	1.628618	-0.000051
C52	C	0.131192	2.128618	0.499949
C53	C	0.421409	1.501293	0.000001
C54	C	0.921409	2.001293	0.500001
C55	C	0.563038	1.505110	0.000005
C56	C	1.063038	2.005110	0.500005
C57	C	0.181087	1.741596	-0.000006
C58	C	0.681087	2.241596	0.499994
C59	C	0.184892	1.883227	-0.000002
C60	C	0.684892	2.383227	0.499998
N61	N	0.188294	1.508439	-0.217001
N62	N	0.688294	2.008439	0.282999
C63	C	0.266390	1.586534	-0.452006
C64	C	0.766390	2.086534	0.047994
C65	C	0.266381	1.586547	-0.547987
C66	C	0.766381	2.086547	-0.047987
C67	C	0.110148	1.430400	-0.548000
C68	C	0.610148	1.930400	-0.048000
C69	C	0.110151	1.430395	-0.452021
C70	C	0.610151	1.930395	0.047979
C71	C	0.188279	1.508459	-0.404026
C72	C	0.688279	2.008459	0.095974
C73	C	0.188268	1.508478	-0.595987
C74	C	0.688268	2.008478	-0.095987
C75	C	0.188258	1.508492	-0.700054
C76	C	0.688258	2.008492	-0.200054
C77	C	0.188288	1.508448	-0.299952
C78	C	0.688288	2.008448	0.200048
N79	N	0.188253	1.508498	0.216989
N80	N	0.688253	2.008498	0.716989
H81	H	0.078633	1.101515	-0.138879
H82	H	0.578633	1.601515	0.361121
Cl83	Cl	-0.094084	0.943201	-0.000127
Cl84	Cl	0.405916	1.443201	0.499873
H85	H	0.414185	1.060696	-0.000064
H86	H	0.914185	1.560696	0.499936
Cl87	Cl	0.364580	1.684705	-0.608301
Cl88	Cl	0.864580	2.184705	-0.108301
H89	H	-0.245905	1.622366	-0.138884
H90	H	0.254095	2.122366	0.361116
Cl91	Cl	0.364597	1.684682	-0.391673
Cl92	Cl	0.864597	2.184682	0.108327
H93	H	0.046541	1.366841	-0.587089
H94	H	0.546541	1.866841	-0.087089
H95	H	0.046538	1.366816	-0.412954
H96	H	0.546538	1.866816	0.087046
Cl97	Cl	-0.394557	1.366042	0.173278
Cl98	Cl	0.105443	1.866042	0.673278
H99	H	-0.245678	1.622423	0.138711
H100	H	0.254322	2.122423	0.638711
H101	H	-0.418241	1.730222	-0.000094
H102	H	0.081759	2.230222	0.499906
Cl103	Cl	0.051318	1.125438	0.173288
Cl104	Cl	0.551318	1.625438	0.673288
Cl105	Cl	0.325356	0.891516	-0.173316
Cl106	Cl	0.825356	1.391516	0.326684
Cl107	Cl	-0.394599	1.365996	-0.173315
Cl108	Cl	0.105401	1.865996	0.326685
Cl109	Cl	-0.177938	1.231625	-0.000111
Cl110	Cl	0.322062	1.731625	0.499889
H111	H	0.298007	0.915225	0.138705
H112	H	0.798007	1.415225	0.638705
