data_functionalizedCrystal
_audit_creation_method	'MofGen! by Chris Wilmer'
_symmetry_space_group_name_H-M	'P1'
_symmetry_Int_Tables_number	1
_symmetry_cell_setting	triclinic
loop_
_symmetry_equiv_pos_as_xyz
  x,y,z
_cell_length_a	16.120490
_cell_length_b	16.120531
_cell_length_c	19.076919
_cell_angle_alpha	95.042833
_cell_angle_beta	90.498645
_cell_angle_gamma	89.829344
loop_
_atom_site_label
_atom_site_type_symbol
_atom_site_fract_x
_atom_site_fract_y
_atom_site_fract_z
Zn1	Zn	1.231038	0.416792	0.468362
Zn2	Zn	1.481038	0.666792	0.718362
Zn3	Zn	1.731038	0.916792	0.968362
Zn4	Zn	1.981038	1.166792	1.218362
Zn5	Zn	1.229460	0.550799	0.356325
Zn6	Zn	1.479460	0.800799	0.606325
Zn7	Zn	1.729460	1.050799	0.856325
Zn8	Zn	1.979460	1.300799	1.106325
Zn9	Zn	1.098166	0.404165	0.344463
Zn10	Zn	1.348166	0.654165	0.594463
Zn11	Zn	1.598166	0.904165	0.844463
Zn12	Zn	1.848166	1.154165	1.094463
Zn13	Zn	1.084906	0.548707	0.467713
Zn14	Zn	1.334906	0.798707	0.717713
Zn15	Zn	1.584906	1.048707	0.967713
Zn16	Zn	1.834906	1.298707	1.217713
O17	O	1.160892	0.480116	0.409216
O18	O	1.410892	0.730116	0.659216
O19	O	1.660892	0.980116	0.909216
O20	O	1.910892	1.230116	1.159216
O21	O	1.346932	0.440728	0.458736
O22	O	1.596932	0.690728	0.708736
O23	O	1.846932	0.940728	0.958736
O24	O	2.096932	1.190728	1.208736
O25	O	1.216932	0.526938	0.256283
O26	O	1.466932	0.776938	0.506283
O27	O	1.716932	1.026938	0.756283
O28	O	1.966932	1.276938	1.006283
O29	O	1.122001	0.289266	0.356206
O30	O	1.372001	0.539266	0.606206
O31	O	1.622001	0.789266	0.856206
O32	O	1.872001	1.039266	1.106206
O33	O	1.345773	0.539182	0.376422
O34	O	1.595773	0.789182	0.626422
O35	O	1.845773	1.039182	0.876422
O36	O	2.095773	1.289182	1.126422
O37	O	1.219621	0.298543	0.447234
O38	O	1.469621	0.548543	0.697234
O39	O	1.719621	0.798543	0.947234
O40	O	1.969621	1.048543	1.197234
O41	O	1.120471	0.419207	0.247568
O42	O	1.370471	0.669207	0.497568
O43	O	1.620471	0.919207	0.747568
O44	O	1.870471	1.169207	0.997568
O45	O	0.980303	0.417179	0.355577
O46	O	1.230303	0.667179	0.605577
O47	O	1.480303	0.917179	0.855577
O48	O	1.730303	1.167179	1.105577
O49	O	1.099402	0.535617	0.566268
O50	O	1.349402	0.785617	0.816268
O51	O	1.599402	1.035617	1.066268
O52	O	1.849402	1.285617	1.316268
O53	O	0.970562	0.523373	0.446128
O54	O	1.220562	0.773373	0.696128
O55	O	1.470562	1.023373	0.946128
O56	O	1.720562	1.273373	1.196128
O57	O	1.206764	0.438700	0.566744
O58	O	1.456764	0.688700	0.816744
O59	O	1.706764	0.938700	1.066744
O60	O	1.956764	1.188700	1.316744
O61	O	1.204075	0.667095	0.375793
O62	O	1.454075	0.917095	0.625793
O63	O	1.704075	1.167095	0.875793
O64	O	1.954075	1.417095	1.125793
O65	O	1.097872	0.665558	0.457630
O66	O	1.347872	0.915558	0.707630
O67	O	1.597872	1.165558	0.957630
O68	O	1.847872	1.415558	1.207630
C69	C	0.945328	0.468679	0.399496
C70	C	1.195328	0.718679	0.649496
C71	C	1.445328	0.968679	0.899496
C72	C	1.695328	1.218679	1.149496
C73	C	0.853107	0.463808	0.395355
C74	C	1.103107	0.713808	0.645355
C75	C	1.353107	0.963808	0.895355
C76	C	1.603107	1.213808	1.145355
C77	C	0.638367	0.505379	0.430696
C78	C	0.888367	0.755379	0.680696
C79	C	1.138367	1.005379	0.930696
C80	C	1.388367	1.255379	1.180696
C81	C	0.684262	0.454921	0.387794
C82	C	0.934262	0.704921	0.637794
C83	C	1.184262	0.954921	0.887794
C84	C	1.434262	1.204921	1.137794
C85	C	0.778216	0.459867	0.392002
C86	C	1.028216	0.709867	0.642002
C87	C	1.278216	0.959867	0.892002
C88	C	1.528216	1.209867	1.142002
C89	C	0.544405	0.500434	0.426489
C90	C	0.794405	0.750434	0.676489
C91	C	1.044405	1.000434	0.926489
C92	C	1.294405	1.250434	1.176489
C93	C	1.149386	0.696555	0.417945
C94	C	1.399386	0.946555	0.667945
C95	C	1.649386	1.196555	0.917945
C96	C	1.899386	1.446555	1.167945
C97	C	1.144538	0.789153	0.421706
C98	C	1.394538	1.039153	0.671706
C99	C	1.644538	1.289153	0.921706
C100	C	1.894538	1.539153	1.171706
C101	C	1.135691	0.958693	0.428588
C102	C	1.385691	1.208693	0.678588
C103	C	1.635691	1.458693	0.928588
C104	C	1.885691	1.708693	1.178588
C105	C	1.186127	1.000698	0.389806
C106	C	1.436127	1.250698	0.639806
C107	C	1.686127	1.500698	0.889806
C108	C	1.936127	1.750698	1.139806
C109	C	1.181205	1.095035	0.393635
C110	C	1.431205	1.345035	0.643635
C111	C	1.681205	1.595035	0.893635
C112	C	1.931205	1.845035	1.143635
C113	C	1.140612	0.864347	0.424760
C114	C	1.390612	1.114347	0.674760
C115	C	1.640612	1.364347	0.924760
C116	C	1.890612	1.614347	1.174760
C117	C	1.377298	0.491597	0.418975
C118	C	1.627298	0.741597	0.668975
C119	C	1.877298	0.991597	0.918975
C120	C	2.127298	1.241597	1.168975
C121	C	1.469518	0.496490	0.423133
C122	C	1.719518	0.746490	0.673133
C123	C	1.969518	0.996490	0.923133
C124	C	2.219518	1.246490	1.173133
C125	C	1.151780	0.488334	0.592752
C126	C	1.401780	0.738334	0.842752
C127	C	1.651780	0.988334	1.092752
C128	C	1.901780	1.238334	1.342752
C129	C	1.147897	0.491836	0.670964
C130	C	1.397897	0.741836	0.920964
C131	C	1.647897	0.991836	1.170964
C132	C	1.897897	1.241836	1.420964
C133	C	1.172437	1.262831	0.400455
C134	C	1.422437	1.512831	0.650455
C135	C	1.672437	1.762831	0.900455
C136	C	1.922437	2.012831	1.150455
C137	C	1.177283	1.170232	0.396685
C138	C	1.427283	1.420232	0.646685
C139	C	1.677283	1.670232	0.896685
C140	C	1.927283	1.920232	1.146685
C141	C	1.170020	0.471872	0.226394
C142	C	1.420020	0.721872	0.476394
C143	C	1.670020	0.971872	0.726394
C144	C	1.920020	1.221872	0.976394
C145	C	1.174076	0.468144	0.148180
C146	C	1.424076	0.718144	0.398180
C147	C	1.674076	0.968144	0.648180
C148	C	1.924076	1.218144	0.898180
C149	C	1.201968	0.443024	0.707957
C150	C	1.451968	0.693024	0.957957
C151	C	1.701968	0.943024	1.207957
C152	C	1.951968	1.193024	1.457957
C153	C	1.198309	0.446310	0.781445
C154	C	1.448309	0.696310	1.031445
C155	C	1.698309	0.946310	1.281445
C156	C	1.948309	1.196310	1.531445
C157	C	1.140584	0.498414	0.817939
C158	C	1.390584	0.748414	1.067939
C159	C	1.640584	0.998414	1.317939
C160	C	1.890584	1.248414	1.567939
C161	C	1.086508	0.547228	0.780940
C162	C	1.336508	0.797228	1.030940
C163	C	1.586508	1.047228	1.280940
C164	C	1.836508	1.297228	1.530940
C165	C	1.090163	0.543937	0.707453
C166	C	1.340163	0.793937	0.957453
C167	C	1.590163	1.043937	1.207453
C168	C	1.840163	1.293937	1.457453
C169	C	1.123655	0.513666	1.037694
C170	C	1.373655	0.763666	1.287694
C171	C	1.623655	1.013666	1.537694
C172	C	1.873655	1.263666	1.787694
C173	C	1.120005	0.516956	1.111186
C174	C	1.370005	0.766956	1.361186
C175	C	1.620005	1.016956	1.611186
C176	C	1.870005	1.266956	1.861186
C177	C	1.231807	0.416036	1.111686
C178	C	1.481807	0.666036	1.361686
C179	C	1.731807	0.916036	1.611686
C180	C	1.981807	1.166036	1.861686
C181	C	1.235460	0.412753	1.038198
C182	C	1.485460	0.662753	1.288198
C183	C	1.735460	0.912753	1.538198
C184	C	1.985460	1.162753	1.788198
C185	C	1.181381	0.461564	1.001206
C186	C	1.431381	0.711564	1.251206
C187	C	1.681381	0.961564	1.501206
C188	C	1.931381	1.211564	1.751206
N189	N	1.136845	0.501777	0.893055
N190	N	1.386845	0.751777	1.143055
N191	N	1.636845	1.001777	1.393055
N192	N	1.886845	1.251777	1.643055
N193	N	1.185117	0.458196	0.926090
N194	N	1.435117	0.708196	1.176090
N195	N	1.685117	0.958196	1.426090
N196	N	1.935117	1.208196	1.676090
H197	H	1.233004	0.965808	0.353727
H198	H	1.483004	1.215808	0.603727
H199	H	1.733004	1.465808	0.853727
H200	H	1.983004	1.715808	1.103727
H201	H	0.669636	0.552290	0.470582
H202	H	0.919636	0.802290	0.720582
H203	H	1.169636	1.052290	0.970582
H204	H	1.419636	1.302290	1.220582
H205	H	1.088817	0.993580	0.464662
H206	H	1.338817	1.243580	0.714662
H207	H	1.588817	1.493580	0.964662
H208	H	1.838817	1.743580	1.214662
N209	N	0.642856	0.392779	0.334948
N210	N	0.892856	0.642779	0.584948
N211	N	1.142856	0.892779	0.834948
N212	N	1.392856	1.142779	1.084948
H213	H	0.607522	0.353651	0.360459
H214	H	0.857522	0.603651	0.610459
H215	H	1.107522	0.853651	0.860459
H216	H	1.357522	1.103651	1.110459
H217	H	0.606764	0.423322	0.302092
H218	H	0.856764	0.673322	0.552092
H219	H	1.106764	0.923322	0.802092
H220	H	1.356764	1.173322	1.052092
N221	N	1.264235	0.386831	0.668599
N222	N	1.514235	0.636831	0.918599
N223	N	1.764235	0.886831	1.168599
N224	N	2.014235	1.136831	1.418599
H225	H	1.297931	0.356407	0.703188
H226	H	1.547931	0.606407	0.953188
H227	H	1.797931	0.856407	1.203188
H228	H	2.047931	1.106407	1.453188
H229	H	1.234034	0.345122	0.635032
H230	H	1.484034	0.595122	0.885032
H231	H	1.734034	0.845122	1.135032
H232	H	1.984034	1.095122	1.385032
H233	H	1.079631	0.553424	1.007585
H234	H	1.329631	0.803424	1.257585
H235	H	1.579631	1.053424	1.507585
H236	H	1.829631	1.303424	1.757585
H237	H	1.242341	0.406564	0.811562
H238	H	1.492341	0.656564	1.061562
H239	H	1.742341	0.906564	1.311562
H240	H	1.992341	1.156564	1.561562
H241	H	1.282468	0.370327	1.008491
H242	H	1.532468	0.620327	1.258491
H243	H	1.782468	0.870327	1.508491
H244	H	2.032468	1.120327	1.758491
H245	H	1.275834	0.376297	1.141814
H246	H	1.525834	0.626297	1.391814
H247	H	1.775834	0.876297	1.641814
H248	H	2.025834	1.126297	1.891814
N249	N	1.057744	0.573159	1.150550
N250	N	1.307744	0.823159	1.400550
N251	N	1.557744	1.073159	1.650550
N252	N	1.807744	1.323159	1.900550
H253	H	1.024039	0.603581	1.115965
H254	H	1.274039	0.853581	1.365965
H255	H	1.524039	1.103581	1.615965
H256	H	1.774039	1.353581	1.865965
H257	H	1.019644	0.538577	1.177946
H258	H	1.269644	0.788577	1.427946
H259	H	1.519644	1.038577	1.677946
H260	H	1.769644	1.288577	1.927946
H261	H	1.039503	0.589649	0.810659
H262	H	1.289503	0.839649	1.060659
H263	H	1.539503	1.089649	1.310659
H264	H	1.789503	1.339649	1.560659
H265	H	1.046125	0.583676	0.677333
H266	H	1.296125	0.833676	0.927333
H267	H	1.546125	1.083676	1.177333
H268	H	1.796125	1.333676	1.427333
