data_functionalizedCrystal
_audit_creation_method	'MofGen! by Chris Wilmer'
_symmetry_space_group_name_H-M	'P1'
_symmetry_Int_Tables_number	1
_symmetry_cell_setting	triclinic
loop_
_symmetry_equiv_pos_as_xyz
  x,y,z
_cell_length_a	19.121275
_cell_length_b	19.121063
_cell_length_c	16.959447
_cell_angle_alpha	92.406624
_cell_angle_beta	92.425677
_cell_angle_gamma	89.926756
loop_
_atom_site_label
_atom_site_type_symbol
_atom_site_fract_x
_atom_site_fract_y
_atom_site_fract_z
Zn1	Zn	1.059787	-0.324795	-0.411579
Zn2	Zn	1.054701	-0.442039	-0.285264
Zn3	Zn	0.942561	-0.319824	-0.284808
Zn4	Zn	0.937516	-0.436995	-0.422788
O5	O	0.998641	-0.380913	-0.351110
O6	O	1.157214	-0.344539	-0.390322
O7	O	1.039808	-0.425857	-0.174594
O8	O	0.962352	-0.222380	-0.296742
O9	O	1.153477	-0.430677	-0.297519
O10	O	1.048477	-0.226032	-0.389880
O11	O	0.957420	-0.336067	-0.174260
O12	O	0.843790	-0.331176	-0.307612
O13	O	0.953752	-0.422081	-0.531910
O14	O	0.840083	-0.417261	-0.408985
O15	O	1.043584	-0.339648	-0.523674
O16	O	1.034916	-0.539473	-0.308388
O17	O	0.948820	-0.535768	-0.409427
C18	C	0.816500	-0.373132	-0.359466
C19	C	0.738578	-0.369820	-0.363060
C20	C	0.700025	-0.413039	-0.316353
C21	C	0.626810	-0.409928	-0.319740
C22	C	0.592149	-0.363593	-0.369832
C23	C	0.630707	-0.320372	-0.416545
C24	C	0.703921	-0.323488	-0.413161
C25	C	0.371187	-0.351949	-0.382475
C26	C	0.297967	-0.348835	-0.385854
C27	C	0.294075	-0.438392	-0.289050
C28	C	0.367291	-0.441500	-0.285667
C29	C	0.405843	-0.398282	-0.332383
C30	C	0.517311	-0.360410	-0.373295
C31	C	0.480679	-0.401470	-0.328924
C32	C	0.990788	-0.563059	-0.360190
C33	C	0.987492	-0.640984	-0.364098
C34	C	1.030804	-0.679501	-0.313369
C35	C	1.027708	-0.752720	-0.317049
C36	C	0.981297	-0.787421	-0.371455
C37	C	0.937984	-0.748899	-0.422190
C38	C	0.941083	-0.675681	-0.418513
C39	C	0.969698	-1.008395	-0.385190
C40	C	0.966600	-1.081618	-0.388861
C41	C	1.056327	-1.085435	-0.283721
C42	C	1.059419	-1.012215	-0.280046
C43	C	1.016108	-0.973700	-0.330784
C44	C	0.978131	-0.862262	-0.375216
C45	C	1.019278	-0.898860	-0.327026
C46	C	1.181493	-0.388725	-0.342721
C47	C	1.259414	-0.392054	-0.339146
C48	C	0.998673	-0.380856	-0.557274
C49	C	0.998686	-0.380832	-0.645128
C50	C	1.006544	-0.198057	-0.342010
C51	C	1.009912	-0.120135	-0.338132
C52	C	0.952002	-0.423681	-1.020887
C53	C	1.045545	-0.337843	-1.012306
C54	C	1.045525	-0.337857	-0.929762
C55	C	0.998744	-0.380784	-0.892776
C56	C	0.951982	-0.423698	-0.938335
C57	C	1.092291	-0.294949	-0.884197
C58	C	1.092274	-0.294962	-0.801648
C59	C	1.045489	-0.337887	-0.764661
C60	C	0.998725	-0.380801	-0.810225
C61	C	0.951944	-0.423729	-0.773239
C62	C	0.905175	-0.466640	-0.818802
C63	C	0.905197	-0.466622	-0.901348
C64	C	1.045467	-0.337905	-0.682114
C65	C	0.951924	-0.423746	-0.690687
C66	C	0.998652	-0.380921	-0.145743
C67	C	0.998783	-0.380753	-0.057873
H68	H	0.489082	-0.322683	-0.414079
N69	N	0.857426	-0.510457	-0.947878
N70	N	0.859263	-0.575347	-0.941659
H71	H	0.825520	-0.606303	-0.974520
N72	N	0.904231	-0.467503	-1.067434
N73	N	0.904247	-0.467481	-1.141136
H74	H	0.870509	-0.498430	-1.174012
H75	H	0.867089	-0.501595	-0.788677
N76	N	0.925454	-0.969053	-0.437004
N77	N	0.882525	-0.926342	-0.409161
H78	H	0.851278	-0.898551	-0.445757
H79	H	1.068594	-0.651252	-0.269063
H80	H	0.269749	-0.311098	-0.426643
H81	H	0.900198	-0.777158	-0.466492
H82	H	0.913823	-0.458697	-0.660580
N83	N	0.254696	-0.482529	-0.241327
N84	N	0.214888	-0.456069	-0.191657
H85	H	0.187076	-0.487244	-0.157951
H86	H	1.083636	-0.302897	-1.042425
H87	H	0.402567	-0.316758	-0.420516
N88	N	0.930708	-0.897698	-0.430781
N89	N	0.892030	-0.863304	-0.476067
H90	H	0.858536	-0.888332	-0.515310
N91	N	0.743305	-0.279328	-0.460857
N92	N	0.786072	-0.236363	-0.429011
H93	H	0.813887	-0.205174	-0.462698
H94	H	1.130382	-0.260005	-0.914317
H95	H	0.508903	-0.439198	-0.288143
H96	H	1.130356	-0.260021	-0.764557
N97	N	0.595293	-0.273052	-0.467716
N98	N	0.529924	-0.270275	-0.470732
H99	H	0.504912	-0.236853	-0.506871
N100	N	0.896850	-0.636323	-0.470329
N101	N	0.923222	-0.596465	-0.517534
H102	H	0.891984	-0.568668	-0.554133
N103	N	0.735438	-0.460371	-0.265194
N104	N	0.800807	-0.463150	-0.262179
H105	H	0.825817	-0.496581	-0.226050
H106	H	0.395507	-0.479230	-0.244875
N107	N	1.093242	-0.294078	-0.635586
N108	N	1.135011	-0.255758	-0.668618
H109	H	1.168755	-0.224801	-0.635759
H110	H	1.057069	-0.870604	-0.282731
H111	H	1.097210	-0.983964	-0.235745
H112	H	1.062977	-0.784077	-0.275739
H113	H	1.091589	-1.116802	-0.242415
N114	N	0.919182	-1.117068	-0.444428
N115	N	0.854839	-1.106192	-0.441687
H116	H	0.821350	-1.131230	-0.480926
N117	N	0.587439	-0.454085	-0.272029
N118	N	0.618395	-0.495451	-0.227307
H119	H	0.590590	-0.526641	-0.193610
