data_functionalizedCrystal
_audit_creation_method	'MofGen! by Chris Wilmer'
_symmetry_space_group_name_H-M	'P1'
_symmetry_Int_Tables_number	1
_symmetry_cell_setting	triclinic
loop_
_symmetry_equiv_pos_as_xyz
  x,y,z
_cell_length_a	19.121063
_cell_length_b	12.645331
_cell_length_c	12.645323
_cell_angle_alpha	89.977178
_cell_angle_beta	92.408124
_cell_angle_gamma	92.469220
loop_
_atom_site_label
_atom_site_type_symbol
_atom_site_fract_x
_atom_site_fract_y
_atom_site_fract_z
Zn1	Zn	-0.279604	1.602655	-0.617391
Zn2	Zn	-0.397063	1.594944	-0.447668
Zn3	Zn	-0.279630	1.425368	-0.440137
Zn4	Zn	-0.397019	1.417761	-0.624880
O5	O	-0.338329	1.510182	-0.532519
O6	O	-0.295192	1.749979	-0.594894
O7	O	-0.381514	1.572405	-0.298323
O8	O	-0.181342	1.455297	-0.457364
O9	O	-0.381489	1.744313	-0.470199
O10	O	-0.181323	1.585549	-0.587592
O11	O	-0.295237	1.447819	-0.292790
O12	O	-0.295195	1.276012	-0.464625
O13	O	-0.381415	1.442331	-0.772232
O14	O	-0.381440	1.270423	-0.600356
O15	O	-0.295150	1.578172	-0.766730
O16	O	-0.495342	1.565029	-0.477461
O17	O	-0.495310	1.434854	-0.607658
C18	C	-0.338316	1.234753	-0.532487
C19	C	-0.338328	1.116922	-0.532499
C20	C	-0.283987	1.075526	-0.447239
C21	C	-0.283786	0.952980	-0.447507
C22	C	-0.318590	0.950369	-0.643140
C23	C	-0.318184	1.072993	-0.642603
C24	C	-0.412570	1.066908	-0.508184
C25	C	-0.412182	0.944325	-0.505733
C26	C	-0.520810	1.498308	-0.544213
C27	C	-0.598876	1.493325	-0.549251
C28	C	-0.635544	1.558812	-0.483887
C29	C	-0.708896	1.554132	-0.488632
C30	C	-0.745577	1.483958	-0.558735
C31	C	-0.708903	1.418469	-0.624106
C32	C	-0.635553	1.423155	-0.619366
C33	C	-0.967046	1.466420	-0.576440
C34	C	-1.040401	1.461737	-0.581173
C35	C	-1.040389	1.597402	-0.445700
C36	C	-0.967038	1.602077	-0.440962
C37	C	-0.930370	1.536592	-0.506336
C38	C	-0.820553	1.479170	-0.563584
C39	C	-0.855395	1.541386	-0.501492
C40	C	-0.155136	1.522132	-0.520802
C41	C	-0.077070	1.527224	-0.515810
C42	C	-0.338275	1.510264	-0.809021
C43	C	-0.338252	1.510298	-0.926849
C44	C	-0.338343	1.786686	-0.532552
C45	C	-0.338348	1.904516	-0.532566
C46	C	-0.392265	1.424604	-1.097858
C47	C	-0.392532	1.424802	-0.975316
C48	C	-0.358338	1.620699	-0.972658
C49	C	-0.358677	1.620227	-1.095278
C50	C	-0.263850	1.486667	-1.089273
C51	C	-0.264296	1.484146	-0.966695
C52	C	-0.338333	1.510165	-0.257089
C53	C	-0.338158	1.510348	-0.139249
H54	H	-0.427086	0.914223	-0.424378
H55	H	-0.937174	1.659218	-0.383878
C56	C	-0.815048	1.618574	-0.424379
C57	C	-0.764685	1.575888	-0.337864
C58	C	-0.724330	1.653073	-0.260748
C59	C	-0.734338	1.772945	-0.270148
C60	C	-0.784704	1.815637	-0.356667
C61	C	-0.825058	1.738452	-0.433783
H62	H	-0.757274	1.487146	-0.330902
H63	H	-0.687046	1.621469	-0.196701
H64	H	-0.704465	1.830082	-0.213063
H65	H	-0.792114	1.904379	-0.363629
H66	H	-0.862342	1.770056	-0.497830
H67	H	-1.070252	1.650718	-0.392477
H68	H	-0.229286	1.109889	-0.462787
H69	H	-1.070265	1.404606	-0.638278
C70	C	-0.209387	1.571107	-1.124974
C71	C	-0.232182	1.661109	-1.199098
C72	C	-0.177726	1.745552	-1.234805
C73	C	-0.100476	1.739993	-1.196387
C74	C	-0.077678	1.649987	-1.122259
C75	C	-0.132134	1.565544	-1.086552
H76	H	-0.289370	1.665227	-1.227541
H77	H	-0.194604	1.812180	-1.289679
H78	H	-0.060165	1.802502	-1.222820
H79	H	-0.020490	1.645869	-1.093816
H80	H	-0.115256	1.498916	-1.031678
C81	C	-0.595213	1.351115	-0.691263
C82	C	-0.605364	1.229957	-0.683156
C83	C	-0.565025	1.157919	-0.755058
C84	C	-0.514535	1.207038	-0.835067
C85	C	-0.504382	1.328203	-0.843177
C86	C	-0.544721	1.400241	-0.771275
H87	H	-0.642742	1.193590	-0.623925
H88	H	-0.572542	1.068224	-0.749053
H89	H	-0.484674	1.153711	-0.888293
H90	H	-0.467004	1.364570	-0.902408
H91	H	-0.537205	1.489935	-0.777280
H92	H	-0.296113	0.922039	-0.365381
C93	C	-0.430955	1.649187	-0.935872
C94	C	-0.462441	1.754380	-0.970630
C95	C	-0.535059	1.782861	-0.933847
C96	C	-0.576192	1.706148	-0.862305
C97	C	-0.544706	1.600948	-0.827542
C98	C	-0.472088	1.572467	-0.864326
H99	H	-0.431991	1.811174	-1.023594
H100	H	-0.558366	1.860737	-0.959581
H101	H	-0.629948	1.727231	-0.835075
H102	H	-0.575156	1.544154	-0.774579
H103	H	-0.448781	1.494591	-0.838592
C104	C	-0.209474	0.918177	-0.468807
C105	C	-0.194502	0.799614	-0.473272
C106	C	-0.120185	0.764812	-0.494565
C107	C	-0.060839	0.848575	-0.511393
C108	C	-0.075809	0.967146	-0.506928
C109	C	-0.150127	1.001948	-0.485635
H110	H	-0.238434	0.737601	-0.460815
H111	H	-0.109103	0.677038	-0.497870
H112	H	-0.005825	0.822813	-0.527155
H113	H	-0.031877	1.029159	-0.519385
H114	H	-0.161208	1.089722	-0.482329
H115	H	-0.356059	1.100259	-0.708071
C116	C	-0.926723	1.394384	-0.648353
C117	C	-0.936880	1.273226	-0.640253
C118	C	-0.896555	1.201187	-0.712173
C119	C	-0.846073	1.250305	-0.792194
C120	C	-0.835914	1.371469	-0.800299
C121	C	-0.876239	1.443509	-0.728378
H122	H	-0.974252	1.236860	-0.581013
H123	H	-0.904077	1.111493	-0.706173
H124	H	-0.816223	1.196977	-0.845434
H125	H	-0.798542	1.407835	-0.859538
H126	H	-0.868717	1.533203	-0.734378
C127	C	-0.375539	1.314006	-0.933563
C128	C	-0.310778	1.299872	-0.859168
C129	C	-0.293781	1.189070	-0.817427
C130	C	-0.341546	1.092403	-0.850082
C131	C	-0.406311	1.106534	-0.924481
C132	C	-0.423308	1.217336	-0.966221
H133	H	-0.275416	1.371434	-0.834991
H134	H	-0.245837	1.178610	-0.762352
H135	H	-0.328964	1.010381	-0.819183
H136	H	-0.441673	1.034973	-0.948658
H137	H	-0.471252	1.227797	-1.021297
H138	H	-0.738774	1.361337	-0.681190
C139	C	-0.375443	1.313460	-1.136586
C140	C	-0.304179	1.267190	-1.106184
C141	C	-0.287353	1.156044	-1.144922
C142	C	-0.341790	1.091167	-1.214061
C143	C	-0.413058	1.137436	-1.244467
C144	C	-0.429884	1.248582	-1.205730
H145	H	-0.263878	1.315216	-1.054999
H146	H	-0.234596	1.121793	-1.122413
H147	H	-0.329334	1.008890	-1.242737
H148	H	-0.453359	1.089410	-1.295652
H149	H	-0.482642	1.282833	-1.228238
H150	H	-0.850427	1.422033	-0.620661
C151	C	-0.306788	1.709041	-0.929989
C152	C	-0.333763	1.801252	-0.865843
C153	C	-0.282210	1.889591	-0.823171
C154	C	-0.203682	1.885718	-0.844646
C155	C	-0.176702	1.793504	-0.908796
C156	C	-0.228255	1.705165	-0.951467
H157	H	-0.391898	1.804122	-0.849943
H158	H	-0.302182	1.957854	-0.775683
H159	H	-0.165519	1.951111	-0.813058
H160	H	-0.118567	1.790634	-0.924696
H161	H	-0.208283	1.636902	-0.998955
H162	H	-0.447009	1.439687	-1.132190
H163	H	-0.447620	1.440046	-0.949536
C164	C	-0.244878	1.116394	-0.671083
C165	C	-0.201312	1.188008	-0.592346
C166	C	-0.128002	1.231399	-0.620816
C167	C	-0.098258	1.203175	-0.728025
C168	C	-0.141825	1.131557	-0.806770
C169	C	-0.215135	1.088167	-0.778299
H170	H	-0.223330	1.208905	-0.512977
H171	H	-0.095751	1.284416	-0.562524
H172	H	-0.043990	1.235296	-0.749100
H173	H	-0.119807	1.110661	-0.886138
H174	H	-0.247385	1.035150	-0.836592
H175	H	-0.296172	1.104142	-0.364824
H176	H	-0.356965	0.918788	-0.708222
C177	C	-0.432058	1.648122	-1.138631
C178	C	-0.496556	1.577693	-1.111609
C179	C	-0.569938	1.605601	-1.154948
C180	C	-0.578823	1.703937	-1.225309
C181	C	-0.514323	1.774372	-1.252335
C182	C	-0.440941	1.746464	-1.208996
H183	H	-0.489981	1.504894	-1.059520
H184	H	-0.617685	1.553460	-1.134941
H185	H	-0.633145	1.724596	-1.257391
H186	H	-0.520898	1.847171	-1.304424
H187	H	-0.393194	1.798605	-1.229003
H188	H	-0.264932	0.923158	-0.664717
H189	H	-0.430611	1.096607	-0.429142
H190	H	-0.454818	0.910971	-0.563653
H191	H	-0.453053	1.093330	-0.570341
H192	H	-0.245540	1.407818	-1.119002
H193	H	-0.320979	1.686021	-1.122538
H194	H	-0.605684	1.615949	-0.426797
H195	H	-0.249147	1.402924	-0.936624
H196	H	-0.738748	1.607457	-0.435405
H197	H	-0.221852	1.542418	-0.933351
