data_functionalizedCrystal
_audit_creation_method	'MofGen! by Chris Wilmer'
_symmetry_space_group_name_H-M	'P1'
_symmetry_Int_Tables_number	1
_symmetry_cell_setting	triclinic
loop_
_symmetry_equiv_pos_as_xyz
  x,y,z
_cell_length_a	10.540539
_cell_length_b	14.971486
_cell_length_c	9.016244
_cell_angle_alpha	89.993020
_cell_angle_beta	89.999699
_cell_angle_gamma	84.069810
loop_
_atom_site_label
_atom_site_type_symbol
_atom_site_fract_x
_atom_site_fract_y
_atom_site_fract_z
O1	O	-1.684452	-0.126056	0.123271
O2	O	-1.314905	-0.137933	0.123290
O3	O	-1.509583	-0.001850	0.123269
O4	O	-1.489774	-0.262139	0.123292
O5	O	-1.509575	-0.001840	-0.123411
O6	O	-1.314897	-0.137923	-0.123391
O7	O	-1.684444	-0.126046	-0.123409
Cu8	Cu	-1.499670	-0.131983	-0.145924
Cu9	Cu	-1.499679	-0.131996	0.145804
O10	O	-1.489766	-0.262129	-0.123389
C11	C	-1.267608	-0.137037	-0.000048
C12	C	-1.126690	-0.134372	-0.000042
C13	C	-1.731741	-0.126942	-0.000068
C14	C	-1.872659	-0.129607	-0.000065
C15	C	-0.944422	-0.032264	-0.000626
C16	C	-1.091009	-0.034965	-0.000055
C17	C	-1.064479	-0.182217	0.140824
C18	C	-0.917973	-0.178825	0.140926
C19	C	-0.917452	-0.180835	-0.139596
C20	C	-1.064424	-0.181751	-0.141442
C21	C	-1.508693	0.031484	-0.000070
C22	C	-1.506039	0.130797	-0.000069
C23	C	-1.490656	-0.295463	-0.000046
C24	C	-1.493310	-0.394775	-0.000038
N25	N	-1.499672	-0.131974	-0.351110
C26	C	-1.620407	0.187377	-0.000076
C27	C	-1.617905	0.280691	-0.000061
C28	C	-1.501033	0.317422	-0.000050
C29	C	-1.386656	0.260834	-0.000038
C30	C	-1.389159	0.167522	-0.000043
C31	C	-1.381446	0.455325	-0.000033
C32	C	-1.378942	0.548644	-0.000031
C33	C	-1.610192	0.568495	-0.000051
C34	C	-1.612695	0.475183	-0.000055
C35	C	-1.498317	0.418601	-0.000047
C36	C	-1.604196	-0.059430	-0.586108
C37	C	-1.603919	-0.059153	-0.414217
C38	C	-1.367208	-0.110744	-0.413531
C39	C	-1.367830	-0.110235	-0.585476
C40	C	-1.526448	-0.226002	-0.585608
C41	C	-1.529450	-0.225388	-0.413652
N42	N	-1.499687	-0.131997	0.350991
H43	H	-1.134047	0.002681	-0.101034
H44	H	-1.450239	-0.280015	-0.626293
N45	N	-1.258095	0.394284	-0.000031
H46	H	-1.207102	0.406167	0.091412
H47	H	-1.207212	0.406215	-0.091538
H48	H	-1.291496	0.290747	-0.000020
N49	N	-1.265803	0.106494	-0.000076
H50	H	-1.285121	0.041808	-0.000084
H51	H	-1.214864	0.118454	0.091367
N52	N	-1.121381	-0.138192	0.279679
H53	H	-1.051873	-0.113952	0.340084
H54	H	-1.162962	-0.183894	0.340214
N55	N	-1.734343	-0.076056	-0.358303
H56	H	-1.734413	-0.075904	-0.246284
H57	H	-1.756037	-0.136273	-0.395467
N58	N	-1.738742	0.435557	-0.000058
H59	H	-1.744927	0.397291	-0.091504
H60	H	-1.810750	0.485605	-0.000000
H61	H	-1.283775	0.578546	-0.000046
H62	H	-1.715578	0.157479	-0.000094
N63	N	-1.735066	-0.076081	-0.640860
H64	H	-1.727886	-0.130824	-0.706975
H65	H	-1.773274	-0.022144	-0.698815
H66	H	-1.587332	0.009917	-0.629339
N67	N	-0.881122	-0.131991	0.280383
H68	H	-0.907095	-0.166275	0.369991
H69	H	-0.925821	-0.068998	0.282619
N70	N	-1.435166	-0.300357	-0.356763
H71	H	-1.482022	-0.344815	-0.299636
H72	H	-1.371555	-0.274640	-0.289407
N73	N	-1.261709	-0.177509	-0.640624
H74	H	-1.298845	-0.224501	-0.702865
H75	H	-1.214762	-0.207302	-0.553160
N76	N	-1.733560	0.629515	-0.000063
H77	H	-1.714244	0.694202	-0.000051
H78	H	-1.784497	0.617530	0.091375
H79	H	-1.586805	0.010593	-0.373103
H80	H	-1.711035	0.326756	-0.000069
N81	N	-1.095410	-0.277755	-0.152702
H82	H	-1.054167	-0.306432	-0.244514
H83	H	-1.190910	-0.278826	-0.158914
H84	H	-1.626896	-0.241478	-0.372855
H85	H	-0.916279	0.007012	-0.101649
H86	H	-1.105779	-0.146798	-0.245654
N87	N	-1.093002	-0.278913	0.147804
H88	H	-1.057703	-0.311813	0.056558
H89	H	-1.188333	-0.281283	0.152358
H90	H	-1.344265	-0.041653	-0.625600
H91	H	-1.287558	-0.162153	-0.372655
H92	H	-0.914662	0.006837	0.099827
N93	N	-1.335219	-0.020923	-0.356528
H94	H	-1.406336	0.006139	-0.290286
H95	H	-1.324788	0.020532	-0.443063
N96	N	-0.853824	-0.275944	-0.140879
H97	H	-0.877659	-0.308021	-0.047983
H98	H	-0.758225	-0.274933	-0.144797
H99	H	-1.133188	0.002938	0.101092
N100	N	-1.651670	-0.252760	-0.643032
H101	H	-1.723240	-0.206519	-0.611742
H102	H	-1.666835	-0.313271	-0.600957
N103	N	-0.853345	-0.273521	0.149345
H104	H	-0.920065	-0.317281	0.152987
H105	H	-0.798928	-0.280361	0.241654
H106	H	-0.886268	-0.148660	-0.246371
