data_functionalizedCrystal
_audit_creation_method	'MofGen! by Chris Wilmer'
_symmetry_space_group_name_H-M	'P1'
_symmetry_Int_Tables_number	1
_symmetry_cell_setting	triclinic
loop_
_symmetry_equiv_pos_as_xyz
  x,y,z
_cell_length_a	16.974885
_cell_length_b	14.472311
_cell_length_c	16.992695
_cell_angle_alpha	89.990046
_cell_angle_beta	92.976847
_cell_angle_gamma	86.352112
loop_
_atom_site_label
_atom_site_type_symbol
_atom_site_fract_x
_atom_site_fract_y
_atom_site_fract_z
O1	O	1.055447	-0.002012	-0.099901
O2	O	0.826048	0.015129	-0.112636
O3	O	0.939828	0.006620	0.007873
O4	O	0.941667	0.006497	-0.220410
O5	O	0.939818	-0.147062	0.007888
O6	O	0.826038	-0.138553	-0.112621
O7	O	1.055438	-0.155693	-0.099886
Cu8	Cu	0.940737	-0.161155	-0.106252
Cu9	Cu	0.940748	0.020591	-0.106270
O10	O	0.941658	-0.147184	-0.220395
C11	C	0.796555	-0.059509	-0.112146
C12	C	0.708687	-0.052943	-0.110697
N13	N	0.940735	-0.288986	-0.106239
C14	C	0.214090	-0.006932	-0.102514
C15	C	0.296651	-0.013113	-0.103876
C16	C	0.337918	-0.099976	-0.104554
C17	C	0.296620	-0.180663	-0.103863
C18	C	0.214061	-0.174481	-0.102496
C19	C	0.584831	-0.127448	-0.108638
C20	C	0.667395	-0.133624	-0.110008
C21	C	0.667420	0.033927	-0.110019
C22	C	0.584860	0.040101	-0.108656
C23	C	0.543570	-0.040586	-0.107961
N24	N	0.422308	-0.106297	-0.105949
N25	N	0.459181	-0.034265	-0.106561
C26	C	0.940749	-0.663078	-0.106264
C27	C	1.001854	-0.628453	-0.041997
C28	C	1.001670	-0.521352	-0.041760
C29	C	0.940743	-0.477487	-0.106252
C30	C	0.857126	-0.510131	-0.088476
C31	C	0.857483	-0.617279	-0.088022
C32	C	0.962529	-0.625205	-0.188497
C33	C	0.964366	-0.518214	-0.187944
C34	C	0.940734	-0.372598	-0.106246
C35	C	0.940752	-0.767967	-0.106268
C36	C	1.084931	-0.081054	-0.100376
C37	C	1.172798	-0.087613	-0.101825
C38	C	0.937457	-0.070044	0.037091
C39	C	0.930398	-0.069516	0.124127
N40	N	0.940756	0.148421	-0.106277
C41	C	0.944028	-0.070518	-0.249613
C42	C	0.951088	-0.071040	-0.336649
C43	C	0.998512	-0.074607	0.174443
C44	C	0.991874	-0.074102	0.256222
C45	C	0.917121	-0.068513	0.287684
C46	C	0.849001	-0.063420	0.237361
C47	C	0.855640	-0.063918	0.155583
C48	C	0.889607	-0.066445	0.531251
C49	C	0.882973	-0.065950	0.613035
C50	C	1.025847	-0.076630	0.631891
C51	C	1.032479	-0.077134	0.550110
C52	C	0.964359	-0.072035	0.499795
N53	N	0.910334	-0.068000	0.371275
N54	N	0.971147	-0.072542	0.416205
H55	H	0.180496	0.063801	-0.101968
H56	H	0.180442	-0.240181	-0.101943
H57	H	1.081306	-0.080779	0.672866
H58	H	0.810379	-0.639686	-0.133056
H59	H	1.059384	-0.079163	0.148834
H60	H	0.834138	-0.062293	0.490293
O61	O	0.782171	-0.058431	0.101314
H62	H	0.799344	-0.059707	0.039163
O63	O	1.083784	-0.492652	-0.055749
H64	H	1.102207	-0.519457	-0.113621
H65	H	0.838404	-0.481917	-0.029191
O66	O	0.802340	-0.059928	0.646966
H67	H	0.809171	-0.060455	0.712284
H68	H	0.330227	-0.251389	-0.104410
O69	O	0.768372	-0.057401	0.271288
H70	H	0.775197	-0.057923	0.336607
H71	H	0.330267	0.052586	-0.104432
O72	O	1.113105	-0.083139	0.516176
H73	H	1.159356	-0.086580	0.564904
O74	O	0.711903	-0.227320	-0.110741
H75	H	0.776247	-0.218059	-0.111820
H76	H	0.987218	-0.494659	0.019267
H77	H	0.551266	0.110834	-0.108103
H78	H	0.923141	-0.488371	-0.238002
O79	O	0.711953	0.120951	-0.110748
H80	H	0.776296	0.102064	-0.111802
O81	O	1.065340	-0.079591	0.310495
H82	H	1.065720	-0.142251	0.348222
H83	H	0.839077	-0.640903	-0.028053
O84	O	0.540300	-0.214470	-0.107901
H85	H	0.582867	-0.275907	-0.108614
H86	H	0.810344	-0.481172	-0.134043
H87	H	0.987579	-0.654321	0.018685
O88	O	1.084230	-0.668713	-0.055764
H89	H	1.082503	-0.713838	-0.108555
H90	H	1.025904	-0.497393	-0.201434
O91	O	1.041944	-0.666903	-0.211151
H92	H	1.034649	-0.705329	-0.267311
O93	O	0.903594	-0.654378	-0.251854
H94	H	0.859003	-0.695651	-0.224957
