data_functionalizedCrystal
_audit_creation_method	'MofGen! by Chris Wilmer'
_symmetry_space_group_name_H-M	'P1'
_symmetry_Int_Tables_number	1
_symmetry_cell_setting	triclinic
loop_
_symmetry_equiv_pos_as_xyz
  x,y,z
_cell_length_a	18.050591
_cell_length_b	17.077402
_cell_length_c	17.077396
_cell_angle_alpha	90.029784
_cell_angle_beta	89.974392
_cell_angle_gamma	89.981111
loop_
_atom_site_label
_atom_site_type_symbol
_atom_site_fract_x
_atom_site_fract_y
_atom_site_fract_z
Zn1	Zn	1.135354	0.312592	-0.443963
Zn2	Zn	1.135267	0.443867	-0.312694
Zn3	Zn	1.011163	0.312610	-0.312697
Zn4	Zn	1.011133	0.443810	-0.443904
O5	O	1.073229	0.378220	-0.378315
O6	O	1.239267	0.330022	-0.426574
O7	O	1.118780	0.426486	-0.202848
O8	O	1.027687	0.202760	-0.330136
O9	O	1.239203	0.426469	-0.330131
O10	O	1.118930	0.202747	-0.426577
O11	O	1.027602	0.330052	-0.202850
O12	O	0.907235	0.329998	-0.330079
O13	O	1.027636	0.426373	-0.553759
O14	O	0.907213	0.426390	-0.426476
O15	O	1.118900	0.329967	-0.553803
O16	O	1.118751	0.553706	-0.330074
O17	O	1.027550	0.553665	-0.426473
C18	C	0.880277	0.378190	-0.378271
C19	C	0.797732	0.378197	-0.378272
C20	C	1.073158	0.582167	-0.378284
C21	C	1.073195	0.669417	-0.378296
C22	C	1.073274	0.378162	-0.583059
C23	C	1.073294	0.378137	-0.670309
C24	C	0.598271	0.325718	-0.325972
C25	C	0.548857	0.397316	-0.306653
C26	C	0.646601	0.378221	-0.378307
C27	C	0.548934	0.306647	-0.397623
C28	C	0.500616	0.378237	-0.378340
C29	C	0.598273	0.449856	-0.358951
C30	C	0.598356	0.359140	-0.449955
C31	C	0.548963	0.430787	-0.430663
C32	C	0.730699	0.378210	-0.378286
C33	C	0.416520	0.378256	-0.378361
C34	C	1.266935	0.378249	-0.378359
C35	C	1.349481	0.378262	-0.378378
C36	C	1.073322	0.173475	-0.378364
C37	C	1.073361	0.086225	-0.378384
C38	C	1.120731	0.710403	-0.328155
C39	C	1.120768	0.792383	-0.328175
C40	C	1.073263	0.833377	-0.378333
C41	C	1.025725	0.792385	-0.428480
C42	C	1.025693	0.710406	-0.428463
C43	C	1.025794	0.963255	-0.428510
C44	C	1.025824	1.045240	-0.428525
C45	C	1.120869	1.045232	-0.328222
C46	C	1.120837	0.963253	-0.328205
C47	C	1.073297	0.922268	-0.378351
C48	C	1.120817	0.327934	-0.711323
C49	C	1.120826	0.327908	-0.793304
C50	C	1.073315	0.378089	-0.834269
C51	C	1.025786	0.428294	-0.793249
C52	C	1.025774	0.428316	-0.711270
C53	C	1.025816	0.428247	-0.964119
C54	C	1.025829	0.428227	-1.046104
C55	C	1.120868	0.327840	-1.046153
C56	C	1.120856	0.327861	-0.964174
C57	C	1.073328	0.378067	-0.923160
C58	C	1.073227	0.378221	-0.174367
C59	C	1.073352	0.378024	-0.087118
H60	H	0.619922	0.281365	-0.281665
H61	H	0.527115	0.413467	-0.246076
Cl62	Cl	0.631949	0.334171	-0.543456
H63	H	0.987156	1.078614	-0.469383
H64	H	0.987068	0.469188	-0.677877
Cl65	Cl	0.966055	0.491377	-0.844748
Cl66	Cl	1.180533	0.843905	-0.265140
Cl67	Cl	0.966065	0.491363	-0.912559
Cl68	Cl	0.966009	0.843920	-0.491540
H69	H	0.527449	0.475245	-0.474936
H70	H	0.619856	0.510410	-0.342560
Cl71	Cl	0.966030	0.911732	-0.491552
Cl72	Cl	1.180553	0.264850	-0.659833
H73	H	1.159565	0.286959	-1.079551
Cl74	Cl	0.515467	0.213187	-0.422826
Cl75	Cl	0.965933	0.658881	-0.491503
H76	H	1.159412	0.677031	-0.287308
Cl77	Cl	1.180589	0.264780	-0.912676
H78	H	1.159526	0.287030	-0.826694
Cl79	Cl	1.180557	0.911720	-0.265149
Cl80	Cl	0.966091	0.491304	-1.097601
H81	H	1.159580	1.078607	-0.287394
