data_functionalizedCrystal
_audit_creation_method	'MofGen! by Chris Wilmer'
_symmetry_space_group_name_H-M	'P1'
_symmetry_Int_Tables_number	1
_symmetry_cell_setting	triclinic
loop_
_symmetry_equiv_pos_as_xyz
  x,y,z
_cell_length_a	27.731994
_cell_length_b	26.210047
_cell_length_c	16.109301
_cell_angle_alpha	90.003078
_cell_angle_beta	96.958992
_cell_angle_gamma	90.002872
loop_
_atom_site_label
_atom_site_type_symbol
_atom_site_fract_x
_atom_site_fract_y
_atom_site_fract_z
O1	O	0.641361	0.042358	-0.098700
O2	O	0.500627	0.042375	-0.113789
O3	O	0.574861	0.042361	0.014836
O4	O	0.567128	0.042372	-0.227324
O5	O	0.574846	-0.042497	0.014816
O6	O	0.500613	-0.042483	-0.113809
O7	O	0.641347	-0.042500	-0.098720
Cu8	Cu	0.570979	-0.050240	-0.106266
Cu9	Cu	0.570996	0.050115	-0.106242
O10	O	0.567114	-0.042486	-0.227344
C11	C	0.482612	-0.000052	-0.113489
C12	C	0.428951	-0.000045	-0.112556
C13	C	0.096200	-0.046321	-0.106692
C14	C	-0.105473	-0.046327	-0.103146
O15	O	-0.131554	-0.085666	-0.102661
N16	N	-0.130681	-0.000071	-0.102695
C17	C	-0.105469	0.046189	-0.103125
O18	O	-0.131537	0.085533	-0.102651
C19	C	0.096204	0.046195	-0.106665
C20	C	0.121410	-0.000064	-0.107124
C21	C	0.121406	-0.092577	-0.107151
C22	C	0.171821	-0.092575	-0.108042
C23	C	0.197030	-0.046318	-0.108474
C24	C	0.171824	-0.000062	-0.108015
C25	C	0.121416	0.092455	-0.107088
C26	C	0.171838	0.092452	-0.107971
C27	C	0.197044	0.046193	-0.108431
C28	C	0.247449	0.046197	-0.109338
N29	N	0.272657	-0.000059	-0.109790
C30	C	0.247448	-0.046316	-0.109358
C31	C	-0.211350	0.046183	-0.101268
C32	C	-0.261768	0.046182	-0.100384
C33	C	-0.261768	-0.046335	-0.100404
C34	C	-0.211350	-0.046333	-0.101294
C35	C	-0.186141	-0.000073	-0.101719
C36	C	0.353323	-0.046309	-0.111229
C37	C	0.403742	-0.046303	-0.112124
C38	C	0.403738	0.046214	-0.112099
C39	C	0.353323	0.046208	-0.111209
C40	C	0.328117	-0.000057	-0.110772
O41	O	0.273562	0.085515	-0.109815
O42	O	0.273527	-0.085654	-0.109813
C43	C	0.045786	-0.046323	-0.105801
C44	C	0.020580	-0.000068	-0.105342
C45	C	0.045789	0.046189	-0.105775
C46	C	-0.029838	-0.000069	-0.104459
C47	C	-0.055047	-0.046327	-0.104027
C48	C	-0.029838	-0.092583	-0.104478
C49	C	0.020576	-0.092581	-0.105369
C50	C	0.020580	0.092445	-0.105323
C51	C	-0.029835	0.092439	-0.104433
C52	C	-0.055044	0.046182	-0.104001
N53	N	0.570970	-0.120824	-0.106282
C54	C	0.603863	-0.473344	-0.049300
C55	C	0.603873	-0.687003	-0.049288
O56	O	0.631821	-0.714630	-0.000844
N57	N	0.570998	-0.713718	-0.106224
C58	C	0.538116	-0.687015	-0.163163
O59	O	0.510151	-0.714640	-0.211584
C60	C	0.538103	-0.473357	-0.163170
C61	C	0.570984	-0.446645	-0.106236
C62	C	0.636740	-0.446632	0.007630
C63	C	0.636739	-0.393220	0.007623
C64	C	0.603860	-0.366521	-0.049313
C65	C	0.570983	-0.393233	-0.106243
C66	C	0.505219	-0.446655	-0.220104
C67	C	0.505218	-0.393237	-0.220100
C68	C	0.538099	-0.366525	-0.163166
C69	C	0.538103	-0.313123	-0.163185
N70	N	0.570978	-0.286408	-0.106250
C71	C	0.603857	-0.313107	-0.049314
C72	C	0.538126	-0.799188	-0.163156
C73	C	0.538129	-0.852602	-0.163156
C74	C	0.603886	-0.852586	-0.049280
C75	C	0.603884	-0.799171	-0.049285
C76	C	0.571001	-0.772473	-0.106221
C77	C	0.603852	-0.200939	-0.049332
C78	C	0.603849	-0.147523	-0.049346
C79	C	0.538091	-0.147543	-0.163218
C80	C	0.538095	-0.200955	-0.163208
C81	C	0.570977	-0.227651	-0.106258
O82	O	0.510166	-0.285463	-0.211598
O83	O	0.631811	-0.285473	-0.000887
C84	C	0.603864	-0.526755	-0.049294
C85	C	0.570986	-0.553468	-0.106223
C86	C	0.538108	-0.526769	-0.163159
C87	C	0.570990	-0.606882	-0.106223
C88	C	0.603869	-0.633581	-0.049287
C89	C	0.636744	-0.606866	0.007649
C90	C	0.636743	-0.553455	0.007643
C91	C	0.505233	-0.553483	-0.220095
C92	C	0.505237	-0.606895	-0.220084
C93	C	0.538116	-0.633594	-0.163148
C94	C	0.659363	-0.000072	-0.099019
C95	C	0.713023	-0.000075	-0.099952
C96	C	0.574540	-0.000068	0.045797
C97	C	0.573601	-0.000069	0.138080
N98	N	0.571008	0.120699	-0.106219
C99	C	0.567434	-0.000056	-0.258305
C100	C	0.568373	-0.000052	-0.350589
C101	C	0.615466	-0.000066	0.360885
C102	C	0.614580	-0.000062	0.447594
C103	C	0.526505	-0.000053	0.426600
C104	C	0.527392	-0.000054	0.339892
C105	C	0.571874	-0.000063	0.307038
C106	C	0.570101	-0.000058	0.480454
C107	C	0.569140	-0.000053	0.574468
C108	C	0.572835	-0.000066	0.213018
H109	H	0.332806	-0.083983	-0.110880
F110	F	0.638878	-0.881011	0.011316
F111	F	-0.184527	0.095424	-0.101721
H112	H	-0.050373	-0.130247	-0.104130
F113	F	0.430565	-0.095540	-0.112616
H114	H	0.041094	-0.130250	-0.105743
F115	F	0.638849	-0.229344	0.011281
F116	F	0.503139	-0.881026	-0.223762
F117	F	0.479167	-0.000043	0.461574
F118	F	0.047403	0.141681	-0.105782
H119	H	0.511347	-0.777454	-0.209522
H120	H	0.491891	-0.000049	0.296047
H121	H	0.630626	-0.125775	-0.002984
F122	F	0.094602	0.141691	-0.106597
F123	F	0.671733	-0.364796	0.068223
F124	F	0.198664	0.141691	-0.108421
H125	H	0.192339	-0.130244	-0.108411
H126	H	0.100886	-0.130247	-0.106797
H127	H	0.332799	0.083876	-0.110849
H128	H	0.650078	-0.000063	0.491434
H129	H	-0.190831	-0.084001	-0.101669
H130	H	0.424273	0.083876	-0.112455
H131	H	-0.282302	-0.084000	-0.100054
H132	H	-0.050353	0.130112	-0.104066
H133	H	-0.282287	0.083851	-0.100023
H134	H	0.663514	-0.468366	0.053998
H135	H	0.630658	-0.777425	-0.002925
H136	H	0.478458	-0.531749	-0.266458
F137	F	0.470223	-0.475075	-0.280700
H138	H	0.511325	-0.222704	-0.209576
F139	F	0.470217	-0.364827	-0.280699
F140	F	0.662808	-0.000075	0.325921
F141	F	0.503101	-0.119120	-0.223813
F142	F	0.671738	-0.635291	0.068242
F143	F	0.671739	-0.525032	0.068240
F144	F	0.470241	-0.635319	-0.280689
