data_functionalizedCrystal
_audit_creation_method	'MofGen! by Chris Wilmer'
_symmetry_space_group_name_H-M	'P1'
_symmetry_Int_Tables_number	1
_symmetry_cell_setting	triclinic
loop_
_symmetry_equiv_pos_as_xyz
  x,y,z
_cell_length_a	12.827893
_cell_length_b	12.759400
_cell_length_c	12.827885
_cell_angle_alpha	89.969506
_cell_angle_beta	89.980728
_cell_angle_gamma	90.014655
loop_
_atom_site_label
_atom_site_type_symbol
_atom_site_fract_x
_atom_site_fract_y
_atom_site_fract_z
Zn1	Zn	1.597675	-0.418216	-0.590844
Zn2	Zn	1.597571	-0.593932	-0.416102
Zn3	Zn	1.422916	-0.418267	-0.416117
Zn4	Zn	1.422904	-0.593854	-0.590802
O5	O	1.510266	-0.506067	-0.503466
O6	O	1.743897	-0.441537	-0.567675
O7	O	1.574365	-0.570684	-0.269868
O8	O	1.446147	-0.271240	-0.439319
O9	O	1.743821	-0.570634	-0.439293
O10	O	1.574541	-0.271202	-0.567690
O11	O	1.446046	-0.441624	-0.269879
O12	O	1.276678	-0.441548	-0.439278
O13	O	1.446125	-0.570501	-0.737043
O14	O	1.276669	-0.570550	-0.567618
O15	O	1.574529	-0.441461	-0.737074
O16	O	1.574352	-0.740942	-0.439252
O17	O	1.446025	-0.740885	-0.567603
C18	C	1.238756	-0.506047	-0.503446
C19	C	1.122603	-0.506064	-0.503462
C20	C	1.070842	-0.569998	-0.566871
C21	C	0.950791	-0.570017	-0.566889
C22	C	1.510204	-0.779035	-0.503444
C23	C	1.510273	-0.895811	-0.503470
C24	C	1.577168	-0.950668	-0.436711
C25	C	1.577232	-1.060392	-0.436743
C26	C	1.443499	-1.060393	-0.570296
C27	C	1.443440	-0.950671	-0.570268
C28	C	1.644001	-0.895809	-0.369913
C29	C	1.710899	-0.950666	-0.303148
C30	C	1.710964	-1.060390	-0.303180
C31	C	1.644129	-1.115257	-0.369977
C32	C	1.782836	-0.506088	-0.503487
C33	C	1.898990	-0.506097	-0.503495
C34	C	1.510337	-0.505966	-0.776036
C35	C	1.510368	-0.505923	-0.892190
C36	C	1.510357	-0.232034	-0.503511
C37	C	1.510396	-0.115257	-0.503530
C38	C	1.573913	-0.442058	-0.943989
C39	C	1.573946	-0.442012	-1.064040
C40	C	1.510256	-0.506092	-0.231956
C41	C	1.510428	-0.505839	-0.115803
H42	H	0.906277	-0.624756	-0.621173
C43	C	1.784554	-1.120730	-0.229740
N44	N	1.839981	-1.166176	-0.174418
C45	C	1.369976	-1.120751	-0.643757
N46	N	1.314593	-1.166212	-0.699085
C47	C	1.647376	-0.368231	-0.883838
N48	N	1.702711	-0.312622	-0.838533
C49	C	1.369838	-0.890324	-0.643691
N50	N	1.314395	-0.844872	-0.698991
C51	C	1.644207	-1.235957	-0.370012
N52	N	1.644263	-1.326868	-0.370034
H53	H	1.765320	-0.905988	-0.248770
H54	H	1.078042	-0.451337	-0.449194
H55	H	1.628352	-0.387338	-1.108587
C56	C	0.959116	-0.432142	-0.430154
N57	N	1.004411	-0.376436	-0.374915
H58	H	1.456025	-0.560523	-1.071264
C59	C	1.436897	-0.579744	-0.952341
N60	N	1.381557	-0.635347	-0.997646
H61	H	1.115403	-0.624717	-0.621148
C62	C	1.643951	-0.775111	-0.369886
N63	N	1.643917	-0.684200	-0.369872
