data_functionalizedCrystal
_audit_creation_method	'MofGen! by Chris Wilmer'
_symmetry_space_group_name_H-M	'P1'
_symmetry_Int_Tables_number	1
_symmetry_cell_setting	triclinic
loop_
_symmetry_equiv_pos_as_xyz
  x,y,z
_cell_length_a	9.065215
_cell_length_b	9.065218
_cell_length_c	8.140239
_cell_angle_alpha	90.002028
_cell_angle_beta	90.002285
_cell_angle_gamma	85.015291
loop_
_atom_site_label
_atom_site_type_symbol
_atom_site_fract_x
_atom_site_fract_y
_atom_site_fract_z
O1	O	1.960400	0.216334	0.136592
O2	O	2.460400	0.716334	0.636592
O3	O	1.531115	0.234085	0.136598
O4	O	2.031115	0.734085	0.636598
O5	O	1.754631	0.010567	0.136590
O6	O	2.254631	0.510567	0.636590
O7	O	1.736884	0.439852	0.136600
O8	O	2.236884	0.939852	0.636600
O9	O	1.754618	0.010564	-0.136637
O10	O	2.254618	0.510564	0.363363
O11	O	1.531103	0.234082	-0.136629
O12	O	2.031103	0.734082	0.363371
O13	O	1.960388	0.216331	-0.136635
O14	O	2.460388	0.716331	0.363365
Zn15	Zn	1.745743	0.225206	-0.180013
Zn16	Zn	2.245743	0.725206	0.319987
Zn17	Zn	1.745760	0.225210	0.179976
Zn18	Zn	2.245760	0.725210	0.679976
O19	O	1.736872	0.439849	-0.136627
O20	O	2.236872	0.939849	0.363373
C21	C	1.476122	0.232379	-0.000014
C22	C	1.976122	0.732379	0.499986
C23	C	1.312279	0.227281	-0.000012
C24	C	1.812279	0.727281	0.499988
C25	C	2.015381	0.218038	-0.000019
C26	C	2.515381	0.718038	0.499981
C27	C	2.179224	0.223136	-0.000010
C28	C	2.679224	0.723136	0.499990
C29	C	1.752919	-0.044421	-0.000021
C30	C	2.252919	0.455579	0.499979
C31	C	1.747819	-0.208264	-0.000014
C32	C	2.247819	0.291736	0.499986
C33	C	1.738584	0.494837	-0.000012
C34	C	2.238584	0.994837	0.499988
C35	C	1.743683	0.658680	-0.000008
C36	C	2.243683	1.158680	0.499992
N37	N	1.745743	0.225203	-0.425695
N38	N	2.245743	0.725203	0.074305
N39	N	1.745772	0.225202	0.425658
N40	N	2.245772	0.725202	0.925658
