data_functionalizedCrystal
_audit_creation_method	'MofGen! by Chris Wilmer'
_symmetry_space_group_name_H-M	'P1'
_symmetry_Int_Tables_number	1
_symmetry_cell_setting	triclinic
loop_
_symmetry_equiv_pos_as_xyz
  x,y,z
_cell_length_a	15.995343
_cell_length_b	15.995292
_cell_length_c	14.586319
_cell_angle_alpha	89.999401
_cell_angle_beta	90.000814
_cell_angle_gamma	83.478900
loop_
_atom_site_label
_atom_site_type_symbol
_atom_site_fract_x
_atom_site_fract_y
_atom_site_fract_z
O1	O	1.110966	0.107897	-0.076142
O2	O	0.867187	0.121232	-0.076163
O3	O	0.995766	-0.007326	-0.076153
O4	O	0.982387	0.236456	-0.076152
O5	O	0.995757	-0.007328	0.076328
O6	O	0.867178	0.121230	0.076318
O7	O	1.110957	0.107895	0.076339
Cu8	Cu	0.989067	0.114563	0.090251
Cu9	Cu	0.989077	0.114565	-0.090075
O10	O	0.982378	0.236454	0.076329
C11	C	0.835988	0.120681	0.000075
C12	C	0.743037	0.119032	0.000066
C13	C	0.572852	0.116038	0.000078
C14	C	0.549525	0.023238	0.000078
C15	C	0.452848	0.021493	0.000429
C16	C	0.405292	0.113089	0.000090
C17	C	0.434369	0.159750	0.086991
C18	C	0.531161	0.160850	0.087058
C19	C	0.531082	0.162211	-0.086347
C20	C	0.434588	0.158785	-0.087484
C21	C	0.310595	0.111428	0.000099
C22	C	0.667549	0.117702	0.000075
C23	C	0.995217	-0.038523	0.000085
C24	C	0.993584	-0.131476	0.000078
C25	C	0.987583	-0.469214	0.000086
C26	C	1.080388	-0.445904	0.000434
C27	C	1.082152	-0.349229	0.000088
C28	C	0.990561	-0.301658	0.000082
C29	C	0.944168	-0.330757	-0.086993
C30	C	0.943051	-0.427547	-0.087063
C31	C	0.941146	-0.427407	0.086336
C32	C	0.944585	-0.330914	0.087484
C33	C	0.992239	-0.206962	0.000077
C34	C	0.985902	-0.563910	0.000084
C35	C	1.142156	0.108447	0.000099
C36	C	1.235107	0.110096	0.000102
C37	C	0.982927	0.267650	0.000089
C38	C	0.984560	0.360603	0.000090
N39	N	0.989065	0.114561	0.217083
N40	N	0.989085	0.114560	-0.216907
C41	C	1.046019	0.057654	0.452094
C42	C	1.046021	0.057652	0.548075
C43	C	0.932126	0.171470	0.548076
C44	C	0.932120	0.171467	0.452096
C45	C	0.989071	0.114560	0.404108
C46	C	0.989079	0.114561	0.596068
C47	C	0.989082	0.114559	0.700136
C48	C	0.989068	0.114561	0.300034
H49	H	0.577544	-0.012730	-0.062230
H50	H	0.402509	0.227162	0.089979
N51	N	0.548627	0.247904	-0.087399
N52	N	0.524932	0.295762	-0.022408
H53	H	0.537324	0.356282	-0.023144
H54	H	1.092391	0.011316	0.413024
N55	N	1.104194	-0.000486	0.597077
N56	N	1.155032	-0.051292	0.554215
H57	H	1.196118	-0.092356	0.588821
H58	H	0.885758	0.217803	0.587158
N59	N	0.409163	0.119583	0.168424
N60	N	0.369793	0.056604	0.162684
H61	H	0.351991	0.028231	0.220194
N62	N	1.125012	-0.482309	-0.077458
N63	N	1.088763	-0.525347	-0.133226
H64	H	1.120276	-0.551059	-0.188239
N65	N	0.857693	-0.445800	-0.092056
N66	N	0.834180	-0.487476	-0.157802
H67	H	0.773896	-0.500362	-0.161336
N68	N	0.428983	-0.024342	-0.077684
N69	N	0.353329	-0.033485	-0.090781
H70	H	0.336478	-0.065864	-0.145946
N71	N	0.585899	-0.021148	0.078135
N72	N	0.628927	0.015268	0.133766
H73	H	0.654619	-0.016078	0.188895
N74	N	0.429730	-0.024119	0.079034
N75	N	0.485032	-0.054755	0.133808
H76	H	0.468707	-0.086970	0.189327
N77	N	0.393265	0.242644	-0.094403
N78	N	0.409105	0.288356	-0.160216
H79	H	0.379923	0.347586	-0.165098
H80	H	0.885742	0.217807	0.413023
N81	N	0.566616	0.125526	-0.168997
N82	N	0.623163	0.064895	-0.165205
H83	H	0.648282	0.038996	-0.223572
H84	H	0.876770	-0.298887	-0.090234
H85	H	0.416041	0.124806	-0.151775
H86	H	0.557950	0.128912	0.152265
H87	H	1.118486	-0.330206	0.062505
H88	H	0.545721	0.228902	0.090775
H89	H	1.116155	-0.473903	0.062880
N90	N	1.128012	-0.326147	-0.078348
N91	N	1.158808	-0.381472	-0.133007
H92	H	1.191197	-0.365172	-0.188408
H93	H	0.976392	-0.310697	-0.151790
N94	N	0.983366	-0.461181	-0.168716
N95	N	1.012131	-0.413145	-0.225253
H96	H	1.040606	-0.436895	-0.282923
N97	N	0.977612	-0.462867	0.169126
N98	N	1.038277	-0.519391	0.165563
H99	H	1.064040	-0.544438	0.224029
N100	N	0.986969	-0.307626	0.168291
N101	N	1.050799	-0.269620	0.161607
H102	H	1.080736	-0.253169	0.218675
H103	H	0.877732	-0.297943	0.092739
H104	H	0.872834	-0.441395	0.086919
