data_functionalizedCrystal
_audit_creation_method	'MofGen! by Chris Wilmer'
_symmetry_space_group_name_H-M	'P1'
_symmetry_Int_Tables_number	1
_symmetry_cell_setting	triclinic
loop_
_symmetry_equiv_pos_as_xyz
  x,y,z
_cell_length_a	14.853558
_cell_length_b	19.188924
_cell_length_c	13.330367
_cell_angle_alpha	89.993282
_cell_angle_beta	89.992972
_cell_angle_gamma	83.386549
loop_
_atom_site_label
_atom_site_type_symbol
_atom_site_fract_x
_atom_site_fract_y
_atom_site_fract_z
O1	O	1.195864	0.091125	-0.083416
O2	O	0.933343	0.101990	-0.083421
O3	O	1.072183	-0.005074	-0.083407
O4	O	1.057025	0.198188	-0.083431
O5	O	1.072163	-0.005076	0.083441
O6	O	0.933323	0.101988	0.083426
O7	O	1.195844	0.091122	0.083431
Cu8	Cu	1.064582	0.096555	0.098663
Cu9	Cu	1.064606	0.096558	-0.098653
O10	O	1.057005	0.198186	0.083417
C11	C	0.899747	0.101498	0.000002
C12	C	0.799671	0.100026	0.000000
C13	C	1.071683	-0.031087	0.000018
C14	C	1.070212	-0.108597	0.000021
C15	C	0.752666	0.099337	-0.090952
C16	C	0.752642	0.099326	0.090951
C17	C	0.658616	0.097939	0.090953
C18	C	0.611611	0.097251	0.000001
C19	C	0.658631	0.097948	-0.090953
C20	C	0.611590	0.097235	0.181905
C21	C	0.517558	0.095847	0.181911
C22	C	0.470550	0.095163	0.090958
C23	C	0.517577	0.095862	0.000000
C24	C	0.470571	0.095173	-0.090952
C25	C	0.517595	0.095876	-0.181911
C26	C	0.611623	0.097264	-0.181906
C27	C	0.376522	0.093775	0.090953
C28	C	0.376537	0.093784	-0.090953
C29	C	1.069537	-0.144997	-0.090928
C30	C	1.068143	-0.217824	-0.090936
C31	C	1.067442	-0.254251	0.000010
C32	C	1.068112	-0.217842	0.090971
C33	C	1.069497	-0.145015	0.090976
N34	N	1.116562	-0.373752	0.067700
N35	N	1.115248	-0.442935	0.067689
C36	C	1.063266	-0.473674	0.000001
N37	N	1.012659	-0.432617	-0.067692
N38	N	1.013977	-0.363429	-0.067684
C39	C	1.065939	-0.333219	0.000015
C40	C	1.061077	-0.589041	-0.090963
C41	C	1.059677	-0.661869	-0.090966
C42	C	1.059656	-0.661886	0.090943
C43	C	1.061047	-0.589059	0.090944
C44	C	1.061762	-0.552641	-0.000011
C45	C	1.229440	0.091614	0.000006
C46	C	1.329516	0.093086	0.000001
C47	C	1.057504	0.224200	-0.000010
C48	C	1.058975	0.301709	-0.000019
N49	N	1.064572	0.096552	0.237445
N50	N	1.064623	0.096554	-0.237435
C51	C	1.003125	0.143947	0.710061
C52	C	1.126111	0.049163	0.710042
C53	C	1.126100	0.049161	0.605024
C54	C	1.064602	0.096553	0.552519
C55	C	1.003114	0.143947	0.605033
C56	C	1.187593	0.001772	0.552502
C57	C	1.187586	0.001768	0.447477
C58	C	1.126083	0.049158	0.394971
C59	C	1.064592	0.096554	0.447491
C60	C	1.003094	0.143946	0.394986
C61	C	0.941598	0.191339	0.447505
C62	C	0.941611	0.191337	0.552526
C63	C	1.126070	0.049160	0.289949
C64	C	1.003084	0.143947	0.289958
H65	H	0.338271	0.093227	-0.165018
O66	O	1.061756	-0.553809	0.179383
C67	C	1.061544	-0.561509	0.359808
C68	C	1.060762	-0.601517	0.259720
H69	H	1.060721	-0.600062	0.424786
H70	H	1.125287	-0.533769	0.364423
H71	H	0.999132	-0.521063	0.364305
H72	H	1.123131	-0.641997	0.255155
H73	H	0.996978	-0.629210	0.255146
O74	O	1.185711	0.003040	0.238966
C75	C	1.239085	-0.118281	0.206851
C76	C	1.171475	-0.066129	0.264639
H77	H	1.227611	-0.174215	0.227602
H78	H	1.228505	-0.110192	0.122761
H79	H	1.311245	-0.109037	0.227460
H80	H	1.099288	-0.075342	0.244114
H81	H	1.182134	-0.074230	0.348715
H82	H	1.061654	-0.559388	-0.165024
H83	H	1.059123	-0.691504	-0.165031
H84	H	0.479311	0.095311	-0.255964
O85	O	1.067498	-0.253086	-0.179377
C86	C	1.067548	-0.245377	-0.359803
C87	C	1.068323	-0.205364	-0.259718
H88	H	1.068196	-0.206810	-0.424784
H89	H	1.129979	-0.285798	-0.364445
H90	H	1.003823	-0.273148	-0.364268
H91	H	1.132006	-0.177552	-0.255186
H92	H	1.005849	-0.164983	-0.255118
O93	O	1.247199	-0.044329	0.603556
C94	C	1.266760	-0.139621	0.722203
C95	C	1.199160	-0.087460	0.664417
H96	H	1.227946	-0.174496	0.771438
H97	H	1.310704	-0.173548	0.666685
H98	H	1.311684	-0.109397	0.771318
H99	H	1.154176	-0.117627	0.615300
H100	H	1.155279	-0.053533	0.719989
O101	O	1.247349	-0.044338	0.396621
C102	C	1.369370	-0.138326	0.407695
C103	C	1.301727	-0.086158	0.465415
H104	H	1.413365	-0.172141	0.463290
H105	H	1.330629	-0.173310	0.358575
H106	H	1.414237	-0.108108	0.358476
H107	H	1.256843	-0.116319	0.514688
H108	H	1.340524	-0.051175	0.514472
O109	O	0.798278	0.100145	-0.179330
C110	C	0.816558	0.161005	-0.334827
C111	C	0.764845	0.160183	-0.234767
H112	H	0.789534	0.209532	-0.379685
H113	H	0.891840	0.162165	-0.319266
H114	H	0.806543	0.111890	-0.379639
H115	H	0.774786	0.209288	-0.189905
H116	H	0.689582	0.158986	-0.250398
H117	H	0.953001	0.182537	0.247215
O118	O	0.657243	0.098069	-0.270280
C119	C	0.675552	0.158923	-0.425775
C120	C	0.623825	0.158107	-0.325722
H121	H	0.648541	0.207451	-0.470638
H122	H	0.750833	0.160077	-0.410203
H123	H	0.665535	0.109809	-0.470587
H124	H	0.633768	0.207212	-0.280860
H125	H	0.548563	0.156918	-0.341366
O126	O	0.881896	0.237309	0.396342
C127	C	0.827433	0.279342	0.234546
C128	C	0.895075	0.227235	0.292366
H129	H	0.838077	0.271225	0.150471
H130	H	0.755244	0.270142	0.255127
H131	H	0.838942	0.335275	0.255243
H132	H	0.883649	0.171282	0.271700
H133	H	0.967240	0.236496	0.271780
O134	O	0.798417	0.099902	0.179232
C135	C	0.914991	0.041001	0.284826
C136	C	0.863232	0.040269	0.184799
H137	H	0.967393	-0.007215	0.289370
H138	H	0.950634	0.090440	0.289382
H139	H	0.865210	0.040299	0.349818
H140	H	0.912953	0.040945	0.119751
H141	H	0.827576	-0.009166	0.180331
H142	H	0.649870	0.097789	0.255954
O143	O	1.067273	-0.253175	0.179343
C144	C	0.988769	-0.267605	0.334838
C145	C	0.989603	-0.227550	0.234779
H146	H	0.925989	-0.246893	0.379695
H147	H	0.987607	-0.325913	0.319274
H148	H	1.052140	-0.259631	0.379651
H149	H	0.926243	-0.235467	0.189915
H150	H	0.990812	-0.169257	0.250413
H151	H	0.479280	0.095274	0.255975
O152	O	0.881793	0.237397	0.603387
C153	C	0.759835	0.331435	0.592327
C154	C	0.827514	0.279300	0.534599
H155	H	0.715946	0.365337	0.536737
H156	H	0.714868	0.301260	0.641486
H157	H	0.798637	0.366338	0.641507
H158	H	0.788786	0.244384	0.485365
H159	H	0.872480	0.309519	0.485503
H160	H	0.953053	0.182532	0.752824
O161	O	0.330978	0.093123	0.179388
C162	C	0.340892	0.093203	0.359814
C163	C	0.392578	0.093960	0.259728
H164	H	0.390676	0.093865	0.424795
H165	H	0.288445	0.141389	0.364436
H166	H	0.305290	0.043741	0.364300
H167	H	0.428235	0.143389	0.255175
H168	H	0.444974	0.045741	0.255148
O169	O	1.070006	-0.109560	-0.179246
C170	C	0.993238	-0.019618	-0.284833
C171	C	0.992673	-0.059669	-0.184748
H172	H	0.930711	0.020718	-0.289324
H173	H	1.056879	0.008241	-0.289540
H174	H	0.992514	-0.058205	-0.349769
H175	H	0.993363	-0.021129	-0.119756
H176	H	0.929037	-0.087539	-0.180129
H177	H	1.059078	-0.691543	0.164993
H178	H	1.070044	-0.115378	0.165040
H179	H	1.176185	0.010581	0.752794
