data_functionalizedCrystal
_audit_creation_method	'MofGen! by Chris Wilmer'
_symmetry_space_group_name_H-M	'P1'
_symmetry_Int_Tables_number	1
_symmetry_cell_setting	triclinic
loop_
_symmetry_equiv_pos_as_xyz
  x,y,z
_cell_length_a	15.298068
_cell_length_b	15.297510
_cell_length_c	11.169409
_cell_angle_alpha	99.641876
_cell_angle_beta	99.711646
_cell_angle_gamma	69.201691
loop_
_atom_site_label
_atom_site_type_symbol
_atom_site_fract_x
_atom_site_fract_y
_atom_site_fract_z
Zn1	Zn	1.357864	0.124356	1.020430
Zn2	Zn	1.330809	0.279925	0.849296
Zn3	Zn	1.202307	0.151299	0.790074
Zn4	Zn	1.175366	0.306720	1.020242
O5	O	1.266586	0.215575	0.920011
O6	O	1.484430	0.122503	1.022592
O7	O	1.313715	0.262924	0.673493
O8	O	1.245540	0.017574	0.795925
O9	O	1.464552	0.236799	0.896860
O10	O	1.359827	-0.002221	0.965167
O11	O	1.219305	0.168423	0.629983
O12	O	1.068578	0.194405	0.795743
O13	O	1.199623	0.282467	1.188214
O14	O	1.048785	0.308593	0.964847
O15	O	1.333703	0.148485	1.188352
O16	O	1.287591	0.413630	0.896678
O17	O	1.173388	0.433316	1.022272
C18	C	1.024934	0.257331	0.873849
C19	C	0.921550	0.275217	0.854134
C20	C	0.671463	0.087975	1.060966
C21	C	0.768597	0.071173	1.079497
C22	C	0.806840	0.122182	1.023157
C23	C	0.747940	0.189997	0.948284
C24	C	0.650796	0.206806	0.929759
C25	C	0.786173	0.241013	0.891951
C26	C	0.727272	0.308828	0.817078
C27	C	0.630138	0.325633	0.798556
C28	C	0.591895	0.274624	0.854895
C29	C	0.883317	0.224204	0.910476
C30	C	0.862649	0.343035	0.779269
C31	C	0.765515	0.359837	0.760739
C32	C	1.224656	0.457215	0.965912
C33	C	1.206803	0.560575	0.985605
C34	C	1.394522	0.810770	0.779804
C35	C	1.411295	0.713658	0.761295
C36	C	1.360174	0.675382	0.817371
C37	C	1.292276	0.734228	0.891959
C38	C	1.275495	0.831350	0.910462
C39	C	1.241147	0.695963	0.948029
C40	C	1.173249	0.754809	1.022617
C41	C	1.156472	0.851921	1.041117
C42	C	1.207594	0.890197	0.985041
C43	C	1.257928	0.598841	0.929526
C44	C	1.138901	0.619421	1.060184
C45	C	1.122128	0.716533	1.078693
C46	C	1.509182	0.173656	0.966353
C47	C	1.612562	0.155793	0.986102
C48	C	1.308698	0.972988	0.873973
C49	C	1.326620	0.869616	0.854383
C50	C	1.266676	0.215459	1.233047
C51	C	1.266714	0.215410	1.366445
C52	C	1.266563	0.215614	0.608189
C53	C	1.266750	0.215370	0.474777
H54	H	0.893785	0.384575	0.733400
H55	H	1.066844	0.764458	1.139423
H56	H	1.466576	0.665750	0.700565
O57	O	1.090626	0.909163	1.113670
C58	C	1.133867	0.956079	1.212051
H59	H	1.201860	0.958412	1.186022
H60	H	1.150534	0.916824	1.295804
C61	C	0.983232	1.054340	1.273509
C62	C	1.066738	1.057212	1.241536
H63	H	0.941823	1.116722	1.291702
H64	H	0.954099	1.022730	1.207231
H65	H	0.997134	1.021623	1.343299
H66	H	1.052837	1.089918	1.171738
H67	H	1.095867	1.088831	1.307803
O68	O	0.825681	0.005235	1.152208
C69	C	0.771099	-0.036170	1.197982
H70	H	0.702400	-0.027447	1.135003
H71	H	0.754886	-0.000254	1.293585
C72	C	0.910553	-0.152412	1.281265
C73	C	0.826180	-0.141705	1.203907
H74	H	0.944530	-0.217510	1.284926
H75	H	0.947327	-0.124515	1.250430
H76	H	0.897030	-0.122476	1.360926
H77	H	0.839704	-0.171631	1.124245
H78	H	0.789409	-0.169610	1.234729
O79	O	0.634187	0.038582	1.115752
C80	C	0.568854	0.101323	1.192539
H81	H	0.542080	0.174285	1.160661
H82	H	0.604539	0.105136	1.290562
C83	C	0.518335	-0.023464	1.226218
C84	C	0.485445	0.066147	1.187058
H85	H	0.466887	-0.045164	1.222843
H86	H	0.562353	-0.065736	1.174489
H87	H	0.548073	-0.020275	1.307901
H88	H	0.455720	0.062954	1.105373
H89	H	0.441420	0.108418	1.238774
O90	O	1.323819	0.541794	0.856926
C91	C	1.299406	0.569110	0.737945
H92	H	1.251462	0.645834	0.742034
H93	H	1.261037	0.522778	0.677940
C94	C	1.448221	0.463663	0.678489
C95	C	1.389342	0.557899	0.683513
H96	H	1.503697	0.456744	0.644909
H97	H	1.464668	0.445257	0.758647
H98	H	1.416236	0.425064	0.628487
H99	H	1.421324	0.596495	0.733527
H100	H	1.372903	0.576311	0.603362
H101	H	1.373834	0.596309	0.802295
O102	O	1.089379	0.582186	1.114811
C103	C	1.152028	0.516754	1.191748
H104	H	1.220233	0.533297	1.218793
H105	H	1.167962	0.442615	1.141239
C106	C	1.023034	0.502763	1.274270
C107	C	1.106802	0.523087	1.307495
H108	H	0.995136	0.506665	1.345666
H109	H	0.980825	0.546843	1.222433
H110	H	1.036324	0.440982	1.232178
H111	H	1.093510	0.584870	1.349573
H112	H	1.149008	0.479017	1.359342
H113	H	1.193943	0.969272	1.000110
O114	O	0.573002	0.391624	0.725935
C115	C	0.580657	0.480234	0.774125
H116	H	0.650863	0.469995	0.834086
H117	H	0.520569	0.521071	0.831301
C118	C	0.489124	0.548270	0.594886
C119	C	0.575356	0.535695	0.668523
H120	H	0.485850	0.582483	0.529747
H121	H	0.483963	0.488573	0.562421
H122	H	0.439060	0.582297	0.642547
H123	H	0.625417	0.501658	0.620866
H124	H	0.580525	0.595388	0.700978
O125	O	0.708374	0.425827	0.688120
C126	C	0.716021	0.514440	0.736310
H127	H	0.786228	0.504207	0.796266
H128	H	0.655934	0.555270	0.793492
C129	C	0.624473	0.582475	0.557078
C130	C	0.710706	0.569906	0.630708
H131	H	0.621190	0.616691	0.491939
H132	H	0.619317	0.522775	0.524613
H133	H	0.574410	0.616496	0.604743
H134	H	0.760766	0.535875	0.583046
H135	H	0.715870	0.629601	0.663163
O136	O	1.444091	0.848105	0.725430
C137	C	1.414684	0.946446	0.757706
H138	H	1.381938	0.964948	0.847020
H139	H	1.360367	0.982628	0.682295
C140	C	1.540386	0.957278	0.664484
C141	C	1.500175	0.980001	0.774187
H142	H	1.593119	0.977977	0.674645
H143	H	1.560197	0.891024	0.642734
H144	H	1.495113	0.987431	0.601652
H145	H	1.545444	0.949838	0.837012
H146	H	1.480374	1.046250	0.795947
H147	H	0.931265	0.168988	0.971437
H148	H	0.885932	0.108495	1.038245
H149	H	0.512800	0.288307	0.839820
