data_functionalizedCrystal
_audit_creation_method	'MofGen! by Chris Wilmer'
_symmetry_space_group_name_H-M	'P1'
_symmetry_Int_Tables_number	1
_symmetry_cell_setting	triclinic
loop_
_symmetry_equiv_pos_as_xyz
  x,y,z
_cell_length_a	15.995350
_cell_length_b	10.654559
_cell_length_c	9.130313
_cell_angle_alpha	90.003271
_cell_angle_beta	89.997624
_cell_angle_gamma	83.990529
loop_
_atom_site_label
_atom_site_type_symbol
_atom_site_fract_x
_atom_site_fract_y
_atom_site_fract_z
O1	O	0.117633	1.666296	0.121799
O2	O	0.128830	1.300673	0.121800
O3	O	0.001402	1.493479	0.121798
O4	O	0.245061	1.473490	0.121801
O5	O	0.001410	1.493466	-0.121801
O6	O	0.128837	1.300659	-0.121799
O7	O	0.117641	1.666283	-0.121799
Cu8	Cu	0.123240	1.483470	-0.144042
Cu9	Cu	0.123231	1.483486	0.144042
O10	O	0.245069	1.473477	-0.121798
C11	C	0.128010	1.253879	0.000001
C12	C	0.125545	1.114469	0.000001
C13	C	-0.029794	1.492646	0.000002
C14	C	-0.122758	1.490168	0.000010
C15	C	0.048202	1.063939	-0.000004
C16	C	0.045891	0.932947	0.000007
C17	C	0.198275	0.903024	0.000021
C18	C	0.200585	1.034014	0.000021
C19	C	-0.039776	1.081214	-0.000018
C20	C	-0.042086	0.950222	-0.000007
C21	C	-0.460558	1.481271	0.000005
C22	C	-0.413924	1.343958	0.000551
C23	C	-0.317219	1.346436	0.000002
C24	C	-0.292971	1.485684	0.000008
C25	C	-0.333650	1.553404	-0.139096
C26	C	-0.430306	1.549955	-0.139213
C27	C	-0.430656	1.552807	0.137805
C28	C	-0.333711	1.552774	0.139643
C29	C	-0.198259	1.488186	0.000005
C30	C	-0.555270	1.478774	-0.000002
C31	C	0.276264	1.474310	0.000002
C32	C	0.369229	1.476787	0.000003
C33	C	0.118461	1.713076	0.000003
C34	C	0.120925	1.852487	0.000012
N35	N	0.123246	1.483468	-0.346664
C36	C	0.174499	1.559628	-0.423330
C37	C	0.174483	1.559646	-0.576667
C38	C	0.071960	1.407335	-0.576659
C39	C	0.071971	1.407324	-0.423325
C40	C	0.233693	1.647559	-0.423336
C41	C	0.233677	1.647578	-0.576672
N42	N	0.123218	1.483497	0.346665
H43	H	0.263565	1.075149	0.000049
H44	H	-0.461827	1.654047	0.138744
H45	H	0.259369	0.837503	0.000038
H46	H	0.030227	1.345321	-0.360910
H47	H	-0.289664	1.292834	-0.099883
H48	H	0.030214	1.345341	-0.639095
H49	H	-0.072933	1.123400	0.101921
H50	H	0.213123	1.746879	-0.381704
H51	H	0.296739	1.607205	-0.375800
H52	H	-0.451461	1.507918	0.243238
H53	H	-0.076485	0.921297	-0.101954
H54	H	0.299701	1.615783	-0.618313
H55	H	-0.066352	1.127197	-0.105201
H56	H	-0.070111	0.914964	0.105174
H57	H	-0.432779	1.289081	0.100306
H58	H	-0.289111	1.293203	0.099718
H59	H	0.207360	1.742512	-0.624206
H60	H	-0.433834	1.289314	-0.098647
H61	H	-0.448892	1.500562	-0.243199
H62	H	-0.461966	1.650768	-0.145520
H63	H	-0.318928	1.655706	-0.144265
H64	H	-0.305539	1.506359	-0.242617
H65	H	-0.317757	1.654320	0.148047
H66	H	-0.306754	1.503262	0.242549
