data_functionalizedCrystal
_audit_creation_method	'MofGen! by Chris Wilmer'
_symmetry_space_group_name_H-M	'P1'
_symmetry_Int_Tables_number	1
_symmetry_cell_setting	triclinic
loop_
_symmetry_equiv_pos_as_xyz
  x,y,z
_cell_length_a	17.699083
_cell_length_b	14.519709
_cell_length_c	16.176319
_cell_angle_alpha	89.992256
_cell_angle_beta	89.998611
_cell_angle_gamma	83.481580
loop_
_atom_site_label
_atom_site_type_symbol
_atom_site_fract_x
_atom_site_fract_y
_atom_site_fract_z
O1	O	1.004413	0.116624	-0.068632
O2	O	1.504413	0.616624	0.431368
O3	O	0.784078	0.131798	-0.068660
O4	O	1.284078	0.631798	0.431340
O5	O	0.900087	-0.010052	-0.068638
O6	O	1.400087	0.489948	0.431362
O7	O	0.888403	0.258474	-0.068654
O8	O	1.388403	0.758474	0.431346
O9	O	0.900071	-0.010061	0.068855
O10	O	1.400071	0.489939	0.568855
O11	O	0.784062	0.131789	0.068833
O12	O	1.284062	0.631789	0.568833
O13	O	1.004397	0.116615	0.068861
O14	O	1.504397	0.616615	0.568861
Cu15	Cu	0.894228	0.124201	0.081401
Cu16	Cu	1.394228	0.624201	0.581401
Cu17	Cu	0.894247	0.124212	-0.081200
Cu18	Cu	1.394247	0.624212	0.418800
O19	O	0.888387	0.258465	0.068839
O20	O	1.388387	0.758465	0.568839
C21	C	0.755871	0.131249	0.000083
C22	C	1.255871	0.631249	0.500083
C23	C	0.671848	0.129618	0.000073
C24	C	1.171848	0.629618	0.500073
C25	C	0.623466	0.212881	0.000068
C26	C	1.123466	0.712881	0.500068
C27	C	0.544518	0.211343	0.000079
C28	C	1.044518	0.711343	0.500079
C29	C	0.513954	0.126541	0.000089
C30	C	1.013954	0.626541	0.500089
C31	C	0.562343	0.043272	0.000096
C32	C	1.062343	0.543272	0.500096
C33	C	0.641289	0.044811	0.000091
C34	C	1.141289	0.544811	0.500091
C35	C	0.243962	0.037064	0.000117
C36	C	0.743962	0.537064	0.500117
C37	C	0.165010	0.035531	0.000119
C38	C	0.665010	0.535531	0.500119
C39	C	0.147191	0.203596	0.000105
C40	C	0.647191	0.703596	0.500105
C41	C	0.226137	0.205135	0.000100
C42	C	0.726137	0.705135	0.500100
C43	C	0.274519	0.121866	0.000112
C44	C	0.774519	0.621866	0.500112
C45	C	0.360123	0.123535	0.000102
C46	C	0.860123	0.623535	0.500102
C47	C	0.428352	0.124872	0.000093
C48	C	0.928352	0.624872	0.500093
C49	C	0.899534	-0.044414	0.000109
C50	C	1.399534	0.455586	0.500109
C51	C	0.897903	-0.146789	0.000109
C52	C	1.397903	0.353211	0.500109
C53	C	0.891896	-0.521659	0.000087
C54	C	1.391896	-0.021659	0.500087
C55	C	0.893564	-0.417358	0.000093
C56	C	1.393564	0.082642	0.500093
C57	C	0.894899	-0.334227	0.000099
C58	C	1.394899	0.165773	0.500099
C59	C	0.896568	-0.229920	0.000104
C60	C	1.396568	0.270080	0.500104
C61	C	1.032603	0.117164	0.000116
C62	C	1.532603	0.617164	0.500116
C63	C	1.116626	0.118795	0.000121
C64	C	1.616626	0.618795	0.500121
C65	C	0.888940	0.292827	0.000090
C66	C	1.388940	0.792827	0.500090
C67	C	0.890572	0.395202	0.000085
C68	C	1.390572	0.895202	0.500085
N69	N	0.894220	0.124193	0.195767
N70	N	1.394220	0.624193	0.695767
N71	N	0.894260	0.124213	-0.195565
N72	N	1.394260	0.624213	0.304435
C73	C	0.945604	0.061408	0.239040
C74	C	1.445604	0.561408	0.739040
C75	C	0.945608	0.061407	0.325588
C76	C	1.445608	0.561407	0.825588
C77	C	0.894231	0.124196	0.368859
C78	C	1.394231	0.624196	0.868859
C79	C	0.842841	0.186985	0.325579
C80	C	1.342841	0.686985	0.825579
C81	C	0.842834	0.186981	0.239034
C82	C	1.342834	0.686981	0.739034
C83	C	0.842867	0.187002	0.674608
C84	C	1.342867	0.687002	1.174608
C85	C	0.842879	0.187003	0.761159
C86	C	1.342879	0.687003	1.261159
C87	C	0.945641	0.061428	0.761161
C88	C	1.445641	0.561428	1.261161
C89	C	0.945634	0.061424	0.674616
C90	C	1.445634	0.561424	1.174616
C91	C	0.894242	0.124209	0.631343
C92	C	1.394242	0.624209	1.131343
C93	C	0.894237	0.124208	0.537499
C94	C	1.394237	0.624208	1.037499
C95	C	0.894238	0.124202	0.462702
C96	C	1.394238	0.624202	0.962702
H97	H	0.251017	0.274189	0.000088
H98	H	0.751017	0.774189	0.500088
C99	C	1.048480	0.041039	0.577099
C100	C	1.548480	0.541039	1.077099
C101	C	1.001976	-0.007679	0.626971
C102	C	1.501976	0.492321	1.126971
H103	H	1.083225	-0.001651	0.547667
H104	H	1.583225	0.498349	1.047667
H105	H	1.017869	0.078508	0.539009
H106	H	1.517869	0.578508	1.039009
H107	H	1.075893	0.079290	0.610803
H108	H	1.575893	0.579290	1.110803
H109	H	0.974559	-0.045925	0.593266
H110	H	1.474559	0.454075	1.093266
H111	H	1.032591	-0.045165	0.665065
H112	H	1.532591	0.454835	1.165065
C113	C	1.047207	-0.062696	0.316897
C114	C	1.547207	0.437304	0.816897
C115	C	1.002104	-0.007595	0.373154
C116	C	1.502104	0.492405	0.873154
H117	H	1.082090	-0.105290	0.346264
H118	H	1.582090	0.394710	0.846264
H119	H	1.015664	-0.095835	0.283156
H120	H	1.515664	0.404165	0.783156
H121	H	1.074464	-0.024331	0.283126
H122	H	1.574464	0.475669	0.783126
H123	H	0.974842	-0.045960	0.406921
H124	H	1.474842	0.454040	0.906921
H125	H	1.033650	0.025546	0.406909
H126	H	1.533650	0.525546	0.906909
C127	C	0.741262	0.311119	0.247719
C128	C	1.241262	0.811119	0.747719
C129	C	0.786354	0.256001	0.191464
C130	C	1.286354	0.756001	0.691464
H131	H	0.706395	0.353731	0.218350
H132	H	1.206395	0.853731	0.718350
H133	H	0.713992	0.272773	0.281483
H134	H	1.213992	0.772773	0.781483
H135	H	0.772819	0.344244	0.281467
H136	H	1.272819	0.844244	0.781467
H137	H	0.754797	0.222870	0.157720
H138	H	1.254797	0.722870	0.657720
H139	H	0.813625	0.294351	0.157686
H140	H	1.313625	0.794351	0.657686
C141	C	0.587893	-0.122704	0.000112
C142	C	1.087893	0.377296	0.500112
C143	C	0.528751	-0.049946	0.000106
C144	C	1.028751	0.450054	0.500106
H145	H	0.567154	-0.180253	0.000121
H146	H	1.067154	0.319747	0.500121
H147	H	0.618312	-0.118604	-0.047832
H148	H	1.118312	0.381396	0.452168
H149	H	0.618315	-0.118605	0.048062
H150	H	1.118315	0.381395	0.548062
H151	H	0.498332	-0.054041	-0.047847
H152	H	0.998332	0.445959	0.452153
H153	H	0.498319	-0.054047	0.048056
H154	H	0.998319	0.445953	0.548056
H155	H	0.680683	-0.022990	0.000095
H156	H	1.180683	0.477010	0.500095
C157	C	0.989881	-0.098300	0.787818
C158	C	1.489881	0.401700	1.287818
C159	C	1.002125	-0.007599	0.808729
C160	C	1.502125	0.492401	1.308729
H161	H	1.024755	-0.140911	0.817181
H162	H	1.524755	0.359089	1.317181
H163	H	0.939365	-0.108232	0.802012
H164	H	1.439365	0.391768	1.302012
H165	H	0.997232	-0.107273	0.730081
H166	H	1.497232	0.392727	1.230081
H167	H	0.994768	0.001375	0.866466
H168	H	1.494768	0.501375	1.366466
H169	H	1.052653	0.002336	0.794541
H170	H	1.552653	0.502336	1.294541
H171	H	0.648344	0.281937	0.000060
H172	H	1.148344	0.781937	0.500060
C173	C	0.741296	0.311137	0.683311
C174	C	1.241296	0.811137	1.183311
C175	C	0.786383	0.256022	0.627050
C176	C	1.286383	0.756022	1.127050
H177	H	0.706428	0.353752	0.653946
H178	H	1.206428	0.853752	1.153946
H179	H	0.714028	0.272791	0.717075
H180	H	1.214028	0.772791	1.217075
H181	H	0.772857	0.344259	0.717057
H182	H	1.272857	0.844259	1.217057
H183	H	0.754823	0.222894	0.593307
H184	H	1.254823	0.722894	1.093307
H185	H	0.813653	0.294373	0.593271
H186	H	1.313653	0.794373	1.093271
C187	C	0.797226	0.242759	0.458245
C188	C	1.297226	0.742759	0.958245
C189	C	0.786366	0.256007	0.373142
C190	C	1.286366	0.756007	0.873142
H191	H	0.762364	0.285378	0.487604
H192	H	1.262364	0.785378	0.987604
H193	H	0.788925	0.181230	0.472437
H194	H	1.288925	0.681230	0.972437
H195	H	0.847753	0.252699	0.472409
H196	H	1.347753	0.752699	0.972409
H197	H	0.735841	0.246060	0.358976
H198	H	1.235841	0.746060	0.858976
H199	H	0.794662	0.317550	0.358944
H200	H	1.294662	0.817550	0.858944
H201	H	0.505128	0.279144	0.000074
H202	H	1.005128	0.779144	0.500074
H203	H	0.107789	0.271397	0.000100
H204	H	0.607789	0.771397	0.500100
H205	H	0.283346	-0.030739	0.000127
H206	H	0.783346	0.469261	0.500127
H207	H	0.140129	-0.033529	0.000128
H208	H	0.640129	0.466471	0.500128
H209	H	0.987445	0.010281	0.203814
H210	H	1.487445	0.510281	0.703814
H211	H	0.801038	0.238136	0.796389
H212	H	1.301038	0.738136	1.296389
