data_functionalizedCrystal
_audit_creation_method	'MofGen! by Chris Wilmer'
_symmetry_space_group_name_H-M	'P1'
_symmetry_Int_Tables_number	1
_symmetry_cell_setting	triclinic
loop_
_symmetry_equiv_pos_as_xyz
  x,y,z
_cell_length_a	21.295417
_cell_length_b	21.295420
_cell_length_c	12.827885
_cell_angle_alpha	89.977525
_cell_angle_beta	90.038100
_cell_angle_gamma	89.975452
loop_
_atom_site_label
_atom_site_type_symbol
_atom_site_fract_x
_atom_site_fract_y
_atom_site_fract_z
Zn1	Zn	-0.250679	-0.962335	0.590877
Zn2	Zn	-0.355961	-0.962243	0.416112
Zn3	Zn	-0.250699	-0.857064	0.416141
Zn4	Zn	-0.355903	-0.857028	0.590803
O5	O	-0.303310	-0.909668	0.503483
O6	O	-0.264661	-1.050412	0.567714
O7	O	-0.342030	-0.948268	0.269880
O8	O	-0.162607	-0.871082	0.439364
O9	O	-0.342011	-1.050345	0.439315
O10	O	-0.162592	-0.948424	0.567742
O11	O	-0.264694	-0.870993	0.269901
O12	O	-0.264638	-0.768970	0.439291
O13	O	-0.341912	-0.871020	0.737049
O14	O	-0.341932	-0.768943	0.567614
O15	O	-0.264605	-0.948389	0.737104
O16	O	-0.444043	-0.948233	0.439242
O17	O	-0.444000	-0.870931	0.567586
C18	C	-0.303281	-0.746116	0.503448
C19	C	-0.303284	-0.676148	0.503458
C20	C	-0.466862	-0.909585	0.503426
C21	C	-0.536830	-0.909607	0.503436
C22	C	-0.263107	-0.176724	0.570440
C23	C	-0.263104	-0.242467	0.570443
C24	C	-0.303310	-0.275308	0.503486
C25	C	-0.343534	-0.242402	0.436542
C26	C	-0.343540	-0.176661	0.436549
N27	N	-0.308065	-0.378501	0.411986
N28	N	-0.308055	-0.440953	0.411982
C29	C	-0.303295	-0.473383	0.503462
N30	N	-0.298533	-0.441003	0.594948
N31	N	-0.298539	-0.378545	0.594951
C32	C	-0.303308	-0.346594	0.503472
C33	C	-0.263075	-0.577567	0.570410
C34	C	-0.263077	-0.643311	0.570414
C35	C	-0.343503	-0.643245	0.436504
C36	C	-0.343504	-0.577502	0.436509
C37	C	-0.303287	-0.544667	0.503461
C38	C	-0.569698	-0.949894	0.436675
C39	C	-0.635440	-0.949923	0.436699
C40	C	-0.668313	-0.909655	0.503472
C41	C	-0.635437	-0.869366	0.570245
C42	C	-0.569696	-0.869342	0.570227
N43	N	-0.771572	-0.854588	0.511427
N44	N	-0.834023	-0.854612	0.511438
C45	C	-0.866387	-0.909726	0.503532
N46	N	-0.833940	-0.964815	0.495594
N47	N	-0.771483	-0.964790	0.495578
C48	C	-0.739598	-0.909677	0.503499
C49	C	-0.970541	-0.950048	0.436793
C50	C	-1.036284	-0.950078	0.436824
C51	C	-1.036279	-0.869515	0.570365
C52	C	-0.970537	-0.869490	0.570339
C53	C	-0.937671	-0.909755	0.503548
C54	C	-0.139120	-0.909768	0.503564
C55	C	-0.069152	-0.909810	0.503599
C56	C	-0.303250	-0.909710	0.776054
C57	C	-0.303224	-0.909729	0.892207
C58	C	-0.303332	-0.073858	0.503511
C59	C	-0.303322	-0.143826	0.503501
C60	C	-0.303325	-0.909661	0.231974
C61	C	-0.303174	-0.909765	0.115821
C62	C	-0.264962	-0.948017	0.944019
C63	C	-0.264935	-0.948037	1.064069
H64	H	-0.230361	-0.149994	0.624962
C65	C	-0.220732	-0.992282	0.883881
N66	N	-0.187417	-1.025624	0.838587
H67	H	-0.230328	-0.550831	0.624926
C68	C	-0.387758	-0.278529	0.362886
N69	N	-0.421070	-0.305740	0.307406
C70	C	-0.347430	-0.865476	1.055636
N71	N	-0.380764	-0.832117	1.010298
C72	C	-0.387732	-0.679367	0.362853
N73	N	-0.421047	-0.706577	0.307379
H74	H	-0.232179	-0.980820	1.108626
H75	H	-0.943780	-0.982836	0.382411
H76	H	-0.230353	-0.269258	0.624952
H77	H	-0.376250	-0.550716	0.381995
H78	H	-0.376289	-0.149875	0.382037
H79	H	-0.335957	-0.876959	0.936726
H80	H	-0.230330	-0.670096	0.624932
C81	C	-0.671602	-0.994240	0.363249
N82	N	-0.698838	-1.027619	0.307924
C83	C	-0.533550	-0.994181	0.363192
N84	N	-0.506322	-1.027535	0.307838
H85	H	-0.662206	-0.836580	0.624614
H86	H	-0.542934	-0.836535	0.624593
H87	H	-1.063044	-0.982888	0.382462
H88	H	-0.943774	-0.836682	0.624698
C89	C	-1.072435	-0.825220	0.643818
N90	N	-1.099671	-0.791857	0.699147
