data_functionalizedCrystal
_audit_creation_method	'MofGen! by Chris Wilmer'
_symmetry_space_group_name_H-M	'P1'
_symmetry_Int_Tables_number	1
_symmetry_cell_setting	triclinic
loop_
_symmetry_equiv_pos_as_xyz
  x,y,z
_cell_length_a	19.121102
_cell_length_b	21.295411
_cell_length_c	19.121063
_cell_angle_alpha	92.420548
_cell_angle_beta	90.126902
_cell_angle_gamma	87.537204
loop_
_atom_site_label
_atom_site_type_symbol
_atom_site_fract_x
_atom_site_fract_y
_atom_site_fract_z
Zn1	Zn	1.059887	-0.408812	-0.324993
Zn2	Zn	1.309887	-0.158812	-0.074993
Zn3	Zn	1.559887	0.091188	0.175007
Zn4	Zn	1.809887	0.341188	0.425007
Zn5	Zn	1.054784	-0.307825	-0.442209
Zn6	Zn	1.304784	-0.057825	-0.192209
Zn7	Zn	1.554784	0.192175	0.057791
Zn8	Zn	1.804784	0.442175	0.307791
Zn9	Zn	0.942639	-0.298888	-0.319983
Zn10	Zn	1.192639	-0.048888	-0.069983
Zn11	Zn	1.442639	0.201112	0.180017
Zn12	Zn	1.692639	0.451112	0.430017
Zn13	Zn	0.937611	-0.408390	-0.437183
Zn14	Zn	1.187611	-0.158390	-0.187183
Zn15	Zn	1.437611	0.091610	0.062817
Zn16	Zn	1.687611	0.341610	0.312817
O17	O	0.998730	-0.355979	-0.381092
O18	O	1.248730	-0.105979	-0.131092
O19	O	1.498730	0.144021	0.118908
O20	O	1.748730	0.394021	0.368908
O21	O	1.157315	-0.399332	-0.344742
O22	O	1.407315	-0.149332	-0.094742
O23	O	1.657315	0.100668	0.155258
O24	O	1.907315	0.350668	0.405258
O25	O	1.039876	-0.218549	-0.426002
O26	O	1.289876	0.031451	-0.176002
O27	O	1.539876	0.281451	0.073998
O28	O	1.789876	0.531451	0.323998
O29	O	0.962432	-0.309906	-0.222543
O30	O	1.212432	-0.059906	0.027457
O31	O	1.462432	0.190094	0.277457
O32	O	1.712432	0.440094	0.527457
O33	O	1.153566	-0.325138	-0.430860
O34	O	1.403566	-0.075138	-0.180860
O35	O	1.653566	0.174862	0.069140
O36	O	1.903566	0.424862	0.319140
O37	O	1.048573	-0.390666	-0.226224
O38	O	1.298573	-0.140666	0.023776
O39	O	1.548573	0.109334	0.273776
O40	O	1.798573	0.359334	0.523776
O41	O	0.957484	-0.211983	-0.336203
O42	O	1.207484	0.038017	-0.086203
O43	O	1.457484	0.288017	0.163797
O44	O	1.707484	0.538017	0.413797
O45	O	0.843867	-0.309497	-0.331329
O46	O	1.093867	-0.059497	-0.081329
O47	O	1.343867	0.190503	0.168671
O48	O	1.593867	0.440503	0.418671
O49	O	0.953863	-0.496537	-0.422294
O50	O	1.203863	-0.246537	-0.172294
O51	O	1.453863	0.003463	0.077706
O52	O	1.703863	0.253463	0.327706
O53	O	0.840173	-0.389948	-0.417436
O54	O	1.090173	-0.139948	-0.167436
O55	O	1.340173	0.110052	0.082564
O56	O	1.590173	0.360052	0.332564
O57	O	1.043698	-0.496846	-0.339868
O58	O	1.293698	-0.246846	-0.089868
O59	O	1.543698	0.003154	0.160132
O60	O	1.793698	0.253154	0.410132
O61	O	1.035001	-0.324729	-0.539647
O62	O	1.285001	-0.074729	-0.289647
O63	O	1.535001	0.175271	-0.039647
O64	O	1.785001	0.425271	0.210353
O65	O	0.948915	-0.398614	-0.535954
O66	O	1.198915	-0.148614	-0.285954
O67	O	1.448915	0.101386	-0.035954
O68	O	1.698915	0.351386	0.214046
C69	C	0.816582	-0.348708	-0.373294
C70	C	1.066582	-0.098708	-0.123294
C71	C	1.316582	0.151292	0.126706
C72	C	1.566582	0.401292	0.376706
C73	C	0.738658	-0.345613	-0.369975
C74	C	0.988658	-0.095613	-0.119975
C75	C	1.238658	0.154387	0.130025
C76	C	1.488658	0.404387	0.380025
C77	C	0.700141	-0.385984	-0.413314
C78	C	0.950141	-0.135984	-0.163314
C79	C	1.200141	0.114016	0.086686
C80	C	1.450141	0.364016	0.336686
C81	C	0.626923	-0.383079	-0.410186
C82	C	0.876923	-0.133079	-0.160186
C83	C	1.126923	0.116921	0.089814
C84	C	1.376923	0.366921	0.339814
C85	C	0.592223	-0.339798	-0.363722
C86	C	0.842223	-0.089798	-0.113722
C87	C	1.092223	0.160202	0.136278
C88	C	1.342223	0.410202	0.386278
C89	C	0.630745	-0.299425	-0.320378
C90	C	0.880745	-0.049425	-0.070378
C91	C	1.130745	0.200575	0.179622
C92	C	1.380745	0.450575	0.429622
C93	C	0.703962	-0.302334	-0.323503
C94	C	0.953962	-0.052334	-0.073503
C95	C	1.203962	0.197666	0.176497
C96	C	1.453962	0.447666	0.426497
C97	C	0.371252	-0.328925	-0.352038
C98	C	0.621252	-0.078925	-0.102038
C99	C	0.871252	0.171075	0.147962
C100	C	1.121252	0.421075	0.397962
C101	C	0.298030	-0.326018	-0.348918
C102	C	0.548030	-0.076018	-0.098918
C103	C	0.798030	0.173982	0.151082
C104	C	1.048030	0.423982	0.401082
C105	C	0.294213	-0.409673	-0.438725
C106	C	0.544213	-0.159673	-0.188725
C107	C	0.794213	0.090327	0.061275
C108	C	1.044213	0.340327	0.311275
C109	C	0.367431	-0.412576	-0.441849
C110	C	0.617431	-0.162576	-0.191849
C111	C	0.867431	0.087424	0.058151
C112	C	1.117431	0.337424	0.308151
C113	C	0.405947	-0.372205	-0.398502
C114	C	0.655947	-0.122205	-0.148502
C115	C	0.905947	0.127795	0.101498
C116	C	1.155947	0.377795	0.351498
C117	C	0.517383	-0.336826	-0.360525
C118	C	0.767383	-0.086826	-0.110525
C119	C	1.017383	0.163174	0.139475
C120	C	1.267383	0.413174	0.389475
C121	C	0.480786	-0.375180	-0.401696
C122	C	0.730786	-0.125180	-0.151696
C123	C	0.980786	0.124820	0.098304
C124	C	1.230786	0.374820	0.348304
C125	C	0.998789	-0.520171	-0.381080
C126	C	1.248789	-0.270171	-0.131080
C127	C	1.498789	-0.020171	0.118920
C128	C	1.748789	0.229829	0.368920
C129	C	0.998814	-0.590140	-0.381074
C130	C	1.248814	-0.340140	-0.131074
C131	C	1.498814	-0.090140	0.118926
C132	C	1.748814	0.159860	0.368926
C133	C	1.045589	-0.623169	-0.338153
C134	C	1.295589	-0.373169	-0.088153
C135	C	1.545589	-0.123169	0.161847
C136	C	1.795589	0.126831	0.411847
C137	C	1.045590	-0.688910	-0.338123
C138	C	1.295590	-0.438910	-0.088123
C139	C	1.545590	-0.188910	0.161877
C140	C	1.795590	0.061090	0.411877
C141	C	0.998822	-0.721621	-0.381026
C142	C	1.248822	-0.471621	-0.131026
C143	C	1.498822	-0.221621	0.118974
C144	C	1.748822	0.028379	0.368974
C145	C	0.952037	-0.688584	-0.423950
C146	C	1.202037	-0.438584	-0.173950
C147	C	1.452037	-0.188584	0.076050
C148	C	1.702037	0.061416	0.326050
C149	C	0.952034	-0.622843	-0.423974
C150	C	1.202034	-0.372843	-0.173974
C151	C	1.452034	-0.122843	0.076026
C152	C	1.702034	0.127157	0.326026
N153	N	0.990800	-0.826867	-0.442125
N154	N	1.240800	-0.576867	-0.192125
N155	N	1.490800	-0.326867	0.057875
N156	N	1.740800	-0.076867	0.307875
N157	N	0.990807	-0.889317	-0.442100
N158	N	1.240807	-0.639317	-0.192100
N159	N	1.490807	-0.389317	0.057900
N160	N	1.740807	-0.139317	0.307900
C161	C	0.998829	-0.919693	-0.380955
C162	C	1.248829	-0.669693	-0.130955
C163	C	1.498829	-0.419693	0.119045
C164	C	1.748829	-0.169693	0.369045
N165	N	1.006856	-0.885260	-0.319835
N166	N	1.256856	-0.635260	-0.069835
N167	N	1.506856	-0.385260	0.180165
N168	N	1.756856	-0.135260	0.430165
N169	N	1.006852	-0.822803	-0.319861
N170	N	1.256852	-0.572803	-0.069861
N171	N	1.506852	-0.322803	0.180139
N172	N	1.756852	-0.072803	0.430139
C173	C	0.998820	-0.792905	-0.381005
C174	C	1.248820	-0.542905	-0.131005
C175	C	1.498820	-0.292905	0.118995
C176	C	1.748820	-0.042905	0.368995
C177	C	1.045607	-1.024006	-0.337998
C178	C	1.295607	-0.774006	-0.087998
C179	C	1.545607	-0.524006	0.162002
C180	C	1.795607	-0.274006	0.412002
C181	C	1.045603	-1.089749	-0.337966
C182	C	1.295603	-0.839749	-0.087966
C183	C	1.545603	-0.589749	0.162034
C184	C	1.795603	-0.339749	0.412034
C185	C	0.952054	-1.089422	-0.423800
C186	C	1.202054	-0.839422	-0.173800
C187	C	1.452054	-0.589422	0.076200
C188	C	1.702054	-0.339422	0.326200
C189	C	0.952055	-1.023680	-0.423825
C190	C	1.202055	-0.773680	-0.173825
C191	C	1.452055	-0.523680	0.076175
C192	C	1.702055	-0.273680	0.326175
C193	C	0.998835	-0.990977	-0.380925
C194	C	1.248835	-0.740977	-0.130925
C195	C	1.498835	-0.490977	0.119075
C196	C	1.748835	-0.240977	0.369075
C197	C	1.181589	-0.363279	-0.388921
C198	C	1.431589	-0.113279	-0.138921
C199	C	1.681589	0.136721	0.111079
C200	C	1.931589	0.386721	0.361079
C201	C	1.259513	-0.366390	-0.392257
C202	C	1.509513	-0.116390	-0.142257
C203	C	1.759513	0.133610	0.107743
C204	C	2.009513	0.383610	0.357743
C205	C	0.990878	-0.362610	-0.563238
C206	C	1.240878	-0.112610	-0.313238
C207	C	1.490878	0.137390	-0.063238
C208	C	1.740878	0.387390	0.186762
C209	C	0.987582	-0.365471	-0.641164
C210	C	1.237582	-0.115471	-0.391164
C211	C	1.487582	0.134529	-0.141164
C212	C	1.737582	0.384529	0.108836
C213	C	0.998714	-0.192425	-0.381055
C214	C	1.248714	0.057575	-0.131055
C215	C	1.498714	0.307575	0.118945
C216	C	1.748714	0.557575	0.368945
C217	C	0.998833	-0.122455	-0.380869
C218	C	1.248833	0.127545	-0.130869
C219	C	1.498833	0.377545	0.119131
C220	C	1.748833	0.627545	0.369131
C221	C	1.030889	-0.328381	-0.679675
C222	C	1.280889	-0.078381	-0.429675
C223	C	1.530889	0.171619	-0.179675
C224	C	1.780889	0.421619	0.070325
C225	C	1.027794	-0.331075	-0.752894
C226	C	1.277794	-0.081075	-0.502894
C227	C	1.527794	0.168925	-0.252894
C228	C	1.777794	0.418925	-0.002894
C229	C	0.981388	-0.370856	-0.787602
C230	C	1.231388	-0.120856	-0.537602
C231	C	1.481388	0.129144	-0.287602
C232	C	1.731388	0.379144	-0.037602
C233	C	0.938079	-0.407950	-0.749086
C234	C	1.188079	-0.157950	-0.499086
C235	C	1.438079	0.092050	-0.249086
C236	C	1.688079	0.342050	0.000914
C237	C	0.941179	-0.405258	-0.675868
C238	C	1.191179	-0.155258	-0.425868
C239	C	1.441179	0.094742	-0.175868
C240	C	1.691179	0.344742	0.074132
C241	C	0.969790	-0.380908	-1.008578
C242	C	1.219790	-0.130908	-0.758578
C243	C	1.469790	0.119092	-0.508578
C244	C	1.719790	0.369092	-0.258578
C245	C	0.966693	-0.383595	-1.081802
C246	C	1.216693	-0.133595	-0.831802
C247	C	1.466693	0.116405	-0.581802
C248	C	1.716693	0.366405	-0.331802
C249	C	1.056409	-0.306721	-1.085605
C250	C	1.306409	-0.056721	-0.835605
C251	C	1.556409	0.193279	-0.585605
C252	C	1.806409	0.443279	-0.335605
C253	C	1.059501	-0.304031	-1.012385
C254	C	1.309501	-0.054031	-0.762385
C255	C	1.559501	0.195969	-0.512385
C256	C	1.809501	0.445969	-0.262385
C257	C	1.016195	-0.341127	-0.973876
C258	C	1.266195	-0.091127	-0.723876
C259	C	1.516195	0.158873	-0.473876
C260	C	1.766195	0.408873	-0.223876
C261	C	0.978222	-0.373609	-0.862444
C262	C	1.228222	-0.123609	-0.612444
C263	C	1.478222	0.126391	-0.362444
C264	C	1.728222	0.376391	-0.112444
C265	C	1.019365	-0.338376	-0.899035
C266	C	1.269365	-0.088376	-0.649035
C267	C	1.519365	0.161624	-0.399035
C268	C	1.769365	0.411624	-0.149035
C269	C	1.006633	-0.349336	-0.198235
C270	C	1.256633	-0.099336	0.051765
C271	C	1.506633	0.150664	0.301765
C272	C	1.756633	0.400664	0.551765
C273	C	1.010000	-0.346505	-0.120312
C274	C	1.260000	-0.096505	0.129688
C275	C	1.510000	0.153495	0.379688
C276	C	1.760000	0.403495	0.629688
H277	H	0.489122	-0.301585	-0.322695
H278	H	0.739122	-0.051585	-0.072695
H279	H	0.989122	0.198415	0.177305
H280	H	1.239122	0.448415	0.427305
Cl281	Cl	1.117853	-0.254028	-0.968758
Cl282	Cl	1.367853	-0.004028	-0.718758
Cl283	Cl	1.617853	0.245972	-0.468758
Cl284	Cl	1.867853	0.495972	-0.218758
H285	H	1.057152	-0.305989	-0.870774
H286	H	1.307152	-0.055989	-0.620774
H287	H	1.557152	0.194011	-0.370774
H288	H	1.807152	0.444011	-0.120774
H289	H	0.913970	-0.996788	-0.458780
H290	H	1.163970	-0.746788	-0.208780
H291	H	1.413970	-0.496788	0.041220
H292	H	1.663970	-0.246788	0.291220
H293	H	1.068675	-0.295985	-0.651421
H294	H	1.318675	-0.045985	-0.401421
H295	H	1.568675	0.204015	-0.151421
H296	H	1.818675	0.454015	0.098579
H297	H	1.063059	-0.300873	-0.784246
H298	H	1.313059	-0.050873	-0.534246
H299	H	1.563059	0.199127	-0.284246
H300	H	1.813059	0.449127	-0.034246
H301	H	0.509042	-0.410422	-0.439524
H302	H	0.759042	-0.160422	-0.189524
H303	H	1.009042	0.089578	0.060476
H304	H	1.259042	0.339578	0.310476
H305	H	0.913968	-1.116054	-0.458725
H306	H	1.163968	-0.866054	-0.208725
H307	H	1.413968	-0.616054	0.041275
H308	H	1.663968	-0.366054	0.291275
Cl309	Cl	1.104384	-0.730439	-0.284146
Cl310	Cl	1.354384	-0.480439	-0.034146
Cl311	Cl	1.604384	-0.230439	0.215854
Cl312	Cl	1.854384	0.019561	0.465854
Cl313	Cl	1.110852	-0.260094	-1.134020
Cl314	Cl	1.360852	-0.010094	-0.884020
Cl315	Cl	1.610852	0.239906	-0.634020
Cl316	Cl	1.860852	0.489906	-0.384020
H317	H	0.602487	-0.264187	-0.282543
H318	H	0.852487	-0.014187	-0.032543
H319	H	1.102487	0.235813	0.217457
H320	H	1.352487	0.485813	0.467457
Cl321	Cl	0.893241	-0.729705	-0.477883
Cl322	Cl	1.143241	-0.479705	-0.227883
Cl323	Cl	1.393241	-0.229705	0.022117
Cl324	Cl	1.643241	0.020295	0.272117
Cl325	Cl	0.908341	-0.433600	-1.125433
Cl326	Cl	1.158341	-0.183600	-0.875433
Cl327	Cl	1.408341	0.066400	-0.625433
Cl328	Cl	1.658341	0.316400	-0.375433
H329	H	0.728388	-0.421226	-0.451153
H330	H	0.978388	-0.171226	-0.201153
H331	H	1.228388	0.078774	0.048847
H332	H	1.478388	0.328774	0.298847
Cl333	Cl	0.919884	-0.423617	-0.906083
Cl334	Cl	1.169884	-0.173617	-0.656083
Cl335	Cl	1.419884	0.076383	-0.406083
Cl336	Cl	1.669884	0.326383	-0.156083
H337	H	0.735322	-0.269462	-0.288207
H338	H	0.985322	-0.019462	-0.038207
H339	H	1.235322	0.230538	0.211793
H340	H	1.485322	0.480538	0.461793
H341	H	0.402602	-0.296048	-0.316747
H342	H	0.652602	-0.046048	-0.066747
H343	H	0.902602	0.203952	0.183253
H344	H	1.152602	0.453952	0.433253
H345	H	0.595566	-0.415953	-0.445479
H346	H	0.845566	-0.165953	-0.195479
H347	H	1.095566	0.084047	0.054521
H348	H	1.345566	0.334047	0.304521
H349	H	0.913941	-0.595952	-0.458925
H350	H	1.163941	-0.345952	-0.208925
H351	H	1.413941	-0.095952	0.041075
H352	H	1.663941	0.154048	0.291075
H353	H	0.900298	-0.440343	-0.777351
H354	H	1.150298	-0.190343	-0.527351
H355	H	1.400298	0.059657	-0.277351
H356	H	1.650298	0.309657	-0.027351
Cl357	Cl	0.411048	-0.466986	-0.500266
Cl358	Cl	0.661048	-0.216986	-0.250266
Cl359	Cl	0.911048	0.033014	-0.000266
Cl360	Cl	1.161048	0.283014	0.249734
Cl361	Cl	0.245789	-0.460421	-0.493216
Cl362	Cl	0.495789	-0.210421	-0.243216
Cl363	Cl	0.745789	0.039579	0.006784
Cl364	Cl	0.995789	0.289579	0.256784
Cl365	Cl	0.254408	-0.271599	-0.290506
Cl366	Cl	0.504408	-0.021599	-0.040506
Cl367	Cl	0.754408	0.228401	0.209494
Cl368	Cl	1.004408	0.478401	0.459494
H369	H	1.083681	-0.596545	-0.303220
H370	H	1.333681	-0.346545	-0.053220
H371	H	1.583681	-0.096545	0.196780
H372	H	1.833681	0.153455	0.446780
Cl373	Cl	1.104412	-0.982890	-0.284064
Cl374	Cl	1.354412	-0.732890	-0.034064
Cl375	Cl	1.604412	-0.482890	0.215936
Cl376	Cl	1.854412	-0.232890	0.465936
Cl377	Cl	1.104422	-1.131272	-0.284014
Cl378	Cl	1.354422	-0.881272	-0.034014
Cl379	Cl	1.604422	-0.631272	0.215986
Cl380	Cl	1.854422	-0.381272	0.465986
H381	H	0.905914	-0.435461	-0.644513
H382	H	1.155914	-0.185461	-0.394513
H383	H	1.405914	0.064539	-0.144513
H384	H	1.655914	0.314539	0.105487
H385	H	0.934527	-0.411111	-0.977230
H386	H	1.184527	-0.161111	-0.727230
H387	H	1.434527	0.088889	-0.477230
H388	H	1.684527	0.338889	-0.227230
