data_functionalizedCrystal
_audit_creation_method	'MofGen! by Chris Wilmer'
_symmetry_space_group_name_H-M	'P1'
_symmetry_Int_Tables_number	1
_symmetry_cell_setting	triclinic
loop_
_symmetry_equiv_pos_as_xyz
  x,y,z
_cell_length_a	18.215407
_cell_length_b	19.077114
_cell_length_c	18.215399
_cell_angle_alpha	87.729790
_cell_angle_beta	89.980167
_cell_angle_gamma	87.671157
loop_
_atom_site_label
_atom_site_type_symbol
_atom_site_fract_x
_atom_site_fract_y
_atom_site_fract_z
Zn1	Zn	1.113281	0.280200	-0.427879
Zn2	Zn	1.108237	0.397902	-0.309754
Zn3	Zn	0.990213	0.280223	-0.304827
Zn4	Zn	0.985228	0.397863	-0.432777
O5	O	1.049240	0.339047	-0.368810
O6	O	1.215596	0.295821	-0.412222
O7	O	1.092555	0.382318	-0.206117
O8	O	1.010735	0.181729	-0.317039
O9	O	1.211890	0.382295	-0.325436
O10	O	1.101153	0.181712	-0.407444
O11	O	1.005844	0.295860	-0.202498
O12	O	0.886567	0.295822	-0.321788
O13	O	1.002240	0.382229	-0.535111
O14	O	0.882905	0.382251	-0.415793
O15	O	1.096320	0.295783	-0.531512
O16	O	1.087722	0.496388	-0.330185
O17	O	0.997348	0.496359	-0.420570
C18	C	0.858034	0.339035	-0.368788
C19	C	0.776234	0.339047	-0.368797
C20	C	0.586150	0.384121	-0.417689
C21	C	0.509291	0.384124	-0.417698
C22	C	0.513081	0.293986	-0.319947
C23	C	0.589938	0.293980	-0.319942
C24	C	0.626471	0.339052	-0.368812
C25	C	0.472754	0.339060	-0.368826
C26	C	0.389421	0.339062	-0.368836
C27	C	0.709810	0.339050	-0.368803
C28	C	1.041467	0.521911	-0.376460
C29	C	1.038209	0.600141	-0.379757
C30	C	1.083768	0.636886	-0.334287
C31	C	1.080708	0.710391	-0.337393
C32	C	1.032085	0.747151	-0.385965
C33	C	0.986525	0.710401	-0.431441
C34	C	0.989589	0.636897	-0.428338
C35	C	1.017875	0.966985	-0.400290
C36	C	1.014813	1.040495	-0.403387
C37	C	1.108998	1.040479	-0.309340
C38	C	1.112054	0.966974	-0.306239
C39	C	1.066497	0.930231	-0.351717
N40	N	1.028955	0.822285	-0.389139
N41	N	1.069631	0.855098	-0.348546
C42	C	1.241192	0.339060	-0.368832
C43	C	1.322991	0.339065	-0.368841
C44	C	1.049287	0.338999	-0.560761
C45	C	1.049306	0.338978	-0.642559
C46	C	1.057057	1.155469	-0.361155
C47	C	1.060372	1.077239	-0.357917
C48	C	1.098313	0.293923	-0.828878
C49	C	1.098322	0.293903	-0.905736
C50	C	1.000357	0.383924	-0.909472
C51	C	1.000344	0.383940	-0.832616
C52	C	1.049326	0.338941	-0.792321
C53	C	1.049349	0.338904	-0.946035
C54	C	1.049359	0.338882	-1.029368
C55	C	1.049315	0.338962	-0.708982
C56	C	1.049237	0.339045	-0.177603
C57	C	1.049368	0.338867	-0.095797
H58	H	0.476465	0.420822	-0.457500
O59	O	0.477475	0.250273	-0.272502
C60	C	0.360753	0.210298	-0.229222
C61	C	0.400980	0.259851	-0.282980
H62	H	0.298901	0.218014	-0.237685
H63	H	0.375263	0.222582	-0.170355
H64	H	0.378325	0.153569	-0.239862
H65	H	0.383431	0.316597	-0.272407
H66	H	0.386470	0.247506	-0.341829
H67	H	1.138211	0.257244	-0.935498
O68	O	1.130960	0.601257	-0.287003
C69	C	1.167662	0.578793	-0.160901
C70	C	1.114178	0.619196	-0.214370
H71	H	1.154104	0.593270	-0.102166
H72	H	1.226408	0.593203	-0.174428
H73	H	1.162039	0.519949	-0.166530
H74	H	1.119736	0.678049	-0.208770
H75	H	1.055454	0.604727	-0.200829
O76	O	0.628998	0.250176	-0.272388
C77	C	0.624654	0.160742	-0.175463
C78	C	0.580329	0.210325	-0.229260
H79	H	0.585324	0.128498	-0.140591
H80	H	0.659233	0.192973	-0.138227
H81	H	0.662230	0.124010	-0.207788
H82	H	0.542713	0.247067	-0.196995
H83	H	0.545798	0.178049	-0.266497
O84	O	1.125117	0.745954	-0.293254
C85	C	1.249445	0.768227	-0.258674
C86	C	1.199201	0.727932	-0.308693
H87	H	1.309352	0.753682	-0.271149
H88	H	1.237234	0.753788	-0.198702
H89	H	1.238939	0.827088	-0.269176
H90	H	1.209678	0.669062	-0.298256
H91	H	1.211422	0.742428	-0.368649
H92	H	0.960479	0.420562	-0.942290
H93	H	0.960449	0.420598	-0.802850
H94	H	1.151647	0.937045	-0.266687
H95	H	0.615892	0.420820	-0.457484
H96	H	1.146089	1.070403	-0.272315
H97	H	0.980779	0.937075	-0.437318
O98	O	0.967564	1.076096	-0.450644
C99	C	0.874448	1.068359	-0.543578
C100	C	0.927932	1.027953	-0.490111
H101	H	0.842380	1.029453	-0.575491
H102	H	0.906754	1.102701	-0.583582
H103	H	0.834578	1.102843	-0.511201
H104	H	0.967813	0.993431	-0.522427
H105	H	0.895579	0.993656	-0.450107
H106	H	0.946938	0.740337	-0.470993
O107	O	1.145812	0.250107	-0.789765
C108	C	1.186652	0.130390	-0.761304
C109	C	1.132806	0.179936	-0.805625
H110	H	1.176166	0.073647	-0.774122
H111	H	1.178233	0.138070	-0.700080
H112	H	1.245464	0.142782	-0.776937
H113	H	1.073973	0.167575	-0.790055
H114	H	1.141289	0.172246	-0.866838
H115	H	0.952491	0.606981	-0.465366
