data_functionalizedCrystal
_audit_creation_method	'MofGen! by Chris Wilmer'
_symmetry_space_group_name_H-M	'P1'
_symmetry_Int_Tables_number	1
_symmetry_cell_setting	triclinic
loop_
_symmetry_equiv_pos_as_xyz
  x,y,z
_cell_length_a	19.288864
_cell_length_b	17.766277
_cell_length_c	19.288862
_cell_angle_alpha	89.986134
_cell_angle_beta	96.864237
_cell_angle_gamma	90.023209
loop_
_atom_site_label
_atom_site_type_symbol
_atom_site_fract_x
_atom_site_fract_y
_atom_site_fract_z
O1	O	0.921352	0.062848	-0.086649
O2	O	0.719092	0.062798	-0.098338
O3	O	0.826067	0.062805	0.008637
O4	O	0.814377	0.062841	-0.193624
O5	O	0.826048	-0.062383	0.008643
O6	O	0.719073	-0.062390	-0.098332
O7	O	0.921334	-0.062341	-0.086643
Cu8	Cu	0.820202	-0.073796	-0.092487
Cu9	Cu	0.820224	0.074254	-0.092494
O10	O	0.814358	-0.062348	-0.193618
C11	C	0.693206	0.000197	-0.097959
C12	C	0.616102	0.000177	-0.096830
N13	N	0.820191	-0.177927	-0.092482
C14	C	0.571405	0.000200	-0.159598
C15	C	0.498958	0.000208	-0.158537
C16	C	0.471211	0.000209	-0.094705
C17	C	0.515918	0.000181	-0.031929
C18	C	0.588363	0.000166	-0.032991
C19	C	0.362956	0.044084	-0.044528
C20	C	0.290512	0.044104	-0.043468
C21	C	0.247766	0.000254	-0.091425
C22	C	0.277472	-0.043608	-0.140454
C23	C	0.349917	-0.043624	-0.141517
C24	C	0.392657	0.000225	-0.093546
C25	C	0.124513	0.000284	-0.153047
C26	C	0.052065	0.000288	-0.151984
C27	C	0.069026	0.000268	-0.025374
C28	C	0.141473	0.000257	-0.026439
C29	C	0.169211	0.000269	-0.090278
C30	C	0.867575	-0.217310	-0.045137
C31	C	0.867579	-0.296112	-0.045134
C32	C	0.820206	-0.335527	-0.092488
C33	C	0.772813	-0.296134	-0.139837
C34	C	0.772805	-0.217334	-0.139834
C35	C	0.810906	-0.460355	-0.155776
C36	C	0.810918	-0.539154	-0.155779
C37	C	0.820224	-0.578574	-0.092496
C38	C	0.829533	-0.539184	-0.029207
C39	C	0.829525	-0.460384	-0.029204
C40	C	0.820208	-0.420973	-0.092496
C41	C	0.867615	-0.703403	-0.045144
C42	C	0.867614	-0.782206	-0.045139
C43	C	0.772851	-0.782227	-0.139848
C44	C	0.772849	-0.703425	-0.139846
C45	C	0.820234	-0.664018	-0.092495
C46	C	0.947219	0.000262	-0.087022
C47	C	1.024323	0.000287	-0.088151
C48	C	0.825682	0.000207	0.034516
C49	C	0.824554	0.000197	0.111620
N50	N	0.820240	0.178384	-0.092493
C51	C	0.887322	0.000207	0.156316
C52	C	0.886262	0.000216	0.228764
C53	C	0.822430	0.000199	0.256511
C54	C	0.759653	0.000193	0.211805
C55	C	0.760715	0.000192	0.139359
C56	C	0.772245	-0.043669	0.364801
C57	C	0.771185	-0.043672	0.437245
C58	C	0.819152	0.000206	0.479957
C59	C	0.868190	0.044078	0.450217
C60	C	0.869252	0.044077	0.377771
C61	C	0.821271	0.000201	0.335065
C62	C	0.880775	0.000226	0.603209
C63	C	0.879713	0.000239	0.675658
C64	C	0.753102	0.000209	0.658697
C65	C	0.754167	0.000204	0.586251
C66	C	0.818005	0.000208	0.558511
C67	C	0.814745	0.000241	0.780503
C68	C	0.815880	0.000224	0.703400
H69	H	0.593985	0.000211	-0.211580
Cl70	Cl	0.442758	0.000235	-0.237451
Cl71	Cl	0.416687	0.099216	0.015768
Cl72	Cl	0.034151	0.000260	0.054873
Cl73	Cl	0.927154	-0.345631	0.014391
Cl74	Cl	0.711939	-0.098837	0.311113
H75	H	0.734239	-0.328230	-0.178392
Cl76	Cl	0.713233	-0.167819	-0.199359
H77	H	0.493322	0.000192	0.020044
Cl78	Cl	0.681800	0.000179	0.083166
Cl79	Cl	0.841218	-0.410868	0.050356
H80	H	0.932756	0.000233	0.580623
Cl81	Cl	0.159388	0.000291	-0.233300
H82	H	0.734267	-0.671357	-0.178402
H83	H	0.837110	-0.571278	0.022324
H84	H	0.930828	0.000252	0.712049
H85	H	0.939304	0.000214	0.133736
Cl86	Cl	0.965176	0.000229	0.284964
Cl87	Cl	0.927181	-0.653862	0.014388
H88	H	0.707681	0.000182	0.234402
H89	H	0.242669	-0.079316	-0.179506
Cl90	Cl	0.387260	-0.098765	-0.203147
Cl91	Cl	0.927140	-0.167771	0.014393
H92	H	0.015673	0.000302	-0.203099
H93	H	0.907249	0.079808	0.484992
Cl94	Cl	0.713291	-0.831771	-0.199374
H95	H	0.177866	0.000243	0.024674
Cl96	Cl	0.253174	0.099252	0.018162
H97	H	0.731253	-0.079391	0.461453
Cl98	Cl	0.799222	-0.588664	-0.235342
Cl99	Cl	0.672855	0.000193	0.693573
H100	H	0.624756	0.000148	0.018124
H101	H	0.906198	-0.814273	-0.006581
Cl102	Cl	0.799272	-0.410808	-0.235341
H103	H	0.909179	0.079800	0.353560
Cl104	Cl	0.675253	0.000188	0.530058
