data_functionalizedCrystal
_audit_creation_method	'MofGen! by Chris Wilmer'
_symmetry_space_group_name_H-M	'P1'
_symmetry_Int_Tables_number	1
_symmetry_cell_setting	triclinic
loop_
_symmetry_equiv_pos_as_xyz
  x,y,z
_cell_length_a	17.000371
_cell_length_b	16.098538
_cell_length_c	17.038272
_cell_angle_alpha	87.079695
_cell_angle_beta	83.355402
_cell_angle_gamma	92.522126
loop_
_atom_site_label
_atom_site_type_symbol
_atom_site_fract_x
_atom_site_fract_y
_atom_site_fract_z
O1	O	1.061314	0.069260	0.024320
O2	O	1.561314	0.569260	0.524320
O3	O	0.831493	0.069261	0.052565
O4	O	1.331493	0.569261	0.552565
O5	O	0.945037	0.069254	-0.075279
O6	O	1.445037	0.569254	0.424721
O7	O	0.947770	0.069267	0.152164
O8	O	1.447770	0.569267	0.652164
O9	O	0.938403	-0.069259	-0.067838
O10	O	1.438403	0.430741	0.432162
O11	O	0.824859	-0.069251	0.060006
O12	O	1.324859	0.430749	0.560006
O13	O	1.054679	-0.069253	0.031761
O14	O	1.554679	0.430747	0.531761
Zn15	Zn	0.938716	-0.091244	0.047065
Zn16	Zn	1.438716	0.408756	0.547065
Zn17	Zn	0.947457	0.091252	0.037262
Zn18	Zn	1.447457	0.591252	0.537262
O19	O	0.941135	-0.069245	0.159605
O20	O	1.441135	0.430755	0.659605
C21	C	0.798625	0.000005	0.057803
C22	C	1.298625	0.500005	0.557803
C23	C	0.710572	0.000005	0.062314
C24	C	1.210572	0.500005	0.562314
C25	C	0.673845	-0.000000	-0.007108
C26	C	1.173845	0.500000	0.492892
C27	C	0.591110	0.000006	-0.002865
C28	C	1.091110	0.500006	0.497135
C29	C	0.545103	0.000012	0.070801
C30	C	1.045103	0.500012	0.570801
C31	C	0.581835	0.000020	0.140228
C32	C	1.081835	0.500020	0.640228
C33	C	0.664569	0.000019	0.135983
C34	C	1.164569	0.500019	0.635983
C35	C	0.295067	0.000018	0.087195
C36	C	0.795067	0.500018	0.587195
C37	C	0.212327	0.000016	0.091434
C38	C	0.712327	0.500016	0.591434
C39	C	0.221609	0.000004	-0.051659
C40	C	0.721609	0.500004	0.448341
C41	C	0.304344	-0.000001	-0.055896
C42	C	0.804344	0.499999	0.444104
C43	C	0.341069	0.000011	0.013530
C44	C	0.841069	0.500011	0.513530
C45	C	0.460534	0.000016	0.075140
C46	C	0.960534	0.500016	0.575140
C47	C	0.425637	0.000013	0.009190
C48	C	0.925637	0.500013	0.509190
N49	N	0.932756	-0.215793	0.053755
N50	N	1.432756	0.284207	0.553755
C51	C	0.980968	-0.259381	-0.000491
C52	C	1.480968	0.240619	0.499509
C53	C	0.976807	-0.346569	0.004196
C54	C	1.476807	0.153431	0.504196
C55	C	0.924436	-0.390168	0.063132
C56	C	1.424436	0.109832	0.563132
C57	C	0.876218	-0.346574	0.117380
C58	C	1.376218	0.153426	0.617380
C59	C	0.880376	-0.259387	0.112689
C60	C	1.380376	0.240613	0.612689
C61	C	0.909363	-0.653417	0.080123
C62	C	1.409363	-0.153417	0.580123
C63	C	0.905210	-0.740611	0.084811
C64	C	1.405210	-0.240611	0.584811
C65	C	1.005798	-0.740600	-0.028375
C66	C	1.505798	-0.240600	0.471625
C67	C	1.009955	-0.653411	-0.033057
C68	C	1.509955	-0.153411	0.466943
C69	C	0.961734	-0.609824	0.021188
C70	C	1.461734	-0.109824	0.521188
C71	C	0.920183	-0.479289	0.067925
C72	C	1.420183	0.020711	0.567925
C73	C	0.965983	-0.520705	0.016391
C74	C	1.465983	-0.020705	0.516391
C75	C	1.087547	0.000005	0.026524
C76	C	1.587547	0.500005	0.526524
C77	C	1.175601	0.000011	0.022012
C78	C	1.675601	0.500011	0.522012
C79	C	0.939235	-0.000002	-0.100516
C80	C	1.439235	0.499998	0.399484
C81	C	0.931823	-0.000002	-0.186802
C82	C	1.431823	0.499998	0.313198
N83	N	0.953423	0.215801	0.030565
N84	N	1.453423	0.715801	0.530565
C85	C	0.999881	-0.000003	-0.241577
C86	C	1.499881	0.499997	0.258423
C87	C	0.992911	0.000005	-0.322651
C88	C	1.492911	0.500005	0.177349
C89	C	0.917883	0.000008	-0.348947
C90	C	1.417883	0.500008	0.151053
C91	C	0.849819	0.000012	-0.294165
C92	C	1.349819	0.500012	0.205835
C93	C	0.856790	0.000010	-0.213093
C94	C	1.356790	0.500010	0.286907
C95	C	0.893257	0.000020	-0.593019
C96	C	1.393257	0.500020	-0.093019
C97	C	0.886292	0.000019	-0.674097
C98	C	1.386292	0.500019	-0.174097
C99	C	1.029385	0.000014	-0.702577
C100	C	1.529385	0.500014	-0.202577
C101	C	1.036349	0.000007	-0.621503
C102	C	1.536349	0.500007	-0.121503
C103	C	0.968285	0.000015	-0.566728
C104	C	1.468285	0.500015	-0.066728
C105	C	0.910757	0.000013	-0.431817
C106	C	1.410757	0.500013	0.068183
C107	C	0.975412	0.000015	-0.483860
C108	C	1.475412	0.500015	0.016140
C109	C	0.946937	0.000013	0.184843
C110	C	1.446937	0.500013	0.684843
C111	C	0.954350	0.000018	0.271128
C112	C	1.454350	0.500018	0.771128
H113	H	0.544369	0.000030	0.200207
H114	H	1.044369	0.500030	0.700207
O115	O	0.854257	-0.782835	0.142085
O116	O	1.354257	-0.282835	0.642085
C117	C	0.812597	-0.725670	0.188967
C118	C	1.312597	-0.225670	0.688967
H119	H	0.812512	-0.663524	0.153780
H120	H	1.312512	-0.163524	0.653780
H121	H	0.748928	-0.750877	0.206493
H122	H	1.248928	-0.250877	0.706493
H123	H	0.842661	-0.716384	0.244536
H124	H	1.342661	-0.216384	0.744536
H125	H	0.694470	0.000020	0.192514
H126	H	1.194470	0.500020	0.692514
O127	O	0.813396	0.000177	-0.699614
O128	O	1.313396	0.500177	-0.199614
C129	C	0.775008	0.071910	-0.674980
C130	C	1.275008	0.571910	-0.174980
H131	H	0.821191	0.122044	-0.663713
H132	H	1.321191	0.622044	-0.163713
H133	H	0.739135	0.095993	-0.723135
H134	H	1.239135	0.595993	-0.223135
H135	H	0.733657	0.055698	-0.618176
H136	H	1.233657	0.555698	-0.118176
O137	O	1.072727	0.000105	-0.215946
O138	O	1.572727	0.500105	0.284054
C139	C	1.084483	0.071852	-0.173769
C140	C	1.584483	0.571852	0.326231
H141	H	1.024555	0.095767	-0.150540
H142	H	1.524555	0.595767	0.349460
H143	H	1.118893	0.055717	-0.121922
H144	H	1.618893	0.555717	0.378078
H145	H	1.119508	0.122086	-0.214737
H146	H	1.619508	0.622086	0.285263
O147	O	0.415879	0.000163	0.146707
O148	O	0.915879	0.500163	0.646707
C149	C	0.436720	0.071889	0.185357
C150	C	0.936720	0.571889	0.685357
H151	H	0.464587	0.122027	0.139640
H152	H	0.964587	0.622027	0.639640
H153	H	0.381356	0.095971	0.219300
H154	H	0.881356	0.595971	0.719300
H155	H	0.481066	0.055668	0.228383
H156	H	0.981066	0.555668	0.728383
H157	H	0.801369	0.000011	-0.168494
H158	H	1.301369	0.500011	0.331506
O159	O	1.109294	0.000038	-0.596097
O160	O	1.609294	0.500038	-0.096097
C161	C	1.167871	0.000014	-0.661828
C162	C	1.667871	0.500014	-0.161828
H163	H	1.143189	0.026246	-0.716851
H164	H	1.643189	0.526246	-0.216851
H165	H	1.221853	0.040218	-0.650519
H166	H	1.721853	0.540218	-0.150519
H167	H	1.185937	-0.066440	-0.671267
H168	H	1.685937	0.433560	-0.171267
H169	H	0.191698	0.000003	-0.108183
H170	H	0.691698	0.500003	0.391817
O171	O	1.016732	-0.478282	-0.040913
O172	O	1.516732	0.021718	0.459087
C173	C	0.973432	-0.427908	-0.088752
C174	C	1.473432	0.072092	0.411248
H175	H	0.914171	-0.414848	-0.054213
H176	H	1.414171	0.085152	0.445787
H177	H	1.008583	-0.366595	-0.106651
H178	H	1.508583	0.133405	0.393349
H179	H	0.962531	-0.461546	-0.144075
H180	H	1.462531	0.038454	0.355925
O181	O	0.167673	0.000175	0.163006
O182	O	0.667673	0.500175	0.663006
C183	C	0.188510	0.071910	0.201644
C184	C	0.688510	0.571910	0.701644
H185	H	0.216373	0.122044	0.155921
H186	H	0.716373	0.622044	0.655921
H187	H	0.133145	0.095993	0.235585
H188	H	0.633145	0.595993	0.735585
H189	H	0.232859	0.055701	0.244671
H190	H	0.732859	0.555701	0.744671
H191	H	1.048332	0.000002	-0.367247
H192	H	1.548332	0.500002	0.132753
O193	O	1.095418	0.000050	-0.755893
O194	O	1.595418	0.500050	-0.255893
C195	C	1.073181	0.000032	-0.833088
C196	C	1.573181	0.500032	-0.333088
H197	H	1.011998	0.026254	-0.833329
H198	H	1.511998	0.526254	-0.333329
H199	H	1.118151	0.040248	-0.875151
H200	H	1.618151	0.540248	-0.375151
H201	H	1.071414	-0.066419	-0.853206
H202	H	1.571414	0.433581	-0.353206
H203	H	1.052599	-0.617915	-0.081048
H204	H	1.552599	-0.117915	0.418952
H205	H	0.877543	-0.514795	0.115913
H206	H	1.377543	-0.014795	0.615913
H207	H	0.837835	0.000026	-0.548430
H208	H	1.337835	0.500026	-0.048430
O209	O	0.470298	0.000156	-0.062393
O210	O	0.970298	0.500156	0.437607
C211	C	0.456329	0.071876	-0.108749
C212	C	0.956329	0.571876	0.391251
H213	H	0.433267	0.122021	-0.068421
H214	H	0.933267	0.622021	0.431579
H215	H	0.513998	0.095952	-0.145281
H216	H	1.013998	0.595952	0.354719
H217	H	0.410426	0.055650	-0.150031
H218	H	0.910426	0.555650	0.349969
O219	O	0.776984	0.000126	-0.319809
O220	O	1.276984	0.500126	0.180191
C221	C	0.772102	0.071873	-0.369687
C222	C	1.272102	0.571873	0.130313
H223	H	0.834321	0.095789	-0.395481
H224	H	1.334321	0.595789	0.104519
H225	H	0.736148	0.055739	-0.419804
H226	H	1.236148	0.555739	0.080196
H227	H	0.741887	0.122107	-0.334111
H228	H	1.241887	0.622107	0.165889
O229	O	0.718418	0.000032	-0.078734
O230	O	1.218418	0.500032	0.421266
C231	C	0.668255	0.000011	-0.139095
C232	C	1.168255	0.500011	0.360905
H233	H	0.609176	0.026233	-0.116501
H234	H	1.109176	0.526233	0.383499
H235	H	0.697328	0.040224	-0.192519
H236	H	1.197328	0.540224	0.307481
H237	H	0.657700	-0.066441	-0.157075
H238	H	1.157700	0.433559	0.342925
O239	O	0.555335	-0.000110	-0.070238
O240	O	1.055335	0.499890	0.429762
C241	C	0.504330	-0.071854	-0.068217
C242	C	1.004330	0.428146	0.431783
H243	H	0.486764	-0.095765	-0.004178
H244	H	0.986764	0.404235	0.495822
H245	H	0.448886	-0.055717	-0.096377
H246	H	0.948886	0.444283	0.403623
H247	H	0.536092	-0.122092	-0.102461
H248	H	1.036092	0.377908	0.397539
H249	H	0.324959	0.000034	0.143726
H250	H	0.824959	0.500034	0.643726
H251	H	0.870101	-0.617936	0.124293
H252	H	1.370101	-0.117936	0.624293
H253	H	1.036501	0.000031	-0.462447
H254	H	1.536501	0.500031	0.037553
H255	H	1.045056	-0.776096	-0.072540
H256	H	1.545056	-0.276096	0.427460
H257	H	0.341798	-0.000010	-0.115883
H258	H	0.841798	0.499990	0.384117
O259	O	1.031752	-0.217088	-0.057856
O260	O	1.531752	0.282912	0.442144
C261	C	1.012634	-0.238455	-0.132855
C262	C	1.512634	0.261545	0.367145
H263	H	0.948030	-0.262424	-0.127599
H264	H	1.448030	0.237576	0.372401
H265	H	1.021841	-0.181140	-0.175640
H266	H	1.521841	0.318860	0.324360
H267	H	1.052570	-0.289076	-0.155972
H268	H	1.552570	0.210924	0.344028
H269	H	1.016065	-0.382058	-0.039975
H270	H	1.516065	0.117942	0.460025
O271	O	0.825301	-0.389018	0.174530
O272	O	1.325301	0.110982	0.674530
C273	C	0.771190	-0.439456	0.138896
C274	C	1.271190	0.060544	0.638896
H275	H	0.798001	-0.452520	0.076550
H276	H	1.298001	0.047480	0.576550
H277	H	0.757933	-0.500764	0.175531
H278	H	1.257933	-0.000764	0.675531
H279	H	0.713880	-0.405872	0.135793
H280	H	1.213880	0.094128	0.635793
O281	O	0.833514	-0.217172	0.165469
O282	O	1.333514	0.282828	0.665469
C283	C	0.786385	-0.274347	0.218483
C284	C	1.286385	0.225653	0.718483
H285	H	0.815962	-0.336489	0.220493
H286	H	1.315962	0.163511	0.720493
H287	H	0.779703	-0.249146	0.280102
H288	H	1.279703	0.250854	0.780102
H289	H	0.725380	-0.283640	0.197723
H290	H	1.225380	0.216360	0.697723
O291	O	0.837924	0.000120	-0.457466
O292	O	1.337924	0.500120	0.042534
C293	C	0.833043	0.071869	-0.507341
C294	C	1.333043	0.571869	-0.007341
H295	H	0.895264	0.095791	-0.533125
H296	H	1.395264	0.595791	-0.033125
H297	H	0.797099	0.055736	-0.557465
H298	H	1.297099	0.555736	-0.057465
H299	H	0.802820	0.122098	-0.471765
H300	H	1.302820	0.622098	0.028235
