data_functionalizedCrystal
_audit_creation_method	'MofGen! by Chris Wilmer'
_symmetry_space_group_name_H-M	'P1'
_symmetry_Int_Tables_number	1
_symmetry_cell_setting	triclinic
loop_
_symmetry_equiv_pos_as_xyz
  x,y,z
_cell_length_a	12.645331
_cell_length_b	21.295417
_cell_length_c	12.645323
_cell_angle_alpha	89.966008
_cell_angle_beta	89.977324
_cell_angle_gamma	90.029485
loop_
_atom_site_label
_atom_site_type_symbol
_atom_site_fract_x
_atom_site_fract_y
_atom_site_fract_z
Zn1	Zn	1.620637	-0.250621	-0.599379
Zn2	Zn	2.120637	0.249379	-0.099379
Zn3	Zn	1.620479	-0.355896	-0.422091
Zn4	Zn	2.120479	0.144104	0.077909
Zn5	Zn	1.443351	-0.250643	-0.422123
Zn6	Zn	1.943351	0.249357	0.077877
Zn7	Zn	1.443294	-0.355855	-0.599306
Zn8	Zn	1.943294	0.144145	-0.099306
O9	O	1.531940	-0.303254	-0.510725
O10	O	2.031940	0.196746	-0.010725
O11	O	1.768963	-0.264595	-0.575878
O12	O	2.268963	0.235405	-0.075878
O13	O	1.596941	-0.341960	-0.273748
O14	O	2.096941	0.158040	0.226252
O15	O	1.466959	-0.162550	-0.445681
O16	O	1.966959	0.337450	0.054319
O17	O	1.768847	-0.341939	-0.445625
O18	O	2.268847	0.158061	0.054375
O19	O	1.597210	-0.162535	-0.575910
O20	O	2.097210	0.337465	-0.075910
O21	O	1.466806	-0.264631	-0.273772
O22	O	1.966806	0.235369	0.226228
O23	O	1.294996	-0.264591	-0.445610
O24	O	1.794996	0.235409	0.054390
O25	O	1.466860	-0.341869	-0.747663
O26	O	1.966860	0.158131	-0.247663
O27	O	1.294954	-0.341890	-0.575786
O28	O	1.794954	0.158110	-0.075786
O29	O	1.597154	-0.264555	-0.747717
O30	O	2.097154	0.235445	-0.247717
O31	O	1.596884	-0.443980	-0.445555
O32	O	2.096884	0.056020	0.054445
O33	O	1.466707	-0.443950	-0.575754
O34	O	1.966707	0.056050	-0.075754
C35	C	1.256510	-0.303239	-0.510694
C36	C	1.756510	0.196761	-0.010694
C37	C	1.138680	-0.303247	-0.510706
C38	C	1.638680	0.196753	-0.010706
C39	C	0.971108	-0.254395	-0.429265
C40	C	1.471108	0.245605	0.070735
C41	C	1.093667	-0.254521	-0.428906
C42	C	1.593667	0.245479	0.071094
C43	C	1.094135	-0.369560	-0.480174
C44	C	1.594135	0.130440	0.019826
C45	C	0.971537	-0.369293	-0.479618
C46	C	1.471537	0.130707	0.020382
C47	C	0.971537	-0.286418	-0.622995
C48	C	1.471537	0.213582	-0.122995
C49	C	1.094144	-0.284937	-0.622372
C50	C	1.594144	0.215063	-0.122372
C51	C	1.531801	-0.466805	-0.510666
C52	C	2.031801	0.033195	-0.010666
C53	C	1.531839	-0.536773	-0.510677
C54	C	2.031839	-0.036773	-0.010677
C55	C	1.599682	-0.569635	-0.442951
C56	C	2.099682	-0.069635	0.057049
C57	C	1.599732	-0.635377	-0.442975
C58	C	2.099732	-0.135377	0.057025
C59	C	1.531919	-0.668256	-0.510713
C60	C	2.031919	-0.168256	-0.010713
C61	C	1.464071	-0.635386	-0.578452
C62	C	1.964071	-0.135386	-0.078452
C63	C	1.464031	-0.569645	-0.578433
C64	C	1.964031	-0.069645	-0.078433
N65	N	1.439183	-0.771521	-0.518784
N66	N	1.939183	-0.271521	-0.018784
N67	N	1.439224	-0.833972	-0.518796
N68	N	1.939224	-0.333972	-0.018796
C69	C	1.532038	-0.866331	-0.510774
C70	C	2.032038	-0.366331	-0.010774
N71	N	1.624811	-0.833879	-0.502720
N72	N	2.124811	-0.333879	-0.002720
N73	N	1.624768	-0.771421	-0.502703
N74	N	2.124768	-0.271421	-0.002703
C75	C	1.531956	-0.739541	-0.510741
C76	C	2.031956	-0.239541	-0.010741
C77	C	1.599941	-0.970478	-0.443071
C78	C	2.099941	-0.470478	0.056929
C79	C	1.599993	-1.036221	-0.443102
C80	C	2.099993	-0.536221	0.056898
C81	C	1.464322	-1.036229	-0.578573
C82	C	1.964322	-0.536229	-0.078573
C83	C	1.464280	-0.970487	-0.578547
C84	C	1.964280	-0.470487	-0.078547
C85	C	1.532088	-0.937615	-0.510791
C86	C	2.032088	-0.437615	-0.010791
C87	C	1.808445	-0.303269	-0.510756
C88	C	2.308445	0.196731	-0.010756
C89	C	1.926275	-0.303276	-0.510770
C90	C	2.426275	0.196724	-0.010770
C91	C	1.532018	-0.303205	-0.787230
C92	C	2.032018	0.196795	-0.287230
C93	C	1.532052	-0.303184	-0.905061
C94	C	2.032052	0.196816	-0.405061
C95	C	1.532109	-0.139063	-0.510807
C96	C	2.032109	0.360937	-0.010807
C97	C	1.532180	-0.069095	-0.510842
C98	C	2.032180	0.430905	-0.010842
C99	C	1.449831	-0.351594	-1.072591
C100	C	1.949831	0.148406	-0.572591
C101	C	1.450046	-0.351833	-0.950031
C102	C	1.950046	0.148167	-0.450031
C103	C	1.643744	-0.321189	-0.949576
C104	C	2.143744	0.178811	-0.449576
C105	C	1.643293	-0.321492	-1.072174
C106	C	2.143293	0.178508	-0.572174
C107	C	1.503635	-0.236500	-1.072276
C108	C	2.003635	0.263500	-0.572276
C109	C	1.501143	-0.236899	-0.949670
C110	C	2.001143	0.263101	-0.449670
C111	C	1.531923	-0.303257	-0.235295
C112	C	2.031923	0.196743	0.264705
C113	C	1.532096	-0.303100	-0.117466
C114	C	2.032096	0.196900	0.382534
H115	H	0.942886	-0.383589	-0.397575
H116	H	1.442886	0.116411	0.102425
H117	H	1.124789	-0.317942	-0.686348
H118	H	1.624789	0.182058	-0.186348
N119	N	1.340331	-0.336906	-0.910179
N120	N	1.840331	0.163094	-0.410179
H121	H	1.313378	-0.373033	-0.865937
H122	H	1.813378	0.126967	-0.365937
H123	H	1.342769	-0.297557	-0.865700
H124	H	1.842769	0.202443	-0.365700
N125	N	1.672832	-0.534183	-0.369888
N126	N	2.172832	-0.034183	0.130112
H127	H	1.662516	-0.487549	-0.380152
H128	H	2.162516	0.012451	0.119848
H129	H	1.656380	-0.545716	-0.294164
H130	H	2.156380	-0.045716	0.205836
N131	N	1.339785	-0.336808	-1.111604
N132	N	1.839785	0.163192	-0.611604
H133	H	1.342184	-0.298533	-1.158751
H134	H	1.842184	0.201467	-0.658751
H135	H	1.311506	-0.373751	-1.152912
H136	H	1.811506	0.126249	-0.652912
H137	H	1.706680	-0.286986	-0.920449
H138	H	2.206680	0.213014	-0.420449
H139	H	1.668285	-0.369365	-0.918874
H140	H	2.168285	0.130635	-0.418874
N141	N	1.574710	-0.186505	-0.909130
N142	N	2.074710	0.313495	-0.409130
H143	H	1.629364	-0.206016	-0.861061
H144	H	2.129364	0.293984	-0.361061
H145	H	1.611218	-0.165547	-0.970824
H146	H	2.111218	0.334453	-0.470824
H147	H	1.655246	-1.062976	-0.387954
H148	H	2.155246	-0.562976	0.112046
N149	N	1.392271	-0.218904	-0.911127
N150	N	1.892271	0.281096	-0.411127
H151	H	1.339072	-0.251001	-0.936182
H152	H	1.839072	0.248999	-0.436182
H153	H	1.392066	-0.217415	-0.831300
H154	H	1.892066	0.282585	-0.331300
N155	N	1.474487	-0.416592	-1.113356
N156	N	1.974487	0.083408	-0.613356
H157	H	1.538710	-0.414762	-1.160770
H158	H	2.038710	0.085238	-0.660770
H159	H	1.489117	-0.445484	-1.051714
H160	H	1.989117	0.054516	-0.551714
H161	H	1.124785	-0.384101	-0.399012
H162	H	1.624785	0.115899	0.100988
N163	N	0.933142	-0.333575	-0.703442
N164	N	1.433142	0.166425	-0.203442
H165	H	0.886657	-0.365705	-0.667428
H166	H	1.386657	0.134295	-0.167428
H167	H	0.891283	-0.311212	-0.760077
H168	H	1.391283	0.188788	-0.260077
N169	N	0.932239	-0.419165	-0.554820
N170	N	1.432239	0.080835	-0.054820
H171	H	0.994559	-0.441227	-0.588180
H172	H	1.494559	0.058773	-0.088180
H173	H	0.887916	-0.450643	-0.514688
H174	H	1.387916	0.049357	-0.014688
N175	N	1.474941	-0.417237	-0.911200
N176	N	1.974941	0.082763	-0.411200
H177	H	1.546763	-0.430387	-0.938214
H178	H	2.046763	0.069613	-0.438214
H179	H	1.475116	-0.417635	-0.831334
H180	H	1.975116	0.082365	-0.331334
H181	H	1.409112	-1.062998	-0.633731
H182	H	1.909112	-0.562998	-0.133731
H183	H	1.409031	-0.943729	-0.633691
H184	H	1.909031	-0.443729	-0.133691
N185	N	1.582997	-0.188639	-1.110714
N186	N	2.082997	0.311361	-0.610714
H187	H	1.637128	-0.209958	-1.157171
H188	H	2.137128	0.290042	-0.657171
H189	H	1.545299	-0.155039	-1.152611
H190	H	2.045299	0.344961	-0.652611
H191	H	1.667420	-0.370178	-1.100771
H192	H	2.167420	0.129822	-0.600771
H193	H	1.123290	-0.406953	-0.537674
H194	H	1.623290	0.093047	-0.037674
H195	H	1.706664	-0.287705	-1.101861
H196	H	2.206664	0.212295	-0.601861
N197	N	0.930636	-0.223487	-0.659783
N198	N	1.430636	0.276513	-0.159783
H199	H	0.882344	-0.205267	-0.604066
H200	H	1.382344	0.294733	-0.104066
H201	H	0.992151	-0.194094	-0.671991
H202	H	1.492151	0.305906	-0.171991
H203	H	1.423608	-0.220088	-1.103185
H204	H	1.923608	0.279912	-0.603185
H205	H	1.123266	-0.236138	-0.645395
H206	H	1.623266	0.263862	-0.145395
H207	H	1.654982	-0.662138	-0.387825
H208	H	2.154982	-0.162138	0.112175
N209	N	0.932092	-0.189063	-0.454327
N210	N	1.432092	0.310937	0.045673
H211	H	0.994453	-0.160678	-0.468823
H212	H	1.494453	0.339322	0.031177
H213	H	0.884962	-0.190572	-0.518737
H214	H	1.384962	0.309428	-0.018737
N215	N	1.673074	-0.935017	-0.369997
N216	N	2.173074	-0.435017	0.130003
H217	H	1.716068	-0.965813	-0.327101
H218	H	2.216068	-0.465813	0.172899
H219	H	1.722090	-0.907692	-0.413185
H220	H	2.222090	-0.407692	0.086815
H221	H	1.408859	-0.662160	-0.633606
H222	H	1.908859	-0.162160	-0.133606
H223	H	0.940256	-0.265413	-0.346591
H224	H	1.440256	0.234587	0.153409
N225	N	1.133571	-0.189385	-0.454243
N226	N	1.633571	0.310615	0.045757
H227	H	1.213441	-0.189343	-0.454054
H228	H	1.713441	0.310657	0.045946
H229	H	1.107108	-0.176348	-0.526329
H230	H	1.607108	0.323652	-0.026329
N231	N	1.132457	-0.269275	-0.318749
N232	N	1.632457	0.230725	0.181251
H233	H	1.069914	-0.275726	-0.270236
H234	H	1.569914	0.224274	0.229764
H235	H	1.176649	-0.308752	-0.320486
H236	H	1.676649	0.191248	0.179514
H237	H	1.408783	-0.542889	-0.633585
H238	H	1.908783	-0.042889	-0.133585
