data_functionalizedCrystal
_audit_creation_method	'MofGen! by Chris Wilmer'
_symmetry_space_group_name_H-M	'P1'
_symmetry_Int_Tables_number	1
_symmetry_cell_setting	triclinic
loop_
_symmetry_equiv_pos_as_xyz
  x,y,z
_cell_length_a	13.339070
_cell_length_b	17.699083
_cell_length_c	11.804917
_cell_angle_alpha	101.775893
_cell_angle_beta	105.133270
_cell_angle_gamma	80.543845
loop_
_atom_site_label
_atom_site_type_symbol
_atom_site_fract_x
_atom_site_fract_y
_atom_site_fract_z
O1	O	1.361834	-0.368294	0.098999
O2	O	1.067431	-0.318516	0.099006
O3	O	1.222948	-0.234975	0.098992
O4	O	1.206317	-0.451835	0.099013
O5	O	1.181960	-0.256864	-0.099042
O6	O	1.026443	-0.340405	-0.099028
O7	O	1.320846	-0.390183	-0.099035
Cu8	Cu	1.169902	-0.367293	-0.117114
Cu9	Cu	1.218375	-0.341407	0.117084
O10	O	1.165329	-0.473724	-0.099021
C11	C	1.009268	-0.321052	-0.000010
C12	C	0.897029	-0.295988	-0.000008
C13	C	1.379009	-0.387647	-0.000016
C14	C	1.491250	-0.412710	-0.000011
C15	C	1.201858	-0.217597	-0.000025
C16	C	1.200069	-0.133201	-0.000026
C17	C	1.856522	-0.217830	-0.000014
C18	C	1.751067	-0.194279	-0.000011
C19	C	1.686108	-0.248885	-0.000011
C20	C	1.726613	-0.327046	-0.000014
C21	C	1.832080	-0.350598	-0.000007
C22	C	1.661666	-0.381653	-0.000005
C23	C	1.702171	-0.459813	-0.000008
C24	C	1.807627	-0.483362	-0.000002
C25	C	1.872587	-0.428756	-0.000002
C26	C	1.556199	-0.358100	-0.000011
C27	C	1.531757	-0.490868	-0.000005
C28	C	1.637212	-0.514419	-0.000008
C29	C	1.186420	-0.491102	-0.000001
C30	C	1.188210	-0.575497	0.000007
N31	N	1.135816	-0.385501	-0.281836
C32	C	1.291356	-0.103876	-0.000030
C33	C	1.289671	-0.024575	-0.000019
C34	C	1.196698	0.025399	-0.000013
C35	C	1.105406	-0.003930	-0.000006
C36	C	1.107093	-0.083229	-0.000008
C37	C	1.098601	0.315873	0.000004
C38	C	1.096921	0.395176	0.000003
C39	C	1.281180	0.374526	-0.000007
C40	C	1.282867	0.295228	-0.000009
C41	C	1.191576	0.265906	0.000004
C42	C	1.193404	0.179919	-0.000005
C43	C	1.194868	0.111383	-0.000013
N44	N	1.252469	-0.323194	0.281807
C45	C	1.334360	-0.279437	0.344109
C46	C	1.360167	-0.265647	0.468757
C47	C	1.304081	-0.295609	0.531115
C48	C	1.222184	-0.339363	0.468813
C49	C	1.196379	-0.353159	0.344152
C50	C	1.166101	-0.369332	0.531158
C51	C	1.084203	-0.413086	0.468856
C52	C	1.058402	-0.426879	0.344208
C53	C	1.114488	-0.396917	0.281850
C54	C	1.191906	-0.355536	0.655818
C55	C	1.053925	-0.429258	0.655862
C56	C	1.028117	-0.443048	0.531214
H57	H	1.600243	-0.229705	-0.000009
N58	N	1.512516	-0.273807	-0.000033
H59	H	1.435851	-0.267169	-0.000039
H60	H	1.551477	-0.240818	0.073377
N61	N	1.448492	-0.218459	0.535953
H62	H	1.515696	-0.244768	0.514254
H63	H	1.432532	-0.164732	0.514212
H64	H	1.358574	0.254541	-0.000020
H65	H	1.909422	-0.173378	-0.000005
N66	N	1.707380	-0.109985	-0.000010
H67	H	1.764530	-0.078966	-0.000013
H68	H	1.648965	-0.105437	-0.073426
H69	H	1.840606	-0.547003	0.000014
H70	H	1.958456	-0.447928	-0.000009
N71	N	0.996640	0.449079	0.000029
H72	H	1.009427	0.503763	0.000024
H73	H	0.941499	0.431618	-0.073377
H74	H	1.670206	-0.578059	-0.000010
H75	H	1.478867	-0.535333	-0.000005
N76	N	1.394846	-0.247118	0.276863
H77	H	1.471035	-0.268623	0.298557
H78	H	1.365990	-0.262502	0.188464
H79	H	1.367064	-0.144561	-0.000042
H80	H	1.258587	-0.319912	0.706534
N81	N	1.388128	0.007054	-0.000030
H82	H	1.447279	-0.036638	-0.000045
H83	H	1.376238	0.031395	-0.073445
N84	N	1.331912	-0.280724	0.665556
H85	H	1.269503	-0.251848	0.695573
H86	H	1.352600	-0.331920	0.695520
H87	H	1.355514	0.398410	-0.000012
N88	N	1.086649	-0.411790	0.147405
H89	H	1.134605	-0.386167	0.117361
H90	H	1.094874	-0.469616	0.117493
H91	H	1.024266	0.292009	0.000015
N92	N	0.970069	-0.474067	0.277007
H93	H	0.938448	-0.490950	0.335420
H94	H	0.914828	-0.441363	0.225284
N95	N	1.005127	0.049967	0.000008
H96	H	1.017907	0.104652	0.000005
H97	H	0.949995	0.032501	-0.073403
N98	N	1.008637	-0.114861	0.000004
H99	H	0.949481	-0.071171	0.000006
H100	H	0.990125	-0.155425	-0.073408
N101	N	0.939789	-0.490237	0.464004
H102	H	0.967545	-0.537624	0.412296
H103	H	0.908200	-0.507071	0.522485
N104	N	0.993428	-0.461583	0.723102
H105	H	1.022200	-0.446202	0.811523
H106	H	0.917252	-0.440070	0.701313
