data_functionalizedCrystal
_audit_creation_method	'MofGen! by Chris Wilmer'
_symmetry_space_group_name_H-M	'P1'
_symmetry_Int_Tables_number	1
_symmetry_cell_setting	triclinic
loop_
_symmetry_equiv_pos_as_xyz
  x,y,z
_cell_length_a	25.639243
_cell_length_b	25.639240
_cell_length_c	25.639233
_cell_angle_alpha	90.025929
_cell_angle_beta	90.015962
_cell_angle_gamma	90.035481
loop_
_atom_site_label
_atom_site_type_symbol
_atom_site_fract_x
_atom_site_fract_y
_atom_site_fract_z
Zn1	Zn	0.799247	-0.208176	0.295630
Zn2	Zn	1.132580	0.125157	0.628963
Zn3	Zn	1.465913	0.458490	0.962296
Zn4	Zn	0.799179	-0.295595	0.208183
Zn5	Zn	1.132512	0.037738	0.541516
Zn6	Zn	1.465846	0.371071	0.874850
Zn7	Zn	0.711823	-0.208180	0.208203
Zn8	Zn	1.045156	0.125154	0.541537
Zn9	Zn	1.378490	0.458487	0.874870
Zn10	Zn	0.711777	-0.295587	0.295582
Zn11	Zn	1.045110	0.037747	0.628916
Zn12	Zn	1.378444	0.371080	0.962249
O13	O	0.755506	-0.251885	0.251900
O14	O	1.088840	0.081449	0.585233
O15	O	1.422173	0.414782	0.918566
O16	O	0.872403	-0.219775	0.284041
O17	O	1.205736	0.113559	0.617374
O18	O	1.539070	0.446892	0.950708
O19	O	0.787582	-0.284004	0.135020
O20	O	1.120915	0.049329	0.468354
O21	O	1.454249	0.382662	0.801687
O22	O	0.723467	-0.135014	0.219829
O23	O	1.056801	0.198319	0.553162
O24	O	1.390134	0.531653	0.886495
O25	O	0.872353	-0.284001	0.219794
O26	O	1.205687	0.049332	0.553128
O27	O	1.539020	0.382666	0.886461
O28	O	0.787697	-0.135012	0.284061
O29	O	1.121030	0.198322	0.617394
O30	O	1.454364	0.531655	0.950727
O31	O	0.723402	-0.219781	0.135035
O32	O	1.056735	0.113553	0.468369
O33	O	1.390069	0.446886	0.801702
O34	O	0.638652	-0.219772	0.219783
O35	O	0.971985	0.113561	0.553116
O36	O	1.305318	0.446894	0.886450
O37	O	0.723389	-0.283987	0.368754
O38	O	1.056722	0.049347	0.702087
O39	O	1.390056	0.382680	1.035421
O40	O	0.638618	-0.283990	0.283980
O41	O	0.971951	0.049343	0.617313
O42	O	1.305285	0.382677	0.950647
O43	O	0.787653	-0.219767	0.368789
O44	O	1.120986	0.113567	0.702122
O45	O	1.454319	0.446900	1.035455
O46	O	0.787538	-0.368759	0.219749
O47	O	1.120871	-0.035426	0.553082
O48	O	1.454204	0.297907	0.886415
O49	O	0.723324	-0.368753	0.283960
O50	O	1.056657	-0.035420	0.617294
O51	O	1.389990	0.297914	0.950627
C52	C	0.755433	-0.387727	0.251859
C53	C	1.088766	-0.054394	0.585192
C54	C	1.422099	0.278940	0.918525
C55	C	0.755449	-0.445841	0.251859
C56	C	1.088782	-0.112508	0.585192
C57	C	1.422115	0.220826	0.918525
C58	C	0.619664	-0.251881	0.251879
C59	C	0.952997	0.081452	0.585212
C60	C	1.286331	0.414786	0.918545
C61	C	0.561550	-0.251892	0.251882
C62	C	0.894883	0.081441	0.585216
C63	C	1.228217	0.414775	0.918549
C64	C	0.788967	-0.806164	0.285405
C65	C	1.122301	-0.472831	0.618739
C66	C	1.455634	-0.139498	0.952072
C67	C	0.788983	-0.860769	0.285416
C68	C	1.122316	-0.527435	0.618749
C69	C	1.455650	-0.194102	0.952083
O70	O	0.817394	-0.888972	0.313897
O71	O	1.150727	-0.555638	0.647230
O72	O	1.484061	-0.222305	0.980563
N73	N	0.755579	-0.888124	0.251950
N74	N	1.088912	-0.554790	0.585283
N75	N	1.422246	-0.221457	0.918617
C76	C	0.722154	-0.860871	0.218475
C77	C	1.055487	-0.527538	0.551808
C78	C	1.388820	-0.194205	0.885142
O79	O	0.693742	-0.889153	0.190011
O80	O	1.027075	-0.555819	0.523344
O81	O	1.360409	-0.222486	0.856678
C82	C	0.722136	-0.806268	0.218467
C83	C	1.055469	-0.472935	0.551801
C84	C	1.388803	-0.139601	0.885134
C85	C	0.755546	-0.778916	0.251932
C86	C	1.088879	-0.445583	0.585265
C87	C	1.422213	-0.112249	0.918599
C88	C	0.822374	-0.778812	0.318867
C89	C	1.155708	-0.445479	0.652201
C90	C	1.489041	-0.112146	0.985534
C91	C	0.822359	-0.724212	0.318856
C92	C	1.155693	-0.390879	0.652189
C93	C	1.489026	-0.057545	0.985523
C94	C	0.788938	-0.696963	0.285383
C95	C	1.122271	-0.363630	0.618716
C96	C	1.455604	-0.030297	0.952049
C97	C	0.755531	-0.724315	0.251920
C98	C	1.088864	-0.390982	0.585254
C99	C	1.422198	-0.057649	0.918587
C100	C	0.688708	-0.779017	0.184996
C101	C	1.022042	-0.445683	0.518329
C102	C	1.355375	-0.112350	0.851662
C103	C	0.688693	-0.724410	0.184991
C104	C	1.022027	-0.391076	0.518324
C105	C	1.355360	-0.057743	0.851658
C106	C	0.722103	-0.697058	0.218455
C107	C	1.055437	-0.363724	0.551789
C108	C	1.388770	-0.030391	0.885122
C109	C	0.722095	-0.642466	0.218435
C110	C	1.055428	-0.309133	0.551769
C111	C	1.388761	0.024200	0.885102
N112	N	0.755499	-0.615112	0.251901
N113	N	1.088832	-0.281778	0.585235
N114	N	1.422165	0.051555	0.918568
C115	C	0.788920	-0.642360	0.285375
C116	C	1.122253	-0.309027	0.618708
C117	C	1.455587	0.024307	0.952042
C118	C	0.722193	-0.975542	0.218494
C119	C	1.055526	-0.642209	0.551828
C120	C	1.388859	-0.308875	0.885161
C121	C	0.722213	-1.030144	0.218499
C122	C	1.055546	-0.696811	0.551832
C123	C	1.388879	-0.363478	0.885165
C124	C	0.789041	-1.030038	0.285441
C125	C	1.122375	-0.696705	0.618774
C126	C	1.455708	-0.363371	0.952107
C127	C	0.789024	-0.975435	0.285433
C128	C	1.122357	-0.642101	0.618766
C129	C	1.455690	-0.308768	0.952100
C130	C	0.755597	-0.948187	0.251960
C131	C	1.088930	-0.614854	0.585294
C132	C	1.422263	-0.281520	0.918627
C133	C	0.788887	-0.527695	0.285348
C134	C	1.122220	-0.194362	0.618681
C135	C	1.455553	0.138972	0.952015
C136	C	0.788870	-0.473090	0.285332
C137	C	1.122204	-0.139756	0.618665
C138	C	1.455537	0.193577	0.951999
C139	C	0.722040	-0.473201	0.218392
C140	C	1.055373	-0.139867	0.551726
C141	C	1.388707	0.193466	0.885059
C142	C	0.722058	-0.527801	0.218406
C143	C	1.055391	-0.194468	0.551740
C144	C	1.388725	0.138865	0.885073
C145	C	0.755483	-0.555047	0.251888
C146	C	1.088816	-0.221714	0.585222
C147	C	1.422150	0.111620	0.918555
O148	O	0.693697	-0.614229	0.189971
O149	O	1.027030	-0.280895	0.523304
O150	O	1.360363	0.052438	0.856638
O151	O	0.817322	-0.614072	0.313839
O152	O	1.150655	-0.280739	0.647172
O153	O	1.483989	0.052595	0.980506
C154	C	0.201207	-0.218495	0.285409
C155	C	0.534540	0.114839	0.618742
C156	C	0.867874	0.448172	0.952075
C157	C	0.146603	-0.218494	0.285412
C158	C	0.479936	0.114839	0.618745
C159	C	0.813269	0.448173	0.952078
O160	O	0.118383	-0.190088	0.313891
O161	O	0.451716	0.143245	0.647224
O162	O	0.785050	0.476578	0.980558
N163	N	0.119267	-0.251883	0.251914
N164	N	0.452601	0.081450	0.585247
N165	N	0.785934	0.414784	0.918581
C166	C	0.146539	-0.285271	0.218407
C167	C	0.479872	0.048062	0.551740
C168	C	0.813206	0.381396	0.885074
O169	O	0.118274	-0.313670	0.189914
O170	O	0.451608	0.019663	0.523248
O171	O	0.784941	0.352996	0.856581
C172	C	0.201142	-0.285268	0.218401
C173	C	0.534476	0.048065	0.551735
C174	C	0.867809	0.381398	0.885068
C175	C	0.228475	-0.251881	0.251905
C176	C	0.561808	0.081452	0.585239
C177	C	0.895142	0.414786	0.918572
C178	C	0.228540	-0.185109	0.318909
C179	C	0.561873	0.148224	0.652243
C180	C	0.895206	0.481557	0.985576
C181	C	0.283140	-0.185111	0.318907
C182	C	0.616473	0.148223	0.652240
C183	C	0.949807	0.481556	0.985573
C184	C	0.310408	-0.218497	0.285403
C185	C	0.643741	0.114836	0.618736
C186	C	0.977075	0.448170	0.952070
C187	C	0.283076	-0.251882	0.251903
C188	C	0.616409	0.081451	0.585236
C189	C	0.949742	0.414785	0.918569
C190	C	0.228413	-0.318653	0.184892
C191	C	0.561747	0.014680	0.518225
C192	C	0.895080	0.348014	0.851559
C193	C	0.283020	-0.318647	0.184889
C194	C	0.616354	0.014686	0.518223
C195	C	0.949687	0.348019	0.851556
C196	C	0.310353	-0.285260	0.218393
C197	C	0.643686	0.048073	0.551726
C198	C	0.977020	0.381407	0.885060
C199	C	0.364944	-0.285270	0.218396
C200	C	0.698277	0.048064	0.551730
C201	C	1.031611	0.381397	0.885063
N202	N	0.392279	-0.251881	0.251894
N203	N	0.725613	0.081453	0.585228
N204	N	1.058946	0.414786	0.918561
C205	C	0.365011	-0.218494	0.285398
C206	C	0.698345	0.114839	0.618731
C207	C	1.031678	0.448172	0.952064
C208	C	0.031869	-0.285273	0.218420
C209	C	0.365202	0.048060	0.551754
C210	C	0.698535	0.381394	0.885087
C211	C	-0.022734	-0.285279	0.218428
C212	C	0.310600	0.048055	0.551761
C213	C	0.643933	0.381388	0.885095
C214	C	-0.022667	-0.218501	0.285432
C215	C	0.310667	0.114832	0.618766
C216	C	0.644000	0.448166	0.952099
C217	C	0.031937	-0.218498	0.285427
C218	C	0.365270	0.114835	0.618760
C219	C	0.698603	0.448168	0.952094
C220	C	0.059204	-0.251884	0.251918
C221	C	0.392537	0.081449	0.585252
C222	C	0.725871	0.414783	0.918585
C223	C	0.479676	-0.218500	0.285390
C224	C	0.813010	0.114833	0.618723
C225	C	1.146343	0.448167	0.952057
C226	C	0.534282	-0.218506	0.285386
C227	C	0.867615	0.114828	0.618719
C228	C	1.200949	0.448161	0.952052
C229	C	0.534210	-0.285281	0.218380
C230	C	0.867543	0.048052	0.551713
C231	C	1.200876	0.381386	0.885046
C232	C	0.479609	-0.285278	0.218385
C233	C	0.812943	0.048056	0.551719
C234	C	1.146276	0.381389	0.885052
C235	C	0.452344	-0.251883	0.251892
C236	C	0.785677	0.081451	0.585226
C237	C	1.119011	0.414784	0.918559
O238	O	0.393198	-0.313659	0.189930
O239	O	0.726532	0.019674	0.523263
O240	O	1.059865	0.353007	0.856597
O241	O	0.393283	-0.190095	0.313881
O242	O	0.726616	0.143238	0.647214
O243	O	1.059950	0.476572	0.980547
C244	C	0.891879	-0.251888	0.251921
C245	C	1.225213	0.081445	0.585254
C246	C	1.558546	0.414778	0.918587
C247	C	0.949993	-0.251890	0.251930
C248	C	1.283327	0.081443	0.585263
C249	C	1.616660	0.414777	0.918596
C250	C	0.755523	-0.251875	0.388273
C251	C	1.088857	0.081458	0.721606
C252	C	1.422190	0.414791	1.054939
C253	C	0.755530	-0.251871	0.446387
C254	C	1.088864	0.081462	0.779720
C255	C	1.422197	0.414795	1.113053
C256	C	0.755595	-0.115511	0.251952
C257	C	1.088928	0.217822	0.585285
C258	C	1.422262	0.551155	0.918619
C259	C	0.755633	-0.057397	0.251975
C260	C	1.088966	0.275936	0.585308
C261	C	1.422299	0.609269	0.918641
C262	C	0.755520	-0.251856	0.116057
C263	C	1.088853	0.081477	0.449390
C264	C	1.422186	0.414811	0.782724
C265	C	0.755614	-0.251713	0.057943
C266	C	1.088947	0.081621	0.391277
C267	C	1.422281	0.414954	0.724610
C268	C	0.789035	-0.218333	0.806774
C269	C	1.122368	0.115001	1.140107
C270	C	1.455702	0.448334	1.473440
C271	C	0.789041	-0.218318	0.861378
C272	C	1.122375	0.115015	1.194711
C273	C	1.455708	0.448348	1.528045
O274	O	0.817486	-0.189864	0.889635
O275	O	1.150819	0.143469	1.222968
O276	O	1.484152	0.476803	1.556302
N277	N	0.755588	-0.251749	0.888669
N278	N	1.088921	0.081584	1.222003
N279	N	1.422255	0.414918	1.555336
C280	C	0.722122	-0.285192	0.861354
C281	C	1.055456	0.048141	1.194687
C282	C	1.388789	0.381474	1.528020
O283	O	0.693668	-0.313626	0.889581
O284	O	1.027001	0.019707	1.222914
O285	O	1.360335	0.353041	1.556248
C286	C	0.722114	-0.285204	0.806750
C287	C	1.055447	0.048130	1.140084
C288	C	1.388780	0.381463	1.473417
C289	C	0.755573	-0.251775	0.779462
C290	C	1.088906	0.081559	1.112795
C291	C	1.422240	0.414892	1.446128
C292	C	0.822491	-0.184906	0.779485
C293	C	1.155824	0.148427	1.112818
C294	C	1.489158	0.481761	1.446152
C295	C	0.822485	-0.184921	0.724884
C296	C	1.155818	0.148412	1.058218
C297	C	1.489152	0.481745	1.391551
C298	C	0.789023	-0.218363	0.697572
C299	C	1.122356	0.114970	1.030906
C300	C	1.455690	0.448303	1.364239
C301	C	0.755567	-0.251790	0.724861
C302	C	1.088900	0.081543	1.058194
C303	C	1.422234	0.414877	1.391528
C304	C	0.688646	-0.318644	0.779436
C305	C	1.021979	0.014689	1.112769
C306	C	1.355313	0.348022	1.446102
C307	C	0.688640	-0.318653	0.724828
C308	C	1.021973	0.014681	1.058162
C309	C	1.355306	0.348014	1.391495
C310	C	0.722099	-0.285223	0.697540
C311	C	1.055432	0.048110	1.030873
C312	C	1.388766	0.381443	1.364207
C313	C	0.722099	-0.285247	0.642949
C314	C	1.055433	0.048086	0.976282
C315	C	1.388766	0.381419	1.309615
N316	N	0.755552	-0.251817	0.615657
N317	N	1.088886	0.081517	0.948991
N318	N	1.422219	0.414850	1.282324
C319	C	0.789014	-0.218375	0.642969
C320	C	1.122348	0.114959	0.976302
C321	C	1.455681	0.448292	1.309636
C322	C	0.722143	-0.285165	0.976024
C323	C	1.055476	0.048168	1.309358
C324	C	1.388809	0.381502	1.642691
C325	C	0.722154	-0.285157	1.030627
C326	C	1.055487	0.048177	1.363960
C327	C	1.388820	0.381510	1.697293
C328	C	0.789072	-0.218282	1.030647
C329	C	1.122405	0.115051	1.363981
C330	C	1.455739	0.448385	1.697314
C331	C	0.789063	-0.218293	0.976044
C332	C	1.122397	0.115040	1.309377
C333	C	1.455730	0.448373	1.642711
C334	C	0.755596	-0.251735	0.948733
C335	C	1.088929	0.081599	1.282066
C336	C	1.422263	0.414932	1.615400
C337	C	0.789000	-0.218410	0.528304
C338	C	1.122333	0.114924	0.861637
C339	C	1.455666	0.448257	1.194971
C340	C	0.788992	-0.218429	0.473699
C341	C	1.122326	0.114904	0.807032
C342	C	1.455659	0.448237	1.140365
C343	C	0.722072	-0.285302	0.473683
C344	C	1.055406	0.048031	0.807016
C345	C	1.388739	0.381364	1.140349
C346	C	0.722081	-0.285285	0.528283
C347	C	1.055415	0.048049	0.861617
C348	C	1.388748	0.381382	1.194950
C349	C	0.755547	-0.251834	0.555593
C350	C	1.088880	0.081499	0.888926
C351	C	1.422214	0.414833	1.222259
O352	O	0.693668	-0.313686	0.614657
O353	O	1.027001	0.019648	0.947990
O354	O	1.360334	0.352981	1.281324
O355	O	0.817459	-0.189941	0.614735
O356	O	1.150792	0.143392	0.948068
O357	O	1.484126	0.476726	1.281402
H358	H	0.816079	-0.450821	0.312583
H359	H	1.149412	-0.117488	0.645916
H360	H	1.482745	0.215845	0.979249
N361	N	0.823177	-0.184236	0.556195
N362	N	1.156510	0.149098	0.889529
N363	N	1.489843	0.482431	1.222862
N364	N	0.819739	-0.135993	0.550101
N365	N	1.153073	0.197341	0.883435
N366	N	1.486406	0.530674	1.216768
H367	H	0.843878	-0.111858	0.569800
H368	H	1.177211	0.221475	0.903133
H369	H	1.510544	0.554808	1.236467
N370	N	0.856657	-0.150776	0.697004
N371	N	1.189990	0.182557	1.030338
N372	N	1.523324	0.515891	1.363671
N373	N	0.889961	-0.169172	0.666534
N374	N	1.223294	0.164161	0.999867
N375	N	1.556627	0.497494	1.333201
H376	H	0.914094	-0.145055	0.646845
H377	H	1.247428	0.188279	0.980178
H378	H	1.580761	0.521612	1.313512
N379	N	0.059719	-0.319392	0.184203
N380	N	0.393052	0.013942	0.517536
N381	N	0.726385	0.347275	0.850869
N382	N	0.090171	-0.352738	0.202531
N383	N	0.423505	-0.019405	0.535865
N384	N	0.756838	0.313928	0.869198
H385	H	0.109838	-0.376835	0.178365
H386	H	0.443172	-0.043501	0.511699
H387	H	0.776505	0.289832	0.845032
H388	H	0.816308	-0.191071	0.953829
H389	H	1.149641	0.142262	1.287162
H390	H	1.482974	0.475595	1.620496
N391	N	0.856499	-0.696269	0.353021
N392	N	1.189833	-0.362935	0.686354
N393	N	1.523166	-0.029602	1.019688
N394	N	0.856500	-0.647516	0.353001
N395	N	1.189833	-0.314183	0.686335
N396	N	1.523167	0.019150	1.019668
H397	H	0.880620	-0.627783	0.377124
H398	H	1.213954	-0.294450	0.710458
H399	H	1.547287	0.038883	1.043791
N400	N	0.856676	-0.150737	0.807370
N401	N	1.190009	0.182596	1.140703
N402	N	1.523342	0.515930	1.474036
N403	N	0.886540	-0.120896	0.782988
N404	N	1.219873	0.212437	1.116321
N405	N	1.553207	0.545771	1.449655
H406	H	0.910688	-0.096764	0.802678
H407	H	1.244021	0.236569	1.136011
H408	H	1.577354	0.569903	1.469344
N409	N	0.688047	-0.947705	0.184303
N410	N	1.021381	-0.614372	0.517637
N411	N	1.354714	-0.281038	0.850970
N412	N	0.654704	-0.917259	0.202661
N413	N	0.988037	-0.583926	0.535994
N414	N	1.321371	-0.250592	0.869327
H415	H	0.630587	-0.897602	0.178515
H416	H	0.963920	-0.564268	0.511849
H417	H	1.297254	-0.230935	0.845182
N418	N	0.823257	-0.184117	1.058544
N419	N	1.156590	0.149216	1.391877
N420	N	1.489924	0.482549	1.725210
N421	N	0.871500	-0.187584	1.052455
N422	N	1.204833	0.145749	1.385789
N423	N	1.538167	0.479083	1.719122
H424	H	0.895643	-0.163457	1.072158
H425	H	1.228976	0.169876	1.405491
H426	H	1.562309	0.503210	1.738824
H427	H	0.694830	-0.451006	0.191137
H428	H	1.028163	-0.117673	0.524470
H429	H	1.361497	0.215660	0.857804
H430	H	0.694913	-0.312384	1.052840
H431	H	1.028247	0.020950	1.386174
H432	H	1.361580	0.354283	1.719507
N433	N	0.687952	-0.319325	0.948130
N434	N	1.021285	0.014008	1.281463
N435	N	1.354618	0.347342	1.614796
N436	N	0.639710	-0.315854	0.954227
N437	N	0.973044	0.017480	1.287561
N438	N	1.306377	0.350813	1.620894
H439	H	0.615561	-0.339978	0.934529
H440	H	0.948895	-0.006645	1.267862
H441	H	1.282228	0.326689	1.601196
H442	H	0.457354	-0.312470	0.191110
H443	H	0.790687	0.020863	0.524443
H444	H	1.124021	0.354196	0.857777
N445	N	0.562209	-0.184397	0.319601
N446	N	0.895542	0.148937	0.652935
N447	N	1.228875	0.482270	0.986268
N448	N	0.610961	-0.184398	0.319596
N449	N	0.944294	0.148936	0.652929
N450	N	1.277628	0.482269	0.986262
H451	H	0.630684	-0.160308	0.343758
H452	H	0.964017	0.173025	0.677092
H453	H	1.297350	0.506359	1.010425
H454	H	0.054187	-0.191310	0.312708
H455	H	0.387521	0.142023	0.646041
H456	H	0.720854	0.475356	0.979374
H457	H	0.457483	-0.191305	0.312673
H458	H	0.790817	0.142028	0.646006
H459	H	1.124150	0.475362	0.979339
N460	N	0.311065	-0.151008	0.353125
N461	N	0.644399	0.182325	0.686458
N462	N	0.977732	0.515658	1.019791
N463	N	0.341537	-0.169446	0.386406
N464	N	0.674870	0.163887	0.719739
N465	N	1.008203	0.497220	1.053073
H466	H	0.361257	-0.145359	0.410573
H467	H	0.694591	0.187974	0.743906
H468	H	1.027924	0.521308	1.077239
N469	N	0.200692	-0.151012	0.353145
N470	N	0.534026	0.182321	0.686478
N471	N	0.867359	0.515654	1.019812
N472	N	0.170232	-0.169460	0.386435
N473	N	0.503565	0.163873	0.719768
N474	N	0.836898	0.497207	1.053101
H475	H	0.150568	-0.145380	0.410620
H476	H	0.483901	0.187954	0.743953
H477	H	0.817234	0.521287	1.077286
N478	N	0.856517	-0.806632	0.353069
N479	N	1.189851	-0.473299	0.686402
N480	N	1.523184	-0.139966	1.019735
N481	N	0.886338	-0.782194	0.382941
N482	N	1.219671	-0.448861	0.716275
N483	N	1.553005	-0.115527	1.049608
H484	H	0.910456	-0.801838	0.407096
H485	H	1.243790	-0.468505	0.740430
H486	H	1.577123	-0.135171	1.073763
H487	H	0.661400	-0.345866	0.801645
H488	H	0.994733	-0.012532	1.134978
H489	H	1.328066	0.320801	1.468311
N490	N	0.654446	-0.352813	0.696940
N491	N	0.987779	-0.019480	1.030273
N492	N	1.321113	0.313853	1.363607
N493	N	0.624576	-0.382654	0.721316
N494	N	0.957909	-0.049320	1.054649
N495	N	1.291243	0.284013	1.387982
H496	H	0.600427	-0.406780	0.701621
H497	H	0.933760	-0.073447	1.034954
H498	H	1.267093	0.259886	1.368288
H499	H	0.694841	-0.312510	0.550503
H500	H	1.028175	0.020823	0.883836
H501	H	1.361508	0.354157	1.217170
N502	N	-0.050534	-0.184401	0.319654
N503	N	0.282799	0.148932	0.652987
N504	N	0.616133	0.482266	0.986321
N505	N	-0.099286	-0.184411	0.319649
N506	N	0.234047	0.148923	0.652982
N507	N	0.567380	0.482256	0.986316
H508	H	-0.118970	-0.160330	0.343817
H509	H	0.214363	0.173004	0.677150
H510	H	0.547697	0.506337	1.010484
N511	N	0.200511	-0.352763	0.150667
N512	N	0.533844	-0.019430	0.484000
N513	N	0.867178	0.313903	0.817333
N514	N	0.224874	-0.382565	0.120757
N515	N	0.558208	-0.049231	0.454090
N516	N	0.891541	0.284102	0.787423
H517	H	0.205170	-0.406657	0.096582
H518	H	0.538503	-0.073324	0.429916
H519	H	0.871836	0.260009	0.763249
N520	N	-0.050642	-0.319395	0.184210
N521	N	0.282692	0.013939	0.517543
N522	N	0.616025	0.347272	0.850876
N523	N	-0.026282	-0.349202	0.154302
N524	N	0.307051	-0.015868	0.487635
N525	N	0.640385	0.317465	0.820969
H526	H	-0.045990	-0.373296	0.130132
H527	H	0.287343	-0.039963	0.463466
H528	H	0.620677	0.293370	0.796799
N529	N	0.310873	-0.352744	0.150653
N530	N	0.644206	-0.019410	0.483986
N531	N	0.977539	0.313923	0.817320
N532	N	0.304759	-0.349198	0.102416
N533	N	0.638092	-0.015865	0.435749
N534	N	0.971425	0.317468	0.769082
H535	H	0.324429	-0.373278	0.078236
H536	H	0.657762	-0.039945	0.411569
H537	H	0.991096	0.293388	0.744903
H538	H	0.556421	-0.312465	0.191103
H539	H	0.889755	0.020869	0.524437
H540	H	1.223088	0.354202	0.857770
H541	H	0.816254	-1.052233	0.312698
H542	H	1.149587	-0.718900	0.646031
H543	H	1.482921	-0.385567	0.979364
N544	N	0.823170	-0.184272	0.445834
N545	N	1.156503	0.149061	0.779167
N546	N	1.489837	0.482395	1.112500
N547	N	0.819732	-0.136026	0.451945
N548	N	1.153066	0.197308	0.785278
N549	N	1.486399	0.530641	1.118611
H550	H	0.843869	-0.111901	0.432267
H551	H	1.177202	0.221432	0.765601
H552	H	1.510536	0.554766	1.098934
N553	N	0.823031	-0.555513	0.319553
N554	N	1.156364	-0.222179	0.652886
N555	N	1.489698	0.111154	0.986219
N556	N	0.852854	-0.531076	0.349424
N557	N	1.186187	-0.197743	0.682758
N558	N	1.519521	0.135591	1.016091
H559	H	0.876971	-0.550721	0.373580
H560	H	1.210304	-0.217388	0.706913
H561	H	1.543637	0.115945	1.040247
N562	N	0.823155	-0.947506	0.319618
N563	N	1.156488	-0.614172	0.652951
N564	N	1.489822	-0.280839	0.986284
N565	N	0.852994	-0.971848	0.349498
N566	N	1.186327	-0.638515	0.682832
N567	N	1.519661	-0.305181	1.016165
H568	H	0.877101	-0.952126	0.373643
H569	H	1.210434	-0.618793	0.706977
H570	H	1.543768	-0.285459	1.040310
H571	H	0.694830	-0.312531	0.451436
H572	H	1.028163	0.020802	0.784769
H573	H	1.361497	0.354135	1.118102
N574	N	0.688091	-1.058072	0.184303
N575	N	1.021424	-0.724739	0.517636
N576	N	1.354758	-0.391405	0.850970
N577	N	0.658257	-1.033730	0.154418
N578	N	0.991591	-0.700397	0.487751
N579	N	1.324924	-0.367063	0.821084
H580	H	0.634156	-1.053452	0.130266
H581	H	0.967490	-0.720118	0.463600
H582	H	1.300823	-0.386785	0.796933
H583	H	0.661471	-0.702227	0.157734
H584	H	0.994805	-0.368894	0.491067
H585	H	1.328138	-0.035561	0.824401
N586	N	0.654578	-0.806943	0.150811
N587	N	0.987911	-0.473610	0.484145
N588	N	1.321245	-0.140277	0.817478
N589	N	0.658065	-0.800867	0.102568
N590	N	0.991398	-0.467534	0.435901
N591	N	1.324732	-0.134201	0.769235
H592	H	0.633955	-0.820589	0.078425
H593	H	0.967289	-0.487255	0.411758
H594	H	1.300622	-0.153922	0.745092
N595	N	0.687951	-0.555736	0.184198
N596	N	1.021284	-0.222402	0.517532
N597	N	1.354617	0.110931	0.850865
N598	N	0.658126	-0.531397	0.154301
N599	N	0.991459	-0.198064	0.487634
N600	N	1.324793	0.135269	0.820968
H601	H	0.634040	-0.551122	0.130137
H602	H	0.967373	-0.217789	0.463471
H603	H	1.300707	0.115544	0.796804
