data_functionalizedCrystal
_audit_creation_method	'MofGen! by Chris Wilmer'
_symmetry_space_group_name_H-M	'P1'
_symmetry_Int_Tables_number	1
_symmetry_cell_setting	triclinic
loop_
_symmetry_equiv_pos_as_xyz
  x,y,z
_cell_length_a	19.188930
_cell_length_b	19.188930
_cell_length_c	9.016244
_cell_angle_alpha	89.992636
_cell_angle_beta	89.978791
_cell_angle_gamma	83.144779
loop_
_atom_site_label
_atom_site_type_symbol
_atom_site_fract_x
_atom_site_fract_y
_atom_site_fract_z
O1	O	0.926148	0.087165	-0.123834
O2	O	1.259481	0.420498	0.209500
O3	O	1.592815	0.753831	0.542833
O4	O	0.722837	0.098899	-0.123734
O5	O	1.056170	0.432232	0.209599
O6	O	1.389503	0.765566	0.542933
O7	O	0.830360	-0.008624	-0.123758
O8	O	1.163693	0.324710	0.209576
O9	O	1.497026	0.658043	0.542909
O10	O	0.818625	0.194687	-0.123810
O11	O	1.151959	0.528021	0.209523
O12	O	1.485292	0.861354	0.542857
O13	O	0.830344	-0.008621	0.122923
O14	O	1.163677	0.324712	0.456256
O15	O	1.497011	0.658045	0.789590
O16	O	0.722821	0.098901	0.122947
O17	O	1.056154	0.432235	0.456280
O18	O	1.389488	0.765568	0.789613
O19	O	0.926132	0.087167	0.122847
O20	O	1.259466	0.420501	0.456180
O21	O	1.592799	0.753834	0.789514
Cu22	Cu	0.824475	0.093035	0.145421
Cu23	Cu	1.157809	0.426368	0.478754
Cu24	Cu	1.491142	0.759701	0.812087
Cu25	Cu	0.824494	0.093032	-0.146308
Cu26	Cu	1.157827	0.426365	0.187026
Cu27	Cu	1.491160	0.759698	0.520359
O28	O	0.818610	0.194690	0.122871
O29	O	1.151943	0.528023	0.456204
O30	O	1.485276	0.861357	0.789537
C31	C	0.696818	0.098520	-0.000381
C32	C	1.030151	0.431854	0.332953
C33	C	1.363485	0.765187	0.666286
C34	C	0.619313	0.097380	-0.000341
C35	C	0.952647	0.430713	0.332992
C36	C	1.285980	0.764046	0.666325
C37	C	0.829972	-0.034634	-0.000413
C38	C	1.163305	0.298700	0.332920
C39	C	1.496638	0.632033	0.666254
C40	C	0.828831	-0.112138	-0.000400
C41	C	1.162164	0.221195	0.332934
C42	C	1.495498	0.554529	0.666267
C43	C	0.574389	0.160470	-0.000381
C44	C	0.907723	0.493804	0.332952
C45	C	1.241056	0.827137	0.666286
C46	C	0.501566	0.159399	-0.000397
C47	C	0.834899	0.492732	0.332936
C48	C	1.168232	0.826065	0.666270
C49	C	0.473669	0.095233	-0.000403
C50	C	0.807002	0.428566	0.332930
C51	C	1.140336	0.761899	0.666263
C52	C	0.518603	0.032133	-0.000355
C53	C	0.851936	0.365467	0.332978
C54	C	1.185270	0.698800	0.666311
C55	C	0.591425	0.033207	-0.000325
C56	C	0.924758	0.366540	0.333009
C57	C	1.258092	0.699874	0.666342
N58	N	0.365694	0.046185	-0.084407
N59	N	0.699028	0.379518	0.248927
N60	N	1.032361	0.712851	0.582260
N61	N	0.296516	0.045169	-0.084439
N62	N	0.629849	0.378503	0.248894
N63	N	0.963182	0.711836	0.582228
C64	C	0.254260	0.091994	-0.000493
C65	C	0.587594	0.425328	0.332840
C66	C	0.920927	0.758661	0.666174
N67	N	0.283796	0.139884	0.083468
N68	N	0.617129	0.473217	0.416801
N69	N	0.950462	0.806551	0.750135
N70	N	0.352981	0.140902	0.083494
N71	N	0.686314	0.474235	0.416827
N72	N	1.019647	0.807568	0.750161
C73	C	0.394707	0.094062	-0.000436
C74	C	0.728040	0.427395	0.332898
C75	C	1.061373	0.760728	0.666231
C76	C	0.130372	0.153928	-0.000548
C77	C	0.463705	0.487261	0.332785
C78	C	0.797039	0.820594	0.666119
C79	C	0.057547	0.152853	-0.000555
C80	C	0.390881	0.486187	0.332779
C81	C	0.724214	0.819520	0.666112
C82	C	0.074586	0.025586	-0.000528
C83	C	0.407919	0.358920	0.332805
C84	C	0.741253	0.692253	0.666139
C85	C	0.147409	0.026662	-0.000506
C86	C	0.480743	0.359996	0.332827
C87	C	0.814076	0.693329	0.666160
C88	C	0.175298	0.090835	-0.000523
C89	C	0.508631	0.424168	0.332810
C90	C	0.841964	0.757502	0.666143
C91	C	0.891922	-0.157062	-0.000423
C92	C	1.225255	0.176271	0.332910
C93	C	1.558589	0.509605	0.666243
C94	C	0.890850	-0.229886	-0.000447
C95	C	1.224184	0.103448	0.332887
C96	C	1.557517	0.436781	0.666220
C97	C	0.826684	-0.257782	-0.000416
C98	C	1.160017	0.075551	0.332917
C99	C	1.493351	0.408884	0.666250
C100	C	0.763585	-0.212849	-0.000401
C101	C	1.096918	0.120485	0.332932
C102	C	1.430252	0.453818	0.666266
C103	C	0.764658	-0.140026	-0.000393
C104	C	1.097992	0.193307	0.332941
C105	C	1.431325	0.526640	0.666274
N106	N	0.777631	-0.365787	0.083558
N107	N	1.110965	-0.032453	0.416891
N108	N	1.444298	0.300880	0.750224
N109	N	0.776616	-0.434965	0.083553
N110	N	1.109949	-0.101632	0.416886
N111	N	1.443283	0.231702	0.750220
C112	C	0.823446	-0.477191	-0.000445
C113	C	1.156779	-0.143858	0.332889
C114	C	1.490113	0.189476	0.666222
N115	N	0.871340	-0.447626	-0.084419
N116	N	1.204674	-0.114293	0.248914
N117	N	1.538007	0.219040	0.582248
N118	N	0.872358	-0.378442	-0.084408
N119	N	1.205691	-0.045108	0.248926
N120	N	1.539025	0.288225	0.582259
C121	C	0.825513	-0.336745	-0.000426
C122	C	1.158846	-0.003412	0.332907
C123	C	1.492180	0.329922	0.666240
C124	C	0.885379	-0.601079	-0.000496
C125	C	1.218712	-0.267746	0.332837
C126	C	1.552046	0.065587	0.666171
C127	C	0.884305	-0.673904	-0.000528
C128	C	1.217638	-0.340571	0.332805
C129	C	1.550971	-0.007238	0.666138
C130	C	0.757038	-0.656865	-0.000468
C131	C	1.090371	-0.323532	0.332866
C132	C	1.423704	0.009801	0.666199
C133	C	0.758114	-0.584042	-0.000450
C134	C	1.091447	-0.250709	0.332883
C135	C	1.424781	0.082624	0.666217
C136	C	0.822286	-0.556154	-0.000457
C137	C	1.155620	-0.222821	0.332876
C138	C	1.488953	0.110513	0.666210
C139	C	0.952151	0.087546	-0.000510
C140	C	1.285485	0.420879	0.332824
C141	C	1.618818	0.754213	0.666157
C142	C	1.029656	0.088687	-0.000559
C143	C	1.362989	0.422020	0.332775
C144	C	1.696322	0.755353	0.666108
C145	C	0.818997	0.220700	-0.000477
C146	C	1.152331	0.554033	0.332856
C147	C	1.485664	0.887366	0.666189
C148	C	0.820138	0.298204	-0.000500
C149	C	1.153471	0.631538	0.332833
C150	C	1.486805	0.964871	0.666166
N151	N	0.824467	0.093036	0.350607
N152	N	1.157801	0.426370	0.683940
N153	N	1.491134	0.759703	1.017274
N154	N	0.824507	0.093024	-0.351494
N155	N	1.157841	0.426358	-0.018161
N156	N	1.491174	0.759691	0.315173
C157	C	0.766778	0.150365	0.585652
C158	C	1.100111	0.483699	0.918986
C159	C	1.433444	0.817032	1.252319
C160	C	0.766901	0.150576	0.413761
C161	C	1.100235	0.483909	0.747094
C162	C	1.433568	0.817243	1.080428
C163	C	0.897272	0.108727	0.412904
C164	C	1.230605	0.442060	0.746237
C165	C	1.563939	0.775393	1.079571
C166	C	0.896956	0.109132	0.584849
C167	C	1.230289	0.442465	0.918182
C168	C	1.563623	0.775798	1.251516
C169	C	0.810080	0.019822	0.585179
C170	C	1.143413	0.353156	0.918512
C171	C	1.476746	0.686489	1.251845
C172	C	0.808399	0.020318	0.413225
C173	C	1.141732	0.353652	0.746559
C174	C	1.475065	0.686985	1.079892
H175	H	0.597091	0.212725	-0.000398
H176	H	0.930424	0.546058	0.332936
H177	H	1.263758	0.879391	0.666269
H178	H	0.754844	0.008406	0.372514
H179	H	1.088178	0.341739	0.705847
H180	H	1.421511	0.675072	1.039180
H181	H	0.776087	0.204904	0.372594
H182	H	1.109421	0.538237	0.705928
H183	H	1.442754	0.871570	1.039261
F184	F	0.690963	-0.536229	-0.000419
F185	F	1.024296	-0.202895	0.332915
F186	F	1.357630	0.130438	0.666248
H187	H	0.704792	-0.679578	-0.000450
H188	H	1.038126	-0.346245	0.332883
H189	H	1.371459	-0.012911	0.666216
H190	H	0.464982	0.210776	-0.000425
H191	H	0.798315	0.544110	0.332908
H192	H	1.131648	0.877443	0.666242
F193	F	0.639238	-0.033946	-0.000282
F194	F	0.972572	0.299387	0.333051
F195	F	1.305905	0.632721	0.666384
H196	H	0.909703	0.162511	0.624916
H197	H	1.243037	0.495844	0.958250
H198	H	1.576370	0.829177	1.291583
F199	F	0.488912	-0.036157	-0.000355
F200	F	0.822246	0.297177	0.332978
F201	F	1.155579	0.630510	0.666311
H202	H	0.153080	0.206181	-0.000540
H203	H	0.486413	0.539514	0.332793
H204	H	0.819746	0.872847	0.666127
F205	F	0.009735	0.220007	-0.000589
F206	F	0.343068	0.553340	0.332744
F207	F	0.676402	0.886674	0.666078
H208	H	0.935683	-0.710481	-0.000556
H209	H	1.269017	-0.377148	0.332778
H210	H	1.602350	-0.043815	0.666111
H211	H	0.941244	0.069002	0.626421
H212	H	1.274577	0.402336	0.959754
H213	H	1.607910	0.735669	1.293087
F214	F	0.044901	-0.042705	-0.000520
F215	F	0.378235	0.290629	0.332813
F216	F	0.711568	0.623962	0.666146
H217	H	0.944176	-0.134360	-0.000434
H218	H	1.277509	0.198973	0.332899
H219	H	1.610843	0.532306	0.666232
F220	F	0.695295	-0.242539	-0.000378
F221	F	1.028628	0.090794	0.332955
F222	F	1.361962	0.424128	0.666288
H223	H	0.937632	-0.578372	-0.000508
H224	H	1.270966	-0.245038	0.332825
H225	H	1.604299	0.088295	0.666158
H226	H	0.183988	-0.024713	-0.000482
H227	H	0.517321	0.308620	0.332851
H228	H	0.850654	0.641954	0.666184
F229	F	0.697505	-0.092213	-0.000368
F230	F	1.030839	0.241120	0.332965
F231	F	1.364172	0.574454	0.666299
H232	H	0.712777	0.141260	0.371647
H233	H	1.046111	0.474593	0.704980
H234	H	1.379444	0.807927	1.038314
H235	H	0.712482	0.141205	0.627076
H236	H	1.045815	0.474538	0.960409
H237	H	1.379149	0.807871	1.293742
F238	F	0.865109	-0.035949	0.638302
F239	F	1.198442	0.297384	0.971635
F240	F	1.531775	0.630718	1.304968
F241	F	0.914337	0.177701	0.356572
F242	F	1.247670	0.511034	0.689906
F243	F	1.581003	0.844368	1.023239
F244	F	0.778628	0.220978	0.642057
F245	F	1.111961	0.554311	0.975390
F246	F	1.445294	0.887644	1.308724
F247	F	0.958003	-0.277706	-0.000474
F248	F	1.291336	0.055627	0.332859
F249	F	1.624669	0.388961	0.666192
H250	H	0.941243	0.068066	0.371989
H251	H	1.274577	0.401399	0.705322
H252	H	1.607910	0.734732	1.038656
F253	F	0.742205	0.000039	0.641965
F254	F	1.075538	0.333372	0.975298
F255	F	1.408871	0.666706	1.308631
H256	H	0.847728	-0.024333	0.370242
H257	H	1.181062	0.309000	0.703575
H258	H	1.514395	0.642334	1.036909
