data_functionalizedCrystal
_audit_creation_method	'MofGen! by Chris Wilmer'
_symmetry_space_group_name_H-M	'P1'
_symmetry_Int_Tables_number	1
_symmetry_cell_setting	triclinic
loop_
_symmetry_equiv_pos_as_xyz
  x,y,z
_cell_length_a	19.188930
_cell_length_b	19.188940
_cell_length_c	18.266242
_cell_angle_alpha	89.994424
_cell_angle_beta	90.022820
_cell_angle_gamma	96.853253
loop_
_atom_site_label
_atom_site_type_symbol
_atom_site_fract_x
_atom_site_fract_y
_atom_site_fract_z
O1	O	0.926152	-0.087167	0.061117
O2	O	0.722841	-0.098901	0.061067
O3	O	0.830361	0.008621	0.061088
O4	O	0.818633	-0.194689	0.061096
O5	O	0.830342	0.008624	-0.060674
O6	O	0.722823	-0.098898	-0.060695
O7	O	0.926134	-0.087164	-0.060645
Zn8	Zn	0.824476	-0.093031	-0.080002
Zn9	Zn	0.824500	-0.093035	0.080424
O10	O	0.818615	-0.194686	-0.060666
C11	C	0.696821	-0.098520	0.000179
C12	C	0.619317	-0.097379	0.000160
C13	C	0.829970	0.034633	0.000207
C14	C	0.828827	0.112138	0.000207
C15	C	0.819005	-0.220699	0.000217
C16	C	0.820148	-0.298203	0.000221
C17	C	0.574395	-0.160470	0.000174
C18	C	0.501571	-0.159398	0.000182
C19	C	0.473672	-0.095232	0.000191
C20	C	0.518604	-0.032133	0.000173
C21	C	0.591426	-0.033207	0.000157
N22	N	0.365697	-0.046186	0.041659
N23	N	0.296518	-0.045171	0.041675
C24	C	0.254264	-0.091994	0.000236
N25	N	0.283800	-0.139882	-0.041212
N26	N	0.352985	-0.140899	-0.041225
C27	C	0.394710	-0.094061	0.000207
C28	C	0.130377	-0.153927	0.000257
C29	C	0.057553	-0.152853	0.000261
C30	C	0.074587	-0.025586	0.000259
C31	C	0.147410	-0.026662	0.000248
C32	C	0.175301	-0.090835	0.000251
C33	C	0.952154	-0.087546	0.000244
C34	C	1.029659	-0.088686	0.000268
C35	C	0.820683	0.665399	-0.066150
C36	C	0.821749	0.592574	-0.066154
C37	C	0.822296	0.556153	0.000218
C38	C	0.821758	0.592560	0.066598
C39	C	0.820684	0.665382	0.066600
N40	N	0.863720	0.447128	0.049630
N41	N	0.864741	0.377950	0.049623
C42	C	0.825530	0.336744	0.000216
N43	N	0.785267	0.367330	-0.049196
N44	N	0.784248	0.436514	-0.049192
C45	C	0.823460	0.477189	0.000223
C46	C	0.827219	0.221380	-0.066164
C47	C	0.828282	0.148554	-0.066166
C48	C	0.828297	0.148542	0.066589
C49	C	0.827228	0.221366	0.066588
C50	C	0.826692	0.257781	0.000209
N51	N	0.824464	-0.093028	-0.189489
C52	C	0.866675	-0.135273	-0.227779
C53	C	0.866687	-0.135271	-0.304424
C54	C	0.824475	-0.093032	-0.342776
C55	C	0.782261	-0.050778	-0.304477
C56	C	0.782256	-0.050776	-0.227834
N57	N	0.763327	-0.091312	-0.463144
N58	N	0.763333	-0.091318	-0.535952
C59	C	0.824488	-0.093034	-0.573699
N60	N	0.885637	-0.094758	-0.535887
N61	N	0.885630	-0.094756	-0.463072
C62	C	0.824476	-0.093029	-0.425883
C63	C	0.866715	-0.135280	-0.695096
C64	C	0.866728	-0.135273	-0.771742
C65	C	0.782297	-0.050784	-0.771793
C66	C	0.782290	-0.050787	-0.695149
C67	C	0.824498	-0.093038	-0.656804
N68	N	0.824517	-0.093032	0.189911
H69	H	0.597098	-0.212724	0.000178
O70	O	0.822287	0.557317	-0.130696
C71	C	0.821557	0.605070	-0.189282
H72	H	0.842901	0.659936	-0.169823
H73	H	0.855742	0.588562	-0.235698
H74	H	0.765437	0.605327	-0.209698
O75	O	0.741170	-0.009837	-0.657988
C76	C	0.670251	-0.029353	-0.676771
H77	H	0.663336	-0.085677	-0.697833
H78	H	0.635906	-0.025369	-0.626390
H79	H	0.654163	0.007206	-0.721277
H80	H	0.826777	0.251030	-0.120214
O81	O	0.741311	-0.009816	-0.809153
C82	C	0.750338	-0.018904	-0.885012
H83	H	0.770050	-0.071755	-0.895447
H84	H	0.698007	-0.017266	-0.914143
H85	H	0.790255	0.024960	-0.906788
O86	O	0.013813	-0.214078	0.000245
C87	C	-0.056443	-0.199373	0.000274
H88	H	-0.059084	-0.144544	-0.022787
H89	H	-0.089578	-0.239607	-0.035063
H90	H	-0.077479	-0.202076	0.058694
O91	O	0.458023	-0.220751	0.000235
C92	C	0.498256	-0.277620	0.000215
H93	H	0.552679	-0.259732	0.023248
H94	H	0.471280	-0.321807	0.035581
H95	H	0.503343	-0.297308	-0.058199
O96	O	0.491473	0.030180	0.000313
C97	C	0.449883	0.034599	0.063376
H98	H	0.467024	-0.001833	0.107448
H99	H	0.456601	0.090889	0.084542
H100	H	0.392396	0.018318	0.049133
O101	O	0.634968	0.028147	0.000181
C102	C	0.594732	0.085014	0.000168
H103	H	0.540337	0.067126	0.023228
H104	H	0.621748	0.129205	0.035515
H105	H	0.589577	0.104695	-0.058247
O106	O	0.828686	0.113208	0.131097
C107	C	0.767973	0.122957	0.171435
H108	H	0.725435	0.137313	0.132560
H109	H	0.748370	0.072367	0.201561
H110	H	0.781019	0.167074	0.212803
H111	H	0.051873	0.026659	0.000311
H112	H	0.901106	-0.169672	-0.802916
H113	H	0.153087	-0.206180	0.000249
H114	H	0.820246	0.695043	-0.120201
O115	O	0.190952	0.034689	0.000275
C116	C	0.150715	0.091555	0.000265
H117	H	0.096321	0.073666	0.023328
H118	H	0.177732	0.135747	0.035611
H119	H	0.145557	0.111236	-0.058149
H120	H	0.828715	0.118919	-0.120216
H121	H	0.822200	0.562901	0.120638
O122	O	0.826595	0.256741	0.131045
C123	C	0.765530	0.290790	0.134998
H124	H	0.723592	0.263196	0.097321
H125	H	0.745235	0.288892	0.193698
H126	H	0.778383	0.347812	0.117173
O127	O	0.741183	-0.009722	-0.190749
C128	C	0.703942	0.027578	-0.241030
H129	H	0.699783	-0.001333	-0.295664
H130	H	0.649053	0.031774	-0.218914
H131	H	0.732874	0.082455	-0.249170
H132	H	0.820248	0.695017	0.120650
H133	H	0.901047	-0.169675	-0.196564
H134	H	0.901060	-0.169674	-0.335606
H135	H	0.747893	-0.016386	-0.335708
H136	H	0.901084	-0.169683	-0.663874
