data_functionalizedCrystal
_audit_creation_method	'MofGen! by Chris Wilmer'
_symmetry_space_group_name_H-M	'P1'
_symmetry_Int_Tables_number	1
_symmetry_cell_setting	triclinic
loop_
_symmetry_equiv_pos_as_xyz
  x,y,z
_cell_length_a	11.169417
_cell_length_b	16.625539
_cell_length_c	11.169416
_cell_angle_alpha	89.977153
_cell_angle_beta	90.011219
_cell_angle_gamma	89.982760
loop_
_atom_site_label
_atom_site_type_symbol
_atom_site_fract_x
_atom_site_fract_y
_atom_site_fract_z
Zn1	Zn	1.834932	-0.455868	-0.477777
Zn2	Zn	1.834830	-0.321048	-0.678489
Zn3	Zn	1.634227	-0.321057	-0.477822
Zn4	Zn	1.634225	-0.455846	-0.678420
O5	O	1.734553	-0.388455	-0.578127
O6	O	2.002868	-0.437990	-0.504412
O7	O	1.808178	-0.208217	-0.651918
O8	O	1.660894	-0.338953	-0.309866
O9	O	2.002793	-0.338938	-0.651875
O10	O	1.808351	-0.437998	-0.309833
O11	O	1.660795	-0.208223	-0.504489
O12	O	1.466277	-0.338931	-0.504421
O13	O	1.660891	-0.568682	-0.651756
O14	O	1.466276	-0.437960	-0.651800
O15	O	1.808349	-0.568698	-0.504345
O16	O	1.808176	-0.338917	-0.846430
O17	O	1.660793	-0.437952	-0.846379
C18	C	1.422729	-0.388445	-0.578109
C19	C	1.289329	-0.388459	-0.578130
C20	C	1.734631	-0.598764	-0.578038
C21	C	1.734665	-0.688385	-0.577999
C22	C	1.734720	-1.016561	-0.577865
C23	C	1.734701	-0.925252	-0.577906
C24	C	1.734693	-0.852476	-0.577933
C25	C	1.734673	-0.761162	-0.577973
C26	C	2.047596	-0.388466	-0.578146
C27	C	2.180996	-0.388470	-0.578154
C28	C	1.734506	-0.388449	-0.889952
C29	C	1.734595	-0.388473	-1.023352
C30	C	1.734545	-0.178964	-0.578129
C31	C	1.734744	-0.089343	-0.577829
C32	C	1.734634	-0.388479	-0.265085
C33	C	1.734668	-0.388489	-0.131685
