data_functionalizedCrystal
_audit_creation_method	'MofGen! by Chris Wilmer'
_symmetry_space_group_name_H-M	'P1'
_symmetry_Int_Tables_number	1
_symmetry_cell_setting	triclinic
loop_
_symmetry_equiv_pos_as_xyz
  x,y,z
_cell_length_a	15.944551
_cell_length_b	14.853567
_cell_length_c	13.930277
_cell_angle_alpha	89.995623
_cell_angle_beta	90.003362
_cell_angle_gamma	96.433166
loop_
_atom_site_label
_atom_site_type_symbol
_atom_site_fract_x
_atom_site_fract_y
_atom_site_fract_z
O1	O	0.109662	-1.196228	0.079767
O2	O	0.122726	-0.933752	0.079783
O3	O	-0.006073	-1.072158	0.079766
O4	O	0.238460	-1.057822	0.079784
O5	O	-0.006071	-1.072137	-0.079896
O6	O	0.122728	-0.933732	-0.079878
O7	O	0.109664	-1.196208	-0.079895
Zn8	Zn	0.116197	-1.064967	-0.105236
Zn9	Zn	0.116193	-1.064993	0.105125
O10	O	0.238463	-1.057802	-0.079878
C11	C	0.122135	-0.900154	-0.000045
C12	C	0.120361	-0.800072	-0.000039
C13	C	-0.037367	-1.071552	-0.000065
C14	C	-0.130615	-1.069768	-0.000065
C15	C	0.110255	-1.229806	-0.000064
C16	C	0.112029	-1.329887	-0.000064
C17	C	-0.345572	-0.979713	-0.000047
C18	C	-0.406541	-1.021522	-0.078772
C19	C	-0.301344	-1.066541	-0.000058
C20	C	-0.406527	-1.021562	0.078642
C21	C	-0.466260	-1.063416	-0.000046
C22	C	-0.361085	-1.108373	-0.078848
C23	C	-0.361065	-1.108401	0.078636
C24	C	-0.422017	-1.150273	-0.000109
C25	C	-0.206340	-1.068338	-0.000065
C26	C	-0.561263	-1.061626	-0.000046
C27	C	0.269756	-1.058407	-0.000044
C28	C	0.363004	-1.060191	-0.000038
N29	N	0.116198	-1.064955	-0.248803
C30	C	0.036354	-0.387646	-0.000067
C31	C	0.189369	-0.366169	-0.000055
C32	C	0.191037	-0.460201	-0.000051
C33	C	0.115362	-0.517960	-0.000055
C34	C	0.038019	-0.481687	-0.000061
C35	C	0.268379	-0.496480	-0.000035
C36	C	0.270050	-0.590517	-0.000031
C37	C	0.194374	-0.648278	-0.000041
C38	C	0.117028	-0.612000	-0.000049
C39	C	0.041353	-0.669759	-0.000052
C40	C	-0.035994	-0.633483	-0.000066
C41	C	-0.037657	-0.539448	-0.000071
C42	C	0.196036	-0.742313	-0.000036
C43	C	0.043018	-0.763800	-0.000046
C44	C	0.065160	-1.010280	-0.299066
C45	C	0.167232	-1.119641	-0.299044
C46	C	0.167232	-1.119652	-0.399540
C47	C	0.116194	-1.064978	-0.449803
C48	C	0.065156	-1.010292	-0.399571
C49	C	0.218262	-1.174344	-0.449780
C50	C	0.218263	-1.174358	-0.550282
C51	C	0.167228	-1.119678	-0.600547
C52	C	0.116190	-1.064989	-0.550308
C53	C	0.065151	-1.010315	-0.600572
C54	C	0.014116	-0.955620	-0.550335
C55	C	0.014122	-0.955612	-0.449836
C56	C	0.167223	-1.119687	-0.701046
C57	C	0.065147	-1.010326	-0.701077
N58	N	0.116185	-1.065012	0.248691
H59	H	-0.312344	-0.907643	-0.000121
N60	N	-0.433224	-0.972878	-0.166936
H61	H	-0.405133	-0.908461	-0.166878
H62	H	-0.496538	-0.972616	-0.166559
H63	H	-0.341053	-1.145058	-0.145478
N64	N	-0.117617	-0.695779	-0.000068
H65	H	-0.120335	-0.735271	0.059123
H66	H	-0.120281	-0.735216	-0.059289
N67	N	-0.433187	-0.972909	0.166800
H68	H	-0.415837	-1.005059	0.226257
H69	H	-0.496493	-0.972582	0.166389
H70	H	-0.455095	-1.222407	-0.000158
N71	N	0.270987	-0.303878	-0.000041
H72	H	0.258196	-0.238802	-0.000043
H73	H	0.304689	-0.315619	-0.059227
N74	N	-0.047068	-0.348528	-0.000095
H75	H	-0.036645	-0.280193	-0.000104
H76	H	-0.080192	-0.369653	0.059089
H77	H	0.333030	-0.620045	-0.000019
N78	N	-0.040932	-0.896640	-0.395653
H79	H	-0.004441	-0.852516	-0.353953
H80	H	-0.081967	-0.935961	-0.354014
H81	H	-0.340895	-1.145102	0.145191
N82	N	-0.038604	-0.826095	-0.000060
H83	H	-0.087851	-0.788843	-0.000072
H84	H	-0.041253	-0.865580	0.059131
H85	H	-0.100629	-0.509903	-0.000105
H86	H	0.329989	-0.449447	-0.000023
N87	N	0.279453	-0.781434	-0.000020
H88	H	0.283561	-0.819967	-0.059205
H89	H	0.283500	-0.819928	0.059208
N90	N	0.010096	-0.951357	-0.755287
H91	H	-0.022232	-0.916712	-0.708211
H92	H	-0.030904	-0.990671	-0.796971
H93	H	0.208780	-1.164160	-0.258114
N94	N	-0.040936	-0.896660	-0.604557
H95	H	-0.004440	-0.852548	-0.646268
H96	H	-0.073258	-0.862069	-0.557429
N97	N	0.010113	-0.951295	-0.244891
H98	H	0.017856	-0.959582	-0.173598
H99	H	-0.050947	-0.969114	-0.262460
H100	H	0.259808	-1.218863	-0.408848
H101	H	0.259819	-1.218893	-0.591176
H102	H	0.208772	-1.164221	-0.741944
