data_functionalizedCrystal
_audit_creation_method	'MofGen! by Chris Wilmer'
_symmetry_space_group_name_H-M	'P1'
_symmetry_Int_Tables_number	1
_symmetry_cell_setting	triclinic
loop_
_symmetry_equiv_pos_as_xyz
  x,y,z
_cell_length_a	15.538191
_cell_length_b	14.519709
_cell_length_c	14.185569
_cell_angle_alpha	76.819419
_cell_angle_beta	97.875798
_cell_angle_gamma	65.476119
loop_
_atom_site_label
_atom_site_type_symbol
_atom_site_fract_x
_atom_site_fract_y
_atom_site_fract_z
O1	O	1.228085	-0.271310	-0.083424
O2	O	0.954005	-0.164884	-0.083426
O3	O	1.098314	-0.354783	-0.083416
O4	O	1.083776	-0.081411	-0.083434
O5	O	1.140944	-0.410876	0.083422
O6	O	0.996635	-0.220977	0.083412
O7	O	1.270715	-0.327403	0.083414
Cu8	Cu	1.137568	-0.279312	0.098646
Cu9	Cu	1.087153	-0.212975	-0.098658
O10	O	1.126406	-0.137505	0.083404
C11	C	0.940243	-0.181796	-0.000007
C12	C	0.835725	-0.148628	-0.000007
C13	C	1.118952	-0.416961	0.000003
C14	C	1.116922	-0.518660	0.000004
C15	C	0.547381	-0.478139	-0.000001
C16	C	0.449167	-0.446949	-0.000004
C17	C	0.427017	-0.271514	-0.000015
C18	C	0.525232	-0.302691	-0.000008
C19	C	0.585407	-0.406004	-0.000002
C20	C	0.563258	-0.230557	-0.000008
C21	C	0.661463	-0.261730	-0.000006
C22	C	0.721643	-0.365037	-0.000003
C23	C	0.683612	-0.437177	0.000001
C24	C	0.503080	-0.127242	-0.000021
C25	C	0.541106	-0.055107	-0.000022
C26	C	0.639314	-0.086282	-0.000012
C27	C	0.699494	-0.189590	-0.000009
C28	C	0.677345	-0.014142	-0.000016
C29	C	0.775551	-0.045315	-0.000013
C30	C	0.797700	-0.220763	-0.000007
C31	C	1.109444	-0.891034	-0.000022
C32	C	1.111520	-0.787426	-0.000015
C33	C	1.113183	-0.704851	-0.000008
C34	C	1.115260	-0.601236	-0.000003
C35	C	1.284476	-0.310491	-0.000007
C36	C	1.388993	-0.343656	-0.000014
C37	C	1.105768	-0.075325	-0.000017
C38	C	1.107796	0.026376	-0.000025
N39	N	1.173034	-0.325973	0.237420
N40	N	1.051694	-0.166324	-0.237432
C41	C	0.947494	-0.029276	0.605054
C42	C	0.974366	-0.064616	0.710078
C43	C	1.102177	-0.232734	0.710047
C44	C	1.075313	-0.197409	0.605022
C45	C	0.997972	-0.095679	0.552534
C46	C	1.125791	-0.263812	0.552501
C47	C	1.098932	-0.228488	0.447485
C48	C	1.021596	-0.126760	0.394989
C49	C	0.971113	-0.060354	0.447517
C50	C	1.203137	-0.365540	0.604991
C51	C	1.253615	-0.431943	0.552471
C52	C	1.226752	-0.396622	0.447452
C53	C	1.149415	-0.294894	0.394957
C54	C	1.277234	-0.463027	0.394924
C55	C	1.250375	-0.427703	0.289908
C56	C	1.122556	-0.259569	0.289940
H57	H	0.801605	-0.390412	-0.000014
H58	H	0.732612	-0.521307	0.000012
H59	H	0.999731	-0.097999	0.309478
H60	H	0.492097	0.029012	-0.000031
H61	H	0.596381	-0.562268	0.000010
H62	H	1.340213	-0.545854	0.437674
C63	C	0.611862	0.097960	0.000022
C64	C	0.517723	0.109814	0.000038
C65	C	0.457379	0.213064	0.000086
H66	H	0.608426	0.148557	-0.058142
H67	H	0.638216	0.109353	0.058226
H68	H	0.491375	0.098432	-0.058159
H69	H	0.521128	0.059241	0.058198
H70	H	0.483732	0.224458	0.058289
H71	H	0.453951	0.263653	-0.058079
H72	H	0.393502	0.221118	0.000106
C73	C	0.407775	-0.525159	-0.000204
C74	C	0.330127	-0.483538	-0.086052
C75	C	0.291978	-0.555556	-0.086280
H76	H	0.384708	-0.536252	0.057907
H77	H	0.457638	-0.591152	-0.000255
H78	H	0.280272	-0.417564	-0.085992
H79	H	0.353168	-0.472449	-0.144177
H80	H	0.341842	-0.621549	-0.086331
H81	H	0.268917	-0.566645	-0.028165
H82	H	0.239296	-0.527332	-0.144531
C83	C	0.816675	0.033136	0.000039
C84	C	0.742965	0.130275	0.000063
C85	C	0.780814	0.202567	0.000119
H86	H	0.839649	0.044314	-0.058125
H87	H	0.869370	0.005109	0.058243
H88	H	0.690288	0.158297	-0.058135
H89	H	0.719984	0.119131	0.058222
H90	H	0.833509	0.174539	0.058323
H91	H	0.803788	0.213735	-0.058046
H92	H	0.730811	0.268480	0.000144
H93	H	1.059570	-0.176735	0.247202
H94	H	0.908127	0.022480	0.404779
H95	H	1.165152	-0.315563	0.752795
H96	H	0.378009	-0.187395	-0.000024
C97	C	0.862947	-0.332877	-0.000205
C98	C	0.823828	-0.349356	-0.086048
C99	C	0.883914	-0.452610	-0.086274
H100	H	0.866313	-0.383483	0.057909
H101	H	0.926878	-0.341127	-0.000261
H102	H	0.759914	-0.341116	-0.085983
H103	H	0.820464	-0.298775	-0.144176
H104	H	0.947844	-0.460861	-0.086330
H105	H	0.887276	-0.503208	-0.028156
H106	H	0.857385	-0.463802	-0.144522
C107	C	0.396432	-0.093480	-0.000182
C108	C	0.348050	-0.102137	-0.085998
C109	C	0.249809	-0.071058	-0.086175
H110	H	0.365913	-0.021618	-0.000244
H111	H	0.393131	-0.138404	0.057971
H112	H	0.351345	-0.057213	-0.144137
H113	H	0.378539	-0.173990	-0.085954
H114	H	0.246508	-0.115982	-0.028022
H115	H	0.219299	0.000803	-0.086234
H116	H	0.216972	-0.076937	-0.144395
C117	C	1.337522	-0.542376	0.609644
C118	C	1.350228	-0.559111	0.712855
C119	C	1.427504	-0.660837	0.765551
H120	H	1.396037	-0.547689	0.592537
H121	H	1.322797	-0.594721	0.592495
H122	H	1.364959	-0.506780	0.729997
H123	H	1.291733	-0.553820	0.729992
H124	H	1.412779	-0.713182	0.748403
H125	H	1.486013	-0.666141	0.748436
H126	H	1.436129	-0.672209	0.835585
H127	H	1.225005	-0.394295	0.690503
H128	H	0.933254	-0.010533	0.752835
H129	H	0.884508	0.053559	0.562316
C130	C	1.305263	-0.499974	0.233059
C131	C	1.378725	-0.596637	0.301502
C132	C	1.429303	-0.663243	0.249169
H133	H	1.334114	-0.466265	0.192078
H134	H	1.260885	-0.513312	0.192122
H135	H	1.423096	-0.583298	0.342422
H136	H	1.349900	-0.630376	0.342485
H137	H	1.384925	-0.676581	0.208233
H138	H	1.458147	-0.629525	0.208190
H139	H	1.479146	-0.728840	0.295600
