data_functionalizedCrystal
_audit_creation_method	'MofGen! by Chris Wilmer'
_symmetry_space_group_name_H-M	'P1'
_symmetry_Int_Tables_number	1
_symmetry_cell_setting	triclinic
loop_
_symmetry_equiv_pos_as_xyz
  x,y,z
_cell_length_a	18.215407
_cell_length_b	18.101397
_cell_length_c	18.215407
_cell_angle_alpha	90.014899
_cell_angle_beta	90.007301
_cell_angle_gamma	90.017925
loop_
_atom_site_label
_atom_site_type_symbol
_atom_site_fract_x
_atom_site_fract_y
_atom_site_fract_z
Zn1	Zn	1.125025	-0.295002	0.416044
Zn2	Zn	1.625025	0.204998	0.916044
Zn3	Zn	1.124963	-0.418815	0.292972
Zn4	Zn	1.624963	0.081185	0.792972
Zn5	Zn	1.001978	-0.294986	0.292998
Zn6	Zn	1.501978	0.205014	0.792998
Zn7	Zn	1.001933	-0.418801	0.416003
Zn8	Zn	1.501933	0.081199	0.916003
O9	O	1.063475	-0.356901	0.354504
O10	O	1.563475	0.143099	0.854504
O11	O	1.228001	-0.311439	0.399725
O12	O	1.728001	0.188561	0.899725
O13	O	1.108642	-0.402388	0.189991
O14	O	1.608642	0.097612	0.689991
O15	O	1.018345	-0.191355	0.309348
O16	O	1.518345	0.308645	0.809348
O17	O	1.227956	-0.402403	0.309304
O18	O	1.727956	0.097597	0.809304
O19	O	1.108747	-0.191367	0.399750
O20	O	1.608747	0.308633	0.899750
O21	O	1.018285	-0.311411	0.190010
O22	O	1.518285	0.188589	0.690010
O23	O	0.898988	-0.311398	0.309309
O24	O	1.398988	0.188602	0.809309
O25	O	1.018268	-0.402380	0.518993
O26	O	1.518268	0.097620	1.018993
O27	O	0.898954	-0.402364	0.399680
O28	O	1.398954	0.097636	0.899680
O29	O	1.108703	-0.311426	0.519023
O30	O	1.608703	0.188574	1.019023
O31	O	1.108598	-0.522446	0.309265
O32	O	1.608598	-0.022446	0.809265
O33	O	1.018208	-0.522436	0.399655
O34	O	1.518208	-0.022436	0.899655
C35	C	0.872268	-0.356878	0.354493
C36	C	1.372268	0.143122	0.854493
C37	C	0.790470	-0.356887	0.354506
C38	C	1.290470	0.143113	0.854506
C39	C	1.063412	-0.549312	0.354469
C40	C	1.563412	-0.049312	0.854469
C41	C	1.063452	-0.631626	0.354478
C42	C	1.563452	-0.131626	0.854478
C43	C	0.525414	-0.404345	0.401496
C44	C	1.025414	0.095655	0.901496
C45	C	0.602273	-0.404339	0.401493
C46	C	1.102273	0.095661	0.901493
C47	C	0.602277	-0.309474	0.307526
C48	C	1.102277	0.190526	0.807526
C49	C	0.525419	-0.309484	0.307526
C50	C	1.025419	0.190516	0.807526
C51	C	0.486990	-0.356919	0.354516
C52	C	0.986990	0.143081	0.854516
C53	C	0.640706	-0.356902	0.354512
C54	C	1.140706	0.143098	0.854512
C55	C	0.724040	-0.356895	0.354507
C56	C	1.224040	0.143105	0.854507
C57	C	0.403651	-0.356927	0.354519
C58	C	0.903651	0.143073	0.854519
C59	C	1.063546	-0.930717	0.354545
C60	C	1.563546	-0.430717	0.854545
C61	C	1.120258	-0.899367	0.297522
C62	C	1.620258	-0.399367	0.797522
C63	C	1.120455	-0.813748	0.297669
C64	C	1.620455	-0.313748	0.797669
C65	C	1.063499	-0.782334	0.354511
C66	C	1.563499	-0.282334	0.854511
C67	C	1.084511	-0.813364	0.432082
C68	C	1.584511	-0.313364	0.932082
C69	C	1.084950	-0.899009	0.431772
C70	C	1.584950	-0.399009	0.931772
C71	C	0.985671	-0.899217	0.334669
C72	C	1.485671	-0.399217	0.834669
C73	C	0.986056	-0.813567	0.332938
C74	C	1.486056	-0.313567	0.832938
C75	C	1.063472	-0.698475	0.354497
C76	C	1.563472	-0.198475	0.854497
C77	C	1.063575	-1.014576	0.354565
C78	C	1.563575	-0.514576	0.854565
C79	C	1.255428	-0.356924	0.354516
C80	C	1.755428	0.143076	0.854516
C81	C	1.337226	-0.356934	0.354521
C82	C	1.837226	0.143066	0.854521
C83	C	1.063487	-0.356903	0.546457
C84	C	1.563487	0.143097	1.046457
C85	C	1.063493	-0.356904	0.628256
C86	C	1.563493	0.143096	1.128256
C87	C	1.063558	-0.163739	0.354556
C88	C	1.563558	0.336261	0.854556
C89	C	1.063593	-0.081425	0.354579
C90	C	1.563593	0.418575	0.854579
C91	C	1.110568	-0.309552	0.816467
C92	C	1.610568	0.190448	1.316467
C93	C	1.110564	-0.309551	0.893326
C94	C	1.610564	0.190449	1.393326
C95	C	1.016394	-0.404267	0.893283
C96	C	1.516394	0.095733	1.393283
C97	C	1.016395	-0.404263	0.816426
C98	C	1.516395	0.095737	1.316426
C99	C	1.063486	-0.356906	0.778020
C100	C	1.563486	0.143094	1.278020
C101	C	1.063481	-0.356910	0.931736
C102	C	1.563481	0.143090	1.431736
C103	C	1.063476	-0.356910	1.015070
C104	C	1.563476	0.143090	1.515070
C105	C	1.063490	-0.356905	0.694681
C106	C	1.563490	0.143095	1.194681
C107	C	1.063462	-0.356915	1.163298
C108	C	1.563462	0.143085	1.663298
C109	C	1.063474	-0.356913	1.081499
C110	C	1.563474	0.143087	1.581499
H111	H	0.494127	-0.442970	0.439758
H112	H	0.994127	0.057030	0.939758
N113	N	1.196256	-0.927796	0.314746
N114	N	1.696256	-0.427796	0.814746
H115	H	1.232350	-0.907394	0.277863
H116	H	1.732350	-0.407394	0.777863
H117	H	1.196349	-0.983533	0.312209
H118	H	1.696349	-0.483533	0.812209
H119	H	1.148901	-0.270989	0.924626
H120	H	1.648901	0.229011	1.424626
N121	N	0.965594	-0.455331	0.934707
N122	N	1.465594	0.044669	1.434707
H123	H	0.972734	-0.448146	0.989230
H124	H	1.472734	0.051854	1.489230
H125	H	0.977015	-0.508226	0.921264
H126	H	1.477015	-0.008226	1.421264
H127	H	0.633575	-0.270853	0.269269
H128	H	1.133575	0.229147	0.769269
N129	N	1.161359	-0.258477	0.775046
N130	N	1.661359	0.241523	1.275046
H131	H	1.195453	-0.288579	0.743159
H132	H	1.695453	0.211421	1.243159
H133	H	1.191133	-0.228492	0.811118
H134	H	1.691133	0.271508	1.311118
N135	N	0.643717	-0.455494	0.452161
N136	N	1.143717	0.044506	0.952161
H137	H	0.607707	-0.485544	0.481926
H138	H	1.107707	0.014456	0.981926
H139	H	0.675618	-0.425398	0.486270
H140	H	1.175618	0.074602	0.986270
H141	H	0.494134	-0.270863	0.269265
H142	H	0.994134	0.229137	0.769265
N143	N	0.965596	-0.455335	0.774962
N144	N	1.465596	0.044665	1.274962
H145	H	0.976996	-0.508252	0.788319
H146	H	1.476996	-0.008252	1.288319
H147	H	0.972755	-0.448083	0.720458
H148	H	1.472755	0.051917	1.220458
N149	N	1.103054	-0.785953	0.221481
N150	N	1.603054	-0.285953	0.721481
H151	H	1.095186	-0.829337	0.187498
H152	H	1.595186	-0.329337	0.687498
H153	H	1.145302	-0.755019	0.202916
H154	H	1.645302	-0.255019	0.702916
H155	H	0.966554	-0.920861	0.279086
H156	H	1.466554	-0.420861	0.779086
H157	H	1.107274	-0.919994	0.239832
H158	H	1.607274	-0.419994	0.739832
N159	N	0.927080	-0.785247	0.383929
N160	N	1.427080	-0.285247	0.883929
H161	H	0.902577	-0.828302	0.409294
H162	H	1.402577	-0.328302	0.909294
H163	H	0.889365	-0.756829	0.354715
H164	H	1.389365	-0.256829	0.854715
H165	H	1.141873	-0.918935	0.448609
H166	H	1.641873	-0.418935	0.948609
N167	N	1.196863	-0.786535	0.315089
N168	N	1.696863	-0.286535	0.815089
H169	H	1.230548	-0.830176	0.322706
H170	H	1.730548	-0.330176	0.822706
H171	H	1.195512	-0.755631	0.361240
H172	H	1.695512	-0.255631	0.861240
H173	H	1.044467	-0.793015	0.475712
H174	H	1.544467	-0.293015	0.975712
N175	N	1.032614	-0.926485	0.489969
N176	N	1.532614	-0.426485	0.989969
H177	H	1.009363	-0.882960	0.515714
H178	H	1.509363	-0.382960	1.015714
H179	H	1.060403	-0.957380	0.526828
H180	H	1.560403	-0.457380	1.026828
N181	N	1.159072	-0.784899	0.454764
N182	N	1.659072	-0.284899	0.954764
H183	H	1.179345	-0.751911	0.414911
H184	H	1.679345	-0.251911	0.914911
H185	H	1.193385	-0.827972	0.462742
H186	H	1.693385	-0.327972	0.962742
H187	H	0.970212	-0.793292	0.275852
H188	H	1.470212	-0.293292	0.775852
H189	H	0.943416	-0.919492	0.376202
H190	H	1.443416	-0.419492	0.876202
