data_functionalizedCrystal
_audit_creation_method	'MofGen! by Chris Wilmer'
_symmetry_space_group_name_H-M	'P1'
_symmetry_Int_Tables_number	1
_symmetry_cell_setting	triclinic
loop_
_symmetry_equiv_pos_as_xyz
  x,y,z
_cell_length_a	19.077105
_cell_length_b	29.839131
_cell_length_c	29.839125
_cell_angle_alpha	90.017709
_cell_angle_beta	92.308841
_cell_angle_gamma	87.737628
loop_
_atom_site_label
_atom_site_type_symbol
_atom_site_fract_x
_atom_site_fract_y
_atom_site_fract_z
Zn1	Zn	1.075833	-0.206556	0.281562
Zn2	Zn	1.075726	-0.281665	0.206430
Zn3	Zn	0.958152	-0.203530	0.203431
Zn4	Zn	0.958070	-0.278634	0.278517
O5	O	1.016945	-0.242596	0.242485
O6	O	1.174308	-0.219055	0.274125
O7	O	1.060120	-0.271302	0.143164
O8	O	0.973841	-0.141066	0.213814
O9	O	1.174230	-0.274237	0.218925
O10	O	1.060301	-0.143290	0.271217
O11	O	0.973738	-0.213896	0.140961
O12	O	0.859652	-0.210957	0.210862
O13	O	0.973702	-0.269071	0.341789
O14	O	0.859592	-0.266136	0.266028
O15	O	1.060222	-0.216116	0.344026
O16	O	1.060040	-0.344128	0.215973
O17	O	0.973599	-0.341902	0.268935
C18	C	0.834085	-0.237890	0.237789
C19	C	0.755856	-0.235887	0.235791
C20	C	0.719091	-0.263718	0.263529
C21	C	0.645587	-0.261831	0.261653
C22	C	0.608850	-0.232114	0.232037
C23	C	0.645620	-0.204279	0.204298
C24	C	0.719122	-0.206165	0.206176
C25	C	0.389021	-0.223387	0.223348
C26	C	0.315513	-0.221504	0.221471
C27	C	0.315486	-0.279055	0.278827
C28	C	0.388990	-0.280940	0.280700
C29	C	0.425754	-0.253104	0.252963
N30	N	0.533717	-0.230185	0.230119
N31	N	0.500886	-0.255031	0.254884
C32	C	1.016818	-0.359316	0.242459
C33	C	1.016828	-0.409250	0.242465
C34	C	1.062037	-0.720046	0.214951
C35	C	1.062124	-0.907721	0.214971
O36	O	1.100462	-0.932963	0.191558
N37	N	1.017091	-0.930042	0.242523
C38	C	0.972037	-0.905442	0.270073
O39	O	0.933741	-0.928733	0.293511
C40	C	0.971954	-0.717767	0.270056
C41	C	1.016985	-0.695449	0.242499
C42	C	1.107065	-0.697727	0.187397
C43	C	1.107040	-0.650811	0.187391
C44	C	1.061988	-0.626214	0.214939
C45	C	1.016960	-0.648532	0.242493
C46	C	0.926904	-0.693168	0.297608
C47	C	0.926888	-0.646246	0.297602
C48	C	0.971919	-0.623927	0.270046
C49	C	0.971883	-0.577019	0.270034
N50	N	1.016915	-0.554698	0.242482
C51	C	1.061968	-0.579295	0.214935
C52	C	0.972083	-1.003973	0.270080
C53	C	0.972102	-1.050892	0.270084
C54	C	1.062191	-1.053168	0.214982
C55	C	1.062167	-1.006249	0.214976
C56	C	1.017115	-0.981652	0.242528
C57	C	1.061912	-0.480768	0.214923
C58	C	1.061881	-0.433848	0.214918
C59	C	0.971795	-0.431576	0.270021
C60	C	0.971823	-0.478492	0.270025
C61	C	1.016887	-0.503087	0.242474
O62	O	0.933571	-0.551749	0.293438
O63	O	1.100269	-0.555995	0.191507
C64	C	1.062062	-0.766962	0.214958
C65	C	1.017035	-0.789281	0.242512
C66	C	0.971982	-0.764683	0.270059
C67	C	1.017054	-0.836199	0.242516
C68	C	1.062107	-0.860796	0.214968
C69	C	1.107140	-0.838475	0.187417
C70	C	1.107115	-0.791559	0.187410
C71	C	0.926949	-0.787005	0.297611
C72	C	0.926977	-0.833921	0.297615
C73	C	0.972030	-0.858518	0.270067
C74	C	1.200520	-0.247322	0.247200
C75	C	1.278749	-0.249335	0.249209
C76	C	1.016964	-0.242593	0.359664
C77	C	1.016973	-0.242591	0.409598
C78	C	1.017092	-0.125422	0.242521
C79	C	1.017155	-0.075489	0.242536
C80	C	1.016967	-0.242569	0.125763
C81	C	1.017095	-0.242447	0.075832
C82	C	1.062071	-0.214943	0.720411
C83	C	1.062106	-0.214906	0.908085
O84	O	1.100397	-0.191440	0.933343
N85	N	1.017066	-0.242473	0.930386
C86	C	0.972011	-0.270050	0.905766
O87	O	0.933698	-0.293494	0.929040
C88	C	0.971973	-0.270085	0.718092
C89	C	1.017021	-0.242519	0.695794
C90	C	1.107114	-0.187379	0.698113
C91	C	1.107108	-0.187391	0.651197
C92	C	1.062058	-0.214966	0.626580
C93	C	1.017014	-0.242530	0.648878
C94	C	0.926915	-0.297659	0.693473
C95	C	0.926908	-0.297664	0.646551
C96	C	0.971956	-0.270098	0.624253
C97	C	0.971958	-0.270117	0.577346
N98	N	1.016998	-0.242550	0.555045
C99	C	1.062047	-0.214974	0.579662
C100	C	0.972035	-0.270030	1.004297
C101	C	0.972045	-0.270022	1.051215
C102	C	1.062139	-0.214878	1.053531
C103	C	1.062132	-0.214888	1.006612
C104	C	1.017075	-0.242463	0.981996
C105	C	1.062031	-0.215001	0.481135
C106	C	1.062022	-0.215016	0.434216
C107	C	0.971926	-0.270159	0.431903
C108	C	0.971937	-0.270145	0.478819
C109	C	1.016992	-0.242563	0.503434
O110	O	0.933681	-0.293567	0.552060
O111	O	1.100344	-0.191527	0.556379
C112	C	1.062077	-0.214932	0.767327
C113	C	1.017034	-0.242496	0.789625
C114	C	0.971984	-0.270071	0.765008
C115	C	1.017044	-0.242488	0.836543
C116	C	1.062094	-0.214912	0.861160
C117	C	1.107134	-0.187345	0.838859
C118	C	1.107127	-0.187356	0.791944
C119	C	0.926944	-0.297639	0.787309
C120	C	0.926955	-0.297626	0.834225
C121	C	0.972005	-0.270050	0.858842
H122	H	0.749055	-0.183500	0.183591
C123	C	0.922383	-0.300494	0.404815
C124	C	0.867156	-0.279611	0.371138
C125	C	0.817614	-0.309946	0.344045
C126	C	0.823300	-0.361163	0.350630
C127	C	0.878530	-0.382048	0.384309
C128	C	0.928072	-0.351714	0.411401
H129	H	0.862944	-0.241695	0.366262
H130	H	0.776729	-0.294485	0.319114
H131	H	0.786626	-0.383619	0.330575
H132	H	0.882741	-0.419965	0.389185
H133	H	0.968957	-0.367175	0.436332
C134	C	0.877371	-0.717708	0.327925
C135	C	0.797363	-0.709247	0.322169
C136	C	0.747827	-0.733785	0.352490
C137	C	0.778300	-0.766784	0.388566
C138	C	0.858312	-0.775247	0.394324
C139	C	0.907848	-0.750709	0.364003
H140	H	0.774801	-0.684817	0.295462
H141	H	0.688596	-0.727520	0.348227
H142	H	0.741631	-0.784949	0.411011
H143	H	0.880873	-0.799676	0.421031
H144	H	0.967078	-0.756973	0.368266
C145	C	1.156655	-0.157062	0.626674
C146	C	1.150967	-0.105844	0.632993
C147	C	1.200516	-0.075512	0.608474
C148	C	1.255752	-0.096397	0.577637
C149	C	1.261442	-0.147618	0.571317
C150	C	1.211894	-0.177950	0.595835
H151	H	1.110076	-0.090381	0.655822
H152	H	1.196303	-0.037595	0.613153
H153	H	1.292431	-0.073943	0.559487
H154	H	1.302333	-0.163081	0.548488
H155	H	1.216106	-0.215867	0.591156
H156	H	1.098821	-0.192425	1.073582
C157	C	0.605210	-0.171587	0.171723
C158	C	0.645653	-0.140969	0.141215
C159	C	0.605246	-0.108275	0.108640
C160	C	0.524395	-0.106198	0.106573
C161	C	0.483948	-0.136817	0.137082
C162	C	0.524356	-0.169511	0.169657
H163	H	0.705507	-0.142505	0.142744
H164	H	0.635188	-0.085609	0.086055
H165	H	0.494483	-0.081996	0.082459
H166	H	0.424094	-0.135280	0.135553
H167	H	0.494413	-0.192177	0.192242
H168	H	0.285546	-0.301717	0.301409
H169	H	0.935112	-0.411541	0.292448
H170	H	0.890273	-0.320077	0.852376
H171	H	1.098550	-0.415677	0.192476
H172	H	0.935427	-1.069059	0.292519
C173	C	0.429396	-0.313628	0.313282
C174	C	0.419232	-0.364433	0.309264
C175	C	0.459635	-0.397122	0.341846
C176	C	0.510204	-0.379007	0.378445
C177	C	0.520371	-0.328199	0.382463
C178	C	0.479967	-0.295509	0.349882
H179	H	0.381796	-0.377845	0.282171
H180	H	0.452109	-0.434734	0.338871
H181	H	0.540113	-0.403205	0.402563
H182	H	0.557806	-0.314786	0.409557
H183	H	0.487493	-0.257898	0.352857
C184	C	1.156654	-0.767013	0.157100
C185	C	1.150973	-0.773350	0.105880
C186	C	1.200517	-0.748808	0.075569
C187	C	1.255742	-0.717930	0.096476
C188	C	1.261426	-0.711592	0.147698
C189	C	1.211882	-0.736134	0.178009
H190	H	1.110090	-0.796209	0.090401
H191	H	1.196309	-0.753499	0.037651
H192	H	1.292417	-0.699762	0.074037
H193	H	1.302309	-0.688733	0.163177
H194	H	1.216090	-0.731442	0.215927
H195	H	0.935371	-0.292475	1.069367
H196	H	0.890232	-0.320106	0.711620
C197	C	1.111477	-0.507818	0.184615
C198	C	1.105777	-0.501240	0.133395
C199	C	1.155337	-0.528290	0.103084
C200	C	1.210597	-0.561919	0.123994
C201	C	1.216299	-0.568498	0.175217
C202	C	1.166739	-0.541448	0.205528
H203	H	1.064869	-0.476345	0.117913
H204	H	1.151116	-0.523420	0.065165
H205	H	1.247285	-0.581943	0.101557
H206	H	1.257208	-0.593393	0.190699
H207	H	1.170960	-0.546319	0.243447
H208	H	0.418945	-0.200724	0.200758
C209	C	0.877383	-0.327976	0.760239
C210	C	0.797381	-0.322250	0.764645
C211	C	0.747817	-0.352592	0.737579
C212	C	0.778257	-0.388660	0.706107
C213	C	0.858263	-0.394388	0.701699
C214	C	0.907827	-0.364046	0.728765
H215	H	0.774844	-0.295549	0.787944
H216	H	0.688591	-0.348352	0.740842
H217	H	0.741567	-0.411121	0.686071
H218	H	0.880800	-0.421089	0.678400
H219	H	0.967053	-0.368286	0.725502
C220	C	1.111706	-0.981700	0.184667
C221	C	1.106022	-0.988031	0.133447
C222	C	1.155565	-0.963485	0.103137
C223	C	1.210790	-0.932609	0.124047
C224	C	1.216475	-0.926277	0.175270
C225	C	1.166933	-0.950823	0.205580
H226	H	1.065139	-1.010888	0.117966
H227	H	1.151356	-0.968173	0.065219
H228	H	1.247464	-0.914439	0.101610
H229	H	1.257359	-0.903419	0.190751
H230	H	1.171142	-0.946135	0.243498
H231	H	1.143756	-0.717749	0.164965
H232	H	1.098716	-0.192539	0.501171
C233	C	1.111753	-1.080230	0.184681
C234	C	1.111772	-1.131839	0.184692
C235	C	1.161336	-1.158904	0.154396
C236	C	1.210881	-1.134360	0.124089
C237	C	1.210863	-1.082749	0.124078
C238	C	1.161299	-1.055684	0.154374
H239	H	1.075095	-1.150010	0.207127
H240	H	1.161349	-1.197110	0.154404
H241	H	1.247571	-1.154395	0.101662
H242	H	1.247540	-1.064578	0.101642
H243	H	1.161287	-1.017478	0.154365
H244	H	0.890209	-0.320114	0.626511
C245	C	1.156677	-0.157030	0.767420
C246	C	1.150994	-0.105812	0.773736
C247	C	1.200546	-0.075483	0.749217
C248	C	1.255781	-0.096372	0.718380
C249	C	1.261466	-0.147593	0.712062
C250	C	1.211914	-0.177922	0.736582
H251	H	1.110104	-0.090346	0.796565
H252	H	1.196338	-0.037566	0.753894
H253	H	1.292462	-0.073921	0.700229
H254	H	1.302356	-0.163059	0.689234
H255	H	1.216122	-0.215839	0.731905
C256	C	0.922518	-0.976922	0.300389
C257	C	0.842516	-0.981376	0.294624
C258	C	0.792950	-0.954328	0.324932
C259	C	0.823384	-0.922826	0.361005
C260	C	0.903390	-0.918371	0.366771
C261	C	0.952957	-0.945419	0.336463
H262	H	0.819983	-1.004697	0.267920
H263	H	0.733724	-0.957627	0.320663
H264	H	0.786692	-0.902804	0.383440
H265	H	0.925924	-0.895050	0.393475
H266	H	1.012183	-0.942120	0.340732
H267	H	1.143821	-0.858510	0.164985
H268	H	0.285604	-0.197300	0.197356
H269	H	0.890203	-0.626222	0.320040
H270	H	1.143710	-0.632642	0.164953
C271	C	0.922467	-0.300368	0.977227
C272	C	0.842466	-0.294642	0.981638
C273	C	0.792898	-0.324981	0.954573
C274	C	0.823331	-0.361048	0.923097
C275	C	0.903337	-0.366776	0.918684
C276	C	0.952905	-0.336436	0.945749
H277	H	0.819933	-0.267942	1.004940
H278	H	0.733672	-0.320741	0.957840
H279	H	0.786638	-0.383507	0.903061
H280	H	0.925869	-0.393476	0.895382
H281	H	1.012131	-0.340677	0.942483
H282	H	0.935262	-0.292596	0.496976
H283	H	0.890263	-0.766981	0.320044
C284	C	1.156688	-0.157011	0.865944
C285	C	1.211919	-0.177893	0.899620
C286	C	1.261467	-0.147558	0.926707
C287	C	1.255784	-0.096341	0.920118
C288	C	1.200551	-0.075456	0.886441
C289	C	1.151003	-0.105791	0.859354
H290	H	1.216127	-0.215809	0.904498
H291	H	1.302354	-0.163019	0.951637
H292	H	1.292462	-0.073886	0.940170
H293	H	1.196342	-0.037540	0.881563
H294	H	1.110116	-0.090330	0.834424
H295	H	0.748998	-0.287919	0.287644
C296	C	0.922288	-0.503047	0.300333
C297	C	0.842278	-0.494601	0.294572
C298	C	0.792748	-0.519154	0.324885
C299	C	0.823229	-0.552153	0.360958
C300	C	0.903244	-0.560601	0.366721
C301	C	0.952773	-0.536048	0.336409
H302	H	0.819710	-0.470171	0.267867
H303	H	0.733516	-0.512900	0.320619
H304	H	0.786564	-0.570329	0.383398
H305	H	0.925811	-0.585031	0.393427
H306	H	1.012006	-0.542302	0.340675
H307	H	0.615657	-0.284494	0.284240
H308	H	1.143799	-0.164922	0.718151
H309	H	0.890302	-0.852088	0.320054
C310	C	1.111576	-0.184690	0.409688
C311	C	1.105894	-0.133471	0.415999
C312	C	1.155445	-0.103145	0.391473
C313	C	1.210677	-0.124039	0.360638
C314	C	1.216361	-0.175261	0.354326
C315	C	1.166810	-0.205586	0.378851
H316	H	1.065006	-0.118002	0.438826
H317	H	1.151237	-0.065228	0.396146
H318	H	1.247357	-0.101590	0.342483
H319	H	1.257249	-0.190730	0.331498
H320	H	1.171018	-0.243504	0.374179
H321	H	1.098813	-0.192441	0.988460
