data_functionalizedCrystal
_audit_creation_method	'MofGen! by Chris Wilmer'
_symmetry_space_group_name_H-M	'P1'
_symmetry_Int_Tables_number	1
_symmetry_cell_setting	triclinic
loop_
_symmetry_equiv_pos_as_xyz
  x,y,z
_cell_length_a	18.101398
_cell_length_b	18.050589
_cell_length_c	18.050583
_cell_angle_alpha	89.968090
_cell_angle_beta	89.978665
_cell_angle_gamma	90.023488
loop_
_atom_site_label
_atom_site_type_symbol
_atom_site_fract_x
_atom_site_fract_y
_atom_site_fract_z
Zn1	Zn	1.132114	-0.295700	-0.420040
Zn2	Zn	1.465447	0.037633	-0.086707
Zn3	Zn	1.798781	0.370967	0.246626
Zn4	Zn	1.132023	-0.419913	-0.295860
Zn5	Zn	1.465356	-0.086580	0.037474
Zn6	Zn	1.798689	0.246754	0.370807
Zn7	Zn	1.008279	-0.295731	-0.295853
Zn8	Zn	1.341613	0.037602	0.037480
Zn9	Zn	1.674946	0.370936	0.370814
Zn10	Zn	1.008230	-0.419842	-0.419997
Zn11	Zn	1.341563	-0.086509	-0.086663
Zn12	Zn	1.674897	0.246824	0.246670
O13	O	1.070161	-0.357797	-0.357937
O14	O	1.403495	-0.024463	-0.024604
O15	O	1.736828	0.308870	0.308729
O16	O	1.235735	-0.312194	-0.403589
O17	O	1.569068	0.021140	-0.070255
O18	O	1.902401	0.354473	0.263078
O19	O	1.115590	-0.403482	-0.191934
O20	O	1.448924	-0.070149	0.141399
O21	O	1.782257	0.263184	0.474732
O22	O	1.024765	-0.191802	-0.312342
O23	O	1.358099	0.141531	0.020991
O24	O	1.691432	0.474864	0.354325
O25	O	1.235668	-0.403452	-0.312354
O26	O	1.569001	-0.070119	0.020980
O27	O	1.902334	0.263214	0.354313
O28	O	1.115746	-0.191779	-0.403582
O29	O	1.449079	0.141554	-0.070249
O30	O	1.782413	0.474887	0.263085
O31	O	1.024677	-0.312247	-0.191929
O32	O	1.358010	0.021087	0.141404
O33	O	1.691343	0.354420	0.474737
O34	O	0.904640	-0.312178	-0.312300
O35	O	1.237973	0.021155	0.021034
O36	O	1.571307	0.354489	0.354367
O37	O	1.024681	-0.403332	-0.523927
O38	O	1.358014	-0.069999	-0.190594
O39	O	1.691348	0.263335	0.142739
O40	O	0.904604	-0.403362	-0.403508
O41	O	1.237937	-0.070029	-0.070174
O42	O	1.571270	0.263304	0.263159
O43	O	1.115698	-0.312125	-0.523959
O44	O	1.449031	0.021208	-0.190626
O45	O	1.782365	0.354542	0.142707
O46	O	1.115542	-0.523828	-0.312311
O47	O	1.448876	-0.190495	0.021022
O48	O	1.782209	0.142839	0.354355
O49	O	1.024592	-0.523776	-0.403514
O50	O	1.357926	-0.190443	-0.070181
O51	O	1.691259	0.142890	0.263152
C52	C	0.877751	-0.357766	-0.357899
C53	C	1.211084	-0.024433	-0.024565
C54	C	1.544418	0.308900	0.308768
C55	C	0.795437	-0.357771	-0.357900
C56	C	1.128770	-0.024438	-0.024566
C57	C	1.462104	0.308895	0.308767
C58	C	0.496346	-0.357818	-0.357962
C59	C	0.829679	-0.024484	-0.024629
C60	C	1.163013	0.308849	0.308704
C61	C	0.527669	-0.300160	-0.300857
C62	C	0.861003	0.033173	0.032477
C63	C	1.194336	0.366506	0.365810
C64	C	0.613287	-0.300315	-0.300613
C65	C	0.946621	0.033018	0.032720
C66	C	1.279954	0.366352	0.366054
C67	C	0.644728	-0.357794	-0.357931
C68	C	0.978062	-0.024461	-0.024598
C69	C	1.311395	0.308873	0.308735
C70	C	0.613615	-0.436028	-0.336553
C71	C	0.946949	-0.102695	-0.003219
C72	C	1.280282	0.230638	0.330114
C73	C	0.527970	-0.435708	-0.336156
C74	C	0.861304	-0.102375	-0.002822
C75	C	1.194637	0.230959	0.330511
C76	C	0.527955	-0.337921	-0.436581
C77	C	0.861289	-0.004588	-0.103247
C78	C	1.194622	0.328746	0.230086
C79	C	0.613606	-0.336179	-0.436152
C80	C	0.946939	-0.002846	-0.102818
C81	C	1.280273	0.330488	0.230515
C82	C	0.728588	-0.357786	-0.357915
C83	C	1.061921	-0.024452	-0.024582
C84	C	1.395255	0.308881	0.308752
C85	C	0.412486	-0.357832	-0.357977
C86	C	0.745820	-0.024498	-0.024643
C87	C	1.079153	0.308835	0.308690
C88	C	1.070072	-0.550749	-0.357925
C89	C	1.403405	-0.217415	-0.024592
C90	C	1.736739	0.115918	0.308742
C91	C	1.070102	-0.633294	-0.357945
C92	C	1.403435	-0.299961	-0.024611
C93	C	1.736768	0.033372	0.308722
C94	C	1.020692	-0.832744	-0.407524
C95	C	1.354025	-0.499411	-0.074190
C96	C	1.687358	-0.166077	0.259143
C97	C	1.002643	-0.882193	-0.339755
C98	C	1.335977	-0.548859	-0.006421
C99	C	1.669310	-0.215526	0.326912
C100	C	1.070174	-0.784425	-0.357954
C101	C	1.403508	-0.451091	-0.024621
C102	C	1.736841	-0.117758	0.308712
C103	C	1.088259	-0.882058	-0.425731
C104	C	1.421592	-0.548724	-0.092398
C105	C	1.754926	-0.215391	0.240935
C106	C	1.070243	-0.930410	-0.357970
C107	C	1.403577	-0.597077	-0.024636
C108	C	1.736910	-0.263743	0.308697
C109	C	1.052090	-0.832786	-0.290150
C110	C	1.385424	-0.499453	0.043184
C111	C	1.718757	-0.166120	0.376517
C112	C	1.137738	-0.832647	-0.376172
C113	C	1.471071	-0.499314	-0.042839
C114	C	1.804404	-0.165980	0.290495
C115	C	1.119715	-0.882074	-0.308356
C116	C	1.453048	-0.548740	0.024977
C117	C	1.786382	-0.215407	0.358310
C118	C	1.070133	-0.700327	-0.357947
C119	C	1.403466	-0.366993	-0.024613
C120	C	1.736799	-0.033660	0.308720
C121	C	1.070285	-1.014506	-0.357970
C122	C	1.403618	-0.681173	-0.024637
C123	C	1.736952	-0.347840	0.308697
C124	C	1.263323	-0.357827	-0.357977
C125	C	1.596657	-0.024494	-0.024643
C126	C	1.929990	0.308839	0.308690
C127	C	1.345637	-0.357840	-0.357994
C128	C	1.678971	-0.024507	-0.024660
C129	C	2.012304	0.308826	0.308673
C130	C	1.070194	-0.357717	-0.551643
C131	C	1.403528	-0.024384	-0.218310
C132	C	1.736861	0.308949	0.115023
C133	C	1.070208	-0.357683	-0.634189
C134	C	1.403542	-0.024350	-0.300856
C135	C	1.736875	0.308983	0.032478
C136	C	1.070271	-0.164091	-0.357966
C137	C	1.403605	0.169242	-0.024633
C138	C	1.736938	0.502576	0.308701
C139	C	1.070318	-0.081545	-0.357978
C140	C	1.403652	0.251788	-0.024645
C141	C	1.736985	0.585122	0.308688
C142	C	1.119753	-0.308061	-0.833657
C143	C	1.453086	0.025272	-0.500324
C144	C	1.786419	0.358605	-0.166991
C145	C	1.052209	-0.289879	-0.883044
C146	C	1.385543	0.043454	-0.549711
C147	C	1.718876	0.376787	-0.216378
C148	C	1.070238	-0.357671	-0.785319
C149	C	1.403571	-0.024337	-0.451986
C150	C	1.736905	0.308996	-0.118653
C151	C	1.137809	-0.375806	-0.883014
C152	C	1.471142	-0.042472	-0.549681
C153	C	1.804475	0.290861	-0.216347
C154	C	1.070272	-0.357657	-0.931305
C155	C	1.403606	-0.024324	-0.597971
C156	C	1.736939	0.309010	-0.264638
C157	C	1.002659	-0.339454	-0.833619
C158	C	1.335992	-0.006121	-0.500286
C159	C	1.669325	0.327213	-0.166953
C160	C	1.088303	-0.425412	-0.833585
C161	C	1.421637	-0.092078	-0.500251
C162	C	1.754970	0.241255	-0.166918
C163	C	1.020713	-0.407255	-0.882950
C164	C	1.354047	-0.073922	-0.549616
C165	C	1.687380	0.259411	-0.216283
C166	C	1.070219	-0.357677	-0.701221
C167	C	1.403552	-0.024343	-0.367888
C168	C	1.736886	0.308990	-0.034554
C169	C	1.070284	-0.357651	-1.015401
C170	C	1.403617	-0.024318	-0.682068
C171	C	1.736950	0.309016	-0.348735
C172	C	1.070172	-0.357822	-0.164985
C173	C	1.403505	-0.024489	0.168348
C174	C	1.736838	0.308845	0.501681
C175	C	1.070301	-0.357647	-0.082440
C176	C	1.403634	-0.024313	0.250893
C177	C	1.736968	0.309020	0.584227
H178	H	0.634324	-0.242301	-0.314013
H179	H	0.967658	0.091032	0.019321
H180	H	1.300991	0.424365	0.352654
Cl181	Cl	1.225882	-0.799021	-0.399990
Cl182	Cl	1.559216	-0.465688	-0.066657
Cl183	Cl	1.892549	-0.132354	0.266677
Cl184	Cl	1.226011	-0.399499	-0.916512
Cl185	Cl	1.559344	-0.066165	-0.583179
Cl186	Cl	1.892677	0.267168	-0.249845
H187	H	1.161590	-0.903597	-0.266395
H188	H	1.494924	-0.570263	0.066938
H189	H	1.828257	-0.236930	0.400271
Cl190	Cl	0.495905	-0.210315	-0.321313
Cl191	Cl	0.829239	0.123019	0.012020
Cl192	Cl	1.162572	0.456352	0.345353
H193	H	0.506124	-0.313166	-0.242940
H194	H	0.839457	0.020167	0.090394
H195	H	1.172790	0.353501	0.423727
H196	H	1.161557	-0.266082	-0.812011
H197	H	1.494891	0.067252	-0.478677
H198	H	1.828224	0.400585	-0.145344
H199	H	0.633745	-0.313469	-0.242357
H200	H	0.967078	0.019864	0.090976
H201	H	1.300411	0.353197	0.424310
Cl202	Cl	0.496680	-0.402756	-0.502274
Cl203	Cl	0.830014	-0.069423	-0.168940
Cl204	Cl	1.163347	0.263910	0.164393
Cl205	Cl	0.914475	-0.915791	-0.315966
Cl206	Cl	1.247809	-0.582458	0.017367
Cl207	Cl	1.581142	-0.249125	0.350701
Cl208	Cl	0.497076	-0.461754	-0.247420
Cl209	Cl	0.830409	-0.128421	0.085913
Cl210	Cl	1.163743	0.204913	0.419246
Cl211	Cl	0.645023	-0.247299	-0.461051
Cl212	Cl	0.978356	0.086034	-0.127718
Cl213	Cl	1.311689	0.419367	0.205616
Cl214	Cl	1.028635	-0.201426	-0.916591
Cl215	Cl	1.361968	0.131907	-0.583257
Cl216	Cl	1.695301	0.465241	-0.249924
Cl217	Cl	0.956014	-0.472011	-0.916173
Cl218	Cl	1.289347	-0.138677	-0.582839
Cl219	Cl	1.622680	0.194656	-0.249506
Cl220	Cl	1.111832	-0.915477	-0.514214
Cl221	Cl	1.445166	-0.582144	-0.180881
Cl222	Cl	1.778499	-0.248810	0.152452
Cl223	Cl	0.494649	-0.251373	-0.466591
Cl224	Cl	0.827982	0.081961	-0.133258
Cl225	Cl	1.161315	0.415294	0.200076
Cl226	Cl	0.914427	-0.315670	-0.800266
Cl227	Cl	1.247760	0.017663	-0.466933
Cl228	Cl	1.581093	0.350996	-0.133599
Cl229	Cl	1.028416	-0.799514	-0.201639
Cl230	Cl	1.361749	-0.466180	0.131695
Cl231	Cl	1.695083	-0.132847	0.465028
H232	H	0.507248	-0.480122	-0.375935
H233	H	0.840582	-0.146789	-0.042602
H234	H	1.173915	0.186544	0.290731
Cl235	Cl	1.111910	-0.513842	-0.800014
Cl236	Cl	1.445244	-0.180509	-0.466681
Cl237	Cl	1.778577	0.152824	-0.133348
H238	H	0.635034	-0.453193	-0.279700
H239	H	0.968367	-0.119860	0.053634
H240	H	1.301701	0.213474	0.386967
Cl241	Cl	0.646647	-0.396293	-0.505364
Cl242	Cl	0.979980	-0.062959	-0.172031
Cl243	Cl	1.313313	0.270374	0.161302
Cl244	Cl	0.645046	-0.504134	-0.398764
Cl245	Cl	0.978379	-0.170800	-0.065430
Cl246	Cl	1.311712	0.162533	0.267903
Cl247	Cl	0.955994	-0.799299	-0.472152
Cl248	Cl	1.289327	-0.465965	-0.138819
Cl249	Cl	1.622660	-0.132632	0.194514
