data_functionalizedCrystal
_audit_creation_method	'MofGen! by Chris Wilmer'
_symmetry_space_group_name_H-M	'P1'
_symmetry_Int_Tables_number	1
_symmetry_cell_setting	triclinic
loop_
_symmetry_equiv_pos_as_xyz
  x,y,z
_cell_length_a	10.686220
_cell_length_b	12.759399
_cell_length_c	12.759393
_cell_angle_alpha	89.969094
_cell_angle_beta	85.651479
_cell_angle_gamma	85.603213
loop_
_atom_site_label
_atom_site_type_symbol
_atom_site_fract_x
_atom_site_fract_y
_atom_site_fract_z
Zn1	Zn	1.929127	0.294843	0.470991
Zn2	Zn	1.928995	0.470567	0.295318
Zn3	Zn	1.718110	0.308389	0.308783
Zn4	Zn	1.718098	0.483976	0.484405
O5	O	1.823583	0.389444	0.389874
O6	O	2.105683	0.306872	0.436438
O7	O	1.900970	0.449111	0.150086
O8	O	1.746162	0.159567	0.330322
O9	O	2.105585	0.435975	0.307372
O10	O	1.901196	0.149615	0.449495
O11	O	1.746033	0.329960	0.159979
O12	O	1.541535	0.342962	0.343329
O13	O	1.746142	0.458830	0.629643
O14	O	1.541527	0.471965	0.472357
O15	O	1.901185	0.319874	0.619788
O16	O	1.900959	0.619370	0.320379
O17	O	1.746014	0.629222	0.459301
C18	C	1.495748	0.410389	0.410760
C19	C	1.355499	0.419375	0.419721
C20	C	1.823505	0.662416	0.389855
C21	C	1.823588	0.779187	0.389875
C22	C	1.823677	0.389337	0.663902
C23	C	1.823717	0.389291	0.780676
C24	C	2.152697	0.368417	0.368907
C25	C	2.292947	0.359456	0.359972
C26	C	1.823695	0.115403	0.389914
C27	C	1.823742	-0.001377	0.389931
C28	C	1.904360	0.828879	0.317609
C29	C	1.904441	0.938597	0.317639
C30	C	1.742967	0.948925	0.462204
C31	C	1.742893	0.839207	0.462178
C32	C	1.823561	0.389470	0.116908
C33	C	1.823765	0.389204	0.000119
C34	C	1.904454	0.316926	0.830407
C35	C	1.904475	0.316879	0.940130
C36	C	1.743020	0.461572	0.950380
C37	C	1.742993	0.461613	0.840660
H38	H	1.346688	0.301284	0.301963
O39	O	1.664713	1.007176	0.532572
C40	C	1.692187	0.978486	0.635544
H41	H	1.792965	0.941806	0.634487
H42	H	1.624477	0.919152	0.667260
C43	C	1.553747	1.121900	0.707908
C44	C	1.677529	1.076856	0.706611
H45	H	1.544701	1.182577	0.751748
H46	H	1.535233	1.141227	0.638535
H47	H	1.497337	1.072445	0.734335
H48	H	1.733936	1.126306	0.680173
H49	H	1.696053	1.057540	0.775983
H50	H	1.677119	0.798746	0.521031
O51	O	1.982898	0.246567	0.772299
C52	C	2.054182	0.182703	0.839726
H53	H	2.002518	0.182340	0.921228
H54	H	2.150001	0.215049	0.845292
C55	C	2.135857	0.070181	0.695666
C56	C	2.072397	0.069728	0.795765
H57	H	2.147099	0.000494	0.668547
H58	H	2.087836	0.113210	0.650237
H59	H	2.215699	0.097142	0.700317
H60	H	1.992551	0.042781	0.791110
H61	H	2.120406	0.026692	0.841192
H62	H	1.970215	0.979051	0.258795
H63	H	1.677239	0.520542	0.800168
H64	H	1.970217	0.257951	0.980617
H65	H	1.301751	0.477559	0.477726
O66	O	1.982867	0.770729	0.247340
C67	C	2.054152	0.838123	0.183547
H68	H	2.058548	0.916015	0.226327
H69	H	2.008001	0.852843	0.106667
C70	C	2.183027	0.690965	0.107380
C71	C	2.188435	0.786631	0.159928
H72	H	2.265857	0.659202	0.092806
H73	H	2.134998	0.645559	0.150356
H74	H	2.144562	0.703246	0.043320
H75	H	2.226884	0.774348	0.223992
H76	H	2.236473	0.832034	0.116962
O77	O	1.664734	0.531786	1.008805
C78	C	1.682047	0.516218	1.116314
H79	H	1.779443	0.475585	1.125108
H80	H	1.607236	0.465036	1.152223
C81	C	1.550826	0.673148	1.162563
C82	C	1.670454	0.623249	1.173364
H83	H	1.543669	0.739169	1.197756
H84	H	1.539157	0.683635	1.090133
H85	H	1.488497	0.630485	1.192486
H86	H	1.732780	0.665906	1.143429
H87	H	1.682133	0.612772	1.245791
