data_functionalizedCrystal
_audit_creation_method	'MofGen! by Chris Wilmer'
_symmetry_space_group_name_H-M	'P1'
_symmetry_Int_Tables_number	1
_symmetry_cell_setting	triclinic
loop_
_symmetry_equiv_pos_as_xyz
  x,y,z
_cell_length_a	10.967961
_cell_length_b	17.699083
_cell_length_c	16.776229
_cell_angle_alpha	90.001114
_cell_angle_beta	77.866844
_cell_angle_gamma	95.985752
loop_
_atom_site_label
_atom_site_type_symbol
_atom_site_fract_x
_atom_site_fract_y
_atom_site_fract_z
O1	O	0.157798	-1.005077	-0.087848
O2	O	0.178327	-0.784828	-0.090694
O3	O	-0.013601	-0.900029	-0.064316
O4	O	0.349726	-0.889876	-0.114227
O5	O	-0.013613	-0.900014	0.068263
O6	O	0.178316	-0.784813	0.041884
O7	O	0.157786	-1.005061	0.044730
Zn8	Zn	0.168049	-0.894935	0.064357
Zn9	Zn	0.168064	-0.894955	-0.110321
O10	O	0.349715	-0.889860	0.018351
C11	C	0.177586	-0.756619	-0.024307
C12	C	0.175379	-0.672587	-0.024014
C13	C	-0.060094	-0.899281	0.008358
C14	C	-0.198611	-0.897067	0.027380
C15	C	0.158527	-1.033271	-0.021659
C16	C	0.160734	-1.117303	-0.021957
C17	C	-0.403524	-0.893801	-0.013157
C18	C	-0.260359	-0.896088	-0.032823
C19	C	0.396208	-0.890608	-0.054324
C20	C	0.534724	-0.892823	-0.073352
N21	N	0.168037	-0.894926	0.183569
C22	C	0.288037	-0.624679	-0.039490
C23	C	0.285956	-0.545722	-0.039194
C24	C	0.171216	-0.514675	-0.023427
C25	C	0.058549	-0.562590	-0.007948
C26	C	0.060631	-0.641545	-0.008238
C27	C	0.050148	-0.244174	-0.006774
C28	C	0.048075	-0.165213	-0.006487
C29	C	0.275473	-0.148351	-0.037729
C30	C	0.277556	-0.227306	-0.038020
C31	C	0.164890	-0.275213	-0.022536
C32	C	0.167148	-0.360827	-0.022856
C33	C	0.168956	-0.429063	-0.023113
N34	N	0.168066	-0.894969	-0.229532
C35	C	0.083086	-0.945953	0.236962
C36	C	0.083085	-0.945957	0.320414
C37	C	0.168042	-0.894938	0.350472
C38	C	0.252998	-0.843905	0.297072
C39	C	0.252992	-0.843898	0.213623
C40	C	0.253022	-0.843933	0.633616
C41	C	0.253024	-0.843945	0.717072
C42	C	0.083116	-0.945992	0.740408
C43	C	0.083110	-0.945985	0.656958
C44	C	0.168060	-0.894950	0.603567
C45	C	0.168059	-0.894945	0.513079
C46	C	0.168051	-0.894946	0.440957
H47	H	-0.456645	-0.892942	0.052938
O48	O	-0.052802	-0.532308	0.007319
C49	C	-0.030486	-0.452347	0.004276
H50	H	0.066948	-0.434315	-0.034210
H51	H	-0.036470	-0.430342	0.068702
C52	C	-0.249312	-0.441234	0.013177
C53	C	-0.129646	-0.419086	-0.034098
H54	H	-0.310481	-0.420715	-0.010490
H55	H	-0.264349	-0.495105	0.015231
H56	H	-0.254281	-0.422895	0.066863
H57	H	-0.124674	-0.437433	-0.087779
H58	H	-0.114611	-0.365217	-0.036161
H59	H	-0.031107	-0.680552	0.004363
O60	O	0.335378	-0.794345	0.746384
C61	C	0.268636	-0.747311	0.803822
H62	H	0.170935	-0.776957	0.829743
H63	H	0.260262	-0.691329	0.772823
C64	C	0.459018	-0.695096	0.841585
C65	C	0.339023	-0.731511	0.873427
H66	H	0.502437	-0.685347	0.884520
H67	H	0.503985	-0.726782	0.802886
H68	H	0.452023	-0.648449	0.815753
H69	H	0.346020	-0.778162	0.899249
H70	H	0.294059	-0.699833	0.912133
H71	H	-0.207242	-0.896937	-0.098923
H72	H	0.013911	-0.987507	0.363887
H73	H	0.013940	-0.987545	0.783889
O74	O	0.335666	-0.794336	0.581866
C75	C	0.410631	-0.749298	0.626296
H76	H	0.411978	-0.780344	0.685591
H77	H	0.370230	-0.692869	0.640735
C78	C	0.543622	-0.696260	0.502398
C79	C	0.545285	-0.734394	0.575222
H80	H	0.626682	-0.687062	0.470893
H81	H	0.493115	-0.726600	0.472464
H82	H	0.509949	-0.649240	0.514441
H83	H	0.578943	-0.781417	0.563178
H84	H	0.595801	-0.704061	0.605153
H85	H	0.013934	-0.987532	0.632489
O86	O	0.388933	-0.257557	-0.053226
C87	C	0.396952	-0.302715	0.014339
H88	H	0.298544	-0.321861	0.050755
H89	H	0.452271	-0.268133	0.054819
C90	C	0.584785	-0.349382	-0.060460
C91	C	0.463918	-0.372902	-0.015737
H92	H	0.626098	-0.392675	-0.079010
H93	H	0.579386	-0.318956	-0.105979
H94	H	0.630868	-0.320563	-0.026719
H95	H	0.417833	-0.401713	-0.049480
H96	H	0.469311	-0.403335	0.029776
H97	H	-0.251725	-0.896206	0.093480
O98	O	-0.401769	-0.893722	-0.152181
C99	C	-0.312195	-0.829469	-0.168752
H100	H	-0.288040	-0.807976	-0.109304
H101	H	-0.352279	-0.782849	-0.198931
C102	C	-0.222502	-0.877693	-0.299405
C103	C	-0.192826	-0.851298	-0.226391
H104	H	-0.148872	-0.891155	-0.334963
H105	H	-0.282852	-0.920980	-0.288243
H106	H	-0.255907	-0.838838	-0.324544
H107	H	-0.159437	-0.890155	-0.201249
H108	H	-0.132468	-0.808017	-0.237551
H109	H	0.322167	-0.802360	0.321550
H110	H	0.381472	-0.649950	-0.052330
O111	O	0.384806	-0.101703	-0.052712
C112	C	0.358374	-0.025357	-0.049093
H113	H	0.260374	-0.021820	-0.010525
H114	H	0.363174	-0.002548	-0.113354
C115	C	0.575765	0.018104	-0.057801
C116	C	0.455404	0.022449	-0.010425
H117	H	0.635620	0.047595	-0.033952
H118	H	0.593575	-0.033332	-0.060242
H119	H	0.579747	0.037110	-0.111349
H120	H	0.451420	0.003435	0.043118
H121	H	0.437596	0.073883	-0.007974
O122	O	-0.063500	-0.135178	0.008885
C123	C	-0.162497	-0.194392	0.022471
H124	H	-0.127687	-0.248204	0.042786
H125	H	-0.197242	-0.205381	-0.036358
C126	C	-0.313481	-0.105447	0.064387
C127	C	-0.270728	-0.171537	0.089345
H128	H	-0.380246	-0.091349	0.105635
H129	H	-0.246786	-0.065552	0.055231
H130	H	-0.342426	-0.114613	0.015363
H131	H	-0.241770	-0.162367	0.138362
H132	H	-0.337421	-0.211430	0.098510
O133	O	0.000437	-0.995543	0.207908
C134	C	-0.074523	-1.040593	0.272931
H135	H	-0.075862	-1.009561	0.332605
H136	H	-0.034122	-1.097024	0.276247
C137	C	-0.207526	-1.093606	0.185576
C138	C	-0.209180	-1.055489	0.258868
H139	H	-0.290588	-1.102798	0.176901
H140	H	-0.157022	-1.063257	0.141768
H141	H	-0.173853	-1.140628	0.188349
H142	H	-0.242838	-1.008464	0.256091
H143	H	-0.259693	-1.085830	0.302676
O144	O	0.335689	-0.794408	0.161766
C145	C	0.459191	-0.807338	0.165194
H146	H	0.459681	-0.867936	0.188059
H147	H	0.495931	-0.765584	0.208588
C148	C	0.543203	-0.721580	0.051349
C149	C	0.543806	-0.796010	0.079426
H150	H	0.595400	-0.714589	-0.001555
H151	H	0.459998	-0.712867	0.049041
H152	H	0.573817	-0.686794	0.087519
H153	H	0.513178	-0.830795	0.043262
H154	H	0.627009	-0.804729	0.081726
H155	H	0.377694	-0.506718	-0.051797
H156	H	-0.041592	-0.283171	0.005834
