data_functionalizedCrystal
_audit_creation_method	'MofGen! by Chris Wilmer'
_symmetry_space_group_name_H-M	'P1'
_symmetry_Int_Tables_number	1
_symmetry_cell_setting	triclinic
loop_
_symmetry_equiv_pos_as_xyz
  x,y,z
_cell_length_a	16.793024
_cell_length_b	16.793047
_cell_length_c	33.586455
_cell_angle_alpha	113.253857
_cell_angle_beta	66.219990
_cell_angle_gamma	112.758327
loop_
_atom_site_label
_atom_site_type_symbol
_atom_site_fract_x
_atom_site_fract_y
_atom_site_fract_z
O1	O	0.005016	-0.570216	-0.583573
O2	O	-0.034529	-0.474528	-0.453458
O3	O	0.114723	-0.474535	-0.528082
O4	O	-0.144235	-0.570209	-0.508949
O5	O	0.108729	-0.346329	-0.530229
O6	O	-0.040523	-0.346322	-0.455605
O7	O	-0.000977	-0.442010	-0.585721
Zn8	Zn	-0.021701	-0.373810	-0.521004
Zn9	Zn	-0.013805	-0.542728	-0.518175
O10	O	-0.150229	-0.442003	-0.511097
C11	C	0.005100	-0.790970	-0.238461
C12	C	-0.040584	-0.395375	-0.435637
C13	C	-0.044693	-0.353446	-0.386631
C14	C	-0.039275	-0.401741	-0.363054
C15	C	-0.040566	-0.125547	-0.300731
C16	C	-0.044689	-0.223451	-0.321635
C17	C	-0.039266	-0.270752	-0.297563
C18	C	0.005118	-0.521142	-0.103554
C19	C	-0.046224	-0.263935	-0.366370
C20	C	-0.036476	-0.360146	-0.318399
C21	C	-0.030850	-0.408530	-0.294565
C22	C	-0.028014	-0.367522	-0.249895
C23	C	-0.030804	-0.278128	-0.229058
C24	C	-0.036430	-0.229743	-0.252892
C25	C	-0.027971	-0.237122	-0.184383
C26	C	-0.022345	-0.285507	-0.160550
C27	C	-0.019555	-0.374900	-0.181386
C28	C	-0.022391	-0.415909	-0.226057
C29	C	-0.019601	-0.505302	-0.246894
C30	C	-0.013975	-0.553687	-0.223060
C31	C	-0.011142	-0.512684	-0.178391
C32	C	-0.013932	-0.423291	-0.157554
C33	C	-0.005516	-0.561069	-0.154557
C34	C	-0.002726	-0.650463	-0.175394
C35	C	-0.005562	-0.691471	-0.220064
C36	C	-0.011185	-0.643081	-0.243897
C37	C	-0.022434	-0.546309	-0.291568
C38	C	-0.019644	-0.635702	-0.312405
C39	C	-0.014021	-0.684089	-0.288567
C40	C	-0.022480	-0.676711	-0.357076
C41	C	-0.028106	-0.628326	-0.380910
C42	C	-0.030896	-0.538933	-0.360073
C43	C	-0.028060	-0.497924	-0.315402
C44	C	-0.036522	-0.490548	-0.383907
C45	C	0.815184	-0.521162	-0.508596
C46	C	0.415541	-0.125553	-0.528781
C47	C	0.375032	-0.223457	-0.531493
C48	C	0.423813	-0.270761	-0.529101
C49	C	0.149318	-0.395376	-0.530584
C50	C	0.246774	-0.353455	-0.532364
C51	C	0.294574	-0.401748	-0.529976
C52	C	0.548961	-0.790984	-0.510398
C53	C	0.286104	-0.263940	-0.532530
C54	C	0.383336	-0.360149	-0.528302
C55	C	0.432207	-0.407971	-0.525810
C56	C	0.392316	-0.497392	-0.524993
C57	C	0.303554	-0.538991	-0.526667
C58	C	0.254683	-0.491169	-0.529159
C59	C	0.263666	-0.628421	-0.525851
C60	C	0.312537	-0.676243	-0.523359
C61	C	0.401299	-0.634644	-0.521685
C62	C	0.441190	-0.545223	-0.522502
C63	C	0.529952	-0.503624	-0.520828
C64	C	0.578823	-0.551446	-0.518336
C65	C	0.538939	-0.640864	-0.517520
C66	C	0.450177	-0.682463	-0.519194
C67	C	0.587810	-0.688687	-0.515028
C68	C	0.676572	-0.647088	-0.513354
C69	C	0.716463	-0.557666	-0.514172
C70	C	0.667586	-0.509847	-0.516662
C71	C	0.569840	-0.414195	-0.521644
C72	C	0.658602	-0.372596	-0.519970
C73	C	0.707476	-0.420426	-0.517480
C74	C	0.698493	-0.283174	-0.520788
C75	C	0.649622	-0.235352	-0.523280
C76	C	0.560860	-0.276951	-0.524954
C77	C	0.520969	-0.366372	-0.524136
C78	C	0.511989	-0.229129	-0.527446
C79	C	-0.040530	-0.395407	-0.935652
C80	C	0.005063	-0.791004	-0.738448
C81	C	0.009186	-0.693099	-0.717543
C82	C	0.003779	-0.645796	-0.741620
C83	C	0.005077	-0.521171	-0.603544
C84	C	0.009198	-0.563096	-0.652550
C85	C	0.003786	-0.514804	-0.676131
C86	C	-0.040516	-0.125574	-0.800747
C87	C	0.010719	-0.652613	-0.672809
C88	C	0.000994	-0.556406	-0.720789
C89	C	-0.004621	-0.508585	-0.744908
C90	C	-0.007444	-0.419162	-0.724369
C91	C	-0.004651	-0.377560	-0.679711
C92	C	0.000964	-0.425381	-0.655592
C93	C	-0.007471	-0.288129	-0.659174
C94	C	-0.013086	-0.240308	-0.683293
C95	C	-0.015878	-0.281910	-0.727951
C96	C	-0.013056	-0.371333	-0.748490
C97	C	-0.015848	-0.412935	-0.793148
C98	C	-0.021463	-0.365114	-0.817267
C99	C	-0.024282	-0.275694	-0.796731
C100	C	-0.021490	-0.234092	-0.752073
C101	C	-0.029897	-0.227873	-0.820850
C102	C	-0.032690	-0.269476	-0.865508
C103	C	-0.029867	-0.358899	-0.886047
C104	C	-0.024255	-0.406717	-0.861925
C105	C	-0.013028	-0.502367	-0.813685
C106	C	-0.015821	-0.543969	-0.858343
C107	C	-0.021433	-0.496140	-0.882464
C108	C	-0.012998	-0.633392	-0.878882
C109	C	-0.007383	-0.681213	-0.854763
C110	C	-0.004591	-0.639611	-0.810105
C111	C	-0.007414	-0.550188	-0.789566
C112	C	0.001024	-0.687432	-0.785986
O113	O	-0.000965	0.173549	-0.277957
O114	O	-0.040516	-0.085616	-0.325254
O115	O	0.108737	0.059592	-0.327284
O116	O	-0.150219	0.028341	-0.275927
O117	O	0.114753	0.055151	-0.263265
O118	O	-0.034500	-0.090057	-0.261234
O119	O	0.005051	0.169108	-0.213937
Zn120	Zn	-0.013769	0.038820	-0.227421
Zn121	Zn	-0.021696	0.044672	-0.311770
O122	O	-0.144202	0.023900	-0.211907
O123	O	-0.034458	-0.474571	0.046517
O124	O	0.005076	-0.570190	-0.083599
O125	O	-0.144170	-0.570237	-0.008972
O126	O	0.114787	-0.474523	-0.028110
O127	O	-0.150200	-0.442024	-0.011093
O128	O	-0.000954	-0.441976	-0.085720
O129	O	-0.040488	-0.346357	0.044396
Zn130	Zn	-0.021679	-0.373810	-0.020999
Zn131	Zn	-0.013734	-0.542737	-0.018204
O132	O	0.108757	-0.346309	-0.030231
C133	C	-0.850734	0.086244	-0.289716
C134	C	-0.450996	0.035117	-0.097351
C135	C	-0.410501	0.028587	-0.146852
C136	C	-0.459292	0.034683	-0.169840
C137	C	-0.184802	0.024283	-0.235878
C138	C	-0.282257	0.023363	-0.213592
C139	C	-0.330068	0.029423	-0.237088
C140	C	-0.584541	0.075410	-0.428242
C141	C	-0.321573	0.024104	-0.168302
C142	C	-0.418828	0.035176	-0.215083
C143	C	-0.467711	0.041476	-0.238329
C144	C	-0.427833	0.042022	-0.283580
C145	C	-0.339073	0.036269	-0.305586
C146	C	-0.290190	0.029970	-0.282340
C147	C	-0.299198	0.036812	-0.350842
C148	C	-0.348081	0.043111	-0.374088
C149	C	-0.436841	0.048864	-0.352082
C150	C	-0.476719	0.048318	-0.306830
C151	C	-0.565480	0.054071	-0.284825
C152	C	-0.614362	0.060370	-0.308071
C153	C	-0.574491	0.060913	-0.353321
C154	C	-0.485730	0.055160	-0.375326
C155	C	-0.623374	0.067212	-0.376567
C156	C	-0.712134	0.072965	-0.354561
C157	C	-0.752012	0.072419	-0.309309
C158	C	-0.703123	0.066123	-0.286065
C159	C	-0.605355	0.053528	-0.239569
C160	C	-0.694115	0.059281	-0.217564
C161	C	-0.743001	0.065577	-0.240813
C162	C	-0.733993	0.058735	-0.172312
C163	C	-0.685110	0.052436	-0.149066
C164	C	-0.596350	0.046683	-0.171072
C165	C	-0.556472	0.047229	-0.216323
C166	C	-0.547467	0.040383	-0.147826
O167	O	0.585213	0.169090	-0.504004
O168	O	0.494056	-0.090076	-0.525516
O169	O	0.488081	0.055124	-0.449918
O170	O	0.591189	0.023889	-0.579602
O171	O	0.359978	0.059584	-0.452885
O172	O	0.365953	-0.085616	-0.528483
O173	O	0.457110	0.173550	-0.506971
Zn174	Zn	0.391193	0.044675	-0.518198
Zn175	Zn	0.559974	0.038798	-0.514289
O176	O	0.463086	0.028349	-0.582569
C177	C	0.815354	-0.521094	-0.008709
C178	C	0.415547	-0.125494	-0.028771
C179	C	0.375059	-0.223405	-0.031498
C180	C	0.423859	-0.270708	-0.029121
C181	C	0.149365	-0.395355	-0.030599
C182	C	0.246820	-0.353421	-0.032381
C183	C	0.294640	-0.401713	-0.030008
C184	C	0.549171	-0.790955	-0.010537
C185	C	0.286131	-0.263897	-0.032533
C186	C	0.383402	-0.360104	-0.028335
C187	C	0.432293	-0.407926	-0.025859
C188	C	0.392422	-0.497356	-0.025055
C189	C	0.303660	-0.538965	-0.026727
C190	C	0.254769	-0.491143	-0.029204
C191	C	0.263791	-0.628403	-0.025925
C192	C	0.312683	-0.676224	-0.023448
C193	C	0.401445	-0.634615	-0.021775
C194	C	0.441316	-0.545185	-0.022579
C195	C	0.530078	-0.503576	-0.020906
C196	C	0.578969	-0.551398	-0.018429
C197	C	0.539104	-0.640825	-0.017627
C198	C	0.450342	-0.682434	-0.019300
C199	C	0.587995	-0.688646	-0.015150
C200	C	0.676757	-0.647037	-0.013477
C201	C	0.716628	-0.557607	-0.014281
C202	C	0.667731	-0.509789	-0.016757
C203	C	0.569946	-0.414138	-0.021709
C204	C	0.658708	-0.372530	-0.020036
C205	C	0.707602	-0.420359	-0.017561
C206	C	0.698579	-0.283100	-0.020840
C207	C	0.649688	-0.235278	-0.023317
C208	C	0.560926	-0.276887	-0.024990
C209	C	0.521055	-0.366317	-0.024186
C210	C	0.512035	-0.229066	-0.027467
O211	O	-0.620614	0.089309	0.052274
O212	O	-0.529507	0.043784	-0.078544
O213	O	-0.523494	0.194833	-0.006033
O214	O	-0.626628	-0.061740	-0.020236
O215	O	-0.395386	0.185419	-0.005549
O216	O	-0.401400	0.034370	-0.078059
O217	O	-0.492507	0.079895	0.052758
Zn218	Zn	-0.426614	0.055638	-0.012574
Zn219	Zn	-0.595401	0.068041	-0.013212
O220	O	-0.498521	-0.071154	-0.019752
C221	C	-0.437537	0.048335	0.402491
C222	C	-0.837226	0.099430	0.210091
C223	C	-0.739773	0.100339	0.187806
C224	C	-0.691967	0.094287	0.211308
C225	C	-0.571027	0.088563	0.071568
C226	C	-0.611521	0.095108	0.121070
C227	C	-0.562739	0.089011	0.144061
C228	C	-0.171338	0.037467	0.263967
C229	C	-0.700452	0.099593	0.142516
C230	C	-0.603213	0.088528	0.189308
C231	C	-0.554892	0.082255	0.212848
C232	C	-0.466098	0.076466	0.191141
C233	C	-0.425624	0.076949	0.145894
C234	C	-0.473945	0.083222	0.122354
C235	C	-0.336822	0.071163	0.124188
C236	C	-0.288502	0.064890	0.147728
C237	C	-0.328975	0.064407	0.192975
C238	C	-0.417770	0.070196	0.214682
C239	C	-0.458244	0.069713	0.259929
C240	C	-0.409923	0.063441	0.283469
C241	C	-0.321132	0.057655	0.261765
C242	C	-0.280658	0.058138	0.216518
C243	C	-0.272811	0.051382	0.285305
C244	C	-0.313285	0.050899	0.330552
C245	C	-0.402079	0.056688	0.352259
C246	C	-0.450397	0.062957	0.328716
C247	C	-0.547046	0.075500	0.281635
C248	C	-0.587520	0.075016	0.326882
C249	C	-0.539191	0.068747	0.350423
C250	C	-0.676314	0.080806	0.348589
C251	C	-0.724634	0.087078	0.325049
C252	C	-0.684160	0.087561	0.279802
C253	C	-0.595366	0.081772	0.258095
C254	C	-0.732481	0.093834	0.256262
O255	O	-0.040608	-1.085661	-0.825229
O256	O	-0.001018	-0.826491	-0.777938
O257	O	-0.150287	-0.971682	-0.775894
O258	O	0.108661	-0.940470	-0.827272
O259	O	-0.144253	-0.976123	-0.711878
O260	O	0.005016	-0.830932	-0.713922
O261	O	-0.034575	-1.090102	-0.761213
Zn262	Zn	-0.013821	-0.961222	-0.727403
Zn263	Zn	-0.021771	-0.955371	-0.811747
O264	O	0.114695	-0.944911	-0.763256
C265	C	0.026348	-0.135723	-0.395666
C266	C	-0.049775	-0.210057	-0.393259
H267	H	0.024160	-0.102464	-0.412269
H268	H	0.027009	-0.098361	-0.365887
H269	H	0.079502	-0.155933	-0.410481
H270	H	-0.102929	-0.189846	-0.378441
H271	H	-0.050444	-0.247425	-0.423043
H272	H	-0.580066	0.039960	-0.110823
C273	C	0.098996	-0.490260	0.006216
C274	C	0.156803	-0.537066	-0.031056
H275	H	0.038517	-0.518609	0.005070
H276	H	0.103436	-0.490525	0.033473
H277	H	0.115824	-0.429907	0.005377
H278	H	0.139980	-0.597418	-0.030216
H279	H	0.152359	-0.536811	-0.058320
C280	C	0.318602	-0.829771	-0.059890
C281	C	0.268681	-0.774933	-0.022563
H282	H	0.291440	-0.890709	-0.059340
H283	H	0.319514	-0.824053	-0.087110
H284	H	0.378707	-0.811750	-0.058529
H285	H	0.208577	-0.792950	-0.023925
H286	H	0.267760	-0.780656	0.004664
C287	C	-0.880168	0.020502	0.326230
C288	C	-0.822638	0.093477	0.349019
H289	H	-0.940668	0.024456	0.341035
H290	H	-0.862930	0.021699	0.295796
H291	H	-0.875931	-0.034140	0.326412
H292	H	-0.826871	0.148120	0.348835
H293	H	-0.839882	0.092289	0.379461
C294	C	-0.048515	-0.696546	-0.108448
C295	C	0.017712	-0.696519	-0.150432
H296	H	-0.035900	-0.724985	-0.093040
H297	H	-0.048426	-0.636290	-0.090727
H298	H	-0.106135	-0.728397	-0.113106
H299	H	0.075331	-0.664662	-0.145774
H300	H	0.017631	-0.756786	-0.168157
H301	H	0.710767	-0.684484	-0.506030
C302	C	-0.156495	0.052861	0.154110
C303	C	-0.190498	0.058496	0.123769
H304	H	-0.095994	0.048904	0.139317
H305	H	-0.157808	0.104999	0.179430
H306	H	-0.192617	0.000848	0.164154
H307	H	-0.154380	0.110513	0.113727
H308	H	-0.189179	0.006353	0.098441
H309	H	-0.030255	-0.164038	-0.167345
H310	H	-0.020209	-0.749804	-0.374113
H311	H	-0.740818	0.102779	0.123104
C312	C	-0.014636	-0.808647	-0.355990
C313	C	-0.010944	-0.782761	-0.311566
H314	H	-0.012732	-0.869560	-0.370187
H315	H	-0.069171	-0.802737	-0.355365
H316	H	0.035502	-0.771209	-0.372549
H317	H	-0.061085	-0.820195	-0.295006
H318	H	0.043597	-0.788679	-0.312189
C319	C	-0.035810	-0.105194	-0.185470
C320	C	-0.039504	-0.131076	-0.229894
H321	H	-0.037698	-0.044277	-0.171275
H322	H	-0.085945	-0.142622	-0.168912
H323	H	0.018728	-0.111117	-0.186098
H324	H	-0.094046	-0.125160	-0.229267
H325	H	0.010636	-0.093638	-0.246457
H326	H	0.245737	-0.223998	-0.033572
C327	C	0.718922	-0.085200	-0.484557
C328	C	0.693615	-0.136638	-0.524161
H329	H	0.746078	-0.024257	-0.485098
H330	H	0.666943	-0.088638	-0.458883
H331	H	0.760921	-0.107814	-0.482837
H332	H	0.651611	-0.114028	-0.525880
H333	H	0.745601	-0.133195	-0.549843
H334	H	-0.030422	-0.661858	-0.417434
C335	C	-0.035946	-0.624836	-0.446534
C336	C	-0.039613	-0.535794	-0.433220
H337	H	-0.037849	-0.652765	-0.476978
H338	H	0.018580	-0.625293	-0.444409
H339	H	-0.086094	-0.656840	-0.427249
H340	H	0.010539	-0.503788	-0.452503
H341	H	-0.094145	-0.535332	-0.435348
H342	H	0.245727	-0.224039	-0.533582
C343	C	0.863369	-0.421243	-0.053018
C344	C	0.805588	-0.374425	-0.015734
H345	H	0.923862	-0.392881	-0.051897
H346	H	0.846564	-0.481579	-0.052171
H347	H	0.858875	-0.421005	-0.080271
H348	H	0.810076	-0.374668	0.011519
H349	H	0.822397	-0.314072	-0.016577
H350	H	-0.047834	-0.232081	-0.882358
C351	C	-0.167445	0.025434	-0.351441
C352	C	-0.192224	0.023619	-0.306629
H353	H	-0.106961	0.021522	-0.366433
H354	H	-0.206664	-0.024065	-0.366782
H355	H	-0.171891	0.080088	-0.351495
H356	H	-0.187784	-0.031038	-0.306574
H357	H	-0.152993	0.073123	-0.291283
C358	C	0.267141	-0.783333	-0.482316
C359	C	0.268507	-0.774941	-0.522458
H360	H	0.239953	-0.844265	-0.481759
H361	H	0.327239	-0.765335	-0.480961
H362	H	0.233289	-0.746099	-0.457005
H363	H	0.302365	-0.812170	-0.547770
H364	H	0.208398	-0.792950	-0.523818
C365	C	-0.353116	0.049357	-0.439740
C366	C	-0.441709	0.055764	-0.425274
H367	H	-0.325947	0.049726	-0.470575
H368	H	-0.319269	0.099071	-0.421588
H369	H	-0.354053	-0.005081	-0.436873
H370	H	-0.440772	0.110205	-0.428138
H371	H	-0.475565	0.006045	-0.443431
H372	H	-0.015393	-0.167196	-0.666497
H373	H	-0.746339	0.088530	-0.372795
H374	H	0.771156	-0.249077	-0.019476
H375	H	0.417746	-0.755558	-0.018645
C376	C	0.141055	-0.763284	-0.026536
C377	C	0.165824	-0.674325	-0.027769
H378	H	0.080570	-0.791635	-0.027672
H379	H	0.180276	-0.795021	-0.051820
H380	H	0.145507	-0.763524	0.000727
H381	H	0.161378	-0.674086	-0.055034
H382	H	0.126592	-0.642580	-0.002483
H383	H	-0.020027	-0.251971	-0.124027
H384	H	-0.005085	-0.754331	-0.871556
C385	C	-0.020783	-0.630997	-0.944754
C386	C	-0.024477	-0.542048	-0.931762
H387	H	-0.022656	-0.659331	-0.975189
H388	H	0.033738	-0.631221	-0.942522
H389	H	-0.070937	-0.662765	-0.925366
H390	H	0.025680	-0.510277	-0.951149
H391	H	-0.079005	-0.541818	-0.933998
C392	C	-0.865708	0.070259	-0.171691
C393	C	-0.840939	0.072029	-0.216509
H394	H	-0.926157	0.074277	-0.156684
H395	H	-0.861352	0.015584	-0.171621
H396	H	-0.826418	0.119726	-0.156370
H397	H	-0.880225	0.022557	-0.231831
H398	H	-0.845302	0.126710	-0.216582
C399	C	-0.836653	0.180801	0.279908
C400	C	-0.830485	0.100245	0.280203
H401	H	-0.897156	0.184762	0.294682
H402	H	-0.797643	0.230293	0.295379
H403	H	-0.819357	0.181972	0.249461
H404	H	-0.847775	0.099078	0.310651
H405	H	-0.869508	0.050741	0.264734
C406	C	0.404768	-0.789560	-0.478151
C407	C	0.406138	-0.781165	-0.518293
H408	H	0.377578	-0.850493	-0.477595
H409	H	0.464866	-0.771565	-0.476796
H410	H	0.370916	-0.752326	-0.452839
H411	H	0.439995	-0.818395	-0.543605
H412	H	0.346030	-0.799171	-0.519653
H413	H	0.710969	-0.684436	-0.006165
H414	H	0.780052	-0.386407	-0.516111
C415	C	0.131922	-0.626036	-0.529758
C416	C	0.156715	-0.537084	-0.531007
H417	H	0.071436	-0.654378	-0.530895
H418	H	0.171136	-0.657790	-0.555037
H419	H	0.136365	-0.626263	-0.502491
H420	H	0.152278	-0.536857	-0.558276
H421	H	0.117489	-0.505322	-0.505726
H422	H	-0.011621	-0.389765	-0.121028
H423	H	0.682288	-0.162154	-0.023969
C424	C	-0.008070	-0.153261	-0.596899
C425	C	-0.004392	-0.242213	-0.609884
H426	H	-0.006174	-0.124914	-0.566468
H427	H	0.042066	-0.121511	-0.616295
H428	H	-0.062608	-0.153032	-0.599120
H429	H	0.050149	-0.242441	-0.607666
H430	H	-0.054533	-0.273970	-0.590482
C431	C	-0.245170	0.102800	0.390098
C432	C	-0.262742	0.029720	0.352898
H433	H	-0.213973	0.089721	0.403894
H434	H	-0.209005	0.154887	0.380134
H435	H	-0.300622	0.113344	0.411498
H436	H	-0.207290	0.019180	0.331496
H437	H	-0.298908	-0.022382	0.362861
C438	C	-0.805724	-0.021826	-0.095582
C439	C	-0.729118	0.051830	-0.099119
H440	H	-0.832889	-0.022203	-0.064747
H441	H	-0.847707	-0.017223	-0.106316
H442	H	-0.788525	-0.076007	-0.113278
H443	H	-0.746319	0.106011	-0.081425
H444	H	-0.687128	0.047235	-0.088378
C445	C	0.506041	-0.075549	0.008991
C446	C	0.555997	-0.130346	-0.028342
H447	H	0.533175	-0.014602	0.008453
H448	H	0.445942	-0.093594	0.007628
H449	H	0.505140	-0.081277	0.036210
H450	H	0.556893	-0.124623	-0.055562
H451	H	0.616112	-0.112295	-0.026984
H452	H	0.191099	-0.662437	-0.527221
C453	C	-0.340771	0.077312	0.058274
C454	C	-0.429275	0.083747	0.072413
H455	H	-0.313198	0.077626	0.027440
H456	H	-0.307150	0.127045	0.076527
H457	H	-0.341946	0.022892	0.061258
H458	H	-0.428100	0.138171	0.069432
H459	H	-0.462904	0.034011	0.054154
H460	H	-0.303725	0.071562	0.087197
C461	C	0.802981	-0.237619	-0.478743
C462	C	0.796465	-0.237261	-0.518939
H463	H	0.863463	-0.209276	-0.477602
H464	H	0.763764	-0.205857	-0.453471
H465	H	0.786147	-0.297971	-0.477901
H466	H	0.813292	-0.176908	-0.519780
H467	H	0.835695	-0.269021	-0.544218
C468	C	-0.672375	0.074631	0.414505
C469	C	-0.583868	0.068204	0.400364
H470	H	-0.699954	0.074288	0.445334
H471	H	-0.671207	0.129052	0.411533
H472	H	-0.705991	0.024901	0.396241
H473	H	-0.550249	0.117938	0.418625
H474	H	-0.585030	0.013776	0.403340
H475	H	-0.208057	0.053400	0.198770
H476	H	-0.226632	0.032105	-0.368836
C477	C	0.049304	-0.080530	-0.753991
C478	C	-0.024604	-0.135388	-0.729401
H479	H	0.047376	-0.019597	-0.739997
H480	H	0.103829	-0.086237	-0.754490
H481	H	0.046818	-0.098544	-0.784162
H482	H	-0.022114	-0.117378	-0.699231
H483	H	-0.079143	-0.129676	-0.728898
C484	C	-0.069886	-0.426290	-0.577718
C485	C	0.004032	-0.379461	-0.606300
H486	H	-0.067994	-0.397943	-0.547287
H487	H	-0.124405	-0.426049	-0.579946
H488	H	-0.067380	-0.486636	-0.586536
H489	H	0.001522	-0.319118	-0.597485
H490	H	0.058565	-0.379693	-0.604071
H491	H	0.013347	-0.692513	-0.652885
C492	C	0.000484	-0.812666	-0.853125
C493	C	0.004135	-0.786136	-0.808652
H494	H	0.002410	-0.873599	-0.867118
H495	H	-0.054047	-0.806960	-0.852621
H496	H	0.050626	-0.775437	-0.869800
H497	H	-0.046011	-0.823361	-0.791976
H498	H	0.058673	-0.791850	-0.809154
C499	C	-0.239968	-0.059848	-0.163255
C500	C	-0.267056	0.019805	-0.142107
H501	H	-0.206306	-0.062495	-0.147085
H502	H	-0.291825	-0.110095	-0.163479
H503	H	-0.203389	-0.060965	-0.193543
H504	H	-0.303641	0.020919	-0.111821
H505	H	-0.215192	0.070065	-0.141878
H506	H	0.544602	-0.156012	-0.528109
H507	H	-0.709407	0.080425	0.385586
H508	H	-0.015274	-0.667410	-0.915397
H509	H	-0.806568	0.063430	-0.154318
H510	H	-0.315470	0.043557	-0.411085
