data_functionalizedCrystal
_audit_creation_method	'MofGen! by Chris Wilmer'
_symmetry_space_group_name_H-M	'P1'
_symmetry_Int_Tables_number	1
_symmetry_cell_setting	triclinic
loop_
_symmetry_equiv_pos_as_xyz
  x,y,z
_cell_length_a	11.026607
_cell_length_b	9.730223
_cell_length_c	10.967829
_cell_angle_alpha	102.132010
_cell_angle_beta	96.380563
_cell_angle_gamma	90.001210
loop_
_atom_site_label
_atom_site_type_symbol
_atom_site_fract_x
_atom_site_fract_y
_atom_site_fract_z
O1	O	1.614519	0.238276	0.523512
O2	O	1.260716	0.224159	0.463899
O3	O	1.445778	0.188624	0.313888
O4	O	1.429458	0.273810	0.673523
O5	O	1.445771	-0.039957	0.313882
O6	O	1.260710	-0.004422	0.463893
O7	O	1.614512	0.009694	0.523506
Zn8	Zn	1.437610	-0.033656	0.493698
Zn9	Zn	1.437619	0.267510	0.493707
O10	O	1.429451	0.045229	0.673517
C11	C	1.215411	0.107264	0.452899
C12	C	1.080423	0.099500	0.420115
N13	N	1.437613	-0.239194	0.493694
C14	C	1.007372	0.120943	0.510637
C15	C	0.867855	0.112919	0.476755
C16	C	1.363259	-0.333035	0.401262
C17	C	1.363262	-0.476917	0.401269
C18	C	1.511982	-0.433101	0.586145
C19	C	1.511972	-0.289221	0.586142
C20	C	1.288900	-0.283008	0.308814
C21	C	1.214541	-0.376851	0.216374
C22	C	1.214544	-0.520732	0.216381
C23	C	1.288906	-0.570770	0.308828
C24	C	1.659818	0.126592	0.534506
C25	C	1.794805	0.134365	0.567290
C26	C	1.444587	0.063261	0.267129
C27	C	1.441032	0.030269	0.127805
N28	N	1.437626	0.473045	0.493703
C29	C	1.439451	0.133973	0.065700
C30	C	1.435777	0.099877	-0.078298
C31	C	1.430642	0.170595	0.720277
C32	C	1.434197	0.203596	0.859600
H33	H	0.827115	0.088655	0.374167
H34	H	0.835544	0.158656	0.669879
H35	H	1.434404	-0.014159	-0.131729
H36	H	1.572524	-0.473855	0.661410
O37	O	1.439240	-0.120777	0.057034
H38	H	1.355005	-0.142549	-0.010086
O39	O	1.026460	0.067303	0.284230
H40	H	1.101194	0.052803	0.223075
O41	O	1.288897	-0.127808	0.308867
H42	H	1.318084	-0.111024	0.219343
H43	H	1.153991	-0.336098	0.141114
O44	O	1.061324	0.153121	0.646525
H45	H	1.118474	0.250852	0.665789
H46	H	1.153989	-0.597135	0.141119
O47	O	1.436009	0.354656	-0.069645
H48	H	1.438620	0.357737	0.032354
H49	H	1.440812	0.248001	0.119135
O50	O	1.288921	-0.725958	0.308836
H51	H	1.224730	-0.782811	0.229026
H52	H	1.572512	-0.212812	0.661412
