data_functionalizedCrystal
_audit_creation_method	'MofGen! by Chris Wilmer'
_symmetry_space_group_name_H-M	'P1'
_symmetry_Int_Tables_number	1
_symmetry_cell_setting	triclinic
loop_
_symmetry_equiv_pos_as_xyz
  x,y,z
_cell_length_a	15.944499
_cell_length_b	15.944499
_cell_length_c	15.072220
_cell_angle_alpha	90.002115
_cell_angle_beta	90.015087
_cell_angle_gamma	96.522390
loop_
_atom_site_label
_atom_site_type_symbol
_atom_site_fract_x
_atom_site_fract_y
_atom_site_fract_z
O1	O	1.114542	-0.108122	0.073829
O2	O	1.614542	0.391878	0.573829
O3	O	0.869983	-0.121524	0.073819
O4	O	1.369983	0.378476	0.573819
O5	O	0.998963	0.007456	0.073826
O6	O	1.498963	0.507456	0.573826
O7	O	0.985562	-0.237102	0.073822
O8	O	1.485562	0.262898	0.573822
O9	O	0.998932	0.007449	-0.073739
O10	O	1.498932	0.507449	0.426261
O11	O	0.869952	-0.121531	-0.073747
O12	O	1.369952	0.378469	0.426253
O13	O	1.114510	-0.108129	-0.073736
O14	O	1.614510	0.391871	0.426264
Zn15	Zn	0.992226	-0.114832	-0.097170
Zn16	Zn	1.492226	0.385168	0.402830
Zn17	Zn	0.992268	-0.114822	0.097253
Zn18	Zn	1.492268	0.385178	0.597253
O19	O	0.985530	-0.237109	-0.073743
O20	O	1.485530	0.262891	0.426257
C21	C	0.838673	-0.120979	0.000035
C22	C	1.338673	0.379021	0.500035
C23	C	0.745425	-0.119334	0.000031
C24	C	1.245425	0.380666	0.500031
C25	C	0.453875	-0.194268	0.000043
C26	C	0.953875	0.305732	0.500043
C27	C	0.514927	-0.155312	0.072803
C28	C	1.014927	0.344688	0.572803
C29	C	0.409789	-0.113358	0.000051
C30	C	0.909789	0.386642	0.500051
C31	C	0.514882	-0.155297	-0.072685
C32	C	1.014882	0.344703	0.427315
C33	C	0.574698	-0.116298	0.000040
C34	C	1.074698	0.383702	0.500040
C35	C	0.469614	-0.074379	0.072871
C36	C	0.969614	0.425621	0.572871
C37	C	0.469562	-0.074376	-0.072682
C38	C	0.969562	0.425624	0.427318
C39	C	0.530596	-0.035361	0.000095
C40	C	1.030596	0.464639	0.500095
C41	C	0.314790	-0.111666	0.000059
C42	C	0.814790	0.388334	0.500059
C43	C	0.669696	-0.117984	0.000039
C44	C	1.169696	0.382016	0.500039
C45	C	0.998399	0.038747	0.000045
C46	C	1.498399	0.538747	0.500045
C47	C	0.996754	0.131995	0.000052
C48	C	1.496754	0.631995	0.500052
C49	C	1.145820	-0.108675	0.000050
C50	C	1.645820	0.391325	0.500050
C51	C	1.239068	-0.110320	0.000059
C52	C	1.739068	0.389680	0.500059
C53	C	0.986094	-0.268400	0.000039
C54	C	1.486094	0.231600	0.500039
C55	C	0.987739	-0.361648	0.000038
C56	C	1.487739	0.138352	0.500038
C57	C	1.071688	0.423545	0.000050
C58	C	1.571688	0.923545	0.500050
C59	C	1.032719	0.362509	-0.072712
C60	C	1.532719	0.862509	0.427288
C61	C	0.990778	0.467630	0.000041
C62	C	1.490778	0.967630	0.500041
C63	C	1.032729	0.362522	0.072776
C64	C	1.532729	0.862522	0.572776
C65	C	0.993718	0.302722	0.000048
C66	C	1.493718	0.802722	0.500048
C67	C	0.951787	0.407822	-0.072781
C68	C	1.451787	0.907822	0.427219
C69	C	0.951808	0.407842	0.072772
C70	C	1.451808	0.907842	0.572772
C71	C	0.912781	0.346824	-0.000008
C72	C	1.412781	0.846824	0.499992
C73	C	0.989086	0.562630	0.000037
C74	C	1.489086	1.062630	0.500037
C75	C	0.995404	0.207723	0.000046
C76	C	1.495404	0.707723	0.500046
N77	N	0.992203	-0.114837	-0.229859
N78	N	1.492203	0.385163	0.270141
C79	C	0.992266	-0.114819	-0.589061
C80	C	1.492266	0.385181	-0.089061
C81	C	0.923019	-0.183602	-0.551458
C82	C	1.423019	0.316398	-0.051458
C83	C	0.923178	-0.183853	-0.448632
C84	C	1.423178	0.316147	0.051368
C85	C	0.992234	-0.114828	-0.410857
C86	C	1.492234	0.385172	0.089143
C87	C	1.079876	-0.133960	-0.448144
C88	C	1.579876	0.366040	0.051856
C89	C	1.079488	-0.134448	-0.551002
C90	C	1.579488	0.365552	-0.051002
C91	C	0.974651	-0.026700	-0.551161
C92	C	1.474651	0.473300	-0.051161
C93	C	0.972640	-0.027288	-0.448297
C94	C	1.472640	0.472712	0.051703
C95	C	0.992221	-0.114832	-0.310143
C96	C	1.492221	0.385168	0.189857
C97	C	0.992284	-0.114817	-0.689774
C98	C	1.492284	0.385183	-0.189774
N99	N	0.992297	-0.114809	0.229942
N100	N	1.492297	0.385191	0.729942
H101	H	0.563786	0.031847	0.000135
H102	H	1.063786	0.531847	0.500135
H103	H	0.857662	-0.172393	-0.576222
H104	H	1.357662	0.327607	-0.076222
N105	N	0.409694	-0.283205	0.000137
N106	N	0.909694	0.216795	0.500137
H107	H	0.373590	-0.292477	-0.054833
H108	H	0.873590	0.207523	0.445167
H109	H	0.453128	-0.324636	0.000775
H110	H	0.953128	0.175364	0.500775
H111	H	0.534937	-0.189536	-0.134195
H112	H	1.034937	0.310464	0.365805
H113	H	1.066929	0.342421	-0.134222
H114	H	1.566929	0.842421	0.365778
N115	N	0.891819	-0.002345	-0.585559
N116	N	1.391819	0.497655	-0.085559
H117	H	0.852852	0.005072	-0.534033
H118	H	1.352852	0.505072	-0.034033
H119	H	0.902306	0.052377	-0.619638
H120	H	1.402306	0.552377	-0.119638
N121	N	0.906489	0.434273	-0.154359
N122	N	1.406489	0.934273	0.345641
H123	H	0.887084	0.382844	-0.191283
H124	H	1.387084	0.882844	0.308717
H125	H	0.855971	0.462977	-0.135845
H126	H	1.355971	0.962977	0.364155
N127	N	0.823767	0.302838	-0.000061
N128	N	1.323767	0.802838	0.499939
H129	H	0.792968	0.320052	0.054359
H130	H	1.292968	0.820052	0.554359
H131	H	0.793380	0.319309	-0.055078
H132	H	1.293380	0.819309	0.444922
N133	N	1.100051	-0.219570	-0.582778
N134	N	1.600051	0.280430	-0.082778
H135	H	1.109280	-0.256423	-0.529969
H136	H	1.609280	0.243577	-0.029969
H137	H	1.051640	-0.247186	-0.619586
H138	H	1.551640	0.252814	-0.119586
N139	N	1.149767	-0.069365	-0.415740
N140	N	1.649767	0.430635	0.084260
H141	H	1.125231	-0.026979	-0.376481
H142	H	1.625231	0.473021	0.123519
H143	H	1.192050	-0.098624	-0.380848
H144	H	1.692050	0.401376	0.119152
H145	H	0.917627	0.427951	0.134285
H146	H	1.417627	0.927951	0.634285
H147	H	0.535032	-0.189534	0.134310
H148	H	1.035032	0.310466	0.634310
H149	H	1.138835	0.456887	-0.000016
H150	H	1.638835	0.956887	0.499984
H151	H	0.858032	-0.172456	-0.423424
H152	H	1.358032	0.327544	0.076576
H153	H	1.132625	-0.086325	-0.575874
H154	H	1.632625	0.413675	-0.075874
H155	H	1.095771	-0.197491	-0.422375
H156	H	1.595771	0.302509	0.077625
H157	H	0.908170	-0.012769	-0.423928
H158	H	1.408170	0.487231	0.076072
H159	H	1.066979	0.342451	0.134285
H160	H	1.566979	0.842451	0.634285
H161	H	0.449654	-0.040186	0.134453
H162	H	0.949654	0.459814	0.634453
H163	H	0.934111	-0.248626	-0.577296
H164	H	1.434111	0.251374	-0.077296
H165	H	0.449438	-0.040185	-0.134195
H166	H	0.949438	0.459815	0.365805
H167	H	0.934425	-0.249245	-0.424018
H168	H	1.434425	0.250755	0.075982
H169	H	1.019801	0.026294	-0.422586
H170	H	1.519801	0.526294	0.077414
N171	N	1.041537	0.041106	-0.583365
N172	N	1.541537	0.541106	-0.083365
H173	H	1.083053	0.014921	-0.622313
H174	H	1.583053	0.514921	-0.122313
H175	H	1.014047	0.084474	-0.618535
H176	H	1.514047	0.584474	-0.118535
