data_functionalizedCrystal
_audit_creation_method	'MofGen! by Chris Wilmer'
_symmetry_space_group_name_H-M	'P1'
_symmetry_Int_Tables_number	1
_symmetry_cell_setting	triclinic
loop_
_symmetry_equiv_pos_as_xyz
  x,y,z
_cell_length_a	29.839131
_cell_length_b	19.121215
_cell_length_c	19.120904
_cell_angle_alpha	90.126793
_cell_angle_beta	87.590850
_cell_angle_gamma	92.474873
loop_
_atom_site_label
_atom_site_type_symbol
_atom_site_fract_x
_atom_site_fract_y
_atom_site_fract_z
Zn1	Zn	-0.162216	1.054798	0.442219
Zn2	Zn	0.337784	1.554798	0.942219
Zn3	Zn	-0.234011	1.059686	0.324975
Zn4	Zn	0.265989	1.559686	0.824975
Zn5	Zn	-0.161948	0.942564	0.319985
Zn6	Zn	0.338052	1.442564	0.819985
Zn7	Zn	-0.240375	0.937492	0.437156
Zn8	Zn	0.259625	1.437492	0.937156
O9	O	-0.199637	0.998635	0.381084
O10	O	0.300363	1.498635	0.881084
O11	O	-0.169188	1.153555	0.430874
O12	O	0.330812	1.653555	0.930874
O13	O	-0.221677	1.048318	0.226209
O14	O	0.278323	1.548318	0.726209
O15	O	-0.099115	0.957530	0.336230
O16	O	0.400885	1.457530	0.836230
O17	O	-0.221936	1.157146	0.344735
O18	O	0.278064	1.657146	0.844735
O19	O	-0.099312	1.039987	0.426035
O20	O	0.400688	1.539987	0.926035
O21	O	-0.168732	0.962269	0.222543
O22	O	0.331268	1.462269	0.722543
O23	O	-0.174903	0.843783	0.331320
O24	O	0.325097	1.343783	0.831320
O25	O	-0.232782	0.948884	0.535932
O26	O	0.267218	1.448884	1.035932
O27	O	-0.232522	0.840056	0.417406
O28	O	0.267478	1.340056	0.917406
O29	O	-0.175359	1.035068	0.539652
O30	O	0.324641	1.535068	1.039652
O31	O	-0.297724	1.043399	0.339826
O32	O	0.202276	1.543399	0.839826
O33	O	-0.302399	0.953624	0.422245
O34	O	0.197601	1.453624	0.922245
C35	C	-0.204374	0.816481	0.373272
C36	C	0.295626	1.316481	0.873272
C37	C	-0.206412	0.738554	0.369947
C38	C	0.293588	1.238554	0.869947
C39	C	-0.219313	0.297906	0.348911
C40	C	0.280687	0.797906	0.848911
C41	C	-0.217396	0.371127	0.352030
C42	C	0.282604	0.871127	0.852030
C43	C	-0.189023	0.405867	0.398510
C44	C	0.310977	0.905867	0.898510
C45	C	-0.162563	0.367382	0.441869
C46	C	0.337437	0.867382	0.941869
C47	C	-0.164478	0.294163	0.438747
C48	C	0.335522	0.794163	0.938747
C49	C	-0.181867	0.626849	0.410184
C50	C	0.318133	1.126849	0.910184
C51	C	-0.179955	0.700074	0.413305
C52	C	0.320045	1.200074	0.913305
C53	C	-0.234787	0.703814	0.323464
C54	C	0.265213	1.203814	0.823464
C55	C	-0.236702	0.630593	0.320348
C56	C	0.263298	1.130593	0.820348
C57	C	-0.210240	0.592114	0.363704
C58	C	0.289760	1.092114	0.863704
C59	C	-0.187064	0.480710	0.401701
C60	C	0.312936	0.980710	0.901701
C61	C	-0.212197	0.517272	0.360510
C62	C	0.287803	1.017272	0.860510
C63	C	-0.316362	0.998510	0.381044
C64	C	0.183638	1.498510	0.881044
C65	C	-0.366297	0.998519	0.381053
C66	C	0.133703	1.498519	0.881053
C67	C	-0.673490	1.045460	0.338237
C68	C	-0.173490	1.545460	0.838237
C69	C	-0.861162	1.045545	0.338268
C70	C	-0.361162	1.545545	0.838268
O71	O	-0.883346	1.085356	0.301834
O72	O	-0.383346	1.585356	0.801834
N73	N	-0.887077	0.998778	0.381143
N74	N	-0.387077	1.498778	0.881143
C75	C	-0.866072	0.951989	0.424016
C76	C	-0.366072	1.451989	0.924016
O77	O	-0.892420	0.912218	0.460490
O78	O	-0.392420	1.412218	0.960490
C79	C	-0.678401	0.951908	0.423989
C80	C	-0.178401	1.451908	0.923989
C81	C	-0.652488	0.998673	0.381106
C82	C	-0.152488	1.498673	0.881106
C83	C	-0.647578	1.092222	0.295359
C84	C	-0.147578	1.592222	0.795359
C85	C	-0.600663	1.092197	0.295349
C86	C	-0.100663	1.592197	0.795349
C87	C	-0.579660	1.045411	0.338217
C88	C	-0.079660	1.545411	0.838217
C89	C	-0.605573	0.998649	0.381096
C90	C	-0.105573	1.498649	0.881096
C91	C	-0.657396	0.905123	0.466865
C92	C	-0.157396	1.405123	0.966865
C93	C	-0.610475	0.905108	0.466856
C94	C	-0.110475	1.405108	0.966856
C95	C	-0.584563	0.951873	0.423973
C96	C	-0.084563	1.451873	0.923973
C97	C	-0.537656	0.951838	0.423954
C98	C	-0.037656	1.451838	0.923954
N99	N	-0.511740	0.998605	0.381080
N100	N	-0.011740	1.498605	0.881080
C101	C	-0.532743	1.045391	0.338211
C102	C	-0.032743	1.545391	0.838211
C103	C	-0.964601	0.952034	0.424027
C104	C	-0.464601	1.452034	0.924027
C105	C	-1.011519	0.952054	0.424033
C106	C	-0.511519	1.452054	0.924033
C107	C	-1.006606	1.045611	0.338286
C108	C	-0.506606	1.545611	0.838286
C109	C	-0.959688	1.045587	0.338276
C110	C	-0.459688	1.545587	0.838276
C111	C	-0.938686	0.998801	0.381152
C112	C	-0.438686	1.498801	0.881152
C113	C	-0.434218	1.045336	0.338193
C114	C	0.065782	1.545336	0.838193
C115	C	-0.387299	1.045306	0.338184
C116	C	0.112701	1.545306	0.838184
C117	C	-0.392216	0.951752	0.423934
C118	C	0.107784	1.451752	0.923934
C119	C	-0.439131	0.951779	0.423940
C120	C	0.060869	1.451779	0.923940
C121	C	-0.460131	0.998577	0.381067
C122	C	0.039869	1.498577	0.881067
O123	O	-0.515442	0.912053	0.460375
O124	O	-0.015442	1.412053	0.960375
O125	O	-0.506386	1.085167	0.301754
O126	O	-0.006386	1.585167	0.801754
C127	C	-0.720405	1.045484	0.338247
C128	C	-0.220405	1.545484	0.838247
C129	C	-0.746318	0.998722	0.381126
C130	C	-0.246318	1.498722	0.881126
C131	C	-0.725316	0.951936	0.423995
C132	C	-0.225316	1.451936	0.923995
C133	C	-0.793236	0.998741	0.381132
C134	C	-0.293236	1.498741	0.881132
C135	C	-0.814238	1.045528	0.338264
C136	C	-0.314238	1.545528	0.838264
C137	C	-0.788323	1.092295	0.295389
C138	C	-0.288323	1.592295	0.795389
C139	C	-0.741408	1.092270	0.295379
C140	C	-0.241408	1.592270	0.795379
C141	C	-0.751231	0.905168	0.466870
C142	C	-0.251231	1.405168	0.966870
C143	C	-0.798146	0.905196	0.466876
C144	C	-0.298146	1.405196	0.966876
C145	C	-0.819148	0.951983	0.424007
C146	C	-0.319148	1.451983	0.924007
C147	C	-0.082457	0.998779	0.381140
C148	C	0.417543	1.498779	0.881140
C149	C	-0.032521	0.998840	0.381165
C150	C	0.467479	1.498840	0.881165
C151	C	-0.204810	0.990865	0.563940
C152	C	0.295190	1.490865	1.063940
C153	C	-0.207014	0.987554	0.641863
C154	C	0.292986	1.487554	1.141863
C155	C	-0.194882	1.181500	0.388926
C156	C	0.305118	1.681500	0.888926
C157	C	-0.192856	1.259427	0.392268
C158	C	0.307144	1.759427	0.892268
C159	C	-0.194451	1.006415	0.198941
C160	C	0.305549	1.506415	0.698941
C161	C	-0.192117	1.009862	0.121024
C162	C	0.307883	1.509862	0.621024
C163	C	-0.178154	1.030868	0.680409
C164	C	0.321846	1.530868	1.180409
C165	C	-0.180224	1.027748	0.753625
C166	C	0.319776	1.527748	1.253625
C167	C	-0.211156	0.981318	0.788294
C168	C	0.288844	1.481318	1.288294
C169	C	-0.240017	0.937999	0.749743
C170	C	0.259983	1.437999	1.249743
C171	C	-0.237945	0.941116	0.676528
C172	C	0.262055	1.441116	1.176528
C173	C	-0.218906	0.969660	1.009258
C174	C	0.281094	1.469660	1.509258
C175	C	-0.220977	0.966548	1.082479
C176	C	0.279023	1.466548	1.582479
C177	C	-0.161183	1.056296	1.086356
C178	C	0.338817	1.556296	1.586356
C179	C	-0.159115	1.059412	1.013139
C180	C	0.340885	1.559412	1.513139
C181	C	-0.187975	1.016091	0.974594
C182	C	0.312025	1.516091	1.474594
C183	C	-0.213273	0.978130	0.863132
C184	C	0.286727	1.478130	1.363132
C185	C	-0.185855	1.019276	0.899757
C186	C	0.314145	1.519276	1.399757
H187	H	-0.259805	0.602313	0.282498
H188	H	0.240195	1.102313	0.782498
H189	H	-0.261442	0.905838	0.645144
H190	H	0.238558	1.405838	1.145144
O191	O	-0.125754	1.109495	0.975750
O192	O	0.374246	1.609495	1.475750
H193	H	-0.091203	1.096918	0.989296
H194	H	0.408797	1.596918	1.489296
O195	O	-0.246634	0.928052	0.900531
O196	O	0.253366	1.428052	1.400531
H197	H	-0.281186	0.940626	0.886981
H198	H	0.218814	1.440626	1.386981
O199	O	-0.263320	0.745317	0.276693
O200	O	0.236680	1.245317	0.776693
H201	H	-0.286221	0.777340	0.309420
H202	H	0.213779	1.277340	0.809420
O203	O	-0.254335	0.916456	1.119874
O204	O	0.245665	1.416456	1.619874
H205	H	-0.277325	0.946382	1.154564
H206	H	0.222675	1.446382	1.654564
H207	H	-0.938592	1.083668	0.303358
H208	H	-0.438592	1.583668	0.803358
O209	O	-0.359352	1.095757	0.291937
O210	O	0.140648	1.595757	0.791937
H211	H	-0.323198	1.087883	0.299126
H212	H	0.176802	1.587883	0.799126
H213	H	-1.032613	0.913966	0.458946
H214	H	-0.532613	1.413966	0.958946
H215	H	-0.137686	1.091565	1.117747
H216	H	0.362314	1.591565	1.617747
H217	H	-0.947506	0.913934	0.458943
H218	H	-0.447506	1.413934	0.958943
O219	O	-0.156463	0.518183	0.451833
O220	O	0.343537	1.018183	0.951833
H221	H	-0.166146	0.501801	0.506234
H222	H	0.333854	1.001801	1.006234
O223	O	-0.685339	0.854687	0.513123
O224	O	-0.185339	1.354687	1.013123
H225	H	-0.662845	0.822163	0.542933
H226	H	-0.162845	1.322163	1.042933
O227	O	-0.149349	0.737548	0.463435
O228	O	0.350651	1.237548	0.963435
H229	H	-0.131266	0.698491	0.493054
H230	H	0.368734	1.198491	0.993054
O231	O	-0.249914	0.260444	0.298772
O232	O	0.250086	0.760444	0.798772
H233	H	-0.274566	0.225745	0.328655
H234	H	0.225434	0.725745	0.828655
H235	H	-0.160322	0.595528	0.445491
H236	H	0.339678	1.095528	0.945491
O237	O	-0.826090	0.854746	0.513128
O238	O	-0.326090	1.354746	1.013128
H239	H	-0.862245	0.862613	0.505935
H240	H	-0.362245	1.362613	1.005935
H241	H	-0.734135	0.867070	0.501779
H242	H	-0.234135	1.367070	1.001779
O243	O	-0.131959	0.404846	0.492003
O244	O	0.368041	0.904846	0.992003
H245	H	-0.135075	0.462225	0.486897
H246	H	0.364925	0.962225	0.986897
O247	O	-0.144790	1.080950	0.643023
O248	O	0.355210	1.580950	1.143023
H249	H	-0.163027	1.118019	0.611195
H250	H	0.336973	1.618019	1.111195
H251	H	-0.160668	1.057076	0.871526
H252	H	0.339332	1.557076	1.371526
H253	H	-0.238940	0.402455	0.316722
H254	H	0.261060	0.902455	0.816722
H255	H	-0.593379	0.867010	0.501773
H256	H	-0.093379	1.367010	1.001773
O257	O	-0.456865	1.095804	0.291947
O258	O	0.043135	1.595804	0.791947
H259	H	-0.430958	1.128307	0.262127
H260	H	0.069042	1.628307	0.762127
H261	H	-0.805431	1.130388	0.260482
H262	H	-0.305431	1.630388	0.760482
H263	H	-0.156724	1.063020	0.785006
H264	H	0.343276	1.563020	1.285006
O265	O	-0.135944	0.252654	0.485512
O266	O	0.364056	0.752654	0.985512
H267	H	-0.115896	0.289109	0.518362
H268	H	0.384104	0.789109	1.018362
H269	H	-0.235297	0.488984	0.322664
H270	H	0.264703	0.988984	0.822664
H271	H	-1.023714	1.083706	0.303381
H272	H	-0.523714	1.583706	0.803381
H273	H	-0.579567	1.130279	0.260432
H274	H	-0.079567	1.630279	0.760432
O275	O	-0.250010	0.922902	0.967687
O276	O	0.249990	1.422902	1.467687
H277	H	-0.271861	0.890085	1.004097
H278	H	0.228139	1.390085	1.504097
H279	H	-0.375109	0.913657	0.458835
H280	H	0.124891	1.413657	0.958835
O281	O	-0.670227	1.142684	0.249113
O282	O	-0.170227	1.642684	0.749113
H283	H	-0.644319	1.175188	0.219297
H284	H	-0.144319	1.675188	0.719297
O285	O	-0.467084	0.901340	0.470188
O286	O	0.032916	1.401340	0.970188
H287	H	-0.444596	0.868805	0.499998
H288	H	0.055404	1.368805	0.999998
H289	H	-0.265202	0.900192	0.777976
H290	H	0.234798	1.400192	1.277976
H291	H	-0.720313	1.130351	0.260460
H292	H	-0.220313	1.630351	0.760460
