data_functionalizedCrystal
_audit_creation_method	'MofGen! by Chris Wilmer'
_symmetry_space_group_name_H-M	'P1'
_symmetry_Int_Tables_number	1
_symmetry_cell_setting	triclinic
loop_
_symmetry_equiv_pos_as_xyz
  x,y,z
_cell_length_a	13.032127
_cell_length_b	13.033304
_cell_length_c	13.032268
_cell_angle_alpha	89.077769
_cell_angle_beta	90.930983
_cell_angle_gamma	76.682435
loop_
_atom_site_label
_atom_site_type_symbol
_atom_site_fract_x
_atom_site_fract_y
_atom_site_fract_z
Zn1	Zn	-0.323896	-1.463154	0.735865
Zn2	Zn	0.176104	-0.963154	1.235865
Zn3	Zn	-0.473489	-1.468592	0.542805
Zn4	Zn	0.026511	-0.968592	1.042805
Zn5	Zn	-0.318395	-1.313614	0.542812
Zn6	Zn	0.181605	-0.813614	1.042812
Zn7	Zn	-0.516878	-1.270114	0.686723
Zn8	Zn	-0.016878	-0.770114	1.186723
O9	O	-0.408165	-1.378868	0.627051
O10	O	0.091835	-0.878868	1.127051
O11	O	-0.327883	-1.609522	0.730818
O12	O	0.172117	-1.109522	1.230818
O13	O	-0.432455	-1.468514	0.401782
O14	O	0.067545	-0.968514	0.901782
O15	O	-0.173454	-1.349380	0.588990
O16	O	0.326546	-0.849380	1.088990
O17	O	-0.437789	-1.613517	0.588978
O18	O	0.062211	-1.113517	1.088978
O19	O	-0.177495	-1.459246	0.730825
O20	O	0.322505	-0.959246	1.230825
O21	O	-0.318508	-1.354653	0.401787
O22	O	0.181492	-0.854653	0.901787
O23	O	-0.360581	-1.162197	0.541339
O24	O	0.139419	-0.662197	1.041339
O25	O	-0.511740	-1.275240	0.834265
O26	O	-0.011740	-0.775240	1.334265
O27	O	-0.506406	-1.130238	0.647070
O28	O	-0.006406	-0.630238	1.147070
O29	O	-0.369956	-1.417066	0.870370
O30	O	0.130044	-0.917066	1.370370
O31	O	-0.624916	-1.426334	0.541327
O32	O	-0.124916	-0.926334	1.041327
O33	O	-0.656794	-1.280513	0.647063
O34	O	-0.156794	-0.780513	1.147063
C35	C	-0.437606	-1.108453	0.588873
C36	C	0.062394	-0.608453	1.088873
C37	C	-0.450229	-0.992762	0.572561
C38	C	0.049771	-0.492762	1.072561
C39	C	-0.401590	-0.939182	0.635549
C40	C	0.098410	-0.439182	1.135549
C41	C	-0.414636	-0.819609	0.618691
C42	C	0.085364	-0.319609	1.118691
C43	C	-0.678626	-1.349318	0.588887
C44	C	-0.178626	-0.849318	1.088887
C45	C	-0.794325	-1.336767	0.572608
C46	C	-0.294325	-0.836767	1.072608
C47	C	-0.967423	-1.372502	0.618757
C48	C	-0.467423	-0.872502	1.118757
C49	C	-0.847842	-1.385483	0.635587
C50	C	-0.347842	-0.885483	1.135587
C51	C	-0.136647	-1.408559	0.665390
C52	C	0.363353	-0.908559	1.165390
C53	C	-0.020943	-1.421211	0.681728
C54	C	0.479057	-0.921211	1.181728
C55	C	-0.446302	-1.340694	0.889906
C56	C	0.053698	-0.840694	1.389906
C57	C	-0.462553	-1.324427	1.001919
C58	C	0.037447	-0.824427	1.501919
C59	C	-0.378603	-0.650341	0.665373
C60	C	0.121397	-0.150341	1.165373
C61	C	-0.365990	-0.766031	0.681688
C62	C	0.134010	-0.266031	1.181688
C63	C	-0.370094	-1.416962	0.365238
C64	C	0.129906	-0.916962	0.865238
C65	C	-0.353528	-1.433463	0.253296
C66	C	0.146472	-0.933463	0.753296
C67	C	-0.399647	-1.387346	1.069722
C68	C	0.100353	-0.887346	1.569722
C69	C	-0.416442	-1.370535	1.185493
C70	C	0.083558	-0.870535	1.685493
H71	H	-0.465937	-0.776962	0.552277
H72	H	0.034063	-0.276962	1.052277
H73	H	-0.501526	-0.950111	0.506152
H74	H	-0.001526	-0.450111	1.006152
H75	H	-0.350286	-0.981834	0.701953
H76	H	0.149714	-0.481834	1.201953
H77	H	-0.314680	-0.808678	0.748096
H78	H	0.185320	-0.308678	1.248096
O79	O	-1.023978	-1.304546	0.530826
O80	O	-0.523978	-0.804546	1.030826
H81	H	-1.109024	-1.305028	0.531396
H82	H	-0.609024	-0.805028	1.031396
H83	H	-0.333354	-1.453657	1.042061
H84	H	0.166646	-0.953657	1.542061
O85	O	-0.791287	-1.453463	0.723509
O86	O	-0.291287	-0.953463	1.223509
H87	H	-0.706236	-1.452999	0.722925
H88	H	-0.206236	-0.952999	1.222925
H89	H	-0.482731	-1.304210	1.213149
H90	H	0.017269	-0.804210	1.713149
O91	O	-0.265712	-1.521319	1.216680
O92	O	0.234288	-1.021319	1.716680
H93	H	-0.266304	-1.520746	1.131496
H94	H	0.233696	-1.020746	1.631496
O95	O	-0.550364	-1.236582	1.038550
O96	O	-0.050364	-0.736582	1.538550
H97	H	-0.538493	-1.159754	1.009394
H98	H	-0.038493	-0.659754	1.509394
O99	O	-0.850875	-1.268798	0.484677
O100	O	-0.350875	-0.768798	0.984677
H101	H	-0.935923	-1.269276	0.485247
H102	H	-0.435923	-0.769276	0.985247
H103	H	-0.978235	-1.472519	0.748102
H104	H	-0.478235	-0.972519	1.248102
