data_functionalizedCrystal
_audit_creation_method	'MofGen! by Chris Wilmer'
_symmetry_space_group_name_H-M	'P1'
_symmetry_Int_Tables_number	1
_symmetry_cell_setting	triclinic
loop_
_symmetry_equiv_pos_as_xyz
  x,y,z
_cell_length_a	15.944551
_cell_length_b	14.044220
_cell_length_c	13.101039
_cell_angle_alpha	93.659868
_cell_angle_beta	93.361595
_cell_angle_gamma	91.656192
loop_
_atom_site_label
_atom_site_type_symbol
_atom_site_fract_x
_atom_site_fract_y
_atom_site_fract_z
O1	O	0.198266	-1.262927	-0.085109
O2	O	0.531599	-0.929594	0.248224
O3	O	0.864933	-0.596261	0.581557
O4	O	0.190957	-0.986959	-0.085135
O5	O	0.524290	-0.653626	0.248198
O6	O	0.857624	-0.320292	0.581531
O7	O	0.072901	-1.132479	-0.085112
O8	O	0.406235	-0.799145	0.248221
O9	O	0.739568	-0.465812	0.581554
O10	O	0.316322	-1.117408	-0.085132
O11	O	0.649655	-0.784074	0.248201
O12	O	0.982988	-0.450741	0.581534
O13	O	0.081387	-1.122038	0.085316
O14	O	0.414720	-0.788705	0.418649
O15	O	0.748054	-0.455371	0.751982
O16	O	0.199443	-0.976518	0.085293
O17	O	0.532776	-0.643185	0.418626
O18	O	0.866109	-0.309852	0.751960
O19	O	0.206752	-1.252486	0.085319
O20	O	0.540085	-0.919153	0.418652
O21	O	0.873418	-0.585820	0.751985
Zn22	Zn	0.204444	-1.112845	0.112365
Zn23	Zn	0.537778	-0.779511	0.445698
Zn24	Zn	0.871111	-0.446178	0.779032
Zn25	Zn	0.193264	-1.126601	-0.112181
Zn26	Zn	0.526598	-0.793268	0.221152
Zn27	Zn	0.859931	-0.459934	0.554485
O28	O	0.324807	-1.106967	0.085296
O29	O	0.658141	-0.773633	0.418629
O30	O	0.991474	-0.440300	0.751963
C31	C	0.192001	-0.946424	0.000076
C32	C	0.525334	-0.613091	0.333409
C33	C	0.858668	-0.279758	0.666742
C34	C	0.182459	-0.841198	0.000066
C35	C	0.515793	-0.507865	0.333399
C36	C	0.849126	-0.174532	0.666733
C37	C	0.045803	-1.126633	0.000102
C38	C	0.379137	-0.793299	0.333435
C39	C	0.712470	-0.459966	0.666768
C40	C	-0.047583	-1.124757	0.000102
C41	C	0.285750	-0.791423	0.333436
C42	C	0.619084	-0.458090	0.666769
N43	N	0.212075	-1.103463	0.265612
N44	N	0.545408	-0.770130	0.598945
N45	N	0.878741	-0.436797	0.932279
C46	C	-0.269531	-1.030074	0.000079
C47	C	0.063803	-0.696740	0.333413
C48	C	0.397136	-0.363407	0.666746
C49	C	-0.323071	-1.068894	0.084115
C50	C	0.010262	-0.735560	0.417448
C51	C	0.343595	-0.402227	0.750781
C52	C	-0.218563	-1.121364	0.000094
C53	C	0.114770	-0.788030	0.333427
C54	C	0.448103	-0.454697	0.666761
C55	C	-0.331419	-1.079209	-0.083914
C56	C	0.001914	-0.745876	0.249419
C57	C	0.335247	-0.412542	0.582753
C58	C	-0.383723	-1.118080	0.000082
C59	C	-0.050389	-0.784746	0.333415
C60	C	0.282944	-0.451413	0.666748
C61	C	-0.270871	-1.160204	0.084199
C62	C	0.062463	-0.826871	0.417532
C63	C	0.395796	-0.493538	0.750866
C64	C	-0.279217	-1.170512	-0.083905
C65	C	0.054116	-0.837178	0.249428
C66	C	0.387450	-0.503845	0.582761
C67	C	-0.332734	-1.209397	0.000151
C68	C	0.000599	-0.876064	0.333484
C69	C	0.333932	-0.542730	0.666817
C70	C	-0.123419	-1.123253	0.000102
C71	C	0.209914	-0.789919	0.333435
C72	C	0.543247	-0.456586	0.666769
C73	C	-0.478865	-1.116197	0.000081
C74	C	-0.145531	-0.782864	0.333414
C75	C	0.187802	-0.449530	0.666748
C76	C	0.351905	-1.112813	0.000079
C77	C	0.685238	-0.779480	0.333413
C78	C	1.018572	-0.446146	0.666746
C79	C	0.445291	-1.114689	0.000072
C80	C	0.778625	-0.781356	0.333406
C81	C	1.111958	-0.448023	0.666739
C82	C	0.205707	-1.293021	0.000106
C83	C	0.539041	-0.959688	0.333439
C84	C	0.872374	-0.626355	0.666772
C85	C	0.215249	-1.398248	0.000108
C86	C	0.548582	-1.064914	0.333442
C87	C	0.881916	-0.731581	0.666775
C88	C	0.165017	-0.648535	0.000088
C89	C	0.498350	-0.315201	0.333421
C90	C	0.831684	0.018132	0.666755
C91	C	0.232688	-0.590906	0.000087
C92	C	0.566021	-0.257572	0.333420
C93	C	0.899354	0.075761	0.666753
C94	C	0.222982	-0.483701	0.000099
C95	C	0.556316	-0.150368	0.333432
C96	C	0.889649	0.182966	0.666765
C97	C	0.174721	-0.755749	0.000076
C98	C	0.508054	-0.422416	0.333409
C99	C	0.841387	-0.089083	0.666742
N100	N	0.185628	-1.135990	-0.265429
N101	N	0.518961	-0.802656	0.067905
N102	N	0.852295	-0.469323	0.401238
C103	C	0.222464	-1.090699	0.474653
C104	C	0.555797	-0.757366	0.807986
C105	C	0.889130	-0.424033	1.141319
C106	C	0.175242	-1.148750	0.525537
C107	C	0.508575	-0.815417	0.858871
C108	C	0.841908	-0.482084	1.192204
C109	C	0.181022	-1.141649	0.641855
C110	C	0.514355	-0.808315	0.975188
C111	C	0.847689	-0.474982	1.308521
C112	C	0.216684	-1.097800	0.358325
C113	C	0.550017	-0.764467	0.691658
C114	C	0.883351	-0.431134	1.024991
H115	H	-0.241893	-0.954293	0.000156
H116	H	0.091440	-0.620960	0.333489
H117	H	0.424774	-0.287627	0.666823
H118	H	0.267230	-1.035671	0.518441
H119	H	0.600564	-0.702338	0.851774
H120	H	0.933897	-0.369004	1.185108
H121	H	0.130473	-1.203784	0.481744
H122	H	0.463806	-0.870450	0.815077
H123	H	0.797140	-0.537117	1.148410
H124	H	-0.342534	-1.025929	0.155153
H125	H	-0.009201	-0.692596	0.488486
H126	H	0.324133	-0.359263	0.821820
H127	H	-0.244450	-1.194427	0.155322
H128	H	0.088883	-0.861094	0.488656
H129	H	0.422216	-0.527760	0.821989
H130	H	-0.357926	-1.044938	-0.154965
H131	H	-0.024593	-0.711604	0.178369
H132	H	0.308741	-0.378271	0.511702
H133	H	0.297911	-0.622082	0.000076
H134	H	0.631245	-0.288748	0.333410
H135	H	0.964578	0.044585	0.666743
H136	H	-0.360212	-1.285236	0.000205
H137	H	-0.026878	-0.951902	0.333539
H138	H	0.306455	-0.618569	0.666872
H139	H	0.099799	-0.617361	0.000099
H140	H	0.433132	-0.284027	0.333432
H141	H	0.766465	0.049306	0.666765
H142	H	-0.259735	-1.213443	-0.154947
H143	H	0.073598	-0.880110	0.178386
H144	H	0.406931	-0.546776	0.511719
