data_functionalizedCrystal
_audit_creation_method	'MofGen! by Chris Wilmer'
_symmetry_space_group_name_H-M	'P1'
_symmetry_Int_Tables_number	1
_symmetry_cell_setting	triclinic
loop_
_symmetry_equiv_pos_as_xyz
  x,y,z
_cell_length_a	14.908571
_cell_length_b	14.908520
_cell_length_c	14.908308
_cell_angle_alpha	83.639235
_cell_angle_beta	89.824947
_cell_angle_gamma	90.205961
loop_
_atom_site_label
_atom_site_type_symbol
_atom_site_fract_x
_atom_site_fract_y
_atom_site_fract_z
Zn1	Zn	-1.316651	0.470613	-0.613065
Zn2	Zn	-1.316549	0.613252	-0.470429
Zn3	Zn	-1.176020	0.453291	-0.453125
Zn4	Zn	-1.157642	0.612180	-0.612023
O5	O	-1.241715	0.537334	-0.537161
O6	O	-1.441995	0.497231	-0.601822
O7	O	-1.305556	0.585232	-0.341941
O8	O	-1.202409	0.329399	-0.467536
O9	O	-1.441920	0.602028	-0.497029
O10	O	-1.305730	0.342124	-0.585043
O11	O	-1.202310	0.467710	-0.329228
O12	O	-1.048225	0.466671	-0.466525
O13	O	-1.171086	0.600202	-0.738354
O14	O	-1.034722	0.583406	-0.583267
O15	O	-1.287909	0.496192	-0.739120
O16	O	-1.287736	0.739300	-0.496018
O17	O	-1.170987	0.738513	-0.600046
C18	C	-1.008970	0.523043	-0.522906
C19	C	-0.909397	0.516953	-0.516830
C20	C	-1.227379	0.771629	-0.549818
C21	C	-1.221326	0.871868	-0.555268
C22	C	-1.227459	0.550010	-0.772372
C23	C	-1.221383	0.555411	-0.872606
C24	C	-1.475370	0.551681	-0.551472
C25	C	-1.574939	0.557795	-0.557571
C26	C	-0.708277	0.627234	-0.626831
C27	C	-0.614720	0.621514	-0.621125
C28	C	-0.628723	0.499789	-0.499719
C29	C	-0.722281	0.505509	-0.505424
C30	C	-0.762054	0.569235	-0.568981
C31	C	-0.855613	0.574958	-0.574682
C32	C	-0.869615	0.453230	-0.453280
C33	C	-0.776058	0.447510	-0.447575
C34	C	-1.256131	0.302127	-0.524476
C35	C	-1.262274	0.201896	-0.519070
C36	C	-1.331634	1.060998	-0.457284
C37	C	-1.325950	1.155181	-0.462402
C38	C	-1.204279	1.154420	-0.570626
C39	C	-1.209963	1.060237	-0.565508
C40	C	-1.273642	1.013529	-0.508834
C41	C	-1.279321	0.919343	-0.503712
C42	C	-1.157655	0.918584	-0.611940
C43	C	-1.151970	1.012768	-0.617058
C44	C	-1.331614	0.457236	-1.061752
C45	C	-1.325908	0.462308	-1.155930
C46	C	-1.204264	0.570623	-1.155141
C47	C	-1.209969	0.565551	-1.060963
C48	C	-1.273647	0.508856	-1.014272
C49	C	-1.279356	0.503789	-0.920093
C50	C	-1.157708	0.612099	-0.919305
C51	C	-1.152002	0.617171	-1.013483
C52	C	-1.255972	0.524646	-0.302864
C53	C	-1.262236	0.519001	-0.202628
H54	H	-0.887995	0.626848	-0.626432
H55	H	-0.740661	0.679126	-0.678577
O56	O	-0.590224	0.437811	-0.437962
C57	C	-0.613975	0.317713	-0.318110
C58	C	-0.657692	0.387848	-0.388021
H59	H	-0.668502	0.277312	-0.277701
H60	H	-0.570580	0.270121	-0.354333
H61	H	-0.570467	0.353836	-0.270496
H62	H	-0.701242	0.351801	-0.435655
H63	H	-0.701034	0.435437	-0.351739
O64	O	-1.382189	0.412032	-1.201943
C65	C	-1.433281	0.262855	-1.225177
C66	C	-1.369511	0.319689	-1.172989
H67	H	-1.423040	0.188184	-1.201801
H68	H	-1.505687	0.282049	-1.211914
H69	H	-1.418282	0.276263	-1.300509
H70	H	-1.384429	0.306311	-1.097643
H71	H	-1.297125	0.300484	-1.186327
H72	H	-1.331207	0.457627	-0.882079
O73	O	-0.562388	0.677888	-0.677190
C74	C	-0.448648	0.793885	-0.689275
C75	C	-0.507844	0.730073	-0.625674
H76	H	-0.404548	0.836107	-0.647651
H77	H	-0.404457	0.752466	-0.731575
H78	H	-0.493170	0.840370	-0.735697
H79	H	-0.463391	0.683576	-0.579197
H80	H	-0.552042	0.771548	-0.583438
O81	O	-0.737519	0.385656	-0.385722
C82	C	-0.720782	0.331677	-0.228267
C83	C	-0.764501	0.401767	-0.298223
H84	H	-0.742565	0.344690	-0.157508
H85	H	-0.742675	0.260952	-0.241334
H86	H	-0.644679	0.337540	-0.234175
H87	H	-0.840608	0.395987	-0.292355
H88	H	-0.742536	0.472463	-0.285135
O89	O	-1.101440	0.872447	-0.662122
C90	C	-1.088312	0.771849	-0.777297
C91	C	-1.152076	0.824068	-0.720546
H92	H	-1.129226	0.732707	-0.824533
H93	H	-1.041840	0.821380	-0.818743
H94	H	-1.046656	0.722749	-0.730574
H95	H	-1.193791	0.873169	-0.767203
H96	H	-1.198488	0.774484	-0.679091
O97	O	-0.921987	0.396927	-0.397175
C98	C	-1.072322	0.351838	-0.352109
C99	C	-1.013118	0.415633	-0.415719
H100	H	-1.146014	0.366951	-0.367066
H101	H	-1.057475	0.278864	-0.363011
H102	H	-1.057298	0.362510	-0.279104
H103	H	-1.028108	0.405041	-0.488747
H104	H	-1.027976	0.488584	-0.404738
H105	H	-1.152440	1.192467	-0.616773
H106	H	-1.331169	0.881314	-0.457563
H107	H	-1.383478	1.022967	-0.411132
O108	O	-1.393355	0.402115	-1.016282
C109	C	-1.419311	0.275350	-0.904154
C110	C	-1.349295	0.337721	-0.955567
H111	H	-1.383715	0.223261	-0.855067
H112	H	-1.466274	0.317204	-0.865100
H113	H	-1.459784	0.239373	-0.954287
H114	H	-1.308758	0.373711	-0.905495
H115	H	-1.302393	0.295819	-0.994634
O116	O	-1.090140	1.058279	-0.672030
C117	C	-1.027493	1.203040	-0.727917
C118	C	-1.097547	1.151613	-0.665611
H119	H	-1.033471	1.278510	-0.722764
H120	H	-0.957328	1.179373	-0.706588
H121	H	-1.039862	1.189306	-0.800584
H122	H	-1.085263	1.165323	-0.592927
H123	H	-1.167689	1.175287	-0.687018
H124	H	-1.152420	0.616780	-1.193173
H125	H	-1.100156	0.663328	-1.051511
H126	H	-1.373175	1.193828	-0.420427
O127	O	-1.101264	0.662194	-0.873267
C128	C	-0.947952	0.695020	-0.837432
C129	C	-1.011767	0.638245	-0.889635
H130	H	-0.875581	0.675665	-0.850632
H131	H	-0.958028	0.769708	-0.860848
H132	H	-0.963014	0.681673	-0.762109
H133	H	-0.996743	0.651514	-0.964967
H134	H	-1.001678	0.563575	-0.866144
