data_functionalizedCrystal
_audit_creation_method	'MofGen! by Chris Wilmer'
_symmetry_space_group_name_H-M	'P1'
_symmetry_Int_Tables_number	1
_symmetry_cell_setting	triclinic
loop_
_symmetry_equiv_pos_as_xyz
  x,y,z
_cell_length_a	19.902436
_cell_length_b	14.560438
_cell_length_c	14.560438
_cell_angle_alpha	60.005846
_cell_angle_beta	89.995442
_cell_angle_gamma	60.001526
loop_
_atom_site_label
_atom_site_type_symbol
_atom_site_fract_x
_atom_site_fract_y
_atom_site_fract_z
Zr1	Zr	0.647275	1.005296	-0.120482
O2	O	0.540004	1.196864	-0.267084
O3	O	0.680156	0.813716	-0.075560
O4	O	0.680165	1.005302	-0.267134
O5	O	0.539993	1.005278	0.075631
O6	O	0.790730	1.005319	-0.267152
O7	O	0.539995	1.005279	-0.075509
O8	O	0.790715	0.662608	0.075540
O9	O	0.540008	1.347989	-0.267062
O10	O	0.776698	0.892533	-0.056391
O11	O	0.694182	0.892520	0.056416
O12	O	0.694192	1.118087	-0.169138
O13	O	0.611677	1.118073	-0.056331
Zr14	Zr	0.823612	1.005324	0.120540
Zr15	Zr	0.823615	1.005324	-0.120510
Zr16	Zr	0.647272	1.005295	0.120569
Zr17	Zr	0.647282	1.246324	-0.120446
Zr18	Zr	0.823604	0.764296	0.120505
O19	O	0.790731	1.196903	0.075619
O20	O	0.790736	1.196904	-0.267124
O21	O	0.539999	1.196863	0.075659
O22	O	0.930883	0.813756	0.267143
O23	O	0.930888	0.813757	-0.075600
O24	O	0.680151	0.813716	0.267183
O25	O	0.930894	1.005342	-0.075572
O26	O	0.790722	1.005318	0.267193
O27	O	0.680157	1.005300	0.267211
O28	O	0.930892	1.005341	0.075568
O29	O	0.680175	1.348012	-0.267084
O30	O	0.790712	0.662608	0.267143
O31	O	0.930879	0.662631	0.267121
O32	O	0.930882	0.662631	0.075518
O33	O	0.540005	1.347989	-0.075459
O34	O	0.680172	1.348011	-0.075481
O35	O	0.776695	0.892533	0.169197
O36	O	0.859210	0.892546	0.056390
O37	O	0.776705	1.118100	-0.056358
O38	O	0.694189	1.118086	0.056450
C39	C	0.735435	0.703821	-0.000015
C40	C	0.735432	0.601499	-0.000030
C41	C	0.674526	0.636616	-0.083241
C42	C	0.674539	0.540426	-0.083185
C43	C	0.796367	0.374005	0.083304
C44	C	0.796356	0.470193	0.083242
C45	C	0.604188	0.732697	-0.179360
C46	C	0.604201	0.636508	-0.179303
C47	C	0.514869	1.005274	0.000065
C48	C	0.440009	1.005262	0.000077
C49	C	0.167960	1.005326	0.000014
C50	C	0.248497	0.863043	0.070798
C51	C	0.326400	0.862954	0.071197
C52	C	0.302927	1.005294	0.000045
C53	C	0.248809	1.075954	0.051947
C54	C	0.171247	1.075045	0.052465
C55	C	0.170110	1.077967	-0.122703
C56	C	0.248987	1.075293	-0.122509
C57	C	0.379202	1.005283	0.000062
C58	C	0.091684	1.005341	0.000001
C59	C	0.956017	1.005345	-0.000006
C60	C	1.030878	1.005357	-0.000018
C61	C	0.735448	1.005311	-0.301488
C62	C	0.735449	1.005311	-0.403820
C63	C	0.735452	1.306799	0.000074
C64	C	0.735455	1.409121	0.000089
C65	C	0.796357	1.005326	-0.451914
C66	C	0.796353	1.005321	-0.548063
C67	C	0.674526	1.005290	-0.548019
C68	C	0.674534	1.005286	-0.451867
C69	C	0.866691	1.005349	-0.451943
C70	C	0.866687	1.005344	-0.548092
C71	C	0.735439	1.005309	0.301547
C72	C	0.735438	1.005309	0.403879
C73	C	0.956009	0.703857	-0.000050
C74	C	1.030866	0.601546	-0.000077
C75	C	0.735430	0.703820	0.301502
C76	C	0.735426	0.601498	0.403820
C77	C	0.956004	0.703856	0.301467
C78	C	1.030861	0.601545	0.403772
C79	C	0.514883	1.306764	-0.301408
C80	C	0.440026	1.409075	-0.403713
C81	C	0.514878	1.306763	0.000109
C82	C	0.440020	1.409074	0.000136
C83	C	0.735457	1.306799	-0.301444
C84	C	0.735461	1.409122	-0.403761
C85	C	1.022950	0.553493	-0.058970
C86	C	1.093280	0.457375	-0.059018
C87	C	1.171526	0.409305	-0.000166
C88	C	1.179441	0.457367	0.058729
C89	C	1.109112	0.553490	0.058770
C90	C	1.109094	0.553506	0.392932
C91	C	1.179436	0.457388	0.489049
C92	C	1.171543	0.409304	0.596006
C93	C	1.093302	0.457352	0.606844
C94	C	1.022961	0.553476	0.510728
C95	C	0.361793	1.457125	-0.392873
C96	C	0.291451	1.553274	-0.488990
C97	C	0.299344	1.601363	-0.595947
C98	C	0.377585	1.553308	-0.606785
C99	C	0.447925	1.457168	-0.510669
C100	C	0.447937	1.457137	0.059019
C101	C	0.377607	1.553281	0.059040
C102	C	0.299361	1.601355	0.000185
C103	C	0.291446	1.553288	-0.058706
C104	C	0.361775	1.457152	-0.058733
C105	C	0.778495	0.553428	0.510759
C106	C	0.778485	0.457290	0.606893
C107	C	0.692333	0.457296	0.489135
C108	C	0.692340	0.553439	0.393003
C109	C	0.828237	0.553420	0.578747
C110	C	0.828226	0.457282	0.674880
H111	H	0.250191	0.807191	0.036166
H112	H	0.959244	0.592631	-0.106909
C113	C	0.528636	0.813301	-0.156629
C114	C	0.468371	0.960993	-0.244696
C115	C	0.392831	1.041587	-0.221942
C116	C	0.377556	0.974489	-0.111120
C117	C	0.437822	0.826789	-0.023046
C118	C	0.513362	0.746195	-0.045800
H119	H	0.479677	1.010670	-0.326739
H120	H	0.348218	1.150924	-0.287141
H121	H	0.321637	1.034149	-0.094276
H122	H	0.426516	0.777111	0.058998
H123	H	0.557975	0.636857	0.019400
H124	H	0.227729	1.592444	-0.106624
H125	H	0.242061	1.679646	-0.674202
C126	C	0.379134	0.787599	0.193488
C127	C	0.350405	0.727322	0.291088
C128	C	0.403139	0.651968	0.413384
C129	C	0.484602	0.636890	0.438080
C130	C	0.513335	0.697169	0.340478
C131	C	0.460601	0.772523	0.218181
H132	H	0.290098	0.738482	0.272808
H133	H	0.381868	0.607346	0.485636
H134	H	0.523638	0.581109	0.528612
H135	H	0.573642	0.686009	0.358757
H136	H	0.481872	0.817145	0.145930
C137	C	0.947839	0.883249	-0.355660
C138	C	1.013250	0.784812	-0.375184
C139	C	1.094395	0.662714	-0.278901
C140	C	1.110129	0.639053	-0.163094
C141	C	1.044716	0.737492	-0.143565
C142	C	0.963572	0.859590	-0.239848
H143	H	1.001604	0.802326	-0.460915
H144	H	1.142817	0.589843	-0.293359
H145	H	1.170197	0.548668	-0.091820
H146	H	1.056362	0.719979	-0.057834
H147	H	0.915149	0.932461	-0.225390
H148	H	0.355318	1.418021	-0.106679
C149	C	0.644944	0.404424	0.477241
C150	C	0.644930	0.298676	0.582978
C151	C	0.597539	0.245807	0.571081
C152	C	0.550162	0.298686	0.453447
C153	C	0.550174	0.404441	0.347701
C154	C	0.597564	0.457310	0.359599
H155	H	0.680003	0.259526	0.670066
H156	H	0.597531	0.167520	0.649361
H157	H	0.515081	0.259549	0.444639
H158	H	0.515101	0.443590	0.260614
H159	H	0.597573	0.535597	0.281318
H160	H	0.242101	1.679635	0.000216
C161	C	0.093418	1.219563	-0.194291
C162	C	0.032850	1.269926	-0.300689
C163	C	-0.043845	1.411513	-0.372264
C164	C	-0.059973	1.502737	-0.337441
C165	C	0.000596	1.452375	-0.231038
C166	C	0.077292	1.310788	-0.159463
H167	H	0.044788	1.202395	-0.326471
H168	H	-0.088682	1.448793	-0.451031
H169	H	-0.116748	1.607548	-0.390425
H170	H	-0.011341	1.519906	-0.205255
H171	H	0.122129	1.273508	-0.080696
H172	H	0.845958	0.441589	0.150992
C173	C	1.265515	0.404466	0.123480
C174	C	1.342868	0.298718	0.123441
C175	C	1.428944	0.245803	0.188202
C176	C	1.437668	0.298636	0.253001
C177	C	1.360313	0.404390	0.253042
C178	C	1.274237	0.457305	0.188281
H179	H	1.336412	0.259603	0.075471
H180	H	1.486207	0.167517	0.188171
H181	H	1.501387	0.259465	0.300941
H182	H	1.366769	0.443505	0.301012
H183	H	1.216974	0.535591	0.188312
H184	H	0.891917	0.517300	0.570002
H185	H	1.228826	0.331034	0.674261
C186	C	0.534002	1.404277	0.123759
C187	C	0.542693	1.457175	0.188512
C188	C	0.628755	1.404329	0.253249
C189	C	0.706126	1.298585	0.253233
C190	C	0.697438	1.245681	0.188478
C191	C	0.611376	1.298527	0.123741
H192	H	0.485415	1.535458	0.188526
H193	H	0.635186	1.443493	0.301185
H194	H	0.769835	1.259466	0.301155
H195	H	0.754716	1.167398	0.188464
H196	H	0.604945	1.259363	0.075805
H197	H	0.845969	0.267087	0.151102
H198	H	0.624945	1.005257	-0.412701
H199	H	1.086819	0.418254	-0.106977
H200	H	1.115569	0.592603	0.106734
H201	H	0.610244	0.795673	-0.261492
H202	H	0.959263	0.592577	0.519570
H203	H	0.384068	1.592401	0.107000
H204	H	0.384002	1.592475	-0.693881
C205	C	0.850087	1.131339	-0.474627
C206	C	0.835851	1.239302	-0.593130
C207	C	0.819241	1.365295	-0.615814
C208	C	0.816868	1.383326	-0.519997
C209	C	0.831104	1.275359	-0.401486
C210	C	0.847714	1.149366	-0.378801
H211	H	0.837608	1.225957	-0.664067
H212	H	0.808702	1.445219	-0.703544
H213	H	0.804572	1.476593	-0.536789
H214	H	0.829348	1.288704	-0.330549
H215	H	0.858253	1.069442	-0.291071
H216	H	0.229047	1.180612	0.002875
H217	H	0.795413	0.493405	0.725814
H218	H	0.616491	0.636477	-0.255762
H219	H	0.544132	0.647313	-0.170984
H220	H	0.365786	0.807534	0.036366
C221	C	0.171497	1.007216	0.174456
C222	C	0.242133	0.954254	0.270725
C223	C	0.242387	0.886428	0.392718
C224	C	0.172003	0.871564	0.418442
C225	C	0.101361	0.924528	0.322170
C226	C	0.101108	0.992354	0.200177
H227	H	0.294240	0.965255	0.251686
H228	H	0.294681	0.847221	0.463985
H229	H	0.172191	0.821355	0.508748
H230	H	0.049255	0.913526	0.341209
H231	H	0.048814	1.031561	0.128910
H232	H	1.228786	0.331034	-0.000207
H233	H	0.249242	0.807475	0.160778
H234	H	0.114214	1.179436	0.004242
H235	H	1.115536	0.592642	0.305851
C236	C	0.942273	0.879377	-0.525418
C237	C	1.002520	0.885138	-0.590790
C238	C	1.078108	0.759176	-0.568115
C239	C	1.093449	0.627453	-0.480066
C240	C	1.033200	0.621687	-0.414688
C241	C	0.957612	0.747649	-0.437364
H242	H	0.991165	0.982651	-0.655974
H243	H	1.122708	0.763445	-0.616512
H244	H	1.149404	0.534209	-0.463281
H245	H	1.044555	0.524174	-0.349505
H246	H	0.913012	0.743380	-0.388966
H247	H	0.286260	1.026880	0.141394
H248	H	1.243137	0.418276	0.480204
H249	H	1.086888	0.418188	0.693941
H250	H	0.624932	1.005269	-0.587148
H251	H	0.167120	1.032433	-0.166057
H252	H	0.860621	1.095743	-0.619381
H253	H	0.286312	1.023772	-0.161283
H254	H	0.230468	1.179139	-0.179688
H255	H	0.355351	1.417976	-0.305792
H256	H	0.227751	1.592383	-0.480143
H257	H	0.511624	1.418046	-0.519509
H258	H	0.657259	0.592586	0.305931
H259	H	0.800576	0.643420	0.578782
H260	H	0.894082	0.367277	0.727055
