data_functionalizedCrystal
_audit_creation_method	'MofGen! by Chris Wilmer'
_symmetry_space_group_name_H-M	'P1'
_symmetry_Int_Tables_number	1
_symmetry_cell_setting	triclinic
loop_
_symmetry_equiv_pos_as_xyz
  x,y,z
_cell_length_a	10.723022
_cell_length_b	10.723023
_cell_length_c	9.198806
_cell_angle_alpha	89.997827
_cell_angle_beta	89.996352
_cell_angle_gamma	84.467387
loop_
_atom_site_label
_atom_site_type_symbol
_atom_site_fract_x
_atom_site_fract_y
_atom_site_fract_z
O1	O	1.657188	0.175015	-0.120880
O2	O	1.294036	0.191771	-0.120884
O3	O	1.483989	0.001817	-0.120876
O4	O	1.467235	0.364969	-0.120888
O5	O	1.483974	0.001816	0.120909
O6	O	1.294021	0.191770	0.120901
O7	O	1.657173	0.175015	0.120905
Cu8	Cu	1.475596	0.183392	0.142980
Cu9	Cu	1.475613	0.183393	-0.142959
O10	O	1.467220	0.364969	0.120897
C11	C	1.247529	0.190551	0.000008
C12	C	1.108974	0.186904	0.000006
C13	C	1.482763	-0.044683	0.000015
C14	C	1.479115	-0.183238	0.000010
C15	C	1.060414	0.077365	0.000009
C16	C	0.917211	0.073593	0.000007
C17	C	1.477497	-0.245003	-0.125243
C18	C	1.473728	-0.388206	-0.125251
C19	C	1.703681	0.176234	0.000010
C20	C	1.842235	0.179881	0.000003
C21	C	1.468446	0.411469	0.000003
C22	C	1.472094	0.550023	-0.000002
N23	N	1.475592	0.183391	0.344094
N24	N	1.475627	0.183384	-0.344073
C25	C	1.555348	0.103283	0.416295
C26	C	1.555367	0.103279	0.583707
H27	H	1.124856	-0.013624	0.000005
O28	O	1.479350	-0.174623	-0.267286
H29	H	1.477581	-0.241650	-0.359040
H30	H	0.875399	-0.020195	-0.000027
O31	O	1.385184	0.274261	0.426378
H32	H	1.326761	0.332947	0.348024
O33	O	1.473950	-0.379641	0.142059
H34	H	1.388391	-0.394173	0.205305
O35	O	1.471858	-0.458556	-0.267302
H36	H	1.473627	-0.391516	-0.359048
O37	O	1.645821	0.012422	0.665934
H38	H	1.631636	0.026670	0.784521
O39	O	1.385157	0.274221	0.573693
H40	H	1.438426	0.335129	0.504315
O41	O	1.023627	0.307439	-0.000002
H42	H	1.041875	0.362581	0.098540
H43	H	1.623612	0.034698	0.354171
H44	H	0.884038	0.273673	0.000008
O45	O	1.477271	-0.253618	0.142053
H46	H	1.390811	-0.302556	0.148267
