data_functionalizedCrystal
_audit_creation_method	'MofGen! by Chris Wilmer'
_symmetry_space_group_name_H-M	'P1'
_symmetry_Int_Tables_number	1
_symmetry_cell_setting	triclinic
loop_
_symmetry_equiv_pos_as_xyz
  x,y,z
_cell_length_a	18.050591
_cell_length_b	18.050589
_cell_length_c	18.050582
_cell_angle_alpha	89.981795
_cell_angle_beta	89.979078
_cell_angle_gamma	90.024227
loop_
_atom_site_label
_atom_site_type_symbol
_atom_site_fract_x
_atom_site_fract_y
_atom_site_fract_z
Zn1	Zn	1.135293	-0.295786	-0.420054
Zn2	Zn	1.135203	-0.419969	-0.295873
Zn3	Zn	1.011112	-0.295789	-0.295865
Zn4	Zn	1.011060	-0.419930	-0.420009
O5	O	1.073167	-0.357868	-0.357950
O6	O	1.239205	-0.312274	-0.403603
O7	O	1.118727	-0.403514	-0.191948
O8	O	1.027644	-0.191864	-0.312354
O9	O	1.239140	-0.403511	-0.312369
O10	O	1.118879	-0.191862	-0.403595
O11	O	1.027557	-0.312279	-0.191942
O12	O	0.907180	-0.312241	-0.312311
O13	O	1.027555	-0.403444	-0.523940
O14	O	0.907142	-0.403447	-0.403519
O15	O	1.118828	-0.312236	-0.523973
O16	O	1.118676	-0.523888	-0.312325
O17	O	1.027468	-0.523860	-0.403527
C18	C	0.880215	-0.357841	-0.357909
C19	C	0.797669	-0.357847	-0.357909
C20	C	0.598217	-0.308191	-0.308425
C21	C	0.548798	-0.375927	-0.290154
C22	C	0.646539	-0.357869	-0.357943
C23	C	0.548877	-0.290157	-0.376212
C24	C	0.500553	-0.357885	-0.357974
C25	C	0.598206	-0.425641	-0.339637
C26	C	0.598289	-0.339825	-0.425726
C27	C	0.548892	-0.407607	-0.407481
C28	C	0.730637	-0.357859	-0.357923
C29	C	0.416457	-0.357903	-0.357994
C30	C	1.073077	-0.550820	-0.357938
C31	C	1.073107	-0.633366	-0.357958
C32	C	1.023557	-0.832828	-0.407536
C33	C	1.005459	-0.882261	-0.339767
C34	C	1.073180	-0.784497	-0.357967
C35	C	1.091314	-0.882146	-0.425744
C36	C	1.073249	-0.930482	-0.357983
C37	C	1.055046	-0.832842	-0.290162
C38	C	1.140933	-0.832722	-0.376186
C39	C	1.122861	-0.882133	-0.308370
C40	C	1.073138	-0.700398	-0.357959
C41	C	1.073291	-1.014578	-0.357983
C42	C	1.266872	-0.357897	-0.357992
C43	C	1.349418	-0.357909	-0.358010
C44	C	1.073196	-0.357835	-0.551656
C45	C	1.073208	-0.357821	-0.634202
C46	C	1.073277	-0.164163	-0.357979
C47	C	1.073324	-0.081617	-0.357991
C48	C	1.023612	-0.407353	-0.833635
C49	C	1.091367	-0.425511	-0.883034
C50	C	1.073245	-0.357765	-0.785332
C51	C	1.005527	-0.339586	-0.883014
C52	C	1.073274	-0.357711	-0.931317
C53	C	1.141036	-0.375958	-0.833645
C54	C	1.055150	-0.290002	-0.833620
C55	C	1.122952	-0.308134	-0.882998
C56	C	1.073227	-0.357797	-0.701234
C57	C	1.073300	-0.357679	-1.015414
C58	C	1.073181	-0.357848	-0.164998
C59	C	1.073312	-0.357652	-0.082453
H60	H	0.527060	-0.391202	-0.232844
H61	H	0.948246	-0.324232	-0.904701
C62	C	1.179738	-0.251461	-0.912108
C63	C	1.226390	-0.205771	-0.857221
C64	C	1.283180	-0.149106	-0.886336
C65	C	1.293318	-0.138129	-0.970337
C66	C	1.246664	-0.183820	-1.025229
C67	C	1.189874	-0.240486	-0.996114
H68	H	1.218886	-0.213896	-0.795034
H69	H	1.317716	-0.115283	-0.845701
H70	H	1.335357	-0.096182	-0.991889
H71	H	1.254168	-0.175696	-1.087416
H72	H	1.155338	-0.274309	-1.036749
C73	C	0.966788	-0.803572	-0.464085
C74	C	0.956799	-0.719544	-0.474923
C75	C	0.900030	-0.690285	-0.531468
C76	C	0.853249	-0.745055	-0.577173
C77	C	0.863236	-0.829088	-0.566336
C78	C	0.920006	-0.858346	-0.509792
H79	H	0.991430	-0.678995	-0.441088
H80	H	0.892637	-0.628078	-0.539490
H81	H	0.811225	-0.723396	-0.619031
H82	H	0.828605	-0.869636	-0.600171
H83	H	0.927399	-0.920553	-0.501770
H84	H	0.619875	-0.266226	-0.266503
H85	H	0.619785	-0.482928	-0.324134
H86	H	0.527370	-0.449673	-0.449370
C87	C	0.928098	-0.911662	-0.318950
C88	C	0.860650	-0.892230	-0.367411
C89	C	0.783288	-0.921628	-0.346601
C90	C	0.773373	-0.970459	-0.277330
C91	C	0.840823	-0.989894	-0.228865
C92	C	0.918185	-0.960496	-0.249675
H93	H	0.867987	-0.856080	-0.418693
H94	H	0.733357	-0.907241	-0.382478
H95	H	0.716105	-0.992222	-0.261925
H96	H	0.833485	-1.026044	-0.177583
H97	H	0.968116	-0.974883	-0.213798
C98	C	0.627686	-0.319165	-0.503124
C99	C	0.608280	-0.243462	-0.537335
C100	C	0.637679	-0.222792	-0.614733
C101	C	0.686485	-0.277827	-0.657920
C102	C	0.705894	-0.353535	-0.623709
C103	C	0.676495	-0.374205	-0.546311
H104	H	0.572149	-0.202718	-0.505366
H105	H	0.623311	-0.166748	-0.640058
H106	H	0.708248	-0.262526	-0.715215
H107	H	0.742025	-0.394280	-0.655679
H108	H	0.690863	-0.430249	-0.520987
C109	C	0.519602	-0.212791	-0.397076
C110	C	0.539080	-0.145328	-0.348642
C111	C	0.509809	-0.067961	-0.369498
C112	C	0.461059	-0.058057	-0.438788
C113	C	0.441579	-0.125523	-0.487227
C114	C	0.470850	-0.202889	-0.466370
H115	H	0.575170	-0.152657	-0.297345
H116	H	0.524229	-0.018019	-0.333641
H117	H	0.439390	-0.000786	-0.454228
H118	H	0.405489	-0.118193	-0.538523
H119	H	0.456430	-0.252832	-0.502228
H120	H	1.164855	-0.903645	-0.266409
H121	H	1.106625	-0.903802	-0.483056
H122	H	1.039669	-0.811275	-0.232834
H123	H	1.198184	-0.810948	-0.391613
C124	C	0.966963	-0.464073	-0.804345
C125	C	0.975320	-0.546691	-0.823865
C126	C	0.918676	-0.603412	-0.794574
C127	C	0.853675	-0.577515	-0.745763
C128	C	0.845316	-0.494892	-0.726241
C129	C	0.901960	-0.438171	-0.755532
H130	H	1.023440	-0.565865	-0.859999
H131	H	0.924865	-0.664575	-0.809026
H132	H	0.811744	-0.619503	-0.724081
H133	H	0.797196	-0.475718	-0.690107
H134	H	0.895771	-0.377009	-0.741080
C135	C	1.112066	-0.502893	-0.912365
C136	C	1.128293	-0.566313	-0.857653
C137	C	1.148984	-0.643696	-0.886981
C138	C	1.153448	-0.657659	-0.971021
C139	C	1.137220	-0.594237	-1.025738
C140	C	1.116529	-0.516854	-0.996410
H141	H	1.124989	-0.555978	-0.795437
H142	H	1.160997	-0.690645	-0.846476
H143	H	1.168765	-0.714943	-0.992732
H144	H	1.140524	-0.604572	-1.087955
H145	H	1.104516	-0.469905	-1.036916
C146	C	1.218443	-0.396787	-0.804479
C147	C	1.232724	-0.400691	-0.720465
C148	C	1.310129	-0.421518	-0.691297
C149	C	1.373254	-0.438440	-0.746143
C150	C	1.358976	-0.434536	-0.830161
C151	C	1.281570	-0.413709	-0.859329
H152	H	1.185993	-0.388164	-0.679861
H153	H	1.320699	-0.424408	-0.629101
H154	H	1.430555	-0.453857	-0.724551
H155	H	1.405706	-0.447063	-0.870766
H156	H	1.271000	-0.410819	-0.921526
C157	C	1.034425	-0.212641	-0.804267
C158	C	0.958695	-0.178544	-0.823703
C159	C	0.937960	-0.101183	-0.794347
C160	C	0.992955	-0.057919	-0.745556
C161	C	1.068690	-0.092015	-0.726117
C162	C	1.089424	-0.169376	-0.755473
H163	H	0.917981	-0.210572	-0.859823
H164	H	0.881896	-0.075943	-0.808737
H165	H	0.977606	-0.000651	-0.723825
H166	H	1.109404	-0.059987	-0.689997
H167	H	1.145488	-0.194616	-0.741083
