data_functionalizedCrystal
_audit_creation_method	'MofGen! by Chris Wilmer'
_symmetry_space_group_name_H-M	'P1'
_symmetry_Int_Tables_number	1
_symmetry_cell_setting	triclinic
loop_
_symmetry_equiv_pos_as_xyz
  x,y,z
_cell_length_a	11.792254
_cell_length_b	14.421503
_cell_length_c	11.792240
_cell_angle_alpha	89.994971
_cell_angle_beta	95.803993
_cell_angle_gamma	90.007633
loop_
_atom_site_label
_atom_site_type_symbol
_atom_site_fract_x
_atom_site_fract_y
_atom_site_fract_z
O1	O	1.506907	0.077132	-0.155621
O2	O	1.176568	0.077136	-0.171639
O3	O	1.349754	0.077106	0.001541
O4	O	1.333721	0.077162	-0.328800
O5	O	1.349725	-0.077118	0.001515
O6	O	1.176539	-0.077088	-0.171664
O7	O	1.506878	-0.077092	-0.155646
Cu8	Cu	1.341706	-0.091171	-0.163658
Cu9	Cu	1.341740	0.091216	-0.163627
O10	O	1.333692	-0.077061	-0.328826
C11	C	1.134263	0.000024	-0.170642
C12	C	1.008250	0.000024	-0.167622
C13	C	0.905913	0.000028	-0.165168
C14	C	0.777527	0.000028	-0.162100
N15	N	1.341690	-0.219453	-0.163679
C16	C	1.261595	-0.469092	-0.243720
C17	C	1.364290	-0.530892	-0.266386
C18	C	1.341718	-0.408614	-0.163652
C19	C	1.239050	-0.530909	-0.141013
C20	C	1.341735	-0.591336	-0.163628
C21	C	1.444465	-0.469053	-0.186368
C22	C	1.319157	-0.469064	-0.060951
C23	C	1.421926	-0.530836	-0.083573
C24	C	1.341706	-0.303353	-0.163668
C25	C	1.341759	-0.696594	-0.163611
C26	C	1.549183	0.000022	-0.156643
C27	C	1.675196	0.000028	-0.159663
C28	C	1.348732	-0.000011	0.043819
C29	C	1.345718	-0.000027	0.169832
N30	N	1.341765	0.219497	-0.163598
C31	C	1.340175	-0.000042	0.400545
C32	C	1.343255	-0.000033	0.272160
C33	C	1.334714	0.000025	0.628896
C34	C	1.337728	-0.000052	0.502883
H35	H	1.383388	-0.558049	-0.353228
H36	H	1.152218	-0.558082	-0.121876
N37	N	1.507035	-0.564624	0.001385
N38	N	1.609505	-0.544600	-0.003879
H39	H	1.669617	-0.568464	0.056119
H40	H	1.193907	-0.441983	-0.311487
H41	H	1.300027	-0.441885	0.025864
H42	H	1.531316	-0.441996	-0.205610
