data_functionalizedCrystal
_audit_creation_method	'MofGen! by Chris Wilmer'
_symmetry_space_group_name_H-M	'P1'
_symmetry_Int_Tables_number	1
_symmetry_cell_setting	triclinic
loop_
_symmetry_equiv_pos_as_xyz
  x,y,z
_cell_length_a	16.625546
_cell_length_b	16.625547
_cell_length_c	10.686551
_cell_angle_alpha	85.596409
_cell_angle_beta	94.409858
_cell_angle_gamma	89.978346
loop_
_atom_site_label
_atom_site_type_symbol
_atom_site_fract_x
_atom_site_fract_y
_atom_site_fract_z
Zn1	Zn	-0.285972	-1.267702	0.713705
Zn2	Zn	-0.035972	-1.017702	0.963705
Zn3	Zn	0.214028	-0.767702	1.213705
Zn4	Zn	0.464028	-0.517702	1.463705
Zn5	Zn	-0.431177	-1.257250	0.502682
Zn6	Zn	-0.181177	-1.007250	0.752682
Zn7	Zn	0.068823	-0.757250	1.002682
Zn8	Zn	0.318823	-0.507250	1.252682
Zn9	Zn	-0.296360	-1.122509	0.502686
Zn10	Zn	-0.046360	-0.872509	0.752686
Zn11	Zn	0.203640	-0.622509	1.002686
Zn12	Zn	0.453640	-0.372509	1.252686
Zn13	Zn	-0.420770	-1.132830	0.713606
Zn14	Zn	-0.170770	-0.882830	0.963606
Zn15	Zn	0.079230	-0.632830	1.213606
Zn16	Zn	0.329230	-0.382830	1.463606
O17	O	-0.358570	-1.195073	0.608170
O18	O	-0.108570	-0.945073	0.858170
O19	O	0.141430	-0.695073	1.108170
O20	O	0.391430	-0.445073	1.358170
O21	O	-0.305242	-1.379150	0.685752
O22	O	-0.055242	-1.129150	0.935752
O23	O	0.194758	-0.879150	1.185752
O24	O	0.444758	-0.629150	1.435752
O25	O	-0.421997	-1.230684	0.326098
O26	O	-0.171997	-0.980684	0.576098
O27	O	0.078003	-0.730684	0.826098
O28	O	0.328003	-0.480684	1.076098
O29	O	-0.182148	-1.141824	0.530722
O30	O	0.067852	-0.891824	0.780722
O31	O	0.317852	-0.641824	1.030722
O32	O	0.567852	-0.391824	1.280722
O33	O	-0.411924	-1.371471	0.530714
O34	O	-0.161924	-1.121471	0.780714
O35	O	0.088076	-0.871471	1.030714
O36	O	0.338076	-0.621471	1.280714
O37	O	-0.174516	-1.248497	0.685756
O38	O	0.075484	-0.998497	0.935756
O39	O	0.325484	-0.748497	1.185756
O40	O	0.575484	-0.498497	1.435756
O41	O	-0.322947	-1.131690	0.326101
O42	O	-0.072947	-0.881690	0.576101
O43	O	0.177053	-0.631690	0.826101
O44	O	0.427053	-0.381690	1.076101
O45	O	-0.312855	-1.011044	0.530626
O46	O	-0.062855	-0.761044	0.780626
O47	O	0.187145	-0.511044	1.030626
O48	O	0.437145	-0.261044	1.280626
O49	O	-0.394185	-1.159414	0.890203
O50	O	-0.144185	-0.909414	1.140203
O51	O	0.105815	-0.659414	1.390203
O52	O	0.355815	-0.409414	1.640203
O53	O	-0.404258	-1.018626	0.685588
O54	O	-0.154258	-0.768626	0.935588
O55	O	0.095742	-0.518626	1.185588
O56	O	0.345742	-0.268626	1.435588
O57	O	-0.295150	-1.258504	0.890276
O58	O	-0.045150	-1.008504	1.140276
O59	O	0.204850	-0.758504	1.390276
O60	O	0.454850	-0.508504	1.640276
O61	O	-0.542631	-1.240691	0.530618
O62	O	-0.292631	-0.990691	0.780618
O63	O	-0.042631	-0.740691	1.030618
O64	O	0.207369	-0.490691	1.280618
O65	O	-0.534985	-1.149279	0.685583
O66	O	-0.284985	-0.899279	0.935583
O67	O	-0.034985	-0.649279	1.185583
O68	O	0.215015	-0.399279	1.435583
C69	C	-0.358555	-0.985579	0.608097
C70	C	-0.108555	-0.735579	0.858097
C71	C	0.141445	-0.485579	1.108097
C72	C	0.391445	-0.235579	1.358097
C73	C	-0.358567	-0.895957	0.608096
C74	C	-0.108567	-0.645957	0.858096
C75	C	0.141433	-0.395957	1.108096
C76	C	0.391433	-0.145957	1.358096
C77	C	-0.358567	-0.823175	0.608107
C78	C	-0.108567	-0.573175	0.858107
C79	C	0.141433	-0.323175	1.108107
C80	C	0.391433	-0.073175	1.358107
C81	C	-0.358569	-0.731868	0.608133
C82	C	-0.108569	-0.481868	0.858133
C83	C	0.141431	-0.231868	1.108133
C84	C	0.391431	0.018132	1.358133
C85	C	-0.358574	-0.659093	0.608161
C86	C	-0.108574	-0.409093	0.858161
C87	C	0.141426	-0.159093	1.108161
C88	C	0.391426	0.090907	1.358161
C89	C	-0.358577	-0.567780	0.608186
C90	C	-0.108577	-0.317780	0.858186
C91	C	0.141423	-0.067780	1.108186
C92	C	0.391423	0.182220	1.358186
C93	C	-0.568063	-1.194994	0.608117
C94	C	-0.318063	-0.944994	0.858117
C95	C	-0.068063	-0.694994	1.108117
C96	C	0.181937	-0.444994	1.358117
C97	C	-0.657684	-1.195036	0.608137
C98	C	-0.407684	-0.945036	0.858137
C99	C	-0.157684	-0.695036	1.108137
C100	C	0.092316	-0.445036	1.358137
C101	C	-0.985853	-1.195183	0.608268
C102	C	-0.735853	-0.945183	0.858268
C103	C	-0.485853	-0.695183	1.108268
C104	C	-0.235853	-0.445183	1.358268
C105	C	-0.894546	-1.195140	0.608235
C106	C	-0.644546	-0.945140	0.858235
C107	C	-0.394546	-0.695140	1.108235
C108	C	-0.144546	-0.445140	1.358235
C109	C	-0.821771	-1.195109	0.608202
C110	C	-0.571771	-0.945109	0.858202
C111	C	-0.321771	-0.695109	1.108202
C112	C	-0.071771	-0.445109	1.358202
C113	C	-0.730458	-1.195067	0.608170
C114	C	-0.480458	-0.945067	0.858170
C115	C	-0.230458	-0.695067	1.108170
C116	C	0.019542	-0.445067	1.358170
C117	C	-0.148257	-1.195175	0.608250
C118	C	0.101743	-0.945175	0.858250
C119	C	0.351743	-0.695175	1.108250
C120	C	0.601743	-0.445175	1.358250
C121	C	-0.058634	-1.195219	0.608285
C122	C	0.191366	-0.945219	0.858285
C123	C	0.441366	-0.695219	1.108285
C124	C	0.691366	-0.445219	1.358285
C125	C	-0.342348	-1.211276	0.937306
C126	C	-0.092348	-0.961276	1.187306
C127	C	0.157652	-0.711276	1.437306
C128	C	0.407652	-0.461276	1.687306
C129	C	-0.335436	-1.218181	1.077565
C130	C	-0.085436	-0.968181	1.327565
C131	C	0.164564	-0.718181	1.577565
C132	C	0.414564	-0.468181	1.827565
C133	C	-0.358583	-0.405385	0.608228
C134	C	-0.108583	-0.155385	0.858228
C135	C	0.141417	0.094615	1.108228
C136	C	0.391417	0.344615	1.358228
C137	C	-0.358582	-0.495005	0.608213
C138	C	-0.108582	-0.245005	0.858213
C139	C	0.141418	0.004995	1.108213
C140	C	0.391418	0.254995	1.358213
C141	C	-0.374670	-1.178979	0.280314
C142	C	-0.124670	-0.928979	0.530314
C143	C	0.125330	-0.678979	0.780314
C144	C	0.375330	-0.428979	1.030314
C145	C	-0.381356	-1.172230	0.140056
C146	C	-0.131356	-0.922230	0.390056
C147	C	0.118644	-0.672230	0.640056
C148	C	0.368644	-0.422230	0.890056
H149	H	-0.425961	-1.127610	1.086256
H150	H	-0.175961	-0.877610	1.336256
H151	H	0.074039	-0.627610	1.586256
H152	H	0.324039	-0.377610	1.836256
H153	H	-0.290833	-1.262810	1.131372
H154	H	-0.040833	-1.012810	1.381372
H155	H	0.209167	-0.762810	1.631372
H156	H	0.459167	-0.512810	1.881372
