data_functionalizedCrystal
_audit_creation_method	'MofGen! by Chris Wilmer'
_symmetry_space_group_name_H-M	'P1'
_symmetry_Int_Tables_number	1
_symmetry_cell_setting	triclinic
loop_
_symmetry_equiv_pos_as_xyz
  x,y,z
_cell_length_a	15.538191
_cell_length_b	14.519731
_cell_length_c	14.185569
_cell_angle_alpha	76.818244
_cell_angle_beta	97.875798
_cell_angle_gamma	65.480473
loop_
_atom_site_label
_atom_site_type_symbol
_atom_site_fract_x
_atom_site_fract_y
_atom_site_fract_z
O1	O	1.228064	-0.271300	-0.083424
O2	O	0.953992	-0.164878	-0.083425
O3	O	1.098287	-0.354770	-0.083415
O4	O	1.083770	-0.081408	-0.083434
O5	O	1.140912	-0.410861	0.083422
O6	O	0.996618	-0.220969	0.083412
O7	O	1.270690	-0.327392	0.083414
Cu8	Cu	1.137546	-0.279302	0.098646
Cu9	Cu	1.087136	-0.212968	-0.098658
O10	O	1.126395	-0.137500	0.083404
C11	C	0.940229	-0.181789	-0.000007
C12	C	0.835714	-0.148623	-0.000007
C13	C	1.118919	-0.416946	0.000004
C14	C	1.116882	-0.518642	0.000004
C15	C	0.547344	-0.478121	-0.000001
C16	C	0.449133	-0.446933	-0.000004
C17	C	0.426996	-0.271505	-0.000015
C18	C	0.525209	-0.302680	-0.000007
C19	C	0.585375	-0.405990	-0.000001
C20	C	0.563240	-0.230548	-0.000008
C21	C	0.661443	-0.261720	-0.000005
C22	C	0.721615	-0.365024	-0.000002
C23	C	0.683578	-0.437161	0.000001
C24	C	0.503070	-0.127237	-0.000021
C25	C	0.541101	-0.055105	-0.000022
C26	C	0.639308	-0.086279	-0.000012
C27	C	0.699480	-0.189583	-0.000009
C28	C	0.677344	-0.014142	-0.000016
C29	C	0.775547	-0.045313	-0.000013
C30	C	0.797683	-0.220755	-0.000007
C31	C	1.115226	-0.601228	0.000002
C32	C	1.113155	-0.704838	-0.000006
C33	C	1.111511	-0.787423	-0.000012
C34	C	1.109441	-0.891041	-0.000018
C35	C	1.284452	-0.310480	-0.000007
C36	C	1.388966	-0.343644	-0.000013
C37	C	1.105762	-0.075322	-0.000017
C38	C	1.107798	0.026375	-0.000025
N39	N	1.173008	-0.325961	0.237420
N40	N	1.051681	-0.166319	-0.237432
C41	C	0.947492	-0.029275	0.605054
C42	C	0.974361	-0.064614	0.710078
C43	C	1.102159	-0.232726	0.710048
C44	C	1.075298	-0.197402	0.605022
C45	C	0.997964	-0.095675	0.552534
C46	C	1.125771	-0.263803	0.552501
C47	C	1.098914	-0.228480	0.447485
C48	C	1.021586	-0.126756	0.394989
C49	C	0.971108	-0.060352	0.447517
C50	C	1.203109	-0.365526	0.604992
C51	C	1.253581	-0.431927	0.552471
C52	C	1.226721	-0.396607	0.447453
C53	C	1.149392	-0.294883	0.394957
C54	C	1.277198	-0.463011	0.394925
C55	C	1.250342	-0.427688	0.289908
C56	C	1.122536	-0.259560	0.289941
H57	H	0.801574	-0.390398	-0.000014
H58	H	1.291443	-0.481758	0.247146
H59	H	0.806515	0.013421	-0.000004
N60	N	0.402761	-0.095395	-0.000007
N61	N	0.371954	-0.065956	0.070314
H62	H	0.301111	-0.043467	0.070325
N63	N	1.181159	-0.336633	0.763647
N64	N	1.265167	-0.360496	0.751886
H65	H	1.320962	-0.433884	0.789736
N66	N	0.859143	-0.326280	-0.000015
N67	N	0.898440	-0.339602	-0.070342
H68	H	0.941845	-0.414125	-0.070351
H69	H	1.059556	-0.176728	0.247203
H70	H	0.492100	0.029011	-0.000031
N71	N	0.922785	0.003204	0.763732
N72	N	0.879290	-0.026235	0.822344
H73	H	0.842866	0.021658	0.860239
N74	N	0.745039	-0.542686	-0.000008
N75	N	0.784336	-0.556009	-0.070334
H76	H	0.827741	-0.630532	-0.070343
N77	N	0.608804	-0.583662	0.000029
N78	N	0.574843	-0.648067	0.000045
H79	H	0.618249	-0.722603	0.000069
H80	H	0.999723	-0.097995	0.309478
N81	N	0.410269	-0.520606	-0.000010
N82	N	0.339974	-0.499136	-0.070339
H83	H	0.312524	-0.551165	-0.070348
H84	H	0.628340	0.069976	-0.000031
H85	H	0.908129	0.022480	0.404779
H86	H	0.377994	-0.187388	-0.000024
N87	N	0.868486	0.074636	0.551445
N88	N	0.823419	0.133914	0.598347
H89	H	0.767624	0.207299	0.560486
N90	N	1.230520	-0.401618	0.712264
N91	N	1.169747	-0.408344	0.759140
H92	H	1.189102	-0.433839	0.834902
N93	N	1.332581	-0.535824	0.606106
N94	N	1.356559	-0.567348	0.699870
H95	H	1.412355	-0.640727	0.737750
N96	N	1.356202	-0.566905	0.448562
N97	N	1.380181	-0.598424	0.542326
H98	H	1.435981	-0.671799	0.580208
