data_functionalizedCrystal
_audit_creation_method	'MofGen! by Chris Wilmer'
_symmetry_space_group_name_H-M	'P1'
_symmetry_Int_Tables_number	1
_symmetry_cell_setting	triclinic
loop_
_symmetry_equiv_pos_as_xyz
  x,y,z
_cell_length_a	11.792241
_cell_length_b	9.016244
_cell_length_c	11.792254
_cell_angle_alpha	90.002390
_cell_angle_beta	84.196007
_cell_angle_gamma	90.003149
loop_
_atom_site_label
_atom_site_type_symbol
_atom_site_fract_x
_atom_site_fract_y
_atom_site_fract_z
O1	O	1.506921	0.123197	0.155562
O2	O	2.006921	0.623197	0.655562
O3	O	1.176581	0.123232	0.171595
O4	O	1.676581	0.623232	0.671595
O5	O	1.349760	0.123203	-0.001591
O6	O	1.849760	0.623203	0.498409
O7	O	1.333742	0.123226	0.328748
O8	O	1.833742	0.623226	0.828748
O9	O	1.349734	-0.123478	-0.001587
O10	O	1.849734	0.376522	0.498413
O11	O	1.176555	-0.123449	0.171599
O12	O	1.676555	0.376551	0.671599
O13	O	1.506896	-0.123484	0.155566
O14	O	2.006896	0.376516	0.655566
Cu15	Cu	1.341723	-0.145990	0.163583
Cu16	Cu	1.841723	0.354010	0.663583
Cu17	Cu	1.341753	0.145738	0.163578
Cu18	Cu	1.841753	0.645738	0.663578
O19	O	1.333716	-0.123455	0.328752
O20	O	1.833716	0.376545	0.828752
C21	C	1.134277	-0.000104	0.170590
C22	C	1.634277	0.499896	0.670590
C23	C	1.008263	-0.000091	0.167576
C24	C	1.508263	0.499909	0.667576
N25	N	1.341710	-0.351177	0.163586
N26	N	1.841710	0.148823	0.663586
C27	C	0.777551	-0.000134	0.162033
C28	C	1.277551	0.499866	0.662033
C29	C	0.905936	-0.000111	0.165112
C30	C	1.405936	0.499889	0.665112
C31	C	1.248788	-0.586194	0.255919
C32	C	1.748788	-0.086194	0.755919
C33	C	1.248992	-0.414303	0.256264
C34	C	1.748992	0.085697	0.756264
C35	C	1.460302	-0.413525	0.190183
C36	C	1.960302	0.086475	0.690183
C37	C	1.459795	-0.585470	0.190836
C38	C	1.959795	-0.085470	0.690836
C39	C	1.317219	-0.585725	0.044349
C40	C	1.817219	-0.085725	0.544349
C41	C	1.314494	-0.413771	0.045130
C42	C	1.814494	0.086229	0.545130
C43	C	1.549199	-0.000145	0.156571
C44	C	2.049199	0.499855	0.656571
C45	C	1.675213	-0.000148	0.159586
C46	C	2.175213	0.499852	0.659586
N47	N	1.341775	0.350924	0.163567
N48	N	1.841775	0.850924	0.663567
C49	C	1.348738	-0.000137	-0.043880
C50	C	1.848738	0.499863	0.456120
C51	C	1.345718	-0.000135	-0.169893
C52	C	1.845718	0.499865	0.330107
C53	C	1.343264	-0.000130	-0.272229
C54	C	1.843264	0.499870	0.227771
C55	C	1.340196	-0.000116	-0.400616
C56	C	1.840196	0.499884	0.099384
C57	C	1.334738	-0.000112	0.371041
C58	C	1.834738	0.499888	0.871041
C59	C	1.337758	-0.000104	0.497054
C60	C	1.837758	0.499896	0.997054
H61	H	1.160864	-0.372151	0.240309
H62	H	1.660864	0.127849	0.740309
H63	H	1.264332	-0.629383	0.343875
H64	H	1.764332	-0.129383	0.843875
H65	H	1.482317	-0.370444	0.276165
H66	H	1.982317	0.129556	0.776165
C67	C	1.196631	-0.358730	0.017886
C68	C	1.696631	0.141270	0.517886
N69	N	1.107854	-0.317268	-0.002631
N70	N	1.607854	0.182732	0.497369
H71	H	1.232587	-0.629166	0.018954
H72	H	1.732587	-0.129166	0.518954
H73	H	1.481321	-0.625556	0.277803
H74	H	1.981321	-0.125556	0.777803
H75	H	1.531174	-0.372632	0.124739
H76	H	2.031174	0.127368	0.624739
H77	H	1.377759	-0.370806	-0.026869
H78	H	1.877759	0.129194	0.473131
H79	H	1.160383	-0.627579	0.240215
H80	H	1.660383	-0.127579	0.740215
C81	C	1.270277	-0.358703	0.375763
C82	C	1.770277	0.141297	0.875763
N83	N	1.286316	-0.316828	0.465773
N84	N	1.786316	0.183172	0.965773
H85	H	1.531188	-0.627064	0.126262
H86	H	2.031188	-0.127064	0.626262
H87	H	1.385021	-0.626389	-0.024385
H88	H	1.885021	-0.126389	0.475615
