data_functionalizedCrystal
_audit_creation_method	'MofGen! by Chris Wilmer'
_symmetry_space_group_name_H-M	'P1'
_symmetry_Int_Tables_number	1
_symmetry_cell_setting	triclinic
loop_
_symmetry_equiv_pos_as_xyz
  x,y,z
_cell_length_a	17.640280
_cell_length_b	17.639617
_cell_length_c	12.759393
_cell_angle_alpha	78.756784
_cell_angle_beta	78.768965
_cell_angle_gamma	87.821186
loop_
_atom_site_label
_atom_site_type_symbol
_atom_site_fract_x
_atom_site_fract_y
_atom_site_fract_z
Zn1	Zn	-0.067878	1.222298	-0.904846
Zn2	Zn	-0.194903	1.247903	-0.701958
Zn3	Zn	-0.093556	1.095291	-0.688097
Zn4	Zn	-0.220473	1.120950	-0.836554
O5	O	-0.144203	1.171610	-0.782864
O6	O	-0.063281	1.331977	-0.912314
O7	O	-0.181504	1.227636	-0.553080
O8	O	0.016125	1.090684	-0.739629
O9	O	-0.156605	1.350789	-0.763253
O10	O	0.034991	1.183996	-0.898874
O11	O	-0.107045	1.115512	-0.542896
O12	O	-0.131840	0.992411	-0.673409
O13	O	-0.200186	1.134416	-0.992652
O14	O	-0.225085	1.011263	-0.782479
O15	O	-0.088075	1.208876	-1.042826
O16	O	-0.304570	1.252516	-0.697032
O17	O	-0.323357	1.159244	-0.795920
C18	C	-0.184024	0.974279	-0.719030
C19	C	-0.201078	0.889864	-0.691742
C20	C	-0.014629	0.563315	-0.990427
C21	C	-0.030673	0.483998	-0.964761
C22	C	-0.127691	0.503576	-0.809384
C23	C	-0.111657	0.582897	-0.835040
C24	C	-0.055125	0.612760	-0.925562
C25	C	-0.152154	0.632342	-0.770176
C26	C	-0.136119	0.711655	-0.795827
C27	C	-0.079588	0.741524	-0.886342
C28	C	-0.039090	0.692073	-0.951213
C29	C	-0.208682	0.602477	-0.679650
C30	C	-0.249178	0.651921	-0.614785
C31	C	-0.233148	0.731237	-0.640440
C32	C	-0.176616	0.761106	-0.730956
C33	C	-0.273645	0.780688	-0.575569
C34	C	-0.257610	0.860001	-0.601220
C35	C	-0.160582	0.840419	-0.756607
C36	C	-0.341515	1.211464	-0.740599
C37	C	-0.425913	1.228583	-0.722576
C38	C	-0.752568	1.041870	-0.920268
C39	C	-0.831872	1.057958	-0.903299
C40	C	-0.812233	1.155142	-0.800483
C41	C	-0.732925	1.139065	-0.817448
C42	C	-0.703100	1.082428	-0.877340
C43	C	-0.683456	1.179623	-0.774520
C44	C	-0.604156	1.163545	-0.791479
C45	C	-0.574325	1.106909	-0.851365
C46	C	-0.623800	1.066350	-0.894299
C47	C	-0.713284	1.236256	-0.714622
C48	C	-0.663815	1.276814	-0.671694
C49	C	-0.584513	1.260740	-0.688658
C50	C	-0.554681	1.204103	-0.748545
C51	C	-0.535038	1.301298	-0.645725
C52	C	-0.455738	1.285220	-0.662684
C53	C	-0.475381	1.188025	-0.765504
C54	C	0.053885	1.131622	-0.825323
C55	C	0.138298	1.114581	-0.843417
C56	C	-0.104226	1.369712	-0.846947
C57	C	-0.087191	1.454131	-0.874256
C58	C	-0.144118	1.171652	-1.056931
C59	C	-0.144082	1.171670	-1.173722
C60	C	-0.085698	1.210443	-1.254714
C61	C	-0.085662	1.210450	-1.364450
C62	C	-0.202403	1.132909	-1.312189
C63	C	-0.202435	1.132898	-1.202456
C64	C	-0.144223	1.171601	-0.509888
C65	C	-0.144015	1.171687	-0.393191
H66	H	-0.066531	0.806106	-0.907223
N67	N	-0.567213	1.362384	-0.581133
H68	H	-0.523841	1.385639	-0.556512
H69	H	-0.606393	1.338164	-0.515435
N70	N	0.021875	0.724293	-1.048857
H71	H	0.045096	0.680937	-1.086065
H72	H	0.063706	0.750074	-1.024344
N73	N	-0.402376	1.328957	-0.616379
H74	H	-0.433303	1.367277	-0.575867
H75	H	-0.362336	1.357406	-0.677596
N76	N	-0.885227	1.014213	-0.949612
H77	H	-0.939990	1.032990	-0.929781
H78	H	-0.882361	0.957177	-0.918601
N79	N	-0.099628	0.872647	-0.854263
H80	H	-0.057747	0.898428	-0.829849
H81	H	-0.123966	0.911783	-0.906842
N82	N	-0.695996	1.337898	-0.607104
H83	H	-0.671197	1.389351	-0.644001
H84	H	-0.684608	1.323279	-0.531170
H85	H	-0.319668	0.756360	-0.501860
H86	H	-0.599514	1.020236	-0.943078
N87	N	0.046337	0.595535	-1.088071
H88	H	0.069558	0.552179	-1.125279
H89	H	0.088167	0.621316	-1.063558
H90	H	-0.249913	1.101344	-1.335598
H91	H	-0.728283	0.995756	-0.969048
H92	H	-0.836528	1.201254	-0.751715
H93	H	0.002313	0.443740	-1.017584
H94	H	-0.173717	0.479250	-0.735679
H95	H	-0.221719	0.537891	-0.658748
N96	N	-0.798815	1.253595	-0.696326
H97	H	-0.815065	1.271397	-0.768843
H98	H	-0.810145	1.295604	-0.651829
H99	H	-0.038119	1.242021	-1.430391
H100	H	-0.038182	1.242012	-1.231324
H101	H	-0.295205	0.627595	-0.541079
N102	N	-0.265397	1.091058	-1.115087
H103	H	-0.302358	1.066497	-1.149939
H104	H	-0.294324	1.129052	-1.072012
H105	H	-0.290586	0.900261	-0.548401
H106	H	-0.451096	1.141911	-0.814284
H107	H	-0.509754	1.093813	-0.865162
