data_functionalizedCrystal
_audit_creation_method	'MofGen! by Chris Wilmer'
_symmetry_space_group_name_H-M	'P1'
_symmetry_Int_Tables_number	1
_symmetry_cell_setting	triclinic
loop_
_symmetry_equiv_pos_as_xyz
  x,y,z
_cell_length_a	17.699083
_cell_length_b	17.699104
_cell_length_c	16.176319
_cell_angle_alpha	90.014162
_cell_angle_beta	89.992278
_cell_angle_gamma	83.287266
loop_
_atom_site_label
_atom_site_type_symbol
_atom_site_fract_x
_atom_site_fract_y
_atom_site_fract_z
O1	O	-1.004075	-0.095720	-0.068632
O2	O	-0.670742	0.237613	0.264701
O3	O	-0.337408	0.570946	0.598034
O4	O	-0.783698	-0.108173	-0.068660
O5	O	-0.450364	0.225161	0.264674
O6	O	-0.117031	0.558494	0.598007
O7	O	-0.900104	0.008241	-0.068638
O8	O	-0.566771	0.341575	0.264695
O9	O	-0.233438	0.674908	0.598029
O10	O	-0.887668	-0.212135	-0.068654
O11	O	-0.554335	0.121199	0.264679
O12	O	-0.221002	0.454532	0.598012
O13	O	-0.900110	0.008266	0.068855
O14	O	-0.566777	0.341599	0.402189
O15	O	-0.233444	0.674932	0.735522
O16	O	-0.783703	-0.108149	0.068834
O17	O	-0.450370	0.225185	0.402167
O18	O	-0.117037	0.558518	0.735500
O19	O	-1.004081	-0.095696	0.068861
O20	O	-0.670748	0.237637	0.402194
O21	O	-0.337414	0.570970	0.735527
Cu22	Cu	-0.893893	-0.101920	0.081401
Cu23	Cu	-0.560559	0.231413	0.414735
Cu24	Cu	-0.227226	0.564746	0.748068
Cu25	Cu	-0.893886	-0.101949	-0.081200
Cu26	Cu	-0.560552	0.231385	0.252133
Cu27	Cu	-0.227219	0.564718	0.585466
O28	O	-0.887674	-0.212111	0.068839
O29	O	-0.554341	0.121223	0.402172
O30	O	-0.221008	0.454556	0.735506
C31	C	-0.755503	-0.107715	0.000083
C32	C	-0.422170	0.225619	0.333417
C33	C	-0.088837	0.558952	0.666750
C34	C	-0.671485	-0.106376	0.000073
C35	C	-0.338152	0.226957	0.333407
C36	C	-0.004819	0.560291	0.666740
N37	N	-0.893881	-0.101963	-0.195565
N38	N	-0.560548	0.231370	0.137768
N39	N	-0.227215	0.564703	0.471101
C40	C	-0.899659	0.036450	0.000109
C41	C	-0.566326	0.369784	0.333442
C42	C	-0.232992	0.703117	0.666775
C43	C	-0.898314	0.120467	0.000109
C44	C	-0.564981	0.453801	0.333442
C45	C	-0.231647	0.787134	0.666776
C46	C	-1.032275	-0.096155	0.000116
C47	C	-0.698942	0.237179	0.333449
C48	C	-0.365608	0.570512	0.666782
C49	C	-1.116293	-0.097493	0.000121
C50	C	-0.782960	0.235840	0.333454
C51	C	-0.449627	0.569173	0.666787
C52	C	-0.622869	-0.174709	0.000068
C53	C	-0.289536	0.158625	0.333402
C54	C	0.043797	0.491958	0.666735
C55	C	-0.543926	-0.173446	0.000079
C56	C	-0.210593	0.159887	0.333413
C57	C	0.122741	0.493220	0.666746
C58	C	-0.513600	-0.103851	0.000089
C59	C	-0.180267	0.229483	0.333422
C60	C	0.153067	0.562816	0.666756
C61	C	-0.562222	-0.035513	0.000096
C62	C	-0.228889	0.297821	0.333430
C63	C	0.104445	0.631154	0.666763
C64	C	-0.641164	-0.036776	0.000091
C65	C	-0.307831	0.296558	0.333425
C66	C	0.025503	0.629891	0.666758
C67	C	-0.243859	-0.030418	0.000117
C68	C	0.089475	0.302916	0.333450
C69	C	0.422808	0.636249	0.666784
C70	C	-0.164911	-0.029160	0.000119
C71	C	0.168423	0.304174	0.333453
C72	C	0.501756	0.637507	0.666786
C73	C	-0.146621	-0.167088	0.000105
C74	C	0.186713	0.166245	0.333438
C75	C	0.520046	0.499578	0.666772
C76	C	-0.225563	-0.168351	0.000100
C77	C	0.107771	0.164982	0.333433
C78	C	0.441104	0.498315	0.666767
C79	C	-0.274178	-0.100014	0.000112
C80	C	0.059156	0.233320	0.333445
C81	C	0.392489	0.566653	0.666778
C82	C	-0.359777	-0.101383	0.000102
C83	C	-0.026444	0.231950	0.333435
C84	C	0.306890	0.565283	0.666768
C85	C	-0.428002	-0.102480	0.000093
C86	C	-0.094669	0.230853	0.333427
C87	C	0.238664	0.564186	0.666760
C88	C	-0.888120	-0.240319	0.000091
C89	C	-0.554786	0.093014	0.333424
C90	C	-0.221453	0.426347	0.666757
C91	C	-0.889464	-0.324337	0.000085
C92	C	-0.556131	0.008997	0.333418
C93	C	-0.222798	0.342330	0.666752
C94	C	-0.959058	0.645338	0.000093
C95	C	-0.625725	0.978672	0.333426
C96	C	-0.292391	1.312005	0.666760
C97	C	-0.960317	0.566395	0.000101
C98	C	-0.626984	0.899728	0.333434
C99	C	-0.293650	1.233061	0.666767
C100	C	-0.891982	0.517777	0.000094
C101	C	-0.558648	0.851111	0.333427
C102	C	-0.225315	1.184444	0.666761
C103	C	-0.822383	0.548107	0.000088
C104	C	-0.489050	0.881440	0.333422
C105	C	-0.155716	1.214774	0.666755
C106	C	-0.821125	0.627049	0.000087
C107	C	-0.487791	0.960383	0.333420
C108	C	-0.154458	1.293716	0.666753
C109	C	-0.827456	0.229741	0.000096
C110	C	-0.494123	0.563074	0.333429
C111	C	-0.160789	0.896408	0.666762
C112	C	-0.828720	0.150794	0.000095
C113	C	-0.495386	0.484127	0.333428
C114	C	-0.162053	0.817460	0.666762
C115	C	-0.966648	0.169086	0.000110
C116	C	-0.633315	0.502420	0.333443
C117	C	-0.299982	0.835753	0.666776
C118	C	-0.965390	0.248029	0.000108
C119	C	-0.632057	0.581362	0.333441
C120	C	-0.298723	0.914695	0.666775
C121	C	-0.895792	0.278352	0.000107
C122	C	-0.562459	0.611685	0.333440
C123	C	-0.229125	0.945018	0.666773
C124	C	-0.894427	0.363951	0.000100
C125	C	-0.561094	0.697285	0.333434
C126	C	-0.227761	1.030618	0.666767
C127	C	-0.893345	0.432179	0.000095
C128	C	-0.560012	0.765512	0.333428
C129	C	-0.226679	1.098845	0.666761
C130	C	-0.848161	-0.056017	-0.238825
C131	C	-0.514827	0.277316	0.094508
C132	C	-0.181494	0.610650	0.427841
C133	C	-0.848166	-0.056005	-0.325372
C134	C	-0.514833	0.277329	0.007961
C135	C	-0.181499	0.610662	0.341294
C136	C	-0.893889	-0.101943	-0.368658
C137	C	-0.560555	0.231390	-0.035325
C138	C	-0.227222	0.564723	0.298009
C139	C	-0.939614	-0.147891	-0.325392
C140	C	-0.606281	0.185442	0.007941
C141	C	-0.272948	0.518775	0.341275
C142	C	-0.939613	-0.147899	-0.238847
C143	C	-0.606279	0.185434	0.094487
C144	C	-0.272946	0.518767	0.427820
C145	C	-0.939624	-0.147861	-0.674420
C146	C	-0.606290	0.185473	-0.341087
C147	C	-0.272957	0.518806	-0.007754
C148	C	-0.939620	-0.147851	-0.760972
C149	C	-0.606287	0.185482	-0.427639
C150	C	-0.272954	0.518816	-0.094305
C151	C	-0.848177	-0.055966	-0.760946
C152	C	-0.514844	0.277367	-0.427613
C153	C	-0.181510	0.610701	-0.094280
C154	C	-0.848175	-0.055974	-0.674401
C155	C	-0.514842	0.277360	-0.341067
C156	C	-0.181509	0.610693	-0.007734
C157	C	-0.893904	-0.101919	-0.631142
C158	C	-0.560571	0.231415	-0.297809
C159	C	-0.227237	0.564748	0.035524
C160	C	-0.893899	-0.101930	-0.537298
C161	C	-0.560565	0.231403	-0.203965
C162	C	-0.227232	0.564736	0.129369
C163	C	-0.893890	-0.101936	-0.462501
C164	C	-0.560557	0.231397	-0.129167
C165	C	-0.227224	0.564731	0.204166
N166	N	-0.893903	-0.101900	0.195767
N167	N	-0.560570	0.231433	0.529100
N168	N	-0.227237	0.564767	0.862433
H169	H	-0.647554	-0.231382	0.000060
H170	H	-0.314221	0.101952	0.333393
H171	H	0.019113	0.435285	0.666727
H172	H	-0.810945	-0.018553	-0.796178
H173	H	-0.477612	0.314780	-0.462844
H174	H	-0.144278	0.648114	-0.129511
Br175	Br	-0.123755	0.065298	0.000130
Br176	Br	0.209579	0.398632	0.333464
Br177	Br	0.542912	0.731965	0.666797
H178	H	-0.810924	-0.018612	-0.203588
H179	H	-0.477590	0.314721	0.129745
H180	H	-0.144257	0.648054	0.463078
Br181	Br	-0.309827	0.062327	0.000135
Br182	Br	0.023507	0.395660	0.333468
Br183	Br	0.356840	0.728993	0.666802
H184	H	-0.764455	0.651738	0.000087
H185	H	-0.431121	0.985071	0.333420
H186	H	-0.097788	1.318405	0.666753
H187	H	-1.016987	0.541708	0.000108
H188	H	-0.683654	0.875042	0.333441
H189	H	-0.350320	1.208375	0.666775
H190	H	-0.810938	-0.018588	-0.360591
H191	H	-0.477604	0.314745	-0.027258
H192	H	-0.144271	0.648078	0.306076
H193	H	-0.766743	0.508516	0.000088
H194	H	-0.433410	0.841849	0.333421
H195	H	-0.100077	1.175183	0.666754
Br196	Br	-0.521066	0.058940	0.000118
Br197	Br	-0.187733	0.392274	0.333451
Br198	Br	0.145600	0.725607	0.666784
H199	H	-1.014705	0.684918	0.000092
H200	H	-0.681371	1.018251	0.333425
H201	H	-0.348038	1.351585	0.666758
Br202	Br	-0.786116	0.006368	-0.615660
Br203	Br	-0.452782	0.339702	-0.282327
Br204	Br	-0.119449	0.673035	0.051007
Br205	Br	-0.735973	0.084812	0.000084
Br206	Br	-0.402639	0.418145	0.333418
Br207	Br	-0.069306	0.751479	0.666751
Br208	Br	-1.001673	-0.210232	-0.384136
Br209	Br	-0.668340	0.123101	-0.050802
Br210	Br	-0.335007	0.456435	0.282531
H211	H	-0.680747	0.018868	0.000095
H212	H	-0.347414	0.352201	0.333428
H213	H	-0.014080	0.685535	0.666761
Br214	Br	-1.058134	0.314006	0.000112
Br215	Br	-0.724801	0.647340	0.333445
Br216	Br	-0.391467	0.980673	0.666778
H217	H	-1.023319	0.144388	0.000100
H218	H	-0.689986	0.477722	0.333433
H219	H	-0.356652	0.811055	0.666767
Br220	Br	-0.733001	0.270884	0.000088
Br221	Br	-0.399668	0.604217	0.333421
Br222	Br	-0.066335	0.937550	0.666754
H223	H	-0.976856	-0.185262	-0.796213
H224	H	-0.643522	0.148071	-0.462879
H225	H	-0.310189	0.481405	-0.129546
H226	H	-0.976844	-0.185313	-0.203625
H227	H	-0.643510	0.148020	0.129708
H228	H	-0.310177	0.481354	0.463041
Br229	Br	-0.477949	-0.266188	0.000070
Br230	Br	-0.144616	0.067145	0.333403
Br231	Br	0.188717	0.400479	0.666737
Br232	Br	-0.080639	-0.259834	0.000090
Br233	Br	0.252695	0.073499	0.333423
Br234	Br	0.586028	0.406832	0.666757
Br235	Br	-0.266715	-0.262806	0.000079
Br236	Br	0.066618	0.070528	0.333413
Br237	Br	0.399952	0.403861	0.666746
Br238	Br	-1.001679	-0.210219	-0.615723
Br239	Br	-0.668346	0.123114	-0.282390
Br240	Br	-0.335013	0.456448	0.050943
