data_functionalizedCrystal
_audit_creation_method	'MofGen! by Chris Wilmer'
_symmetry_space_group_name_H-M	'P1'
_symmetry_Int_Tables_number	1
_symmetry_cell_setting	triclinic
loop_
_symmetry_equiv_pos_as_xyz
  x,y,z
_cell_length_a	14.971482
_cell_length_b	9.482944
_cell_length_c	14.971494
_cell_angle_alpha	100.414241
_cell_angle_beta	83.615083
_cell_angle_gamma	100.462883
loop_
_atom_site_label
_atom_site_type_symbol
_atom_site_fract_x
_atom_site_fract_y
_atom_site_fract_z
O1	O	1.199465	0.120871	0.128990
O2	O	0.939065	0.120878	0.142953
O3	O	1.076240	0.120871	0.005771
O4	O	1.062290	0.120878	0.266171
O5	O	1.051194	-0.120921	-0.019125
O6	O	0.914020	-0.120914	0.118056
O7	O	1.174419	-0.120921	0.104093
Cu8	Cu	1.041932	-0.142995	0.108802
Cu9	Cu	1.071552	0.142952	0.138245
O10	O	1.037244	-0.120914	0.241275
C11	C	0.893218	-0.000017	0.129881
C12	C	0.793921	-0.000015	0.128012
C13	C	0.733623	-0.131817	0.113560
C14	C	0.640325	-0.131819	0.111789
C15	C	0.607324	-0.000016	0.124476
C16	C	0.667629	0.131796	0.138927
C17	C	0.760927	0.131796	0.140691
C18	C	0.473166	0.131787	0.135250
C19	C	0.379862	0.131787	0.133488
C20	C	0.352564	-0.131828	0.106348
C21	C	0.445862	-0.131828	0.108113
C22	C	0.506160	-0.000015	0.122565
N23	N	1.021106	-0.344115	0.088092
C24	C	1.065402	-0.416315	0.132136
C25	C	1.048082	-0.583732	0.114897
C26	C	1.220267	-0.000022	0.117166
C27	C	1.319565	-0.000015	0.119036
C28	C	1.063092	-0.000023	-0.040001
C29	C	1.061219	-0.000016	-0.139297
N30	N	1.092385	0.344072	0.158947
C31	C	1.073993	0.131787	-0.172371
C32	C	1.072227	0.131789	-0.265669
C33	C	1.057693	-0.000014	-0.325894
C34	C	1.044915	-0.131826	-0.292815
C35	C	1.046675	-0.131827	-0.199517
C36	C	1.041250	-0.131817	-0.487277
C37	C	1.039492	-0.131817	-0.580582
C38	C	1.066802	0.131799	-0.553430
C39	C	1.068562	0.131799	-0.460131
C40	C	1.055786	-0.000015	-0.427059
C41	C	1.050392	-0.000017	0.287048
C42	C	1.052266	-0.000014	0.386345
H43	H	0.640754	0.239112	0.149251
Br44	Br	0.335075	0.310664	0.150707
Br45	Br	0.490646	-0.310705	0.090908
Br46	Br	1.089563	0.310672	-0.310551
H47	H	1.143136	-0.593805	0.209418
H48	H	0.303464	-0.239156	0.094581
Br49	Br	0.555000	0.310678	0.154859
H50	H	0.970363	-0.406245	0.037620
H51	H	1.085833	0.239116	-0.123341
Br52	Br	1.025175	-0.310704	-0.374546
Br53	Br	0.842762	0.310678	0.160297
H54	H	1.036260	-0.239154	-0.172589
Br55	Br	1.088299	0.310675	-0.378399
Br56	Br	1.023912	-0.310708	-0.442394
H57	H	0.997335	-0.645857	0.064422
H58	H	1.116152	-0.354184	0.182602
H59	H	0.760483	-0.239146	0.103236
H60	H	1.077204	0.239126	-0.580361
H61	H	1.027650	-0.239142	-0.629615
H62	H	0.591236	-0.239146	0.100006
