data_functionalizedCrystal
_audit_creation_method	'MofGen! by Chris Wilmer'
_symmetry_space_group_name_H-M	'P1'
_symmetry_Int_Tables_number	1
_symmetry_cell_setting	triclinic
loop_
_symmetry_equiv_pos_as_xyz
  x,y,z
_cell_length_a	15.995300
_cell_length_b	19.188940
_cell_length_c	15.072220
_cell_angle_alpha	89.998408
_cell_angle_beta	89.985917
_cell_angle_gamma	83.310261
loop_
_atom_site_label
_atom_site_type_symbol
_atom_site_fract_x
_atom_site_fract_y
_atom_site_fract_z
O1	O	1.110697	0.089824	-0.073816
O2	O	1.610697	0.589824	0.426184
O3	O	0.866875	0.100974	-0.073811
O4	O	1.366875	0.600974	0.426189
O5	O	0.995818	-0.006240	-0.073807
O6	O	1.495818	0.493760	0.426193
O7	O	0.981754	0.197037	-0.073820
O8	O	1.481754	0.697037	0.426180
O9	O	0.995786	-0.006234	0.073759
O10	O	1.495786	0.493766	0.573759
O11	O	0.866844	0.100980	0.073754
O12	O	1.366844	0.600980	0.573754
O13	O	1.110665	0.089830	0.073749
O14	O	1.610665	0.589830	0.573749
Zn15	Zn	0.988749	0.095406	0.097181
Zn16	Zn	1.488749	0.595406	0.597181
Zn17	Zn	0.988791	0.095398	-0.097242
Zn18	Zn	1.488791	0.595398	0.402758
O19	O	0.981722	0.197043	0.073745
O20	O	1.481722	0.697043	0.573745
C21	C	0.835666	0.100522	-0.000027
C22	C	1.335666	0.600522	0.499973
C23	C	0.742718	0.099159	-0.000025
C24	C	1.242718	0.599159	0.499975
C25	C	0.572544	0.096641	-0.000032
C26	C	1.072544	0.596641	0.499968
C27	C	0.524802	0.172979	-0.000035
C28	C	1.024802	0.672979	0.499965
C29	C	0.428119	0.171586	-0.000372
C30	C	0.928119	0.671586	0.499628
C31	C	0.404996	0.094163	-0.000037
C32	C	0.904996	0.594163	0.499963
C33	C	0.446284	0.056285	-0.084136
C34	C	0.946284	0.556285	0.415864
C35	C	0.542911	0.058217	-0.084204
C36	C	1.042911	0.558217	0.415796
C37	C	0.543158	0.057093	0.083611
C38	C	1.043158	0.557093	0.583611
C39	C	0.446213	0.057101	0.084714
C40	C	0.946213	0.557101	0.584714
C41	C	0.310306	0.092758	-0.000043
C42	C	0.810306	0.592758	0.499957
C43	C	0.667235	0.098043	-0.000032
C44	C	1.167235	0.598043	0.499968
C45	C	0.995345	-0.032249	-0.000024
C46	C	1.495345	0.467751	0.499976
C47	C	0.993974	-0.109756	-0.000025
C48	C	1.493974	0.390244	0.499975
C49	C	0.984201	-0.663035	0.080392
C50	C	1.484201	-0.163035	0.580392
C51	C	0.985481	-0.590208	0.080397
C52	C	1.485481	-0.090208	0.580397
C53	C	0.986142	-0.553790	-0.000039
C54	C	1.486142	-0.053790	0.499961
C55	C	0.985502	-0.590203	-0.080487
C56	C	1.485502	-0.090203	0.419513
C57	C	0.984214	-0.663029	-0.080490
C58	C	1.484214	-0.163029	0.419510
N59	N	1.035823	-0.444650	-0.059911
N60	N	1.535823	0.055350	0.440089
N61	N	1.037048	-0.375469	-0.059903
N62	N	1.537048	0.124531	0.440097
C63	C	0.990020	-0.334372	-0.000036
C64	C	1.490020	0.165628	0.499964
N65	N	0.941730	-0.365070	0.059836
N66	N	1.441730	0.134930	0.559836
N67	N	0.940509	-0.434257	0.059830
N68	N	1.440509	0.065743	0.559830
C69	C	0.987537	-0.474823	-0.000046
C70	C	1.487537	0.025177	0.499954
C71	C	0.992041	-0.218998	0.080411
C72	C	1.492041	0.281002	0.580411
C73	C	0.993315	-0.146169	0.080413
C74	C	1.493315	0.353831	0.580413
C75	C	0.993344	-0.146167	-0.080474
C76	C	1.493344	0.353833	0.419526
C77	C	0.992062	-0.218994	-0.080473
C78	C	1.492062	0.281006	0.419527
C79	C	0.991414	-0.255406	-0.000028
C80	C	1.491414	0.244594	0.499972
C81	C	1.141875	0.090281	-0.000036
C82	C	1.641875	0.590281	0.499964
C83	C	1.234822	0.091645	-0.000044
C84	C	1.734822	0.591645	0.499956
C85	C	0.982195	0.223052	-0.000039
C86	C	1.482195	0.723052	0.499961
C87	C	0.983566	0.300559	-0.000045
C88	C	1.483566	0.800559	0.499955
N89	N	0.988727	0.095411	0.229870
N90	N	1.488727	0.595411	0.729870
N91	N	0.988820	0.095387	-0.229931
N92	N	1.488820	0.595387	0.270069
C93	C	0.988790	0.095395	0.589071
C94	C	1.488790	0.595395	1.089071
C95	C	0.919565	0.152571	0.551462
C96	C	1.419565	0.652571	1.051462
C97	C	0.919722	0.152779	0.448636
C98	C	1.419722	0.652779	0.948636
C99	C	0.988758	0.095403	0.410867
C100	C	1.488758	0.595403	0.910867
C101	C	1.076067	0.111301	0.448155
C102	C	1.576067	0.611301	0.948155
C103	C	1.075679	0.111707	0.551013
C104	C	1.575679	0.611707	1.051013
C105	C	0.971485	0.022152	0.551177
C106	C	1.471485	0.522152	1.051177
C107	C	0.969478	0.022641	0.448314
C108	C	1.469478	0.522641	0.948314
C109	C	0.988745	0.095406	0.310154
C110	C	1.488745	0.595406	0.810154
C111	C	0.988808	0.095394	0.689785
C112	C	1.488808	0.595394	1.189785
H113	H	0.575388	0.002161	-0.087794
H114	H	1.075388	0.502161	0.412206
C115	C	0.986185	-0.550154	0.168881
C116	C	1.486185	-0.050154	0.668881
H117	H	0.985619	-0.582271	0.216790
H118	H	1.485619	-0.082271	0.716790
H119	H	0.937872	-0.516412	0.172234
H120	H	1.437872	-0.016412	0.672234
H121	H	1.035512	-0.527080	0.172213
H122	H	1.535512	-0.027080	0.672213
C123	C	0.887350	0.001504	0.586255
C124	C	1.387350	0.501504	1.086255
H125	H	0.878113	-0.042845	0.562593
H126	H	1.378113	0.457155	1.062593
H127	H	0.842798	0.035809	0.568649
H128	H	1.342798	0.535809	1.068649
H129	H	0.889239	-0.001198	0.649171
H130	H	1.389239	0.498802	1.149171
C131	C	0.986230	-0.550150	-0.168967
C132	C	1.486230	-0.050150	0.331033
H133	H	0.985662	-0.582265	-0.216875
H134	H	1.485662	-0.082265	0.283125
H135	H	1.035551	-0.527073	-0.172315
H136	H	1.535551	-0.027073	0.327685
H137	H	0.937911	-0.516410	-0.172305
H138	H	1.437911	-0.016410	0.327695
H139	H	1.016643	-0.021899	0.422607
H140	H	1.516643	0.478101	0.922607
C141	C	1.147334	0.057590	0.584624
C142	C	1.647334	0.557590	1.084624
H143	H	1.176556	0.035459	0.535414
H144	H	1.676556	0.535459	1.035414
H145	H	1.124435	0.023284	0.619657
H146	H	1.624435	0.523284	1.119657
H147	H	1.185227	0.080648	0.619525
H148	H	1.685227	0.580648	1.119525
H149	H	0.983696	-0.692669	-0.145993
H150	H	1.483696	-0.192669	0.354007
C151	C	1.039677	-0.035329	0.584036
C152	C	1.539677	0.464671	1.084036
H153	H	1.078511	-0.014830	0.620672
H154	H	1.578511	0.485170	1.120672
H155	H	1.068541	-0.057380	0.534571
H156	H	1.568541	0.442620	1.034571
H157	H	1.014048	-0.069231	0.617159
H158	H	1.514048	0.430769	1.117159
H159	H	0.418760	0.084761	0.146931
H160	H	0.918760	0.584761	0.646931
C161	C	0.991313	-0.259053	0.168895
C162	C	1.491313	0.240947	0.668895
H163	H	0.991860	-0.226936	0.216803
H164	H	1.491860	0.273064	0.716803
H165	H	1.039626	-0.292793	0.172241
H166	H	1.539626	0.207207	0.672241
H167	H	0.941987	-0.282130	0.172235
H168	H	1.441987	0.217870	0.672235
H169	H	0.854815	0.143309	0.423428
H170	H	1.354815	0.643309	0.923428
C171	C	0.994015	-0.106123	0.168898
C172	C	1.494015	0.393877	0.668898
H173	H	0.993453	-0.138243	0.216804
H174	H	1.493453	0.361757	0.716804
H175	H	0.945700	-0.072384	0.172254
H176	H	1.445700	0.427616	0.672254
H177	H	1.043340	-0.083046	0.172232
H178	H	1.543340	0.416954	0.672232
H179	H	0.561145	0.085510	-0.147310
H180	H	1.061145	0.585510	0.352690
C181	C	0.389500	0.211794	0.081044
C182	C	0.889500	0.711794	0.581044
H183	H	0.432894	0.229132	0.114622
H184	H	0.932894	0.729132	0.614622
H185	H	0.361310	0.181120	0.116828
H186	H	0.861310	0.681120	0.616828
H187	H	0.350479	0.249953	0.061906
H188	H	0.850479	0.749953	0.561906
H189	H	0.905254	0.010575	0.423944
H190	H	1.405254	0.510575	0.923944
H191	H	1.128799	0.070765	0.423688
H192	H	1.628799	0.570765	0.923688
H193	H	0.431079	0.000653	0.090045
H194	H	0.931079	0.500653	0.590045
C195	C	0.586368	-0.018937	0.084716
C196	C	1.086368	0.481063	0.584716
H197	H	0.622150	-0.026570	0.034481
H198	H	1.122150	0.473430	0.534481
H199	H	0.544831	-0.050488	0.082999
H200	H	1.044831	0.449512	0.582999
H201	H	0.618800	-0.026652	0.137344
H202	H	1.118800	0.473348	0.637344
H203	H	0.544314	0.203198	-0.060255
H204	H	1.044314	0.703198	0.439745
C205	C	0.994075	-0.106117	-0.168953
C206	C	1.494075	0.393883	0.331047
H207	H	0.994939	-0.057530	-0.157432
H208	H	1.494939	0.442470	0.342568
H209	H	0.945056	-0.112720	-0.202007
H210	H	1.445056	0.387280	0.297993
H211	H	1.042696	-0.123383	-0.202002
H212	H	1.542696	0.376617	0.297998
H213	H	0.563553	0.082229	0.147374
H214	H	1.063553	0.582229	0.647374
H215	H	0.983673	-0.692677	0.145897
H216	H	1.483673	-0.192677	0.645897
H217	H	0.991550	-0.248636	-0.145974
H218	H	1.491550	0.251364	0.354026
C219	C	0.427514	-0.020565	-0.088052
C220	C	0.927514	0.479435	0.411948
H221	H	0.453060	-0.042478	-0.139400
H222	H	0.953060	0.457522	0.360600
H223	H	0.368383	-0.021910	-0.090579
H224	H	0.868383	0.478090	0.409421
H225	H	0.449531	-0.044722	-0.036595
H226	H	0.949531	0.455278	0.463405
C227	C	1.097226	0.182639	0.413348
C228	C	1.597226	0.682639	0.913348
H229	H	1.052971	0.202825	0.376103
H230	H	1.552971	0.702825	0.876103
H231	H	1.148210	0.176051	0.380471
H232	H	1.648210	0.676051	0.880471
H233	H	1.103531	0.213059	0.462005
H234	H	1.603531	0.713059	0.962005
H235	H	0.854447	0.143256	0.576226
H236	H	1.354447	0.643256	1.076226
H237	H	0.400177	0.201216	-0.061012
H238	H	0.900177	0.701216	0.438988
C239	C	0.934246	0.225585	0.586353
C240	C	1.434246	0.725585	1.086353
H241	H	0.982382	0.221376	0.623738
H242	H	1.482382	0.721376	1.123738
H243	H	0.886378	0.245032	0.619100
H244	H	1.386378	0.745032	1.119100
H245	H	0.943055	0.255389	0.537739
H246	H	1.443055	0.755389	1.037739
H247	H	0.930745	0.207132	0.424019
H248	H	1.430745	0.707132	0.924019
C249	C	1.096322	0.183868	0.583410
C250	C	1.596322	0.683868	1.083410
H251	H	1.104862	0.212659	0.533709
H252	H	1.604862	0.712659	1.033709
H253	H	1.145972	0.177977	0.618493
H254	H	1.645972	0.677977	1.118493
H255	H	1.050852	0.205493	0.618001
H256	H	1.550852	0.705493	1.118001
H257	H	0.417819	0.082248	-0.146961
H258	H	0.917819	0.582248	0.353039
C259	C	0.549617	0.214432	0.081415
C260	C	1.049617	0.714432	0.581415
H261	H	0.589320	0.185559	0.116152
H262	H	1.089320	0.685559	0.616152
H263	H	0.500960	0.228559	0.116050
H264	H	1.000960	0.728559	0.616050
H265	H	0.573902	0.254751	0.062289
H266	H	1.073902	0.754751	0.562289
