data_functionalizedCrystal
_audit_creation_method	'MofGen! by Chris Wilmer'
_symmetry_space_group_name_H-M	'P1'
_symmetry_Int_Tables_number	1
_symmetry_cell_setting	triclinic
loop_
_symmetry_equiv_pos_as_xyz
  x,y,z
_cell_length_a	10.654550
_cell_length_b	10.654562
_cell_length_c	9.730223
_cell_angle_alpha	89.997558
_cell_angle_beta	89.998582
_cell_angle_gamma	84.487503
loop_
_atom_site_label
_atom_site_type_symbol
_atom_site_fract_x
_atom_site_fract_y
_atom_site_fract_z
O1	O	0.176472	1.667823	-0.114377
O2	O	0.193261	1.302347	-0.114359
O3	O	0.002127	1.493488	-0.114363
O4	O	0.367605	1.476682	-0.114373
O5	O	0.002128	1.493489	0.114217
O6	O	0.193261	1.302347	0.114221
O7	O	0.176472	1.667824	0.114203
Zn8	Zn	0.184866	1.485086	0.150504
Zn9	Zn	0.184866	1.485085	-0.150660
O10	O	0.367605	1.476683	0.114207
C11	C	0.192025	1.255549	-0.000067
C12	C	0.188327	1.116107	-0.000060
C13	C	-0.044671	1.492254	-0.000075
C14	C	-0.184114	1.488563	-0.000079
C15	C	0.186602	1.050576	0.124528
C16	C	0.183137	0.919554	0.124505
C17	C	0.183127	0.919604	-0.124705
C18	C	0.186583	1.050625	-0.124681
C19	C	0.186613	1.050546	0.268408
C20	C	0.183148	0.919524	0.268385
C21	C	-0.263595	1.601103	-0.000081
C22	C	-0.394615	1.597627	-0.000090
C23	C	-0.366662	1.369059	-0.000091
C24	C	-0.235644	1.372537	-0.000092
C25	C	-0.279734	1.733066	-0.000074
C26	C	-0.410755	1.729589	-0.000083
C27	C	0.414403	1.477916	-0.000084
C28	C	0.553847	1.481608	-0.000088
C29	C	0.177708	1.714621	-0.000092
C30	C	0.181406	1.854064	-0.000108
N31	N	0.184866	1.485095	0.356040
N32	N	0.184857	1.485085	-0.356196
C33	C	0.261741	1.561917	0.571869
C34	C	0.261749	1.561919	0.427986
C35	C	0.107979	1.408255	0.427986
C36	C	0.107978	1.408247	0.571866
C37	C	0.350515	1.650637	0.571868
C38	C	0.350523	1.650639	0.427985
H39	H	0.187968	1.103977	-0.226133
H40	H	-0.408635	1.274594	-0.000102
H41	H	0.278208	1.080121	0.313049
C42	C	0.308984	1.784359	0.231349
C43	C	0.308927	1.784367	0.375255
H44	H	0.283335	1.866921	0.198799
H45	H	0.252156	1.727660	0.198798
H46	H	0.391510	1.758510	0.198856
H47	H	0.226399	1.810208	0.407748
H48	H	0.365757	1.841086	0.407819
C49	C	-0.109040	1.806203	-0.129183
C50	C	-0.240082	1.802730	-0.129207
H51	H	-0.084563	1.849214	-0.208900
H52	H	-0.069098	1.722575	-0.129181
H53	H	-0.084590	1.849195	-0.049459
H54	H	-0.264531	1.759730	-0.208926
H55	H	-0.280038	1.886373	-0.129222
H56	H	0.311042	1.745214	0.616498
H57	H	0.099819	1.096806	0.323663
C58	C	0.562018	1.562258	0.474903
C59	C	0.478183	1.597295	0.367727
H60	H	0.640827	1.529331	0.437697
H61	H	0.528552	1.499741	0.529839
H62	H	0.573545	1.633951	0.529843
H63	H	0.466648	1.525600	0.312792
H64	H	0.511656	1.659817	0.312767
H65	H	0.091554	0.889936	0.313033
H66	H	0.269944	0.873238	0.323618
C67	C	-0.221180	1.146261	-0.000101
C68	C	-0.148277	1.248828	-0.000098
H69	H	-0.167240	1.069887	-0.000096
H70	H	-0.272858	1.149665	-0.079807
H71	H	-0.272869	1.149661	0.079616
H72	H	-0.096595	1.245433	-0.079820
H73	H	-0.096577	1.245422	0.079616
H74	H	-0.244105	1.775087	0.098620
C75	C	-0.534967	1.690269	-0.198604
C76	C	-0.472375	1.783424	-0.133316
H77	H	-0.573001	1.723502	-0.280860
H78	H	-0.598153	1.663888	-0.139244
H79	H	-0.476188	1.620248	-0.220006
H80	H	-0.531156	1.853442	-0.111905
H81	H	-0.409182	1.809824	-0.192689
C82	C	0.056710	1.197447	0.383686
C83	C	0.023474	1.323800	0.348907
H84	H	0.004542	1.145309	0.334861
H85	H	0.045698	1.186460	0.479659
H86	H	0.142429	1.174876	0.360101
H87	H	-0.062243	1.346374	0.372501
H88	H	0.034475	1.334793	0.252912
H89	H	0.045384	1.345673	0.630430
H90	H	0.181708	0.866272	-0.226167
H91	H	-0.452513	1.779311	0.095573
H92	H	0.449553	1.619709	0.610911
