data_functionalizedCrystal
_audit_creation_method	'MofGen! by Chris Wilmer'
_symmetry_space_group_name_H-M	'P1'
_symmetry_Int_Tables_number	1
_symmetry_cell_setting	triclinic
loop_
_symmetry_equiv_pos_as_xyz
  x,y,z
_cell_length_a	17.766277
_cell_length_b	27.731994
_cell_length_c	19.288865
_cell_angle_alpha	97.121609
_cell_angle_beta	89.988481
_cell_angle_gamma	90.003606
loop_
_atom_site_label
_atom_site_type_symbol
_atom_site_fract_x
_atom_site_fract_y
_atom_site_fract_z
O1	O	-0.062495	-0.641197	0.082470
O2	O	0.270838	-0.307864	0.415803
O3	O	0.604171	0.025470	0.749137
O4	O	-0.062522	-0.500438	0.095076
O5	O	0.270812	-0.167105	0.428409
O6	O	0.604145	0.166229	0.761743
O7	O	-0.062493	-0.574885	-0.012384
O8	O	0.270841	-0.241551	0.320949
O9	O	0.604174	0.091782	0.654283
O10	O	-0.062524	-0.566750	0.189930
O11	O	0.270809	-0.233417	0.523263
O12	O	0.604143	0.099916	0.856596
O13	O	0.062696	-0.574871	-0.012389
O14	O	0.396029	-0.241538	0.320944
O15	O	0.729362	0.091795	0.654278
O16	O	0.062667	-0.500424	0.095071
O17	O	0.396000	-0.167091	0.428404
O18	O	0.729334	0.166242	0.761738
O19	O	0.062693	-0.641184	0.082465
O20	O	0.396027	-0.307850	0.415798
O21	O	0.729360	0.025483	0.749131
Cu22	Cu	0.074111	-0.570803	0.088767
Cu23	Cu	0.407444	-0.237469	0.422101
Cu24	Cu	0.740777	0.095864	0.755434
Cu25	Cu	-0.073939	-0.570819	0.088773
Cu26	Cu	0.259394	-0.237485	0.422107
Cu27	Cu	0.592728	0.095848	0.755440
O28	O	0.062664	-0.566737	0.189925
O29	O	0.395998	-0.233403	0.523258
O30	O	0.729331	0.099930	0.856591
C31	C	0.000070	-0.482423	0.094815
C32	C	0.333403	-0.149090	0.428148
C33	C	0.666736	0.184244	0.761481
C34	C	0.000060	-0.428764	0.094035
C35	C	0.333394	-0.095431	0.427369
C36	C	0.666727	0.237902	0.760702
N37	N	0.178241	-0.570795	0.088763
N38	N	0.511574	-0.237462	0.422096
N39	N	0.844908	0.095872	0.755429
C40	C	0.217641	-0.603771	0.041203
C41	C	0.550974	-0.270437	0.374536
C42	C	0.884307	0.062896	0.707869
C43	C	0.296443	-0.603773	0.041200
C44	C	0.629776	-0.270440	0.374533
C45	C	0.963109	0.062894	0.707866
C46	C	0.335842	-0.570805	0.088768
C47	C	0.669175	-0.237471	0.422102
C48	C	1.002508	0.095862	0.755435
C49	C	0.296433	-0.537823	0.136332
C50	C	0.629766	-0.204490	0.469666
C51	C	0.963099	0.128844	0.802999
C52	C	0.217632	-0.537818	0.136329
C53	C	0.550966	-0.204485	0.469663
C54	C	0.884299	0.128849	0.802996
C55	C	0.460669	-0.564333	0.152099
C56	C	0.794002	-0.230999	0.485432
C57	C	1.127336	0.102334	0.818765
C58	C	0.539468	-0.564341	0.152102
C59	C	0.872801	-0.231008	0.485436
C60	C	1.206135	0.102326	0.818769
C61	C	0.578888	-0.570817	0.088777
C62	C	0.912221	-0.237483	0.422111
C63	C	1.245555	0.095850	0.755444
C64	C	0.539500	-0.577294	0.025446
C65	C	0.872833	-0.243961	0.358779
C66	C	1.206166	0.089372	0.692112
C67	C	0.460699	-0.577289	0.025443
C68	C	0.794033	-0.243956	0.358776
C69	C	1.127366	0.089377	0.692109
C70	C	0.421287	-0.570806	0.088777
C71	C	0.754621	-0.237473	0.422110
C72	C	1.087954	0.095861	0.755443
C73	C	0.703734	-0.603797	0.041210
C74	C	1.037067	-0.270463	0.374543
C75	C	1.370400	0.062870	0.707877
C76	C	0.782537	-0.603796	0.041206
C77	C	1.115870	-0.270462	0.374539
C78	C	1.449204	0.062871	0.707873
C79	C	0.782525	-0.537848	0.136345
C80	C	1.115859	-0.204515	0.469678
C81	C	1.449192	0.128819	0.803011
C82	C	0.703724	-0.537846	0.136343
C83	C	1.037057	-0.204513	0.469676
C84	C	1.370390	0.128820	0.803009
C85	C	0.664332	-0.570823	0.088776
C86	C	0.997666	-0.237490	0.422109
C87	C	1.330999	0.095843	0.755443
C88	C	0.000104	-0.574616	-0.038261
C89	C	0.333437	-0.241283	0.295072
C90	C	0.666770	0.092050	0.628405
C91	C	0.000110	-0.573831	-0.115360
C92	C	0.333443	-0.240497	0.217974
C93	C	0.666777	0.092836	0.551307
N94	N	0.821931	-0.570826	0.088775
N95	N	1.155264	-0.237493	0.422108
N96	N	1.488597	0.095840	0.755441
C97	C	0.000100	-0.659198	0.082726
C98	C	0.333434	-0.325865	0.416059
C99	C	0.666767	0.007468	0.749393
C100	C	0.000105	-0.712857	0.083505
C101	C	0.333438	-0.379524	0.416839
C102	C	0.666772	-0.046190	0.750172
C103	C	0.068330	-0.096024	0.089124
C104	C	0.401664	0.237310	0.422458
C105	C	0.734997	0.570643	0.755791
C106	C	0.068339	0.105643	0.086162
C107	C	0.401673	0.438977	0.419495
C108	C	0.735006	0.772310	0.752829
O109	O	0.126375	0.131724	0.085747
O110	O	0.459708	0.465057	0.419080
O111	O	0.793042	0.798390	0.752413
N112	N	0.000099	0.130852	0.085797
N113	N	0.333432	0.464185	0.419130
N114	N	0.666766	0.797519	0.752464
C115	C	-0.068148	0.105640	0.086168
C116	C	0.265185	0.438974	0.419501
C117	C	0.598519	0.772307	0.752834
O118	O	-0.126190	0.131708	0.085782
O119	O	0.207143	0.465042	0.419115
O120	O	0.540476	0.798375	0.752449
C121	C	-0.068156	-0.096026	0.089125
C122	C	0.265177	0.237307	0.422459
C123	C	0.598510	0.570640	0.755792
C124	C	0.000088	-0.121232	0.089497
C125	C	0.333422	0.212102	0.422831
C126	C	0.666755	0.545435	0.756164
C127	C	0.136569	-0.121229	0.089496
C128	C	0.469903	0.212104	0.422829
C129	C	0.803236	0.545438	0.756162
C130	C	0.136566	-0.171642	0.090240
C131	C	0.469900	0.161691	0.423574
C132	C	0.803233	0.495024	0.756907
C133	C	0.068324	-0.196850	0.090613
C134	C	0.401658	0.136483	0.423946
C135	C	0.734991	0.469816	0.757280
C136	C	0.000085	-0.171645	0.090242
C137	C	0.333419	0.161688	0.423575
C138	C	0.666752	0.495022	0.756908
C139	C	-0.136403	-0.121238	0.089491
C140	C	0.196931	0.212096	0.422824
C141	C	0.530264	0.545429	0.756158
C142	C	-0.136399	-0.171658	0.090229
C143	C	0.196935	0.161676	0.423562
C144	C	0.530268	0.495009	0.756895
C145	C	-0.068154	-0.196863	0.090601
C146	C	0.265179	0.136470	0.423934
C147	C	0.598512	0.469804	0.757268
C148	C	-0.068160	-0.247266	0.091359
C149	C	0.265174	0.086067	0.424692
C150	C	0.598507	0.419400	0.758026
N151	N	0.000081	-0.272475	0.091724
N152	N	0.333414	0.060858	0.425058
N153	N	0.666747	0.394192	0.758391
C154	C	0.068323	-0.247267	0.091351
C155	C	0.401656	0.086066	0.424685
C156	C	0.734989	0.419400	0.758018
C157	C	-0.068139	0.211518	0.084616
C158	C	0.265194	0.544852	0.417950
C159	C	0.598528	0.878185	0.751283
C160	C	-0.068137	0.261935	0.083878
C161	C	0.265196	0.595268	0.417212
C162	C	0.598530	0.928602	0.750545
C163	C	0.068351	0.261934	0.083871
C164	C	0.401684	0.595268	0.417205
C165	C	0.735017	0.928601	0.750538
C166	C	0.068348	0.211517	0.084614
C167	C	0.401681	0.544851	0.417948
C168	C	0.735015	0.878184	0.751281
C169	C	0.000101	0.186310	0.084982
C170	C	0.333434	0.519643	0.418315
C171	C	0.666768	0.852976	0.751648
C172	C	0.068311	-0.353139	0.092915
C173	C	0.401645	-0.019805	0.426248
C174	C	0.734978	0.313528	0.759582
C175	C	0.068302	-0.403556	0.093662
C176	C	0.401636	-0.070223	0.426996
C177	C	0.734969	0.263110	0.760329
C178	C	-0.068185	-0.403552	0.093666
C179	C	0.265148	-0.070218	0.426999
C180	C	0.598482	0.263115	0.760332
C181	C	-0.068176	-0.353138	0.092922
C182	C	0.265157	-0.019805	0.426255
C183	C	0.598490	0.313528	0.759589
C184	C	0.000078	-0.327933	0.092544
C185	C	0.333411	0.005400	0.425878
C186	C	0.666744	0.338733	0.759211
O187	O	-0.126165	-0.273378	0.091767
O188	O	0.207169	0.059955	0.425100
O189	O	0.540502	0.393288	0.758434
O190	O	0.126356	-0.273345	0.091722
O191	O	0.459689	0.059988	0.425055
O192	O	0.793023	0.393321	0.758388
C193	C	0.068333	-0.045610	0.088380
C194	C	0.401667	0.287723	0.421713
C195	C	0.735000	0.621056	0.755047
C196	C	0.000094	-0.020405	0.088009
C197	C	0.333427	0.312929	0.421342
C198	C	0.666761	0.646262	0.754675
C199	C	-0.068148	-0.045613	0.088382
C200	C	0.265185	0.287721	0.421715
C201	C	0.598519	0.621054	0.755048
C202	C	0.000096	0.030012	0.087271
C203	C	0.333429	0.363345	0.420604
C204	C	0.666763	0.696678	0.753937
C205	C	0.068338	0.055220	0.086898
C206	C	0.401671	0.388553	0.420231
C207	C	0.735005	0.721886	0.753564
C208	C	0.136578	0.030011	0.087263
C209	C	0.469911	0.363344	0.420596
C210	C	0.803245	0.696678	0.753929
C211	C	0.136575	-0.020402	0.088007
C212	C	0.469909	0.312931	0.421340
C213	C	0.803242	0.646264	0.754674
C214	C	-0.136388	-0.020404	0.088016
C215	C	0.196945	0.312929	0.421350
C216	C	0.530279	0.646262	0.754683
C217	C	-0.136379	0.030009	0.087273
C218	C	0.196954	0.363343	0.420606
C219	C	0.530287	0.696676	0.753940
C220	C	-0.068137	0.055217	0.086900
C221	C	0.265196	0.388551	0.420233
C222	C	0.598529	0.721884	0.753567
C223	C	0.000122	-0.617513	-0.160341
C224	C	0.333455	-0.284179	0.172993
C225	C	0.666789	0.049154	0.506326
C226	C	0.000110	-0.616774	-0.232783
C227	C	0.333443	-0.283441	0.100550
C228	C	0.666777	0.049892	0.433884
C229	C	0.000101	-0.572352	-0.260241
C230	C	0.333435	-0.239018	0.073092
C231	C	0.666768	0.094315	0.406426
C232	C	0.000085	-0.528664	-0.215250
C233	C	0.333418	-0.195331	0.118083
C234	C	0.666752	0.138003	0.451417
C235	C	0.000090	-0.529403	-0.142809
C236	C	0.333423	-0.196070	0.190524
C237	C	0.666756	0.137263	0.523857
C238	C	0.043945	-0.537426	-0.368303
C239	C	0.377279	-0.204092	-0.034969
C240	C	0.710612	0.129241	0.298364
C241	C	0.043946	-0.536688	-0.440742
C242	C	0.377279	-0.203355	-0.107409
C243	C	0.710612	0.129979	0.225924
C244	C	0.000084	-0.570069	-0.483672
C245	C	0.333417	-0.236736	-0.150338
C246	C	0.666751	0.096597	0.182995
C247	C	-0.043768	-0.604196	-0.454154
C248	C	0.289565	-0.270863	-0.120821
C249	C	0.622898	0.062470	0.212513
C250	C	-0.043764	-0.604936	-0.381713
C251	C	0.289570	-0.271603	-0.048380
C252	C	0.622903	0.061731	0.284953
C253	C	0.000096	-0.571545	-0.338790
C254	C	0.333429	-0.238212	-0.005456
C255	C	0.666762	0.095122	0.327877
C256	C	0.000082	-0.612954	-0.607203
C257	C	0.333415	-0.279621	-0.273870
C258	C	0.666748	0.053713	0.059463
C259	C	0.000065	-0.612214	-0.679647
C260	C	0.333398	-0.278881	-0.346313
C261	C	0.666732	0.054453	-0.012980
C262	C	0.000048	-0.524102	-0.662112
C263	C	0.333381	-0.190769	-0.328779
C264	C	0.666714	0.142564	0.004554
C265	C	0.000057	-0.524844	-0.589671
C266	C	0.333390	-0.191510	-0.256337
C267	C	0.666723	0.141823	0.076996
C268	C	0.000077	-0.569271	-0.562221
C269	C	0.333411	-0.235937	-0.228887
C270	C	0.666744	0.097396	0.104446
C271	C	0.000066	-0.567005	0.215802
C272	C	0.333400	-0.233672	0.549135
C273	C	0.666733	0.099661	0.882469
C274	C	0.000055	-0.567791	0.292900
C275	C	0.333388	-0.234458	0.626234
C276	C	0.666722	0.098876	0.959567
H277	H	0.185571	-0.630621	0.002470
H278	H	0.518904	-0.297288	0.335803
H279	H	0.852237	0.036046	0.669136
H280	H	0.000076	-0.492495	-0.237611
H281	H	0.333410	-0.159161	0.095722
H282	H	0.666743	0.174172	0.429056
H283	H	0.185552	-0.510965	0.175059
H284	H	0.518886	-0.177632	0.508392
H285	H	0.852219	0.155702	0.841726
H286	H	0.192143	0.050545	0.086963
H287	H	0.525477	0.383878	0.420296
H288	H	0.858810	0.717211	0.753629
H289	H	0.123878	-0.424076	0.093968
H290	H	0.457211	-0.090743	0.427301
H291	H	0.790544	0.242591	0.760634
N292	N	-0.091063	-0.641738	-0.349877
N293	N	0.242270	-0.308405	-0.016543
N294	N	0.575603	0.024928	0.316790
H295	H	-0.084402	-0.637140	-0.297473
H296	H	0.248932	-0.303807	0.035860
H297	H	0.582265	0.029526	0.369194
H298	H	-0.074659	-0.675602	-0.369306
H299	H	0.258674	-0.342268	-0.035972
H300	H	0.592008	-0.008935	0.297361
N301	N	-0.141780	-0.325948	0.092535
N302	N	0.191553	0.007386	0.425868
N303	N	0.524886	0.340719	0.759202
H304	H	-0.185011	-0.349569	0.092888
H305	H	0.148322	-0.016235	0.426221
H306	H	0.481656	0.317098	0.759555
H307	H	-0.144748	-0.309048	0.049149
H308	H	0.188585	0.024285	0.382482
H309	H	0.521918	0.357618	0.715816
H310	H	-0.123746	-0.424085	0.093972
H311	H	0.209587	-0.090752	0.427306
H312	H	0.542921	0.242582	0.760639
H313	H	0.428580	-0.559051	0.203669
H314	H	0.761913	-0.225718	0.537002
H315	H	1.095247	0.107615	0.870336
N316	N	0.091235	-0.499878	-0.472573
N317	N	0.424568	-0.166544	-0.139240
N318	N	0.757902	0.166789	0.194093
H319	H	0.084580	-0.504475	-0.524978
H320	H	0.417913	-0.171142	-0.191644
H321	H	0.751247	0.162191	0.141689
H322	H	0.145945	-0.504515	-0.460820
H323	H	0.479278	-0.171181	-0.127487
H324	H	0.812611	0.162152	0.205846
H325	H	-0.123709	0.282454	0.083586
H326	H	0.209625	0.615787	0.416920
H327	H	0.542958	0.949121	0.750253
H328	H	0.192147	-0.040920	0.088310
H329	H	0.525480	0.292413	0.421643
H330	H	0.858814	0.625747	0.754977
N331	N	-0.209991	0.057193	0.086874
N332	N	0.123342	0.390526	0.420207
N333	N	0.456676	0.723859	0.753541
H334	H	-0.253219	0.033568	0.087220
H335	H	0.080115	0.366902	0.420554
H336	H	0.413448	0.700235	0.753887
H337	H	-0.212953	0.074090	0.043487
H338	H	0.120380	0.407424	0.376820
H339	H	0.453714	0.740757	0.710153
N340	N	0.338920	-0.502264	0.187642
N341	N	0.672253	-0.168931	0.520976
N342	N	1.005586	0.164402	0.854309
H343	H	0.325219	-0.467976	0.179987
H344	H	0.658552	-0.134643	0.513321
H345	H	0.991885	0.198691	0.846654
H346	H	0.394805	-0.507314	0.180404
H347	H	0.728138	-0.173980	0.513737
H348	H	1.061472	0.159353	0.847071
H349	H	-0.079485	-0.631379	-0.489106
H350	H	0.253848	-0.298045	-0.155773
H351	H	0.587182	0.035288	0.177560
H352	H	0.000095	-0.649129	-0.584853
H353	H	0.333428	-0.315796	-0.251519
H354	H	0.666762	0.017537	0.081814
N355	N	0.000122	-0.665429	-0.130737
N356	N	0.333455	-0.332096	0.202597
N357	N	0.666788	0.001237	0.535930
H358	H	0.000120	-0.659271	-0.078020
H359	H	0.333453	-0.325938	0.255314
H360	H	0.666786	0.007396	0.588647
H361	H	0.046532	-0.684536	-0.147234
H362	H	0.379865	-0.351203	0.186100
H363	H	0.713198	-0.017869	0.519433
N364	N	0.091275	-0.501428	-0.322007
N365	N	0.424608	-0.168094	0.011326
N366	N	0.757941	0.165239	0.344660
H367	H	0.084627	-0.507075	-0.271638
H368	H	0.417960	-0.173742	0.061696
H369	H	0.751294	0.159591	0.395029
H370	H	0.074884	-0.467302	-0.327894
H371	H	0.408217	-0.133969	0.005439
H372	H	0.741550	0.199365	0.338772
H373	H	-0.191960	-0.040924	0.088318
H374	H	0.141373	0.292410	0.421651
H375	H	0.474707	0.625743	0.754985
N376	N	0.141927	-0.325959	0.092507
N377	N	0.475260	0.007374	0.425840
N378	N	0.808594	0.340708	0.759173
H379	H	0.185147	-0.349627	0.092381
H380	H	0.518481	-0.016293	0.425714
H381	H	0.851814	0.317040	0.759048
H382	H	0.145120	-0.301249	0.135514
H383	H	0.478454	0.032084	0.468847
H384	H	0.811787	0.365417	0.802180
N385	N	0.000121	-0.663890	-0.281310
N386	N	0.333454	-0.330557	0.052023
N387	N	0.666788	0.002777	0.385356
H388	H	0.000133	-0.692146	-0.252928
H389	H	0.333467	-0.358813	0.080405
H390	H	0.666800	-0.025479	0.413738
H391	H	0.046530	-0.665492	-0.311756
H392	H	0.379863	-0.332159	0.021577
H393	H	0.713196	0.001174	0.354910
H394	H	0.000070	-0.647787	-0.716270
H395	H	0.333404	-0.314453	-0.382937
H396	H	0.666737	0.018880	-0.049604
H397	H	0.192143	-0.100710	0.089191
H398	H	0.525477	0.232623	0.422524
H399	H	0.858810	0.565956	0.755857
H400	H	-0.123717	0.190999	0.084915
H401	H	0.209616	0.524332	0.418248
H402	H	0.542950	0.857665	0.751582
H403	H	-0.191975	-0.100724	0.089187
H404	H	0.141358	0.232609	0.422521
H405	H	0.474692	0.565943	0.755854
H406	H	0.000080	-0.493831	-0.106185
H407	H	0.333414	-0.160498	0.227148
H408	H	0.666747	0.172836	0.560482
N409	N	0.581948	-0.557351	0.220406
N410	N	0.915281	-0.224017	0.553739
N411	N	1.248615	0.109316	0.887072
H412	H	0.568218	-0.584150	0.249100
H413	H	0.901552	-0.250816	0.582434
H414	H	1.234885	0.082517	0.915767
H415	H	0.568216	-0.524865	0.247023
H416	H	0.901549	-0.191532	0.580357
H417	H	1.234883	0.141801	0.913690
H418	H	0.814603	-0.511003	0.175073
H419	H	1.147937	-0.177669	0.508407
H420	H	1.481270	0.155664	0.841740
N421	N	0.000030	-0.476188	-0.691717
N422	N	0.333363	-0.142855	-0.358383
N423	N	0.666696	0.190479	-0.025050
H424	H	0.000026	-0.482347	-0.744433
H425	H	0.333359	-0.149014	-0.411100
H426	H	0.666693	0.184320	-0.077767
H427	H	0.046435	-0.457073	-0.675238
H428	H	0.379768	-0.123740	-0.341905
H429	H	0.713102	0.209594	-0.008571
H430	H	0.000051	-0.489273	-0.553046
H431	H	0.333385	-0.155939	-0.219712
H432	H	0.666718	0.177394	0.113621
H433	H	0.671642	-0.510997	0.175073
H434	H	1.004975	-0.177663	0.508407
H435	H	1.338309	0.155670	0.841740
H436	H	0.328528	-0.630626	0.002469
H437	H	0.661861	-0.297293	0.335802
H438	H	0.995194	0.036040	0.669136
N439	N	0.141952	0.184331	0.085007
N440	N	0.475285	0.517664	0.418340
N441	N	0.808618	0.850998	0.751674
H442	H	0.144989	0.167427	0.128387
H443	H	0.478322	0.500760	0.461720
H444	H	0.811656	0.834094	0.795054
H445	H	0.185137	0.207982	0.084633
H446	H	0.518471	0.541315	0.417967
H447	H	0.851804	0.874649	0.751300
N448	N	-0.210009	-0.198846	0.090620
N449	N	0.123324	0.134487	0.423953
N450	N	0.456657	0.467821	0.757287
H451	H	-0.253236	-0.175225	0.090271
H452	H	0.080097	0.158108	0.423605
H453	H	0.413430	0.491441	0.756938
H454	H	-0.212997	-0.215748	0.134003
H455	H	0.120336	0.117585	0.467337
H456	H	0.453669	0.450919	0.800670
N457	N	0.141955	0.289129	0.083470
N458	N	0.475288	0.622462	0.416804
N459	N	0.808621	0.955796	0.750137
H460	H	0.131596	0.324975	0.083902
H461	H	0.464929	0.658308	0.417235
H462	H	0.798263	0.991642	0.750569
H463	H	0.171310	0.276758	0.040041
H464	H	0.504644	0.610092	0.373375
H465	H	0.837977	0.943425	0.706708
N466	N	0.210178	-0.198820	0.090638
N467	N	0.543511	0.134513	0.423972
N468	N	0.876844	0.467847	0.757305
H469	H	0.240014	-0.194056	0.047432
H470	H	0.573347	0.139277	0.380766
H471	H	0.906681	0.472611	0.714099
H472	H	0.199775	-0.234574	0.091191
H473	H	0.533108	0.098759	0.424524
H474	H	0.866442	0.432092	0.757858
N475	N	0.418214	-0.584274	-0.042858
N476	N	0.751548	-0.250941	0.290475
N477	N	1.084881	0.082393	0.623809
H478	H	0.455138	-0.588378	-0.082977
H479	H	0.788471	-0.255044	0.250356
H480	H	1.121805	0.078289	0.583690
H481	H	0.385529	-0.554916	-0.046614
H482	H	0.718862	-0.221583	0.286719
H483	H	1.052195	0.111751	0.620053
H484	H	0.671660	-0.630647	0.002476
H485	H	1.004993	-0.297314	0.335809
H486	H	1.338327	0.036020	0.669143
N487	N	0.582004	-0.584282	-0.042862
N488	N	0.915337	-0.250949	0.290472
N489	N	1.248670	0.082385	0.623805
H490	H	0.637900	-0.583300	-0.033253
H491	H	0.971233	-0.249967	0.300080
H492	H	1.304566	0.083367	0.633413
H493	H	0.568240	-0.557473	-0.071517
H494	H	0.901574	-0.224139	0.261817
H495	H	1.234907	0.109194	0.595150
H496	H	0.814617	-0.630647	0.002473
H497	H	1.147950	-0.297314	0.335806
H498	H	1.481283	0.036020	0.669140
