data_functionalizedCrystal
_audit_creation_method	'MofGen! by Chris Wilmer'
_symmetry_space_group_name_H-M	'P1'
_symmetry_Int_Tables_number	1
_symmetry_cell_setting	triclinic
loop_
_symmetry_equiv_pos_as_xyz
  x,y,z
_cell_length_a	14.853559
_cell_length_b	17.699083
_cell_length_c	16.176319
_cell_angle_alpha	90.001389
_cell_angle_beta	89.995393
_cell_angle_gamma	96.542766
loop_
_atom_site_label
_atom_site_type_symbol
_atom_site_fract_x
_atom_site_fract_y
_atom_site_fract_z
O1	O	0.114009	-1.004372	-0.068627
O2	O	0.128842	-0.784031	-0.068653
O3	O	-0.009827	-0.900091	-0.068638
O4	O	0.252677	-0.888313	-0.068641
O5	O	-0.009836	-0.900075	0.068855
O6	O	0.128833	-0.784015	0.068840
O7	O	0.114000	-1.004356	0.068867
Cu8	Cu	0.121416	-0.894184	0.081407
Cu9	Cu	0.121426	-0.894203	-0.081194
O10	O	0.252668	-0.888297	0.068852
C11	C	0.128306	-0.755825	0.000090
C12	C	0.126711	-0.671803	0.000080
C13	C	-0.043418	-0.899550	0.000107
C14	C	-0.143496	-0.897954	0.000102
C15	C	0.114536	-1.032562	0.000122
C16	C	0.116130	-1.116584	0.000126
C17	C	-0.566642	-0.891193	-0.074847
C18	C	-0.566646	-0.891176	0.075054
C19	C	-0.472618	-0.892681	0.075055
C20	C	-0.425598	-0.893442	0.000104
C21	C	-0.472605	-0.892697	-0.074848
C22	C	-0.425603	-0.893419	0.150005
C23	C	-0.331569	-0.894924	0.150009
C24	C	-0.284548	-0.895690	0.075057
C25	C	-0.331561	-0.894945	0.000102
C26	C	-0.284540	-0.895706	-0.074849
C27	C	-0.331553	-0.894967	-0.149804
C28	C	-0.425583	-0.893463	-0.149800
C29	C	-0.190517	-0.897194	0.075053
C30	C	-0.190503	-0.897209	-0.074850
C31	C	0.286260	-0.888837	0.000105
C32	C	0.386338	-0.890433	0.000104
N33	N	0.121408	-0.894176	0.195773
C34	C	0.208107	-0.623391	0.000079
C35	C	0.206603	-0.544444	0.000090
C36	C	0.123703	-0.513910	0.000095
C37	C	0.042301	-0.562328	0.000098
C38	C	0.043806	-0.641274	0.000094
C39	C	0.036232	-0.243949	0.000119
C40	C	0.034734	-0.164998	0.000121
C41	C	0.199029	-0.147120	0.000115
C42	C	0.200534	-0.226065	0.000110
C43	C	0.119133	-0.274476	0.000118
C44	C	0.120764	-0.360080	0.000108
C45	C	0.122071	-0.428308	0.000099
N46	N	0.121427	-0.894217	-0.195559
C47	C	0.060030	-0.945583	0.239043
C48	C	0.060029	-0.945587	0.325591
C49	C	0.121411	-0.894187	0.368865
C50	C	0.182791	-0.842775	0.325588
C51	C	0.182787	-0.842768	0.239043
C52	C	0.182808	-0.842801	0.674617
C53	C	0.182809	-0.842813	0.761168
C54	C	0.060050	-0.945619	0.761164
C55	C	0.060046	-0.945613	0.674619
C56	C	0.121423	-0.894198	0.631350
C57	C	0.121422	-0.894194	0.537505
C58	C	0.121417	-0.894195	0.462708
H59	H	-0.152227	-0.897832	-0.135885
H60	H	-0.293255	-0.895581	-0.210829
H61	H	-0.293300	-0.895528	0.211042
O62	O	-0.471211	-0.892847	-0.222635
C63	C	-0.510270	-0.957826	-0.350814
C64	C	-0.458584	-0.958649	-0.268346
H65	H	-0.500064	-1.011014	-0.387802
H66	H	-0.585573	-0.956653	-0.338007
H67	H	-0.483383	-0.905165	-0.387712
H68	H	-0.485394	-1.011303	-0.231407
H69	H	-0.383287	-0.959783	-0.281212
H70	H	-0.604924	-0.890595	-0.135874
H71	H	0.010071	-0.987482	0.796403
H72	H	0.275613	-0.648245	0.000074
O73	O	-0.038205	-0.532633	-0.000042
C74	C	-0.135228	-0.453841	-0.071244
C75	C	-0.044031	-0.487433	-0.071194
H76	H	-0.139960	-0.417277	-0.128754
H77	H	-0.193183	-0.501975	-0.071296
H78	H	-0.140029	-0.417360	-0.013676
H79	H	-0.039141	-0.523905	-0.128752
H80	H	0.013881	-0.439263	-0.071098
H81	H	-0.152241	-0.897778	0.136080
O82	O	0.278129	-0.100122	-0.000031
C83	C	0.418122	-0.060716	-0.071245
C84	C	0.328570	-0.113968	-0.071189
H85	H	0.458937	-0.071902	-0.128761
H86	H	0.402866	0.000969	-0.071290
H87	H	0.458890	-0.071829	-0.013683
H88	H	0.287758	-0.102923	-0.128741
H89	H	0.343890	-0.175635	-0.071100
H90	H	0.232795	-0.800955	0.796401
O91	O	0.000333	-0.995570	0.632711
C92	C	-0.121401	-1.097570	0.641843
C93	C	-0.053834	-1.041025	0.689405
H94	H	-0.165200	-1.134346	0.687660
H95	H	-0.166453	-1.064885	0.601358
H96	H	-0.082518	-1.135379	0.601292
H97	H	-0.092643	-1.003202	0.730001
H98	H	-0.008783	-1.073758	0.729838
H99	H	-0.604935	-0.890552	0.136075
O100	O	-0.471424	-0.892731	0.222733
C101	C	-0.616294	-0.890416	0.289162
C102	C	-0.564509	-0.891195	0.206735
H103	H	-0.691560	-0.889158	0.276257
H104	H	-0.606233	-0.943651	0.326122
H105	H	-0.589408	-0.837802	0.326136
H106	H	-0.591363	-0.943774	0.169695
H107	H	-0.574570	-0.837925	0.169838
H108	H	0.272883	-0.505030	0.000088
O109	O	0.281043	-0.255757	-0.000049
C110	C	0.378075	-0.334535	-0.071277
C111	C	0.286874	-0.300950	-0.071208
H112	H	0.382811	-0.371094	-0.128794
H113	H	0.436026	-0.286398	-0.071330
H114	H	0.382879	-0.371020	-0.013715
H115	H	0.281981	-0.264474	-0.128760
H116	H	0.228966	-0.349124	-0.071111
O117	O	-0.035238	-0.688334	0.000237
C118	C	-0.128873	-0.787877	0.071442
C119	C	-0.039330	-0.734615	0.071388
H120	H	-0.132202	-0.825320	0.128952
H121	H	-0.188418	-0.752532	0.071498
H122	H	-0.132262	-0.825249	0.013874
H123	H	-0.035852	-0.697232	0.128946
H124	H	0.020173	-0.770005	0.071289
O125	O	-0.045879	-0.135462	0.000168
C126	C	-0.208686	-0.161521	0.000136
C127	C	-0.117463	-0.195072	0.000104
H128	H	-0.266585	-0.209700	0.000066
H129	H	-0.213553	-0.125034	0.057691
H130	H	-0.213447	-0.124982	-0.057390
H131	H	-0.112641	-0.231646	0.057591
H132	H	-0.112635	-0.231516	-0.057489
H133	H	-0.030050	-0.283357	0.000126
H134	H	0.232765	-0.800907	0.203813
O135	O	0.000317	-0.995542	0.197138
C136	C	-0.121415	-1.097544	0.206279
C137	C	-0.053848	-1.040995	0.253836
H138	H	-0.165211	-1.134317	0.252098
H139	H	-0.166469	-1.064861	0.165793
H140	H	-0.082533	-1.135353	0.165729
H141	H	-0.092656	-1.003171	0.294431
H142	H	-0.008794	-1.073725	0.294270
H143	H	0.010051	-0.987445	0.360821
O144	O	0.242518	-0.792835	0.632720
C145	C	0.364249	-0.690834	0.641865
C146	C	0.296686	-0.747394	0.689420
H147	H	0.408049	-0.654070	0.687686
H148	H	0.409301	-0.723508	0.601358
H149	H	0.325363	-0.653016	0.601336
H150	H	0.335498	-0.785226	0.729994
H151	H	0.251635	-0.714673	0.729875
O152	O	0.242383	-0.792918	0.367751
C153	C	0.296766	-0.747336	0.501078
C154	C	0.229239	-0.803851	0.453435
H155	H	0.286150	-0.756145	0.570361
H156	H	0.368980	-0.757267	0.484111
H157	H	0.285116	-0.686713	0.484022
H158	H	0.240806	-0.864495	0.470464
H159	H	0.157049	-0.793854	0.470406
