data_functionalizedCrystal
_audit_creation_method	'MofGen! by Chris Wilmer'
_symmetry_space_group_name_H-M	'P1'
_symmetry_Int_Tables_number	1
_symmetry_cell_setting	triclinic
loop_
_symmetry_equiv_pos_as_xyz
  x,y,z
_cell_length_a	19.377372
_cell_length_b	14.628931
_cell_length_c	14.628931
_cell_angle_alpha	60.000000
_cell_angle_beta	89.999538
_cell_angle_gamma	72.113072
loop_
_atom_site_label
_atom_site_type_symbol
_atom_site_fract_x
_atom_site_fract_y
_atom_site_fract_z
Zr1	Zr	0.580564	1.272733	-0.256042
O2	O	0.484337	1.418329	-0.379447
O3	O	0.610063	1.095856	-0.218211
O4	O	0.610063	1.286562	-0.408917
O5	O	0.484337	1.227624	-0.038309
O6	O	0.709238	1.333053	-0.432163
O7	O	0.484337	1.227624	-0.188741
O8	O	0.709237	0.991916	-0.091026
O9	O	0.484338	1.568761	-0.379446
O10	O	0.696657	1.214890	-0.219426
O11	O	0.622643	1.180194	-0.089811
O12	O	0.622644	1.404725	-0.314342
O13	O	0.548631	1.370029	-0.184728
Zr14	Zr	0.738736	1.346881	-0.053195
Zr15	Zr	0.738737	1.346881	-0.293117
Zr16	Zr	0.580564	1.272733	-0.016120
Zr17	Zr	0.580565	1.512654	-0.256041
Zr18	Zr	0.738736	1.106960	-0.053196
O19	O	0.709238	1.523758	-0.091025
O20	O	0.709238	1.523758	-0.432163
O21	O	0.484337	1.418329	-0.038309
O22	O	0.834963	1.201285	0.070210
O23	O	0.834964	1.201285	-0.270928
O24	O	0.610062	1.095856	0.122926
O25	O	0.834964	1.391991	-0.270927
O26	O	0.709237	1.333053	0.099680
O27	O	0.610062	1.286561	0.122926
O28	O	0.834964	1.391991	-0.120495
O29	O	0.610064	1.627699	-0.408916
O30	O	0.709237	0.991916	0.099680
O31	O	0.834963	1.050854	0.070210
O32	O	0.834963	1.050854	-0.120496
O33	O	0.484337	1.568761	-0.188741
O34	O	0.610063	1.627699	-0.218211
O35	O	0.696656	1.214890	0.005106
O36	O	0.770670	1.249586	-0.124508
O37	O	0.696657	1.439421	-0.219425
O38	O	0.622644	1.404725	-0.089811
C39	C	0.659650	1.009702	-0.154619
C40	C	0.659650	0.907850	-0.154619
C41	C	0.607728	0.811593	-0.221206
C42	C	0.607726	0.916864	-0.221208
C43	C	0.461801	1.217059	-0.108243
C44	C	0.394652	1.185582	-0.092503
C45	C	-0.019355	1.577503	-0.288468
C46	C	-0.082441	1.547899	-0.273664
C47	C	-0.005168	1.349726	-0.174578
C48	C	0.057926	1.379313	-0.189369
C49	C	0.050826	1.493204	-0.246316
C50	C	0.128107	1.295014	-0.147217
C51	C	0.191195	1.324600	-0.162012
C52	C	0.184102	1.438485	-0.218959
C53	C	0.113914	1.522790	-0.261111
C54	C	0.135206	1.181124	-0.090278
C55	C	0.205386	1.096825	-0.048126
C56	C	0.268476	1.126410	-0.062914
C57	C	0.261383	1.240295	-0.119860
C58	C	0.338664	1.042105	-0.020762
C59	C	0.401752	1.071691	-0.035557
C60	C	0.324471	1.269881	-0.134655
C61	C	0.857500	1.402555	-0.200994
C62	C	0.924648	1.434033	-0.216733
C63	C	0.659651	1.309807	-0.454724
C64	C	0.659651	1.309808	-0.556577
C65	C	0.659651	1.609912	-0.154618
C66	C	0.659651	1.711765	-0.154618
C67	C	0.607727	1.285467	-0.589815
C68	C	0.607726	1.285466	-0.695085
C69	C	0.659650	1.309807	0.145487
C70	C	0.659650	1.309807	0.247340
C71	C	0.857499	1.102450	-0.200994
C72	C	0.924648	1.032075	-0.216734
C73	C	0.659649	1.009702	0.145486
C74	C	0.659649	0.907849	0.247339
C75	C	0.857499	1.102450	0.099111
C76	C	0.924647	1.032075	0.185224
C77	C	0.461801	1.517164	-0.408348
C78	C	0.394653	1.587539	-0.494461
C79	C	0.461801	1.517164	-0.108242
C80	C	0.394653	1.587539	-0.092503
C81	C	0.659651	1.609912	-0.454723
C82	C	0.659651	1.711765	-0.556576
C83	C	0.917547	0.980916	-0.273681
C84	C	0.980634	0.914801	-0.288491
C85	C	1.050821	0.899841	-0.246347
C86	C	1.057920	0.951010	-0.189397
C87	C	0.994834	1.017129	-0.174595
C88	C	0.994821	1.017140	0.158005
C89	C	1.057920	0.951032	0.238907
C90	C	1.050843	0.899852	0.347028
C91	C	0.980662	0.914793	0.374247
C92	C	0.917564	0.980907	0.293345
C93	C	0.324479	1.602486	-0.467242
C94	C	0.261380	1.668624	-0.548144
C95	C	0.268457	1.719809	-0.656265
C96	C	0.338639	1.704862	-0.683483
C97	C	0.401736	1.638731	-0.602582
C98	C	0.401753	1.638709	-0.035565
C99	C	0.338666	1.704850	-0.020782
C100	C	0.268480	1.719813	-0.062930
C101	C	0.261381	1.668640	-0.119875
C102	C	0.324467	1.602507	-0.134664
C103	C	0.696364	0.879652	0.339834
C104	C	0.696365	0.774382	0.445105
H105	H	0.563272	0.819122	-0.278210
C106	C	0.719709	0.792157	-0.077596
N107	N	0.764945	0.705009	-0.019582
C108	C	0.547671	1.032561	-0.298230
N109	N	0.502435	1.119709	-0.356245
H110	H	0.318703	1.560810	-0.379210
H111	H	1.102183	0.845999	-0.258407
H112	H	1.000598	1.058803	0.069974
C113	C	0.738832	0.952319	0.341532
N114	N	0.770821	1.007049	0.342814
H115	H	0.344461	1.746505	0.025590
C116	C	0.199090	1.792559	-0.046646
N117	N	0.146828	1.847348	-0.034373
H118	H	0.628219	0.736071	0.364064
C119	C	1.120260	0.827118	0.436010
N120	N	1.172547	0.772331	0.503027
C121	C	0.184168	1.685092	-0.166214
N122	N	0.126010	1.697476	-0.201105
C123	C	1.135113	0.934599	0.208944
N124	N	1.193253	0.922221	0.186372
H125	H	0.974839	0.873145	-0.334863
C126	C	0.719707	1.337960	-0.623415
N127	N	0.764944	1.359163	-0.673755
C128	C	0.547671	1.257313	-0.522977
N129	N	0.502436	1.236106	-0.472634
H130	H	-0.025138	1.670245	-0.334807
H131	H	0.727799	0.750065	0.524467
H132	H	0.563275	1.264621	-0.723712
H133	H	1.000625	1.058776	-0.128217
C134	C	0.617183	0.835181	0.245641
N135	N	0.585196	0.780447	0.244358
C136	C	0.972889	0.858477	0.493187
N137	N	0.967037	0.816050	0.582775
C138	C	0.840348	0.997363	-0.320058
N139	N	0.782202	1.009753	-0.355000
C140	C	0.065805	1.148582	-0.074011
N141	N	0.013532	1.124073	-0.061760
C142	C	0.316644	1.546210	-0.197286
N143	N	0.310746	1.503807	-0.244453
C144	C	0.184188	1.685049	-0.518180
N145	N	0.126048	1.697419	-0.495609
C146	C	0.106106	1.648076	-0.323747
N147	N	0.100226	1.742437	-0.370924
C148	C	1.135132	0.934534	-0.143035
N149	N	1.193291	0.922115	-0.108108
C150	C	0.199041	1.792541	-0.745247
N151	N	0.146754	1.847317	-0.812263
C152	C	-0.159643	1.640645	-0.320033
N153	N	-0.217792	1.710499	-0.354957
C154	C	0.346411	1.761161	-0.802424
N155	N	0.352263	1.803559	-0.892012
H156	H	0.704101	0.704233	-0.097605
C157	C	0.478927	1.622284	-0.632542
N158	N	0.537066	1.609899	-0.655115
H159	H	0.860428	0.993054	0.315523
H160	H	0.458897	1.626532	-0.001234
H161	H	0.318688	1.362622	-0.180994
C162	C	0.213187	0.971549	0.014516
N163	N	0.219063	0.877189	0.061702
H164	H	0.000603	1.256996	-0.128215
C165	C	0.478955	0.978957	0.010817
N166	N	0.537106	0.909108	0.045746
H167	H	0.235475	1.462571	-0.231006
H168	H	0.704108	1.330641	-0.724033
H169	H	0.344434	0.949376	0.025595
