data_functionalizedCrystal
_audit_creation_method	'MofGen! by Chris Wilmer'
_symmetry_space_group_name_H-M	'P1'
_symmetry_Int_Tables_number	1
_symmetry_cell_setting	triclinic
loop_
_symmetry_equiv_pos_as_xyz
  x,y,z
_cell_length_a	14.853566
_cell_length_b	10.489716
_cell_length_c	13.930277
_cell_angle_alpha	89.999515
_cell_angle_beta	89.995631
_cell_angle_gamma	84.081775
loop_
_atom_site_label
_atom_site_type_symbol
_atom_site_fract_x
_atom_site_fract_y
_atom_site_fract_z
O1	O	1.197292	0.166522	-0.079759
O2	O	1.697292	0.666522	0.420241
O3	O	0.934943	0.186362	-0.079773
O4	O	1.434943	0.686362	0.420227
O5	O	1.072099	-0.009225	-0.079769
O6	O	1.572099	0.490775	0.420231
O7	O	1.060136	0.362109	-0.079763
O8	O	1.560136	0.862109	0.420237
O9	O	1.072080	-0.009229	0.079893
O10	O	1.572080	0.490771	0.579893
O11	O	0.934924	0.186357	0.079888
O12	O	1.434924	0.686357	0.579888
O13	O	1.197273	0.166518	0.079903
O14	O	1.697273	0.666518	0.579903
Zn15	Zn	1.066095	0.176437	0.105246
Zn16	Zn	1.566095	0.676437	0.605246
Zn17	Zn	1.066121	0.176442	-0.105116
Zn18	Zn	1.566121	0.676442	0.394884
O19	O	1.060117	0.362105	0.079899
O20	O	1.560117	0.862105	0.579899
C21	C	0.901339	0.185461	0.000055
C22	C	1.401339	0.685461	0.500055
C23	C	0.801241	0.182768	0.000049
C24	C	1.301241	0.682768	0.500049
C25	C	0.378003	0.171380	-0.086966
C26	C	0.878003	0.671380	0.413034
C27	C	0.378004	0.171376	0.087104
C28	C	0.878004	0.671376	0.587104
C29	C	0.472052	0.173905	0.087101
C30	C	0.972052	0.673905	0.587101
C31	C	0.519080	0.175173	0.000064
C32	C	1.019080	0.675173	0.500064
C33	C	0.472060	0.173913	-0.086971
C34	C	0.972060	0.673913	0.413029
C35	C	0.519078	0.175179	0.174134
C36	C	1.019078	0.675179	0.674134
C37	C	0.613131	0.177709	0.174135
C38	C	1.113131	0.677709	0.674135
C39	C	0.660162	0.178968	0.087096
C40	C	1.160162	0.678968	0.587096
C41	C	0.613136	0.177706	0.000058
C42	C	1.113136	0.677706	0.500058
C43	C	0.660164	0.178974	-0.086980
C44	C	1.160164	0.678974	0.413020
C45	C	0.613141	0.177703	-0.174019
C46	C	1.113141	0.677703	0.325981
C47	C	0.519090	0.175172	-0.174010
C48	C	1.019090	0.675172	0.325990
C49	C	0.754213	0.181500	0.087087
C50	C	1.254213	0.681500	0.587087
C51	C	0.754221	0.181507	-0.086985
C52	C	1.254221	0.681507	0.413015
C53	C	1.071190	-0.056749	0.000059
C54	C	1.571190	0.443251	0.500059
C55	C	1.068501	-0.198350	0.000050
C56	C	1.568501	0.301650	0.500050
C57	C	1.152610	-0.296969	0.000063
C58	C	1.652610	0.203031	0.500063
C59	C	1.108174	-0.373828	-0.078658
C60	C	1.608174	0.126172	0.421342
C61	C	1.108136	-0.373796	0.078756
C62	C	1.608136	0.126204	0.578756
C63	C	1.024101	-0.273345	-0.078737
C64	C	1.524101	0.226655	0.421263
C65	C	1.024075	-0.273307	0.078748
C66	C	1.524075	0.226693	0.578748
C67	C	0.979578	-0.350117	0.000007
C68	C	1.479578	0.149883	0.500007
C69	C	1.230877	0.167419	0.000072
C70	C	1.730877	0.667419	0.500072
C71	C	1.330975	0.170112	0.000072
C72	C	1.830975	0.670112	0.500072
C73	C	1.061026	0.409629	0.000069
C74	C	1.561026	0.909629	0.500069
C75	C	1.063715	0.551230	0.000071
C76	C	1.563715	1.051230	0.500071
N77	N	1.066085	0.176432	0.248812
N78	N	1.566085	0.676432	0.748812
N79	N	1.066138	0.176437	-0.248682
N80	N	1.566138	0.676437	0.251318
C81	C	1.005385	0.263014	0.701079
C82	C	1.505385	0.763014	1.201079
C83	C	1.126881	0.089861	0.701052
C84	C	1.626881	0.589861	1.201052
C85	C	1.126870	0.089857	0.600557
C86	C	1.626870	0.589857	1.100557
C87	C	1.066117	0.176434	0.550317
C88	C	1.566117	0.676434	1.050317
C89	C	1.005375	0.263015	0.600574
C90	C	1.505375	0.763015	1.100574
C91	C	1.187617	0.003286	0.550292
C92	C	1.687617	0.503286	1.050292
C93	C	1.187610	0.003279	0.449791
C94	C	1.687610	0.503279	0.949791
C95	C	1.126852	0.089851	0.399550
C96	C	1.626852	0.589851	0.899550
C97	C	1.066106	0.176435	0.449812
C98	C	1.566106	0.676435	0.949812
C99	C	1.005353	0.263013	0.399573
C100	C	1.505353	0.763013	0.899573
C101	C	0.944603	0.349591	0.449834
C102	C	1.444603	0.849591	0.949834
C103	C	0.944616	0.349588	0.550333
C104	C	1.444616	0.849588	1.050333
C105	C	1.126838	0.089855	0.299051
C106	C	1.626838	0.589855	0.799051
C107	C	1.005342	0.263014	0.299068
C108	C	1.505342	0.763014	0.799068
H109	H	0.480796	0.174136	-0.244872
H110	H	0.980796	0.674136	0.255128
H111	H	0.988593	-0.229392	0.145301
H112	H	1.488593	0.270608	0.645301
C113	C	1.193706	-0.005368	0.756319
C114	C	1.693706	0.494632	1.256319
N115	N	1.244038	-0.077102	0.797949
N116	N	1.744038	0.422898	1.297949
H117	H	0.955921	0.333502	0.742004
H118	H	1.455921	0.833502	1.242004
C119	C	0.877792	0.444809	0.605627
C120	C	1.377792	0.944809	1.105627
N121	N	0.827460	0.516528	0.647279
N122	N	1.327460	1.016528	1.147279
H123	H	0.792505	0.182536	-0.157863
H124	H	1.292505	0.682536	0.342137
H125	H	1.237085	-0.067197	0.591200
H126	H	1.737085	0.432803	1.091200
C127	C	1.254429	-0.091968	0.394513
C128	C	1.754429	0.408032	0.894513
N129	N	1.304754	-0.163714	0.352877
N130	N	1.804754	0.336286	0.852877
C131	C	0.467341	0.173789	0.269869
C132	C	0.967341	0.673789	0.769869
N133	N	0.428369	0.172740	0.341979
N134	N	0.928369	0.672740	0.841979
C135	C	0.938531	0.358290	0.243813
C136	C	1.438531	0.858290	0.743813
N137	N	0.888217	0.430066	0.202196
N138	N	1.388217	0.930066	0.702196
H139	H	0.988623	-0.229640	-0.145363
H140	H	1.488623	0.270360	0.354637
H141	H	1.143651	-0.417669	0.145307
H142	H	1.643651	0.082331	0.645307
H143	H	0.651443	0.178745	-0.244885
H144	H	1.151443	0.678745	0.255115
H145	H	0.906363	-0.373725	-0.000039
H146	H	1.406363	0.126275	0.499961
C147	C	0.326278	0.169981	-0.182704
C148	C	0.826278	0.669981	0.317296
N149	N	0.287317	0.168928	-0.254815
N150	N	0.787317	0.668928	0.245185
H151	H	0.339707	0.170352	0.157966
H152	H	0.839707	0.670352	0.657966
C153	C	0.664849	0.179094	0.269879
C154	C	1.164849	0.679094	0.769879
N155	N	0.703805	0.180130	0.341994
N156	N	1.203805	0.680130	0.841994
C157	C	0.805934	0.182899	0.182824
C158	C	1.305934	0.682899	0.682824
N159	N	0.844890	0.183949	0.254938
N160	N	1.344890	0.683949	0.754938
C161	C	1.193659	-0.005375	0.243768
C162	C	1.693659	0.494625	0.743768
N163	N	1.243992	-0.077110	0.202131
N164	N	1.743992	0.422890	0.702131
H165	H	1.225770	-0.273114	-0.000012
H166	H	1.725770	0.226886	0.499988
H167	H	0.895141	0.420089	0.408918
H168	H	1.395141	0.920089	0.908918
H169	H	1.143688	-0.417720	-0.145209
H170	H	1.643688	0.082280	0.354791
