data_functionalizedCrystal
_audit_creation_method	'MofGen! by Chris Wilmer'
_symmetry_space_group_name_H-M	'P1'
_symmetry_Int_Tables_number	1
_symmetry_cell_setting	triclinic
loop_
_symmetry_equiv_pos_as_xyz
  x,y,z
_cell_length_a	13.033293
_cell_length_b	13.897447
_cell_length_c	13.033255
_cell_angle_alpha	97.154119
_cell_angle_beta	74.801189
_cell_angle_gamma	97.189355
loop_
_atom_site_label
_atom_site_type_symbol
_atom_site_fract_x
_atom_site_fract_y
_atom_site_fract_z
Zn1	Zn	1.700258	-0.279484	-0.807168
Zn2	Zn	1.677586	-0.422639	-0.629545
Zn3	Zn	1.500066	-0.279504	-0.606974
Zn4	Zn	1.522581	-0.458892	-0.784516
O5	O	1.600123	-0.360130	-0.707051
O6	O	1.845902	-0.283294	-0.802532
O7	O	1.635127	-0.388488	-0.477913
O8	O	1.526687	-0.144516	-0.633564
O9	O	1.829245	-0.388469	-0.672033
O10	O	1.673767	-0.144502	-0.780645
O11	O	1.504704	-0.283327	-0.461330
O12	O	1.354402	-0.318480	-0.611599
O13	O	1.565061	-0.450257	-0.936159
O14	O	1.370944	-0.450276	-0.742039
O15	O	1.695599	-0.318447	-0.952801
O16	O	1.656959	-0.562433	-0.650069
O17	O	1.543078	-0.589068	-0.763926
C18	C	1.324129	-0.388315	-0.671913
C19	C	1.206061	-0.400398	-0.656906
C20	C	1.161676	-0.353848	-0.714883
C21	C	1.039647	-0.366335	-0.699374
C22	C	1.600033	-0.610750	-0.707015
C23	C	1.600097	-0.717961	-0.707048
C24	C	1.600151	-0.805028	-0.707079
C25	C	1.600229	-0.914255	-0.707115
C26	C	1.877195	-0.331836	-0.742327
C27	C	1.995266	-0.319779	-0.757359
C28	C	1.635371	-0.388394	-0.984098
C29	C	1.650391	-0.400438	-1.102159
C30	C	1.600245	-0.108530	-0.707114
C31	C	1.600297	-0.001313	-0.707140
C32	C	1.608088	-0.366222	-1.268617
C33	C	1.592554	-0.353772	-1.146594
C34	C	1.565073	-0.331900	-0.431089
C35	C	1.550259	-0.319563	-0.313055
H36	H	1.669092	-0.415392	-1.320908
H37	H	1.153718	-0.449494	-0.595785
H38	H	1.531538	-0.304608	-1.094305
O39	O	1.723311	-0.458946	-1.164585
C40	C	1.800042	-0.403519	-1.237508
H41	H	1.802389	-0.323482	-1.204869
H42	H	1.881951	-0.430183	-1.249256
H43	H	1.777832	-0.412071	-1.317364
H44	H	0.987307	-0.415435	-0.638249
H45	H	1.489246	-0.270401	-1.260763
O46	O	1.224270	-0.295342	-0.787785
C47	C	1.332174	-0.295885	-0.787027
H48	H	1.342750	-0.365186	-0.753994
H49	H	1.384555	-0.293277	-0.871933
H50	H	1.356473	-0.229631	-0.734544
O51	O	1.057756	-0.261344	-0.830401
C52	C	1.130662	-0.316819	-0.906984
H53	H	1.097968	-0.396860	-0.909170
H54	H	1.142460	-0.290253	-0.988970
H55	H	1.210509	-0.308202	-0.884743
