data_functionalizedCrystal
_audit_creation_method	'MofGen! by Chris Wilmer'
_symmetry_space_group_name_H-M	'P1'
_symmetry_Int_Tables_number	1
_symmetry_cell_setting	triclinic
loop_
_symmetry_equiv_pos_as_xyz
  x,y,z
_cell_length_a	14.908783
_cell_length_b	18.050590
_cell_length_c	14.908803
_cell_angle_alpha	86.715811
_cell_angle_beta	90.199445
_cell_angle_gamma	93.309344
loop_
_atom_site_label
_atom_site_type_symbol
_atom_site_fract_x
_atom_site_fract_y
_atom_site_fract_z
Zn1	Zn	1.345192	-0.259921	0.587812
Zn2	Zn	1.353812	-0.376528	0.437450
Zn3	Zn	1.203541	-0.259071	0.428786
Zn4	Zn	1.194806	-0.390790	0.579070
O5	O	1.274338	-0.321578	0.508279
O6	O	1.472161	-0.269776	0.575151
O7	O	1.341141	-0.354623	0.310480
O8	O	1.222380	-0.155259	0.449914
O9	O	1.478494	-0.355447	0.464681
O10	O	1.326451	-0.155883	0.566750
O11	O	1.230738	-0.268328	0.304114
O12	O	1.076557	-0.282157	0.441436
O13	O	1.207492	-0.379755	0.706051
O14	O	1.070139	-0.378930	0.551849
O15	O	1.317980	-0.283606	0.712474
O16	O	1.332671	-0.482346	0.456204
O17	O	1.215850	-0.492824	0.560251
C18	C	1.040722	-0.332000	0.494754
C19	C	0.940780	-0.336477	0.488989
C20	C	0.746370	-0.255821	0.593365
C21	C	0.652464	-0.260025	0.587952
C22	C	0.659062	-0.349086	0.472745
C23	C	0.752967	-0.344882	0.478158
C24	C	0.796618	-0.298248	0.538472
C25	C	0.890525	-0.294048	0.543889
C26	C	0.897121	-0.383105	0.428678
C27	C	0.803215	-0.387309	0.423265
C28	C	1.274271	-0.514531	0.508240
C29	C	1.274323	-0.597075	0.508257
C30	C	1.337970	-0.790800	0.451768
C31	C	1.355178	-0.843294	0.535097
C32	C	1.274371	-0.748205	0.508296
C33	C	1.257253	-0.842790	0.425009
C34	C	1.274421	-0.894189	0.508327
C35	C	1.291619	-0.799613	0.591671
C36	C	1.193659	-0.799103	0.481526
C37	C	1.210833	-0.851580	0.564910
C38	C	1.274345	-0.664107	0.508278
C39	C	1.274446	-0.978286	0.508354
C40	C	1.508865	-0.311116	0.521858
C41	C	1.608807	-0.306657	0.527644
C42	C	1.260800	-0.333366	0.742798
C43	C	1.255031	-0.338389	0.842736
C44	C	1.274428	-0.127871	0.508341
C45	C	1.274467	-0.045324	0.508367
C46	C	1.359239	-0.247692	1.037221
C47	C	1.353821	-0.252409	1.131121
C48	C	1.238773	-0.352537	1.124440
C49	C	1.244191	-0.347820	1.030539
C50	C	1.304427	-0.295396	0.986933
C51	C	1.309849	-0.290683	0.893031
C52	C	1.194797	-0.390807	0.886351
C53	C	1.189379	-0.395524	0.980252
C54	C	1.287818	-0.309853	1.274672
C55	C	1.293591	-0.304831	1.174735
H56	H	0.623506	-0.387044	0.423631
C57	C	1.172497	-0.410181	1.172423
N58	N	1.122572	-0.453594	1.208564
C59	C	1.376105	-0.233014	0.845065
N60	N	1.426009	-0.189574	0.808940
C61	C	1.414121	-0.199933	1.186435
N62	N	1.459542	-0.160405	1.228097
H63	H	1.408289	-0.205010	1.001716
H64	H	1.140336	-0.438205	1.015769
C65	C	1.101453	-0.772727	0.450875
N66	N	1.032004	-0.752856	0.427778
C67	C	0.755189	-0.438604	0.356924
N68	N	0.719016	-0.477243	0.306958
C69	C	0.794387	-0.204528	0.659713
N70	N	0.830553	-0.165892	0.709688
H71	H	1.157068	-0.877947	0.612786
H72	H	1.150167	-0.429653	0.845397
H73	H	0.926063	-0.256078	0.593000
H74	H	0.611556	-0.225475	0.632650
H75	H	0.938042	-0.417659	0.383987
H76	H	1.423455	-0.862792	0.557758
C77	C	1.410646	-0.754989	0.387264
N78	N	1.465388	-0.728014	0.338686
C79	C	1.311322	-0.773975	0.686876
N80	N	1.326167	-0.754662	0.758581
C81	C	1.237660	-0.868547	0.329837
N82	N	1.222908	-0.887943	0.258151
