data_functionalizedCrystal
_audit_creation_method	'MofGen! by Chris Wilmer'
_symmetry_space_group_name_H-M	'P1'
_symmetry_Int_Tables_number	1
_symmetry_cell_setting	triclinic
loop_
_symmetry_equiv_pos_as_xyz
  x,y,z
_cell_length_a	16.959455
_cell_length_b	18.101395
_cell_length_c	16.959447
_cell_angle_alpha	90.029468
_cell_angle_beta	90.014322
_cell_angle_gamma	90.028051
loop_
_atom_site_label
_atom_site_type_symbol
_atom_site_fract_x
_atom_site_fract_y
_atom_site_fract_z
Zn1	Zn	1.208323	-0.294875	0.446913
Zn2	Zn	1.541657	0.038458	0.780247
Zn3	Zn	1.874990	0.371791	1.113580
Zn4	Zn	1.208220	-0.418728	0.314737
Zn5	Zn	1.541554	-0.085395	0.648070
Zn6	Zn	1.874887	0.247938	0.981403
Zn7	Zn	1.076152	-0.294899	0.314751
Zn8	Zn	1.409485	0.038435	0.648084
Zn9	Zn	1.742818	0.371768	0.981418
Zn10	Zn	1.076091	-0.418673	0.446875
Zn11	Zn	1.409424	-0.085340	0.780209
Zn12	Zn	1.742758	0.247994	1.113542
O13	O	1.142196	-0.356794	0.380819
O14	O	1.475530	-0.023460	0.714152
O15	O	1.808863	0.309873	1.047486
O16	O	1.318920	-0.311318	0.429390
O17	O	1.652254	0.022015	0.762723
O18	O	1.985587	0.355349	1.096057
O19	O	1.190683	-0.402335	0.204128
O20	O	1.524017	-0.069002	0.537461
O21	O	1.857350	0.264332	0.870794
O22	O	1.093753	-0.191263	0.332304
O23	O	1.427086	0.142071	0.665638
O24	O	1.760420	0.475404	0.998971
O25	O	1.318845	-0.402312	0.332280
O26	O	1.652178	-0.068979	0.665614
O27	O	1.985511	0.264354	0.998947
O28	O	1.190859	-0.191246	0.429404
O29	O	1.524192	0.142088	0.762737
O30	O	1.857526	0.475421	1.096070
O31	O	1.093653	-0.311358	0.204138
O32	O	1.426986	0.021976	0.537471
O33	O	1.760320	0.355309	0.870805
O34	O	0.965533	-0.311304	0.332267
O35	O	1.298866	0.022029	0.665601
O36	O	1.632199	0.355363	0.998934
O37	O	1.093649	-0.402218	0.557491
O38	O	1.426983	-0.068885	0.890825
O39	O	1.760316	0.264449	1.224158
O40	O	0.965488	-0.402241	0.429339
O41	O	1.298821	-0.068907	0.762672
O42	O	1.632155	0.264426	1.096005
O43	O	1.190800	-0.311264	0.557519
O44	O	1.524133	0.022069	0.890853
O45	O	1.857467	0.355402	1.224186
O46	O	1.190624	-0.522354	0.332243
O47	O	1.523958	-0.189021	0.665577
O48	O	1.857291	0.144313	0.998910
O49	O	1.093550	-0.522313	0.429325
O50	O	1.426883	-0.188980	0.762658
O51	O	1.760216	0.144353	1.095992
C52	C	0.936830	-0.356769	0.380801
C53	C	1.270164	-0.023436	0.714134
C54	C	1.603497	0.309897	1.047468
C55	C	0.848974	-0.356777	0.380812
C56	C	1.182307	-0.023443	0.714145
C57	C	1.515640	0.309890	1.047479
C58	C	0.477497	-0.309404	0.330380
C59	C	0.810830	0.023929	0.663713
C60	C	1.144164	0.357262	0.997046
C61	C	0.477499	-0.404244	0.431304
C62	C	0.810833	-0.070911	0.764637
C63	C	1.144166	0.262422	1.097970
C64	C	0.560045	-0.404234	0.431299
C65	C	0.893378	-0.070900	0.764632
C66	C	1.226712	0.262433	1.097966
C67	C	0.601321	-0.356808	0.380833
C68	C	0.934654	-0.023475	0.714166
C69	C	1.267987	0.309858	1.047500
C70	C	0.560050	-0.309394	0.330372
C71	C	0.893384	0.023939	0.663705
C72	C	1.226717	0.357273	0.997038
C73	C	0.601321	-0.451653	0.481754
C74	C	0.934655	-0.118319	0.815087
C75	C	1.267988	0.215014	1.148420
C76	C	0.683872	-0.451644	0.481750
C77	C	1.017206	-0.118311	0.815084
C78	C	1.350539	0.215022	1.148417
C79	C	0.725150	-0.404215	0.431287
C80	C	1.058483	-0.070882	0.764621
C81	C	1.391816	0.262452	1.097954
C82	C	0.683874	-0.356798	0.380825
C83	C	1.017208	-0.023465	0.714158
C84	C	1.350541	0.309869	1.047491
C85	C	0.725150	-0.309373	0.330359
C86	C	1.058483	0.023961	0.663692
C87	C	1.391816	0.357294	0.997025
C88	C	0.683876	-0.261951	0.279899
C89	C	1.017209	0.071382	0.613233
C90	C	1.350543	0.404715	0.946566
C91	C	0.601327	-0.261964	0.279909
C92	C	0.934661	0.071369	0.613242
C93	C	1.267994	0.404702	0.946575
C94	C	0.807698	-0.404202	0.431278
C95	C	1.141031	-0.070869	0.764611
C96	C	1.474365	0.262465	1.097945
C97	C	0.807703	-0.309362	0.330351
C98	C	1.141037	0.023971	0.663684
C99	C	1.474370	0.357304	0.997017
C100	C	1.142091	-0.549204	0.380796
C101	C	1.475424	-0.215871	0.714129
C102	C	1.808757	0.117462	1.047463
C103	C	1.142118	-0.631518	0.380812
C104	C	1.475451	-0.298185	0.714146
C105	C	1.808784	0.035148	1.047479
C106	C	1.142291	-0.930609	0.380855
C107	C	1.475625	-0.597276	0.714188
C108	C	1.808958	-0.263943	1.047522
C109	C	1.081356	-0.899289	0.442088
C110	C	1.414689	-0.565956	0.775421
C111	C	1.748023	-0.232623	1.108754
C112	C	1.081066	-0.813671	0.441896
C113	C	1.414400	-0.480338	0.775229
C114	C	1.747733	-0.147005	1.108563
C115	C	1.142205	-0.782227	0.380834
C116	C	1.475538	-0.448894	0.714168
C117	C	1.808872	-0.115560	1.047501
C118	C	1.119658	-0.813380	0.297530
C119	C	1.452992	-0.480047	0.630863
C120	C	1.786325	-0.146713	0.964197
C121	C	1.119266	-0.899025	0.297896
C122	C	1.452599	-0.565692	0.631230
C123	C	1.785932	-0.232359	0.964563
C124	C	1.225907	-0.898956	0.402193
C125	C	1.559240	-0.565623	0.735527
C126	C	1.892573	-0.232290	1.068860
C127	C	1.225415	-0.813305	0.404020
C128	C	1.558748	-0.479972	0.737354
C129	C	1.892082	-0.146639	1.070687
C130	C	1.142158	-0.698367	0.380818
C131	C	1.475491	-0.365034	0.714151
C132	C	1.808825	-0.031701	1.047484
C133	C	1.142337	-1.014469	0.380866
C134	C	1.475670	-0.681135	0.714199
C135	C	1.809003	-0.347802	1.047533
C136	C	1.348365	-0.356819	0.380838
C137	C	1.681698	-0.023486	0.714171
C138	C	2.015031	0.309848	1.047504
C139	C	1.436221	-0.356830	0.380846
C140	C	1.769555	-0.023496	0.714179
C141	C	2.102888	0.309837	1.047512
C142	C	1.142229	-0.356732	0.586987
C143	C	1.475563	-0.023399	0.920321
C144	C	1.808896	0.309934	1.253654
C145	C	1.142243	-0.356706	0.674844
C146	C	1.475577	-0.023373	1.008177
C147	C	1.808910	0.309960	1.341511
C148	C	1.142324	-0.163632	0.380860
C149	C	1.475658	0.169701	0.714193
C150	C	1.808991	0.503035	1.047526
C151	C	1.142379	-0.081318	0.380877
C152	C	1.475712	0.252016	0.714210
C153	C	1.809045	0.585349	1.047544
C154	C	1.142209	-0.356801	0.175453
C155	C	1.475543	-0.023468	0.508786
C156	C	1.808876	0.309865	0.842120
C157	C	1.142348	-0.356619	0.087597
C158	C	1.475682	-0.023286	0.420930
C159	C	1.809015	0.310048	0.754263
C160	C	1.091756	-0.403984	1.046308
C161	C	1.425089	-0.070650	1.379641
C162	C	1.758423	0.262683	1.712974
C163	C	1.192920	-0.309273	1.046332
C164	C	1.526253	0.024060	1.379665
C165	C	1.859586	0.357394	1.712999
C166	C	1.192899	-0.309289	0.963786
C167	C	1.526232	0.024045	1.297119
C168	C	1.859565	0.357378	1.630453
C169	C	1.142306	-0.356653	0.922497
C170	C	1.475640	-0.023320	1.255830
C171	C	1.808973	0.310013	1.589164
C172	C	1.091735	-0.404002	0.963754
C173	C	1.425068	-0.070669	1.297088
C174	C	1.758402	0.262664	1.630421
C175	C	1.243475	-0.261946	0.922523
C176	C	1.576808	0.071387	1.255856
C177	C	1.910141	0.404721	1.589189
C178	C	1.243456	-0.261960	0.839972
C179	C	1.576790	0.071373	1.173305
C180	C	1.910123	0.404706	1.506638
C181	C	1.192859	-0.309322	0.798681
C182	C	1.526193	0.024012	1.132015
C183	C	1.859526	0.357345	1.465348
C184	C	1.142285	-0.356672	0.839944
C185	C	1.475619	-0.023339	1.173277
C186	C	1.808952	0.309995	1.506610
C187	C	1.091693	-0.404037	0.798655
C188	C	1.425026	-0.070703	1.131988
C189	C	1.758360	0.262630	1.465321
C190	C	1.041115	-0.451384	0.839915
C191	C	1.374448	-0.118050	1.173249
C192	C	1.707781	0.215283	1.506582
C193	C	1.041138	-0.451364	0.922464
C194	C	1.374471	-0.118030	1.255797
C195	C	1.707805	0.215303	1.589131
C196	C	1.192836	-0.309342	0.716133
C197	C	1.526169	0.023992	1.049466
C198	C	1.859502	0.357325	1.382800
C199	C	1.091672	-0.404055	0.716101
C200	C	1.425005	-0.070722	1.049434
C201	C	1.758339	0.262611	1.382768
H202	H	0.567709	-0.490269	0.522835
H203	H	0.901042	-0.156935	0.856168
H204	H	1.234376	0.176398	1.189501
Cl205	Cl	1.296003	-0.930242	0.333351
Cl206	Cl	1.629337	-0.596908	0.666684
Cl207	Cl	1.962670	-0.263575	1.000017
Cl208	Cl	0.425609	-0.463877	0.494726
Cl209	Cl	0.758942	-0.130543	0.828060
Cl210	Cl	1.092276	0.202790	1.161393
Cl211	Cl	0.986250	-0.932629	0.420558
Cl212	Cl	1.319584	-0.599295	0.753891
Cl213	Cl	1.652917	-0.265962	1.087224
Cl214	Cl	0.985376	-0.782130	0.420077
Cl215	Cl	1.318710	-0.448797	0.753411
Cl216	Cl	1.652043	-0.115463	1.086744
Cl217	Cl	0.859586	-0.249734	0.266908
Cl218	Cl	1.192919	0.083599	0.600241
Cl219	Cl	1.526253	0.416933	0.933575
Cl220	Cl	1.102840	-0.781144	0.537264
Cl221	Cl	1.436174	-0.447811	0.870598
Cl222	Cl	1.769507	-0.114478	1.203931
Cl223	Cl	1.184806	-0.931021	0.225050
Cl224	Cl	1.518140	-0.597687	0.558384
Cl225	Cl	1.851473	-0.264354	0.891717
Cl226	Cl	0.735752	-0.511256	0.545186
Cl227	Cl	1.069085	-0.177923	0.878519
Cl228	Cl	1.402419	0.155410	1.211852
H229	H	1.284640	-0.223407	0.806384
H230	H	1.617973	0.109926	1.139718
H231	H	1.951307	0.443260	1.473051
Cl232	Cl	1.026288	-0.780367	0.269121
Cl233	Cl	1.359621	-0.447033	0.602454
Cl234	Cl	1.692954	-0.113700	0.935787
H235	H	1.058143	-0.919066	0.279821
H236	H	1.391477	-0.585732	0.613154
H237	H	1.724810	-0.252399	0.946487
H238	H	0.999926	-0.489951	0.806287
H239	H	1.333259	-0.156618	1.139621
H240	H	1.666592	0.176715	1.472954
H241	H	1.050574	-0.442530	1.079906
H242	H	1.383907	-0.109197	1.413239
H243	H	1.717241	0.224136	1.746573
Cl244	Cl	0.549436	-0.202356	0.216480
Cl245	Cl	0.882769	0.130978	0.549813
Cl246	Cl	1.216103	0.464311	0.883146
H247	H	1.162645	-0.793014	0.250663
H248	H	1.495978	-0.459680	0.583996
H249	H	1.829311	-0.126347	0.917330
H250	H	1.095322	-0.919836	0.504057
H251	H	1.428655	-0.586502	0.837390
H252	H	1.761988	-0.253169	1.170724
H253	H	0.717493	-0.223341	0.238806
H254	H	1.050827	0.109992	0.572140
H255	H	1.384160	0.443326	0.905473
Cl256	Cl	1.257645	-0.932221	0.494382
Cl257	Cl	1.590979	-0.598888	0.827716
Cl258	Cl	1.924312	-0.265554	1.161049
H259	H	0.443888	-0.270793	0.289299
H260	H	0.777221	0.062540	0.622632
H261	H	1.110555	0.395874	0.955966
H262	H	1.242417	-0.792941	0.465328
H263	H	1.575751	-0.459608	0.798661
H264	H	1.909084	-0.126274	1.131994
H265	H	0.841299	-0.442814	0.472359
H266	H	1.174633	-0.109481	0.805692
H267	H	1.507966	0.223853	1.139025
Cl268	Cl	1.299221	-0.780248	0.340187
Cl269	Cl	1.632554	-0.446915	0.673520
Cl270	Cl	1.965888	-0.113581	1.006854
Cl271	Cl	1.256523	-0.249738	1.098239
Cl272	Cl	1.589857	0.083596	1.431572
Cl273	Cl	1.923190	0.416929	1.764905
H274	H	1.050466	-0.442619	0.682489
H275	H	1.383799	-0.109286	1.015823
H276	H	1.717133	0.224047	1.349156
Cl277	Cl	1.256420	-0.249830	0.664266
Cl278	Cl	1.589753	0.083504	0.997599
Cl279	Cl	1.923086	0.416837	1.330933
H280	H	0.999962	-0.489914	0.956066
H281	H	1.333296	-0.156580	1.289399
H282	H	1.666629	0.176753	1.622732
Cl283	Cl	1.307078	-0.202411	0.974432
Cl284	Cl	1.640411	0.130922	1.307765
Cl285	Cl	1.973744	0.464255	1.641098
