data_functionalizedCrystal
_audit_creation_method	'MofGen! by Chris Wilmer'
_symmetry_space_group_name_H-M	'P1'
_symmetry_Int_Tables_number	1
_symmetry_cell_setting	triclinic
loop_
_symmetry_equiv_pos_as_xyz
  x,y,z
_cell_length_a	19.288864
_cell_length_b	10.723024
_cell_length_c	17.766277
_cell_angle_alpha	89.994854
_cell_angle_beta	89.976791
_cell_angle_gamma	83.802058
loop_
_atom_site_label
_atom_site_type_symbol
_atom_site_fract_x
_atom_site_fract_y
_atom_site_fract_z
O1	O	0.922366	0.155659	-0.062834
O2	O	0.720242	0.176657	-0.062782
O3	O	0.825966	-0.015516	-0.062807
O4	O	0.816642	0.347832	-0.062810
O5	O	0.825947	-0.015526	0.062382
O6	O	0.720223	0.176647	0.062406
O7	O	0.922347	0.155649	0.062355
Cu8	Cu	0.821283	0.166147	0.073811
Cu9	Cu	0.821306	0.166159	-0.074239
O10	O	0.816623	0.347822	0.062379
C11	C	0.694352	0.175976	-0.000181
C12	C	0.617235	0.173948	-0.000162
C13	C	0.573272	0.286707	-0.000175
C14	C	0.500813	0.284801	-0.000183
C15	C	0.472319	0.170131	-0.000193
C16	C	0.516291	0.057358	-0.000176
C17	C	0.588749	0.059266	-0.000160
C18	C	0.363477	0.079991	-0.044077
C19	C	0.291020	0.078087	-0.044098
C20	C	0.248835	0.164239	-0.000239
C21	C	0.279114	0.252317	0.043630
C22	C	0.351572	0.254226	0.043646
C23	C	0.393752	0.168049	-0.000210
C24	C	0.126303	0.274939	-0.000260
C25	C	0.053843	0.273029	-0.000263
C26	C	0.069323	0.045582	-0.000264
C27	C	0.141782	0.047496	-0.000253
C28	C	0.170267	0.162178	-0.000254
C29	C	0.825278	-0.062006	-0.000213
C30	C	0.823248	-0.200518	-0.000215
C31	C	0.882406	-0.276743	-0.000231
C32	C	0.880309	-0.419902	-0.000234
C33	C	0.948237	0.156330	-0.000248
C34	C	1.025354	0.158358	-0.000273
C35	C	0.817311	0.394313	-0.000216
C36	C	0.819341	0.532824	-0.000219
N37	N	0.821273	0.166138	0.177941
N38	N	0.821322	0.166158	-0.178369
C39	C	0.868103	0.081086	0.217318
C40	C	0.868107	0.081080	0.296119
C41	C	0.821287	0.166148	0.335542
C42	C	0.774448	0.251208	0.296156
C43	C	0.774441	0.251203	0.217356
C44	C	0.812728	0.279841	0.460380
C45	C	0.812741	0.279847	0.539179
C46	C	0.821306	0.166163	0.578588
C47	C	0.829874	0.052468	0.539189
C48	C	0.829867	0.052463	0.460389
C49	C	0.821290	0.166163	0.420988
C50	C	0.868143	0.081097	0.703410
C51	C	0.868142	0.081090	0.782214
C52	C	0.774487	0.251228	0.782249
C53	C	0.774485	0.251225	0.703447
C54	C	0.821316	0.166161	0.664033
H55	H	0.244768	0.322470	0.079345
H56	H	0.149497	0.368320	-0.000250
C57	C	0.952927	-0.221745	-0.000247
H58	H	0.989770	-0.288132	-0.000261
H59	H	0.956255	-0.171599	0.043409
H60	H	0.956269	-0.171590	-0.043909
C61	C	0.484951	-0.068776	-0.000192
H62	H	0.435501	-0.053764	-0.000212
H63	H	0.499979	-0.115196	0.043466
H64	H	0.500032	-0.115180	-0.043852
H65	H	0.906274	0.011829	0.671318
H66	H	0.805741	0.372422	0.428300
H67	H	0.768695	-0.401687	-0.000200
C68	C	0.005483	0.397070	-0.000278
H69	H	0.032829	0.465638	-0.000283
H70	H	-0.023128	0.401059	0.043373
H71	H	-0.023080	0.401047	-0.043945
C72	C	0.637110	-0.064773	-0.000155
H73	H	0.609766	-0.133343	-0.000167
H74	H	0.665678	-0.068762	0.043503
H75	H	0.665716	-0.068747	-0.043814
C76	C	0.752727	-0.255516	-0.000202
H77	H	0.715883	-0.189129	-0.000198
H78	H	0.749383	-0.305679	0.043451
H79	H	0.749401	-0.305654	-0.043866
H80	H	0.046124	-0.047784	-0.000320
C81	C	0.919608	-0.012494	0.173966
H82	H	0.947495	-0.063157	0.208708
H83	H	0.948729	0.032253	0.143202
H84	H	0.894369	-0.064331	0.143248
C85	C	0.948727	-0.508373	-0.000256
H86	H	0.938342	-0.592985	-0.000262
H87	H	0.975020	-0.493373	0.043391
H88	H	0.975025	-0.493354	-0.043927
H89	H	0.906243	0.011817	0.328185
C90	C	0.919660	-0.012471	0.825528
H91	H	0.947552	-0.063120	0.790765
H92	H	0.894437	-0.064306	0.856286
H93	H	0.948784	0.032302	0.856248
H94	H	0.736363	0.320488	0.814346
H95	H	0.836841	-0.040111	0.428313
C96	C	0.839291	-0.072591	0.582528
H97	H	0.838059	-0.056310	0.635101
H98	H	0.882882	-0.117294	0.569597
H99	H	0.802729	-0.121313	0.569632
C100	C	0.722950	0.344784	0.339518
H101	H	0.729667	0.332615	0.392088
H102	H	0.676532	0.331445	0.326633
H103	H	0.730891	0.428030	0.326590
C104	C	0.190143	-0.076540	-0.000251
H105	H	0.162798	-0.145109	-0.000264
H106	H	0.218709	-0.080530	0.043410
H107	H	0.218752	-0.080515	-0.043908
H108	H	0.736354	0.320488	0.671385
H109	H	0.805769	0.372424	0.571252
C110	C	0.384882	0.351091	0.091902
H111	H	0.434075	0.339890	0.085624
H112	H	0.373726	0.339809	0.143366
H113	H	0.367400	0.433341	0.076476
H114	H	0.736305	0.320464	0.185295
C115	C	0.409874	-0.014774	-0.092331
H116	H	0.381464	-0.067485	-0.118470
H117	H	0.441555	-0.064420	-0.060713
H118	H	0.435218	0.029132	-0.127593
C119	C	0.604603	0.412851	-0.000162
H120	H	0.568038	0.479734	-0.000163
H121	H	0.632574	0.418335	-0.043809
H122	H	0.632518	0.418315	0.043509
C123	C	0.452445	0.408840	-0.000208
H124	H	0.479788	0.477412	-0.000213
H125	H	0.423827	0.412833	0.043437
H126	H	0.423889	0.412805	-0.043881
H127	H	0.266373	0.006374	-0.079822
