data_functionalizedCrystal
_audit_creation_method	'MofGen! by Chris Wilmer'
_symmetry_space_group_name_H-M	'P1'
_symmetry_Int_Tables_number	1
_symmetry_cell_setting	triclinic
loop_
_symmetry_equiv_pos_as_xyz
  x,y,z
_cell_length_a	15.944551
_cell_length_b	11.792241
_cell_length_c	10.868271
_cell_angle_alpha	90.000107
_cell_angle_beta	89.993912
_cell_angle_gamma	96.153923
loop_
_atom_site_label
_atom_site_type_symbol
_atom_site_fract_x
_atom_site_fract_y
_atom_site_fract_z
O1	O	0.115128	-1.505960	-0.102206
O2	O	0.126993	-1.175521	-0.102235
O3	O	-0.001173	-1.349764	-0.102208
O4	O	0.243295	-1.331717	-0.102232
O5	O	-0.001178	-1.349750	0.102436
O6	O	0.126988	-1.175507	0.102410
O7	O	0.115123	-1.505946	0.102439
Zn8	Zn	0.121055	-1.340724	0.134916
Zn9	Zn	0.121062	-1.340743	-0.134712
O10	O	0.243290	-1.331703	0.102413
C11	C	0.126245	-1.133229	0.000084
C12	C	0.124015	-1.007234	0.000073
C13	C	-0.032473	-1.349008	0.000114
C14	C	-0.125729	-1.346761	0.000115
N15	N	0.121050	-1.340719	0.318930
C16	C	-0.341098	-1.233389	0.000088
C17	C	-0.401880	-1.286028	0.100995
C18	C	-0.296474	-1.342698	0.000105
C19	C	-0.401858	-1.286068	-0.100769
C20	C	-0.461404	-1.338765	0.000090
C21	C	-0.356028	-1.395368	0.101095
C22	C	-0.356000	-1.395392	-0.100759
C23	C	-0.416764	-1.448111	0.000172
C24	C	-0.201461	-1.344961	0.000114
C25	C	-0.556415	-1.336511	0.000089
C26	C	0.274590	-1.332459	0.000087
C27	C	0.367846	-1.334705	0.000079
C28	C	0.115871	-1.548237	0.000118
C29	C	0.118102	-1.674233	0.000120
C30	C	0.119913	-0.776555	0.000109
C31	C	0.122192	-0.904922	0.000090
N32	N	0.121060	-1.340756	-0.318726
C33	C	0.121060	-1.340737	0.569936
C34	C	0.121057	-1.340723	0.430259
H35	H	-0.308200	-1.142657	0.000181
Br36	Br	-0.435746	-1.208965	0.243171
Br37	Br	-0.322094	-1.472399	-0.242941
H38	H	-0.422142	-1.239826	-0.186084
H39	H	-0.449513	-1.538922	0.000237
H40	H	-0.335831	-1.441556	0.186497
