data_functionalizedCrystal
_audit_creation_method	'MofGen! by Chris Wilmer'
_symmetry_space_group_name_H-M	'P1'
_symmetry_Int_Tables_number	1
_symmetry_cell_setting	triclinic
loop_
_symmetry_equiv_pos_as_xyz
  x,y,z
_cell_length_a	17.000383
_cell_length_b	17.019294
_cell_length_c	15.500227
_cell_angle_alpha	88.951630
_cell_angle_beta	87.377684
_cell_angle_gamma	79.506204
loop_
_atom_site_label
_atom_site_type_symbol
_atom_site_fract_x
_atom_site_fract_y
_atom_site_fract_z
O1	O	1.059871	0.024415	-0.073822
O2	O	0.828216	0.052930	-0.075935
O3	O	0.950068	-0.076142	-0.066321
O4	O	0.938019	0.153488	-0.083436
O5	O	0.942674	-0.068338	0.076986
O6	O	0.820821	0.060734	0.067373
O7	O	1.052477	0.032219	0.069485
Cu8	Cu	0.935974	0.047189	0.081514
Cu9	Cu	0.944719	0.037960	-0.087964
O10	O	0.930625	0.161292	0.059872
C11	C	0.794869	0.058364	-0.004394
C12	C	0.706523	0.062918	-0.004728
C13	C	0.206387	0.092320	-0.006952
C14	C	0.289398	0.088035	-0.006632
C15	C	0.340192	0.013661	-0.001082
C16	C	0.307970	-0.056433	0.004139
C17	C	0.224961	-0.052147	0.003813
C18	C	0.591292	-0.002891	0.000167
C19	C	0.674306	-0.007171	0.000495
C20	C	0.655728	0.137298	-0.010278
C21	C	0.572718	0.141576	-0.010598
C22	C	0.540504	0.071482	-0.005382
C23	C	0.425043	0.009280	-0.000752
C24	C	0.455655	0.075864	-0.005718
C25	C	0.945768	-0.101477	0.007510
C26	C	0.943963	-0.188592	0.013998
C27	C	0.947147	-0.233768	-0.061071
C28	C	0.945446	-0.315621	-0.054972
C29	C	0.940566	-0.352297	0.026196
C30	C	0.937379	-0.307114	0.101269
C31	C	0.939075	-0.225262	0.095170
C32	C	0.935239	-0.599224	0.048520
C33	C	0.933546	-0.681083	0.054614
C34	C	0.941611	-0.689584	-0.101629
C35	C	0.943312	-0.607730	-0.107721
C36	C	0.940120	-0.562554	-0.032647
C37	C	0.938829	-0.435964	0.032431
C38	C	0.941851	-0.478887	-0.038884
C39	C	1.085824	0.026786	-0.002058
C40	C	1.174171	0.022231	-0.001729
C41	C	0.934925	0.186626	-0.013961
C42	C	0.936730	0.273741	-0.020455
N43	N	0.929829	0.053679	0.200716
N44	N	0.950870	0.031464	-0.207165
C45	C	0.981480	-0.000996	0.250065
C46	C	0.976841	0.003920	0.340271
C47	C	0.920553	0.063514	0.381127
C48	C	0.868896	0.118191	0.331772
C49	C	0.873533	0.113272	0.241567
C50	C	0.903850	0.081222	0.653275
C51	C	0.899219	0.086139	0.743486
C52	C	1.007163	-0.028135	0.751980
C53	C	1.011797	-0.033046	0.661773
C54	C	0.960138	0.021629	0.612425
C55	C	0.915810	0.068541	0.473333
C56	C	0.964877	0.016598	0.520222
H57	H	0.565074	-0.059967	0.004417
H58	H	0.165035	0.152884	-0.011465
F59	F	1.041394	-0.064421	0.206591
F60	F	1.062137	-0.086322	0.804504
H61	H	1.018898	-0.040602	0.380451
H62	H	0.831472	0.157793	0.201387
H63	H	0.934858	-0.465835	0.098518
F64	F	1.071705	-0.096471	0.618292
H65	H	0.932656	-0.562454	0.109651
H66	H	0.349334	-0.116990	0.008653
F67	F	0.518665	0.220735	-0.016510
F68	F	0.401596	0.155015	-0.011629
H69	H	0.198733	-0.109221	0.008065
F70	F	0.855907	0.131966	0.516819
H71	H	1.010704	-0.031926	0.486955
F72	F	0.839307	0.149572	0.786962
H73	H	0.466408	-0.051275	0.003769
H74	H	0.315624	0.145109	-0.010894
F75	F	0.947047	-0.439853	-0.125266
H76	H	0.681966	0.194364	-0.014526
F77	F	0.848873	0.139412	0.600763
H78	H	0.823061	0.166712	0.365042
H79	H	0.951126	-0.203914	-0.127166
F80	F	0.728364	-0.086334	0.006401
H81	H	0.936470	-0.188478	0.156299
F82	F	0.945007	-0.737669	-0.181522
H83	H	0.947287	-0.577875	-0.173816
F84	F	0.948836	-0.363698	-0.134871
F85	F	0.928356	-0.720115	0.141008
F86	F	0.932176	-0.346148	0.187655
