data_functionalizedCrystal
_audit_creation_method	'MofGen! by Chris Wilmer'
_symmetry_space_group_name_H-M	'P1'
_symmetry_Int_Tables_number	1
_symmetry_cell_setting	triclinic
loop_
_symmetry_equiv_pos_as_xyz
  x,y,z
_cell_length_a	19.188905
_cell_length_b	14.853569
_cell_length_c	13.930277
_cell_angle_alpha	90.003472
_cell_angle_beta	90.013689
_cell_angle_gamma	96.614940
loop_
_atom_site_label
_atom_site_type_symbol
_atom_site_fract_x
_atom_site_fract_y
_atom_site_fract_z
O1	O	0.926535	-0.112432	0.079992
O2	O	0.723272	-0.127607	0.079959
O3	O	0.830332	0.011241	0.079967
O4	O	0.819474	-0.251280	0.079984
O5	O	0.830316	0.011219	-0.079695
O6	O	0.723256	-0.127629	-0.079703
O7	O	0.926519	-0.112454	-0.079670
Zn8	Zn	0.824885	-0.120044	-0.105036
Zn9	Zn	0.824906	-0.120016	0.105325
O10	O	0.819458	-0.251302	-0.079678
C11	C	0.697251	-0.127130	0.000124
C12	C	0.619740	-0.125667	0.000111
C13	C	0.583355	-0.124952	0.087145
C14	C	0.510527	-0.123566	0.087157
C15	C	0.474089	-0.122877	0.000130
C16	C	0.510482	-0.123597	-0.086916
C17	C	0.583308	-0.124992	-0.086925
N18	N	0.364883	-0.069393	-0.064639
N19	N	0.295702	-0.068066	-0.064625
C20	C	0.254668	-0.118678	0.000153
N21	N	0.285430	-0.170655	0.064930
N22	N	0.354618	-0.171977	0.064918
C23	C	0.395121	-0.121366	0.000130
C24	C	0.139313	-0.116462	0.087206
C25	C	0.066483	-0.115082	0.087214
C26	C	0.066441	-0.115104	-0.086861
C27	C	0.139269	-0.116493	-0.086867
C28	C	0.175701	-0.117167	0.000169
C29	C	0.829832	0.044816	0.000136
C30	C	0.828357	0.144891	0.000135
C31	C	0.952540	-0.112931	0.000167
C32	C	1.030050	-0.114394	0.000186
C33	C	0.819959	-0.284877	0.000155
C34	C	0.821433	-0.384952	0.000163
C35	C	0.764069	0.180903	0.000123
C36	C	0.891260	0.202914	0.000153
C37	C	0.889876	0.296940	0.000157
C38	C	0.825588	0.332952	0.000145
C39	C	0.762683	0.274937	0.000129
C40	C	0.952780	0.354962	0.000183
C41	C	0.951399	0.448995	0.000188
C42	C	0.887110	0.485008	0.000169
C43	C	0.824202	0.426987	0.000152
C44	C	0.759914	0.462999	0.000140
C45	C	0.697006	0.404979	0.000116
C46	C	0.698394	0.310951	0.000111
C47	C	0.885722	0.579036	0.000175
C48	C	0.758529	0.557033	0.000147
N49	N	0.824876	-0.120063	-0.248602
C50	C	0.867312	-0.174539	-0.700851
C51	C	0.782521	-0.065457	-0.700862
C52	C	0.782510	-0.065472	-0.600366
C53	C	0.824902	-0.120020	-0.550108
C54	C	0.867304	-0.174553	-0.600346
C55	C	0.740114	-0.010933	-0.550121
C56	C	0.740103	-0.010945	-0.449619
C57	C	0.782491	-0.065498	-0.399359
C58	C	0.824894	-0.120034	-0.449603
C59	C	0.867286	-0.174582	-0.399345
C60	C	0.909686	-0.229124	-0.449587
C61	C	0.909692	-0.229106	-0.550086
C62	C	0.782484	-0.065515	-0.298860
C63	C	0.867278	-0.174596	-0.298840
N64	N	0.824920	-0.119991	0.248891
H65	H	0.480896	-0.122986	0.158033
H66	H	0.936940	0.626271	0.000203
H67	H	0.712851	0.133660	0.000099
H68	H	0.036859	-0.114505	0.158091
C69	C	0.517754	-0.123764	-0.258978
C70	C	0.470433	-0.122840	-0.182579
H71	H	0.493027	-0.123305	-0.318037
H72	H	0.551439	-0.071751	-0.255366
H73	H	0.540878	-0.176873	-0.255349
H74	H	0.447313	-0.069727	-0.186203
H75	H	0.436735	-0.174858	-0.186193
H76	H	0.036774	-0.114548	-0.157721
H77	H	0.612933	-0.125575	-0.157801
C78	C	0.623106	0.024051	-0.418748
C79	C	0.693487	0.048995	-0.394405
H80	H	0.594326	0.061051	-0.384657
H81	H	0.617057	0.031869	-0.485788
H82	H	0.610203	-0.037681	-0.402293
H83	H	0.706392	0.110727	-0.410866
H84	H	0.699539	0.041186	-0.327350
C85	C	0.132040	-0.116324	0.259271
C86	C	0.179363	-0.117226	0.182873
H87	H	0.156765	-0.116805	0.318331
H88	H	0.108918	-0.063221	0.255661
H89	H	0.098351	-0.168344	0.255641
H90	H	0.213049	-0.065203	0.186499
H91	H	0.202497	-0.170334	0.186485
H92	H	0.168895	-0.117069	-0.157740
H93	H	0.706177	0.586346	0.000128
H94	H	0.705608	0.033485	-0.591049
C95	C	0.949855	0.068547	0.000156
C96	C	0.961923	0.163332	0.000164
H97	H	0.993482	0.044111	0.000155
H98	H	0.923962	0.048625	0.055825
H99	H	0.923945	0.048624	-0.055530
H100	H	0.987828	0.183255	0.055855
H101	H	0.987827	0.183262	-0.055511
C102	C	0.951093	-0.282421	-0.308924
C103	C	0.913878	-0.234557	-0.243600
H104	H	0.979864	-0.319433	-0.274819
H105	H	0.918998	-0.319463	-0.348139
H106	H	0.979664	-0.240823	-0.348107
H107	H	0.885303	-0.276155	-0.204422
H108	H	0.945977	-0.197512	-0.204369
C109	C	0.571416	0.373795	0.000090
C110	C	0.626341	0.444569	0.000110
H111	H	0.527793	0.398240	0.000094
H112	H	0.574594	0.337585	-0.055591
H113	H	0.574608	0.337569	0.055765
H114	H	0.623152	0.480790	-0.055568
H115	H	0.623162	0.480794	0.055797
H116	H	0.647178	0.263704	0.000094
H117	H	0.944204	-0.273532	-0.408654
C118	C	0.947359	-0.277506	-0.704137
C119	C	0.956301	-0.289047	-0.605313
H120	H	0.976138	-0.314506	-0.738233
H121	H	0.899612	-0.294415	-0.720629
H122	H	0.960275	-0.215771	-0.720572
H123	H	0.943380	-0.350781	-0.588877
H124	H	1.004058	-0.272143	-0.588815
C125	C	0.665498	-0.030497	-0.267959
C126	C	0.735884	-0.005571	-0.243631
H127	H	0.636728	0.006509	-0.233857
H128	H	0.659442	-0.022674	-0.334997
H129	H	0.652588	-0.092229	-0.251506
H130	H	0.748796	0.056159	-0.260091
H131	H	0.741943	-0.013386	-0.176579
C132	C	1.061609	0.344750	0.082305
C133	C	1.023439	0.315371	0.000209
H134	H	1.105230	0.320297	0.082323
H135	H	1.069793	0.409045	0.082306
H136	H	1.035693	0.324816	0.137963
H137	H	1.049353	0.335310	-0.055450
H138	H	1.015257	0.251062	0.000199
H139	H	1.002622	0.496227	0.000205
H140	H	0.748012	-0.021041	-0.741788
C141	C	0.576076	-0.124785	0.259211
C142	C	0.623399	-0.125703	0.182815
H143	H	0.600800	-0.125255	0.318272
H144	H	0.552954	-0.071683	0.255588
H145	H	0.542387	-0.176806	0.255591
H146	H	0.657085	-0.073678	0.186431
H147	H	0.646533	-0.178810	0.186439
H148	H	0.901831	-0.218948	-0.741762
