data_functionalizedCrystal
_audit_creation_method	'MofGen! by Chris Wilmer'
_symmetry_space_group_name_H-M	'P1'
_symmetry_Int_Tables_number	1
_symmetry_cell_setting	triclinic
loop_
_symmetry_equiv_pos_as_xyz
  x,y,z
_cell_length_a	14.044220
_cell_length_b	11.792241
_cell_length_c	10.268362
_cell_angle_alpha	90.005428
_cell_angle_beta	89.999567
_cell_angle_gamma	88.691147
loop_
_atom_site_label
_atom_site_type_symbol
_atom_site_fract_x
_atom_site_fract_y
_atom_site_fract_z
O1	O	-1.259114	-0.273771	-0.108163
O2	O	-0.759114	0.226229	0.391837
O3	O	-0.983094	-0.263892	-0.108196
O4	O	-0.483094	0.236108	0.391804
O5	O	-1.127802	-0.104289	-0.108169
O6	O	-0.627802	0.395711	0.391831
O7	O	-1.114405	-0.433373	-0.108189
O8	O	-0.614405	0.066627	0.391811
O9	O	-1.127789	-0.104281	0.108431
O10	O	-0.627789	0.395719	0.608431
O11	O	-0.983081	-0.263883	0.108405
O12	O	-0.483081	0.236117	0.608405
O13	O	-1.259101	-0.273762	0.108438
O14	O	-0.759101	0.226238	0.608438
Cu15	Cu	-1.121090	-0.268822	0.128199
Cu16	Cu	-0.621090	0.231178	0.628199
Cu17	Cu	-1.121105	-0.268832	-0.127957
Cu18	Cu	-0.621105	0.231168	0.372043
O19	O	-1.114393	-0.433365	0.108411
O20	O	-0.614393	0.066635	0.608411
C21	C	-0.947751	-0.259563	0.000100
C22	C	-0.447751	0.240437	0.500100
C23	C	-0.842459	-0.246664	0.000088
C24	C	-0.342459	0.253336	0.500088
C25	C	-1.126954	-0.061915	0.000130
C26	C	-0.626954	0.438085	0.500130
C27	C	-1.124435	0.064335	0.000129
C28	C	-0.624435	0.564335	0.500129
C29	C	-1.294444	-0.278091	0.000139
C30	C	-0.794444	0.221909	0.500139
C31	C	-1.399736	-0.290990	0.000143
C32	C	-0.899736	0.209010	0.500143
C33	C	-0.649676	-0.223082	0.000115
C34	C	-0.149676	0.276918	0.500115
C35	C	-0.592513	-0.314567	0.000115
C36	C	-0.092513	0.185433	0.500115
C37	C	-0.485242	-0.301445	0.000130
C38	C	0.014758	0.198555	0.500130
C39	C	-0.756957	-0.236202	0.000100
C40	C	-0.256957	0.263798	0.500100
C41	C	-1.115241	-0.475739	0.000109
C42	C	-0.615241	0.024261	0.500109
C43	C	-1.117759	-0.601989	0.000102
C44	C	-0.617759	-0.101989	0.500102
N45	N	-1.121086	-0.268815	0.308365
N46	N	-0.621086	0.231185	0.808365
C47	C	-1.119804	0.295482	0.000107
C48	C	-0.619804	0.795482	0.500107
C49	C	-1.122377	0.166855	0.000119
C50	C	-0.622377	0.666855	0.500119
N51	N	-1.121116	-0.268831	-0.308123
N52	N	-0.621116	0.231169	0.191877
C53	C	-1.121100	-0.268829	0.574035
C54	C	-0.621100	0.231171	1.074035
C55	C	-1.121089	-0.268824	0.426197
C56	C	-0.621089	0.231176	0.926197
H57	H	-0.624137	-0.402744	0.000104
H58	H	-0.124137	0.097256	0.500104
H59	H	-0.618054	-0.134912	0.000128
H60	H	-0.118054	0.365088	0.500128
