data_functionalizedCrystal
_audit_creation_method	'MofGen! by Chris Wilmer'
_symmetry_space_group_name_H-M	'P1'
_symmetry_Int_Tables_number	1
_symmetry_cell_setting	triclinic
loop_
_symmetry_equiv_pos_as_xyz
  x,y,z
_cell_length_a	23.532407
_cell_length_b	14.971486
_cell_length_c	13.448316
_cell_angle_alpha	90.006811
_cell_angle_beta	90.001429
_cell_angle_gamma	83.231403
loop_
_atom_site_label
_atom_site_type_symbol
_atom_site_fract_x
_atom_site_fract_y
_atom_site_fract_z
O1	O	-0.755726	-0.108581	-0.082568
O2	O	-0.255726	0.391419	0.417432
O3	O	-0.589930	-0.124291	-0.082598
O4	O	-0.089930	0.375709	0.417402
O5	O	-0.677272	0.013811	-0.082575
O6	O	-0.177272	0.513811	0.417425
O7	O	-0.668384	-0.246683	-0.082591
O8	O	-0.168384	0.253317	0.417409
O9	O	-0.677261	0.013820	0.082809
O10	O	-0.177261	0.513820	0.582809
O11	O	-0.589919	-0.124283	0.082786
O12	O	-0.089919	0.375717	0.582786
O13	O	-0.755715	-0.108572	0.082815
O14	O	-0.255715	0.391428	0.582815
Cu15	Cu	-0.672816	-0.116427	0.097902
Cu16	Cu	-0.172816	0.383573	0.597902
Cu17	Cu	-0.672829	-0.116437	-0.097684
Cu18	Cu	-0.172829	0.383563	0.402316
O19	O	-0.668373	-0.246674	0.082793
O20	O	-0.168373	0.253326	0.582793
C21	C	-0.568707	-0.123887	0.000091
C22	C	-0.068707	0.376113	0.500091
C23	C	-0.505485	-0.122684	0.000080
C24	C	-0.005485	0.377316	0.500080
C25	C	-0.676869	0.047136	0.000116
C26	C	-0.176869	0.547136	0.500116
C27	C	-0.675678	0.146420	0.000115
C28	C	-0.175678	0.646420	0.500115
C29	C	-0.776939	-0.108976	0.000125
C30	C	-0.276939	0.391024	0.500125
C31	C	-0.840161	-0.110179	0.000129
C32	C	-0.340161	0.389821	0.500129
C33	C	-0.106699	-0.196866	0.000120
C34	C	0.393301	0.303134	0.500120
C35	C	-0.047294	-0.195748	0.000126
C36	C	0.452706	0.304252	0.500126
O37	O	-0.010844	-0.264516	0.000158
O38	O	0.489156	0.235484	0.500158
N39	N	-0.024317	-0.113647	0.000130
N40	N	0.475683	0.386353	0.500130
C41	C	-0.060747	-0.032657	0.000137
C42	C	0.439253	0.467343	0.500137
O43	O	-0.035748	0.037280	0.000141
O44	O	0.464252	0.537280	0.500141
C45	C	-0.120151	-0.033775	0.000138
C46	C	0.379849	0.466225	0.500138
C47	C	-0.143125	-0.115882	0.000124
C48	C	0.356875	0.384118	0.500124
C49	C	-0.129674	-0.278966	0.000108
C50	C	0.370326	0.221034	0.500108
C51	C	-0.189075	-0.280083	0.000100
C52	C	0.310925	0.219917	0.500100
C53	C	-0.225501	-0.199100	0.000104
C54	C	0.274499	0.300900	0.500104
C55	C	-0.202526	-0.116999	0.000116
C56	C	0.297474	0.383001	0.500116
C57	C	-0.156581	0.047213	0.000152
C58	C	0.343419	0.547213	0.500152
C59	C	-0.215988	0.046088	0.000154
C60	C	0.284012	0.546088	0.500154
C61	C	-0.238962	-0.036019	0.000141
C62	C	0.261038	0.463981	0.500141
C63	C	-0.298353	-0.037133	0.000113
C64	C	0.201647	0.462867	0.500113
N65	N	-0.321331	-0.119235	0.000109
N66	N	0.178669	0.380765	0.500109
C67	C	-0.284905	-0.200218	0.000105
C68	C	0.215095	0.299782	0.500105
C69	C	0.064005	-0.030315	0.000137
C70	C	0.564005	0.469685	0.500137
C71	C	0.123408	-0.029195	0.000129
C72	C	0.623408	0.470805	0.500129
C73	C	0.136857	-0.192287	0.000120
C74	C	0.636857	0.307713	0.500120
C75	C	0.077453	-0.193405	0.000121
C76	C	0.577453	0.306595	0.500121
C77	C	0.041028	-0.112416	0.000133
C78	C	0.541028	0.387584	0.500133
C79	C	-0.409652	-0.202558	0.000087
C80	C	0.090348	0.297442	0.500087
C81	C	-0.469059	-0.203667	0.000075
C82	C	0.030941	0.296333	0.500075
C83	C	-0.482502	-0.040576	0.000089
C84	C	0.017498	0.459424	0.500089
C85	C	-0.423101	-0.039466	0.000096
C86	C	0.076899	0.460534	0.500096
C87	C	-0.386676	-0.120464	0.000099
C88	C	0.113324	0.379536	0.500099
O89	O	-0.334838	0.031598	0.000085
O90	O	0.165162	0.531598	0.500085
O91	O	-0.309913	-0.270143	0.000114
O92	O	0.190087	0.229857	0.500114
C93	C	-0.668776	-0.279999	0.000099
C94	C	-0.168776	0.220001	0.500099
C95	C	-0.669968	-0.379284	0.000094
C96	C	-0.169968	0.120716	0.500094
N97	N	-0.672811	-0.116419	0.235466
N98	N	-0.172811	0.383581	0.735466
C99	C	-0.726989	0.204188	0.000125
C100	C	-0.226989	0.704188	0.500125
C101	C	-0.725866	0.297475	0.000115
C102	C	-0.225866	0.797475	0.500115
C103	C	-0.673432	0.332994	0.000102
C104	C	-0.173432	0.832994	0.500102
C105	C	-0.622117	0.275219	0.000089
C106	C	-0.122117	0.775219	0.500089
C107	C	-0.623241	0.181933	0.000092
C108	C	-0.123241	0.681933	0.500092
C109	C	-0.619780	0.469657	0.000085
C110	C	-0.119780	0.969657	0.500085
C111	C	-0.618657	0.562949	0.000084
C112	C	-0.118657	1.062949	0.500084
C113	C	-0.722406	0.585199	0.000108
C114	C	-0.222406	1.085199	0.500108
C115	C	-0.723529	0.491913	0.000111
C116	C	-0.223529	0.991913	0.500111
C117	C	-0.672214	0.434145	0.000100
C118	C	-0.172214	0.934145	0.500100
N119	N	-0.672839	-0.116437	-0.235248
N120	N	-0.172839	0.383563	0.264752
C121	C	-0.711498	-0.055292	0.287516
C122	C	-0.211498	0.444708	0.787516
C123	C	-0.711502	-0.055292	0.391620
C124	C	-0.211502	0.444708	0.891620
C125	C	-0.672821	-0.116423	0.443671
C126	C	-0.172821	0.383577	0.943671
C127	C	-0.634130	-0.177552	0.391613
C128	C	-0.134130	0.322448	0.891613
C129	C	-0.634124	-0.177548	0.287512
C130	C	-0.134124	0.322452	0.787512
C131	C	-0.634145	-0.177558	0.608593
C132	C	-0.134145	0.322442	1.108593
C133	C	-0.634152	-0.177564	0.712702
C134	C	-0.134152	0.322436	1.212702
C135	C	-0.711523	-0.055302	0.712701
C136	C	-0.211523	0.444698	1.212701
C137	C	-0.711518	-0.055297	0.608600
C138	C	-0.211518	0.444703	1.108600
C139	C	-0.672827	-0.116429	0.556549
C140	C	-0.172827	0.383571	1.056549
H141	H	-0.487761	-0.270532	0.000064
H142	H	0.012239	0.229468	0.500064
H143	H	0.034350	0.035641	0.000138
H144	H	0.534350	0.535641	0.500138
Cl145	Cl	-0.555268	0.397035	0.000071
Cl146	Cl	-0.055268	0.897035	0.500071
H147	H	-0.743017	-0.005524	0.566220
H148	H	-0.243017	0.494476	1.066220
H149	H	-0.100021	-0.344916	0.000108
H150	H	0.399979	0.155084	0.500108
H151	H	-0.575960	0.591865	0.000090
H152	H	-0.075960	1.091865	0.500090
Cl153	Cl	-0.127714	0.150440	0.000152
Cl154	Cl	0.372286	0.650440	0.500152
Cl155	Cl	-0.261777	0.147910	0.000171
Cl156	Cl	0.238223	0.647910	0.500171
Cl157	Cl	-0.556200	0.319871	0.000061
Cl158	Cl	-0.056200	0.819871	0.500061
Cl159	Cl	-0.394218	0.063755	0.000118
Cl160	Cl	0.105782	0.563755	0.500118
H161	H	-0.766225	0.462998	0.000128
H162	H	-0.266225	0.962998	0.500128
H163	H	-0.742999	-0.005516	0.245143
H164	H	-0.242999	0.494484	0.745143
Cl165	Cl	-0.528306	0.061226	0.000099
Cl166	Cl	-0.028306	0.561226	0.500099
Cl167	Cl	-0.792910	0.159546	0.000151
Cl168	Cl	-0.292910	0.659546	0.500151
Cl169	Cl	-0.790375	0.370094	0.000130
Cl170	Cl	-0.290375	0.870094	0.500130
Cl171	Cl	-0.585503	-0.254409	0.543162
Cl172	Cl	-0.085503	0.245591	1.043162
Cl173	Cl	-0.786916	0.657821	0.000116
Cl174	Cl	-0.286916	1.157821	0.500116
Cl175	Cl	-0.760137	0.021556	0.457056
Cl176	Cl	-0.260137	0.521556	0.957056
H177	H	-0.207775	-0.346943	0.000089
H178	H	0.292225	0.153057	0.500089
Cl179	Cl	-0.760163	0.021546	0.778139
Cl180	Cl	-0.260163	0.521546	1.278139
H181	H	-0.581458	0.134899	0.000084
H182	H	-0.081458	0.634899	0.500084
H183	H	-0.602653	-0.227342	0.755076
H184	H	-0.102653	0.272658	1.255076
Cl185	Cl	-0.585498	-0.254400	0.457046
Cl186	Cl	-0.085498	0.245600	0.957046
H187	H	0.058752	-0.260264	0.000115
H188	H	0.558752	0.239736	0.500115
H189	H	-0.602620	-0.227323	0.245133
H190	H	-0.102620	0.272677	0.745133
H191	H	-0.380002	-0.268514	0.000093
H192	H	0.119998	0.231486	0.500093
H193	H	0.166526	-0.258228	0.000121
H194	H	0.666526	0.241772	0.500121
Cl195	Cl	0.152282	0.074029	0.000120
Cl196	Cl	0.652282	0.574029	0.500120
