data_functionalizedCrystal
_audit_creation_method	'MofGen! by Chris Wilmer'
_symmetry_space_group_name_H-M	'P1'
_symmetry_Int_Tables_number	1
_symmetry_cell_setting	triclinic
loop_
_symmetry_equiv_pos_as_xyz
  x,y,z
_cell_length_a	11.792241
_cell_length_b	10.268362
_cell_length_c	19.288864
_cell_angle_alpha	90.023129
_cell_angle_beta	96.335166
_cell_angle_gamma	89.999574
loop_
_atom_site_label
_atom_site_type_symbol
_atom_site_fract_x
_atom_site_fract_y
_atom_site_fract_z
O1	O	1.505466	-0.108242	-0.095196
O2	O	1.838799	0.225091	0.238137
O3	O	2.172132	0.558425	0.571470
O4	O	1.174976	-0.108279	-0.105008
O5	O	1.508309	0.225054	0.228326
O6	O	1.841642	0.558387	0.561659
O7	O	1.349770	-0.108179	0.000974
O8	O	1.683104	0.225154	0.334308
O9	O	2.016437	0.558488	0.667641
O10	O	1.330671	-0.108342	-0.201178
O11	O	1.664004	0.224991	0.132155
O12	O	1.997338	0.558325	0.465489
O13	O	1.349754	0.108422	0.000971
O14	O	1.683087	0.441755	0.334304
O15	O	2.016420	0.775088	0.667637
O16	O	1.174959	0.108321	-0.105011
O17	O	1.508292	0.441655	0.228322
O18	O	1.841626	0.774988	0.561655
O19	O	1.505449	0.108359	-0.095200
O20	O	1.838782	0.441692	0.238133
O21	O	2.172116	0.775025	0.571467
Cu22	Cu	1.340202	0.128117	-0.100106
Cu23	Cu	1.673536	0.461451	0.233227
Cu24	Cu	2.006869	0.794784	0.566561
Cu25	Cu	1.340222	-0.128038	-0.100102
Cu26	Cu	1.673556	0.205295	0.233232
Cu27	Cu	2.006889	0.538629	0.566565
O28	O	1.330654	0.108259	-0.201182
O29	O	1.663988	0.441592	0.132152
O30	O	1.997321	0.774925	0.465485
C31	C	1.132686	0.000018	-0.104393
C32	C	1.466019	0.333351	0.228940
C33	C	1.799352	0.666684	0.562274
C34	C	1.006700	0.000008	-0.102548
C35	C	1.340033	0.333341	0.230785
C36	C	1.673367	0.666674	0.564118
N37	N	1.340197	0.308283	-0.100108
N38	N	1.673530	0.641617	0.233225
N39	N	2.006863	0.974950	0.566558
N40	N	1.340237	-0.308204	-0.100094
N41	N	1.673570	0.025130	0.233240
N42	N	2.006904	0.358463	0.566573
C43	C	0.776039	0.000048	-0.099156
C44	C	1.109373	0.333381	0.234177
C45	C	1.442706	0.666714	0.567510
C46	C	0.904396	0.000026	-0.101041
C47	C	1.237729	0.333359	0.232292
C48	C	1.571063	0.666692	0.565626
C49	C	1.547739	0.000059	-0.095814
C50	C	1.881072	0.333392	0.237519
C51	C	2.214405	0.666726	0.570852
C52	C	1.673725	0.000061	-0.097659
C53	C	2.007058	0.333394	0.235674
C54	C	2.340391	0.666727	0.569008
C55	C	1.340205	0.426126	-0.100109
C56	C	1.673538	0.759459	0.233225
C57	C	2.006872	1.092792	0.566558
C58	C	1.340219	0.573964	-0.100103
C59	C	1.673553	0.907297	0.233231
C60	C	2.006886	1.240630	0.566564
C61	C	1.331277	-0.000062	-0.227060
C62	C	1.664611	0.333271	0.106274
C63	C	1.997944	0.666604	0.439607
C64	C	1.333122	-0.000124	-0.304174
C65	C	1.666455	0.333209	0.029160
C66	C	1.999789	0.666542	0.362493
C67	C	1.230561	-0.000110	-0.348287
C68	C	1.563894	0.333224	-0.014954
C69	C	1.897227	0.666557	0.318379
C70	C	1.232294	-0.000080	-0.420744
C71	C	1.565627	0.333253	-0.087411
C72	C	1.898960	0.666587	0.245922
C73	C	1.336594	-0.000039	-0.449084
C74	C	1.669928	0.333295	-0.115751
C75	C	2.003261	0.666628	0.217582
C76	C	1.439169	-0.000061	-0.404961
C77	C	1.772502	0.333272	-0.071628
C78	C	2.105836	0.666606	0.261706
C79	C	1.437433	-0.000104	-0.332506
C80	C	1.770766	0.333230	0.000828
C81	C	2.104100	0.666563	0.334161
C82	C	1.418580	0.075924	-0.557801
C83	C	1.751913	0.409257	-0.224468
C84	C	2.085246	0.742591	0.108865
C85	C	1.420311	0.075975	-0.630256
C86	C	1.753645	0.409308	-0.296922
C87	C	2.086978	0.742642	0.036411
C88	C	1.341953	0.000087	-0.672560
C89	C	1.675286	0.333420	-0.339227
C90	C	2.008620	0.666754	-0.005894
C91	C	1.261843	-0.075835	-0.642403
C92	C	1.595177	0.257498	-0.309070
C93	C	1.928510	0.590832	0.024263
C94	C	1.260107	-0.075878	-0.569948
C95	C	1.593441	0.257456	-0.236615
C96	C	1.926774	0.590789	0.096719
C97	C	1.338488	0.000007	-0.527649
C98	C	1.671821	0.333340	-0.194316
C99	C	2.005155	0.666673	0.139017
C100	C	1.241264	0.000132	-0.795241
C101	C	1.574597	0.333465	-0.461907
C102	C	1.907930	0.666799	-0.128574
C103	C	1.243001	0.000154	-0.867699
C104	C	1.576334	0.333487	-0.534365
C105	C	1.909668	0.666820	-0.201032
C106	C	1.449880	0.000186	-0.851914
C107	C	1.783213	0.333519	-0.518580
C108	C	2.116546	0.666852	-0.185247
C109	C	1.448139	0.000151	-0.779457
C110	C	1.781472	0.333484	-0.446124
C111	C	2.114806	0.666818	-0.112791
C112	C	1.343828	0.000130	-0.751125
C113	C	1.677161	0.333464	-0.417792
C114	C	2.010495	0.666797	-0.084459
C115	C	1.349147	0.000139	0.026852
C116	C	1.682481	0.333473	0.360186
C117	C	2.015814	0.666806	0.693519
C118	C	1.347303	0.000192	0.103966
C119	C	1.680636	0.333526	0.437300
C120	C	2.013969	0.666859	0.770633
H121	H	1.145622	-0.000138	-0.325225
H122	H	1.478956	0.333195	0.008109
H123	H	1.812289	0.666529	0.341442
Cl124	Cl	1.520961	0.171497	-0.668165
Cl125	Cl	1.854294	0.504830	-0.334831
Cl126	Cl	2.187627	0.838164	-0.001498
H127	H	1.148773	-0.000065	-0.456669
H128	H	1.482107	0.333268	-0.123335
H129	H	1.815440	0.666602	0.209998
H130	H	1.524091	-0.000051	-0.428040
H131	H	1.857425	0.333282	-0.094707
H132	H	2.190758	0.666615	0.238627
Cl133	Cl	1.110133	0.000098	-0.759620
Cl134	Cl	1.443466	0.333432	-0.426287
Cl135	Cl	1.776800	0.666765	-0.092953
H136	H	1.194881	-0.137697	-0.545397
H137	H	1.528215	0.195636	-0.212064
H138	H	1.861548	0.528969	0.121269
H139	H	1.520954	-0.000117	-0.296588
H140	H	1.854287	0.333217	0.036746
H141	H	2.187620	0.666550	0.370079
H142	H	1.198030	-0.137622	-0.676847
H143	H	1.531363	0.195712	-0.343514
H144	H	1.864697	0.529045	-0.010181
H145	H	1.159480	0.000157	-0.903616
H146	H	1.492813	0.333490	-0.570283
H147	H	1.826146	0.666823	-0.236949
Cl148	Cl	1.581002	0.000224	-0.887534
Cl149	Cl	1.914335	0.333557	-0.554201
Cl150	Cl	2.247668	0.666890	-0.220867
H151	H	1.531656	0.000147	-0.743539
H152	H	1.864989	0.333481	-0.410205
H153	H	2.198323	0.666814	-0.076872
H154	H	1.482398	0.137719	-0.523361
H155	H	1.815732	0.471052	-0.190028
H156	H	2.149065	0.804386	0.143305
