data_functionalizedCrystal
_audit_creation_method	'MofGen! by Chris Wilmer'
_symmetry_space_group_name_H-M	'P1'
_symmetry_Int_Tables_number	1
_symmetry_cell_setting	triclinic
loop_
_symmetry_equiv_pos_as_xyz
  x,y,z
_cell_length_a	10.489741
_cell_length_b	13.930277
_cell_length_c	14.853567
_cell_angle_alpha	89.999243
_cell_angle_beta	84.087052
_cell_angle_gamma	89.995477
loop_
_atom_site_label
_atom_site_type_symbol
_atom_site_fract_x
_atom_site_fract_y
_atom_site_fract_z
O1	O	1.692631	-0.079763	0.127194
O2	O	1.321301	-0.079777	0.139134
O3	O	1.516885	-0.079772	0.001990
O4	O	1.497047	-0.079767	0.264338
O5	O	1.516858	0.079890	0.001987
O6	O	1.321274	0.079885	0.139131
O7	O	1.692604	0.079899	0.127191
Zn8	Zn	1.506935	0.105242	0.133160
Zn9	Zn	1.506971	-0.105119	0.133165
O10	O	1.497020	0.079895	0.264335
C11	C	1.273766	0.000052	0.138230
C12	C	1.132167	0.000047	0.135533
N13	N	1.506920	0.248808	0.133157
N14	N	1.506996	-0.248685	0.133161
C15	C	1.065006	0.000054	0.048272
C16	C	0.972430	-0.078665	0.089495
C17	C	0.972437	0.078749	0.089512
C18	C	1.041456	-0.078737	0.176791
C19	C	1.041473	0.078747	0.176797
C20	C	0.948923	0.000009	0.218083
C21	C	1.740139	0.000068	0.128095
C22	C	1.881738	0.000068	0.130793
C23	C	1.515973	0.000056	-0.031605
C24	C	1.513279	0.000047	-0.131704
C25	C	1.420363	0.701075	0.193868
C26	C	1.593614	0.701049	0.072455
C27	C	1.593598	0.600553	0.072452
C28	C	1.506965	0.550314	0.133159
C29	C	1.420348	0.600570	0.193869
C30	C	1.680223	0.550289	0.011749
C31	C	1.680213	0.449787	0.011744
C32	C	1.593572	0.399546	0.072448
C33	C	1.506950	0.449809	0.133159
C34	C	1.420317	0.399570	0.193866
C35	C	1.333688	0.449830	0.254574
C36	C	1.333707	0.550329	0.254572
C37	C	1.593553	0.299047	0.072450
C38	C	1.420302	0.299064	0.193867
C39	C	1.385712	0.000061	-0.544953
C40	C	1.618070	0.000070	-0.564931
C41	C	1.620602	0.000064	-0.470883
C42	C	1.505688	0.000058	-0.413866
C43	C	1.388241	0.000058	-0.450896
C44	C	1.738047	0.000074	-0.433846
C45	C	1.740585	0.000070	-0.339793
C46	C	1.625669	0.000057	-0.282773
C47	C	1.508217	0.000056	-0.319809
C48	C	1.393303	0.000050	-0.262791
C49	C	1.275850	0.000042	-0.299825
C50	C	1.273325	0.000046	-0.393877
C51	C	1.628193	0.000053	-0.188722
C52	C	1.395832	0.000047	-0.168735
C53	C	1.497933	0.000065	0.297930
C54	C	1.500626	0.000067	0.398029
H55	H	0.941842	-0.145219	0.052574
N56	N	1.259032	0.000062	-0.584885
H57	H	1.208691	-0.059126	-0.564147
H58	H	1.274962	0.000099	-0.653111
H59	H	1.349750	0.258166	0.243299
N60	N	1.861983	0.000098	-0.495339
H61	H	1.842556	0.000096	-0.560539
H62	H	1.913182	-0.059084	-0.483267
N63	N	1.773628	0.604475	-0.053742
H64	H	1.828497	0.557388	-0.092203
H65	H	1.830082	0.646179	-0.018854
H66	H	1.349827	0.742000	0.243293
N67	N	0.882368	-0.000037	0.313195
H68	H	0.948522	-0.000631	0.358019
H69	H	0.826420	-0.058947	0.322362
N70	N	1.081742	-0.166994	0.225662
H71	H	1.177782	-0.166472	0.227159
H72	H	1.055963	-0.226331	0.192920
N73	N	1.687059	0.755229	0.006988
H74	H	1.673929	0.826522	0.016202
H75	H	1.672215	0.737671	-0.057073
H76	H	1.836222	0.000075	-0.309648
N77	N	1.081995	0.166905	0.225688
H78	H	1.057162	0.226341	0.192676
H79	H	1.177935	0.165844	0.227673
N80	N	1.240256	0.395640	0.320055
H81	H	1.253402	0.324349	0.310842
H82	H	1.149758	0.413211	0.309013
N83	N	1.131862	-0.000040	-0.046755
H84	H	1.105712	0.058809	-0.080072
H85	H	1.106926	-0.059598	-0.079527
H86	H	1.302253	0.000039	-0.122316
N87	N	1.151901	0.000035	-0.238333
H88	H	1.100660	0.059219	-0.250336
H89	H	1.171428	0.000003	-0.173157
H90	H	1.723822	0.000066	-0.158573
N91	N	0.931929	0.166904	0.040591
H92	H	0.974591	0.166827	-0.023550
H93	H	0.958269	0.226314	0.072972
H94	H	1.750749	0.408871	-0.037688
N95	N	1.240278	0.604537	0.320044
H96	H	1.253440	0.675826	0.310834
H97	H	1.255116	0.586966	0.384104
H98	H	1.664091	0.258129	0.023027
H99	H	1.177701	0.000040	-0.424039
N100	N	1.742013	0.000072	-0.626417
H101	H	1.793236	0.059258	-0.614413
H102	H	1.722491	0.000039	-0.691594
