data_functionalizedCrystal
_audit_creation_method	'MofGen! by Chris Wilmer'
_symmetry_space_group_name_H-M	'P1'
_symmetry_Int_Tables_number	1
_symmetry_cell_setting	triclinic
loop_
_symmetry_equiv_pos_as_xyz
  x,y,z
_cell_length_a	27.780850
_cell_length_b	27.780901
_cell_length_c	27.780554
_cell_angle_alpha	59.998871
_cell_angle_beta	59.996940
_cell_angle_gamma	59.999979
loop_
_atom_site_label
_atom_site_type_symbol
_atom_site_fract_x
_atom_site_fract_y
_atom_site_fract_z
O1	O	0.330203	0.410271	0.014332
O2	O	0.260208	0.340275	-0.014243
O3	O	0.260202	0.340266	0.084330
O4	O	0.330208	0.410280	-0.084241
O5	O	0.340265	0.260208	0.084323
O6	O	0.340270	0.260218	-0.014249
O7	O	0.410266	0.330214	0.014325
Zn8	Zn	0.387979	0.282505	0.000037
Zn9	Zn	0.282494	0.387984	0.000045
O10	O	0.410271	0.330223	-0.084247
C11	C	0.207591	0.120433	-0.029857
C12	C	0.237293	0.056936	-0.025763
C13	C	0.236696	0.149669	-0.030267
C14	C	0.120427	0.207602	-0.029863
C15	C	0.056933	0.237307	-0.025778
C16	C	0.149664	0.236705	-0.030274
C17	C	0.207594	0.207601	-0.029865
C18	C	0.237299	0.237306	-0.025780
C19	C	0.149661	0.149669	-0.030266
C20	C	0.261297	0.261304	-0.022479
C21	C	0.261288	0.005637	-0.022455
C22	C	0.005635	0.261305	-0.022475
C23	C	0.291404	0.291411	-0.018338
C24	C	0.291391	-0.058720	-0.018306
C25	C	-0.058720	0.291412	-0.018333
O26	O	-0.080484	0.260216	-0.014237
O27	O	-0.249054	0.330214	0.014340
O28	O	-0.150489	0.330213	-0.084234
O29	O	-0.179049	0.260217	0.084337
O30	O	-0.150486	0.410275	-0.084241
O31	O	-0.249051	0.410276	0.014333
O32	O	-0.080481	0.340278	-0.014245
Zn33	Zn	-0.164765	0.387989	0.000043
Zn34	Zn	-0.164769	0.282503	0.000053
O35	O	-0.179046	0.340279	0.084329
O36	O	0.260182	-0.179040	0.084363
O37	O	0.330197	-0.150490	-0.084207
O38	O	0.330186	-0.249049	0.014367
O39	O	0.260194	-0.080482	-0.014211
O40	O	0.410247	-0.249050	0.014367
O41	O	0.410259	-0.150492	-0.084208
O42	O	0.340244	-0.179042	0.084362
Zn43	Zn	0.387963	-0.164767	0.000077
Zn44	Zn	0.282479	-0.164765	0.000079
O45	O	0.340255	-0.080483	-0.014212
C46	C	0.462865	0.550044	0.029978
C47	C	0.433159	0.613538	0.025896
C48	C	0.520797	0.520810	0.030384
C49	C	0.462869	0.462880	0.029969
C50	C	0.433168	0.433178	0.025877
C51	C	0.520801	0.433779	0.030375
C52	C	0.550034	0.462881	0.029971
C53	C	0.613530	0.433179	0.025881
C54	C	0.433764	0.520810	0.030382
C55	C	0.664829	0.409183	0.022576
C56	C	0.409160	0.664835	0.022596
C57	C	0.409172	0.409181	0.022570
C58	C	0.729185	0.379079	0.018430
C59	C	0.379052	0.729188	0.018458
C60	C	0.379068	0.379077	0.018423
C61	C	-0.134863	0.462875	-0.285153
C62	C	-0.138949	0.433175	-0.221656
C63	C	-0.134454	0.520806	-0.314394
C64	C	-0.134866	0.462869	-0.372315
C65	C	-0.138956	0.433162	-0.402013
C66	C	-0.134458	0.520800	-0.401424
C67	C	-0.134863	0.550039	-0.372326
C68	C	-0.138949	0.613534	-0.402035
C69	C	-0.134458	0.433769	-0.314383
C70	C	-0.142252	0.664832	-0.426037
C71	C	-0.142252	0.409180	-0.170357
C72	C	-0.142262	0.409162	-0.426006
C73	C	-0.146395	0.729188	-0.456149
C74	C	-0.146395	0.379078	-0.106000
C75	C	-0.146409	0.379052	-0.456106
O76	O	-0.150502	0.330189	-0.424905
O77	O	-0.179072	0.260172	-0.494883
O78	O	-0.080504	0.260180	-0.494900
O79	O	-0.249071	0.330181	-0.424887
O80	O	-0.080504	0.340235	-0.574968
O81	O	-0.179073	0.340227	-0.574951
O82	O	-0.150503	0.410244	-0.504973
Zn83	Zn	-0.164788	0.387946	-0.552675
Zn84	Zn	-0.164787	0.282470	-0.447181
O85	O	-0.249072	0.410236	-0.504956
O86	O	-0.179049	0.919511	-0.575030
O87	O	-0.150489	0.750946	-0.505013
O88	O	-0.249054	0.849510	-0.505012
O89	O	-0.080484	0.820948	-0.575031
O90	O	-0.249051	0.849517	-0.424957
O91	O	-0.150486	0.750954	-0.424958
O92	O	-0.179046	0.919519	-0.494975
Zn93	Zn	-0.164766	0.835238	-0.447256
Zn94	Zn	-0.164770	0.835227	-0.552732
O95	O	-0.080481	0.820956	-0.494976
C96	C	0.207582	0.120411	0.372408
C97	C	0.237286	0.056915	0.402109
C98	C	0.149649	0.149643	0.401515
C99	C	0.207584	0.207582	0.285243
C100	C	0.237291	0.237290	0.221746
C101	C	0.149651	0.236682	0.314482
C102	C	0.120414	0.207575	0.372414
C103	C	0.056917	0.237276	0.402121
C104	C	0.236687	0.149650	0.314476
C105	C	0.005617	0.261271	0.426121
C106	C	0.261283	0.005617	0.426104
C107	C	0.261290	0.261291	0.170447
C108	C	-0.058741	0.291373	0.456230
C109	C	0.291389	-0.058740	0.456208
C110	C	0.291398	0.291401	0.106090
C111	C	0.550061	0.462911	-0.372331
C112	C	0.613559	0.433210	-0.402038
C113	C	0.520826	0.520843	-0.401432
C114	C	0.462890	0.462905	-0.285160
C115	C	0.433184	0.433198	-0.221664
C116	C	0.433788	0.520837	-0.314394
C117	C	0.462893	0.550076	-0.372326
C118	C	0.433190	0.613572	-0.402028
C119	C	0.520823	0.433805	-0.314399
C120	C	0.409193	0.664870	-0.426023
C121	C	0.664858	0.409215	-0.426037
C122	C	0.409184	0.409197	-0.170364
C123	C	0.379088	0.729226	-0.456127
C124	C	0.729216	0.379112	-0.456146
C125	C	0.379075	0.379088	-0.106007
C126	C	-0.194637	0.207606	0.372402
C127	C	-0.190543	0.237311	0.402100
C128	C	-0.195042	0.149673	0.401509
C129	C	-0.194650	0.207605	0.285242
C130	C	-0.190571	0.237309	0.221748
C131	C	-0.195055	0.149672	0.314481
C132	C	-0.194640	0.120437	0.372411
C133	C	-0.190549	0.056941	0.402117
C134	C	-0.195052	0.236709	0.314473
C135	C	-0.187243	0.005642	0.426117
C136	C	-0.187235	0.261309	0.426093
C137	C	-0.187273	0.261307	0.170450
C138	C	-0.183097	-0.058715	0.456226
C139	C	-0.183085	0.291417	0.456193
C140	C	-0.183138	0.291413	0.106095
C141	C	0.462897	-0.134885	-0.372290
C142	C	0.433196	-0.138975	-0.401995
C143	C	0.520831	-0.134481	-0.401393
C144	C	0.462889	-0.134879	-0.285122
C145	C	0.433179	-0.138962	-0.221626
C146	C	0.520823	-0.134475	-0.314357
C147	C	0.550064	-0.134887	-0.372289
C148	C	0.613562	-0.138978	-0.401992
C149	C	0.433789	-0.134473	-0.314359
C150	C	0.664862	-0.142285	-0.425989
C151	C	0.409201	-0.142280	-0.425993
C152	C	0.409177	-0.142261	-0.170327
C153	C	0.729221	-0.146432	-0.456094
C154	C	0.379098	-0.146425	-0.456099
C155	C	0.379065	-0.146400	-0.105970
O156	O	0.330198	-0.249073	0.575064
O157	O	0.260193	-0.080506	0.505074
O158	O	0.260198	-0.179068	0.505063
O159	O	0.330193	-0.150511	0.575074
O160	O	0.340261	-0.179059	0.424998
O161	O	0.340256	-0.080498	0.425009
O162	O	0.410261	-0.249064	0.494998
Zn163	Zn	0.387970	-0.164780	0.447291
Zn164	Zn	0.282484	-0.164791	0.552781
O165	O	0.410256	-0.150503	0.495009
C166	C	0.120379	-0.194645	0.372445
C167	C	0.056881	-0.190554	0.402149
C168	C	0.149612	-0.195051	0.401549
C169	C	0.207553	-0.194653	0.285278
C170	C	0.237263	-0.190570	0.221782
C171	C	0.236654	-0.195059	0.314514
C172	C	0.207546	-0.194647	0.372446
C173	C	0.237248	-0.190557	0.402150
C174	C	0.149619	-0.195057	0.314514
C175	C	0.261243	-0.187252	0.426147
C176	C	0.005581	-0.187247	0.426146
C177	C	0.261265	-0.187271	0.170483
C178	C	0.291347	-0.183107	0.456253
C179	C	-0.058778	-0.183100	0.456252
C180	C	0.291376	-0.183132	0.106126
H181	H	0.126192	0.126196	-0.030923
C182	C	0.117942	0.300985	0.282774
N183	N	0.094058	0.349417	0.258893
H184	H	0.126131	-0.195694	0.449146
H185	H	-0.133805	0.386171	-0.290904
C186	C	0.300994	0.117945	0.282765
N187	N	0.349429	0.094067	0.258880
H188	H	-0.133797	0.544265	-0.449025
H189	H	-0.133794	0.544278	-0.290925
H190	H	0.126193	0.284306	-0.030936
C191	C	0.552546	-0.133599	-0.465698
N192	N	0.576433	-0.132936	-0.514130
H193	H	0.126178	0.126167	0.449115
C194	C	0.552511	0.552527	0.031250
N195	N	0.576402	0.576417	0.031893
C196	C	0.552511	0.369477	0.031256
N197	N	0.576395	0.321046	0.031922
H198	H	0.386188	0.544305	-0.290917
C199	C	0.300998	0.117959	-0.031150
N200	N	0.349429	0.094075	-0.031814
C201	C	0.369461	0.552518	0.031266
N202	N	0.321030	0.576400	0.031932
H203	H	0.544299	0.544312	-0.449036
H204	H	0.544296	0.386205	-0.290932
H205	H	-0.195710	0.126200	0.291009
H206	H	-0.195697	0.126206	0.449109
C207	C	-0.195942	0.301014	0.282761
N208	N	-0.196614	0.349448	0.258877
C209	C	0.552527	-0.133583	-0.282648
N210	N	0.576406	-0.132909	-0.258768
H211	H	0.386203	-0.133862	-0.290874
H212	H	0.284258	-0.195725	0.291043
C213	C	0.117911	-0.195941	0.282803
N214	N	0.094030	-0.196606	0.258919
