data_functionalizedCrystal
_audit_creation_method	'MofGen! by Chris Wilmer'
_symmetry_space_group_name_H-M	'P1'
_symmetry_Int_Tables_number	1
_symmetry_cell_setting	triclinic
loop_
_symmetry_equiv_pos_as_xyz
  x,y,z
_cell_length_a	23.096457
_cell_length_b	23.096457
_cell_length_c	23.096457
_cell_angle_alpha	60.008305
_cell_angle_beta	90.011236
_cell_angle_gamma	59.996769
loop_
_atom_site_label
_atom_site_type_symbol
_atom_site_fract_x
_atom_site_fract_y
_atom_site_fract_z
Zr1	Zr	0.557745	0.633739	-0.075982
O2	O	0.465270	0.754533	-0.168428
O3	O	0.586095	0.512948	-0.047644
O4	O	0.586064	0.633740	-0.168432
O5	O	0.465324	0.633739	0.047643
O6	O	0.681346	0.633738	-0.168434
O7	O	0.465301	0.633741	-0.047639
O8	O	0.681402	0.417663	0.047634
O9	O	0.465268	0.849814	-0.168426
O10	O	0.669292	0.562629	-0.035558
O11	O	0.598201	0.562629	0.035552
O12	O	0.598164	0.704846	-0.106661
O13	O	0.527073	0.704847	-0.035552
Zr14	Zr	0.709745	0.633733	0.075979
Zr15	Zr	0.709709	0.633736	-0.075985
Zr16	Zr	0.557781	0.633737	0.075982
Zr17	Zr	0.557741	0.785702	-0.075979
Zr18	Zr	0.709748	0.481770	0.075976
O19	O	0.681395	0.754524	0.047641
O20	O	0.681343	0.754528	-0.168432
O21	O	0.465321	0.754529	0.047645
O22	O	0.802220	0.512939	0.168425
O23	O	0.802169	0.512943	-0.047648
O24	O	0.586146	0.512944	0.168429
O25	O	0.802166	0.633733	-0.047646
O26	O	0.681426	0.633732	0.168429
O27	O	0.586144	0.633734	0.168431
O28	O	0.802189	0.633731	0.047636
O29	O	0.586059	0.849811	-0.168428
O30	O	0.681431	0.417661	0.168425
O31	O	0.802222	0.417658	0.168423
O32	O	0.802193	0.417660	0.047632
O33	O	0.465297	0.849812	-0.047635
O34	O	0.586088	0.849809	-0.047637
O35	O	0.669326	0.562626	0.106658
O36	O	0.740417	0.562626	0.035549
O37	O	0.669289	0.704843	-0.035555
O38	O	0.598198	0.704844	0.035555
C39	C	0.633749	0.443654	-0.000005
C40	C	0.633750	0.379142	-0.000006
C41	C	0.670855	-0.081376	-0.037108
C42	C	0.670853	-0.020756	-0.037115
C43	C	0.633745	0.009557	0.000004
C44	C	0.596622	-0.020741	0.037117
C45	C	0.596619	-0.081354	0.037117
N46	N	0.638913	0.071949	0.060409
N47	N	0.638919	0.129528	0.060408
C48	C	0.633751	0.192182	0.000006
N49	N	0.628589	0.195075	-0.060394
N50	N	0.628587	0.137489	-0.060392
C51	C	0.633744	0.075282	0.000008
C52	C	0.670866	0.288207	-0.037116
C53	C	0.670859	0.348832	-0.037124
C54	C	0.596633	0.348841	0.037114
C55	C	0.596635	0.288223	0.037116
C56	C	0.633755	0.257907	0.000002
C57	C	0.443661	0.633741	0.000003
C58	C	0.379148	0.633742	0.000004
C59	C	0.348833	0.633749	-0.052491
C60	C	0.288220	0.633742	-0.052491
C61	C	0.257917	0.633744	-0.000001
C62	C	0.288242	0.633732	0.052503
C63	C	0.348858	0.633732	0.052506
N64	N	0.139568	0.680100	0.015891
N65	N	0.081985	0.680103	0.015884
C66	C	0.075288	0.633744	-0.000005
N67	N	0.128344	0.587394	-0.015900
N68	N	0.185930	0.587395	-0.015897
C69	C	0.192191	0.633744	0.000002
C70	C	-0.020749	0.633742	-0.052503
C71	C	-0.081360	0.633729	-0.052498
C72	C	-0.081341	0.633728	0.052494
C73	C	-0.020727	0.633733	0.052491
C74	C	0.009563	0.633743	-0.000010
C75	C	0.823829	0.633732	-0.000006
C76	C	0.888342	0.633730	-0.000007
C77	C	0.633700	0.633739	-0.190085
C78	C	0.633684	0.633740	-0.254598
C79	C	0.633741	0.823818	0.000002
C80	C	0.633740	0.888330	0.000003
C81	C	0.596560	0.707974	-0.322017
C82	C	0.596578	0.707976	-0.382633
C83	C	0.633711	0.633739	-0.375826
C84	C	0.670844	0.559495	-0.308395
C85	C	0.670830	0.559496	-0.247781
N86	N	0.628590	0.578481	-0.443383
N87	N	0.628599	0.578485	-0.500966
C88	C	0.633754	0.633731	-0.558452
N89	N	0.638888	0.688986	-0.556184
N90	N	0.638875	0.688984	-0.498597
C91	C	0.633730	0.633729	-0.441548
C92	C	0.596648	0.707972	-0.691601
C93	C	0.596671	0.707970	-0.752217
C94	C	0.670932	0.559487	-0.677977
C95	C	0.670914	0.559491	-0.617363
C96	C	0.633768	0.633736	-0.624179
C97	C	0.633790	0.633733	0.190082
C98	C	0.633805	0.633732	0.254595
C99	C	0.823833	0.443650	-0.000009
C100	C	0.888347	0.379136	-0.000012
C101	C	0.633794	0.443651	0.190078
C102	C	0.633811	0.379138	0.254590
C103	C	0.823878	0.443646	0.190074
C104	C	0.888408	0.379132	0.254584
C105	C	0.443612	0.823826	-0.190077
C106	C	0.379082	0.888341	-0.254587
C107	C	0.443657	0.823823	0.000006
C108	C	0.379143	0.888336	0.000009
C109	C	0.633696	0.823821	-0.190081
C110	C	0.633679	0.888335	-0.254593
C111	C	0.881517	0.348841	-0.037136
C112	C	0.942129	0.288232	-0.037153
C113	C	1.009571	0.257915	-0.000040
C114	C	1.016399	0.288216	0.037085
C115	C	0.955788	0.348828	0.037097
C116	C	0.670945	0.348840	0.322008
C117	C	0.670958	0.288232	0.382629
C118	C	0.633840	0.257918	0.375831
C119	C	0.596701	0.288221	0.308405
C120	C	0.596685	0.348833	0.247785
C121	C	0.955827	0.348835	0.247761
C122	C	1.016465	0.288225	0.308369
C123	C	1.009682	0.257909	0.375800
C124	C	0.942256	0.288212	0.382623
C125	C	0.881620	0.348825	0.322015
C126	C	0.311663	0.918645	-0.247764
C127	C	0.251025	0.979274	-0.308372
C128	C	0.257807	1.009593	-0.375803
C129	C	0.325233	0.979286	-0.382626
C130	C	0.385870	0.918663	-0.322018
C131	C	0.385973	0.918638	0.037127
C132	C	0.325360	0.979263	0.037127
C133	C	0.257919	1.009583	0.000012
C134	C	0.251090	0.979279	-0.037110
C135	C	0.311702	0.918659	-0.037114
C136	C	0.670804	0.918629	-0.247771
C137	C	0.670802	0.979238	-0.308381
C138	C	0.633671	1.009556	-0.375811
C139	C	0.596545	0.979255	-0.382631
C140	C	0.596551	0.918643	-0.322023
H141	H	0.701079	-0.106056	-0.067330
Cl142	Cl	1.085762	0.181714	-0.000061
H143	H	1.071318	0.263522	0.067300
H144	H	0.701078	0.003913	-0.067336
Cl145	Cl	0.549999	0.801301	-0.836977
Cl146	Cl	0.549969	0.801305	-0.700166
H147	H	0.306127	0.893963	-0.192863
H148	H	0.263568	0.633732	0.095242
H149	H	0.440881	0.893956	0.067354
Cl150	Cl	0.550044	0.250101	0.299870
H151	H	0.566314	1.003949	-0.437541
H152	H	0.566448	0.373493	0.192893
Cl153	Cl	0.549977	0.250133	0.083778
Cl154	Cl	0.796741	0.386945	-0.083801
H155	H	0.826726	0.373485	0.327581
H156	H	0.701171	0.373515	0.327558
Cl157	Cl	0.717654	0.250145	0.467384
H158	H	0.330747	1.003980	-0.437535
Cl159	Cl	0.166270	1.017358	-0.299779
Cl160	Cl	0.633870	0.181718	0.452046
H161	H	0.701167	0.499042	-0.672433
Cl162	Cl	0.717572	0.466163	-0.532602
H163	H	0.208427	1.058957	-0.425148
H164	H	0.961363	0.373509	0.192860
Cl165	Cl	0.386970	0.633724	0.118504
Cl166	Cl	0.717528	0.466168	-0.299837
Cl167	Cl	0.017334	0.633749	-0.118501
Cl168	Cl	1.085919	0.181707	0.451987
Cl169	Cl	0.549847	0.801310	-0.330589
Cl170	Cl	0.017384	0.633730	0.118485
H171	H	1.071361	0.263558	0.302801
H172	H	0.440764	0.893989	-0.327583
H173	H	0.306131	0.893989	-0.067338
Cl174	Cl	0.964387	0.386900	0.083779
Cl175	Cl	-0.119470	0.633731	-0.118494
H176	H	0.701062	0.499044	-0.192883
Cl177	Cl	0.333961	1.017343	0.083802
Cl178	Cl	0.549969	0.017369	0.083777
Cl179	Cl	0.933742	0.250090	0.467399
H180	H	0.208571	1.058944	0.000021
Cl181	Cl	0.933528	0.250149	-0.083825
Cl182	Cl	0.166301	1.017400	-0.083762
H183	H	0.701041	0.893955	-0.192872
Cl184	Cl	0.717474	1.017323	-0.299791
Cl185	Cl	0.549867	0.880573	-0.330611
Cl186	Cl	0.549956	-0.119440	0.083776
Cl187	Cl	0.717535	0.250089	-0.083767
Cl188	Cl	0.633667	1.085757	-0.451999
H189	H	0.701080	0.373501	-0.067349
H190	H	0.566415	0.373525	0.067333
H191	H	0.373495	0.633755	-0.095240
Cl192	Cl	0.250103	0.633751	-0.118491
Cl193	Cl	-0.119427	0.633722	0.118485
H194	H	0.566345	0.768428	-0.437536
