data_functionalizedCrystal
_audit_creation_method	'MofGen! by Chris Wilmer'
_symmetry_space_group_name_H-M	'P1'
_symmetry_Int_Tables_number	1
_symmetry_cell_setting	triclinic
loop_
_symmetry_equiv_pos_as_xyz
  x,y,z
_cell_length_a	25.639239
_cell_length_b	18.215407
_cell_length_c	18.215399
_cell_angle_alpha	89.979405
_cell_angle_beta	90.030035
_cell_angle_gamma	89.961393
loop_
_atom_site_label
_atom_site_type_symbol
_atom_site_fract_x
_atom_site_fract_y
_atom_site_fract_z
Zn1	Zn	-0.208157	-1.125001	0.416120
Zn2	Zn	-0.295593	-1.124880	0.293049
Zn3	Zn	-0.208174	-1.001934	0.293066
Zn4	Zn	-0.295563	-1.001870	0.416073
O5	O	-0.251872	-1.063421	0.354577
O6	O	-0.219762	-1.227970	0.399808
O7	O	-0.284016	-1.108547	0.190067
O8	O	-0.135006	-1.018337	0.309416
O9	O	-0.284000	-1.227880	0.309388
O10	O	-0.134994	-1.108754	0.399824
O11	O	-0.219789	-1.018219	0.190079
O12	O	-0.219760	-0.898941	0.309370
O13	O	-0.283949	-1.018228	0.519063
O14	O	-0.283965	-0.898894	0.399743
O15	O	-0.219733	-1.108692	0.519098
O16	O	-0.368755	-1.108485	0.309342
O17	O	-0.368733	-1.018110	0.399727
C18	C	-0.251862	-0.872215	0.354553
C19	C	-0.251870	-0.790416	0.354561
C20	C	-0.285353	-0.602217	0.401556
C21	C	-0.285354	-0.525358	0.401564
C22	C	-0.218394	-0.525378	0.307601
C23	C	-0.218391	-0.602235	0.307597
C24	C	-0.251873	-0.640653	0.354573
C25	C	-0.251877	-0.486937	0.354585
C26	C	-0.251878	-0.403603	0.354594
C27	C	-0.251871	-0.723992	0.354566
C28	C	-0.387714	-1.063298	0.354543
C29	C	-0.445828	-1.063312	0.354553
C30	C	-0.806190	-1.110602	0.307594
C31	C	-0.860795	-1.110631	0.307604
O32	O	-0.889030	-1.150711	0.267640
N33	N	-0.888111	-1.063551	0.354626
C34	C	-0.860820	-1.016444	0.401646
O35	O	-0.889069	-0.976402	0.441644
C36	C	-0.806217	-1.016420	0.401640
C37	C	-0.778903	-1.063498	0.354609
C38	C	-0.778877	-1.157677	0.260568
C39	C	-0.724276	-1.157647	0.260557
C40	C	-0.696989	-1.110543	0.307573
C41	C	-0.724303	-1.063468	0.354599
C42	C	-0.778927	-0.969318	0.448663
C43	C	-0.724320	-0.969298	0.448653
C44	C	-0.697006	-1.016376	0.401623
C45	C	-0.642415	-1.016334	0.401603
N46	N	-0.615099	-1.063414	0.354581
C47	C	-0.642386	-1.110519	0.307566
C48	C	-0.975491	-1.016500	0.401658
C49	C	-1.030093	-1.016520	0.401661
C50	C	-1.030064	-1.110708	0.307619
C51	C	-0.975461	-1.110683	0.307613
C52	C	-0.948174	-1.063580	0.354636
C53	C	-0.527721	-1.110452	0.307547
C54	C	-0.473116	-1.110416	0.307538
C55	C	-0.473149	-1.016232	0.401582
C56	C	-0.527750	-1.016265	0.401589
C57	C	-0.555034	-1.063381	0.354568
O58	O	-0.614145	-0.976277	0.441549
O59	O	-0.614131	-1.150561	0.267582
C60	C	-0.115499	-1.063566	0.354627
C61	C	-0.057385	-1.063627	0.354648
C62	C	-0.251836	-1.063466	0.546530
C63	C	-0.251820	-1.063485	0.628329
C64	C	-0.251881	-0.255374	0.354598
C65	C	-0.251880	-0.337173	0.354598
C66	C	-0.251870	-1.063419	0.163371
C67	C	-0.251738	-1.063543	0.081572
C68	C	-0.218351	-1.110607	0.816542
C69	C	-0.218336	-1.110616	0.893401
C70	C	-0.285209	-1.016416	0.893354
C71	C	-0.285221	-1.016404	0.816496
C72	C	-0.251793	-1.063504	0.778093
C73	C	-0.251766	-1.063524	0.931809
C74	C	-0.251749	-1.063534	1.015142
C75	C	-0.251808	-1.063494	0.694754
H76	H	-0.191124	-0.633530	0.269338
H77	H	-1.052291	-1.149065	0.269339
C78	C	-0.181578	-1.162409	0.774297
C79	C	-0.140539	-1.130552	0.721469
C80	C	-0.103763	-1.182354	0.679226
C81	C	-0.108027	-1.266013	0.689811
C82	C	-0.149068	-1.297875	0.742642
C83	C	-0.185844	-1.246073	0.784885
H84	H	-0.137381	-1.068619	0.713631
H85	H	-0.073382	-1.158768	0.640117
H86	H	-0.080804	-1.304360	0.658540
H87	H	-0.152226	-1.359808	0.750480
H88	H	-0.216225	-1.269659	0.823993
C89	C	-0.181551	-1.162433	0.935695
C90	C	-0.204199	-1.220194	0.988538
C91	C	-0.167412	-1.272013	1.030831
C92	C	-0.107976	-1.266071	1.020282
C93	C	-0.085325	-1.208307	0.967436
C94	C	-0.122112	-1.156488	0.925143
H95	H	-0.248200	-1.224595	0.996350
H96	H	-0.184180	-1.314773	1.069951
H97	H	-0.080744	-1.304430	1.051590
H98	H	-0.041324	-1.203907	0.959625
H99	H	-0.105344	-1.113728	0.886023
H100	H	-0.450879	-1.148753	0.269238
H101	H	-0.191135	-0.494089	0.269353
C102	C	-0.322007	-0.964581	0.774199
C103	C	-0.299352	-0.906817	0.721365
C104	C	-0.336133	-0.854992	0.679069
C105	C	-0.395570	-0.860932	0.689606
C106	C	-0.418229	-0.918698	0.742442
C107	C	-0.381447	-0.970523	0.784738
H108	H	-0.255350	-0.902419	0.713563
H109	H	-0.319359	-0.812230	0.639956
H110	H	-0.422798	-0.822568	0.658296
H111	H	-0.462230	-0.923097	0.750244
H112	H	-0.398221	-1.013286	0.823851
H113	H	-1.052327	-0.978177	0.439951
H114	H	-0.801088	-1.196039	0.222282
C115	C	-0.694234	-1.209437	0.208828
C116	C	-0.656640	-1.267182	0.240763
C117	C	-0.626601	-1.318975	0.189032
C118	C	-0.634156	-1.313024	0.105366
C119	C	-0.671751	-1.255278	0.073427
C120	C	-0.701790	-1.203484	0.125158
H121	H	-0.651047	-1.271589	0.302701
H122	H	-0.598771	-1.361723	0.212676
H123	H	-0.611919	-1.351365	0.067072
H124	H	-0.677345	-1.250871	0.011489
H125	H	-0.729621	-1.160737	0.101514
H126	H	-0.312615	-0.633495	0.439809
C127	C	-0.321982	-0.964614	0.935599
C128	C	-0.321973	-0.964627	1.020139
C129	C	-0.358748	-0.912826	1.062383
C130	C	-0.395533	-0.861012	1.020087
C131	C	-0.395543	-0.860996	0.935542
C132	C	-0.358768	-0.912798	0.893298
H133	H	-0.294742	-1.002985	1.051454
H134	H	-0.358741	-0.912838	1.124969
H135	H	-0.422756	-0.822665	1.051359
H136	H	-0.422775	-0.822638	0.904228
H137	H	-0.358776	-0.912786	0.830713
H138	H	-0.312616	-0.494068	0.439823
H139	H	-0.549929	-1.148821	0.269260
H140	H	-0.953225	-1.149019	0.269317
H141	H	-0.702106	-0.930941	0.486947
C142	C	-0.945479	-0.964673	0.453379
C143	C	-0.953055	-0.881020	0.447289
C144	C	-0.923046	-0.829194	0.499010
C145	C	-0.885462	-0.861022	0.556822
C146	C	-0.877884	-0.944680	0.562914
C147	C	-0.907893	-0.996505	0.511193
H148	H	-0.980878	-0.857455	0.404491
H149	H	-0.928656	-0.767265	0.494500
H150	H	-0.863248	-0.822658	0.595109
H151	H	-0.850060	-0.968245	0.605712
H152	H	-0.902283	-1.058434	0.515703
C153	C	-0.557801	-0.964477	0.453316
C154	C	-0.550364	-0.880814	0.447234
C155	C	-0.580411	-0.829033	0.498967
C156	C	-0.617895	-0.860915	0.556783
C157	C	-0.625334	-0.944583	0.562868
C158	C	-0.595287	-0.996364	0.511134
H159	H	-0.522614	-0.857209	0.404433
H160	H	-0.574904	-0.767096	0.494463
H161	H	-0.640138	-0.822583	0.595080
H162	H	-0.653083	-0.968187	0.605669
H163	H	-0.600793	-1.058300	0.515639
C164	C	-0.443125	-0.964421	0.453299
C165	C	-0.405639	-0.906649	0.421350
C166	C	-0.375612	-0.854843	0.473071
C167	C	-0.383073	-0.860810	0.556740
C168	C	-0.420561	-0.918585	0.588693
C169	C	-0.450587	-0.970391	0.536972
H170	H	-0.400115	-0.902229	0.359409
H171	H	-0.347861	-0.812074	0.449417
H172	H	-0.360845	-0.822461	0.595027
H173	H	-0.426085	-0.923005	0.650633
H174	H	-0.478338	-1.013160	0.560626
H175	H	-0.801156	-0.930978	0.486957
