data_functionalizedCrystal
_audit_creation_method	'MofGen! by Chris Wilmer'
_symmetry_space_group_name_H-M	'P1'
_symmetry_Int_Tables_number	1
_symmetry_cell_setting	triclinic
loop_
_symmetry_equiv_pos_as_xyz
  x,y,z
_cell_length_a	12.827893
_cell_length_b	12.645330
_cell_length_c	12.827885
_cell_angle_alpha	89.970240
_cell_angle_beta	89.980728
_cell_angle_gamma	90.012546
loop_
_atom_site_label
_atom_site_type_symbol
_atom_site_fract_x
_atom_site_fract_y
_atom_site_fract_z
Zn1	Zn	1.597691	-0.421983	-0.590849
Zn2	Zn	1.597595	-0.599284	-0.416109
Zn3	Zn	1.422933	-0.422036	-0.416123
Zn4	Zn	1.422927	-0.599206	-0.590809
O5	O	1.510287	-0.510627	-0.503472
O6	O	1.743915	-0.445514	-0.567680
O7	O	1.574387	-0.575826	-0.269875
O8	O	1.446158	-0.273681	-0.439322
O9	O	1.743844	-0.575776	-0.439300
O10	O	1.574552	-0.273643	-0.567693
O11	O	1.446064	-0.445603	-0.269885
O12	O	1.276696	-0.445527	-0.439284
O13	O	1.446148	-0.575642	-0.737051
O14	O	1.276692	-0.575693	-0.567626
O15	O	1.574547	-0.445438	-0.737080
O16	O	1.574382	-0.747621	-0.439261
O17	O	1.446054	-0.747563	-0.567613
C18	C	1.238777	-0.510608	-0.503453
C19	C	1.122624	-0.510625	-0.503469
C20	C	1.070874	-0.446281	-0.567095
C21	C	0.950823	-0.446298	-0.567113
C22	C	1.510235	-0.786057	-0.503454
C23	C	1.510309	-0.903887	-0.503481
C24	C	1.591132	-0.948761	-0.422805
C25	C	1.590947	-1.071321	-0.422517
C26	C	1.400183	-1.071896	-0.473892
C27	C	1.400598	-0.949298	-0.473277
C28	C	1.538759	-0.948959	-0.614010
C29	C	1.541242	-1.071564	-0.613450
C30	C	1.782857	-0.510648	-0.503493
C31	C	1.899010	-0.510656	-0.503502
C32	C	1.510358	-0.510525	-0.776043
C33	C	1.510388	-0.510482	-0.892196
C34	C	1.510366	-0.234122	-0.503514
C35	C	1.510400	-0.116292	-0.503531
C36	C	1.573931	-0.446040	-0.943995
C37	C	1.573963	-0.445994	-1.064046
C38	C	1.510276	-0.510652	-0.231963
C39	C	1.510448	-0.510397	-0.115810
H40	H	0.943507	-0.565752	-0.449032
C41	C	0.890716	-0.371879	-0.640709
H42	H	0.938797	-0.331505	-0.680620
H43	H	0.848117	-0.325686	-0.600784
H44	H	0.848161	-0.412541	-0.686145
H45	H	1.078052	-0.565721	-0.449008
C46	C	1.647387	-0.371543	-0.883854
H47	H	1.687250	-0.331100	-0.931920
H48	H	1.692858	-0.412146	-0.841267
H49	H	1.607361	-0.325403	-0.841286
C50	C	1.467579	-1.112892	-0.698994
H51	H	1.416820	-1.158163	-0.668657
H52	H	1.506671	-1.151113	-0.749340
H53	H	1.433777	-1.054888	-0.731748
H54	H	1.456048	-0.565575	-1.071271
C55	C	1.436924	-0.584971	-0.952337
H56	H	1.397048	-0.625402	-0.904271
H57	H	1.476933	-0.631107	-0.994915
H58	H	1.391448	-0.544352	-0.994914
H59	H	1.672665	-1.101334	-0.441030
C60	C	1.645452	-0.907097	-0.650495
H61	H	1.673647	-0.861735	-0.598653
H62	H	1.637096	-0.868862	-0.713703
H63	H	1.691448	-0.964874	-0.661610
C64	C	1.367135	-1.113478	-0.365972
H65	H	1.420349	-1.157881	-0.338834
H66	H	1.304284	-1.152673	-0.372378
H67	H	1.356407	-1.055522	-0.320116
C68	C	1.131076	-0.371846	-0.640668
H69	H	1.203866	-0.381605	-0.631009
H70	H	1.113239	-0.300586	-0.625517
H71	H	1.113274	-0.387441	-0.710878
C72	C	1.701836	-0.908827	-0.447496
H73	H	1.699761	-0.864425	-0.507223
H74	H	1.746196	-0.967440	-0.460764
H75	H	1.727843	-0.869952	-0.389731
H76	H	1.572511	-0.918030	-0.341375
H77	H	1.572119	-1.100733	-0.340635
C78	C	1.647461	-0.371459	-1.124210
H79	H	1.687311	-0.331066	-1.076160
H80	H	1.607476	-0.325290	-1.166797
H81	H	1.692960	-0.412047	-1.166782
C82	C	1.368085	-0.910774	-0.364147
H83	H	1.368046	-0.835657	-0.362811
H84	H	1.415987	-0.936734	-0.313815
H85	H	1.300148	-0.936154	-0.348497
C86	C	1.316465	-0.909195	-0.549227
H87	H	1.282177	-0.967832	-0.580312
H88	H	1.348195	-0.867389	-0.601976
H89	H	1.267102	-0.867636	-0.512235
H90	H	1.338348	-1.101028	-0.530861
C91	C	1.650607	-1.111161	-0.643874
H92	H	1.677389	-1.154730	-0.589801
H93	H	1.695682	-1.052450	-0.654094
H94	H	1.646153	-1.150878	-0.706557
H95	H	1.479899	-0.919932	-0.674118
