data_functionalizedCrystal
_audit_creation_method	'MofGen! by Chris Wilmer'
_symmetry_space_group_name_H-M	'P1'
_symmetry_Int_Tables_number	1
_symmetry_cell_setting	triclinic
loop_
_symmetry_equiv_pos_as_xyz
  x,y,z
_cell_length_a	17.699083
_cell_length_b	9.130313
_cell_length_c	17.699083
_cell_angle_alpha	89.997869
_cell_angle_beta	96.716985
_cell_angle_gamma	89.994200
loop_
_atom_site_label
_atom_site_type_symbol
_atom_site_fract_x
_atom_site_fract_y
_atom_site_fract_z
O1	O	1.004072	0.121597	-0.095708
O2	O	0.783693	0.121645	-0.108160
O3	O	0.900109	0.121607	0.008255
O4	O	0.887656	0.121635	-0.212123
O5	O	0.900107	-0.121992	0.008252
O6	O	0.783692	-0.121954	-0.108163
O7	O	1.004070	-0.122002	-0.095711
Cu8	Cu	0.893881	-0.144220	-0.101937
Cu9	Cu	0.893882	0.143864	-0.101934
O10	O	0.887655	-0.121963	-0.212126
C11	C	0.755495	-0.000148	-0.107716
C12	C	0.671477	-0.000130	-0.106377
N13	N	0.893885	-0.346843	-0.101940
C14	C	0.622856	-0.000122	-0.174710
C15	C	0.543913	-0.000141	-0.173448
C16	C	0.513592	-0.000158	-0.103852
C17	C	0.562219	-0.000171	-0.035513
C18	C	0.641161	-0.000162	-0.036776
C19	C	0.243856	-0.000207	-0.030418
C20	C	0.164908	-0.000212	-0.029160
C21	C	0.146608	-0.000186	-0.167090
C22	C	0.225550	-0.000178	-0.168353
C23	C	0.274170	-0.000198	-0.100015
C24	C	0.359769	-0.000180	-0.101384
C25	C	0.427995	-0.000165	-0.102481
C26	C	0.945447	-0.423512	-0.050408
C27	C	0.945445	-0.576849	-0.050399
C28	C	0.842317	-0.576834	-0.153460
C29	C	0.842316	-0.423500	-0.153464
C30	C	0.997016	-0.346855	0.001117
C31	C	1.048583	-0.423524	0.052652
C32	C	1.048581	-0.576861	0.052661
C33	C	0.997012	-0.653528	0.001135
C34	C	1.032268	-0.000205	-0.096156
C35	C	1.116286	-0.000214	-0.097494
C36	C	0.899662	-0.000193	0.036451
C37	C	0.898323	-0.000193	0.120469
N38	N	0.893884	0.346486	-0.101926
C39	C	0.888102	-0.000161	-0.240322
C40	C	0.889440	-0.000151	-0.324340
C41	C	0.966656	-0.000210	0.169090
C42	C	0.965394	-0.000197	0.248033
C43	C	0.895798	-0.000177	0.278354
C44	C	0.827459	-0.000156	0.229727
C45	C	0.828722	-0.000158	0.150785
C46	C	0.822364	-0.000143	0.548090
C47	C	0.821106	-0.000144	0.627038
C48	C	0.959036	-0.000181	0.645338
C49	C	0.960299	-0.000184	0.566396
C50	C	0.891961	-0.000155	0.517776
C51	C	0.893330	-0.000166	0.432177
C52	C	0.894427	-0.000176	0.363951
H53	H	0.647537	-0.000107	-0.231384
Cl54	Cl	0.304969	-0.000232	0.055494
Cl55	Cl	1.051303	-0.000223	0.309154
Cl56	Cl	1.113401	-0.327146	0.117430
Cl57	Cl	0.742813	-0.000131	0.089661
Cl58	Cl	0.777491	-0.327114	-0.218247
Cl59	Cl	0.733606	-0.000116	0.665153
Cl60	Cl	0.126793	-0.000234	0.058340
Cl61	Cl	0.482792	-0.000121	-0.259357
H62	H	0.766718	-0.000119	0.508512
Cl63	Cl	0.263663	-0.000148	-0.255849
H64	H	0.680748	-0.000168	0.018868
H65	H	0.537526	-0.000205	0.021154
H66	H	1.016971	-0.000207	0.541714
H67	H	0.107012	-0.000177	-0.222734
Cl68	Cl	1.113399	-0.673243	0.117451
Cl69	Cl	0.777495	-0.673216	-0.218233
Cl70	Cl	0.997024	-0.154089	0.001105
Cl71	Cl	0.997007	-0.846297	0.001156
Cl72	Cl	1.044948	-0.000212	0.706465
Cl73	Cl	1.054154	-0.000250	0.130980
Cl74	Cl	0.739966	-0.000113	0.267844
