data_functionalizedCrystal
_audit_creation_method	'MofGen! by Chris Wilmer'
_symmetry_space_group_name_H-M	'P1'
_symmetry_Int_Tables_number	1
_symmetry_cell_setting	triclinic
loop_
_symmetry_equiv_pos_as_xyz
  x,y,z
_cell_length_a	19.805407
_cell_length_b	19.805405
_cell_length_c	19.805399
_cell_angle_alpha	89.973385
_cell_angle_beta	89.979591
_cell_angle_gamma	90.028666
loop_
_atom_site_label
_atom_site_type_symbol
_atom_site_fract_x
_atom_site_fract_y
_atom_site_fract_z
Zn1	Zn	1.034734	-0.269444	-0.382739
Zn2	Zn	1.534734	0.230556	0.117261
Zn3	Zn	1.034648	-0.382632	-0.269553
Zn4	Zn	1.534648	0.117368	0.230447
Zn5	Zn	0.921549	-0.269466	-0.269562
Zn6	Zn	1.421549	0.230534	0.230438
Zn7	Zn	0.921512	-0.382600	-0.382698
Zn8	Zn	1.421512	0.117400	0.117302
O9	O	0.978111	-0.326036	-0.326138
O10	O	1.478111	0.173964	0.173862
O11	O	1.129439	-0.284463	-0.367738
O12	O	1.629439	0.215537	0.132262
O13	O	1.019625	-0.367643	-0.174838
O14	O	1.519625	0.132357	0.325162
O15	O	0.936615	-0.174747	-0.284597
O16	O	1.436615	0.325253	0.215403
O17	O	1.129376	-0.367622	-0.284581
O18	O	1.629376	0.132378	0.215419
O19	O	1.019771	-0.174730	-0.367747
O20	O	1.519771	0.325270	0.132253
O21	O	0.936531	-0.284501	-0.174844
O22	O	1.436531	0.215499	0.325156
O23	O	0.826827	-0.284470	-0.284557
O24	O	1.326827	0.215530	0.215443
O25	O	0.936551	-0.367567	-0.477420
O26	O	1.436551	0.132433	0.022580
O27	O	0.826800	-0.367589	-0.367677
O28	O	1.326800	0.132411	0.132323
O29	O	1.019735	-0.284431	-0.477450
O30	O	1.519735	0.215569	0.022550
O31	O	1.019589	-0.477345	-0.284541
O32	O	1.519589	0.022655	0.215459
O33	O	0.936468	-0.477321	-0.367668
O34	O	1.436468	0.022679	0.132332
C35	C	0.802255	-0.326029	-0.326114
C36	C	1.302255	0.173971	0.173886
C37	C	0.727023	-0.326042	-0.326119
C38	C	1.227023	0.173958	0.173881
C39	C	0.265268	-0.282816	-0.369531
C40	C	0.765268	0.217184	0.130469
C41	C	0.335957	-0.282817	-0.369526
C42	C	0.835957	0.217183	0.130474
C43	C	0.371261	-0.326046	-0.326160
C44	C	0.871261	0.173954	0.173840
C45	C	0.335874	-0.369281	-0.282801
C46	C	0.835874	0.130719	0.217199
C47	C	0.265186	-0.369283	-0.282810
C48	C	0.765186	0.130717	0.217190
C49	C	0.620947	-0.369276	-0.282765
C50	C	1.120947	0.130724	0.217235
C51	C	0.691639	-0.369270	-0.282758
C52	C	1.191639	0.130730	0.217242
C53	C	0.691717	-0.282810	-0.369481
C54	C	1.191717	0.217190	0.130519
C55	C	0.621030	-0.282812	-0.369490
C56	C	1.121030	0.217188	0.130510
C57	C	0.585648	-0.326049	-0.326134
C58	C	1.085648	0.173951	0.173866
C59	C	0.509000	-0.326048	-0.326141
C60	C	1.009000	0.173952	0.173859
C61	C	0.447908	-0.326044	-0.326149
C62	C	0.947908	0.173956	0.173851
C63	C	0.978034	-0.501892	-0.326114
C64	C	1.478034	-0.001892	0.173886
C65	C	0.978063	-0.577124	-0.326126
C66	C	1.478063	-0.077124	0.173874
C67	C	1.021337	-0.612401	-0.369456
C68	C	1.521337	-0.112401	0.130544
C69	C	1.021361	-0.683089	-0.369469
C70	C	1.521361	-0.183089	0.130531
C71	C	0.978114	-0.718499	-0.326147
C72	C	1.478114	-0.218499	0.173853
C73	C	0.934835	-0.683217	-0.282815
C74	C	1.434835	-0.183217	0.217185
C75	C	0.934808	-0.612530	-0.282806
C76	C	1.434808	-0.112530	0.217194
C77	C	0.934944	-0.968290	-0.282849
C78	C	1.434944	-0.468290	0.217151
C79	C	0.934976	-1.038982	-0.282860
C80	C	1.434976	-0.538982	0.217140
C81	C	1.021497	-1.038850	-0.369512
C82	C	1.521497	-0.538850	0.130488
C83	C	1.021470	-0.968163	-0.369504
C84	C	1.521470	-0.468163	0.130496
C85	C	0.978189	-0.932887	-0.326174
C86	C	1.478189	-0.432887	0.173826
C87	C	0.978162	-0.856238	-0.326162
C88	C	1.478162	-0.356238	0.173838
C89	C	0.978144	-0.795146	-0.326155
C90	C	1.478144	-0.295146	0.173845
C91	C	1.154654	-0.326043	-0.326163
C92	C	1.654654	0.173957	0.173837
C93	C	1.229885	-0.326046	-0.326174
C94	C	1.729885	0.173954	0.173826
C95	C	0.978149	-0.325993	-0.502681
C96	C	1.478149	0.174007	-0.002681
C97	C	0.978165	-0.325975	-0.577913
C98	C	1.478165	0.174025	-0.077913
C99	C	0.978207	-0.149493	-0.326178
C100	C	1.478207	0.350507	0.173822
C101	C	0.978248	-0.074261	-0.326194
C102	C	1.478248	0.425739	0.173806
C103	C	1.021480	-0.282684	-0.613274
C104	C	1.521480	0.217316	-0.113274
C105	C	1.021487	-0.282664	-0.683962
C106	C	1.521487	0.217336	-0.183962
C107	C	0.978182	-0.325939	-0.719289
C108	C	1.478182	0.174061	-0.219289
C109	C	0.934862	-0.369232	-0.683923
C110	C	1.434862	0.130768	-0.183923
C111	C	0.934852	-0.369248	-0.613235
C112	C	1.434852	0.130752	-0.113235
C113	C	0.934900	-0.369169	-0.968996
C114	C	1.434900	0.130831	-0.468996
C115	C	0.934915	-0.369151	-1.039688
C116	C	1.434915	0.130849	-0.539688
C117	C	1.021535	-0.282586	-1.039723
C118	C	1.521535	0.217414	-0.539723
C119	C	1.021525	-0.282601	-0.969036
C120	C	1.521525	0.217399	-0.469036
C121	C	0.978203	-0.325891	-0.933676
C122	C	1.478203	0.174109	-0.433676
C123	C	0.978195	-0.325911	-0.857028
C124	C	1.478195	0.174089	-0.357028
C125	C	0.978193	-0.325923	-0.795936
C126	C	1.478193	0.174077	-0.295936
C127	C	0.978112	-0.326029	-0.150282
C128	C	1.478112	0.173971	0.349718
C129	C	0.978227	-0.325857	-0.075051
C130	C	1.478227	0.174143	0.424949
H131	H	0.236528	-0.247609	-0.404840
H132	H	0.736528	0.252391	0.095160
F133	F	0.583300	-0.415278	-0.236606
F134	F	1.083300	0.084722	0.263394
F135	F	1.067640	-0.236510	-1.077361
F136	F	1.567640	0.263490	-0.577361
H137	H	0.899705	-0.939574	-0.247568
H138	H	1.399705	-0.439574	0.252432
H139	H	1.056737	-1.067580	-0.404796
H140	H	1.556737	-0.567580	0.095204
H141	H	1.056791	-0.247365	-0.940277
H142	H	1.556791	0.252635	-0.440277
H143	H	1.056688	-0.939334	-0.404778
H144	H	1.556688	-0.439334	0.095222
H145	H	0.364624	-0.404482	-0.247494
H146	H	0.864624	0.095518	0.252506
F147	F	0.888803	-0.720905	-0.236714
F148	F	1.388803	-0.220905	0.263286
H149	H	0.899756	-1.067811	-0.247581
H150	H	1.399756	-0.567811	0.252419
F151	F	0.888749	-0.574985	-0.236688
F152	F	1.388749	-0.074985	0.263312
F153	F	1.067575	-0.236627	-0.575683
F154	F	1.567575	0.263373	-0.075683
H155	H	0.720533	-0.247606	-0.404786
H156	H	1.220533	0.252394	0.095214
F157	F	0.227530	-0.415299	-0.236668
F158	F	0.727530	0.084701	0.263332
H159	H	0.899574	-0.404493	-0.584445
H160	H	1.399574	0.095507	-0.084445
F161	F	1.067612	-0.236612	-0.721593
F162	F	1.567612	0.263388	-0.221593
F163	F	1.067412	-0.720631	-0.415595
F164	F	1.567412	-0.220631	0.084405
F165	F	0.888821	-0.415213	-1.077284
F166	F	1.388821	0.084787	-0.577284
F167	F	0.888793	-0.415242	-0.931373
F168	F	1.388793	0.084758	-0.431373
H169	H	0.364762	-0.247616	-0.404834
H170	H	0.864762	0.252384	0.095166
F171	F	0.583460	-0.236800	-0.415644
F172	F	1.083460	0.263200	0.084356
H173	H	0.899600	-0.404465	-0.712691
H174	H	1.399600	0.095535	-0.212691
F175	F	0.729211	-0.415282	-0.236600
F176	F	1.229211	0.084718	0.263400
F177	F	1.067370	-0.574721	-0.415563
F178	F	1.567370	-0.074721	0.084437
