data_functionalizedCrystal
_audit_creation_method	'MofGen! by Chris Wilmer'
_symmetry_space_group_name_H-M	'P1'
_symmetry_Int_Tables_number	1
_symmetry_cell_setting	triclinic
loop_
_symmetry_equiv_pos_as_xyz
  x,y,z
_cell_length_a	11.792241
_cell_length_b	14.971486
_cell_length_c	14.048226
_cell_angle_alpha	89.996181
_cell_angle_beta	89.999351
_cell_angle_gamma	83.903772
loop_
_atom_site_label
_atom_site_type_symbol
_atom_site_fract_x
_atom_site_fract_y
_atom_site_fract_z
O1	O	-1.506119	-0.122596	0.079069
O2	O	-1.175696	-0.135230	0.079091
O3	O	-1.349764	0.001252	0.079072
O4	O	-1.332051	-0.259078	0.079087
O5	O	-1.349747	0.001253	-0.079249
O6	O	-1.175679	-0.135229	-0.079230
O7	O	-1.506102	-0.122594	-0.079253
Zn8	Zn	-1.340888	-0.128912	-0.104378
Zn9	Zn	-1.340910	-0.128913	0.104217
O10	O	-1.332035	-0.259076	-0.079234
C11	C	-1.348963	0.034580	-0.000088
C12	C	-1.346589	0.133887	-0.000087
C13	C	-1.133402	-0.134436	-0.000067
C14	C	-1.007404	-0.132061	-0.000059
C15	C	-1.548396	-0.123389	-0.000093
C16	C	-1.674395	-0.125764	-0.000095
C17	C	-0.776720	-0.127692	-0.000086
C18	C	-0.905089	-0.130120	-0.000071
C19	C	-1.332835	-0.292405	-0.000072
C20	C	-1.335209	-0.391711	-0.000066
N21	N	-1.340881	-0.128910	-0.246739
C22	C	-1.448849	0.190702	-0.000094
C23	C	-1.446612	0.284011	-0.000085
C24	C	-1.342114	0.320502	-0.000074
C25	C	-1.239846	0.263679	-0.000064
C26	C	-1.242084	0.170372	-0.000067
C27	C	-1.235188	0.458160	-0.000060
C28	C	-1.232949	0.551473	-0.000059
C29	C	-1.439715	0.571798	-0.000078
C30	C	-1.441954	0.478492	-0.000081
C31	C	-1.339685	0.421675	-0.000072
C32	C	-1.409786	-0.183527	-0.296555
C33	C	-1.409801	-0.183523	-0.396212
C34	C	-1.340904	-0.128906	-0.446053
C35	C	-1.271996	-0.074283	-0.396230
C36	C	-1.271989	-0.074283	-0.296574
C37	C	-1.272015	-0.074289	-0.603944
C38	C	-1.272021	-0.074291	-0.703607
C39	C	-1.409827	-0.183530	-0.703582
C40	C	-1.409819	-0.183530	-0.603927
C41	C	-1.340910	-0.128907	-0.554111
N42	N	-1.340926	-0.128908	0.246577
H43	H	-1.533944	0.160999	-0.000109
H44	H	-1.215905	-0.029809	-0.436818
H45	H	-1.151910	0.411902	-0.000051
O46	O	-1.205071	-0.021147	-0.751873
C47	C	-1.068350	0.087175	-0.741376
C48	C	-1.144136	0.027048	-0.686599
H49	H	-1.019046	0.126143	-0.688626
H50	H	-1.124065	0.136333	-0.788008
H51	H	-1.005770	0.043507	-0.788058
H52	H	-1.206727	0.070645	-0.639866
H53	H	-1.088350	-0.022115	-0.640027
O54	O	-1.476935	-0.236538	-0.751860
C55	C	-1.667998	-0.272458	-0.782365
C56	C	-1.592139	-0.212378	-0.727612
H57	H	-1.761157	-0.252935	-0.762796
H58	H	-1.642872	-0.345782	-0.762748
H59	H	-1.656119	-0.263096	-0.862149
H60	H	-1.603978	-0.221663	-0.647816
H61	H	-1.617282	-0.139078	-0.747308
H62	H	-1.215904	-0.029809	-0.563387
H63	H	-1.529883	0.330267	-0.000093
O64	O	-1.543560	0.443191	-0.000053
C65	C	-1.748409	0.473192	-0.000131
C66	C	-1.633420	0.513289	-0.000142
H67	H	-1.821090	0.529847	-0.000224
H68	H	-1.754709	0.430042	0.066139
H69	H	-1.754548	0.429991	-0.066376
H70	H	-1.627202	0.556531	0.066057
H71	H	-1.627169	0.556387	-0.066456
O72	O	-1.131416	0.586884	0.000132
C73	C	-0.954014	0.598029	0.082168
C74	C	-1.068969	0.557881	0.082077
H75	H	-0.903483	0.574581	0.148403
H76	H	-0.969926	0.674480	0.082228
H77	H	-0.903494	0.574696	0.015892
H78	H	-1.119548	0.581145	0.148342
H79	H	-1.052977	0.481434	0.081968
H80	H	-1.465912	-0.227996	-0.436768
O81	O	-1.476678	-0.236714	-0.555618
C82	C	-1.521139	-0.387498	-0.525064
C83	C	-1.445358	-0.327371	-0.579846
H84	H	-1.495828	-0.460808	-0.544617
H85	H	-1.614320	-0.368126	-0.544670
H86	H	-1.509318	-0.378069	-0.445285
H87	H	-1.457079	-0.336769	-0.659638
H88	H	-1.352205	-0.346758	-0.560161
O89	O	-1.204946	-0.021205	-0.248328
C90	C	-1.068315	0.087186	-0.258863
C91	C	-1.144162	0.027098	-0.313619
H92	H	-1.019169	0.126269	-0.311627
H93	H	-1.005612	0.043569	-0.212232
H94	H	-1.124085	0.136253	-0.212183
H95	H	-1.088482	-0.021978	-0.360351
H96	H	-1.206872	0.070771	-0.360190
H97	H	-1.522986	0.618063	-0.000082
H98	H	-1.154761	0.293397	-0.000049
H99	H	-1.158814	0.124113	-0.000060
H100	H	-1.465883	-0.228008	-0.255982
