data_functionalizedCrystal
_audit_creation_method	'MofGen! by Chris Wilmer'
_symmetry_space_group_name_H-M	'P1'
_symmetry_Int_Tables_number	1
_symmetry_cell_setting	triclinic
loop_
_symmetry_equiv_pos_as_xyz
  x,y,z
_cell_length_a	27.732048
_cell_length_b	23.532407
_cell_length_c	22.010155
_cell_angle_alpha	90.000423
_cell_angle_beta	89.989126
_cell_angle_gamma	97.254334
loop_
_atom_site_label
_atom_site_type_symbol
_atom_site_fract_x
_atom_site_fract_y
_atom_site_fract_z
O1	O	0.641035	-0.067758	-0.050565
O2	O	1.141035	0.432242	0.449435
O3	O	0.500257	-0.078062	-0.050560
O4	O	1.000257	0.421938	0.449440
O5	O	0.574891	0.010031	-0.050552
O6	O	1.074891	0.510031	0.449448
O7	O	0.566401	-0.155851	-0.050574
O8	O	1.066401	0.344149	0.449426
O9	O	0.574878	0.010018	0.050499
O10	O	1.074878	0.510018	0.550499
O11	O	0.500244	-0.078075	0.050490
O12	O	1.000244	0.421925	0.550490
O13	O	0.641021	-0.067771	0.050485
O14	O	1.141021	0.432229	0.550485
Cu15	Cu	0.570631	-0.072924	0.059714
Cu16	Cu	1.070631	0.427076	0.559714
Cu17	Cu	0.570647	-0.072909	-0.059789
Cu18	Cu	1.070647	0.427091	0.440211
O19	O	0.566387	-0.155864	0.050477
O20	O	1.066387	0.344136	0.550477
C21	C	0.574668	0.031240	-0.000025
C22	C	1.074668	0.531240	0.499975
C23	C	0.574018	0.094455	-0.000020
C24	C	1.074018	0.594455	0.499980
C25	C	0.482243	-0.077852	-0.000034
C26	C	0.982243	0.422148	0.499966
C27	C	0.428587	-0.077201	-0.000031
C28	C	0.928587	0.422799	0.499969
C29	C	0.659035	-0.067981	-0.000042
C30	C	1.159035	0.432019	0.499958
C31	C	0.712691	-0.068632	-0.000049
C32	C	1.212691	0.431368	0.499951
C33	C	1.051433	-0.020675	-0.000022
C34	C	1.551433	0.479325	0.499978
C35	C	1.253096	-0.023092	-0.000020
C36	C	1.753096	0.476908	0.499980
O37	O	1.284284	0.020761	0.000012
O38	O	1.784284	0.520761	0.500012
N39	N	1.272300	-0.075327	-0.000029
N40	N	1.772300	0.424673	0.499971
C41	C	1.241085	-0.126962	-0.000034
C42	C	1.741085	0.373038	0.499966
O43	O	1.262046	-0.171447	-0.000035
O44	O	1.762046	0.328553	0.499965
C45	C	1.039422	-0.124545	-0.000031
C46	C	1.539422	0.375455	0.499969
C47	C	1.020221	-0.072306	-0.000029
C48	C	1.520221	0.427694	0.499971
C49	C	1.032231	0.031559	-0.000019
C50	C	1.532231	0.531559	0.499981
C51	C	0.981818	0.032163	-0.000022
C52	C	1.481818	0.532163	0.499978
C53	C	0.950607	-0.019468	-0.000029
C54	C	1.450607	0.480532	0.499971
C55	C	0.969809	-0.071703	-0.000032
C56	C	1.469809	0.428297	0.499968
C57	C	1.008208	-0.176179	-0.000032
C58	C	1.508208	0.323821	0.499968
C59	C	0.957790	-0.175570	-0.000030
C60	C	1.457790	0.324430	0.499970
C61	C	0.938589	-0.123332	-0.000027
C62	C	1.438589	0.376668	0.499973
C63	C	0.888184	-0.122730	-0.000043
C64	C	1.388184	0.377270	0.499957
N65	N	0.868980	-0.070495	-0.000034
N66	N	1.368980	0.429505	0.499966
C67	C	0.900192	-0.018864	-0.000028
C68	C	1.400192	0.481136	0.499972
C69	C	1.346961	-0.128227	-0.000037
C70	C	1.846961	0.371773	0.499963
C71	C	1.397376	-0.128832	-0.000038
C72	C	1.897376	0.371168	0.499962
C73	C	1.409384	-0.024961	-0.000023
C74	C	1.909384	0.475039	0.499977
C75	C	1.358968	-0.024358	-0.000026
C76	C	1.858968	0.475642	0.499974
C77	C	1.327757	-0.075992	-0.000028
C78	C	1.827757	0.424008	0.499972
C79	C	0.794320	-0.017600	-0.000036
C80	C	1.294320	0.482400	0.499964
C81	C	0.743903	-0.017001	-0.000042
C82	C	1.243903	0.482999	0.499958
C83	C	0.731899	-0.120871	-0.000054
C84	C	1.231899	0.379129	0.499946
C85	C	0.782313	-0.121471	-0.000051
C86	C	1.282313	0.378529	0.499949
C87	C	0.813523	-0.069831	-0.000040
C88	C	1.313523	0.430169	0.499960
O89	O	0.856968	-0.166560	-0.000068
O90	O	1.356968	0.333440	0.499932
O91	O	0.879221	0.025614	-0.000013
O92	O	1.379221	0.525614	0.499987
C93	C	1.101845	-0.021279	-0.000018
C94	C	1.601845	0.478721	0.499982
C95	C	1.121047	-0.073513	-0.000021
C96	C	1.621047	0.426487	0.499979
C97	C	1.089836	-0.125144	-0.000028
C98	C	1.589836	0.374856	0.499972
C99	C	1.171462	-0.074118	-0.000023
C100	C	1.671462	0.425882	0.499977
C101	C	1.202674	-0.022487	-0.000016
C102	C	1.702674	0.477513	0.499984
C103	C	1.183470	0.029748	-0.000007
C104	C	1.683470	0.529748	0.499993
C105	C	1.133057	0.030352	-0.000011
C106	C	1.633057	0.530352	0.499989
C107	C	1.109040	-0.177380	-0.000037
C108	C	1.609040	0.322620	0.499963
C109	C	1.159453	-0.177979	-0.000034
C110	C	1.659453	0.322021	0.499966
C111	C	1.190665	-0.126348	-0.000027
C112	C	1.690665	0.373652	0.499973
C113	C	0.566610	-0.177073	-0.000051
C114	C	1.066610	0.322927	0.499949
C115	C	0.567260	-0.240289	-0.000060
C116	C	1.067260	0.259711	0.499940
N117	N	0.570624	-0.072935	0.143767
N118	N	1.070624	0.427065	0.643767
C119	C	0.614108	0.493644	-0.000055
C120	C	1.114108	0.993644	0.499945
C121	C	0.613504	0.553043	-0.000060
C122	C	1.113504	1.053043	0.499940
O123	O	0.650668	0.589867	-0.000084
O124	O	1.150668	1.089867	0.499916
N125	N	0.569134	0.575574	-0.000058
N126	N	1.069134	1.075574	0.499942
C127	C	0.525365	0.538703	-0.000057
C128	C	1.025365	1.038703	0.499943
O129	O	0.487570	0.563322	-0.000056
O130	O	0.987570	1.063322	0.499944
C131	C	0.525970	0.479306	-0.000057
C132	C	1.025970	0.979306	0.499943
C133	C	0.570343	0.456778	-0.000053
C134	C	1.070343	0.956778	0.499947
C135	C	0.658477	0.471116	-0.000052
C136	C	1.158477	0.971116	0.499948
C137	C	0.659081	0.411721	-0.000046
C138	C	1.159081	0.911721	0.499954
C139	C	0.615315	0.374854	-0.000044
C140	C	1.115315	0.874854	0.499956
C141	C	0.570946	0.397383	-0.000047
C142	C	1.070946	0.897383	0.499953
C143	C	0.482201	0.442436	-0.000061
C144	C	0.982201	0.942436	0.499939
C145	C	0.482810	0.383035	-0.000061
C146	C	0.982810	0.883035	0.499939
C147	C	0.527182	0.360507	-0.000057
C148	C	1.027182	0.860507	0.499943
C149	C	0.527784	0.301122	-0.000039
C150	C	1.027784	0.801122	0.499961
N151	N	0.572154	0.278590	-0.000041
N152	N	1.072154	0.778590	0.499959
C153	C	0.615920	0.315457	-0.000044
C154	C	1.115920	0.815457	0.499956
C155	C	0.524100	0.663443	-0.000059
C156	C	1.024100	1.163443	0.499941
C157	C	0.523495	0.722840	-0.000055
C158	C	1.023495	1.222840	0.499945
C159	C	0.611634	0.737175	-0.000058
C160	C	1.111634	1.237175	0.499942
C161	C	0.612238	0.677778	-0.000058
C162	C	1.112238	1.177778	0.499942
C163	C	0.568469	0.640912	-0.000061
C164	C	1.068469	1.140912	0.499939
C165	C	0.617184	0.190723	-0.000031
C166	C	1.117184	0.690723	0.499969
C167	C	0.617784	0.131322	-0.000023
C168	C	1.117784	0.631322	0.499977
C169	C	0.529645	0.116991	-0.000022
C170	C	1.029645	0.616991	0.499978
C171	C	0.529045	0.176387	-0.000027
C172	C	1.029045	0.676387	0.499973
C173	C	0.572818	0.213252	-0.000034
C174	C	1.072818	0.713252	0.499966
O175	O	0.490640	0.264263	-0.000018
O176	O	0.990640	0.764263	0.499982
O177	O	0.653709	0.290829	-0.000052
O178	O	1.153709	0.790829	0.499948
N179	N	0.570659	-0.072894	-0.143842
N180	N	1.070659	0.427106	0.356158
C181	C	0.603697	-0.033907	0.563550
C182	C	1.103697	0.466093	1.063550
C183	C	0.603699	-0.033903	0.627157
C184	C	1.103699	0.466097	1.127157
O185	O	0.631800	-0.000727	0.660052
O186	O	1.131800	0.499273	1.160052
N187	N	0.570647	-0.072897	0.658974
N188	N	1.070647	0.427103	1.158974
C189	C	0.537587	-0.111893	0.627179
C190	C	1.037587	0.388107	1.127179
O191	O	0.509474	-0.145060	0.660083
O192	O	1.009474	0.354940	1.160083
C193	C	0.537583	-0.111894	0.563573
C194	C	1.037583	0.388106	1.063573
C195	C	0.570641	-0.072901	0.531760
C196	C	1.070641	0.427099	1.031760
C197	C	0.636752	0.005083	0.531737
C198	C	1.136752	0.505083	1.031737
C199	C	0.636750	0.005078	0.468133
C200	C	1.136750	0.505078	0.968133
C201	C	0.603694	-0.033916	0.436343
C202	C	1.103694	0.466084	0.936343
C203	C	0.570639	-0.072906	0.468157
C204	C	1.070639	0.427094	0.968157
C205	C	0.504521	-0.150888	0.531780
C206	C	1.004521	0.349112	1.031780
C207	C	0.504520	-0.150885	0.468169
C208	C	1.004520	0.349115	0.968169
C209	C	0.537577	-0.111892	0.436356
C210	C	1.037577	0.388108	0.936356
C211	C	0.537581	-0.111906	0.372763
C212	C	1.037581	0.388094	0.872763
N213	N	0.570633	-0.072912	0.340947
N214	N	1.070633	0.427088	0.840947
C215	C	0.603689	-0.033917	0.372737
C216	C	1.103689	0.466083	0.872737
C217	C	0.537598	-0.111888	0.760757
C218	C	1.037598	0.388112	1.260757
C219	C	0.537604	-0.111891	0.824363
C220	C	1.037604	0.388109	1.324363
C221	C	0.603716	-0.033899	0.824336
C222	C	1.103716	0.466101	1.324336
C223	C	0.603712	-0.033900	0.760730
C224	C	1.103712	0.466100	1.260730
C225	C	0.570650	-0.072894	0.728941
C226	C	1.070650	0.427106	1.228941
C227	C	0.603683	-0.033930	0.239166
C228	C	1.103683	0.466070	0.739166
C229	C	0.603680	-0.033940	0.175557
C230	C	1.103680	0.466060	0.675557
C231	C	0.537567	-0.111929	0.175589
C232	C	1.037567	0.388071	0.675589
C233	C	0.537572	-0.111922	0.239192
C234	C	1.037572	0.388078	0.739192
C235	C	0.570632	-0.072918	0.270979
C236	C	1.070632	0.427082	0.770979
O237	O	0.509493	-0.145063	0.339829
O238	O	1.009493	0.354937	0.839829
O239	O	0.631794	-0.000751	0.339826
O240	O	1.131794	0.499249	0.839826
H241	H	0.728272	0.025540	-0.000042
H242	H	1.228272	0.525540	0.499958
H243	H	1.208891	0.071788	-0.000005
H244	H	1.708891	0.571788	0.499995
H245	H	0.477595	-0.182638	0.442290
H246	H	0.977595	0.317362	0.942290
H247	H	0.630630	-0.002148	0.734831
H248	H	1.130630	0.497852	1.234831
H249	H	0.487362	0.741176	-0.000047
H250	H	0.987362	1.241176	0.499953
H251	H	1.413005	-0.171370	-0.000049
H252	H	1.913005	0.328630	0.499951
C253	C	0.434663	0.342485	-0.000061
C254	C	0.934663	0.842485	0.499939
H255	H	0.408153	0.364413	-0.000059
H256	H	0.908153	0.864413	0.499941
H257	H	0.433071	0.319013	-0.035297
H258	H	0.933071	0.819013	0.464703
H259	H	0.433059	0.319019	0.035184
H260	H	0.933059	0.819019	0.535184
C261	C	0.640073	0.009000	0.859313
C262	C	1.140073	0.509000	1.359313
H263	H	0.635334	0.003418	0.901750
H264	H	1.135334	0.503418	1.401750
H265	H	0.672304	0.003083	0.848885
H266	H	1.172304	0.503083	1.348885
H267	H	0.635001	0.046969	0.848890
H268	H	1.135001	0.546969	1.348890
H269	H	0.663670	0.036840	0.557614
H270	H	1.163670	0.536840	1.057614
C271	C	0.433391	0.467203	-0.000070
C272	C	0.933391	0.967203	0.499930
H273	H	0.407417	0.436733	-0.000077
H274	H	0.907417	0.936733	0.499923
H275	H	0.431309	0.490078	0.035165
H276	H	0.931309	0.990078	0.535165
H277	H	0.431329	0.490072	-0.035316
H278	H	0.931329	0.990072	0.464684
H279	H	1.117428	0.072890	-0.000009
H280	H	1.617428	0.572890	0.499991
H281	H	0.797947	-0.164008	-0.000054
H282	H	1.297947	0.335992	0.499946
H283	H	0.706478	-0.162908	-0.000063
H284	H	1.206478	0.337092	0.499937
C285	C	0.468161	-0.193785	0.566761
C286	C	0.968161	0.306215	1.066761
H287	H	0.448474	-0.217003	0.538709
H288	H	0.948474	0.282997	1.038709
H289	H	0.485434	-0.217354	0.591566
H290	H	0.985434	0.282646	1.091566
H291	H	0.448135	-0.173463	0.591580
H292	H	0.948135	0.326537	1.091580
H293	H	0.647270	0.767203	-0.000063
H294	H	1.147270	1.267203	0.499937
C295	C	0.666596	0.106545	-0.000022
C296	C	1.166596	0.606545	0.499978
H297	H	0.692573	0.137011	-0.000031
H298	H	1.192573	0.637011	0.499969
H299	H	0.668661	0.083673	0.035218
H300	H	1.168661	0.583673	0.535218
H301	H	0.668668	0.083671	-0.035264
H302	H	1.168668	0.583671	0.464736
C303	C	0.481506	0.076434	-0.000023
C304	C	0.981506	0.576434	0.499977
H305	H	0.454991	0.098354	-0.000023
H306	H	0.954991	0.598354	0.499977
H307	H	0.479920	0.052965	-0.035261
H308	H	0.979920	0.552965	0.464739
H309	H	0.479904	0.052965	0.035220
H310	H	0.979904	0.552965	0.535220
C311	C	1.443722	0.031831	-0.000011
C312	C	1.943722	0.531831	0.499989
H313	H	1.476496	0.023985	-0.000007
H314	H	1.976496	0.523985	0.499993
H315	H	1.437938	0.053281	-0.035243
H316	H	1.937938	0.553281	0.464757
H317	H	1.437923	0.053259	0.035239
H318	H	1.937923	0.553259	0.535239
C319	C	0.960703	0.089626	-0.000008
C320	C	1.460703	0.589626	0.499992
H321	H	0.986518	0.120284	0.000003
H322	H	1.486518	0.620284	0.500003
H323	H	0.941291	0.092034	-0.035244
H324	H	1.441291	0.592034	0.464756
H325	H	0.941283	0.092014	0.035238
H326	H	1.441283	0.592014	0.535238
C327	C	0.923461	-0.232370	-0.000038
C328	C	1.423461	0.267630	0.499962
H329	H	0.942120	-0.263564	-0.000045
H330	H	1.442120	0.236436	0.499955
H331	H	0.903535	-0.234301	0.035198
H332	H	1.403535	0.265699	0.535198
H333	H	0.903553	-0.234289	-0.035284
H334	H	1.403553	0.265711	0.464716
H335	H	0.510658	-0.143679	0.265095
H336	H	1.010658	0.356321	0.765095
H337	H	0.492913	0.194730	-0.000013
H338	H	0.992913	0.694730	0.499987
C339	C	0.640043	0.008956	0.140566
C340	C	1.140043	0.508956	0.640566
H341	H	0.659726	0.032183	0.168612
H342	H	1.159726	0.532183	0.668612
H343	H	0.660065	-0.011367	0.115748
H344	H	1.160065	0.488633	0.615748
H345	H	0.622766	0.032524	0.115758
H346	H	1.122766	0.532524	0.615758
C347	C	0.501234	-0.154792	0.725795
C348	C	1.001234	0.345208	1.225795
H349	H	0.481556	-0.178016	0.753858
H350	H	0.981556	0.321984	1.253858
H351	H	0.481208	-0.134475	0.700986
H352	H	0.981208	0.365525	1.200986
H353	H	0.518509	-0.178363	0.700980
H354	H	1.018509	0.321637	1.200980
C355	C	0.828644	0.039202	-0.000032
C356	C	1.328644	0.539202	0.499968
H357	H	0.809981	0.070394	-0.000038
H358	H	1.309981	0.570394	0.499962
H359	H	0.848557	0.041131	0.035205
H360	H	1.348557	0.541131	0.535205
H361	H	0.848564	0.041129	-0.035277
H362	H	1.348564	0.541129	0.464723
C363	C	0.665333	0.231265	-0.000033
C364	C	1.165333	0.731265	0.499967
H365	H	0.691841	0.209334	-0.000024
H366	H	1.191841	0.709334	0.499976
H367	H	0.666942	0.254735	-0.035272
H368	H	1.166942	0.754735	0.464728
H369	H	0.666925	0.254734	0.035210
H370	H	1.166925	0.754734	0.535210
C371	C	1.180569	-0.235445	-0.000035
C372	C	1.680569	0.264555	0.499965
H373	H	1.154756	-0.266106	-0.000034
H374	H	1.654756	0.233894	0.499966
H375	H	1.199995	-0.237844	-0.035270
H376	H	1.699995	0.262156	0.464730
H377	H	1.199976	-0.237842	0.035212
H378	H	1.699976	0.262158	0.535212
H379	H	0.630604	-0.002169	0.265039
H380	H	1.130604	0.497831	0.765039
C381	C	0.673108	0.047977	0.433147
C382	C	1.173108	0.547977	0.933147
H383	H	0.692789	0.071203	0.461197
H384	H	1.192789	0.571203	0.961197
H385	H	0.693133	0.027660	0.408325
H386	H	1.193133	0.527660	0.908325
H387	H	0.655830	0.071547	0.408343
H388	H	1.155830	0.571547	0.908343
H389	H	0.510690	-0.143648	0.850260
H390	H	1.010690	0.356352	1.350260
C391	C	1.074714	-0.234177	-0.000050
C392	C	1.574714	0.265823	0.499950
H393	H	1.093376	-0.265369	-0.000059
H394	H	1.593376	0.234631	0.499941
H395	H	1.054787	-0.236113	0.035185
H396	H	1.554787	0.263887	0.535185
H397	H	1.054807	-0.236095	-0.035296
H398	H	1.554807	0.263905	0.464704
C399	C	0.707890	0.386945	-0.000045
C400	C	1.207890	0.886945	0.499955
H401	H	0.701988	0.346289	-0.000038
H402	H	1.201988	0.846289	0.499962
H403	H	0.725902	0.399627	-0.035284
H404	H	1.225902	0.899627	0.464716
H405	H	0.725890	0.399629	0.035197
H406	H	1.225890	0.899629	0.535197
H407	H	0.488456	0.633430	-0.000056
H408	H	0.988456	1.133430	0.499944
C409	C	0.501204	-0.154816	0.140612
C410	C	1.001204	0.345184	0.640612
H411	H	0.505936	-0.149226	0.098175
H412	H	1.005936	0.350774	0.598175
H413	H	0.506262	-0.192788	0.151030
H414	H	1.006262	0.307212	0.651030
H415	H	0.468975	-0.148882	0.151045
H416	H	0.968975	0.351118	0.651045
H417	H	1.057639	0.073606	-0.000011
H418	H	1.557639	0.573606	0.499989
H419	H	0.648370	0.659440	-0.000055
H420	H	1.148370	1.159440	0.499945
C421	C	0.706622	0.511663	-0.000056
C422	C	1.206622	1.011663	0.499944
H423	H	0.699916	0.550268	-0.000061
H424	H	1.199916	1.050268	0.499939
H425	H	0.724822	0.504869	0.035182
H426	H	1.224822	1.004869	0.535182
H427	H	0.724830	0.504869	-0.035300
H428	H	1.224830	1.004869	0.464700
C429	C	1.337851	0.033104	-0.000017
C430	C	1.837851	0.533104	0.499983
H431	H	1.363664	0.063764	-0.000010
H432	H	1.863664	0.563764	0.499990
H433	H	1.318437	0.035507	-0.035253
H434	H	1.818437	0.535507	0.464747
H435	H	1.318431	0.035496	0.035228
H436	H	1.818431	0.535496	0.535228
H437	H	1.321553	-0.170277	-0.000039
H438	H	1.821553	0.329723	0.499961
H439	H	1.023832	-0.218718	-0.000037
H440	H	1.523832	0.281282	0.499963
