data_functionalizedCrystal
_audit_creation_method	'MofGen! by Chris Wilmer'
_symmetry_space_group_name_H-M	'P1'
_symmetry_Int_Tables_number	1
_symmetry_cell_setting	triclinic
loop_
_symmetry_equiv_pos_as_xyz
  x,y,z
_cell_length_a	10.908937
_cell_length_b	11.792254
_cell_length_c	9.482900
_cell_angle_alpha	99.398945
_cell_angle_beta	83.036371
_cell_angle_gamma	72.142277
loop_
_atom_site_label
_atom_site_type_symbol
_atom_site_fract_x
_atom_site_fract_y
_atom_site_fract_z
O1	O	1.722481	-0.196576	-0.120935
O2	O	1.349240	-0.108066	-0.120930
O3	O	1.544908	-0.319246	-0.120922
O4	O	1.526814	0.014604	-0.120943
O5	O	1.505165	-0.276208	0.120869
O6	O	1.309497	-0.065028	0.120861
O7	O	1.682738	-0.153539	0.120856
Cu8	Cu	1.492488	-0.105354	0.142936
Cu9	Cu	1.539490	-0.156250	-0.143010
O10	O	1.487070	0.057641	0.120848
C11	C	1.281585	-0.078275	-0.000033
C12	C	1.139206	-0.053642	-0.000031
C13	C	0.942416	-0.118080	-0.000053
C14	C	1.089569	-0.143539	-0.000034
C15	C	1.523897	-0.339796	-0.000027
C16	C	1.520484	-0.465147	-0.000029
C17	C	1.517713	-0.566946	-0.000034
C18	C	1.514248	-0.694662	-0.000047
C19	C	1.750393	-0.183329	-0.000044
C20	C	1.892774	-0.207964	-0.000056
C21	C	1.508082	0.078192	-0.000050
C22	C	1.511496	0.203541	-0.000058
N23	N	1.459440	-0.069558	0.344055
N24	N	1.572549	-0.192057	-0.344129
C25	C	1.529733	-0.145697	0.416257
C26	C	1.502245	-0.115907	0.583673
H27	H	1.072771	0.042165	-0.000047
H28	H	1.378904	0.017677	0.406182
C29	C	0.852663	0.011346	-0.000068
N30	N	0.785061	0.108833	-0.000075
C31	C	1.179318	-0.272970	-0.000013
N32	N	1.246918	-0.370456	0.000006
H33	H	0.959216	-0.303766	-0.000053
C34	C	1.638507	-0.263570	0.332331
N35	N	1.720432	-0.352359	0.269120
C36	C	1.681356	-0.309918	0.571954
N37	N	1.763313	-0.398687	0.508746
C38	C	1.393439	0.001954	0.667593
N39	N	1.311488	0.090725	0.730804
