data_functionalizedCrystal
_audit_creation_method	'MofGen! by Chris Wilmer'
_symmetry_space_group_name_H-M	'P1'
_symmetry_Int_Tables_number	1
_symmetry_cell_setting	triclinic
loop_
_symmetry_equiv_pos_as_xyz
  x,y,z
_cell_length_a	13.033293
_cell_length_b	16.120507
_cell_length_c	13.032268
_cell_angle_alpha	99.639496
_cell_angle_beta	90.920818
_cell_angle_gamma	79.561229
loop_
_atom_site_label
_atom_site_type_symbol
_atom_site_fract_x
_atom_site_fract_y
_atom_site_fract_z
Zn1	Zn	1.479854	0.262709	0.795774
Zn2	Zn	1.493002	0.384056	0.630403
Zn3	Zn	1.330030	0.258250	0.601707
Zn4	Zn	1.296759	0.419257	0.782358
O5	O	1.399911	0.331068	0.702561
O6	O	1.626428	0.265940	0.791462
O7	O	1.490810	0.350770	0.481785
O8	O	1.358326	0.140675	0.621057
O9	O	1.636088	0.355094	0.669964
O10	O	1.468401	0.143951	0.763637
O11	O	1.371075	0.258340	0.460703
O12	O	1.180787	0.292473	0.608047
O13	O	1.301621	0.415088	0.928949
O14	O	1.156343	0.410764	0.740770
O15	O	1.436140	0.300073	0.938806
O16	O	1.458548	0.506892	0.656954
O17	O	1.314370	0.532754	0.768595
C18	C	1.131012	0.354955	0.669840
C19	C	1.015971	0.365198	0.655867
C20	C	0.959883	0.325744	0.709854
C21	C	0.840982	0.336329	0.695414
C22	C	1.384300	0.550462	0.714459
C23	C	1.377712	0.644315	0.719595
C24	C	1.434162	0.845137	0.676088
C25	C	1.365700	0.816139	0.728986
C26	C	1.372386	0.720527	0.723759
C27	C	1.427479	0.940757	0.681313
C28	C	1.669861	0.307088	0.735410
C29	C	1.784897	0.296869	0.749409
C30	C	1.363702	0.362005	0.972475
C31	C	1.348272	0.375188	1.087497
C32	C	1.415571	1.110819	0.690622
C33	C	1.422148	1.016966	0.685481
C34	C	1.436043	0.300185	0.433700
C35	C	1.451691	0.286746	0.318690
C36	C	1.407951	0.324158	1.143654
C37	C	1.392004	0.337783	1.262535
H38	H	0.800979	0.377944	0.638497
H39	H	0.999892	0.284126	0.766761
H40	H	1.497790	0.798160	0.626878
H41	H	0.824900	0.255246	0.806318
H42	H	0.975963	0.406810	0.598954
H43	H	1.285368	0.428958	1.127429
C44	C	1.289708	0.963368	0.787796
C45	C	1.279790	0.879556	0.795416
H46	H	1.236667	1.002519	0.828800
H47	H	1.356201	0.973267	0.812234
H48	H	1.282963	0.971161	0.717187
H49	H	1.286543	0.871760	0.866024
H50	H	1.213281	0.869653	0.770983
H51	H	1.470845	0.270381	1.103721
H52	H	1.329095	0.391557	1.302463
H53	H	1.514588	0.232963	1.278763
