data_functionalizedCrystal
_audit_creation_method	'MofGen! by Chris Wilmer'
_symmetry_space_group_name_H-M	'P1'
_symmetry_Int_Tables_number	1
_symmetry_cell_setting	triclinic
loop_
_symmetry_equiv_pos_as_xyz
  x,y,z
_cell_length_a	15.944499
_cell_length_b	10.723024
_cell_length_c	9.198806
_cell_angle_alpha	90.002012
_cell_angle_beta	90.000529
_cell_angle_gamma	96.027260
loop_
_atom_site_label
_atom_site_type_symbol
_atom_site_fract_x
_atom_site_fract_y
_atom_site_fract_z
O1	O	1.115470	-0.160624	-0.120738
O2	O	1.448804	0.172709	0.212596
O3	O	1.782137	0.506042	0.545929
O4	O	0.871029	-0.180533	-0.120773
O5	O	1.204362	0.152800	0.212560
O6	O	1.537695	0.486133	0.545893
O7	O	0.998888	0.011070	-0.120749
O8	O	1.332221	0.344404	0.212584
O9	O	1.665555	0.677737	0.545917
O10	O	0.987611	-0.352228	-0.120762
O11	O	1.320944	-0.018894	0.212572
O12	O	1.654278	0.314439	0.545905
O13	O	0.998878	0.011071	0.121036
O14	O	1.332211	0.344404	0.454369
O15	O	1.665544	0.677737	0.787703
O16	O	0.871018	-0.180533	0.121012
O17	O	1.204352	0.152801	0.454345
O18	O	1.537685	0.486134	0.787679
O19	O	1.115460	-0.160624	0.121047
O20	O	1.448793	0.172710	0.454381
O21	O	1.782127	0.506043	0.787714
Cu22	Cu	0.993238	-0.170578	0.143107
Cu23	Cu	1.326572	0.162755	0.476440
Cu24	Cu	1.659905	0.496088	0.809773
Cu25	Cu	0.993250	-0.170579	-0.142832
Cu26	Cu	1.326584	0.162755	0.190501
Cu27	Cu	1.659917	0.496088	0.523834
O28	O	0.987601	-0.352227	0.121023
O29	O	1.320934	-0.018894	0.454357
O30	O	1.654267	0.314439	0.787690
C31	C	0.839724	-0.179718	0.000115
C32	C	1.173057	0.153615	0.333448
C33	C	1.506391	0.486949	0.666781
C34	C	0.746462	-0.177274	0.000101
C35	C	1.079795	0.156059	0.333435
C36	C	1.413129	0.489393	0.666768
C37	C	0.998062	0.057560	0.000142
C38	C	1.331395	0.390893	0.333475
C39	C	1.664729	0.724226	0.666808
C40	C	0.995607	0.196082	0.000136
C41	C	1.328940	0.529415	0.333469
C42	C	1.662273	0.862749	0.666803
C43	C	1.146765	-0.161439	0.000156
C44	C	1.480098	0.171894	0.333490
C45	C	1.813431	0.505228	0.666823
C46	C	1.240027	-0.163883	0.000160
C47	C	1.573360	0.169450	0.333494
C48	C	1.906693	0.502784	0.666827
C49	C	1.530926	-0.052566	0.000136
C50	C	1.864259	0.280767	0.333470
C51	C	2.197592	0.614101	0.666803
C52	C	1.470229	-0.110431	-0.119080
C53	C	1.803562	0.222902	0.214253
C54	C	2.136896	0.556235	0.547587
C55	C	1.575714	-0.172761	0.000118
C56	C	1.909048	0.160573	0.333452
C57	C	2.242381	0.493906	0.666785
C58	C	1.470241	-0.110464	0.119301
C59	C	1.803574	0.222870	0.452635
C60	C	2.136907	0.556203	0.785968
C61	C	1.410780	-0.168392	0.000141
C62	C	1.744114	0.164941	0.333475
C63	C	2.077447	0.498274	0.666808
C64	C	1.516246	-0.230659	-0.119196
C65	C	1.849579	0.102674	0.214137
C66	C	2.182912	0.436007	0.547470
C67	C	1.516264	-0.230675	0.119292
C68	C	1.849597	0.102659	0.452625
C69	C	2.182931	0.435992	0.785959
C70	C	1.455585	-0.288627	0.000047
C71	C	1.788919	0.044706	0.333380
C72	C	2.122252	0.378039	0.666713
C73	C	1.670729	-0.175274	0.000104
C74	C	2.004062	0.158059	0.333437
C75	C	2.337395	0.491393	0.666771
C76	C	1.315767	-0.165888	0.000146
C77	C	1.649101	0.167445	0.333479
C78	C	1.982434	0.500778	0.666812
C79	C	0.988427	-0.398716	0.000130
C80	C	1.321760	-0.065383	0.333463
C81	C	1.655093	0.267950	0.666796
C82	C	0.990882	-0.537239	0.000126
C83	C	1.324215	-0.203906	0.333459
C84	C	1.657549	0.129428	0.666792
N85	N	0.993236	-0.170577	0.344221
N86	N	1.326569	0.162756	0.677554
N87	N	1.659903	0.496090	1.010887
C88	C	1.067150	0.271988	0.000144
C89	C	1.400483	0.605322	0.333478
C90	C	1.733817	0.938655	0.666811
C91	C	1.064614	0.415159	0.000139
C92	C	1.397947	0.748492	0.333472
C93	C	1.731281	1.081826	0.666805
N94	N	0.993259	-0.170570	-0.343946
N95	N	1.326593	0.162763	-0.010613
N96	N	1.659926	0.496097	0.322720
C97	C	1.046920	-0.089777	0.416428
C98	C	1.380254	0.243557	0.749761
C99	C	1.713587	0.576890	1.083094
C100	C	1.046933	-0.089772	0.583840
C101	C	1.380267	0.243561	0.917173
C102	C	1.713600	0.576895	1.250507
H103	H	1.563711	0.047167	-0.000005
H104	H	1.897045	0.380500	0.333328
H105	H	2.230378	0.713834	0.666661
Cl106	Cl	0.922297	-0.277389	0.560199
Cl107	Cl	1.255630	0.055945	0.893533
Cl108	Cl	1.588964	0.389278	1.226866
Cl109	Cl	1.117902	0.017030	0.679704
Cl110	Cl	1.451236	0.350363	1.013037
Cl111	Cl	1.784569	0.683697	1.346370
Cl112	Cl	0.922282	-0.277374	0.440118
Cl113	Cl	1.255615	0.055959	0.773451
Cl114	Cl	1.588949	0.389293	1.106785
H115	H	0.932479	0.237089	0.000117
H116	H	1.265812	0.570423	0.333451
H117	H	1.599145	0.903756	0.666784
Cl118	Cl	1.438758	-0.031945	-0.274685
Cl119	Cl	1.772092	0.301389	0.058649
Cl120	Cl	2.105425	0.634722	0.391982
H121	H	1.092870	-0.020598	0.354310
H122	H	1.426203	0.312735	0.687643
H123	H	1.759536	0.646069	1.020977
Cl124	Cl	0.896313	0.362075	0.000126
Cl125	Cl	1.229646	0.695408	0.333459
Cl126	Cl	1.562980	1.028742	0.666793
H127	H	1.536516	-0.281458	-0.220094
H128	H	1.869849	0.051876	0.113239
H129	H	2.203182	0.385209	0.446573
H130	H	1.536669	-0.281472	0.220080
H131	H	1.870002	0.051861	0.553413
H132	H	2.203335	0.385195	0.886747
H133	H	1.422974	-0.388463	-0.000026
H134	H	1.756307	-0.055130	0.333308
H135	H	2.089641	0.278203	0.666641
Cl136	Cl	1.438795	-0.031947	0.274908
Cl137	Cl	1.772128	0.301386	0.608241
Cl138	Cl	2.105461	0.634720	0.941574
H139	H	1.130278	0.230981	0.000163
H140	H	1.463612	0.564314	0.333496
H141	H	1.796945	0.897648	0.666829
Cl142	Cl	1.159180	0.515852	0.000161
Cl143	Cl	1.492513	0.849186	0.333494
Cl144	Cl	1.825846	1.182519	0.666828
