data_functionalizedCrystal
_audit_creation_method	'MofGen! by Chris Wilmer'
_symmetry_space_group_name_H-M	'P1'
_symmetry_Int_Tables_number	1
_symmetry_cell_setting	triclinic
loop_
_symmetry_equiv_pos_as_xyz
  x,y,z
_cell_length_a	14.044191
_cell_length_b	10.967926
_cell_length_c	10.065875
_cell_angle_alpha	93.120479
_cell_angle_beta	80.402461
_cell_angle_gamma	91.144370
loop_
_atom_site_label
_atom_site_type_symbol
_atom_site_fract_x
_atom_site_fract_y
_atom_site_fract_z
O1	O	-0.165924	1.630688	0.270048
O2	O	-0.168641	1.280936	0.187786
O3	O	-0.029112	1.450558	0.227679
O4	O	-0.305454	1.461066	0.230156
O5	O	-0.055830	1.418225	0.447063
O6	O	-0.195360	1.248603	0.407171
O7	O	-0.192643	1.598356	0.489433
Zn8	Zn	-0.198243	1.418346	0.483134
Zn9	Zn	-0.163041	1.460945	0.194085
O10	O	-0.332172	1.428733	0.449540
C11	C	-0.179784	1.219738	0.286887
C12	C	-0.173168	1.085558	0.255327
C13	C	-0.184059	1.008987	0.354905
C14	C	-0.177222	0.870305	0.322289
C15	C	-0.354290	1.449496	0.340930
C16	C	-0.460001	1.463209	0.344156
C17	C	-0.707733	1.391027	0.327167
C18	C	-0.653544	1.488260	0.350039
C19	C	-0.545847	1.474318	0.346765
C20	C	-0.815440	1.404967	0.330441
C21	C	-0.006994	1.429795	0.336287
C22	C	0.098719	1.416084	0.333051
C23	C	-0.181500	1.659553	0.390329
C24	C	-0.188115	1.793735	0.421880
N25	N	-0.222268	1.389281	0.680404
N26	N	-0.139009	1.490019	-0.003183
C27	C	-0.171393	1.450825	0.762657
C28	C	-0.189891	1.428466	0.914566
H29	H	-0.198440	1.046103	0.464303
H30	H	-0.247141	1.359214	0.956599
Br31	Br	-0.043815	1.605744	0.926842
H32	H	-0.673246	1.297320	0.305131
H33	H	-0.279513	1.320034	0.722444
Br34	Br	-0.212077	0.855573	0.604234
Br35	Br	-0.153230	0.808465	0.139936
Br36	Br	-0.075721	1.565907	0.692521
H37	H	-0.688022	1.581988	0.371985
H38	H	-0.158779	1.048443	0.145929
