data_functionalizedCrystal
_audit_creation_method	'MofGen! by Chris Wilmer'
_symmetry_space_group_name_H-M	'P1'
_symmetry_Int_Tables_number	1
_symmetry_cell_setting	triclinic
loop_
_symmetry_equiv_pos_as_xyz
  x,y,z
_cell_length_a	14.519731
_cell_length_b	13.596369
_cell_length_c	11.792241
_cell_angle_alpha	90.006129
_cell_angle_beta	83.941134
_cell_angle_gamma	90.005416
loop_
_atom_site_label
_atom_site_type_symbol
_atom_site_fract_x
_atom_site_fract_y
_atom_site_fract_z
O1	O	1.224401	0.081794	0.148897
O2	O	1.474401	0.331794	0.398897
O3	O	1.724401	0.581794	0.648897
O4	O	1.974401	0.831794	0.898897
O5	O	0.955991	0.081795	0.166393
O6	O	1.205991	0.331795	0.416393
O7	O	1.455991	0.581795	0.666393
O8	O	1.705991	0.831795	0.916393
O9	O	1.096710	0.081788	-0.007561
O10	O	1.346710	0.331788	0.242439
O11	O	1.596710	0.581788	0.492439
O12	O	1.846710	0.831788	0.742439
O13	O	1.083683	0.081802	0.322851
O14	O	1.333683	0.331802	0.572851
O15	O	1.583683	0.581802	0.822851
O16	O	1.833683	0.831802	1.072851
O17	O	1.096696	-0.081795	-0.007570
O18	O	1.346696	0.168205	0.242430
O19	O	1.596696	0.418205	0.492430
O20	O	1.846696	0.668205	0.742430
O21	O	0.955977	-0.081787	0.166384
O22	O	1.205977	0.168213	0.416384
O23	O	1.455977	0.418213	0.666384
O24	O	1.705977	0.668213	0.916384
O25	O	1.224387	-0.081789	0.148888
O26	O	1.474387	0.168211	0.398888
O27	O	1.724387	0.418211	0.648888
O28	O	1.974387	0.668211	0.898888
Zn29	Zn	1.090180	-0.107761	0.157634
Zn30	Zn	1.340180	0.142239	0.407634
Zn31	Zn	1.590180	0.392239	0.657634
Zn32	Zn	1.840180	0.642239	0.907634
Zn33	Zn	1.090198	0.107767	0.157647
Zn34	Zn	1.340198	0.357767	0.407647
Zn35	Zn	1.590198	0.607767	0.657647
Zn36	Zn	1.840198	0.857767	0.907647
O37	O	1.083668	-0.081781	0.322842
O38	O	1.333668	0.168219	0.572842
O39	O	1.583668	0.418219	0.822842
O40	O	1.833668	0.668219	1.072842
C41	C	0.921622	0.000004	0.165569
C42	C	1.171622	0.250004	0.415569
C43	C	1.421622	0.500004	0.665569
C44	C	1.671622	0.750004	0.915569
C45	C	0.819232	0.000005	0.163112
C46	C	1.069232	0.250005	0.413112
C47	C	1.319232	0.500005	0.663112
C48	C	1.569232	0.750005	0.913112
C49	C	0.736081	0.000008	0.161116
C50	C	0.986081	0.250008	0.411116
C51	C	1.236081	0.500008	0.661116
C52	C	1.486081	0.750008	0.911116
C53	C	0.631763	0.000009	0.158622
C54	C	0.881763	0.250009	0.408622
C55	C	1.131763	0.500009	0.658622
C56	C	1.381763	0.750009	0.908622
C57	C	0.548617	0.000009	0.156642
C58	C	0.798617	0.250009	0.406642
C59	C	1.048617	0.500009	0.656642
C60	C	1.298617	0.750009	0.906642
C61	C	0.444292	0.000011	0.154149
C62	C	0.694292	0.250011	0.404149
C63	C	0.944292	0.500011	0.654149
C64	C	1.194292	0.750011	0.904149
N65	N	1.090174	-0.254852	0.157625
N66	N	1.340174	-0.004852	0.407625
N67	N	1.590174	0.245148	0.657625
N68	N	1.840174	0.495148	0.907625
C69	C	1.090197	-0.656143	0.157648
C70	C	1.340197	-0.406143	0.407648
C71	C	1.590197	-0.156143	0.657648
C72	C	1.840197	0.093857	0.907648
C73	C	1.090188	-0.544492	0.157645
C74	C	1.340188	-0.294492	0.407645
C75	C	1.590188	-0.044492	0.657645
C76	C	1.840188	0.205508	0.907645
C77	C	1.090186	-0.455501	0.157638
C78	C	1.340186	-0.205501	0.407638
C79	C	1.590186	0.044499	0.657638
C80	C	1.840186	0.294499	0.907638
C81	C	1.090176	-0.343843	0.157633
C82	C	1.340176	-0.093843	0.407633
C83	C	1.590176	0.156157	0.657633
C84	C	1.840176	0.406157	0.907633
C85	C	1.258757	0.000004	0.149713
C86	C	1.508757	0.250004	0.399713
C87	C	1.758757	0.500004	0.649713
C88	C	2.008757	0.750004	0.899713
C89	C	1.361146	0.000010	0.152169
C90	C	1.611146	0.250010	0.402169
C91	C	1.861146	0.500010	0.652169
C92	C	2.111146	0.750010	0.902169
C93	C	1.095884	-0.000003	-0.049852
C94	C	1.345884	0.249997	0.200148
C95	C	1.595884	0.499997	0.450148
C96	C	1.845884	0.749997	0.700148
C97	C	1.093435	-0.000002	-0.175852
C98	C	1.343435	0.249998	0.074148
C99	C	1.593435	0.499998	0.324148
C100	C	1.843435	0.749998	0.574148
N101	N	1.090212	0.254859	0.157647
N102	N	1.340212	0.504859	0.407647
N103	N	1.590212	0.754859	0.657647
N104	N	1.840212	1.004859	0.907647
C105	C	1.088931	0.000014	-0.406540
C106	C	1.338931	0.250014	-0.156540
C107	C	1.588931	0.500014	0.093460
C108	C	1.838931	0.750014	0.343460
C109	C	1.091434	0.000005	-0.278168
C110	C	1.341434	0.250005	-0.028168
C111	C	1.591434	0.500005	0.221832
C112	C	1.841434	0.750005	0.471832
C113	C	1.084494	0.000012	0.365133
C114	C	1.334494	0.250012	0.615133
C115	C	1.584494	0.500012	0.865133
C116	C	1.834494	0.750012	1.115133
C117	C	1.086943	0.000017	0.491133
C118	C	1.336943	0.250017	0.741133
C119	C	1.586943	0.500017	0.991133
C120	C	1.836943	0.750017	1.241133
