data_functionalizedCrystal
_audit_creation_method	'MofGen! by Chris Wilmer'
_symmetry_space_group_name_H-M	'P1'
_symmetry_Int_Tables_number	1
_symmetry_cell_setting	triclinic
loop_
_symmetry_equiv_pos_as_xyz
  x,y,z
_cell_length_a	21.295417
_cell_length_b	19.805407
_cell_length_c	19.805399
_cell_angle_alpha	89.982197
_cell_angle_beta	89.969157
_cell_angle_gamma	90.027823
loop_
_atom_site_label
_atom_site_type_symbol
_atom_site_fract_x
_atom_site_fract_y
_atom_site_fract_z
Zn1	Zn	-0.250669	1.034716	-0.382672
Zn2	Zn	0.249331	1.534716	0.117328
Zn3	Zn	-0.355938	1.034623	-0.269478
Zn4	Zn	0.144062	1.534623	0.230522
Zn5	Zn	-0.250681	0.921531	-0.269500
Zn6	Zn	0.249319	1.421531	0.230500
Zn7	Zn	-0.355899	0.921486	-0.382628
Zn8	Zn	0.144101	1.421486	0.117372
O9	O	-0.303297	0.978089	-0.326070
O10	O	0.196703	1.478089	0.173930
O11	O	-0.264644	1.129421	-0.367666
O12	O	0.235356	1.629421	0.132334
O13	O	-0.341996	1.019601	-0.174764
O14	O	0.158004	1.519601	0.325236
O15	O	-0.162590	0.936603	-0.284541
O16	O	0.337410	1.436603	0.215459
O17	O	-0.341984	1.129352	-0.284502
O18	O	0.158016	1.629352	0.215498
O19	O	-0.162581	1.019760	-0.367688
O20	O	0.337419	1.519760	0.132312
O21	O	-0.264665	0.936513	-0.174781
O22	O	0.235335	1.436513	0.325219
O23	O	-0.264628	0.826809	-0.284498
O24	O	0.235372	1.326809	0.215502
O25	O	-0.341919	0.936527	-0.477350
O26	O	0.158081	1.436527	0.022650
O27	O	-0.341931	0.826776	-0.367612
O28	O	0.158069	1.326776	0.132388
O29	O	-0.264607	1.019717	-0.477383
O30	O	0.235393	1.519717	0.022617
O31	O	-0.444022	1.019558	-0.284459
O32	O	0.055978	1.519558	0.215541
O33	O	-0.443994	0.936437	-0.367590
O34	O	0.056006	1.436437	0.132410
C35	C	-0.303277	0.802233	-0.326053
C36	C	0.196723	1.302233	0.173947
C37	C	-0.303284	0.727001	-0.326062
C38	C	0.196716	1.227001	0.173938
C39	C	-0.263084	0.691693	-0.369431
C40	C	0.236916	1.191693	0.130569
C41	C	-0.263087	0.621005	-0.369434
C42	C	0.236913	1.121005	0.130566
C43	C	-0.303294	0.585626	-0.326070
C44	C	0.196706	1.085626	0.173930
C45	C	-0.343496	0.620938	-0.282696
C46	C	0.156504	1.120938	0.217304
C47	C	-0.343489	0.691626	-0.282691
C48	C	0.156511	1.191626	0.217309
C49	C	-0.343524	0.335865	-0.282717
C50	C	0.156476	0.835865	0.217283
C51	C	-0.343529	0.265173	-0.282727
C52	C	0.156471	0.765173	0.217273
C53	C	-0.263122	0.265244	-0.369460
C54	C	0.236878	0.765244	0.130540
C55	C	-0.263115	0.335932	-0.369455
C56	C	0.236885	0.835932	0.130545
C57	C	-0.303315	0.371238	-0.326079
C58	C	0.196685	0.871238	0.173921
C59	C	-0.303310	0.447887	-0.326075
C60	C	0.196690	0.947887	0.173925
C61	C	-0.303303	0.508979	-0.326076
C62	C	0.196697	1.008979	0.173924
C63	C	-0.466848	0.978001	-0.326032
C64	C	0.033152	1.478001	0.173968
C65	C	-0.536816	0.978024	-0.326039
C66	C	-0.036816	1.478024	0.173961
C67	C	-0.569677	1.021344	-0.282797
C68	C	-0.069677	1.521344	0.217203
C69	C	-0.635419	1.021376	-0.282812
C70	C	-0.135419	1.521376	0.217188
C71	C	-0.668299	0.978076	-0.326062
C72	C	-0.168299	1.478076	0.173938
C73	C	-0.635431	0.934753	-0.369312
C74	C	-0.135431	1.434753	0.130688
C75	C	-0.569689	0.934728	-0.369301
C76	C	-0.069689	1.434728	0.130699
N77	N	-0.771562	0.918865	-0.331216
N78	N	-0.271562	1.418865	0.168784
N79	N	-0.834014	0.918892	-0.331224
N80	N	-0.334014	1.418892	0.168776
C81	C	-0.866374	0.978152	-0.326101
C82	C	-0.366374	1.478152	0.173899
N83	N	-0.833923	1.037386	-0.320957
N84	N	-0.333923	1.537386	0.179043
N85	N	-0.771466	1.037358	-0.320947
N86	N	-0.271466	1.537358	0.179053
C87	C	-0.739584	0.978099	-0.326080
C88	C	-0.239584	1.478099	0.173920
C89	C	-0.970520	1.021509	-0.282873
C90	C	-0.470520	1.521509	0.217127
C91	C	-1.036263	1.021542	-0.282893
C92	C	-0.536263	1.521542	0.217107
C93	C	-1.036273	0.934914	-0.369390
C94	C	-0.536273	1.434914	0.130610
C95	C	-0.970531	0.934887	-0.369373
C96	C	-0.470531	1.434887	0.130627
C97	C	-0.937658	0.978184	-0.326111
C98	C	-0.437658	1.478184	0.173889
C99	C	-0.139106	0.978197	-0.326122
C100	C	0.360894	1.478197	0.173878
C101	C	-0.069138	0.978243	-0.326144
C102	C	0.430862	1.478243	0.173856
C103	C	-0.303257	0.978127	-0.502612
C104	C	0.196743	1.478127	-0.002612
C105	C	-0.303240	0.978143	-0.577844
C106	C	0.196760	1.478143	-0.077844
C107	C	-0.303317	1.154632	-0.326086
C108	C	0.196683	1.654632	0.173914
C109	C	-0.303326	1.229864	-0.326094
C110	C	0.196674	1.729864	0.173906
C111	C	-0.262982	1.021461	-0.613207
C112	C	0.237018	1.521461	-0.113207
C113	C	-0.262963	1.021468	-0.683895
C114	C	0.237037	1.521468	-0.183895
C115	C	-0.303207	0.978160	-0.719220
C116	C	0.196793	1.478160	-0.219220
C117	C	-0.343468	0.934838	-0.683853
C118	C	0.156532	1.434838	-0.183853
C119	C	-0.343482	0.934828	-0.613166
C120	C	0.156518	1.434828	-0.113166
C121	C	-0.343409	0.934876	-0.968926
C122	C	0.156591	1.434876	-0.468926
C123	C	-0.343393	0.934891	-1.039618
C124	C	0.156607	1.434891	-0.539618
C125	C	-0.262890	1.021516	-1.039656
C126	C	0.237110	1.521516	-0.539656
C127	C	-0.262905	1.021506	-0.968969
C128	C	0.237095	1.521506	-0.468969
C129	C	-0.303162	0.978182	-0.933608
C130	C	0.196838	1.478182	-0.433608
C131	C	-0.303181	0.978174	-0.856959
C132	C	0.196819	1.478174	-0.356959
C133	C	-0.303193	0.978171	-0.795867
C134	C	0.196807	1.478171	-0.295867
C135	C	-0.303291	0.978090	-0.150214
C136	C	0.196709	1.478090	0.349786
C137	C	-0.303130	0.978205	-0.074982
C138	C	0.196870	1.478205	0.425018
H139	H	-0.230353	0.592260	-0.404751
H140	H	0.269647	1.092260	0.095249
H141	H	-0.376233	0.899573	-0.712620
H142	H	0.123767	1.399573	-0.212620
H143	H	-0.376165	0.899621	-1.068378
H144	H	0.123835	1.399621	-0.568378
F145	F	-0.220136	1.067596	-0.721527
F146	F	0.279864	1.567596	-0.221527
F147	F	-0.386324	0.227521	-0.236570
F148	F	0.113676	0.727521	0.263430
F149	F	-0.386255	0.888766	-0.931301
F150	F	0.113745	1.388766	-0.431301
F151	F	-1.071262	0.888834	-0.415424
F152	F	-0.571262	1.388834	0.084576
F153	F	-1.071236	1.067656	-0.236871
F154	F	-0.571236	1.567656	0.263129
H155	H	-0.376259	0.899547	-0.584375
H156	H	0.123741	1.399547	-0.084375
H157	H	-0.230136	1.056774	-0.940210
H158	H	0.269864	1.556774	-0.440210
F159	F	-0.935557	0.888777	-0.415395
F160	F	-0.435557	1.388777	0.084605
F161	F	-0.220151	1.067560	-0.575617
F162	F	0.279849	1.567560	-0.075617
F163	F	-0.935532	1.067588	-0.236830
F164	F	-0.435532	1.567588	0.263170
H165	H	-0.230108	1.056791	-1.068455
H166	H	0.269892	1.556791	-0.568455
H167	H	-0.662180	1.056654	-0.247599
H168	H	-0.162180	1.556654	0.252401
F169	F	-0.670424	0.888673	-0.415345
F170	F	-0.170424	1.388673	0.084655
F171	F	-0.220325	0.373581	-0.415611
F172	F	0.279675	0.873581	0.084389
F173	F	-0.220292	0.729340	-0.415589
F174	F	0.279708	1.229340	0.084411
H175	H	-0.230388	0.236489	-0.404777
H176	H	0.269612	0.736489	0.095223
F177	F	-0.386284	0.583283	-0.236542
F178	F	0.113716	1.083283	0.263458
H179	H	-0.376257	0.364603	-0.247398
H180	H	0.123743	0.864603	0.252602
H181	H	-0.542934	0.899451	-0.404514
H182	H	-0.042934	1.399451	0.095486
H183	H	-0.542914	1.056601	-0.247572
H184	H	-0.042914	1.556601	0.252428
F185	F	-0.386276	0.729202	-0.236532
F186	F	0.113724	1.229202	0.263468
