data_functionalizedCrystal
_audit_creation_method	'MofGen! by Chris Wilmer'
_symmetry_space_group_name_H-M	'P1'
_symmetry_Int_Tables_number	1
_symmetry_cell_setting	triclinic
loop_
_symmetry_equiv_pos_as_xyz
  x,y,z
_cell_length_a	10.967926
_cell_length_b	11.026607
_cell_length_c	10.065875
_cell_angle_alpha	100.731764
_cell_angle_beta	93.120479
_cell_angle_gamma	96.380754
loop_
_atom_site_label
_atom_site_type_symbol
_atom_site_fract_x
_atom_site_fract_y
_atom_site_fract_z
O1	O	1.659143	0.213709	0.276732
O2	O	1.309856	0.217209	0.194579
O3	O	1.455551	0.037496	0.228852
O4	O	1.513449	0.393422	0.242459
O5	O	1.427800	0.071909	0.449312
O6	O	1.282106	0.251622	0.415040
O7	O	1.631392	0.248122	0.497193
Zn8	Zn	1.452343	0.255336	0.491119
Zn9	Zn	1.488906	0.209995	0.200653
O10	O	1.485698	0.427835	0.462920
C11	C	1.250570	0.231560	0.294129
C12	C	1.115255	0.223039	0.262303
C13	C	1.430994	0.009008	0.336568
C14	C	1.399155	-0.127149	0.329075
C15	C	1.040552	0.237067	0.362319
C16	C	0.900697	0.228260	0.329427
C17	C	1.487072	-0.196974	0.349751
C18	C	1.454166	-0.337699	0.342006
C19	C	1.690679	0.233770	0.397640
C20	C	1.825995	0.242290	0.429458
C21	C	1.510255	0.456323	0.355201
C22	C	1.542096	0.592478	0.362686
N23	N	1.427398	0.286279	0.689357
N24	N	1.513858	0.179043	0.002417
C25	C	1.480217	0.220753	0.769561
C26	C	1.461031	0.244578	0.922215
H27	H	0.861120	0.209726	0.219442
O28	O	1.584492	0.090919	0.949258
C29	C	1.667527	-0.013594	0.748526
C30	C	1.587708	0.086413	0.808597
H31	H	1.670132	-0.017288	0.634789
H32	H	1.764982	0.010407	0.799134
H33	H	1.626481	-0.108012	0.767180
H34	H	1.628645	0.180868	0.789959
H35	H	1.490261	0.062304	0.757984
O36	O	0.873403	0.264440	0.560599
C37	C	1.056010	0.293279	0.712948
C38	C	1.002487	0.268222	0.564377
H39	H	1.160378	0.296320	0.716051
H40	H	1.031150	0.386202	0.768175
H41	H	1.016101	0.215771	0.764613
H42	H	1.042366	0.345654	0.512595
H43	H	1.027335	0.175259	0.509251
H44	H	1.367968	0.360011	0.733703
H45	H	1.080134	0.255590	0.472296
O46	O	1.660895	-0.354362	0.390687
C47	C	1.802026	-0.165654	0.423795
C48	C	1.667437	-0.225692	0.392106
H49	H	1.807363	-0.061620	0.424924
H50	H	1.837602	-0.180981	0.527177
H51	H	1.860771	-0.209945	0.342639
H52	H	1.608596	-0.181440	0.473175
H53	H	1.631960	-0.210376	0.288684
O54	O	1.067848	0.200994	0.131172
C55	C	0.885223	0.171991	-0.021175
C56	C	0.938745	0.196991	0.127394
H57	H	0.780835	0.168720	-0.024278
H58	H	0.924966	0.249525	-0.072901
H59	H	0.910252	0.079122	-0.076341
H60	H	0.913736	0.289821	0.182674
H61	H	0.899004	0.119384	0.179017
H62	H	1.586701	-0.152570	0.373192
O63	O	1.280348	-0.180299	0.301187
C64	C	1.139245	-0.369039	0.267901
C65	C	1.273841	-0.309006	0.299528
H66	H	1.133943	-0.473111	0.266522
H67	H	1.080434	-0.324912	0.349086
H68	H	1.103722	-0.353537	0.164575
H69	H	1.309476	-0.324488	0.402816
H70	H	1.332568	-0.353140	0.218261
O71	O	1.389944	0.332413	0.974998
C72	C	1.189268	0.401798	0.971770
C73	C	1.269626	0.302227	0.911897
H74	H	1.091982	0.377441	0.920758
H75	H	1.186317	0.405336	1.085452
H76	H	1.230052	0.496390	0.953363
H77	H	1.228903	0.207583	0.930204
H78	H	1.272577	0.298798	0.798234
O79	O	1.335353	-0.390844	0.314117
C80	C	1.194250	-0.579583	0.280831
C81	C	1.328845	-0.519551	0.312459
H82	H	1.188948	-0.683656	0.279452
H83	H	1.135439	-0.535457	0.362016
H84	H	1.158727	-0.564082	0.177505
H85	H	1.364480	-0.535033	0.415746
H86	H	1.387573	-0.563685	0.231191
H87	H	1.539637	0.147011	0.725214
