data_functionalizedCrystal
_audit_creation_method	'MofGen! by Chris Wilmer'
_symmetry_space_group_name_H-M	'P1'
_symmetry_Int_Tables_number	1
_symmetry_cell_setting	triclinic
loop_
_symmetry_equiv_pos_as_xyz
  x,y,z
_cell_length_a	16.098538
_cell_length_b	10.489741
_cell_length_c	10.489741
_cell_angle_alpha	84.539174
_cell_angle_beta	92.751052
_cell_angle_gamma	87.236155
loop_
_atom_site_label
_atom_site_type_symbol
_atom_site_fract_x
_atom_site_fract_y
_atom_site_fract_z
O1	O	0.069204	-1.699709	-0.174324
O2	O	0.069217	-1.328514	-0.191216
O3	O	0.069205	-1.522557	0.002828
O4	O	0.069216	-1.505665	-0.368367
O5	O	-0.069307	-1.511222	-0.008463
O6	O	-0.069295	-1.317179	-0.202506
O7	O	-0.069308	-1.688373	-0.185614
Zn8	Zn	-0.091294	-1.500976	-0.195853
Zn9	Zn	0.091202	-1.515911	-0.180977
O10	O	-0.069296	-1.494330	-0.379658
C11	C	-0.000038	-1.275315	-0.195585
C12	C	-0.000033	-1.133686	-0.191767
N13	N	-0.215842	-1.490793	-0.206004
C14	C	-0.000050	-1.515614	0.044714
C15	C	-0.000049	-1.511797	0.186344
C16	C	-0.259432	-1.573183	-0.123674
C17	C	-0.346621	-1.566071	-0.130787
C18	C	-0.390218	-1.476574	-0.220238
C19	C	-0.346621	-1.394175	-0.302572
C20	C	-0.259434	-1.401282	-0.295451
C21	C	-0.653466	-1.450812	-0.246029
C22	C	-0.740659	-1.443714	-0.253146
C23	C	-0.740652	-1.615610	-0.081359
C24	C	-0.653464	-1.622713	-0.074252
C25	C	-0.609875	-1.540310	-0.156581
C26	C	-0.479338	-1.469306	-0.227514
C27	C	-0.520756	-1.547573	-0.149298
N28	N	0.215751	-1.526105	-0.170816
C29	C	-0.000052	-1.741573	-0.181245
C30	C	-0.000051	-1.883202	-0.185062
C31	C	-0.000044	-1.065545	-0.068303
C32	C	0.068250	-0.979007	-0.121060
C33	C	-0.068313	-0.967865	-0.132221
C34	C	0.068317	-1.049018	-0.244570
C35	C	-0.068306	-1.037880	-0.255719
C36	C	0.000004	-0.951371	-0.308564
C37	C	-0.000039	-1.501274	-0.421544
C38	C	-0.000035	-1.505091	-0.563173
C39	C	-0.000038	-1.388333	0.254485
C40	C	-0.068334	-1.441067	0.341040
C41	C	0.068228	-1.452272	0.352146
C42	C	-0.068401	-1.564577	0.271029
C43	C	0.068223	-1.575770	0.282131
C44	C	-0.000090	-1.628593	0.368658
H45	H	-0.223941	-1.646066	-0.050839
H46	H	0.125972	-1.404742	0.387817
H47	H	-0.000131	-1.730193	0.418078
N48	N	0.144699	-1.651180	0.247241
H49	H	0.196264	-1.608685	0.276626
H50	H	0.143760	-1.653885	0.151199
N51	N	-0.787682	-1.347165	-0.349617
H52	H	-0.849528	-1.355174	-0.341634
H53	H	-0.772431	-1.363955	-0.439013
H54	H	0.000039	-1.115241	0.033199
H55	H	-0.382111	-1.633159	-0.063747
N56	N	-0.144813	-1.365610	0.375872
H57	H	-0.127392	-1.290391	0.422328
H58	H	-0.178996	-1.422744	0.433317
H59	H	0.000044	-0.901951	-0.410164
H60	H	-0.617969	-1.695589	-0.001414
H61	H	-0.617983	-1.383718	-0.313067
N62	N	-0.787664	-1.704483	0.007435
H63	H	-0.849512	-1.686404	-0.010645
H64	H	-0.772435	-1.690162	0.099315
H65	H	-0.382123	-1.321298	-0.375400
N66	N	-0.144784	-1.072772	-0.331085
H67	H	-0.127382	-1.117752	-0.407260
H68	H	-0.179785	-0.992264	-0.361941
H69	H	-0.223944	-1.334189	-0.362491
N70	N	-0.144793	-0.920564	-0.069238
H71	H	-0.144730	-0.962511	0.021519
H72	H	-0.196331	-0.943059	-0.119257
H73	H	-0.485257	-1.620437	-0.076462
H74	H	-0.126204	-1.612042	0.235486
N75	N	0.144886	-1.096103	-0.307474
H76	H	0.144433	-1.192123	-0.309630
H77	H	0.196361	-1.074160	-0.256950
H78	H	-0.000104	-1.286816	0.204828
N79	N	-0.526371	-1.372797	-0.323999
H80	H	-0.511192	-1.389558	-0.413439
H81	H	-0.511199	-1.283404	-0.307088
N82	N	0.144728	-0.944177	-0.045640
H83	H	0.144678	-0.986105	0.045111
H84	H	0.144388	-0.847996	-0.044425
