data_functionalizedCrystal
_audit_creation_method	'MofGen! by Chris Wilmer'
_symmetry_space_group_name_H-M	'P1'
_symmetry_Int_Tables_number	1
_symmetry_cell_setting	triclinic
loop_
_symmetry_equiv_pos_as_xyz
  x,y,z
_cell_length_a	19.805407
_cell_length_b	19.805405
_cell_length_c	19.805399
_cell_angle_alpha	90.026615
_cell_angle_beta	90.019573
_cell_angle_gamma	90.026726
loop_
_atom_site_label
_atom_site_type_symbol
_atom_site_fract_x
_atom_site_fract_y
_atom_site_fract_z
Zn1	Zn	1.034734	-0.269479	0.382724
Zn2	Zn	1.534734	0.230521	0.882724
Zn3	Zn	1.034648	-0.382667	0.269538
Zn4	Zn	1.534648	0.117333	0.769538
Zn5	Zn	0.921549	-0.269498	0.269549
Zn6	Zn	1.421549	0.230502	0.769549
Zn7	Zn	0.921512	-0.382631	0.382685
Zn8	Zn	1.421512	0.117369	0.882685
O9	O	0.978111	-0.326069	0.326124
O10	O	1.478111	0.173931	0.826124
O11	O	1.129439	-0.284501	0.367722
O12	O	1.629439	0.215499	0.867722
O13	O	1.019625	-0.367678	0.174823
O14	O	1.519625	0.132322	0.674823
O15	O	0.936615	-0.174778	0.284583
O16	O	1.436615	0.325222	0.784583
O17	O	1.129376	-0.367660	0.284564
O18	O	1.629376	0.132340	0.784564
O19	O	1.019771	-0.174765	0.367732
O20	O	1.519771	0.325235	0.867732
O21	O	0.936531	-0.284533	0.174831
O22	O	1.436531	0.215467	0.674831
O23	O	0.826827	-0.284498	0.284544
O24	O	1.326827	0.215502	0.784544
O25	O	0.936551	-0.367598	0.477406
O26	O	1.436551	0.132402	0.977406
O27	O	0.826800	-0.367617	0.367665
O28	O	1.326800	0.132383	0.867665
O29	O	1.019735	-0.284466	0.477436
O30	O	1.519735	0.215534	0.977436
O31	O	1.019589	-0.477379	0.284526
O32	O	1.519589	0.022621	0.784526
O33	O	0.936468	-0.477353	0.367654
O34	O	1.436468	0.022647	0.867654
C35	C	0.802255	-0.326056	0.326102
C36	C	1.302255	0.173944	0.826102
C37	C	0.727023	-0.326067	0.326109
C38	C	1.227023	0.173933	0.826109
C39	C	0.691682	-0.369412	0.369319
C40	C	1.191682	0.130588	0.869319
C41	C	0.620994	-0.369413	0.369329
C42	C	1.120994	0.130587	0.869329
C43	C	0.585647	-0.326072	0.326124
C44	C	1.085647	0.173928	0.826124
C45	C	0.620993	-0.282722	0.282911
C46	C	1.120993	0.217278	0.782911
C47	C	0.691680	-0.282718	0.282906
C48	C	1.191680	0.217282	0.782906
C49	C	0.335920	-0.282737	0.282934
C50	C	0.835920	0.217263	0.782934
C51	C	0.265227	-0.282746	0.282941
C52	C	0.765227	0.217254	0.782941
C53	C	0.265233	-0.369432	0.369357
C54	C	0.765233	0.130568	0.869357
C55	C	0.335920	-0.369428	0.369351
C56	C	0.835920	0.130572	0.869351
C57	C	0.371260	-0.326076	0.326142
C58	C	0.871260	0.173924	0.826142
C59	C	0.447908	-0.326074	0.326133
C60	C	0.947908	0.173926	0.826133
C61	C	0.509000	-0.326076	0.326129
C62	C	1.009000	0.173924	0.826129
C63	C	0.978034	-0.501925	0.326099
C64	C	1.478034	-0.001925	0.826099
C65	C	0.978063	-0.577157	0.326112
C66	C	1.478063	-0.077157	0.826112
C67	C	1.021337	-0.612436	0.369441
C68	C	1.521337	-0.112436	0.869441
C69	C	1.021361	-0.683124	0.369454
C70	C	1.521361	-0.183124	0.869454
C71	C	0.978114	-0.718532	0.326133
C72	C	1.478114	-0.218532	0.826133
C73	C	0.934835	-0.683249	0.282801
C74	C	1.434835	-0.183249	0.782801
C75	C	0.934808	-0.612561	0.282792
C76	C	1.434808	-0.112561	0.782792
C77	C	0.934944	-0.968322	0.282836
C78	C	1.434944	-0.468322	0.782836
C79	C	0.934976	-1.039014	0.282846
C80	C	1.434976	-0.539014	0.782846
C81	C	1.021497	-1.038884	0.369497
C82	C	1.521497	-0.538884	0.869497
C83	C	1.021470	-0.968197	0.369489
C84	C	1.521470	-0.468197	0.869489
C85	C	0.978189	-0.932920	0.326160
C86	C	1.478189	-0.432920	0.826160
C87	C	0.978162	-0.856271	0.326147
C88	C	1.478162	-0.356271	0.826147
C89	C	0.978144	-0.795179	0.326141
C90	C	1.478144	-0.295179	0.826141
C91	C	1.154653	-0.326082	0.326146
C92	C	1.654653	0.173918	0.826146
C93	C	1.229885	-0.326088	0.326156
C94	C	1.729885	0.173912	0.826156
C95	C	0.978149	-0.326026	0.502667
C96	C	1.478149	0.173974	1.002667
C97	C	0.978165	-0.326008	0.577899
C98	C	1.478165	0.173992	1.077899
C99	C	0.978207	-0.149526	0.326163
C100	C	1.478207	0.350474	0.826163
C101	C	0.978248	-0.074294	0.326180
C102	C	1.478248	0.425706	0.826180
C103	C	0.978112	-0.326062	0.150268
C104	C	1.478112	0.173938	0.650268
C105	C	0.978227	-0.325890	0.075036
C106	C	1.478227	0.174110	0.575036
C107	C	1.021480	-0.282719	0.613259
C108	C	1.521480	0.217281	1.113259
C109	C	1.021487	-0.282699	0.683948
C110	C	1.521487	0.217301	1.183948
C111	C	0.978182	-0.325973	0.719274
C112	C	1.478182	0.174027	1.219274
C113	C	0.934862	-0.369264	0.683909
C114	C	1.434862	0.130736	1.183909
C115	C	0.934852	-0.369279	0.613222
C116	C	1.434852	0.130721	1.113222
C117	C	0.934900	-0.369201	0.968982
C118	C	1.434900	0.130799	1.468982
C119	C	0.934915	-0.369183	1.039675
C120	C	1.434915	0.130817	1.539675
C121	C	1.021535	-0.282620	1.039708
C122	C	1.521535	0.217380	1.539708
C123	C	1.021525	-0.282636	0.969021
C124	C	1.521525	0.217364	1.469021
C125	C	0.978203	-0.325924	0.933662
C126	C	1.478203	0.174076	1.433662
C127	C	0.978195	-0.325944	0.857013
C128	C	1.478195	0.174056	1.357013
C129	C	0.978193	-0.325957	0.795922
C130	C	1.478193	0.174043	1.295922
H131	H	0.236451	-0.404729	0.404543
H132	H	0.736451	0.095271	0.904543
C133	C	0.887395	-1.077962	0.235192
C134	C	1.387395	-0.577962	0.735192
N135	N	0.851558	-1.107297	0.199300
N136	N	1.351558	-0.607297	0.699300
H137	H	0.899648	-0.404423	1.068436
H138	H	1.399648	0.095577	1.568436
H139	H	0.899705	-0.939604	0.247554
H140	H	1.399705	-0.439604	0.747554
C141	C	0.887305	-0.722200	0.235106
C142	C	1.387305	-0.222200	0.735106
N143	N	0.851520	-0.751538	0.199164
N144	N	1.351520	-0.251538	0.699164
H145	H	0.592222	-0.404709	0.404515
H146	H	1.092222	0.095291	0.904515
C147	C	0.730557	-0.417091	0.416849
C148	C	1.230557	0.082909	0.916849
N149	N	0.759835	-0.453003	0.452652
N150	N	1.259835	0.046997	0.952652
H151	H	0.364696	-0.404723	0.404531
H152	H	0.864696	0.095277	0.904531
H153	H	0.899569	-0.583838	0.247510
H154	H	1.399569	-0.083838	0.747510
C155	C	1.069161	-0.235029	0.930165
C156	C	1.569161	0.264971	1.430165
N157	N	1.105039	-0.199167	0.900900
N158	N	1.605039	0.300833	1.400900
H159	H	0.592208	-0.247430	0.247736
H160	H	1.092208	0.252570	0.747736
H161	H	0.236450	-0.247448	0.247758
H162	H	0.736450	0.252552	0.747758
C163	C	0.887243	-0.416817	0.930097
C164	C	1.387243	0.083183	1.430097
N165	N	0.851344	-0.452683	0.900805
N166	N	1.351344	0.047317	1.400805
C167	C	1.069182	-0.234993	1.078610
C168	C	1.569182	0.265007	1.578610
N169	N	1.105069	-0.199121	1.107909
N170	N	1.605069	0.300879	1.607909
C171	C	0.374784	-0.235052	0.235397
C172	C	0.874784	0.264948	0.735397
N173	N	0.404059	-0.199135	0.199589
N174	N	0.904059	0.300865	0.699589
H175	H	1.056688	-0.939370	0.404762
H176	H	1.556688	-0.439370	0.904762
H177	H	0.899600	-0.404495	0.712678
H178	H	1.399600	0.095505	1.212678
C179	C	0.730554	-0.235036	0.235369
C180	C	1.230554	0.264964	0.735369
N181	N	0.759834	-0.199120	0.199564
N182	N	1.259834	0.300880	0.699564
H183	H	1.056556	-0.583611	0.404715
H184	H	1.556556	-0.083611	0.904715
H185	H	1.056605	-0.711845	0.404732
H186	H	1.556605	-0.211845	0.904732
H187	H	1.056746	-0.247482	0.584501
H188	H	1.556746	0.252518	1.084501
C189	C	1.069103	-1.077696	0.417166
C190	C	1.569103	-0.577696	0.917166
N191	N	1.104959	-1.106928	0.453068
N192	N	1.604959	-0.606928	0.953068
C193	C	1.069138	-0.235078	0.722841
C194	C	1.569138	0.264922	1.222841
N195	N	1.105031	-0.199208	0.752135
N196	N	1.605031	0.300792	1.252135
C197	C	0.887204	-0.416902	0.574326
C198	C	1.387204	0.083098	1.074326
N199	N	0.851312	-0.452772	0.545030
N200	N	1.351312	0.047228	1.045030
