data_functionalizedCrystal
_audit_creation_method	'MofGen! by Chris Wilmer'
_symmetry_space_group_name_H-M	'P1'
_symmetry_Int_Tables_number	1
_symmetry_cell_setting	triclinic
loop_
_symmetry_equiv_pos_as_xyz
  x,y,z
_cell_length_a	28.938199
_cell_length_b	28.937346
_cell_length_c	28.934044
_cell_angle_alpha	60.005004
_cell_angle_beta	60.009897
_cell_angle_gamma	59.994060
loop_
_atom_site_label
_atom_site_type_symbol
_atom_site_fract_x
_atom_site_fract_y
_atom_site_fract_z
O1	O	0.064043	-0.675186	0.564597
O2	O	0.024124	-0.525682	0.454913
O3	O	0.118795	-0.620275	0.454833
O4	O	-0.030629	-0.580593	0.564678
O5	O	0.150204	-0.588870	0.486157
O6	O	0.055533	-0.494276	0.486238
O7	O	0.095452	-0.643780	0.595921
Cu8	Cu	0.078360	-0.566161	0.543940
Cu9	Cu	0.041215	-0.603301	0.506895
O10	O	0.000780	-0.549187	0.596002
N11	N	0.104487	-0.540042	0.569998
N12	N	0.015094	-0.629425	0.480837
C13	C	0.165467	-0.323909	0.630915
C14	C	0.165587	-0.479117	0.786068
C15	C	0.165481	-0.479095	0.630906
C16	C	0.320696	-0.479083	0.630835
C17	C	0.182557	-0.375118	0.647971
C18	C	0.182626	-0.462038	0.734858
C19	C	0.269485	-0.462018	0.647928
C20	C	0.182566	-0.462025	0.647966
C21	C	0.143714	-0.258726	0.609206
C22	C	0.143738	-0.500820	0.609192
C23	C	0.204309	-0.440300	0.669680
C24	C	0.415481	-0.462740	0.580919
C25	C	0.474732	-0.482485	0.561145
C26	C	0.474757	-0.578356	0.597704
C27	C	0.415508	-0.558609	0.617479
C28	C	0.157989	-0.229089	0.550957
C29	C	0.138212	-0.169834	0.531225
C30	C	0.089890	-0.169857	0.627992
C31	C	0.109667	-0.229112	0.647725
C32	C	0.085482	-0.486515	0.623535
C33	C	0.065722	-0.506265	0.603789
C34	C	0.162467	-0.554625	0.555370
C35	C	0.182230	-0.534875	0.575110
C36	C	0.085661	-0.486557	0.880902
C37	C	0.065952	-0.506323	0.940155
C38	C	0.162734	-0.554693	0.940102
C39	C	0.182441	-0.534928	0.880847
C40	C	0.143904	-0.500859	0.851249
C41	C	0.385871	-0.500801	0.609083
C42	C	-0.110907	-0.668480	0.441278
C43	C	-0.024049	-0.668588	0.441475
C44	C	-0.045729	-0.690282	0.419668
C45	C	-0.062146	-0.785032	0.469507
C46	C	-0.042446	-0.844287	0.489286
C47	C	0.053426	-0.844399	0.452899
C48	C	0.033725	-0.785144	0.433120
C49	C	-0.140617	-0.682751	0.499509
C50	C	-0.199867	-0.662928	0.519152
C51	C	-0.199694	-0.614571	0.422330
C52	C	-0.140443	-0.634393	0.402687
C53	C	-0.038320	-0.610337	0.427144
C54	C	-0.018610	-0.590621	0.446974
C55	C	0.029642	-0.687402	0.495454
C56	C	0.009933	-0.707121	0.475630
C57	C	-0.038148	-0.610347	0.324832
C58	C	-0.018301	-0.590634	0.265579
C59	C	0.030035	-0.687421	0.265643
C60	C	0.010190	-0.707133	0.324897
C61	C	-0.023903	-0.668595	0.354491
C62	C	-0.024062	-0.755463	0.441426
N63	N	0.503527	-0.540005	0.569810
O64	O	0.684453	-0.545211	0.434650
O65	O	0.684643	-0.655237	0.584005
O66	O	0.684567	-0.654986	0.489282
O67	O	0.684529	-0.545462	0.529373
O68	O	0.590438	-0.623674	0.520735
O69	O	0.590513	-0.623924	0.615457
O70	O	0.590323	-0.513899	0.466102
Cu71	Cu	0.581823	-0.566053	0.543652
Cu72	Cu	0.693143	-0.603083	0.506456
O73	O	0.590399	-0.514149	0.560825
N74	N	0.771439	-0.629131	0.480292
N75	N	0.104456	-0.141061	0.570015
O76	O	-0.030629	0.039964	0.564688
O77	O	0.118732	0.039984	0.454661
O78	O	0.023980	0.039958	0.454946
O79	O	0.064123	0.039990	0.564403
O80	O	0.055392	-0.054179	0.486321
O81	O	0.150144	-0.054153	0.486036
O82	O	0.000784	-0.054173	0.596063
Cu83	Cu	0.078332	-0.062759	0.543914
Cu84	Cu	0.041183	0.048570	0.506810
O85	O	0.095535	-0.054147	0.595778
N86	N	0.015053	0.126872	0.480710
N87	N	0.104760	-0.540096	0.968910
O88	O	0.099447	-0.675167	1.149923
O89	O	-0.010552	-0.525757	1.149951
O90	O	-0.010297	-0.620493	1.149918
O91	O	0.099192	-0.580431	1.149956
O92	O	0.021064	-0.589100	1.055785
O93	O	0.020809	-0.494365	1.055818
O94	O	0.130808	-0.643774	1.055790
Cu95	Cu	0.078672	-0.566203	1.047209
Cu96	Cu	0.041584	-0.603328	1.158532
O97	O	0.130553	-0.549038	1.055823
N98	N	0.015495	-0.629442	1.236831
C99	C	0.036087	-0.491140	0.455465
C100	C	0.153325	-0.608283	0.455364
C101	C	0.083488	-0.678322	0.595370
C102	C	-0.033750	-0.561180	0.595470
C103	C	0.637601	-0.654732	0.618548
C104	C	0.637509	-0.654422	0.501245
C105	C	0.637362	-0.514403	0.431560
C106	C	0.637458	-0.514713	0.548862
C107	C	0.153215	-0.006966	0.455158
C108	C	0.035916	-0.007114	0.455550
C109	C	-0.033739	-0.007106	0.595527
C110	C	0.083600	-0.007076	0.595174
C111	C	-0.010020	-0.491238	1.102888
C112	C	-0.009698	-0.608550	1.102828
C113	C	0.130276	-0.678293	1.102853
C114	C	0.129961	-0.560974	1.102892
H115	H	0.018524	-0.494668	0.964293
O116	O	0.171549	-0.729444	1.102819
C117	C	0.266958	-0.787460	1.102855
C118	C	0.220272	-0.729504	1.102880
H119	H	0.306358	-0.787532	1.102916
H120	H	0.277690	-0.795758	1.063442
H121	H	0.251369	-0.822014	1.142231
H122	H	0.235822	-0.694914	1.063530
H123	H	0.209547	-0.721255	1.142319
H124	H	-0.076633	-0.007113	0.630069
O125	O	0.170946	-0.550650	1.102873
C126	C	0.196820	-0.483420	1.102927
C127	C	0.150359	-0.495032	1.102936
H128	H	0.180189	-0.438459	1.102990
H129	H	0.235445	-0.488444	1.063520
H130	H	0.209211	-0.514784	1.142309
H131	H	0.137921	-0.463679	1.063580
H132	H	0.111764	-0.490029	1.142369
O133	O	0.637764	-0.695957	0.669696
C134	C	0.686602	-0.755751	0.737830
C135	C	0.686493	-0.709073	0.679889
H136	H	0.725989	-0.766361	0.746095
H137	H	0.686663	-0.795220	0.737914
H138	H	0.647204	-0.740197	0.772398
H139	H	0.725884	-0.724573	0.645289
H140	H	0.686403	-0.669613	0.679854
H141	H	0.054276	-0.458811	0.856808
H142	H	0.092195	-0.007066	0.629560
O143	O	0.637314	-0.473260	0.380352
C144	C	0.637177	-0.446927	0.287146
C145	C	0.637246	-0.493576	0.345108
H146	H	0.637110	-0.463331	0.258639
H147	H	0.676555	-0.434551	0.266755
H148	H	0.597769	-0.408343	0.293149
H149	H	0.676627	-0.532190	0.339154
H150	H	0.597841	-0.505903	0.365479
O151	O	-0.051152	-0.440000	1.102822
C152	C	-0.078507	-0.339308	1.054056
C153	C	-0.031873	-0.397296	1.054068
H154	H	-0.062941	-0.304768	1.014637
H155	H	-0.089187	-0.330977	1.093431
H156	H	-0.117937	-0.339256	1.054075
H157	H	0.007587	-0.397390	1.054029
H158	H	-0.021241	-0.405604	1.014696
O159	O	0.200246	-0.587800	0.968766
C160	C	0.298320	-0.633669	0.962459
C161	C	0.255901	-0.596175	0.929926
H162	H	0.343326	-0.640442	0.931071
H163	H	0.291555	-0.676318	0.990175
H164	H	0.291477	-0.611970	0.990220
H165	H	0.262718	-0.617824	0.902134
H166	H	0.262676	-0.553528	0.902246
O167	O	0.204330	-0.006722	0.413916
C168	C	0.305098	-0.055034	0.386215
C169	C	0.247247	-0.055372	0.432972
H170	H	0.339810	-0.094370	0.401601
H171	H	0.313205	-0.015572	0.375649
H172	H	0.305099	-0.054927	0.346761
H173	H	0.247204	-0.055500	0.472456
H174	H	0.239162	-0.094831	0.443490
H175	H	-0.076669	-0.552723	0.629962
O176	O	0.025586	-0.007165	0.414600
C177	C	-0.041680	-0.007191	0.388745
C178	C	-0.030057	-0.007135	0.435171
H179	H	-0.086670	-0.007154	0.405355
H180	H	-0.010375	-0.046604	0.376391
H181	H	-0.036606	0.032189	0.350099
H182	H	-0.035137	-0.046488	0.473847
H183	H	-0.061359	0.032304	0.447476
O184	O	0.025959	-0.439955	0.414294
C185	C	0.020700	-0.389283	0.320020
C186	C	0.032197	-0.447286	0.366591
H187	H	0.025727	-0.395188	0.281445
H188	H	0.052073	-0.368874	0.307584
H189	H	-0.024256	-0.360836	0.336573
H190	H	0.077136	-0.475776	0.350078
H191	H	0.000789	-0.467649	0.379020
H192	H	0.637450	-0.480310	0.557440
H193	H	-0.044080	-0.617108	1.102779
H194	H	0.229870	-0.546579	0.856706
H195	H	-0.030233	-0.543188	0.435308
O196	O	0.637500	-0.695401	0.490929
C197	C	0.637495	-0.721305	0.423682
C198	C	0.637492	-0.674844	0.435293
H199	H	0.637500	-0.704706	0.378697
H200	H	0.598122	-0.733704	0.455002
H201	H	0.676909	-0.759922	0.428743
H202	H	0.598105	-0.636197	0.430224
H203	H	0.676891	-0.662493	0.403975
O204	O	0.204520	-0.618461	0.414229
C205	C	0.272648	-0.675689	0.354493
C206	C	0.214666	-0.664232	0.401088
H207	H	0.280864	-0.712687	0.343846
H208	H	0.307228	-0.686473	0.370068
H209	H	0.272759	-0.636353	0.315038
H210	H	0.214500	-0.703548	0.440560
H211	H	0.180111	-0.653423	0.385468
O212	O	0.048014	-0.453417	0.656611
C213	C	-0.050033	-0.407555	0.702574
C214	C	-0.007662	-0.445033	0.665099
H215	H	-0.095056	-0.400775	0.709459
H216	H	-0.043263	-0.364908	0.680874
H217	H	-0.043143	-0.429272	0.745171
H218	H	-0.014526	-0.423366	0.622496
H219	H	-0.014442	-0.487678	0.686844
H220	H	0.018285	-0.494604	0.615454
O221	O	0.093741	-0.729596	0.636398
C222	C	0.160915	-0.822764	0.662443
C223	C	0.149375	-0.764727	0.615924
H224	H	0.205898	-0.851180	0.645911
H225	H	0.129588	-0.843202	0.674823
H226	H	0.155811	-0.816861	0.701053
H227	H	0.154486	-0.770581	0.577284
H228	H	0.180700	-0.744310	0.603592
H229	H	0.229667	-0.546519	0.563426
O230	O	0.199888	-0.587624	0.522184
C231	C	0.276530	-0.595181	0.434966
C232	C	0.234174	-0.557750	0.472490
H233	H	0.304269	-0.571047	0.394786
H234	H	0.252434	-0.606831	0.423265
H235	H	0.304270	-0.635399	0.459092
H236	H	0.206423	-0.517508	0.448398
H237	H	0.258305	-0.546145	0.484193
O238	O	0.386834	-0.595658	0.644805
C239	C	0.393122	-0.692839	0.679006
C240	C	0.425664	-0.650940	0.648038
H241	H	0.424501	-0.737546	0.681640
H242	H	0.365376	-0.680991	0.654796
H243	H	0.365390	-0.691001	0.723547
H244	H	0.453426	-0.652756	0.603497
H245	H	0.453374	-0.662802	0.672291
H246	H	0.498841	-0.451490	0.538213
O247	O	0.386779	-0.406569	0.572740
C248	C	0.393011	-0.313559	0.534359
C249	C	0.425583	-0.377158	0.543598
H250	H	0.424371	-0.289761	0.510787
H251	H	0.365307	-0.306928	0.577073
H252	H	0.365235	-0.296900	0.508342
H253	H	0.453390	-0.393860	0.569595
H254	H	0.453252	-0.383752	0.500865
H255	H	0.185713	-0.253197	0.519589
O256	O	0.152148	-0.141128	0.474621
C257	C	0.202130	-0.147357	0.380721
C258	C	0.186404	-0.179934	0.444809
H259	H	0.229818	-0.178718	0.356599
H260	H	0.226279	-0.119622	0.369013
H261	H	0.161894	-0.119607	0.369106
H262	H	0.226610	-0.207715	0.456469
H263	H	0.162233	-0.207633	0.456482
O264	O	0.023868	-0.763725	0.489578
C265	C	0.073783	-0.857642	0.539781
C266	C	0.058052	-0.793556	0.524020
H267	H	0.101412	-0.881779	0.567639
H268	H	0.097995	-0.869363	0.499602
H269	H	0.033546	-0.869228	0.563803
H270	H	0.098259	-0.781924	0.500012
H271	H	0.033817	-0.781869	0.564219
H272	H	0.062174	-0.145744	0.659359
O273	O	0.095768	-0.257812	0.704327
C274	C	0.045719	-0.251578	0.798225
C275	C	0.061430	-0.219004	0.734137
H276	H	0.017944	-0.220216	0.822346
H277	H	0.085921	-0.279300	0.809903
H278	H	0.021627	-0.279340	0.809873
H279	H	0.085507	-0.191211	0.722444
H280	H	0.021206	-0.191317	0.722494
H281	H	0.498884	-0.625426	0.604536
H282	H	-0.029909	-0.543201	0.241439
H283	H	-0.065911	-0.578960	0.348925
H284	H	0.057785	-0.718806	0.241554
H285	H	-0.065985	-0.578958	0.399332
O286	O	0.023961	-0.763724	0.353682
C287	C	0.019429	-0.852434	0.371749
C288	C	0.003788	-0.788353	0.339127
H289	H	0.003137	-0.872368	0.359985
H290	H	-0.000625	-0.859938	0.419189
H291	H	0.067398	-0.872443	0.360195
H292	H	-0.044173	-0.768301	0.350634
H293	H	0.023883	-0.780889	0.291696
O294	O	0.070786	-0.756482	0.405784
C295	C	0.152984	-0.738432	0.326021
C296	C	0.111061	-0.770937	0.356930
H297	H	0.185550	-0.750098	0.286510
H298	H	0.175447	-0.750113	0.355313
H299	H	0.128963	-0.690985	0.313338
H300	H	0.135040	-0.818391	0.369616
H301	H	0.088599	-0.759209	0.327619
O302	O	-0.079517	-0.872922	0.516537
C303	C	-0.149208	-0.890955	0.511217
C304	C	-0.107236	-0.858497	0.480263
H305	H	-0.171623	-0.879314	0.481899
H306	H	-0.181810	-0.879207	0.550678
H307	H	-0.125231	-0.938409	0.523983
H308	H	-0.131165	-0.811036	0.467459
H309	H	-0.074636	-0.870292	0.440827
O310	O	-0.118254	-0.756132	0.477467
C311	C	-0.189821	-0.689193	0.433638
C312	C	-0.126262	-0.721883	0.424549
H313	H	-0.196316	-0.661505	0.390861
H314	H	-0.206550	-0.661400	0.459658
H315	H	-0.213655	-0.720511	0.457129
H316	H	-0.102381	-0.690607	0.401042
H317	H	-0.109576	-0.749686	0.398551
H318	H	0.057315	-0.718782	0.523258
H319	H	-0.116569	-0.710512	0.530934
O320	O	-0.228302	-0.581450	0.384768
C321	C	-0.221879	-0.535623	0.286658
C322	C	-0.189412	-0.573126	0.329135
H323	H	-0.190452	-0.528892	0.241670
H324	H	-0.249589	-0.492957	0.293402
H325	H	-0.249640	-0.557293	0.293462
H326	H	-0.161621	-0.551506	0.322357
H327	H	-0.161738	-0.615791	0.322381
H328	H	0.100481	-0.868567	0.446139
O329	O	-0.228643	-0.676866	0.575740
C330	C	-0.222566	-0.726905	0.669705
C331	C	-0.189908	-0.711169	0.605637
H332	H	-0.191262	-0.754631	0.693895
H333	H	-0.250296	-0.751021	0.681328
H334	H	-0.250323	-0.686672	0.681322
H335	H	-0.162120	-0.751373	0.593974
H336	H	-0.162213	-0.687032	0.594047
H337	H	-0.116252	-0.622767	0.355267
