data_functionalizedCrystal
_audit_creation_method	'MofGen! by Chris Wilmer'
_symmetry_space_group_name_H-M	'P1'
_symmetry_Int_Tables_number	1
_symmetry_cell_setting	triclinic
loop_
_symmetry_equiv_pos_as_xyz
  x,y,z
_cell_length_a	17.077404
_cell_length_b	12.759399
_cell_length_c	17.077396
_cell_angle_alpha	89.973998
_cell_angle_beta	89.980499
_cell_angle_gamma	90.015341
loop_
_atom_site_label
_atom_site_type_symbol
_atom_site_fract_x
_atom_site_fract_y
_atom_site_fract_z
Zn1	Zn	1.200097	-0.418260	-0.443856
Zn2	Zn	1.200022	-0.593961	-0.312596
Zn3	Zn	1.068829	-0.418297	-0.312604
Zn4	Zn	1.068815	-0.593898	-0.443820
O5	O	1.134441	-0.506104	-0.378219
O6	O	1.309934	-0.441578	-0.426456
O7	O	1.182593	-0.570700	-0.202750
O8	O	1.086279	-0.271271	-0.330034
O9	O	1.309879	-0.570664	-0.330020
O10	O	1.182721	-0.271244	-0.426464
O11	O	1.086206	-0.441641	-0.202756
O12	O	0.958980	-0.441580	-0.329998
O13	O	1.086255	-0.570558	-0.553671
O14	O	0.958970	-0.570594	-0.426402
O15	O	1.182708	-0.441517	-0.553698
O16	O	1.182580	-0.740973	-0.329984
O17	O	1.086182	-0.740927	-0.426394
C18	C	0.930493	-0.506085	-0.378197
C19	C	0.843243	-0.506102	-0.378207
C20	C	0.802268	-0.573381	-0.428323
C21	C	0.720287	-0.573383	-0.428336
C22	C	0.679284	-0.506111	-0.378227
C23	C	0.720264	-0.438825	-0.328108
C24	C	0.802243	-0.438818	-0.328100
C25	C	0.549394	-0.438846	-0.328127
C26	C	0.467410	-0.438854	-0.328134
C27	C	0.467438	-0.573410	-0.428363
C28	C	0.549417	-0.573404	-0.428355
C29	C	0.590393	-0.506119	-0.378235
C30	C	1.134392	-0.779071	-0.378201
C31	C	1.134444	-0.895848	-0.378220
C32	C	1.184695	-0.950699	-0.328076
C33	C	1.184746	-1.060423	-0.328103
C34	C	1.084286	-1.060435	-0.428418
C35	C	1.084240	-0.950713	-0.428395
C36	C	1.277400	-1.210298	-0.300171
C37	C	1.327645	-1.265152	-0.250016
C38	C	1.339725	-1.229604	-0.173426
C39	C	1.301549	-1.139202	-0.146975
C40	C	1.251299	-1.084353	-0.197127
C41	C	1.239233	-1.119900	-0.273728
C42	C	0.991585	-0.800836	-0.456318
C43	C	0.941330	-0.745985	-0.506466
C44	C	0.929242	-0.781532	-0.583058
C45	C	0.967404	-0.871938	-0.609505
C46	C	1.017658	-0.926789	-0.559357
C47	C	1.029748	-0.891234	-0.482766
C48	C	1.339185	-0.506124	-0.378241
C49	C	1.426435	-0.506132	-0.378251
C50	C	1.134488	-0.506026	-0.582963
C51	C	1.134508	-0.505993	-0.670213
C52	C	1.134510	-0.232071	-0.378254
C53	C	1.134540	-0.115294	-0.378269
C54	C	1.184733	-0.438796	-0.711219
C55	C	1.184742	-0.438761	-0.793199
C56	C	1.134531	-0.505930	-0.834173
C57	C	1.084300	-0.573130	-0.793161
C58	C	1.084288	-0.573159	-0.711182
C59	C	1.084332	-0.573066	-0.964032
C60	C	1.084346	-0.573039	-1.046016
C61	C	1.184787	-0.438669	-1.046048
C62	C	1.184774	-0.438698	-0.964069
C63	C	1.134545	-0.505900	-0.923064
C64	C	1.134438	-0.506105	-0.174271
C65	C	1.134570	-0.505842	-0.087022
H66	H	0.434073	-0.628193	-0.469175
O67	O	1.035674	-0.638379	-1.085860
C68	C	1.025068	-0.780121	-1.178451
C69	C	1.080281	-0.706215	-1.133361
H70	H	1.061109	-0.834970	-1.216879
H71	H	0.989167	-0.828229	-1.135105
H72	H	0.984040	-0.731820	-1.216793
H73	H	1.121356	-0.754435	-1.095018
H74	H	1.116126	-0.658104	-1.176749
H75	H	1.380636	-1.274273	-0.132589
O76	O	1.035408	-1.113617	-0.477113
C77	C	0.901873	-1.147341	-0.515074
C78	C	0.957142	-1.087035	-0.459890
H79	H	0.838583	-1.125889	-0.501159
H80	H	0.915550	-1.125670	-0.578391
H81	H	0.910574	-1.235180	-0.506492
H82	H	0.948471	-0.999182	-0.468403
H83	H	0.943452	-1.108793	-0.396594
O84	O	0.680394	-0.638792	-0.476905
C85	C	0.587850	-0.780700	-0.487275
C86	C	0.632968	-0.706672	-0.432182
H87	H	0.549507	-0.835615	-0.451138
H88	H	0.549443	-0.732598	-0.528376
H89	H	0.631248	-0.828740	-0.523104
H90	H	0.589626	-0.658616	-0.396302
H91	H	0.671387	-0.754835	-0.391132
O92	O	0.589077	-0.373459	-0.279361
C93	C	0.580402	-0.239977	-0.179965
C94	C	0.535364	-0.313978	-0.235143
H95	H	0.536994	-0.191851	-0.144212
H96	H	0.618731	-0.288100	-0.138805
H97	H	0.618833	-0.185141	-0.216076
H98	H	0.496891	-0.368829	-0.199096
H99	H	0.497084	-0.265789	-0.276306
H100	H	1.220218	-1.010748	-0.175592
H101	H	0.686872	-0.384046	-0.287312
O102	O	1.035527	-0.638462	-0.924319
C103	C	0.935907	-0.771738	-0.932934
C104	C	0.991136	-0.697736	-0.978006
H105	H	0.899991	-0.819665	-0.976320
H106	H	0.971908	-0.826751	-0.894584
H107	H	0.894895	-0.723520	-0.894521
H108	H	1.032159	-0.745869	-1.016461
H109	H	0.955087	-0.642720	-1.016306
O110	O	1.035593	-0.638593	-0.671378
C111	C	0.997427	-0.817312	-0.646289
C112	C	1.052634	-0.743328	-0.691404
H113	H	1.011173	-0.902005	-0.662476
H114	H	1.006051	-0.805882	-0.580650
H115	H	0.934140	-0.798807	-0.662382
H116	H	1.115942	-0.761787	-0.675376
H117	H	1.043942	-0.754771	-0.757031
O118	O	0.955727	-0.906643	-0.683873
C119	C	0.986930	-1.037328	-0.780798
C120	C	1.000215	-0.998155	-0.696553
H121	H	1.022902	-1.111308	-0.791082
H122	H	0.922184	-1.055538	-0.789706
H123	H	1.005908	-0.974082	-0.823997
H124	H	0.981281	-1.061355	-0.653302
H125	H	1.064964	-0.979914	-0.687711
O126	O	0.842137	-0.373614	-0.279376
C127	C	0.934618	-0.359296	-0.173377
C128	C	0.889501	-0.433262	-0.228518
H129	H	0.972910	-0.407493	-0.132233
H130	H	0.973075	-0.304437	-0.209442
H131	H	0.891218	-0.311192	-0.137598
H132	H	0.932844	-0.481435	-0.264309
H133	H	0.851033	-0.488052	-0.192408
H134	H	0.910261	-0.672368	-0.484928
O135	O	1.265755	-1.244682	-0.374626
C136	C	1.275983	-1.205479	-0.512294
C137	C	1.289228	-1.166411	-0.428015
H138	H	1.294939	-1.142207	-0.555481
H139	H	1.311917	-1.279480	-0.522634
H140	H	1.211226	-1.223652	-0.521155
H141	H	1.353964	-1.148177	-0.419094
H142	H	1.253243	-1.092445	-0.417714
O143	O	0.880421	-0.728102	-0.631681
C144	C	0.793949	-0.580326	-0.647096
C145	C	0.849227	-0.640715	-0.591954
H146	H	0.768701	-0.509673	-0.614993
H147	H	0.827943	-0.552589	-0.700707
H148	H	0.744235	-0.634063	-0.666399
H149	H	0.898952	-0.587041	-0.572591
H150	H	0.815178	-0.668467	-0.538384
H151	H	1.043414	-0.627815	-0.826529
H152	H	1.358728	-1.338758	-0.271559
H153	H	1.225575	-0.906030	-0.287222
O154	O	1.313261	-1.104857	-0.072521
C155	C	1.302957	-1.144026	0.065147
C156	C	1.289669	-1.183066	-0.019133
H157	H	1.283875	-1.207230	0.108334
H158	H	1.367716	-1.125934	0.074093
H159	H	1.267065	-1.069970	0.075404
H160	H	1.325514	-1.257144	-0.029449
H161	H	1.224894	-1.201085	-0.028039
O162	O	0.589213	-0.638640	-0.477142
C163	C	0.614317	-0.689906	-0.610596
C164	C	0.569214	-0.615947	-0.555432
H165	H	0.598151	-0.671600	-0.673904
H166	H	0.679957	-0.678340	-0.602048
H167	H	0.598190	-0.774594	-0.596663
H168	H	0.585275	-0.531230	-0.569330
H169	H	0.503585	-0.627604	-0.563990
O170	O	1.054862	-1.014541	-0.584989
C171	C	1.178590	-1.099182	-0.609458
C172	C	1.136555	-0.999751	-0.580397
H173	H	1.244646	-1.087250	-0.605771
H174	H	1.160951	-1.168699	-0.571374
H175	H	1.161282	-1.115183	-0.672803
H176	H	1.153841	-0.983652	-0.517063
H177	H	1.154196	-0.930290	-0.618536
O178	O	1.233619	-0.373593	-0.924223
C179	C	1.339525	-0.359470	-0.831619
C180	C	1.284282	-0.433331	-0.876714
H181	H	1.380489	-0.407737	-0.793185
H182	H	1.375485	-0.311436	-0.874961
H183	H	1.303454	-0.304541	-0.793282
H184	H	1.320292	-0.488323	-0.915052
H185	H	1.248320	-0.481291	-0.833329
O186	O	1.233426	-0.373396	-0.671457
C187	C	1.271600	-0.194696	-0.646450
C188	C	1.216395	-0.268647	-0.691510
H189	H	1.257861	-0.109992	-0.662659
H190	H	1.262965	-0.206163	-0.580803
H191	H	1.334888	-0.213198	-0.662570
H192	H	1.153086	-0.250190	-0.675456
H193	H	1.225098	-0.257166	-0.757146
O194	O	1.233496	-0.373408	-1.085998
C195	C	1.278048	-0.313828	-1.212306
C196	C	1.222836	-0.387769	-1.167157
H197	H	1.269459	-0.325428	-1.277930
H198	H	1.264275	-0.229097	-1.196246
H199	H	1.341331	-0.332271	-1.196156
H200	H	1.159534	-0.369420	-1.183282
H201	H	1.236676	-0.472477	-1.183220
H202	H	0.835647	-0.628165	-0.469125
H203	H	0.434026	-0.384062	-0.287340
H204	H	1.001429	-0.771879	-0.393953
H205	H	1.225642	-0.384045	-0.826582
