data_functionalizedCrystal
_audit_creation_method	'MofGen! by Chris Wilmer'
_symmetry_space_group_name_H-M	'P1'
_symmetry_Int_Tables_number	1
_symmetry_cell_setting	triclinic
loop_
_symmetry_equiv_pos_as_xyz
  x,y,z
_cell_length_a	14.853568
_cell_length_b	14.853554
_cell_length_c	13.330367
_cell_angle_alpha	90.006681
_cell_angle_beta	90.004654
_cell_angle_gamma	96.367681
loop_
_atom_site_label
_atom_site_type_symbol
_atom_site_fract_x
_atom_site_fract_y
_atom_site_fract_z
O1	O	-1.196364	0.117693	-0.083357
O2	O	-0.696364	0.617693	0.416643
O3	O	-0.933904	0.131714	-0.083373
O4	O	-0.433904	0.631714	0.416627
O5	O	-1.072151	-0.006527	-0.083359
O6	O	-0.572151	0.493473	0.416641
O7	O	-1.058117	0.255934	-0.083370
O8	O	-0.558117	0.755934	0.416630
O9	O	-1.072128	-0.006502	0.083488
O10	O	-0.572128	0.493498	0.583488
O11	O	-0.933881	0.131739	0.083474
O12	O	-0.433881	0.631739	0.583474
O13	O	-1.196341	0.117718	0.083490
O14	O	-0.696341	0.617718	0.583490
Cu15	Cu	-1.065109	0.124731	0.098717
Cu16	Cu	-0.565109	0.624731	0.598717
Cu17	Cu	-1.065136	0.124701	-0.098599
Cu18	Cu	-0.565136	0.624701	0.401401
O19	O	-1.058094	0.255959	0.083477
O20	O	-0.558094	0.755959	0.583477
C21	C	-0.900304	0.131091	0.000049
C22	C	-0.400304	0.631091	0.500049
C23	C	-0.800220	0.129187	0.000042
C24	C	-0.300220	0.629187	0.500042
C25	C	-1.071506	-0.040104	0.000063
C26	C	-0.571506	0.459896	0.500063
C27	C	-1.069607	-0.140188	0.000061
C28	C	-0.569607	0.359812	0.500061
C29	C	-0.387691	0.039020	0.000070
C30	C	0.112309	0.539020	0.500070
C31	C	-0.366402	0.203254	0.000062
C32	C	0.133598	0.703254	0.500062
C33	C	-0.460436	0.205044	0.000059
C34	C	0.039564	0.705044	0.500059
C35	C	-0.518102	0.123821	0.000059
C36	C	-0.018102	0.623821	0.500059
C37	C	-0.481734	0.040808	0.000063
C38	C	0.018266	0.540808	0.500063
C39	C	-0.496811	0.288056	0.000044
C40	C	0.003189	0.788056	0.500044
C41	C	-0.590850	0.289849	0.000039
C42	C	-0.090850	0.789849	0.500039
C43	C	-0.648517	0.208625	0.000047
C44	C	-0.148517	0.708625	0.500047
C45	C	-0.612144	0.125609	0.000053
C46	C	-0.112144	0.625609	0.500053
C47	C	-0.669810	0.044386	0.000053
C48	C	-0.169810	0.544386	0.500053
C49	C	-0.633439	-0.038632	0.000066
C50	C	-0.133439	0.461368	0.500066
C51	C	-0.539401	-0.040416	0.000071
C52	C	-0.039401	0.459584	0.500071
C53	C	-0.742555	0.210410	0.000042
C54	C	-0.242555	0.710410	0.500042
C55	C	-0.763853	0.046174	0.000047
C56	C	-0.263853	0.546174	0.500047
N57	N	-1.065097	0.124751	0.237498
N58	N	-0.565097	0.624751	0.737498
C59	C	-0.229941	0.118340	0.000067
C60	C	0.270059	0.618340	0.500067
C61	C	-0.330025	0.120243	0.000069
C62	C	0.169975	0.620243	0.500069
C63	C	-1.058739	0.289535	0.000052
C64	C	-0.558739	0.789535	0.500052
C65	C	-1.060638	0.389620	0.000048
C66	C	-0.560638	0.889620	0.500048
C67	C	-1.068723	0.812785	-0.090893
C68	C	-0.568723	1.312785	0.409107
C69	C	-1.068698	0.812797	0.091010
C70	C	-0.568698	1.312797	0.591010
C71	C	-1.066903	0.718764	0.091010
C72	C	-0.566903	1.218764	0.591010
C73	C	-1.066019	0.671737	0.000056
C74	C	-0.566019	1.171737	0.500056
C75	C	-1.066931	0.718743	-0.090896
C76	C	-0.566931	1.218743	0.409104
C77	C	-1.066000	0.671751	0.181960
C78	C	-0.566000	1.171751	0.681960
C79	C	-1.064206	0.577712	0.181963
C80	C	-0.564206	1.077712	0.681963
C81	C	-1.063316	0.530683	0.091009
C82	C	-0.563316	1.030683	0.591009
C83	C	-1.064226	0.577695	0.000052
C84	C	-0.564226	1.077695	0.500052
C85	C	-1.063343	0.530667	-0.090901
C86	C	-0.563343	1.030667	0.409099
C87	C	-1.064247	0.577678	-0.181858
C88	C	-0.564247	1.077678	0.318142
C89	C	-1.066040	0.671714	-0.181851
C90	C	-0.566040	1.171714	0.318149
C91	C	-1.061522	0.436647	0.091001
C92	C	-0.561522	0.936647	0.591001
C93	C	-1.061550	0.436625	-0.090905
C94	C	-0.561550	0.936625	0.409095
C95	C	-1.119880	0.179480	0.710112
C96	C	-0.619880	0.679480	1.210112
C97	C	-1.010402	0.069916	0.710098
C98	C	-0.510402	0.569916	1.210098
C99	C	-1.010390	0.069928	0.605080
C100	C	-0.510390	0.569928	1.105080
C101	C	-1.065125	0.124716	0.552573
C102	C	-0.565125	0.624716	1.052573
C103	C	-1.119872	0.179491	0.605084
C104	C	-0.619872	0.679491	1.105084
C105	C	-0.955651	0.015147	0.552561
C106	C	-0.455651	0.515147	1.052561
C107	C	-0.955637	0.015156	0.447537
C108	C	-0.455637	0.515156	0.947537
C109	C	-1.010368	0.069949	0.395027
C110	C	-0.510368	0.569949	0.895027
C111	C	-1.065117	0.124727	0.447545
C112	C	-0.565117	0.624727	0.947545
C113	C	-1.119852	0.179515	0.395037
C114	C	-0.619852	0.679515	0.895037
C115	C	-1.174596	0.234299	0.447553
C116	C	-0.674596	0.734299	0.947553
C117	C	-1.174603	0.234285	0.552574
C118	C	-0.674603	0.734285	1.052574
C119	C	-1.010362	0.069964	0.290006
C120	C	-0.510362	0.569964	0.790006
C121	C	-1.119844	0.179527	0.290009
C122	C	-0.619844	0.679527	0.790009
N123	N	-1.065145	0.124692	0.762619
N124	N	-0.565145	0.624692	1.262619
H125	H	-0.810799	-0.019969	0.000051
H126	H	-0.310799	0.480031	0.500051
N127	N	-1.175813	0.235422	0.763748
N128	N	-0.675813	0.735422	1.263748
N129	N	-1.259812	0.224781	0.752002
N130	N	-0.759812	0.724781	1.252002
H131	H	-1.299318	0.264290	0.789883
H132	H	-0.799318	0.764290	1.289883
N133	N	-1.230513	0.290244	0.606219
N134	N	-0.730513	0.790244	1.106219
N135	N	-1.195387	0.349777	0.664850
N136	N	-0.695387	0.849777	1.164850
H137	H	-1.234875	0.389296	0.702741
H138	H	-0.734875	0.889296	1.202741
H139	H	-1.060789	0.398375	0.165057
H140	H	-0.560789	0.898375	0.665057
H141	H	-0.965792	0.025357	0.247252
H142	H	-0.465792	0.525357	0.747252
H143	H	-1.063469	0.539444	0.256026
H144	H	-0.563469	1.039444	0.756026
H145	H	-1.164412	0.224147	0.247265
H146	H	-0.664412	0.724147	0.747265
N147	N	-0.899711	-0.040803	0.393914
N148	N	-0.399711	0.459197	0.893914
N149	N	-0.850844	-0.089714	0.440809
N150	N	-0.350844	0.410286	0.940809
H151	H	-0.811341	-0.129232	0.402938
H152	H	-0.311341	0.370768	0.902938
H153	H	-0.965845	0.025304	0.752856
H154	H	-0.465845	0.525304	1.252856
H155	H	-0.911096	-0.029466	0.595321
H156	H	-0.411096	0.470534	1.095321
H157	H	-1.219166	0.278903	0.404787
H158	H	-0.719166	0.778903	0.904787
H159	H	-0.680402	-0.104763	0.000059
H160	H	-0.180402	0.395237	0.500059
H161	H	-0.449853	0.354183	0.000033
H162	H	0.050147	0.854183	0.500033
N163	N	-1.066960	0.719748	-0.274745
N164	N	-0.566960	1.219748	0.225255
N165	N	-1.068563	0.803709	-0.274725
N166	N	-0.568563	1.303709	0.225275
H167	H	-1.069213	0.837638	-0.340330
H168	H	-0.569213	1.337638	0.159670
N169	N	-1.060637	0.388607	-0.183823
N170	N	-0.560637	0.888607	0.316177
N171	N	-1.061442	0.430593	-0.265020
N172	N	-0.561442	0.930593	0.234980
H173	H	-1.060796	0.396681	-0.330645
H174	H	-0.560796	0.896681	0.169355
N175	N	-1.069638	0.860813	-0.183790
N176	N	-0.569638	1.360813	0.316210
N177	N	-1.071230	0.944775	-0.183781
N178	N	-0.571230	1.444775	0.316219
H179	H	-1.071875	0.978698	-0.249391
H180	H	-0.571875	1.478698	0.250609
H181	H	-0.509779	-0.108005	0.000105
H182	H	-0.009779	0.391995	0.500105
H183	H	-0.358073	-0.028571	0.000084
H184	H	0.141927	0.471429	0.500084
H185	H	-1.069424	0.851092	0.165061
H186	H	-0.569424	1.351092	0.665061
H187	H	-0.620455	0.357447	0.000029
H188	H	-0.120455	0.857447	0.500029
N189	N	-0.307486	0.286205	0.000064
N190	N	0.192514	0.786205	0.500064
N191	N	-0.252627	0.303535	0.070391
N192	N	0.247373	0.803535	0.570391
H193	H	-0.211011	0.362123	0.070392
H194	H	0.288989	0.862123	0.570392
N195	N	-0.779693	0.295207	0.000020
N196	N	-0.279693	0.795207	0.500020
N197	N	-0.728196	0.367720	0.000011
N198	N	-0.228196	0.867720	0.500011
H199	H	-0.754423	0.427613	-0.000003
H200	H	-0.254423	0.927613	0.499997
H201	H	-1.066727	0.710046	0.256010
H202	H	-0.566727	1.210046	0.756010
N203	N	-1.063365	0.529635	-0.274763
N204	N	-0.563365	1.029635	0.225237
N205	N	-1.125875	0.468929	-0.295048
N206	N	-0.625875	0.968929	0.204952
H207	H	-1.125255	0.434995	-0.360660
H208	H	-0.625255	0.934995	0.139340
