data_functionalizedCrystal
_audit_creation_method	'MofGen! by Chris Wilmer'
_symmetry_space_group_name_H-M	'P1'
_symmetry_Int_Tables_number	1
_symmetry_cell_setting	triclinic
loop_
_symmetry_equiv_pos_as_xyz
  x,y,z
_cell_length_a	23.532407
_cell_length_b	19.288857
_cell_length_c	22.010155
_cell_angle_alpha	89.993772
_cell_angle_beta	89.989184
_cell_angle_gamma	82.990893
loop_
_atom_site_label
_atom_site_type_symbol
_atom_site_fract_x
_atom_site_fract_y
_atom_site_fract_z
O1	O	0.755442	0.084316	-0.050452
O2	O	0.589604	0.096516	-0.050470
O3	O	0.677317	-0.010729	-0.050453
O4	O	0.667729	0.191562	-0.050469
O5	O	0.677290	-0.010728	0.050597
O6	O	0.589577	0.096518	0.050580
O7	O	0.755415	0.084317	0.050598
Cu8	Cu	0.672493	0.090418	0.059816
Cu9	Cu	0.672526	0.090416	-0.059688
O10	O	0.667702	0.191563	0.050581
C11	C	0.568374	0.096206	0.000052
C12	C	0.505155	0.095272	0.000046
C13	C	0.106170	0.152879	0.000069
C14	C	0.046768	0.152012	0.000073
O15	O	0.010133	0.205414	0.000091
N16	N	0.024011	0.088254	0.000077
C17	C	0.060659	0.025360	0.000083
O18	O	0.035848	-0.028950	0.000087
C19	C	0.120060	0.026229	0.000083
C20	C	0.142814	0.089990	0.000073
C21	C	0.128924	0.216636	0.000059
C22	C	0.188322	0.217503	0.000055
C23	C	0.224966	0.154614	0.000059
C24	C	0.202212	0.090858	0.000068
C25	C	0.156708	-0.036664	0.000094
C26	C	0.216112	-0.035790	0.000095
C27	C	0.238865	0.027971	0.000085
C28	C	0.298253	0.028836	0.000068
N29	N	0.321010	0.092594	0.000064
C30	C	0.284366	0.155483	0.000060
C31	C	-0.064087	0.023541	0.000083
C32	C	-0.123487	0.022672	0.000078
C33	C	-0.137374	0.149324	0.000069
C34	C	-0.077973	0.150192	0.000069
C35	C	-0.041330	0.087299	0.000079
C36	C	0.409107	0.157299	0.000049
C37	C	0.468511	0.158161	0.000041
C38	C	0.482393	0.031510	0.000054
C39	C	0.422995	0.030648	0.000058
C40	C	0.386352	0.093548	0.000057
O41	O	0.334923	-0.024538	0.000053
O42	O	0.309186	0.209784	0.000063
C43	C	0.676996	-0.036604	0.000072
C44	C	0.676072	-0.113705	0.000074
C45	C	0.776645	0.084627	0.000074
C46	C	0.839864	0.085562	0.000077
C47	C	0.675656	-0.149915	-0.055009
C48	C	0.674779	-0.222358	-0.055013
C49	C	0.674331	-0.258591	0.000068
C50	C	0.674744	-0.222372	0.055158
C51	C	0.675615	-0.149929	0.055161
C52	C	0.706298	-0.378921	0.042267
C53	C	0.705431	-0.451363	0.042261
C54	C	0.671643	-0.482028	0.000061
C55	C	0.638730	-0.440244	-0.042145
C56	C	0.639601	-0.367802	-0.042142
C57	C	0.673387	-0.337143	0.000071
C58	C	0.670276	-0.596790	-0.055031
C59	C	0.669396	-0.669234	-0.055033
C60	C	0.669367	-0.669247	0.055140
C61	C	0.670241	-0.596803	0.055140
C62	C	0.670698	-0.560579	0.000053
C63	C	0.668023	0.217438	0.000054
C64	C	0.668947	0.294539	0.000049
N65	N	0.672475	0.090418	0.143868
C66	C	0.706952	0.132329	0.563648
C67	C	0.706958	0.132328	0.627256
O68	O	0.736254	0.167955	0.660148
N69	N	0.672531	0.090416	0.659075
C70	C	0.638099	0.048496	0.627284
O71	O	0.608817	0.012845	0.660189
C72	C	0.638096	0.048494	0.563677
C73	C	0.672522	0.090415	0.531861
C74	C	0.741375	0.174246	0.531832
C75	C	0.741367	0.174248	0.468229
C76	C	0.706937	0.132333	0.436442
C77	C	0.672515	0.090416	0.468258
C78	C	0.603669	0.006571	0.531887
C79	C	0.603669	0.006572	0.468276
C80	C	0.638094	0.048493	0.436460
C81	C	0.638077	0.048503	0.372868
N82	N	0.672505	0.090416	0.341048
C83	C	0.706935	0.132331	0.372835
C84	C	0.638108	0.048503	0.760862
C85	C	0.638108	0.048508	0.824467
C86	C	0.706967	0.132340	0.824435
C87	C	0.706964	0.132338	0.760828
C88	C	0.672536	0.090415	0.729042
C89	C	0.706917	0.132332	0.239264
C90	C	0.706905	0.132333	0.175655
C91	C	0.638048	0.048499	0.175693
C92	C	0.638057	0.048501	0.239296
C93	C	0.672496	0.090420	0.271080
O94	O	0.608798	0.012893	0.339935
O95	O	0.736218	0.167969	0.339922
N96	N	0.672540	0.090421	0.856259
H97	H	0.245945	-0.087007	0.000103
H98	H	0.206841	0.269424	0.000046
O99	O	0.134709	-0.098664	0.000136
C100	C	0.179801	-0.153976	0.000131
H101	H	0.220101	-0.134777	0.019253
H102	H	0.167501	-0.198514	0.029481
H103	H	0.188262	-0.173364	-0.048344
H104	H	0.674437	-0.251846	-0.099870
O105	O	-0.028517	-0.037576	-0.000026
C106	C	-0.038814	-0.076313	-0.052352
H107	H	-0.059198	-0.039494	-0.088931
H108	H	0.003400	-0.104473	-0.069920
H109	H	-0.068970	-0.116296	-0.040518
O110	O	-0.172895	0.210480	0.000043
C111	C	-0.140080	0.266947	0.000055
H112	H	-0.095698	0.249011	-0.019079
H113	H	-0.162102	0.310985	-0.029282
H114	H	-0.135906	0.286508	0.048533
H115	H	0.735001	0.166470	0.850327
H116	H	0.674377	-0.251877	0.100005
H117	H	0.675951	-0.120447	0.100017
H118	H	0.670645	-0.567294	-0.099886
O119	O	0.740450	0.173014	0.270066
C120	C	0.798303	0.153402	0.254514
H121	H	0.800812	0.126441	0.208336
H122	H	0.821494	0.201894	0.252317
H123	H	0.819385	0.116015	0.290312
H124	H	0.379279	0.208519	0.000050
H125	H	0.734938	0.166473	0.149753
H126	H	-0.142007	-0.029249	0.000077
O127	O	0.740460	0.173074	0.730019
C128	C	0.770834	0.210082	0.771722
H129	H	0.774231	0.181305	0.817065
H130	H	0.815605	0.214115	0.753338
H131	H	0.747229	0.264749	0.778486
H132	H	0.610068	0.014380	0.850366
H133	H	0.669054	-0.698714	-0.099890
H134	H	0.575637	-0.027567	0.557781
O135	O	0.605970	-0.469999	-0.083221
C136	C	0.623667	-0.455188	-0.142531
H137	H	0.669832	-0.442928	-0.141351
H138	H	0.620640	-0.502415	-0.172965
H139	H	0.594838	-0.408246	-0.161236
O140	O	0.400983	-0.031350	0.000086
C141	C	0.446067	-0.086670	0.000068
H142	H	0.486372	-0.067486	0.019192
H143	H	0.433761	-0.131212	0.029410
H144	H	0.454523	-0.106046	-0.048411
H145	H	0.610067	0.014367	0.734985
H146	H	0.512239	-0.019692	0.000055
O147	O	0.676067	-0.114831	-0.108573
C148	C	0.675525	-0.162333	-0.157192
H149	H	0.656876	-0.210975	-0.141046
H150	H	0.648144	-0.136798	-0.195721
H151	H	0.721117	-0.177638	-0.174123
H152	H	0.099093	0.267851	0.000058
H153	H	0.487033	0.210086	0.000033
O154	O	0.774867	0.214982	0.437421
C155	C	0.805244	0.251983	0.479128
H156	H	0.808637	0.223204	0.524469
H157	H	0.850016	0.256010	0.460745
H158	H	0.781643	0.306652	0.485893
H159	H	0.668997	-0.698746	0.099988
O160	O	0.570169	-0.034169	0.437495
C161	C	0.539801	-0.071179	0.479222
H162	H	0.536407	-0.042402	0.524560
H163	H	0.495029	-0.075214	0.460861
H164	H	0.563408	-0.125845	0.485985
O165	O	0.604598	0.007720	0.270111
C166	C	0.574195	-0.029256	0.228410
H167	H	0.597775	-0.033448	0.183061
H168	H	0.570809	-0.083858	0.246788
H169	H	0.529418	-0.000364	0.221661
O170	O	0.607596	-0.327129	-0.083053
C171	C	0.568311	-0.278620	-0.051939
H172	H	0.584801	-0.270506	-0.004082
H173	H	0.563310	-0.226735	-0.077358
H174	H	0.525057	-0.299391	-0.049216
H175	H	-0.059452	0.202112	0.000065
H176	H	0.670585	-0.567321	0.099995
O177	O	0.737416	-0.491843	0.083316
C178	C	0.767428	-0.449246	0.120561
H179	H	0.744458	-0.393680	0.120485
H180	H	0.769316	-0.470543	0.168931
H181	H	0.812779	-0.449070	0.102386
H182	H	0.769415	0.208379	0.557706
H183	H	0.733811	-0.353959	0.076637
O184	O	0.604575	0.007880	0.144740
C185	C	0.565593	0.050471	0.107962
H186	H	0.583172	0.101907	0.098430
H187	H	0.559331	0.022589	0.063235
H188	H	0.522755	0.061357	0.132479
