data_functionalizedCrystal
_audit_creation_method	'MofGen! by Chris Wilmer'
_symmetry_space_group_name_H-M	'P1'
_symmetry_Int_Tables_number	1
_symmetry_cell_setting	triclinic
loop_
_symmetry_equiv_pos_as_xyz
  x,y,z
_cell_length_a	16.992694
_cell_length_b	16.992695
_cell_length_c	16.053802
_cell_angle_alpha	92.741074
_cell_angle_beta	87.249047
_cell_angle_gamma	90.668223
loop_
_atom_site_label
_atom_site_type_symbol
_atom_site_fract_x
_atom_site_fract_y
_atom_site_fract_z
O1	O	1.053959	0.163815	-0.069325
O2	O	1.553959	0.663815	0.430675
O3	O	0.825560	0.161983	-0.069350
O4	O	1.325560	0.661983	0.430650
O5	O	0.938844	0.048699	-0.069331
O6	O	1.438844	0.548699	0.430669
O7	O	0.940676	0.277099	-0.069344
O8	O	1.440676	0.777099	0.430656
O9	O	0.932607	0.054907	0.069527
O10	O	1.432607	0.554907	0.569527
O11	O	0.819323	0.168191	0.069508
O12	O	1.319323	0.668191	0.569508
O13	O	1.047722	0.170023	0.069533
O14	O	1.547722	0.670023	0.569533
Zn15	Zn	0.932532	0.170093	0.091567
Zn16	Zn	1.432532	0.670093	0.591567
Zn17	Zn	0.940750	0.161913	-0.091384
Zn18	Zn	1.440750	0.661913	0.408616
O19	O	0.934438	0.283307	0.069514
O20	O	1.434438	0.783307	0.569514
C21	C	0.793082	0.162731	0.000076
C22	C	1.293082	0.662731	0.500076
C23	C	0.705597	0.155702	0.000067
C24	C	1.205597	0.655702	0.500067
C25	C	0.659607	0.223520	0.000064
C26	C	1.159607	0.723520	0.500064
C27	C	0.577405	0.216911	0.000076
C28	C	1.077405	0.716911	0.500076
C29	C	0.541197	0.142484	0.000085
C30	C	1.041197	0.642484	0.500085
C31	C	0.587193	0.074661	0.000091
C32	C	1.087193	0.574661	0.500091
C33	C	0.669393	0.081270	0.000085
C34	C	1.169393	0.581270	0.500085
C35	C	0.295881	0.115090	0.000109
C36	C	0.795881	0.615090	0.500109
C37	C	0.213676	0.108486	0.000112
C38	C	0.713676	0.608486	0.500112
C39	C	0.203893	0.250737	0.000099
C40	C	0.703893	0.750737	0.500099
C41	C	0.286095	0.257339	0.000088
C42	C	0.786095	0.757339	0.500088
C43	C	0.332084	0.189517	0.000098
C44	C	0.832084	0.689517	0.500098
N45	N	0.457174	0.135727	0.000094
N46	N	0.957174	0.635727	0.500094
N47	N	0.416105	0.196275	0.000094
N48	N	0.916105	0.696275	0.500094
C49	C	0.933370	0.022443	0.000098
C50	C	1.433370	0.522443	0.500098
C51	C	0.926341	-0.065042	0.000097
C52	C	1.426341	0.434958	0.500097
C53	C	0.994158	-0.111032	0.000105
C54	C	1.494158	0.388968	0.500105
C55	C	0.987550	-0.193233	0.000096
C56	C	1.487550	0.306767	0.500096
C57	C	0.913123	-0.229442	0.000086
C58	C	1.413123	0.270558	0.500086
C59	C	0.845300	-0.183446	0.000075
C60	C	1.345300	0.316554	0.500075
C61	C	0.851910	-0.101246	0.000078
C62	C	1.351910	0.398754	0.500078
C63	C	0.885729	-0.474757	0.000071
C64	C	1.385729	0.025243	0.500071
C65	C	0.879124	-0.556962	0.000071
C66	C	1.379124	-0.056962	0.500071
C67	C	1.021375	-0.566745	0.000091
C68	C	1.521375	-0.066745	0.500091
C69	C	1.027978	-0.484543	0.000099
C70	C	1.527978	0.015457	0.500099
C71	C	0.960155	-0.438554	0.000083
C72	C	1.460155	0.061446	0.500083
N73	N	0.906366	-0.313465	0.000079
N74	N	1.406366	0.186535	0.500079
N75	N	0.966913	-0.354533	0.000084
N76	N	1.466913	0.145467	0.500084
C77	C	1.080201	0.169275	0.000105
C78	C	1.580201	0.669275	0.500105
C79	C	1.167685	0.176304	0.000109
C80	C	1.667685	0.676304	0.500109
C81	C	0.939913	0.309563	0.000084
C82	C	1.439913	0.809563	0.500084
C83	C	0.946942	0.397047	0.000079
C84	C	1.446942	0.897047	0.500079
N85	N	0.926930	0.175675	0.216427
N86	N	1.426930	0.675675	0.716427
N87	N	0.946358	0.156325	-0.216243
N88	N	1.446358	0.656325	0.283757
C89	C	0.975152	0.127492	0.260129
C90	C	1.475152	0.627492	0.760129
C91	C	0.971241	0.131404	0.347535
C92	C	1.471241	0.631404	0.847535
C93	C	0.919110	0.183504	0.391237
C94	C	1.419110	0.683504	0.891237
C95	C	0.870883	0.231689	0.347529
C96	C	1.370883	0.731689	0.847529
C97	C	0.874791	0.227772	0.260125
C98	C	1.374791	0.727772	0.760125
C99	C	0.902039	0.200593	0.652644
C100	C	1.402039	0.700593	1.152644
C101	C	0.898136	0.204508	0.740055
C102	C	1.398136	0.704508	1.240055
C103	C	0.998493	0.104222	0.740054
C104	C	1.498493	0.604222	1.240054
C105	C	1.002400	0.100313	0.652648
C106	C	1.502400	0.600313	1.152648
C107	C	0.954169	0.148494	0.608948
C108	C	1.454169	0.648494	1.108948
N109	N	0.915113	0.187507	0.480580
N110	N	1.415113	0.687507	0.980580
N111	N	0.958163	0.144487	0.519606
N112	N	1.458163	0.644487	1.019606
H113	H	0.706838	0.026046	0.000087
H114	H	1.206838	0.526046	0.500087
H115	H	0.557705	0.014061	0.000110
H116	H	1.057705	0.514061	0.500110
H117	H	1.054765	-0.081557	0.000119
H118	H	1.554765	0.418443	0.500119
C119	C	1.128819	-0.194645	0.000136
C120	C	1.628819	0.305355	0.500136
C121	C	1.062097	-0.243786	0.000115
C122	C	1.562097	0.256214	0.500115
H123	H	1.174842	-0.225855	0.000153
H124	H	1.674842	0.274145	0.500153
H125	H	1.130619	-0.164544	-0.048284
H126	H	1.630619	0.335456	0.451716
H127	H	1.126250	-0.160217	0.048562
H128	H	1.626250	0.339783	0.548562
H129	H	1.064663	-0.278210	-0.048315
H130	H	1.564663	0.221790	0.451685
H131	H	1.060297	-0.273900	0.048539
H132	H	1.560297	0.226100	0.548539
H133	H	1.088584	-0.455068	0.000108
H134	H	1.588584	0.044932	0.500108
H135	H	0.828433	0.274107	0.383117
H136	H	1.328433	0.774107	0.883117
C137	C	0.838305	0.359920	0.233188
C138	C	1.338305	0.859920	0.733188
C139	C	0.821788	0.280739	0.212082
C140	C	1.321788	0.780739	0.712082
H141	H	0.805583	0.392617	0.203524
H142	H	1.305583	0.892617	0.703524
H143	H	0.828514	0.369705	0.291489
H144	H	1.328514	0.869705	0.791489
H145	H	0.892019	0.371139	0.218850
H146	H	1.392019	0.871139	0.718850
H147	H	0.768075	0.269518	0.226426
H148	H	1.268075	0.769518	0.726426
H149	H	0.831573	0.270950	0.153768
H150	H	1.331573	0.770950	0.653768
C151	C	0.805833	-0.678626	0.000070
C152	C	1.305833	-0.178626	0.500070
C153	C	0.797308	-0.596766	0.000060
C154	C	1.297308	-0.096766	0.500060
H155	H	0.755325	-0.703197	0.000071
H156	H	1.255325	-0.203197	0.500071
H157	H	0.836145	-0.696266	-0.048345
H158	H	1.336145	-0.196266	0.451655
H159	H	0.831800	-0.691931	0.048501
H160	H	1.331800	-0.191931	0.548501
H161	H	0.771346	-0.583460	-0.048375
H162	H	1.271346	-0.083460	0.451625
H163	H	0.766984	-0.579120	0.048480
H164	H	1.266984	-0.079120	0.548480
C165	C	0.332713	-0.007313	-0.071269
C166	C	0.832713	0.492687	0.428731
C167	C	0.346424	0.040539	0.000111
C168	C	0.846424	0.540539	0.500111
H169	H	0.363922	-0.053338	-0.071268
H170	H	0.863922	0.446662	0.428732
H171	H	0.278581	-0.021891	-0.071260
H172	H	0.778581	0.478109	0.428740
H173	H	0.346350	0.020837	-0.119687
H174	H	0.846350	0.520837	0.380313
H175	H	0.332782	0.012391	0.048530
H176	H	0.832782	0.512391	0.548530
H177	H	0.400568	0.055116	0.000110
H178	H	0.900568	0.555116	0.500110
H179	H	0.796685	-0.063801	0.000071
H180	H	1.296685	0.436199	0.500071
C181	C	0.705357	-0.165514	0.000044
C182	C	1.205357	0.334486	0.500044
C183	C	0.763487	-0.223244	0.000057
C184	C	1.263487	0.276756	0.500057
H185	H	0.654850	-0.190085	0.000029
H186	H	1.154850	0.309915	0.500029
H187	H	0.708715	-0.131498	0.048466
H188	H	1.208715	0.368502	0.548466
H189	H	0.713079	-0.135817	-0.048380
H190	H	1.213079	0.364183	0.451620
H191	H	0.755769	-0.252937	0.048485
H192	H	1.255769	0.247063	0.548485
H193	H	0.760127	-0.257273	-0.048370
H194	H	1.260127	0.242727	0.451630
H195	H	1.037759	0.064994	0.775643
H196	H	1.537759	0.564994	1.275643
C197	C	1.074409	-0.697094	0.000087
C198	C	1.574409	-0.197094	0.500087
C199	C	1.095922	-0.617298	0.000096
C200	C	1.595922	-0.117298	0.500096
H201	H	1.120435	-0.728302	0.000082
H202	H	1.620435	-0.228302	0.500082
H203	H	1.041936	-0.706391	0.048505
H204	H	1.541936	-0.206391	0.548505
H205	H	1.046275	-0.710707	-0.048341
H206	H	1.546275	-0.210707	0.451659
H207	H	1.124051	-0.603683	0.048527
H208	H	1.624051	-0.103683	0.548527
H209	H	1.128408	-0.607996	-0.048327
H210	H	1.628408	-0.107996	0.451673
H211	H	0.689081	0.284126	0.000056
H212	H	1.189081	0.784126	0.500056
H213	H	0.830503	-0.437322	0.000059
H214	H	1.330503	0.062678	0.500059
C215	C	1.072898	0.125516	0.445825
C216	C	1.572898	0.625516	0.945825
C217	C	1.024249	0.078447	0.395580
C218	C	1.524249	0.578447	0.895580
H219	H	1.105620	0.092820	0.475491
H220	H	1.605620	0.592820	0.975491
H221	H	1.104787	0.158540	0.411718
H222	H	1.604787	0.658540	0.911718
H223	H	1.041278	0.157101	0.484353
H224	H	1.541278	0.657101	0.984353
H225	H	1.055869	0.046867	0.357047
H226	H	1.555869	0.546867	0.857047
H227	H	0.992357	0.045410	0.429690
H228	H	1.492357	0.545410	0.929690
C229	C	0.896064	0.302248	0.554351
C230	C	1.396064	0.802248	1.054351
C231	C	0.849035	0.253568	0.604619
C232	C	1.349035	0.753568	1.104619
H233	H	0.863340	0.334953	0.524698
H234	H	1.363340	0.834953	1.024698
H235	H	0.929078	0.334152	0.588441
H236	H	1.429078	0.834152	1.088441
H237	H	0.927658	0.270649	0.515812
H238	H	1.427658	0.770649	1.015812
H239	H	0.817445	0.285166	0.643163
H240	H	1.317445	0.785166	1.143163
H241	H	0.816007	0.221660	0.570526
H242	H	1.316007	0.721660	1.070526
H243	H	0.539963	0.272136	0.000072
H244	H	1.039963	0.772136	0.500072
H245	H	0.184198	0.047875	0.000119
H246	H	0.684198	0.547875	0.500119
H247	H	1.017605	0.085070	0.224552
H248	H	1.517605	0.585070	0.724552
H249	H	1.044848	0.057889	0.617067
H250	H	1.544848	0.557889	1.117067
C251	C	0.202482	0.392006	0.000082
C252	C	0.702482	0.892006	0.500082
C253	C	0.153341	0.325285	0.000093
C254	C	0.653341	0.825285	0.500093
H255	H	0.171272	0.438030	0.000075
H256	H	0.671272	0.938030	0.500075
H257	H	0.232576	0.393790	0.048500
H258	H	0.732576	0.893790	0.548500
H259	H	0.236917	0.389453	-0.048346
H260	H	0.736917	0.889453	0.451654
H261	H	0.118910	0.327836	0.048524
H262	H	0.618910	0.827836	0.548524
H263	H	0.123234	0.323501	-0.048331
H264	H	0.623234	0.823501	0.451669
C265	C	0.799303	0.303227	0.731281
C266	C	1.299303	0.803227	1.231281
C267	C	0.840818	0.261769	0.788095
C268	C	1.340818	0.761769	1.288095
H269	H	0.763916	0.338569	0.760941
H270	H	1.263916	0.838569	1.260941
H271	H	0.835358	0.332097	0.697184
H272	H	1.335358	0.832097	1.197184
H273	H	0.770469	0.267127	0.697196
H274	H	1.270469	0.767127	1.197196
H275	H	0.869657	0.297868	0.822176
H276	H	1.369657	0.797868	1.322176
H277	H	0.804758	0.232897	0.822206
H278	H	1.304758	0.732897	1.322206
H279	H	0.315571	0.317945	0.000071
H280	H	0.815571	0.817945	0.500071
