data_functionalizedCrystal
_audit_creation_method	'MofGen! by Chris Wilmer'
_symmetry_space_group_name_H-M	'P1'
_symmetry_Int_Tables_number	1
_symmetry_cell_setting	triclinic
loop_
_symmetry_equiv_pos_as_xyz
  x,y,z
_cell_length_a	14.971486
_cell_length_b	7.681481
_cell_length_c	8.559649
_cell_angle_alpha	85.068589
_cell_angle_beta	103.303603
_cell_angle_gamma	84.264653
loop_
_atom_site_label
_atom_site_type_symbol
_atom_site_fract_x
_atom_site_fract_y
_atom_site_fract_z
O1	O	1.163036	0.146224	-0.223288
O2	O	0.900906	0.146272	-0.248225
O3	O	1.055065	0.146240	-0.003198
O4	O	1.008877	0.146256	-0.468315
O5	O	1.074044	-0.146622	0.027029
O6	O	0.919885	-0.146590	-0.217998
O7	O	1.182016	-0.146638	-0.193061
Zn8	Zn	1.053964	-0.193112	-0.200730
Zn9	Zn	1.028958	0.192746	-0.240556
O10	O	1.027856	-0.146605	-0.438088
C11	C	0.877147	-0.000153	-0.231997
C12	C	0.778081	-0.000135	-0.228658
N13	N	1.071036	-0.456450	-0.173549
C14	C	0.710881	-0.000132	-0.372603
C15	C	0.617801	-0.000159	-0.369451
C16	C	0.591923	-0.000175	-0.222354
C17	C	0.659131	-0.000183	-0.078397
C18	C	0.752209	-0.000169	-0.081549
C19	C	0.465124	-0.000208	-0.071837
C20	C	0.372039	-0.000218	-0.068684
C21	C	0.330716	-0.000197	-0.359739
C22	C	0.423795	-0.000183	-0.362892
C23	C	0.490996	-0.000188	-0.218934
C24	C	1.205774	-0.000209	-0.209289
C25	C	1.304840	-0.000215	-0.212630
C26	C	1.068055	-0.000189	0.071439
C27	C	1.078473	-0.000183	0.248798
N28	N	1.011893	0.456084	-0.267724
C29	C	1.014866	-0.000173	-0.512725
C30	C	1.004447	-0.000167	-0.690086
H31	H	0.731942	-0.000118	-0.492387
Cl32	Cl	0.894283	-0.000164	0.181208
Cl33	Cl	0.339511	-0.000298	0.116247
H34	H	1.149822	-0.000202	0.332161
H35	H	0.563089	-0.000155	-0.486666
H36	H	0.444860	-0.000153	-0.482673
Cl37	Cl	0.246236	-0.000195	-0.540714
H38	H	0.519839	-0.000214	0.045389
H39	H	0.806924	-0.000170	0.035666
Cl40	Cl	0.918680	-0.427801	-0.416136
Cl41	Cl	1.164262	-0.572571	-0.025147
Cl42	Cl	0.626598	-0.000215	0.106529
