data_functionalizedCrystal
_audit_creation_method	'MofGen! by Chris Wilmer'
_symmetry_space_group_name_H-M	'P1'
_symmetry_Int_Tables_number	1
_symmetry_cell_setting	triclinic
loop_
_symmetry_equiv_pos_as_xyz
  x,y,z
_cell_length_a	6.817900
_cell_length_b	9.582889
_cell_length_c	11.168136
_cell_angle_alpha	91.014113
_cell_angle_beta	108.508683
_cell_angle_gamma	111.207298
loop_
_atom_site_label
_atom_site_type_symbol
_atom_site_fract_x
_atom_site_fract_y
_atom_site_fract_z
V1	V	-4.124189	-0.207078	-0.393468
V2	V	-3.624189	0.292922	0.106532
O3	O	-4.068780	0.009928	-0.386216
O4	O	-3.568780	0.509928	0.113784
O5	O	-4.114537	-0.410579	-0.390548
O6	O	-3.614537	0.089421	0.109452
O7	O	-4.100261	-0.203903	-0.565177
O8	O	-3.600261	0.296097	-0.065177
O9	O	-4.083156	-0.198179	-0.210378
O10	O	-3.583156	0.301821	0.289622
V11	V	-4.599626	-0.181121	-0.371597
V12	V	-4.099626	0.318879	0.128403
O13	O	-4.403187	-0.264018	-0.441444
O14	O	-3.903187	0.235982	0.058556
O15	O	-4.770825	-0.124180	-0.323620
O16	O	-4.270825	0.375820	0.176380
O17	O	-4.386071	0.022380	-0.374517
O18	O	-3.886071	0.522380	0.125483
O19	O	-4.772431	-0.398127	-0.378849
O20	O	-4.272431	0.101873	0.121151
O21	O	-4.758056	-0.190020	-0.554687
O22	O	-4.258056	0.309980	-0.054687
O23	O	-4.400348	-0.184296	-0.199887
O24	O	-3.900348	0.315704	0.300113
C25	C	-3.968173	-0.460188	-0.384282
C26	C	-3.468173	0.039812	0.115718
C27	C	-4.041731	-0.626552	-0.383039
C28	C	-3.541731	-0.126552	0.116961
C29	C	-3.949960	-0.196550	-0.607037
C30	C	-3.449960	0.303450	-0.107037
C31	C	-4.011935	-0.195301	-0.747409
C32	C	-3.511935	0.304699	-0.247409
C33	C	-4.214895	-0.201842	-0.816094
C34	C	-3.714895	0.298158	-0.316094
C35	C	-4.278954	-0.200550	-0.961175
C36	C	-3.778954	0.299450	-0.461175
C37	C	-4.195779	0.071981	-0.380779
C38	C	-3.695779	0.571981	0.119221
C39	C	-4.101460	0.238344	-0.382030
C40	C	-3.601460	0.738344	0.117970
C41	C	-4.213991	-0.191653	-0.158021
C42	C	-3.713991	0.308347	0.341979
C43	C	-4.131252	-0.192895	-0.017648
C44	C	-3.631252	0.307105	0.482352
H45	H	-4.452826	-0.206157	-1.020220
H46	H	-3.952826	0.293843	-0.520220
H47	H	-4.341227	-0.208387	-0.767488
H48	H	-3.841227	0.291613	-0.267488
H49	H	-3.957385	-0.187305	-0.958613
H50	H	-3.457385	0.312695	-0.458613
N51	N	-3.844541	-0.186622	-0.811754
N52	N	-3.344541	0.313378	-0.311754
H53	H	-3.813476	-0.092607	-0.854041
H54	H	-3.313476	0.407393	-0.354041
H55	H	-3.907800	-0.279077	-0.878297
H56	H	-3.407800	0.220923	-0.378297
