data_functionalizedCrystal
_audit_creation_method	'MofGen! by Chris Wilmer'
_symmetry_space_group_name_H-M	'P1'
_symmetry_Int_Tables_number	1
_symmetry_cell_setting	triclinic
loop_
_symmetry_equiv_pos_as_xyz
  x,y,z
_cell_length_a	22.010155
_cell_length_b	10.540539
_cell_length_c	10.540539
_cell_angle_alpha	95.474508
_cell_angle_beta	89.986937
_cell_angle_gamma	90.000085
loop_
_atom_site_label
_atom_site_type_symbol
_atom_site_fract_x
_atom_site_fract_y
_atom_site_fract_z
O1	O	0.050493	-1.685885	0.178872
O2	O	0.050501	-1.316472	0.195728
O3	O	0.050496	-1.509607	0.002593
O4	O	0.050498	-1.492751	0.372006
O5	O	-0.050554	-1.509594	0.002644
O6	O	-0.050550	-1.316459	0.195779
O7	O	-0.050557	-1.685872	0.178923
Cu8	Cu	-0.059780	-1.501165	0.187356
Cu9	Cu	0.059724	-1.501180	0.187295
O10	O	-0.050552	-1.492738	0.372057
C11	C	-0.000024	-1.269163	0.194489
C12	C	-0.000021	-1.128215	0.190707
C13	C	-0.000028	-1.508336	-0.044684
C14	C	-0.000025	-1.504554	-0.185632
N15	N	-0.143833	-1.501163	0.187397
C16	C	-0.436443	-1.415612	0.272816
C17	C	-0.372835	-1.415609	0.272827
O18	O	-0.339942	-1.342834	0.345505
N19	N	-0.341017	-1.501153	0.187349
C20	C	-0.372809	-1.586696	0.101845
O21	O	-0.339905	-1.659456	0.029139
C22	C	-0.436416	-1.586692	0.101829
C23	C	-0.468231	-1.501152	0.187321
C24	C	-0.468257	-1.330078	0.358301
C25	C	-0.531861	-1.330083	0.358291
C26	C	-0.563649	-1.415622	0.272796
C27	C	-0.531834	-1.501157	0.187311
C28	C	-0.468207	-1.672228	0.016319
C29	C	-0.531818	-1.672216	0.016310
C30	C	-0.563633	-1.586676	0.101802
C31	C	-0.627226	-1.586701	0.101806
N32	N	-0.659044	-1.501158	0.187284
C33	C	-0.627255	-1.415618	0.272779
C34	C	-0.239232	-1.586696	0.101885
C35	C	-0.175626	-1.586707	0.101906
C36	C	-0.175656	-1.415619	0.272888
C37	C	-0.239263	-1.415615	0.272871
C38	C	-0.271050	-1.501153	0.187363
C39	C	-0.760827	-1.415636	0.272752
C40	C	-0.824436	-1.415652	0.272738
C41	C	-0.824400	-1.586736	0.101753
C42	C	-0.760797	-1.586725	0.101771
C43	C	-0.729012	-1.501164	0.187276
O44	O	-0.660159	-1.659435	0.029162
O45	O	-0.660168	-1.342859	0.345461
N46	N	0.143776	-1.501192	0.187243
C47	C	-0.000031	-1.733182	0.180161
C48	C	-0.000030	-1.874130	0.183943
C49	C	-0.000257	-0.944788	0.045790
C50	C	-0.000023	-1.091406	0.049624
C51	C	0.057682	-1.066550	0.258573
C52	C	0.057724	-0.920005	0.253758
C53	C	-0.057189	-0.919502	0.256687
C54	C	-0.057946	-1.066484	0.257986
C55	C	0.000205	-1.359637	-0.369059
C56	C	-0.000023	-1.363471	-0.222441
C57	C	-0.057731	-1.572442	-0.247261
C58	C	-0.057779	-1.567627	-0.393805
C59	C	0.057134	-1.570512	-0.394382
C60	C	0.057897	-1.571811	-0.247400
C61	C	-0.000027	-1.494008	0.419335
C62	C	-0.000026	-1.497790	0.560283
H63	H	-0.850337	-1.345995	0.342361
H64	H	-0.061429	-1.090710	0.360847
H65	H	-0.734954	-1.345964	0.342376
F66	F	-0.113742	-1.119890	0.193081
F67	F	-0.273057	-1.677752	0.010878
F68	F	0.061148	-0.857303	0.386376
F69	F	-0.565715	-1.239035	0.449277
H70	H	-0.442313	-1.741881	-0.053297
H71	H	-0.040943	-1.304127	-0.399246
F72	F	-0.726938	-1.677781	0.010793
H73	H	-0.041455	-1.309667	-0.180664
H74	H	-0.557696	-1.741870	-0.053325
F75	F	-0.858241	-1.677772	0.010769
H76	H	0.100871	-1.524856	-0.425957
F77	F	-0.434435	-1.239027	0.449302
H78	H	0.100625	-1.109144	0.211387
H79	H	0.059829	-1.088903	0.362180
F80	F	-0.114157	-1.502029	-0.430639
H81	H	-0.057578	-0.872275	0.358590
H82	H	0.041343	-1.310052	-0.179859
F83	F	0.113703	-1.507394	-0.193429
H84	H	-0.100927	-0.887950	0.211051
F85	F	0.114101	-0.883136	0.188139
F86	F	0.062453	-1.706257	-0.215738
F87	F	-0.054347	-0.907412	-0.027033
H88	H	0.057520	-1.672416	-0.441608
F89	F	-0.061210	-1.700246	-0.456505
H90	H	0.041587	-1.303911	-0.397680
F91	F	-0.054088	-1.147103	-0.020178
F92	F	0.053526	-0.905306	-0.026788
H93	H	-0.059878	-1.676050	-0.224906
H94	H	-0.100672	-1.525273	-0.204639
F95	F	-0.273117	-1.324571	0.363862
H96	H	-0.149727	-1.656375	0.032304
F97	F	-0.141813	-1.324578	0.363877
F98	F	0.054220	-1.145948	-0.020438
