data_functionalizedCrystal
_audit_creation_method	'MofGen! by Chris Wilmer'
_symmetry_space_group_name_H-M	'P1'
_symmetry_Int_Tables_number	1
_symmetry_cell_setting	triclinic
loop_
_symmetry_equiv_pos_as_xyz
  x,y,z
_cell_length_a	19.902436
_cell_length_b	17.052862
_cell_length_c	17.052863
_cell_angle_alpha	61.493623
_cell_angle_beta	90.002565
_cell_angle_gamma	70.261738
loop_
_atom_site_label
_atom_site_type_symbol
_atom_site_fract_x
_atom_site_fract_y
_atom_site_fract_z
Zr1	Zr	0.778742	0.816599	-0.200387
O2	O	0.704536	0.944501	-0.328522
O3	O	0.785152	0.665877	-0.146195
O4	O	0.821156	0.783676	-0.307005
O5	O	0.658717	0.860630	-0.057826
O6	O	0.931732	0.783664	-0.306994
O7	O	0.668533	0.826702	-0.167713
O8	O	0.867328	0.572943	-0.019335
O9	O	0.723120	1.071351	-0.345484
O10	O	0.890146	0.736314	-0.141091
O11	O	0.800299	0.761643	-0.059092
O12	O	0.842689	0.900336	-0.248424
O13	O	0.752842	0.925665	-0.166425
Zr14	Zr	0.939442	0.870691	-0.025113
Zr15	Zr	0.955097	0.816579	-0.200370
Zr16	Zr	0.763086	0.870710	-0.025130
Zr17	Zr	0.808381	1.018910	-0.227440
Zr18	Zr	0.909802	0.668380	0.001940
O19	O	0.933031	1.021413	-0.079305
O20	O	0.955291	0.944474	-0.328497
O21	O	0.682276	1.021441	-0.079329
O22	O	1.013647	0.742788	0.103022
O23	O	1.035907	0.665849	-0.146171
O24	O	0.762892	0.742816	0.102997
O25	O	1.059467	0.826659	-0.167674
O26	O	0.897028	0.903614	0.081505
O27	O	0.786452	0.903626	0.081494
O28	O	1.049651	0.860587	-0.057787
O29	O	0.863300	1.071336	-0.345470
O30	O	0.854884	0.615954	0.119970
O31	O	0.995063	0.615938	0.119984
O32	O	1.007507	0.572927	-0.019321
O33	O	0.710677	1.114363	-0.206179
O34	O	0.850856	1.114347	-0.206165
O35	O	0.875495	0.786954	0.022924
O36	O	0.965342	0.761624	-0.059075
O37	O	0.917885	0.925647	-0.166408
O38	O	0.828037	0.950976	-0.084409
C39	C	0.822017	0.590585	-0.078911
C40	C	0.809434	0.504698	-0.067426
C41	C	0.638498	0.843669	-0.112772
C42	C	0.563630	0.843677	-0.112779
C43	C	0.961561	0.209718	-0.206276
C44	C	0.973382	0.290415	-0.217073
C45	C	0.932396	0.343989	-0.179662
C46	C	0.879587	0.316859	-0.131453
C47	C	0.867761	0.236159	-0.120661
C48	C	0.838596	0.370430	-0.094047
C49	C	0.785787	0.343300	-0.045838
C50	C	0.773964	0.262607	-0.035048
C51	C	0.814949	0.209032	-0.072459
C52	C	0.850422	0.451131	-0.104839
C53	C	0.756622	0.477572	-0.019224
C54	C	0.744801	0.396875	-0.008427
C55	C	0.291618	0.843634	-0.112740
C56	C	0.290149	0.947179	-0.180200
C57	C	0.368023	0.947165	-0.180496
C58	C	0.426566	0.843656	-0.112760
C59	C	0.418834	0.772691	-0.142552
C60	C	0.340752	0.773337	-0.143035
C61	C	0.330004	0.810206	-0.015350
C62	C	0.407266	0.812408	-0.015787
C63	C	0.502835	0.843663	-0.112769
C64	C	0.215350	0.843623	-0.112733
C65	C	1.079686	0.843620	-0.112728
C66	C	1.154553	0.843612	-0.112721
C67	C	0.878674	0.775960	-0.331970
C68	C	0.885320	0.752988	-0.406371
C69	C	0.896167	1.096705	-0.146589
C70	C	0.908749	1.182591	-0.158074
C71	C	0.913220	0.656574	-0.385292
C72	C	0.919464	0.634988	-0.455194
C73	C	0.897815	0.709814	-0.546181
C74	C	0.869919	0.806231	-0.567260
C75	C	0.863669	0.827819	-0.497352
C76	C	0.848264	0.881059	-0.658240
C77	C	0.820369	0.977475	-0.679319
C78	C	0.814120	0.999059	-0.609417
C79	C	0.835770	0.924233	-0.518430
C80	C	0.854514	0.859471	-0.728148
C81	C	0.804964	1.030716	-0.840208
C82	C	0.798719	1.052302	-0.770306
C83	C	0.839509	0.911330	0.106470
C84	C	0.832863	0.934301	0.180871
C85	C	1.042611	0.590560	-0.078889
C86	C	1.104896	0.504666	-0.067397
C87	C	0.802434	0.658269	0.140309
C88	C	0.783206	0.595355	0.226194
C89	C	1.023029	0.658245	0.140330
C90	C	1.078667	0.595322	0.226224
C91	C	0.695155	1.029044	-0.365830
C92	C	0.639516	1.091967	-0.451724
C93	C	0.675573	1.096729	-0.146611
C94	C	0.613288	1.182624	-0.158103
C95	C	0.915749	1.029020	-0.365809
C96	C	0.934978	1.091935	-0.451694
C97	C	1.094894	0.451114	-0.104819
C98	C	1.153414	0.370413	-0.094039
C99	C	1.221933	0.343261	-0.045831
C100	C	1.231934	0.396821	-0.008409
C101	C	1.173416	0.477524	-0.019195
C102	C	0.813426	0.579024	0.309346
C103	C	0.795357	0.519922	0.390050
C104	C	0.747070	0.477147	0.387601
C105	C	0.716846	0.493483	0.304441
C106	C	0.734912	0.552589	0.223738
C107	C	1.151702	0.552551	0.223757
C108	C	1.203990	0.493438	0.304455
C109	C	1.183240	0.477091	0.387619
C110	C	1.110198	0.519869	0.390082
C111	C	1.057913	0.578987	0.309385
C112	C	0.566483	1.134748	-0.449259
C113	C	0.514199	1.193887	-0.529960
C114	C	0.534950	1.210238	-0.613124
C115	C	0.607991	1.167455	-0.615587
C116	C	0.660274	1.108323	-0.534888
C117	C	0.623291	1.236181	-0.120690
C118	C	0.564776	1.316899	-0.131492
C119	C	0.496258	1.344053	-0.179703
C120	C	0.486257	1.290490	-0.217121
C121	C	0.544772	1.209779	-0.206324
C122	C	0.983267	1.134693	-0.449216
C123	C	1.001348	1.193799	-0.529907
C124	C	0.971136	1.210152	-0.613076
C125	C	0.922845	1.167387	-0.615551
C126	C	0.904768	1.108276	-0.534861
H127	H	0.893420	0.473213	-0.144091
H128	H	1.181568	0.521119	0.011285
H129	H	1.093312	0.506550	0.457805
H130	H	0.898250	1.180711	-0.683278
C131	C	1.286294	0.254481	-0.033963
H132	H	1.270516	0.226475	-0.063149
H133	H	1.324045	0.273838	-0.060414
H134	H	1.304015	0.208344	0.029002
C135	C	1.006638	0.150793	-0.247426
H136	H	1.039781	0.178507	-0.277686
H137	H	1.032936	0.086007	-0.200288
H138	H	0.975003	0.151530	-0.289712
H139	H	0.776006	1.130804	-0.787458
H140	H	0.819975	0.506629	0.457754
C141	C	1.054458	1.240843	-0.527169
H142	H	1.069848	1.222649	-0.466080
H143	H	1.095570	1.219743	-0.550874
H144	H	1.030711	1.309169	-0.562853
H145	H	0.536616	1.166173	-0.236789
C146	C	0.477430	1.275269	-0.701883
H147	H	0.430962	1.298392	-0.688495
H148	H	0.489463	1.328475	-0.741940
H149	H	0.476370	1.239044	-0.729964
C150	C	0.307648	0.802885	-0.239352
H151	H	0.259734	0.803531	-0.240494
H152	H	0.306005	0.865519	-0.281535
H153	H	0.336783	0.757814	-0.255442
H154	H	0.719741	1.073488	-0.536905
C155	C	0.372597	1.020592	-0.154729
H156	H	0.326768	1.050702	-0.143990
H157	H	0.408607	0.988114	-0.101224
H158	H	0.385224	1.068278	-0.203093
H159	H	0.677529	0.458647	0.302460
H160	H	1.168611	0.565850	0.156049
C161	C	0.977574	0.626017	0.312111
H162	H	0.972710	0.607801	0.373201
H163	H	0.961765	0.694340	0.276433
H164	H	0.948685	0.604905	0.288397
H165	H	0.624879	1.180776	-0.683309
C166	C	0.904689	0.686071	-0.623071
H167	H	0.924409	0.617933	-0.597486
H168	H	0.857984	0.712814	-0.659589
H169	H	0.935933	0.712803	-0.659566
H170	H	0.732366	0.429021	0.453321
C171	C	0.851640	1.061261	-0.537600
H172	H	0.836234	1.079480	-0.598692
H173	H	0.875367	0.992938	-0.501922
H174	H	0.810532	1.082381	-0.513893
C175	C	0.543645	1.116785	-0.357791
H176	H	0.492661	1.150750	-0.367895
H177	H	0.555531	1.049567	-0.318543
H178	H	0.568645	1.138984	-0.330514
H179	H	0.710302	0.565875	0.156036
H180	H	0.730957	0.240527	0.004198
C181	C	0.991020	1.275182	-0.701829
H182	H	1.024101	1.298310	-0.688434
H183	H	1.013035	1.238975	-0.729923
H184	H	0.948187	1.328398	-0.741877
H185	H	0.454729	1.228712	-0.527936
H186	H	1.007873	1.121390	-0.381504
C187	C	1.031469	0.320251	-0.270094
H188	H	1.054190	0.276784	-0.290822
H189	H	1.009069	0.383936	-0.320793
H190	H	1.066998	0.318422	-0.231367
H191	H	1.263460	0.458611	0.302433
C192	C	0.243469	1.021020	-0.154675
H193	H	0.224452	0.989368	-0.102652
H194	H	0.272669	1.048900	-0.141529
H195	H	0.204473	1.070343	-0.204097
C196	C	0.801945	0.120267	-0.060588
H197	H	0.833918	0.092250	-0.089775
H198	H	0.810909	0.074140	0.002373
H199	H	0.752984	0.139654	-0.087057
C200	C	1.240756	0.412063	0.476380
H201	H	1.217944	0.408455	0.526267
H202	H	1.263359	0.349101	0.484801
H203	H	1.276449	0.438531	0.472834
C204	C	0.945405	0.432748	-0.191529
H205	H	0.982730	0.441227	-0.225590
H206	H	0.901797	0.488644	-0.222865
H207	H	0.959730	0.423118	-0.133442
H208	H	0.679076	1.214082	-0.081427
C209	C	0.575788	1.375796	-0.090318
H210	H	0.624973	1.348048	-0.060047
H211	H	0.564612	1.440579	-0.137448
H212	H	0.544579	1.375076	-0.048039
C213	C	1.142398	0.311504	-0.135195
H214	H	1.093206	0.339227	-0.165434
H215	H	1.173594	0.312220	-0.177481
H216	H	1.153586	0.246718	-0.088050
H217	H	0.448618	1.409775	-0.188488
H218	H	0.701803	0.374774	0.030824
H219	H	0.430461	1.312612	-0.256374
H220	H	0.723247	0.521195	0.011236
C221	C	1.019532	0.480970	-0.157855
H222	H	1.021969	0.437518	-0.178602
H223	H	0.985057	0.479153	-0.119146
H224	H	1.005086	0.544659	-0.208556
C225	C	0.783432	1.105112	-0.632599
H226	H	0.782805	1.107252	-0.577936
H227	H	0.813247	1.136753	-0.667072
H228	H	0.735301	1.136755	-0.667081
C229	C	0.284722	0.874986	0.020319
H230	H	0.308844	0.853584	0.079160
H231	H	0.279269	0.939938	-0.019844
H232	H	0.238115	0.871391	0.023654
C233	C	1.307304	0.366939	0.044625
H234	H	1.340714	0.311197	0.045694
H235	H	1.323864	0.418332	0.015754
H236	H	1.303831	0.352828	0.105162
H237	H	0.262916	0.973626	-0.251868
H238	H	0.378988	0.973662	-0.252582
H239	H	0.344128	0.696534	-0.096240
H240	H	0.432230	0.793805	-0.213102
C241	C	0.473890	0.668894	-0.078467
H242	H	0.502150	0.667915	-0.032865
H243	H	0.448500	0.627402	-0.050606
H244	H	0.504997	0.647338	-0.112395
H245	H	0.787331	1.091645	-0.914293
H246	H	0.852744	0.613847	0.311357
C247	C	0.411914	0.882583	0.014481
H248	H	0.400177	0.863301	0.073186
H249	H	0.459904	0.881601	0.016532
H250	H	0.378517	0.946145	-0.027599
C251	C	0.462633	0.712013	0.056162
H252	H	0.449642	0.695018	0.114040
H253	H	0.462587	0.665531	0.040492
H254	H	0.509839	0.713564	0.058354
C255	C	0.334855	0.707418	0.052618
H256	H	0.358106	0.687615	0.111340
H257	H	0.287250	0.707101	0.054785
H258	H	0.362216	0.664122	0.033658
C259	C	0.950147	0.528942	-0.432012
H260	H	0.950762	0.526801	-0.486674
H261	H	0.998274	0.497294	-0.397528
H262	H	0.920325	0.497306	-0.397540
C263	C	0.829071	0.947981	-0.441540
H264	H	0.809411	1.016118	-0.467122
H265	H	0.797882	0.921280	-0.404904
H266	H	0.875849	0.921203	-0.405162
H267	H	0.877226	0.780967	-0.710976
H268	H	0.930839	0.595661	-0.311210
