data_functionalizedCrystal
_audit_creation_method	'MofGen! by Chris Wilmer'
_symmetry_space_group_name_H-M	'P1'
_symmetry_Int_Tables_number	1
_symmetry_cell_setting	triclinic
loop_
_symmetry_equiv_pos_as_xyz
  x,y,z
_cell_length_a	29.999520
_cell_length_b	29.998686
_cell_length_c	29.995014
_cell_angle_alpha	60.005185
_cell_angle_beta	60.010401
_cell_angle_gamma	59.993433
loop_
_atom_site_label
_atom_site_type_symbol
_atom_site_fract_x
_atom_site_fract_y
_atom_site_fract_z
O1	O	0.061772	-0.651300	0.544623
O2	O	0.561772	-0.151300	1.044623
O3	O	0.023267	-0.507084	0.438819
O4	O	0.523267	-0.007084	0.938819
O5	O	0.114589	-0.598332	0.438743
O6	O	0.614589	-0.098332	0.938743
O7	O	-0.029550	-0.560051	0.544699
O8	O	0.470450	-0.060051	1.044699
O9	O	0.144886	-0.568039	0.468961
O10	O	0.644886	-0.068039	0.968961
O11	O	0.053564	-0.476791	0.469038
O12	O	0.553564	0.023209	0.969038
O13	O	0.092069	-0.621007	0.574841
O14	O	0.592069	-0.121007	1.074841
Zn15	Zn	0.077627	-0.544089	0.526737
Zn16	Zn	0.577627	-0.044089	1.026737
Zn17	Zn	0.037709	-0.584002	0.486923
Zn18	Zn	0.537709	-0.084002	0.986923
O19	O	0.000748	-0.529758	0.574918
O20	O	0.500748	-0.029758	1.074918
N21	N	0.104871	-0.516854	0.553912
N22	N	0.604871	-0.016854	1.053912
N23	N	0.010470	-0.611242	0.459748
N24	N	0.510470	-0.111242	0.959748
C25	C	0.143162	-0.478782	0.827124
C26	C	0.643162	0.021218	1.327124
C27	C	0.378203	-0.478734	0.591892
C28	C	0.878203	0.021266	1.091892
C29	C	0.143005	-0.478752	0.591997
C30	C	0.643005	0.021248	1.091997
C31	C	0.142986	-0.243586	0.592008
C32	C	0.642986	0.256414	1.092008
C33	C	0.180857	-0.357087	0.629814
C34	C	0.680857	0.142913	1.129814
C35	C	0.180866	-0.440920	0.629807
C36	C	0.680866	0.059080	1.129807
C37	C	0.201840	-0.419964	0.650755
C38	C	0.701840	0.080036	1.150755
C39	C	0.293272	-0.404201	0.602606
C40	C	0.793272	0.095799	1.102606
C41	C	0.350426	-0.423248	0.583534
C42	C	0.850426	0.076752	1.083534
C43	C	0.350451	-0.515727	0.618798
C44	C	0.850451	-0.015727	1.118798
C45	C	0.293297	-0.496678	0.637872
C46	C	0.793297	0.003322	1.137872
C47	C	0.194628	-0.328499	0.573626
C48	C	0.694628	0.171501	1.073626
C49	C	0.175551	-0.271340	0.554591
C50	C	0.675551	0.228660	1.054591
C51	C	0.128936	-0.271362	0.647935
C52	C	0.628936	0.228638	1.147935
C53	C	0.148014	-0.328521	0.666970
C54	C	0.648014	0.171479	1.166970
C55	C	0.124672	-0.427119	0.643641
C56	C	0.624672	0.072881	1.143641
C57	C	0.105611	-0.446170	0.624592
C58	C	0.605611	0.053830	1.124592
C59	C	0.198934	-0.492820	0.577889
C60	C	0.698934	0.007180	1.077889
C61	C	0.217998	-0.473770	0.596931
C62	C	0.717998	0.026230	1.096931
C63	C	0.124740	-0.427136	0.742229
C64	C	0.624740	0.072864	1.242229
C65	C	0.105728	-0.446202	0.799386
C66	C	0.605728	0.053798	1.299386
C67	C	0.199085	-0.492863	0.799337
C68	C	0.699085	0.007137	1.299337
C69	C	0.218096	-0.473798	0.742178
C70	C	0.718096	0.026202	1.242178
C71	C	0.180923	-0.440933	0.713626
C72	C	0.680923	0.059067	1.213626
C73	C	0.264710	-0.440915	0.629773
C74	C	0.764710	0.059085	1.129773
C75	C	0.121509	-0.499370	0.889991
C76	C	0.621509	0.000630	1.389991
C77	C	0.441068	-0.498953	0.570621
C78	C	0.941068	0.001047	1.070621
C79	C	0.121297	-0.499349	0.571429
C80	C	0.621297	0.000651	1.071429
C81	C	0.121653	-0.180715	0.571802
C82	C	0.621653	0.319285	1.071802
C83	C	-0.111071	-0.648912	0.421584
C84	C	0.388929	-0.148912	0.921584
C85	C	-0.027286	-0.649018	0.421777
C86	C	0.472714	-0.149018	0.921777
C87	C	-0.048200	-0.669944	0.400740
C88	C	0.451800	-0.169944	0.900740
C89	C	-0.064036	-0.761340	0.448814
C90	C	0.435964	-0.261340	0.948814
C91	C	-0.045033	-0.818500	0.467893
C92	C	0.454967	-0.318500	0.967893
C93	C	0.047447	-0.818609	0.432797
C94	C	0.547447	-0.318609	0.932797
C95	C	0.028444	-0.761451	0.413717
C96	C	0.528444	-0.261451	0.913717
C97	C	-0.139731	-0.662677	0.477755
C98	C	0.360269	-0.162677	0.977755
C99	C	-0.196885	-0.643554	0.496701
C100	C	0.303115	-0.143554	0.996701
C101	C	-0.196717	-0.596907	0.403303
C102	C	0.303283	-0.096907	0.903303
C103	C	-0.139562	-0.616030	0.384357
C104	C	0.360438	-0.116030	0.884357
C105	C	-0.041053	-0.592827	0.407952
C106	C	0.458947	-0.092827	0.907952
C107	C	-0.022041	-0.573809	0.427083
C108	C	0.477959	-0.073809	0.927083
C109	C	0.024504	-0.667167	0.473848
C110	C	0.524504	-0.167167	0.973848
C111	C	0.005492	-0.686188	0.454725
C112	C	0.505492	-0.186188	0.954725
C113	C	-0.040886	-0.592836	0.309259
C114	C	0.459114	-0.092836	0.809259
C115	C	-0.021740	-0.573821	0.252102
C116	C	0.478260	-0.073821	0.752102
C117	C	0.024886	-0.667185	0.252163
C118	C	0.524886	-0.167185	0.752163
C119	C	0.005743	-0.686199	0.309322
C120	C	0.505743	-0.186199	0.809322
C121	C	-0.027145	-0.649023	0.337868
C122	C	0.472855	-0.149023	0.837868
C123	C	-0.027299	-0.732818	0.421728
C124	C	0.472701	-0.232818	0.921728
N125	N	0.492511	-0.516826	0.553742
N126	N	0.992511	-0.016826	1.053742
O127	O	0.679283	-0.525926	0.419277
O128	O	1.179283	-0.025926	0.919277
O129	O	0.679465	-0.632059	0.563349
O130	O	1.179465	-0.132059	1.063349
O131	O	0.679393	-0.631817	0.471975
O132	O	1.179393	-0.131817	0.971975
O133	O	0.679355	-0.526168	0.510650
O134	O	1.179355	-0.026168	1.010650
O135	O	0.588593	-0.601610	0.502313
O136	O	1.088593	-0.101610	1.002313
O137	O	0.588665	-0.601852	0.593686
O138	O	1.088665	-0.101852	1.093686
O139	O	0.588483	-0.495720	0.449614
O140	O	1.088483	0.004280	0.949614
Zn141	Zn	0.574158	-0.543990	0.526467
Zn142	Zn	1.074158	-0.043990	1.026467
Zn143	Zn	0.693790	-0.583788	0.486496
Zn144	Zn	1.193790	-0.083788	0.986496
O145	O	0.588555	-0.495962	0.540987
O146	O	1.088555	0.004038	1.040987
N147	N	0.775436	-0.610952	0.459215
N148	N	1.275436	-0.110952	0.959215
N149	N	0.104844	-0.129269	0.553931
N150	N	0.604844	0.370731	1.053931
O151	O	-0.029548	0.057600	0.544709
O152	O	0.470452	0.557600	1.044709
O153	O	0.114530	0.057617	0.438578
O154	O	0.614530	0.557617	0.938578
O155	O	0.023130	0.057594	0.438850
O156	O	0.523130	0.557594	0.938850
O157	O	0.061852	0.057623	0.544437
O158	O	0.561852	0.557623	1.044437
O159	O	0.053431	-0.033213	0.469115
O160	O	0.553431	0.466787	0.969115
O161	O	0.144831	-0.033190	0.468843
O162	O	0.644831	0.466810	0.968843
O163	O	0.000753	-0.033207	0.574974
O164	O	0.500753	0.466793	1.074974
Zn165	Zn	0.077603	-0.047616	0.526714
Zn166	Zn	0.577603	0.452384	1.026714
Zn167	Zn	0.037680	0.072026	0.486838
Zn168	Zn	0.537680	0.572026	0.986838
O169	O	0.092153	-0.033184	0.574702
O170	O	0.592153	0.466816	1.074702
N171	N	0.010432	0.153679	0.459622
N172	N	0.510432	0.653679	0.959622
N173	N	0.105130	-0.516904	0.941437
N174	N	0.605130	-0.016904	1.441437
O175	O	0.095923	-0.651280	1.128292
O176	O	0.595923	-0.151280	1.628292
O177	O	-0.010184	-0.507155	1.128318
O178	O	0.489816	-0.007155	1.628318
O179	O	-0.009938	-0.598539	1.128284
O180	O	0.490062	-0.098539	1.628284
O181	O	0.095677	-0.559897	1.128326
O182	O	0.595677	-0.059897	1.628326
O183	O	0.020315	-0.568257	1.037481
O184	O	0.520315	-0.068257	1.537481
O185	O	0.020068	-0.476874	1.037515
O186	O	0.520068	0.023126	1.537515
O187	O	0.126176	-0.620999	1.037489
O188	O	0.626176	-0.120999	1.537489
Zn189	Zn	0.077925	-0.544128	1.023085
Zn190	Zn	0.577925	-0.044128	1.523085
Zn191	Zn	0.038066	-0.584026	1.142722
Zn192	Zn	0.538066	-0.084026	1.642722
O193	O	0.125929	-0.529616	1.037523
O194	O	0.625929	-0.029616	1.537523
N195	N	0.010860	-0.611256	1.224371
N196	N	0.510860	-0.111256	1.724371
C197	C	0.034807	-0.473765	0.439352
C198	C	0.534807	0.026235	0.939352
C199	C	0.147897	-0.586765	0.439257
C200	C	0.647897	-0.086765	0.939257
C201	C	0.080529	-0.654326	0.574308
C202	C	0.580529	-0.154326	1.074308
C203	C	-0.032561	-0.541326	0.574403
C204	C	0.467439	-0.041326	1.074403
C205	C	0.634087	-0.631571	0.596668
C206	C	1.134087	-0.131571	1.096668
C207	C	0.633999	-0.631272	0.483513
C208	C	1.133999	-0.131272	0.983513
C209	C	0.633858	-0.496206	0.416295
C210	C	1.133858	0.003794	0.916295
C211	C	0.633949	-0.496507	0.529449
C212	C	1.133949	0.003493	1.029449
C213	C	0.147793	0.012327	0.439058
C214	C	0.647793	0.512327	0.939058
C215	C	0.034644	0.012187	0.439432
C216	C	0.534644	0.512187	0.939432
C217	C	-0.032548	0.012195	0.574457
C218	C	0.467452	0.512195	1.074457
C219	C	0.080639	0.012222	0.574120
C220	C	0.580639	0.512222	1.074120
C221	C	-0.009670	-0.473857	1.082920
C222	C	0.490330	0.026143	1.582920
C223	C	-0.009359	-0.587018	1.082860
C224	C	0.490641	-0.087018	1.582860
C225	C	0.125662	-0.654297	1.082887
C226	C	0.625662	-0.154297	1.582887
C227	C	0.125358	-0.541129	1.082927
C228	C	0.625358	-0.041129	1.582927
H229	H	0.094465	-0.400370	0.718985
H230	H	0.594465	0.099630	1.218985
H231	H	-0.042983	-0.432464	1.082928
H232	H	0.457017	0.067536	1.582928
H233	H	0.633941	-0.463320	0.537725
H234	H	1.133941	0.036680	1.037725
O235	O	0.197322	-0.596578	0.399627
O236	O	0.697322	-0.096578	0.899627
C237	C	0.231246	-0.650232	0.419358
C238	C	0.731246	-0.150232	0.919358
H239	H	0.216430	-0.664690	0.465863
H240	H	0.716430	-0.164690	0.965863
H241	H	0.274995	-0.650924	0.402639
H242	H	0.774995	-0.150924	0.902639
H243	H	0.229745	-0.678466	0.405527
H244	H	0.729745	-0.178466	0.905527
O245	O	0.197074	0.012661	0.399257
O246	O	0.697074	0.512661	0.899257
C247	C	0.231036	0.012762	0.418866
C248	C	0.731036	0.512762	0.918866
H249	H	0.204776	0.029775	0.454040
H250	H	0.704776	0.529775	0.954040
H251	H	0.256978	0.039339	0.384581
H252	H	0.756978	0.539339	0.884581
H253	H	0.258816	-0.030743	0.433831
H254	H	0.758816	0.469257	0.933831
H255	H	0.634015	-0.664461	0.475235
H256	H	1.134015	-0.164461	0.975235
H257	H	0.158538	-0.532861	1.082933
H258	H	0.658538	-0.032861	1.582933
H259	H	0.026351	0.012184	0.406260
H260	H	0.526351	0.512184	0.906260
O261	O	-0.048947	-0.596771	1.082727
O262	O	0.451053	-0.096771	1.582727
C263	C	-0.063601	-0.559334	1.035676
C264	C	0.436399	-0.059334	1.535676
H265	H	-0.052724	-0.521503	1.020038
H266	H	0.447276	-0.021503	1.520038
H267	H	-0.109395	-0.547108	1.046216
H268	H	0.390605	-0.047108	1.546216
H269	H	-0.040533	-0.579118	1.002730
H270	H	0.459467	-0.079118	1.502730
O271	O	0.090419	-0.703786	0.613885
O272	O	0.590419	-0.203786	1.113885
C273	C	0.144079	-0.737647	0.594081
C274	C	0.644079	-0.237647	1.094081
H275	H	0.158480	-0.722769	0.547576
H276	H	0.658480	-0.222769	1.047576
H277	H	0.144822	-0.781412	0.610757
H278	H	0.644822	-0.281412	1.110757
H279	H	0.172326	-0.736143	0.607894
H280	H	0.672326	-0.236143	1.107894
H281	H	0.088930	0.012231	0.607291
H282	H	0.588930	0.512231	1.107291
H283	H	0.633799	-0.462884	0.374920
H284	H	1.133799	0.037116	0.874920
H285	H	-0.073925	0.012190	0.607776
H286	H	0.426075	0.512190	1.107776
O287	O	0.097099	-0.243664	0.684076
O288	O	0.597099	0.256336	1.184076
C289	C	0.125993	-0.257613	0.717088
C290	C	0.625993	0.242387	1.217088
H291	H	0.159274	-0.299110	0.717637
H292	H	0.659274	0.200890	1.217637
H293	H	0.096690	-0.259574	0.760440
H294	H	0.596690	0.240426	1.260440
H295	H	0.145379	-0.225436	0.699884
H296	H	0.645379	0.274564	1.199884
O297	O	0.165457	-0.703635	1.082782
O298	O	0.665457	-0.203635	1.582782
C299	C	0.211459	-0.696437	1.035766
C300	C	0.711459	-0.196437	1.535766
H301	H	0.198295	-0.656454	1.002902
H302	H	0.698295	-0.156454	1.502902
H303	H	0.231006	-0.731853	1.019968
H304	H	0.731006	-0.231853	1.519968
H305	H	0.242274	-0.695185	1.046410
H306	H	0.742274	-0.195185	1.546410
H307	H	0.263847	-0.485039	0.718893
H308	H	0.763847	0.014961	1.218893
O309	O	0.051136	-0.432813	0.827105
O310	O	0.551136	0.067187	1.327105
C311	C	0.027385	-0.452367	0.813161
C312	C	0.527385	0.047633	1.313161
H313	H	0.054463	-0.457964	0.771656
H314	H	0.554463	0.042036	1.271656
H315	H	-0.014664	-0.421730	0.811224
H316	H	0.485336	0.078270	1.311224
H317	H	0.023151	-0.493216	0.845326
H318	H	0.523151	0.006784	1.345326
O319	O	0.235219	-0.524856	0.827044
O320	O	0.735219	-0.024856	1.327044
C321	C	0.268279	-0.572781	0.813047
C322	C	0.768279	-0.072781	1.313047
H323	H	0.246198	-0.580735	0.797351
H324	H	0.746198	-0.080735	1.297351
H325	H	0.276957	-0.608789	0.850621
H326	H	0.776957	-0.108789	1.350621
H327	H	0.308416	-0.567574	0.779852
H328	H	0.808416	-0.067574	1.279852
O329	O	0.088529	-0.395193	0.675549
O330	O	0.588529	0.104807	1.175549
C331	C	0.034843	-0.387107	0.683680
C332	C	0.534843	0.112893	1.183680
H333	H	0.034923	-0.393485	0.649223
H334	H	0.534923	0.106515	1.149223
H335	H	0.007700	-0.343760	0.683995
H336	H	0.507700	0.156240	1.183995
H337	H	0.018494	-0.417537	0.724395
H338	H	0.518494	0.082463	1.224395
H339	H	0.059853	-0.434921	0.635844
H340	H	0.559853	0.065079	1.135844
H341	H	0.229173	-0.519573	0.551126
H342	H	0.729173	-0.019573	1.051126
H343	H	0.270043	-0.526578	0.659994
H344	H	0.770043	-0.026578	1.159994
O345	O	0.272596	-0.487134	0.583395
O346	O	0.772596	0.012866	1.083395
C347	C	0.296284	-0.467550	0.526145
C348	C	0.796284	0.032450	1.026145
H349	H	0.269170	-0.461962	0.506161
H350	H	0.769170	0.038038	1.006161
H351	H	0.338335	-0.498162	0.512756
H352	H	0.838335	0.001838	1.012756
H353	H	0.300500	-0.426691	0.513225
H354	H	0.800500	0.073309	1.013225
O355	O	0.378140	-0.569916	0.626724
O356	O	0.878140	-0.069916	1.126724
C357	C	0.340674	-0.598236	0.654779
C358	C	0.840674	-0.098236	1.154779
H359	H	0.299939	-0.573307	0.678214
H360	H	0.799939	-0.073307	1.178214
H361	H	0.357215	-0.639456	0.684604
H362	H	0.857215	-0.139456	1.184604
H363	H	0.334574	-0.604847	0.624206
H364	H	0.834574	-0.104847	1.124206
H365	H	0.634133	-0.664888	0.638048
H366	H	1.134133	-0.164888	1.138048
O367	O	0.064203	-0.733828	0.387437
O368	O	0.564203	-0.233828	0.887437
C369	C	0.117478	-0.771360	0.384450
C370	C	0.617478	-0.271360	0.884450
H371	H	0.115246	-0.812084	0.418211
H372	H	0.615246	-0.312084	0.918211
H373	H	0.140919	-0.754877	0.389689
H374	H	0.640919	-0.254877	0.889689
H375	H	0.139349	-0.777466	0.343035
H376	H	0.639349	-0.277466	0.843035
H377	H	0.373680	-0.393351	0.561411
H378	H	0.873680	0.106649	1.061411
O379	O	0.024939	-0.424369	0.399690
O380	O	0.524939	0.075631	0.899690
C381	C	-0.019276	-0.414621	0.387137
C382	C	0.480724	0.085379	0.887137
H383	H	-0.023616	-0.455176	0.399182
H384	H	0.476384	0.044824	0.899182
H385	H	-0.011552	-0.392476	0.341444
H386	H	0.488448	0.107524	0.841444
H387	H	-0.058413	-0.388328	0.410634
H388	H	0.441587	0.111672	0.910634
O389	O	0.265564	-0.350011	0.594644
O390	O	0.765564	0.149989	1.094644
C391	C	0.279486	-0.320519	0.538211
C392	C	0.779486	0.179481	1.038211
H393	H	0.320978	-0.345492	0.515693
H394	H	0.820978	0.154508	1.015693
H395	H	0.281437	-0.280224	0.530658
H396	H	0.781437	0.219776	1.030658
H397	H	0.247302	-0.311992	0.522649
H398	H	0.747302	0.188008	1.022649
O399	O	0.226503	-0.356166	0.537461
O400	O	0.726503	0.143834	1.037461
C401	C	0.234571	-0.318674	0.483784
C402	C	0.734571	0.181326	0.983784
H403	H	0.200103	-0.277934	0.483905
H404	H	0.700103	0.222066	0.983905
H405	H	0.234849	-0.335184	0.456654
H406	H	0.734849	0.164816	0.956654
H407	H	0.275283	-0.312588	0.467388
H408	H	0.775283	0.187412	0.967388
O409	O	0.188855	-0.243481	0.500025
O410	O	0.688855	0.256519	1.000025
C411	C	0.164988	-0.186906	0.491191
C412	C	0.664988	0.313094	0.991191
H413	H	0.128314	-0.179111	0.528708
H414	H	0.628314	0.320889	1.028708
H415	H	0.151096	-0.165176	0.454158
H416	H	0.651096	0.334824	0.954158
H417	H	0.196254	-0.170682	0.483564
H418	H	0.696254	0.329318	0.983564
O419	O	0.134734	-0.356355	0.721541
O420	O	0.634734	0.143645	1.221541
C421	C	0.182775	-0.389405	0.735333
C422	C	0.682775	0.110595	1.235333
H423	H	0.218673	-0.397955	0.697657
H424	H	0.718673	0.102045	1.197657
H425	H	0.177688	-0.429606	0.768474
H426	H	0.677688	0.070394	1.268474
H427	H	0.190811	-0.367380	0.751021
H428	H	0.690811	0.132620	1.251021
O429	O	-0.035169	-0.519219	0.224401
O430	O	0.464831	-0.019219	0.724401
C431	C	-0.068290	-0.490489	0.261857
C432	C	0.431710	0.009511	0.761857
H433	H	-0.089125	-0.517716	0.302576
H434	H	0.410875	-0.017716	0.802576
H435	H	-0.100581	-0.452323	0.245275
H436	H	0.399419	0.047677	0.745275
H437	H	-0.041948	-0.478197	0.268007
H438	H	0.458052	0.021803	0.768007
H439	H	0.051655	-0.697459	0.228927
H440	H	0.551655	-0.197459	0.728927
H441	H	-0.067667	-0.562559	0.332499
H442	H	0.432333	-0.062559	0.832499
H443	H	-0.073962	-0.533167	0.607674
H444	H	0.426038	-0.033167	1.107674
O445	O	0.019026	-0.740787	0.337088
O446	O	0.519026	-0.240787	0.837088
C447	C	-0.000481	-0.764492	0.323041
C448	C	0.499519	-0.264492	0.823041
H449	H	-0.035681	-0.731916	0.307248
H450	H	0.464319	-0.231916	0.807248
H451	H	-0.015379	-0.798155	0.360613
H452	H	0.484621	-0.298155	0.860613
H453	H	0.033843	-0.782573	0.289904
H454	H	0.533843	-0.282573	0.789904
O455	O	-0.072910	-0.556646	0.375976
O456	O	0.427090	-0.056646	0.875976
C457	C	-0.080974	-0.502974	0.367871
C458	C	0.419026	-0.002974	0.867871
H459	H	-0.074652	-0.503082	0.402379
H460	H	0.425348	-0.003082	0.902379
H461	H	-0.124295	-0.475795	0.367487
H462	H	0.375705	0.024205	0.867487
H463	H	-0.050498	-0.486642	0.327196
H464	H	0.449502	0.013358	0.827196
H465	H	-0.033252	-0.528055	0.415829
H466	H	0.466748	-0.028055	0.915829
H467	H	0.051198	-0.697438	0.500669
H468	H	0.551198	-0.197438	1.000669
H469	H	0.092838	-0.841923	0.426277
H470	H	0.592838	-0.341923	0.926277
O471	O	0.018935	-0.740789	0.468179
O472	O	0.518935	-0.240789	0.968179
C473	C	0.051932	-0.769520	0.501371
C474	C	0.551932	-0.269520	1.001371
H475	H	0.072715	-0.742297	0.494137
H476	H	0.572715	-0.242297	0.994137
H477	H	0.084266	-0.807690	0.490701
H478	H	0.584266	-0.307690	0.990701
H479	H	0.025500	-0.781807	0.546115
H480	H	0.525500	-0.281807	1.046115
H481	H	-0.109425	-0.738032	0.455342
H482	H	0.390575	-0.238032	0.955342
O483	O	-0.080792	-0.846120	0.494179
O484	O	0.419208	-0.346120	0.994179
C485	C	-0.107527	-0.832149	0.459162
C486	C	0.392473	-0.332149	0.959162
H487	H	-0.106125	-0.790690	0.426585
H488	H	0.393875	-0.290690	0.926585
H489	H	-0.151854	-0.830095	0.483834
H490	H	0.348146	-0.330095	0.983834
H491	H	-0.086224	-0.864362	0.438754
H492	H	0.413776	-0.364362	0.938754
O493	O	-0.112112	-0.694672	0.513966
O494	O	0.387888	-0.194672	1.013966
C495	C	-0.126127	-0.742578	0.546980
C496	C	0.373873	-0.242578	1.046980
H497	H	-0.167605	-0.734861	0.547455
H498	H	0.332395	-0.234861	1.047455
H499	H	-0.128156	-0.754624	0.590353
H500	H	0.371844	-0.254624	1.090353
H501	H	-0.093955	-0.776985	0.529829
H502	H	0.406045	-0.276985	1.029829
O503	O	-0.224791	-0.656946	0.551256
O504	O	0.275209	-0.156946	1.051256
C505	C	-0.257851	-0.685677	0.564985
C506	C	0.242149	-0.185677	1.064985
H507	H	-0.266337	-0.675359	0.527267
H508	H	0.233663	-0.175359	1.027267
H509	H	-0.298079	-0.673470	0.598076
H510	H	0.201921	-0.173470	1.098076
H511	H	-0.235872	-0.731433	0.580714
H512	H	0.264128	-0.231433	1.080714
H513	H	-0.219915	-0.570138	0.372989
H514	H	0.280085	-0.070138	0.872989
O515	O	-0.111804	-0.602632	0.329771
O516	O	0.388196	-0.102632	0.829771
C517	C	-0.149207	-0.569497	0.300977
C518	C	0.350793	-0.069497	0.800977
H519	H	-0.189977	-0.576733	0.328165
H520	H	0.310023	-0.076733	0.828165
H521	H	-0.132638	-0.580229	0.262830
H522	H	0.367362	-0.080229	0.762830
H523	H	-0.155249	-0.524737	0.288650
H524	H	0.344751	-0.024737	0.788650
