data_functionalizedCrystal
_audit_creation_method	'MofGen! by Chris Wilmer'
_symmetry_space_group_name_H-M	'P1'
_symmetry_Int_Tables_number	1
_symmetry_cell_setting	triclinic
loop_
_symmetry_equiv_pos_as_xyz
  x,y,z
_cell_length_a	17.699083
_cell_length_b	14.853567
_cell_length_c	16.776229
_cell_angle_alpha	89.997147
_cell_angle_beta	89.998886
_cell_angle_gamma	83.458972
loop_
_atom_site_label
_atom_site_type_symbol
_atom_site_fract_x
_atom_site_fract_y
_atom_site_fract_z
O1	O	1.004374	0.114008	-0.066170
O2	O	1.504374	0.614008	0.433830
O3	O	0.784034	0.128841	-0.066195
O4	O	1.284034	0.628841	0.433805
O5	O	0.900090	-0.009827	-0.066184
O6	O	1.400090	0.490173	0.433816
O7	O	0.888319	0.252676	-0.066181
O8	O	1.388319	0.752676	0.433819
O9	O	0.900075	-0.009835	0.066392
O10	O	1.400075	0.490165	0.566392
O11	O	0.784019	0.128832	0.066381
O12	O	1.284019	0.628832	0.566381
O13	O	1.004359	0.114000	0.066407
O14	O	1.504359	0.614000	0.566407
Zn15	Zn	0.894187	0.121415	0.087443
Zn16	Zn	1.394187	0.621415	0.587443
Zn17	Zn	0.894207	0.121426	-0.087232
Zn18	Zn	1.394207	0.621426	0.412768
O19	O	0.888303	0.252667	0.066396
O20	O	1.388303	0.752667	0.566396
C21	C	0.755828	0.128305	0.000090
C22	C	1.255828	0.628305	0.500090
C23	C	0.671806	0.126711	0.000080
C24	C	1.171806	0.626711	0.500080
C25	C	0.623396	0.208106	0.000081
C26	C	1.123396	0.708106	0.500081
C27	C	0.544449	0.206602	0.000092
C28	C	1.044449	0.706602	0.500092
C29	C	0.513913	0.123703	0.000095
C30	C	1.013913	0.623703	0.500095
C31	C	0.562329	0.042301	0.000096
C32	C	1.062329	0.542301	0.500096
C33	C	0.641275	0.043806	0.000091
C34	C	1.141275	0.543806	0.500091
C35	C	0.243950	0.036232	0.000116
C36	C	0.743950	0.536232	0.500116
C37	C	0.164999	0.034734	0.000118
C38	C	0.664999	0.534734	0.500118
C39	C	0.147125	0.199028	0.000116
C40	C	0.647125	0.699028	0.500116
C41	C	0.226070	0.200533	0.000111
C42	C	0.726070	0.700533	0.500111
C43	C	0.274479	0.119132	0.000116
C44	C	0.774479	0.619132	0.500116
C45	C	0.360083	0.120763	0.000107
C46	C	0.860083	0.620763	0.500107
C47	C	0.428311	0.122070	0.000099
C48	C	0.928311	0.622070	0.500099
C49	C	0.899549	-0.043418	0.000102
C50	C	1.399549	0.456582	0.500102
C51	C	0.897951	-0.143496	0.000095
C52	C	1.397951	0.356504	0.500095
C53	C	0.822255	-0.555751	0.000101
C54	C	1.322255	-0.055751	0.500101
C55	C	0.960131	-0.577539	0.000117
C56	C	1.460131	-0.077539	0.500117
C57	C	0.961634	-0.483511	0.000112
C58	C	1.461634	0.016489	0.500112
C59	C	0.893446	-0.425598	0.000103
C60	C	1.393446	0.074402	0.500103
C61	C	0.823756	-0.461714	0.000099
C62	C	1.323756	0.038286	0.500099
C63	C	1.031324	-0.447389	0.000125
C64	C	1.531324	0.052611	0.500125
C65	C	1.032829	-0.353355	0.000121
C66	C	1.532829	0.146645	0.500121
C67	C	0.964641	-0.295441	0.000107
C68	C	1.464641	0.204559	0.500107
C69	C	0.894947	-0.331561	0.000101
C70	C	1.394947	0.168439	0.500101
C71	C	0.826759	-0.273648	0.000092
C72	C	1.326759	0.226352	0.500092
C73	C	0.757065	-0.309767	0.000081
C74	C	1.257065	0.190233	0.500081
C75	C	0.755567	-0.403799	0.000084
C76	C	1.255567	0.096201	0.500084
C77	C	0.966139	-0.201409	0.000104
C78	C	1.466139	0.298591	0.500104
C79	C	0.828260	-0.179611	0.000090
C80	C	1.328260	0.320389	0.500090
C81	C	1.032565	0.114535	0.000120
C82	C	1.532565	0.614535	0.500120
C83	C	1.116587	0.116130	0.000125
C84	C	1.616587	0.616130	0.500125
C85	C	0.888844	0.286258	0.000108
C86	C	1.388844	0.786258	0.500108
C87	C	0.890443	0.386336	0.000110
C88	C	1.390443	0.886336	0.500110
N89	N	0.894178	0.121406	0.206655
N90	N	1.394178	0.621406	0.706655
N91	N	0.894221	0.121427	-0.206443
N92	N	1.394221	0.621427	0.293557
C93	C	0.945583	0.060029	0.248377
C94	C	1.445583	0.560029	0.748377
C95	C	0.945587	0.060029	0.331829
C96	C	1.445587	0.560029	0.831829
C97	C	0.894190	0.121410	0.373558
C98	C	1.394190	0.621410	0.873558
C99	C	0.842779	0.182790	0.331830
C100	C	1.342779	0.682790	0.831830
C101	C	0.842772	0.182786	0.248379
C102	C	1.342772	0.682786	0.748379
C103	C	0.842806	0.182808	0.668377
C104	C	1.342806	0.682808	1.168377
C105	C	0.842819	0.182809	0.751834
C106	C	1.342819	0.682809	1.251834
C107	C	0.945622	0.060051	0.751827
C108	C	1.445622	0.560051	1.251827
C109	C	0.945615	0.060046	0.668376
C110	C	1.445615	0.560046	1.168376
C111	C	0.894202	0.121423	0.626656
C112	C	1.394202	0.621423	1.126656
C113	C	0.894197	0.121422	0.536167
C114	C	1.394197	0.621422	1.036167
C115	C	0.894198	0.121416	0.464044
C116	C	1.394198	0.621416	0.964044
H117	H	0.140140	-0.032777	0.000121
H118	H	0.640140	0.467223	0.500121
H119	H	0.772732	-0.132463	0.000079
H120	H	1.272732	0.367537	0.500079
O121	O	0.529396	-0.047113	0.000107
O122	O	1.029396	0.452887	0.500107
H123	H	0.548838	-0.086220	-0.053924
H124	H	1.048838	0.413780	0.446076
O125	O	1.033674	-0.639998	0.000137
O126	O	1.533674	-0.139998	0.500137
H127	H	1.036300	-0.683361	-0.053897
H128	H	1.536300	-0.183361	0.446103
O129	O	1.001042	-0.006169	0.623369
O130	O	1.501042	0.493831	1.123369
H131	H	1.037866	0.031716	0.585340
H132	H	1.537866	0.531716	1.085340
H133	H	0.648252	0.275612	0.000078
H134	H	1.148252	0.775612	0.500078
H135	H	0.283356	-0.030050	0.000121
H136	H	0.783356	0.469950	0.500121
O137	O	1.001009	-0.006182	0.203364
O138	O	1.501009	0.493818	0.703364
H139	H	1.060025	0.005202	0.219369
H140	H	1.560025	0.505202	0.719369
O141	O	0.094906	0.286825	0.000124
O142	O	0.594906	0.786825	0.500124
H143	H	0.105762	0.326505	-0.053917
H144	H	0.605762	0.826505	0.446083
O145	O	1.001075	-0.006150	0.796830
O146	O	1.501075	0.493850	1.296830
H147	H	1.036821	-0.048822	0.753792
H148	H	1.536821	0.451178	1.253792
O149	O	0.693492	-0.043985	0.000096
O150	O	1.193492	0.456015	0.500096
H151	H	0.729894	-0.047228	-0.053936
H152	H	1.229894	0.452772	0.446064
H153	H	0.701546	-0.262602	0.000080
H154	H	1.201546	0.237398	0.500080
H155	H	0.800912	0.232764	0.214410
H156	H	1.300912	0.732764	0.714410
H157	H	0.698825	-0.433216	0.000076
H158	H	1.198825	0.066784	0.500076
H159	H	0.505037	0.272882	0.000092
H160	H	1.005037	0.772882	0.500092
O161	O	0.747085	-0.594697	0.000099
O162	O	1.247085	-0.094697	0.500099
H163	H	0.757492	-0.669813	0.000108
H164	H	1.257492	-0.169813	0.500108
H165	H	1.086839	-0.494548	0.000140
H166	H	1.586839	0.005452	0.500140
H167	H	0.250928	0.268038	0.000105
H168	H	0.750928	0.768038	0.500105
H169	H	1.089579	-0.323956	0.000129
H170	H	1.589579	0.176044	0.500129
O171	O	1.041302	-0.162455	0.000116
O172	O	1.541302	0.337545	0.500116
H173	H	1.030891	-0.087339	0.000116
H174	H	1.530891	0.412661	0.500116
O175	O	0.787376	0.249017	0.796840
O176	O	1.287376	0.749017	1.296840
H177	H	0.796028	0.238713	0.861877
H178	H	1.296028	0.738713	1.361877
H179	H	0.987445	0.010050	0.365798
H180	H	1.487445	0.510050	0.865798
O181	O	0.787364	0.249011	0.623382
O182	O	1.287364	0.749011	1.123382
H183	H	0.751634	0.291699	0.666421
H184	H	1.251634	0.791699	1.166421
H185	H	0.800926	0.232765	0.365810
H186	H	1.300926	0.732765	0.865810
