data_functionalizedCrystal
_audit_creation_method	'MofGen! by Chris Wilmer'
_symmetry_space_group_name_H-M	'P1'
_symmetry_Int_Tables_number	1
_symmetry_cell_setting	triclinic
loop_
_symmetry_equiv_pos_as_xyz
  x,y,z
_cell_length_a	11.792241
_cell_length_b	11.792241
_cell_length_c	10.268362
_cell_angle_alpha	90.005218
_cell_angle_beta	90.000408
_cell_angle_gamma	84.193416
loop_
_atom_site_label
_atom_site_type_symbol
_atom_site_fract_x
_atom_site_fract_y
_atom_site_fract_z
O1	O	-1.506910	-0.155568	-0.108155
O2	O	-1.173577	0.177765	0.225179
O3	O	-0.840243	0.511098	0.558512
O4	O	-1.176569	-0.171601	-0.108189
O5	O	-0.843236	0.161732	0.225144
O6	O	-0.509902	0.495066	0.558477
O7	O	-1.349756	0.001586	-0.108162
O8	O	-1.016423	0.334919	0.225171
O9	O	-0.683089	0.668253	0.558505
O10	O	-1.333723	-0.328755	-0.108182
O11	O	-1.000390	0.004578	0.225151
O12	O	-0.667056	0.337911	0.558485
O13	O	-1.349738	0.001592	0.108438
O14	O	-1.016405	0.334925	0.441772
O15	O	-0.683072	0.668259	0.775105
O16	O	-1.176551	-0.171595	0.108411
O17	O	-0.843218	0.161738	0.441744
O18	O	-0.509885	0.495072	0.775078
O19	O	-1.506892	-0.155562	0.108446
O20	O	-1.173559	0.177771	0.441779
O21	O	-0.840226	0.511105	0.775113
Cu22	Cu	-1.341720	-0.163578	0.128206
Cu23	Cu	-1.008387	0.169756	0.461539
Cu24	Cu	-0.675054	0.503089	0.794873
Cu25	Cu	-1.341741	-0.163585	-0.127949
Cu26	Cu	-1.008408	0.169748	0.205384
Cu27	Cu	-0.675074	0.503081	0.538717
O28	O	-1.333705	-0.328749	0.108419
O29	O	-1.000372	0.004584	0.441752
O30	O	-0.667039	0.337918	0.775085
C31	C	-1.134269	-0.170591	0.000106
C32	C	-0.800936	0.162742	0.333440
C33	C	-0.467603	0.496076	0.666773
C34	C	-1.008255	-0.167576	0.000093
C35	C	-0.674922	0.165757	0.333427
C36	C	-0.341589	0.499090	0.666760
N37	N	-1.341714	-0.163572	0.308372
N38	N	-1.008381	0.169761	0.641705
N39	N	-0.675047	0.503095	0.975038
C40	C	-1.348740	0.043880	0.000138
C41	C	-1.015407	0.377213	0.333471
C42	C	-0.682073	0.710547	0.666804
C43	C	-1.345726	0.169894	0.000136
C44	C	-1.012392	0.503227	0.333469
C45	C	-0.679059	0.836560	0.666803
C46	C	-0.777543	-0.162034	0.000128
C47	C	-0.444210	0.171300	0.333462
C48	C	-0.110877	0.504633	0.666795
C49	C	-0.905928	-0.165113	0.000109
C50	C	-0.572595	0.168220	0.333442
C51	C	-0.239262	0.501553	0.666776
C52	C	-0.549192	-0.156572	0.000144
C53	C	-0.215859	0.176761	0.333477
C54	C	0.117475	0.510095	0.666810
C55	C	-0.675206	-0.159587	0.000139
C56	C	-0.341873	0.173747	0.333472
C57	C	-0.008539	0.507080	0.666805
C58	C	-1.334721	-0.371043	0.000116
C59	C	-1.001388	-0.037710	0.333449
C60	C	-0.668055	0.295624	0.666783
C61	C	-1.337736	-0.497057	0.000109
C62	C	-1.004402	-0.163723	0.333442
C63	C	-0.671069	0.169610	0.666776
C64	C	-1.340183	0.400606	0.000114
C65	C	-1.006849	0.733939	0.333447
C66	C	-0.673516	1.067272	0.666780
C67	C	-1.343262	0.272221	0.000126
C68	C	-1.009929	0.605554	0.333459
C69	C	-0.676596	0.938887	0.666793
C70	C	-1.341728	-0.163586	0.574042
C71	C	-1.008394	0.169747	0.907376
C72	C	-0.675061	0.503081	1.240709
C73	C	-1.341716	-0.163581	0.426204
C74	C	-1.008383	0.169752	0.759538
C75	C	-0.675050	0.503085	1.092871
N76	N	-1.341745	-0.163586	0.691885
N77	N	-1.008412	0.169747	1.025218
N78	N	-0.675079	0.503080	1.358551
