data_functionalizedCrystal
_audit_creation_method	'MofGen! by Chris Wilmer'
_symmetry_space_group_name_H-M	'P1'
_symmetry_Int_Tables_number	1
_symmetry_cell_setting	triclinic
loop_
_symmetry_equiv_pos_as_xyz
  x,y,z
_cell_length_a	16.704494
_cell_length_b	21.606444
_cell_length_c	21.606444
_cell_angle_alpha	59.991153
_cell_angle_beta	90.002029
_cell_angle_gamma	56.635655
loop_
_atom_site_label
_atom_site_type_symbol
_atom_site_fract_x
_atom_site_fract_y
_atom_site_fract_z
Zr1	Zr	0.815200	0.612799	-0.048965
O2	O	0.680076	0.752660	-0.153180
O3	O	0.856622	0.480379	-0.017003
O4	O	0.856614	0.609516	-0.146148
O5	O	0.680091	0.623519	0.077819
O6	O	0.995871	0.598461	-0.140618
O7	O	0.680084	0.623524	-0.024035
O8	O	0.995885	0.367459	0.090398
O9	O	0.680077	0.854520	-0.153197
O10	O	0.978214	0.523839	0.000737
O11	O	0.874294	0.532086	0.072623
O12	O	0.874284	0.684127	-0.079428
O13	O	0.770364	0.692374	-0.007542
Zr14	Zr	1.037310	0.595160	0.122300
Zr15	Zr	1.037298	0.595168	-0.040146
Zr16	Zr	0.815211	0.612791	0.113481
Zr17	Zr	0.815201	0.775254	-0.048993
Zr18	Zr	1.037308	0.432705	0.122327
O19	O	0.995888	0.727580	0.090338
O20	O	0.995872	0.727591	-0.140640
O21	O	0.680092	0.752649	0.077798
O22	O	1.172434	0.455299	0.226514
O23	O	1.172418	0.455310	-0.004463
O24	O	0.856638	0.480368	0.213974
O25	O	1.172419	0.584440	-0.004485
O26	O	0.995896	0.598443	0.219482
O27	O	0.856639	0.609498	0.213952
O28	O	1.172426	0.584435	0.097369
O29	O	0.856616	0.840506	-0.146186
O30	O	0.995894	0.367453	0.219521
O31	O	1.172433	0.353439	0.226531
O32	O	1.172424	0.353445	0.097408
O33	O	0.680086	0.854514	-0.024074
O34	O	0.856624	0.840500	-0.017063
O35	O	0.978225	0.523832	0.152762
O36	O	1.082146	0.515585	0.080876
O37	O	0.978216	0.675873	0.000711
O38	O	0.874295	0.684120	0.072597
C39	C	0.926253	0.400773	0.036701
C40	C	0.926253	0.331807	0.036713
C41	C	0.849528	0.361634	-0.022462
C42	C	0.849531	0.296845	-0.022478
C43	C	0.926255	0.202228	0.036685
C44	C	1.002987	0.172400	0.095863
C45	C	1.002988	0.237189	0.095875
C46	C	1.002986	-0.088886	0.095815
C47	C	1.002978	-0.153675	0.095800
C48	C	0.849530	-0.029230	-0.022537
C49	C	0.849530	0.035558	-0.022526
C50	C	0.926265	0.005725	0.036650
C51	C	0.926262	0.075977	0.036665
C52	C	0.926254	0.131977	0.036673
C53	C	0.648443	0.626033	0.025636
C54	C	0.554156	0.633518	0.021892
C55	C	0.485493	0.480228	0.098567
C56	C	0.396905	0.487256	0.095051
C57	C	0.288391	0.654603	0.011349
C58	C	0.376979	0.647574	0.014865
C59	C	0.475529	0.560384	0.058474
C60	C	0.564118	0.553356	0.061985
C61	C	0.455604	0.720702	-0.021712
C62	C	0.367016	0.727730	-0.025228
C63	C	1.204066	0.581926	0.047699
C64	C	1.298353	0.574441	0.051443
C65	C	0.926241	0.603989	-0.166528
C66	C	0.926236	0.603993	-0.235491
C67	C	0.926256	0.807186	0.036633
C68	C	0.926257	0.876153	0.036622
C69	C	0.871985	0.687661	-0.309735
C70	C	0.871994	0.687658	-0.374529
C71	C	0.926248	0.603986	-0.365078
C72	C	0.980506	0.520311	-0.290826
C73	C	0.980502	0.520315	-0.226033
C74	C	0.980522	0.520295	-0.552129
C75	C	0.980519	0.520298	-0.616930
C76	C	0.872014	0.687638	-0.700625
C77	C	0.872010	0.687641	-0.635831
C78	C	0.926272	0.603967	-0.561585
C79	C	0.926263	0.603971	-0.491328
C80	C	0.926252	0.603981	-0.435334
C81	C	0.926269	0.603970	0.239862
C82	C	0.926274	0.603966	0.308825
C83	C	1.204065	0.378719	0.047733
C84	C	1.298351	0.302268	0.051488
C85	C	0.926267	0.400763	0.239896
C86	C	0.926272	0.331793	0.308870
C87	C	1.204079	0.378709	0.250928
C88	C	1.298370	0.302254	0.323646
C89	C	0.648431	0.829250	-0.177594
C90	C	0.554140	0.905705	-0.250312
C91	C	0.648445	0.829240	0.025602
C92	C	0.554158	0.905691	0.021846
C93	C	0.926242	0.807196	-0.166562
C94	C	0.926238	0.876166	-0.235536
C95	C	1.288378	0.270674	0.011413
C96	C	1.376961	0.198849	0.014926
C97	C	1.475517	0.158615	0.058519
C98	C	1.485488	0.190216	0.098596
C99	C	1.396906	0.262044	0.095078
C100	C	0.980524	0.295096	0.383100
C101	C	0.980525	0.230301	0.447915
C102	C	0.926277	0.202200	0.438498
C103	C	0.872017	0.238904	0.364260
C104	C	0.872012	0.303702	0.299447
C105	C	1.396905	0.262045	0.320272
C106	C	1.485510	0.190216	0.388592
C107	C	1.475577	0.158594	0.460286
C108	C	1.377032	0.198810	0.463658
C109	C	1.288430	0.270642	0.395339
C110	C	0.455605	0.945922	-0.246937
C111	C	0.367000	1.017771	-0.315258
C112	C	0.376932	1.049397	-0.386952
C113	C	0.475477	1.009176	-0.390324
C114	C	0.564080	0.937333	-0.322004
C115	C	0.564132	0.937292	0.061915
C116	C	0.475548	1.009135	0.058383
C117	C	0.376993	1.049371	0.014788
C118	C	0.367021	1.017767	-0.025285
C119	C	0.455604	0.945930	-0.021758
C120	C	0.980496	0.904246	-0.226095
C121	C	0.980512	0.969040	-0.290896
C122	C	0.926264	1.005758	-0.365139
C123	C	0.872004	0.977672	-0.374579
C124	C	0.871994	0.912874	-0.309778
H125	H	0.787050	0.112599	-0.070700
H126	H	0.405026	0.421985	0.127699
H127	H	0.827836	1.007577	-0.435035
H128	H	0.926290	0.149436	0.491280
H129	H	1.024695	0.991901	-0.283195
H130	H	1.024713	0.200423	0.508356
H131	H	1.405040	0.287758	0.127717
H132	H	1.208201	0.303372	0.398097
H133	H	1.024703	0.452158	-0.609226
H134	H	0.827798	0.755797	-0.317439
H135	H	0.827834	0.755769	-0.761085
H136	H	0.787040	0.438675	-0.070632
H137	H	0.827836	0.333573	0.239008
H138	H	1.024686	0.452184	-0.283136
H139	H	1.024700	0.317968	0.390782
H140	H	1.547638	0.100129	0.061378
H141	H	1.368822	0.173130	-0.017709
H142	H	0.827851	0.216014	0.356604
H143	H	0.483552	1.034936	-0.448706
H144	H	1.405012	0.287781	0.261902
H145	H	1.565741	0.157479	0.385833
H146	H	1.565744	0.157447	0.134088
H147	H	1.547732	0.100102	0.515911
H148	H	0.644373	0.904537	0.097420
H149	H	1.024671	0.874359	-0.165648
H150	H	1.024679	0.452184	-0.165580
H151	H	0.787054	0.321140	-0.070664
H152	H	0.787052	-0.004944	-0.070723
H153	H	1.368961	0.173052	0.522041
H154	H	0.827807	0.890019	-0.317476
H155	H	0.483687	1.034854	0.091019
H156	H	1.065460	-0.230720	0.143980
H157	H	0.286767	0.798718	-0.060730
H158	H	0.286769	1.050507	-0.312497
H159	H	1.065469	-0.113189	0.144000
H160	H	0.208141	0.725589	-0.024145
H161	H	0.447498	0.920177	-0.188567
H162	H	0.304778	1.107897	-0.442576
H163	H	0.447496	0.785971	-0.054361
H164	H	1.065461	0.095357	0.144032
H165	H	1.065464	0.212896	0.144062
H166	H	0.644309	0.904589	-0.324761
H167	H	0.304872	1.107864	0.011922
H168	H	0.286766	1.050538	-0.060780
H169	H	0.926280	1.058520	-0.417897
H170	H	0.827819	0.755788	-0.434980
H171	H	0.447469	0.920204	-0.054385
H172	H	0.644359	0.482361	0.097499
H173	H	0.565735	0.409234	0.134080
H174	H	0.827826	0.755776	-0.643534
H175	H	1.208137	0.303431	-0.024095
H176	H	1.024706	0.452162	-0.491683
