data_functionalizedCrystal
_audit_creation_method	'MofGen! by Chris Wilmer'
_symmetry_space_group_name_H-M	'P1'
_symmetry_Int_Tables_number	1
_symmetry_cell_setting	triclinic
loop_
_symmetry_equiv_pos_as_xyz
  x,y,z
_cell_length_a	21.295417
_cell_length_b	12.759401
_cell_length_c	12.759393
_cell_angle_alpha	90.019322
_cell_angle_beta	89.960830
_cell_angle_gamma	89.971580
loop_
_atom_site_label
_atom_site_type_symbol
_atom_site_fract_x
_atom_site_fract_y
_atom_site_fract_z
Zn1	Zn	-0.250607	-1.606140	-0.593949
Zn2	Zn	-0.355891	-1.605986	-0.418246
Zn3	Zn	-0.250636	-1.430442	-0.418286
Zn4	Zn	-0.355839	-1.430382	-0.593885
O5	O	-0.303243	-1.518237	-0.506091
O6	O	-0.264583	-1.753141	-0.570652
O7	O	-0.341963	-1.582660	-0.271230
O8	O	-0.162543	-1.453838	-0.441632
O9	O	-0.341935	-1.753027	-0.441563
O10	O	-0.162522	-1.582923	-0.570690
O11	O	-0.264632	-1.453689	-0.271259
O12	O	-0.264581	-1.283413	-0.441569
O13	O	-0.341845	-1.453736	-0.740914
O14	O	-0.341873	-1.283369	-0.570581
O15	O	-0.264532	-1.582865	-0.740962
O16	O	-0.443974	-1.582602	-0.441501
O17	O	-0.443935	-1.453587	-0.570542
C18	C	-0.303225	-1.245270	-0.506073
C19	C	-0.303233	-1.128493	-0.506090
C20	C	-0.466795	-1.518100	-0.506033
C21	C	-0.536763	-1.518137	-0.506043
C22	C	-0.343542	-1.073636	-0.573155
C23	C	-0.343547	-0.963912	-0.573165
C24	C	-0.262933	-0.963912	-0.439036
C25	C	-0.262925	-1.073635	-0.439033
C26	C	-0.383850	-1.128495	-0.640212
C27	C	-0.424163	-1.073637	-0.707281
C28	C	-0.424168	-0.963913	-0.707291
C29	C	-0.383861	-0.909047	-0.640232
C30	C	-0.569629	-1.585375	-0.438920
C31	C	-0.635371	-1.585424	-0.438944
C32	C	-0.668245	-1.518217	-0.506080
C33	C	-0.635372	-1.450974	-0.573215
C34	C	-0.569630	-1.450934	-0.573197
N35	N	-0.771509	-1.426309	-0.514083
N36	N	-0.833960	-1.426350	-0.514094
C37	C	-0.866320	-1.518334	-0.506140
N38	N	-0.833870	-1.610278	-0.498154
N39	N	-0.771412	-1.610236	-0.498137
C40	C	-0.739531	-1.518253	-0.506107
C41	C	-0.970471	-1.585631	-0.439039
C42	C	-1.036215	-1.585682	-0.439070
C43	C	-1.036214	-1.451223	-0.573336
C44	C	-0.970472	-1.451181	-0.573310
C45	C	-0.937604	-1.518384	-0.506156
C46	C	-0.139053	-1.518404	-0.506173
C47	C	-0.069085	-1.518475	-0.506207
C48	C	-0.303180	-1.518311	-0.780125
C49	C	-0.303153	-1.518342	-0.896901
C50	C	-0.303256	-0.792271	-0.506107
C51	C	-0.303246	-0.909047	-0.506104
C52	C	-0.262892	-1.585589	-0.951790
C53	C	-0.262869	-1.585614	-1.061514
C54	C	-0.343373	-1.451143	-1.061452
C55	C	-0.343392	-1.451113	-0.951730
C56	C	-0.222652	-1.652818	-0.896962
C57	C	-0.182389	-1.720071	-0.951850
C58	C	-0.182366	-1.720096	-1.061574
C59	C	-0.222607	-1.652868	-1.116410
C60	C	-0.303261	-1.518225	-0.233124
C61	C	-0.303111	-1.518397	-0.116348
H62	H	-0.383851	-1.217838	-0.640210
H63	H	-0.230117	-0.919231	-0.384439
H64	H	-0.383863	-0.819702	-0.640254
H65	H	-0.376167	-1.396339	-0.907038
O66	O	-1.068046	-1.651036	-0.373765
C67	C	-1.024935	-1.710355	-0.314512
H68	H	-0.978098	-1.667292	-0.310824
H69	H	-1.043968	-1.721613	-0.231750
H70	H	-1.017880	-1.790126	-0.353046
O71	O	-0.222697	-1.652612	-0.790377
C72	C	-0.206525	-1.551944	-0.753681
H73	H	-0.217233	-1.491418	-0.816900
H74	H	-0.234961	-1.533232	-0.680286
H75	H	-0.154305	-1.549779	-0.734182
H76	H	-0.230097	-1.118301	-0.384431
O77	O	-0.463293	-1.127092	-0.772324
C78	C	-0.454635	-1.235700	-0.757956
H79	H	-0.433961	-1.250667	-0.676939
H80	H	-0.501789	-1.277370	-0.764933
H81	H	-0.421155	-1.266885	-0.820375
O82	O	-0.537770	-1.385664	-0.638546
C83	C	-0.553753	-1.408597	-0.743285
H84	H	-0.601463	-1.449013	-0.745516
H85	H	-0.556016	-1.332749	-0.790330
H86	H	-0.516706	-1.462570	-0.778704
O87	O	-0.537800	-1.650763	-0.373666
C88	C	-0.580911	-1.710104	-0.314410
H89	H	-0.627751	-1.713739	-0.357457
H90	H	-0.561883	-1.792879	-0.303275
H91	H	-0.587961	-1.671681	-0.234583
H92	H	-0.456988	-0.919251	-0.761909
H93	H	-0.662136	-1.640181	-0.384285
O94	O	-0.143240	-1.785403	-0.898750
C95	C	-0.107709	-1.844778	-0.970729
H96	H	-0.105510	-1.801765	-1.048939
H97	H	-0.058120	-1.856032	-0.939057
H98	H	-0.130766	-1.924549	-0.982394
O99	O	-0.667372	-1.385833	-0.638481
C100	C	-0.705324	-1.445637	-0.706416
H101	H	-0.715151	-1.525281	-0.669432
H102	H	-0.751568	-1.402862	-0.720469
H103	H	-0.679944	-1.457125	-0.784278
H104	H	-0.149577	-1.774848	-1.106261
H105	H	-0.222577	-1.652881	-1.205755
H106	H	-0.376135	-1.396409	-1.106108
O107	O	-0.938442	-1.650819	-0.373853
C108	C	-0.873369	-1.636380	-0.388242
H109	H	-0.864415	-1.555273	-0.422572
H110	H	-0.848421	-1.643537	-0.309544
H111	H	-0.854650	-1.698652	-0.444243
O112	O	-1.068208	-1.386085	-0.638608
C113	C	-1.106155	-1.445891	-0.706547
H114	H	-1.115983	-1.525535	-0.669564
H115	H	-1.152399	-1.403119	-0.720609
H116	H	-1.080770	-1.457379	-0.784406
O117	O	-0.938640	-1.385756	-0.638537
C118	C	-0.981750	-1.326463	-0.697818
H119	H	-1.028637	-1.322880	-0.654797
H120	H	-0.962793	-1.243667	-0.708942
H121	H	-0.988679	-1.364894	-0.777649
