data_functionalizedCrystal
_audit_creation_method	'MofGen! by Chris Wilmer'
_symmetry_space_group_name_H-M	'P1'
_symmetry_Int_Tables_number	1
_symmetry_cell_setting	triclinic
loop_
_symmetry_equiv_pos_as_xyz
  x,y,z
_cell_length_a	17.038272
_cell_length_b	15.944551
_cell_length_c	15.021413
_cell_angle_alpha	89.996935
_cell_angle_beta	89.997778
_cell_angle_gamma	92.694853
loop_
_atom_site_label
_atom_site_type_symbol
_atom_site_fract_x
_atom_site_fract_y
_atom_site_fract_z
O1	O	1.037425	-0.182391	-0.073924
O2	O	1.370759	0.150942	0.259409
O3	O	1.704092	0.484275	0.592742
O4	O	0.809794	-0.179495	-0.073950
O5	O	1.143127	0.153838	0.259383
O6	O	1.476460	0.487172	0.592716
O7	O	0.929826	-0.059112	-0.073929
O8	O	1.263159	0.274221	0.259405
O9	O	1.596492	0.607554	0.592738
O10	O	0.917393	-0.302774	-0.073946
O11	O	1.250727	0.030559	0.259387
O12	O	1.584060	0.363892	0.592721
O13	O	0.929806	-0.059129	0.074136
O14	O	1.263140	0.274204	0.407469
O15	O	1.596473	0.607537	0.740802
O16	O	0.809775	-0.179512	0.074114
O17	O	1.143108	0.153821	0.407447
O18	O	1.476441	0.487155	0.740781
O19	O	1.037406	-0.182408	0.074140
O20	O	1.370739	0.150925	0.407473
O21	O	1.704073	0.484258	0.740807
Zn22	Zn	0.923587	-0.180963	0.097635
Zn23	Zn	1.256921	0.152370	0.430969
Zn24	Zn	1.590254	0.485704	0.764302
Zn25	Zn	0.923612	-0.180940	-0.097446
Zn26	Zn	1.256946	0.152393	0.235888
Zn27	Zn	1.590279	0.485726	0.569221
O28	O	0.917374	-0.302791	0.074118
O29	O	1.250708	0.030542	0.407452
O30	O	1.584041	0.363875	0.740785
C31	C	0.780655	-0.176869	0.000079
C32	C	1.113988	0.156464	0.333412
C33	C	1.447322	0.489797	0.666745
C34	C	0.693860	-0.169010	0.000069
C35	C	1.027193	0.164323	0.333402
C36	C	1.360526	0.497657	0.666735
C37	C	0.643767	-0.241168	0.000064
C38	C	0.977100	0.092166	0.333398
C39	C	1.310434	0.425499	0.666731
C40	C	0.562214	-0.233778	0.000077
C41	C	0.895548	0.099555	0.333410
C42	C	1.228881	0.432889	0.666744
C43	C	0.530756	-0.154230	0.000088
C44	C	0.864089	0.179103	0.333421
C45	C	1.197423	0.512437	0.666755
C46	C	0.580855	-0.082067	0.000095
C47	C	0.914189	0.251266	0.333429
C48	C	1.247522	0.584600	0.666762
C49	C	0.662406	-0.089457	0.000089
C50	C	0.995740	0.243876	0.333422
C51	C	1.329073	0.577209	0.666755
C52	C	0.284990	-0.128121	0.000114
C53	C	0.618324	0.205212	0.333447
C54	C	0.951657	0.538546	0.666780
C55	C	0.203433	-0.120736	0.000118
C56	C	0.536766	0.212597	0.333451
C57	C	0.870099	0.545931	0.666784
C58	C	0.184797	-0.272448	0.000101
C59	C	0.518131	0.060886	0.333434
C60	C	0.851464	0.394219	0.666768
C61	C	0.266351	-0.279831	0.000089
C62	C	0.599684	0.053502	0.333423
C63	C	0.933018	0.386836	0.666756
C64	C	0.316443	-0.207668	0.000101
C65	C	0.649776	0.125665	0.333434
C66	C	0.983110	0.458999	0.666768
C67	C	0.447396	-0.146675	0.000098
C68	C	0.780730	0.186659	0.333432
C69	C	1.114063	0.519992	0.666765
C70	C	0.399801	-0.215224	0.000097
C71	C	0.733135	0.118109	0.333431
C72	C	1.066468	0.451443	0.666764
C73	C	0.929300	-0.027790	0.000104
C74	C	1.262633	0.305543	0.333437
C75	C	1.595967	0.638877	0.666770
C76	C	0.927753	0.065567	0.000104
C77	C	1.261086	0.398900	0.333437
C78	C	1.594419	0.732233	0.666771
C79	C	1.066545	-0.185034	0.000109
C80	C	1.399878	0.148299	0.333443
C81	C	1.733211	0.481633	0.666776
C82	C	1.153340	-0.192893	0.000113
C83	C	1.486673	0.140440	0.333446
C84	C	1.820007	0.473773	0.666780
C85	C	0.917900	-0.334114	0.000084
C86	C	1.251233	-0.000780	0.333417
C87	C	1.584567	0.332553	0.666751
C88	C	0.919447	-0.427470	0.000078
C89	C	1.252781	-0.094137	0.333411
C90	C	1.586114	0.239197	0.666745
N91	N	0.923576	-0.180978	0.230773
N92	N	1.256909	0.152355	0.564106
N93	N	1.590242	0.485688	0.897440
C94	C	0.849653	0.286000	0.000083
C95	C	1.182986	0.619333	0.333416
C96	C	1.516319	0.952666	0.666749
C97	C	0.885910	0.344419	0.073092
C98	C	1.219244	0.677752	0.406425
C99	C	1.552577	1.011086	0.739758
C100	C	0.924953	0.236492	0.000097
C101	C	1.258287	0.569826	0.333430
C102	C	1.591620	0.903159	0.666763
C103	C	0.885947	0.344418	-0.072888
C104	C	1.219280	0.677751	0.260445
C105	C	1.552614	1.011085	0.593779
C106	C	0.922244	0.401598	0.000086
C107	C	1.255577	0.734932	0.333419
C108	C	1.588911	1.068265	0.666753
C109	C	0.961232	0.293682	0.073166
C110	C	1.294565	0.627015	0.406499
C111	C	1.627898	0.960349	0.739833
C112	C	0.961258	0.293676	-0.072879
C113	C	1.294591	0.627009	0.260454
C114	C	1.627924	0.960342	0.593787
C115	C	0.997570	0.352073	0.000147
C116	C	1.330903	0.685407	0.333481
C117	C	1.664237	1.018740	0.666814
C118	C	0.926512	0.141379	0.000104
C119	C	1.259845	0.474712	0.333437
C120	C	1.593179	0.808045	0.666770
C121	C	0.920691	0.496710	0.000085
C122	C	1.254024	0.830044	0.333419
C123	C	1.587358	1.163377	0.666752
N124	N	0.923630	-0.180919	-0.230583
N125	N	1.256963	0.152414	0.102750
N126	N	1.590297	0.485748	0.436083
C127	C	0.868065	-0.236615	0.470446
C128	C	1.201398	0.096719	0.803779
C129	C	1.534731	0.430052	1.137113
C130	C	0.938714	-0.257966	0.529787
C131	C	1.272047	0.075367	0.863121
C132	C	1.605381	0.408701	1.196454
C133	C	0.923596	-0.180959	0.412380
C134	C	1.256929	0.152375	0.745713
C135	C	1.590263	0.485708	1.079046
C136	C	0.852965	-0.159627	0.529780
C137	C	1.186299	0.173706	0.863114
C138	C	1.519632	0.507039	1.196447
C139	C	0.923609	-0.180941	0.587804
C140	C	1.256942	0.152392	0.921137
C141	C	1.590275	0.485725	1.254471
C142	C	0.994281	-0.202350	0.470415
C143	C	1.327614	0.130983	0.803748
C144	C	1.660948	0.464316	1.137081
C145	C	0.908486	-0.103976	0.470402
C146	C	1.241819	0.229358	0.803736
C147	C	1.575153	0.562691	1.137069
C148	C	0.979186	-0.125298	0.529717
C149	C	1.312520	0.208035	0.863050
C150	C	1.645853	0.541368	1.196383
C151	C	0.923587	-0.180971	0.311323
C152	C	1.256921	0.152363	0.644656
C153	C	1.590254	0.485696	0.977989
C154	C	0.923626	-0.180929	0.688859
C155	C	1.256959	0.152404	1.022192
C156	C	1.590292	0.485738	1.355526
H157	H	0.325766	-0.069360	0.000124
H158	H	0.659099	0.263973	0.333457
H159	H	0.992433	0.597306	0.666791
Cl160	Cl	0.499243	-0.324495	0.000066
Cl161	Cl	0.832577	0.008838	0.333399
Cl162	Cl	1.165910	0.342171	0.666733
Cl163	Cl	0.958465	-0.358467	0.570062
Cl164	Cl	1.291799	-0.025134	0.903395
Cl165	Cl	1.625132	0.308200	1.236728
Cl166	Cl	1.010401	0.259095	-0.168170
Cl167	Cl	1.343734	0.592428	0.165164
Cl168	Cl	1.677068	0.925762	0.498497
H169	H	0.993046	0.271412	0.134957
H170	H	1.326379	0.604746	0.468290
H171	H	1.659713	0.938079	0.801624
Cl172	Cl	0.407841	-0.046674	0.000108
Cl173	Cl	0.741175	0.286659	0.333441
Cl174	Cl	1.074508	0.619992	0.666775
H175	H	0.821151	-0.283725	0.444422
H176	H	1.154484	0.049608	0.777755
H177	H	1.487818	0.382941	1.111089
H178	H	0.669373	-0.305944	0.000055
H179	H	1.002707	0.027389	0.333388
H180	H	1.336040	0.360723	0.666721
Cl181	Cl	0.836766	0.378960	-0.168177
Cl182	Cl	1.170100	0.712293	0.165157
Cl183	Cl	1.503433	1.045627	0.498490
Cl184	Cl	1.086531	-0.230311	0.430329
Cl185	Cl	1.419865	0.103022	0.763662
Cl186	Cl	1.753198	0.436356	1.096996
H187	H	0.425418	-0.279992	0.000093
H188	H	0.758752	0.053342	0.333427
H189	H	1.092085	0.386675	0.666760
H190	H	1.026204	-0.078225	0.555578
H191	H	1.359538	0.255108	0.888911
H192	H	1.692871	0.588442	1.222244
Cl193	Cl	0.836728	0.378966	0.168377
Cl194	Cl	1.170061	0.712299	0.501710
Cl195	Cl	1.503395	1.045632	0.835043
H196	H	0.787150	0.257155	0.000148
H197	H	1.120483	0.590488	0.333482
H198	H	1.453816	0.923821	0.666815
H199	H	1.060128	0.380766	0.000196
H200	H	1.393461	0.714099	0.333529
H201	H	1.726794	1.047432	0.666862
H202	H	0.895672	-0.038899	0.444297
H203	H	1.229005	0.294435	0.777631
H204	H	1.562339	0.627768	1.110964
Cl205	Cl	0.760739	-0.131782	0.570043
Cl206	Cl	1.094072	0.201551	0.903377
Cl207	Cl	1.427405	0.534884	1.236710
H208	H	0.291958	-0.344607	0.000070
H209	H	0.625291	-0.011274	0.333403
H210	H	0.958625	0.322059	0.666737
H211	H	0.177823	-0.055955	0.000125
H212	H	0.511156	0.277378	0.333459
H213	H	0.844490	0.610711	0.666792
Cl214	Cl	0.121821	-0.363161	0.000090
Cl215	Cl	0.455154	-0.029827	0.333423
Cl216	Cl	0.788488	0.303506	0.666757
Cl217	Cl	0.541307	0.017937	0.000114
Cl218	Cl	0.874641	0.351270	0.333448
Cl219	Cl	1.207974	0.684604	0.666781
H220	H	0.703192	-0.030699	0.000092
H221	H	1.036525	0.302635	0.333425
H222	H	1.369858	0.635968	0.666759
