data_functionalizedCrystal
_audit_creation_method	'MofGen! by Chris Wilmer'
_symmetry_space_group_name_H-M	'P1'
_symmetry_Int_Tables_number	1
_symmetry_cell_setting	triclinic
loop_
_symmetry_equiv_pos_as_xyz
  x,y,z
_cell_length_a	16.974897
_cell_length_b	12.376457
_cell_length_c	16.974813
_cell_angle_alpha	82.300195
_cell_angle_beta	83.164002
_cell_angle_gamma	104.837762
loop_
_atom_site_label
_atom_site_type_symbol
_atom_site_fract_x
_atom_site_fract_y
_atom_site_fract_z
O1	O	1.081174	0.199095	0.068703
O2	O	0.847749	0.179231	0.084733
O3	O	0.969273	0.179214	-0.036786
O4	O	0.959651	0.199112	0.190223
O5	O	0.938902	-0.008797	-0.006447
O6	O	0.817379	-0.008779	0.115072
O7	O	1.050804	0.011085	0.099042
Zn8	Zn	0.929269	-0.028698	0.111874
Zn9	Zn	0.969284	0.219014	0.071901
O10	O	0.929280	0.011102	0.220562
C11	C	0.802665	0.082489	0.099854
C12	C	0.713574	0.074334	0.099701
N13	N	0.901966	-0.197755	0.139154
C14	C	0.688265	0.172979	0.083095
C15	C	0.604550	0.165301	0.082966
C16	C	0.546147	0.058976	0.099439
C17	C	0.571460	-0.039676	0.116049
C18	C	0.655172	-0.031996	0.116183
C19	C	0.294007	0.025019	0.100816
C20	C	0.210290	0.017346	0.100679
C21	C	0.243386	0.222325	0.067598
C22	C	0.327099	0.229995	0.067729
C23	C	0.352405	0.131343	0.084343
N24	N	0.460577	0.051125	0.099305
N25	N	0.437973	0.139195	0.084482
C26	C	1.059972	-0.552751	-0.018725
C27	C	1.079077	-0.434413	-0.037819
C28	C	1.034801	-0.375243	0.006423
C29	C	0.971417	-0.434422	0.069761
C30	C	0.952314	-0.552771	0.088860
C31	C	0.927143	-0.375262	0.114008
C32	C	0.863759	-0.434442	0.177346
C33	C	0.844659	-0.552779	0.196442
C34	C	0.888935	-0.611949	0.152201
C35	C	0.946245	-0.256913	0.094909
C36	C	0.838588	-0.256933	0.202494
C37	C	0.819483	-0.375271	0.221588
C38	C	1.095889	0.107829	0.083921
C39	C	1.184981	0.115992	0.084072
C40	C	0.953157	0.082470	-0.050633
C41	C	0.950375	0.074310	-0.137091
N42	N	0.996593	0.388070	0.044615
C43	C	0.965625	0.172960	-0.194243
C44	C	0.963005	0.165288	-0.275478
C45	C	0.945141	0.058966	-0.299561
C46	C	0.929887	-0.039692	-0.242403
C47	C	0.932502	-0.032020	-0.161168
C48	C	0.935541	0.025030	-0.540742
C49	C	0.932930	0.017366	-0.621984
C50	C	0.966046	0.222347	-0.655054
C51	C	0.968664	0.230010	-0.573816
C52	C	0.953406	0.131352	-0.516664
N53	N	0.942465	0.051122	-0.382597
N54	N	0.956076	0.139196	-0.433629
C55	C	0.945396	0.107848	0.234408
C56	C	0.948180	0.116016	0.320865
H57	H	0.583949	0.245629	0.069444
O58	O	0.390091	0.344675	0.049962
H59	H	0.375554	0.396625	0.095184
O60	O	0.776302	-0.616604	0.264763
H61	H	0.770464	-0.708833	0.270616
O62	O	0.751249	0.287666	0.065322
H63	H	0.796582	0.291790	0.011410
H64	H	1.130684	-0.386233	-0.089387
O65	O	0.790830	-0.193122	0.250216
H66	H	0.743556	-0.254152	0.297475
H67	H	0.675775	-0.112324	0.129709
H68	H	0.222772	0.302641	0.054073
O69	O	0.508466	-0.154354	0.133819
H70	H	0.540130	-0.221658	0.145398
H71	H	0.162734	-0.069239	0.114115
O72	O	0.916063	-0.138418	-0.099521
H73	H	0.903211	-0.213640	-0.129915
H74	H	0.767874	-0.423470	0.273159
H75	H	0.983211	0.316589	-0.554216
H76	H	0.314600	-0.055311	0.114340
H77	H	0.975426	0.245620	-0.322009
H78	H	0.978466	0.302668	-0.701595
O79	O	0.868336	-0.739590	0.172791
H80	H	0.803192	-0.777362	0.166258
H81	H	0.997853	-0.208740	0.043339
O82	O	1.107721	-0.616575	-0.066432
H83	H	1.174069	-0.587300	-0.061099
O84	O	0.984886	0.287636	-0.168267
H85	H	0.995039	0.354943	-0.221658
O86	O	1.055391	-0.247608	-0.014176
H87	H	1.106896	-0.216398	-0.065658
H88	H	0.918378	-0.069219	-0.641587
O89	O	0.919106	-0.081372	-0.479107
H90	H	0.906260	-0.156589	-0.509506
H91	H	0.915337	-0.126262	-0.262017
