data_functionalizedCrystal
_audit_creation_method	'MofGen! by Chris Wilmer'
_symmetry_space_group_name_H-M	'P1'
_symmetry_Int_Tables_number	1
_symmetry_cell_setting	triclinic
loop_
_symmetry_equiv_pos_as_xyz
  x,y,z
_cell_length_a	18.215407
_cell_length_b	18.050589
_cell_length_c	18.215399
_cell_angle_alpha	89.976397
_cell_angle_beta	89.980167
_cell_angle_gamma	90.028669
loop_
_atom_site_label
_atom_site_type_symbol
_atom_site_fract_x
_atom_site_fract_y
_atom_site_fract_z
Zn1	Zn	1.125055	-0.295658	-0.416138
Zn2	Zn	1.124956	-0.419853	-0.293081
Zn3	Zn	1.001987	-0.295682	-0.293085
Zn4	Zn	1.001946	-0.419812	-0.416106
O5	O	1.063486	-0.357751	-0.354603
O6	O	1.228026	-0.312140	-0.399826
O7	O	1.108620	-0.403409	-0.190097
O8	O	1.018371	-0.191755	-0.309424
O9	O	1.227953	-0.403386	-0.309417
O10	O	1.108788	-0.191737	-0.399830
O11	O	1.018275	-0.312181	-0.190101
O12	O	0.898998	-0.312141	-0.309393
O13	O	1.018301	-0.403315	-0.519095
O14	O	0.898967	-0.403339	-0.399775
O15	O	1.108748	-0.312100	-0.519118
O16	O	1.108580	-0.523772	-0.309385
O17	O	1.018205	-0.523742	-0.399771
C18	C	0.872280	-0.357739	-0.354582
C19	C	0.790481	-0.357751	-0.354590
C20	C	1.063397	-0.550704	-0.354590
C21	C	1.063427	-0.633249	-0.354610
C22	C	0.602291	-0.405312	-0.401593
C23	C	0.525432	-0.405315	-0.401602
C24	C	0.525434	-0.310204	-0.307628
C25	C	0.602291	-0.310199	-0.307623
C26	C	0.640718	-0.357757	-0.354605
C27	C	0.487001	-0.357765	-0.354619
C28	C	0.403668	-0.357767	-0.354628
C29	C	0.724056	-0.357754	-0.354596
C30	C	1.014329	-0.832710	-0.403744
C31	C	0.996389	-0.882151	-0.336590
C32	C	1.063499	-0.784380	-0.354619
C33	C	1.081475	-0.882021	-0.421781
C34	C	1.063567	-0.930365	-0.354635
C35	C	1.045524	-0.832733	-0.287430
C36	C	1.130641	-0.832599	-0.372666
C37	C	1.112726	-0.882017	-0.305466
C38	C	1.063458	-0.700281	-0.354612
C39	C	1.063609	-1.014461	-0.354635
C40	C	1.255439	-0.357765	-0.354624
C41	C	1.337238	-0.357770	-0.354634
C42	C	1.063531	-0.357700	-0.546556
C43	C	1.063550	-0.357678	-0.628355
C44	C	1.063595	-0.164046	-0.354631
C45	C	1.063642	-0.081500	-0.354643
C46	C	1.110663	-0.310138	-0.816562
C47	C	1.110672	-0.310117	-0.893421
C48	C	1.016489	-0.405104	-0.893385
C49	C	1.016477	-0.405121	-0.816528
C50	C	1.063568	-0.357639	-0.778118
C51	C	1.063589	-0.357600	-0.931834
C52	C	1.063598	-0.357577	-1.015168
C53	C	1.063558	-0.357661	-0.694779
C54	C	1.063484	-0.357749	-0.163396
C55	C	1.063607	-0.357561	-0.081598
H56	H	0.494148	-0.444038	-0.439866
O57	O	1.156491	-0.263952	-0.930651
C58	C	1.198035	-0.222036	-0.880266
H59	H	1.200558	-0.252470	-0.825475
H60	H	1.256026	-0.214112	-0.902485
H61	H	1.171115	-0.165634	-0.872094
H62	H	0.978151	-0.443763	-0.924667
O63	O	1.198380	-0.806700	-0.390810
C64	C	1.250338	-0.832900	-0.339667
H65	H	1.228559	-0.885320	-0.312340
H66	H	1.304015	-0.845865	-0.369174
H67	H	1.260454	-0.788703	-0.296134
H68	H	1.149006	-0.271474	-0.785291
O69	O	0.970705	-0.451338	-0.779292
C70	C	0.929135	-0.493235	-0.829672
H71	H	0.959284	-0.495798	-0.884465
H72	H	0.921251	-0.551751	-0.807450
H73	H	0.873258	-0.466036	-0.837840
H74	H	0.494138	-0.271485	-0.269377
O75	O	0.639510	-0.263977	-0.261906
C76	C	0.589115	-0.221994	-0.220448
H77	H	0.534314	-0.252411	-0.217850
H78	H	0.611305	-0.213997	-0.162478
H79	H	0.580977	-0.165626	-0.247491
O80	O	0.964600	-0.807000	-0.453244
C81	C	0.929350	-0.867330	-0.487509
H82	H	0.933167	-0.918214	-0.450620
H83	H	0.869183	-0.853107	-0.497355
H84	H	0.957194	-0.879455	-0.542260
O85	O	0.639505	-0.451527	-0.447304
C86	C	0.589103	-0.493512	-0.488767
H87	H	0.534330	-0.463099	-0.491365
H88	H	0.611328	-0.501502	-0.546737
H89	H	0.580894	-0.549883	-0.461728
H90	H	0.939642	-0.903933	-0.321340
O91	O	1.027214	-0.806983	-0.219704
C92	C	0.963093	-0.763569	-0.224817
H93	H	0.931089	-0.779991	-0.276065
H94	H	0.927545	-0.773085	-0.174159
H95	H	0.978793	-0.702525	-0.228362
O96	O	1.162285	-0.907655	-0.255759
C97	C	1.143106	-0.882390	-0.185079
H98	H	1.082043	-0.868662	-0.183622
H99	H	1.155503	-0.927466	-0.143024
H100	H	1.176263	-0.830615	-0.171436
H101	H	1.096652	-0.903671	-0.478573
