data_functionalizedCrystal
_audit_creation_method	'MofGen! by Chris Wilmer'
_symmetry_space_group_name_H-M	'P1'
_symmetry_Int_Tables_number	1
_symmetry_cell_setting	triclinic
loop_
_symmetry_equiv_pos_as_xyz
  x,y,z
_cell_length_a	16.959455
_cell_length_b	19.121063
_cell_length_c	19.121278
_cell_angle_alpha	90.135726
_cell_angle_beta	87.574851
_cell_angle_gamma	92.465894
loop_
_atom_site_label
_atom_site_type_symbol
_atom_site_fract_x
_atom_site_fract_y
_atom_site_fract_z
Zn1	Zn	1.176166	-0.262261	0.408274
Zn2	Zn	1.175586	-0.384504	0.296032
Zn3	Zn	1.049376	-0.267277	0.291054
Zn4	Zn	1.038077	-0.379458	0.413230
O5	O	1.109801	-0.323375	0.352147
O6	O	1.286699	-0.278489	0.393395
O7	O	1.163330	-0.373165	0.197266
O8	O	1.071167	-0.168505	0.302446
O9	O	1.286272	-0.368300	0.310930
O10	O	1.164319	-0.164819	0.388568
O11	O	1.070604	-0.287039	0.193609
O12	O	0.937268	-0.282146	0.307251
O13	O	1.051908	-0.359700	0.510678
O14	O	0.928966	-0.364564	0.397014
O15	O	1.153362	-0.273596	0.507037
O16	O	1.152373	-0.481941	0.315735
O17	O	1.051346	-0.478234	0.401840
C18	C	0.904437	-0.323352	0.352130
C19	C	0.816579	-0.323359	0.352140
C20	C	0.449398	-0.280419	0.305500
C21	C	0.440802	-0.366387	0.398837
C22	C	0.523349	-0.366377	0.398832
C23	C	0.568924	-0.323388	0.352160
C24	C	0.531953	-0.280409	0.305493
C25	C	0.560326	-0.409360	0.445494
C26	C	0.642877	-0.409353	0.445491
C27	C	0.688454	-0.366360	0.398822
C28	C	0.651478	-0.323378	0.352153
C29	C	0.697054	-0.280390	0.305480
C30	C	0.660079	-0.237404	0.258814
C31	C	0.577530	-0.237416	0.258823
C32	C	0.771004	-0.366348	0.398813
C33	C	0.779608	-0.280380	0.305473
C34	C	1.100591	-0.505525	0.359881
C35	C	1.096722	-0.583449	0.363213
C36	C	1.147542	-0.621963	0.319985
C37	C	1.143908	-0.695180	0.323123
C38	C	1.089450	-0.729882	0.369486
C39	C	1.038628	-0.691363	0.412718
C40	C	1.042266	-0.618147	0.409583
C41	C	1.075834	-0.950852	0.381195
C42	C	1.072197	-1.024073	0.384325
C43	C	1.177478	-1.027886	0.294730
C44	C	1.181109	-0.954668	0.291597
C45	C	1.130290	-0.916155	0.334832
C46	C	1.085732	-0.804722	0.372692
C47	C	1.134012	-0.841316	0.331628
C48	C	1.315967	-0.323398	0.352165
C49	C	1.403823	-0.323408	0.352172
C50	C	1.101439	-0.315525	0.535006
C51	C	1.097876	-0.312181	0.612930
C52	C	1.119068	-0.140512	0.344399
C53	C	1.123017	-0.062587	0.341097
C54	C	1.118178	-0.331143	0.169998
C55	C	1.121905	-0.334290	0.092066
C56	C	1.075304	-0.291020	1.053555
C57	C	1.078656	-0.294160	0.980338
C58	C	1.128605	-0.340575	0.945632
C59	C	1.175210	-0.383847	0.984148
C60	C	1.171862	-0.380703	1.057364
C61	C	1.141133	-0.352309	0.724662
C62	C	1.144476	-0.355451	0.651441
C63	C	1.047923	-0.265763	0.647635
C64	C	1.044575	-0.262625	0.720853
C65	C	1.091184	-0.305895	0.759362
C66	C	1.132030	-0.343787	0.870792
C67	C	1.087762	-0.302679	0.834201
H68	H	0.523213	-0.444365	0.483488
H69	H	1.034629	-0.253225	1.081807
H70	H	0.403690	-0.401391	0.436832
H71	H	1.225453	-0.926415	0.253844
C72	C	1.199809	-0.737543	0.275564
N73	N	1.241915	-0.769450	0.239739
H74	H	1.209811	-0.415937	1.088719
C75	C	1.186967	-0.394848	0.832609
N76	N	1.228345	-0.433306	0.803847
H77	H	0.672975	-0.444354	0.483490
H78	H	1.185170	-0.393235	0.623185
H79	H	1.027860	-1.052325	0.422091
C80	C	0.811672	-0.413629	0.450142
N81	N	0.842303	-0.449242	0.488808
H82	H	1.009978	-0.230534	0.616273
C83	C	1.019969	-0.908496	0.428791
N84	N	0.977904	-0.876589	0.464656
C85	C	1.032820	-0.251624	0.872379
N86	N	0.991435	-0.213171	0.901141
C87	C	0.978721	-0.729538	0.463715
N88	N	0.933594	-0.758291	0.502124
C89	C	0.408726	-0.233136	0.254170
N90	N	0.378091	-0.197523	0.215508
C91	C	0.986361	-0.575782	0.457138
N92	N	0.944254	-0.543873	0.492959
H93	H	1.191884	-0.593714	0.282229
C94	C	1.230155	-0.434904	0.945970
N95	N	1.271537	-0.473364	0.917215
H96	H	0.816710	-0.245368	0.267470
H97	H	1.218853	-1.059251	0.259532
H98	H	0.697197	-0.202406	0.220811
C99	C	0.989638	-0.211557	0.759023
N100	N	0.948259	-0.173091	0.787772
C101	C	0.536851	-0.190139	0.207492
N102	N	0.506209	-0.154532	0.168829
H103	H	1.178355	-0.813060	0.293882
H104	H	1.179083	-0.387544	0.756008
H105	H	1.040708	-0.258925	0.948985
H106	H	1.041391	-0.832985	0.410440
