data_functionalizedCrystal
_audit_creation_method	'MofGen! by Chris Wilmer'
_symmetry_space_group_name_H-M	'P1'
_symmetry_Int_Tables_number	1
_symmetry_cell_setting	triclinic
loop_
_symmetry_equiv_pos_as_xyz
  x,y,z
_cell_length_a	19.288864
_cell_length_b	11.792241
_cell_length_c	17.766277
_cell_angle_alpha	89.993523
_cell_angle_beta	89.976791
_cell_angle_gamma	83.664831
loop_
_atom_site_label
_atom_site_type_symbol
_atom_site_fract_x
_atom_site_fract_y
_atom_site_fract_z
O1	O	0.922157	0.141582	-0.062836
O2	O	0.720005	0.160681	-0.062785
O3	O	0.825987	-0.014113	-0.062806
O4	O	0.816176	0.316377	-0.062814
O5	O	0.825968	-0.014122	0.062382
O6	O	0.719986	0.160673	0.062404
O7	O	0.922139	0.141573	0.062352
Cu8	Cu	0.821061	0.151122	0.073809
Cu9	Cu	0.821083	0.151133	-0.074241
O10	O	0.816157	0.316368	0.062374
C11	C	0.694116	0.160063	-0.000184
C12	C	0.617002	0.158218	-0.000164
C13	C	0.825361	-0.056399	-0.000212
C14	C	0.823517	-0.182385	-0.000212
C15	C	0.572888	0.260779	-0.000178
C16	C	0.500431	0.259046	-0.000187
C17	C	0.472091	0.154746	-0.000196
C18	C	0.516215	0.052171	-0.000177
C19	C	0.588670	0.053907	-0.000161
C20	C	0.363370	0.072757	-0.044078
C21	C	0.290916	0.071025	-0.044099
C22	C	0.248615	0.149387	-0.000241
C23	C	0.278776	0.229499	0.043627
C24	C	0.351232	0.231235	0.043643
C25	C	0.393526	0.152852	-0.000212
C26	C	0.125935	0.250076	-0.000263
C27	C	0.053477	0.248339	-0.000267
C28	C	0.069262	0.041460	-0.000265
C29	C	0.141718	0.043201	-0.000254
C30	C	0.170050	0.147512	-0.000257
C31	C	0.820125	-0.413045	-0.000224
C32	C	0.822009	-0.284689	-0.000218
C33	C	0.948028	0.142192	-0.000250
C34	C	1.025142	0.144037	-0.000275
C35	C	0.816783	0.358654	-0.000222
C36	C	0.818627	0.484640	-0.000226
N37	N	0.821050	0.151114	0.177939
N38	N	0.821099	0.151132	-0.178371
C39	C	0.867994	0.073753	0.217316
C40	C	0.867998	0.073748	0.296118
C41	C	0.821065	0.151123	0.335540
C42	C	0.774112	0.228490	0.296153
C43	C	0.774105	0.228486	0.217353
C44	C	0.812354	0.254534	0.460377
C45	C	0.812366	0.254540	0.539175
C46	C	0.821084	0.151137	0.578586
C47	C	0.829804	0.047723	0.539188
C48	C	0.829797	0.047719	0.460388
C49	C	0.821067	0.151136	0.420985
C50	C	0.868035	0.073764	0.703409
C51	C	0.868034	0.073757	0.782213
C52	C	0.774151	0.228509	0.782246
C53	C	0.774148	0.228506	0.703444
C54	C	0.821094	0.151135	0.664030
H55	H	0.595951	0.345717	-0.000182
H56	H	0.906219	0.010750	0.185228
H57	H	0.375786	0.296462	0.079364
H58	H	0.836902	-0.036478	0.571275
H59	H	0.493136	-0.032752	-0.000195
H60	H	0.149004	0.335012	-0.000255
H61	H	0.906259	0.010759	0.671318
O62	O	0.041825	-0.059931	-0.000373
C63	C	0.064351	-0.122415	-0.065215
H64	H	0.114725	-0.091738	-0.086822
H65	H	0.074044	-0.216981	-0.050630
H66	H	0.022502	-0.109053	-0.110623
H67	H	0.397806	0.008943	-0.079797
H68	H	0.464507	0.342567	-0.000196
H69	H	0.244336	0.293308	0.079341
H70	H	0.017560	0.331860	-0.000274
H71	H	0.836895	-0.036484	0.428313
H72	H	0.624588	-0.029614	-0.000150
H73	H	0.177637	-0.040316	-0.000246
O74	O	0.728478	0.303753	0.179214
C75	C	0.687038	0.372026	0.230902
H76	H	0.715520	0.373191	0.287060
H77	H	0.676779	0.462709	0.208131
H78	H	0.635306	0.335386	0.239310
H79	H	0.266364	0.005797	-0.079822
O80	O	0.913706	-0.001438	0.820350
C81	C	0.955126	-0.069740	0.768660
H82	H	0.956076	-0.023211	0.712484
H83	H	1.010530	-0.087271	0.791401
H84	H	0.932267	-0.153966	0.760300
H85	H	0.906227	0.010749	0.328185
O86	O	0.728528	0.303517	0.820612
C87	C	0.685445	0.242912	0.866207
H88	H	0.712777	0.153986	0.878007
H89	H	0.674636	0.290333	0.921620
H90	H	0.634084	0.235411	0.835864
O91	O	0.728526	0.303775	0.665305
C92	C	0.687089	0.372050	0.716994
H93	H	0.715573	0.373217	0.773150
H94	H	0.676830	0.462732	0.694222
H95	H	0.635357	0.335413	0.725406
H96	H	0.805270	0.338745	0.571247
H97	H	0.805242	0.338743	0.428295
H98	H	0.735897	0.291489	0.328254
