data_functionalizedCrystal
_audit_creation_method	'MofGen! by Chris Wilmer'
_symmetry_space_group_name_H-M	'P1'
_symmetry_Int_Tables_number	1
_symmetry_cell_setting	triclinic
loop_
_symmetry_equiv_pos_as_xyz
  x,y,z
_cell_length_a	14.853567
_cell_length_b	14.853567
_cell_length_c	9.730217
_cell_angle_alpha	90.001561
_cell_angle_beta	90.000542
_cell_angle_gamma	83.634930
loop_
_atom_site_label
_atom_site_type_symbol
_atom_site_fract_x
_atom_site_fract_y
_atom_site_fract_z
O1	O	0.117703	1.196361	-0.114183
O2	O	0.131724	0.933901	-0.114205
O3	O	-0.006516	1.072142	-0.114198
O4	O	0.255943	1.058120	-0.114191
O5	O	-0.006518	1.072138	0.114382
O6	O	0.131723	0.933897	0.114375
O7	O	0.117701	1.196357	0.114397
Zn8	Zn	0.124712	1.065126	0.150678
Zn9	Zn	0.124714	1.065132	-0.150486
O10	O	0.255942	1.058116	0.114389
C11	C	0.131088	0.900311	0.000082
C12	C	0.129184	0.800227	0.000073
C13	C	0.039019	0.387693	0.000101
C14	C	0.203251	0.366412	0.000104
C15	C	0.205042	0.460446	0.000100
C16	C	0.123819	0.518108	0.000094
C17	C	0.040806	0.481736	0.000092
C18	C	0.288053	0.496825	0.000087
C19	C	0.289846	0.590864	0.000081
C20	C	0.208623	0.648528	0.000085
C21	C	0.125607	0.612150	0.000085
C22	C	0.044384	0.669812	0.000080
C23	C	-0.038633	0.633437	0.000090
C24	C	-0.040417	0.539399	0.000096
C25	C	0.210407	0.742565	0.000078
C26	C	0.046172	0.763855	0.000071
C27	C	-0.040106	1.071504	0.000088
C28	C	-0.140189	1.069601	0.000076
C29	C	-0.552723	0.979435	0.000095
C30	C	-0.574004	1.143668	0.000108
C31	C	-0.479971	1.145458	0.000100
C32	C	-0.422309	1.064235	0.000092
C33	C	-0.458680	0.981223	0.000091
C34	C	-0.443591	1.228469	0.000115
C35	C	-0.349552	1.230262	0.000109
C36	C	-0.291889	1.149039	0.000090
C37	C	-0.328266	1.066023	0.000088
C38	C	-0.270604	0.984800	0.000079
C39	C	-0.306979	0.901783	0.000067
C40	C	-0.401017	0.899999	0.000072
C41	C	-0.197851	1.150823	0.000085
C42	C	-0.176561	0.986588	0.000075
C43	C	0.289531	1.058754	0.000100
C44	C	0.389615	1.060657	0.000103
C45	C	0.118337	1.229947	0.000107
C46	C	0.120241	1.330031	0.000107
N47	N	0.124710	1.065129	0.356214
N48	N	0.124708	1.065136	-0.356023
C49	C	0.002334	1.187591	0.356212
C50	C	-0.058852	1.248828	0.428150
C51	C	-0.058853	1.248837	0.572030
C52	C	0.002337	1.187601	0.643974
C53	C	0.063523	1.126364	0.572036
C54	C	0.063519	1.126363	0.428153
C55	C	0.185894	1.003899	0.572039
C56	C	0.185900	1.003893	0.428159
C57	C	0.247084	0.942663	0.643983
C58	C	0.308275	0.881429	0.572045
C59	C	0.308274	0.881423	0.428156
C60	C	0.247086	0.942656	0.356220
H61	H	0.269379	0.319459	0.000097
C62	C	0.360905	0.725427	0.616356
C63	C	0.375523	0.814121	0.651131
H64	H	0.402419	0.683875	0.665193
H65	H	0.369674	0.716666	0.520385
H66	H	0.300710	0.715585	0.639929
H67	H	0.435716	0.823965	0.627547
H68	H	0.366761	0.822886	0.747123
C69	C	-0.259872	0.762351	-0.117453
C70	C	-0.243593	0.812503	0.000057
H71	H	-0.220740	0.707233	-0.117452
H72	H	-0.248831	0.796389	-0.197143
H73	H	-0.321083	0.749405	-0.117444
H74	H	-0.182383	0.825455	0.000043
H75	H	-0.254626	0.778458	0.079767
H76	H	0.247077	0.942669	0.761138
H77	H	-0.104764	0.680397	0.000075
C78	C	-0.058278	0.294289	-0.117392
C79	C	-0.052232	0.347715	0.000105
H80	H	-0.114615	0.269613	-0.117391
H81	H	-0.010170	0.246492	-0.117373
H82	H	-0.054163	0.330534	-0.197099
H83	H	-0.056339	0.311468	0.079813
H84	H	-0.100353	0.395518	0.000099
H85	H	-0.019971	0.810798	0.000072
C86	C	-0.181505	1.268263	0.733847
C87	C	-0.126109	1.316144	0.651117
H88	H	-0.223029	1.309816	0.782666
H89	H	-0.145059	1.231804	0.797269
H90	H	-0.214008	1.230705	0.677705
H91	H	-0.093601	1.353697	0.707260
H92	H	-0.162560	1.352618	0.587687
C93	C	0.358225	0.343224	0.000129
C94	C	0.377328	0.433444	0.000102
H95	H	0.413344	0.304093	0.000151
H96	H	0.324201	0.332182	-0.079577
H97	H	0.324188	0.332207	0.079846
H98	H	0.411360	0.444462	-0.079621
H99	H	0.411367	0.444490	0.079816
C100	C	-0.535719	0.824339	0.000100
C101	C	-0.441003	0.808753	0.000079
H102	H	-0.560405	0.768008	0.000118
H103	H	-0.555501	0.857778	-0.079605
H104	H	-0.555485	0.857792	0.079818
H105	H	-0.421236	0.775306	-0.079644
H106	H	-0.421213	0.775300	0.079792
H107	H	-0.108005	0.509774	0.000137
H108	H	-0.129618	0.920445	0.000062
C109	C	-0.561692	1.321732	-0.117378
C110	C	-0.506974	1.317743	0.000129
H111	H	-0.600821	1.376851	-0.117370
H112	H	-0.596805	1.272041	-0.117377
H113	H	-0.524555	1.319025	-0.197078
H114	H	-0.544111	1.320444	0.079830
H115	H	-0.471858	1.367448	0.000141
H116	H	-0.582344	0.911844	0.000079
H117	H	0.357443	0.620472	0.000073
C118	C	-0.380044	1.392424	0.000113
C119	C	-0.309573	1.321512	0.000106
H120	H	-0.355359	1.448756	0.000099
H121	H	-0.416271	1.388311	0.079825
H122	H	-0.416287	1.388302	-0.079598
H123	H	-0.273334	1.325630	0.079822
H124	H	-0.273331	1.325626	-0.079614
C125	C	0.350936	0.753371	-0.117438
C126	C	0.301650	0.782549	0.000067
H127	H	0.407271	0.778051	-0.117437
H128	H	0.317486	0.773158	-0.197131
H129	H	0.361489	0.689113	-0.117423
H130	H	0.291091	0.846808	0.000046
H131	H	0.335107	0.762767	0.079781
H132	H	-0.620958	1.209795	0.000126
H133	H	0.358095	0.831553	0.369591
C134	C	0.180452	1.009325	0.150117
C135	C	0.247081	0.942649	0.198065
H136	H	0.180444	1.009316	0.052478
H137	H	0.192911	1.066948	0.182656
H138	H	0.122810	0.996920	0.182683
H139	H	0.304723	0.955058	0.165507
H140	H	0.234627	0.885014	0.165512
C141	C	0.020694	1.272543	0.150108
C142	C	0.002338	1.187589	0.198057
H143	H	0.020690	1.272543	0.052469
H144	H	0.078336	1.284931	0.182658
H145	H	-0.024508	1.317770	0.182664
H146	H	0.047544	1.142363	0.165509
H147	H	-0.055312	1.175190	0.165493
H148	H	-0.108674	1.298684	0.369560
H149	H	-0.168238	1.218414	0.000104
H150	H	0.002326	1.187605	0.761129
