data_functionalizedCrystal
_audit_creation_method	'MofGen! by Chris Wilmer'
_symmetry_space_group_name_H-M	'P1'
_symmetry_Int_Tables_number	1
_symmetry_cell_setting	triclinic
loop_
_symmetry_equiv_pos_as_xyz
  x,y,z
_cell_length_a	33.428889
_cell_length_b	33.428139
_cell_length_c	33.424847
_cell_angle_alpha	60.004234
_cell_angle_beta	60.008465
_cell_angle_gamma	59.994972
loop_
_atom_site_label
_atom_site_type_symbol
_atom_site_fract_x
_atom_site_fract_y
_atom_site_fract_z
O1	O	0.055565	-0.584504	0.488714
O2	O	0.020982	-0.455083	0.393778
O3	O	0.102943	-0.536959	0.393689
O4	O	-0.026396	-0.502628	0.488803
O5	O	0.130140	-0.509767	0.420792
O6	O	0.048179	-0.427891	0.420881
O7	O	0.082762	-0.557312	0.515817
Cu8	Cu	0.067954	-0.490119	0.470823
Cu9	Cu	0.035790	-0.522276	0.438771
O10	O	0.000801	-0.475436	0.515906
N11	N	0.090577	-0.467504	0.493370
N12	N	0.013171	-0.544895	0.416225
C13	C	0.143377	-0.280390	0.546067
C14	C	0.143515	-0.414755	0.680369
C15	C	0.143392	-0.414735	0.546069
C16	C	0.277766	-0.414702	0.545966
C17	C	0.158177	-0.324719	0.560828
C18	C	0.158255	-0.399967	0.636038
C19	C	0.233434	-0.399936	0.560773
C20	C	0.158186	-0.399955	0.560829
C21	C	0.124540	-0.223964	0.527278
C22	C	0.124565	-0.433545	0.527281
C23	C	0.177014	-0.381145	0.579617
C24	C	0.359814	-0.400540	0.502735
C25	C	0.411105	-0.417624	0.485606
C26	C	0.411136	-0.500620	0.517255
C27	C	0.359845	-0.483534	0.534385
C28	C	0.136887	-0.198305	0.476855
C29	C	0.119761	-0.147011	0.459777
C30	C	0.077945	-0.147038	0.543547
C31	C	0.095072	-0.198332	0.560625
C32	C	0.074134	-0.421169	0.539710
C33	C	0.057023	-0.438269	0.522625
C34	C	0.140770	-0.480120	0.480694
C35	C	0.157883	-0.463020	0.497773
C36	C	0.074339	-0.421208	0.762475
C37	C	0.057288	-0.438323	0.813768
C38	C	0.141075	-0.480183	0.813699
C39	C	0.158125	-0.463069	0.762404
C40	C	0.124756	-0.433580	0.736794
C41	C	0.334186	-0.433494	0.527123
C42	C	-0.173769	-0.597444	0.363037
C43	C	-0.039302	-0.597595	0.228856
C44	C	-0.039496	-0.597587	0.363300
C45	C	-0.039512	-0.731889	0.363237
C46	C	-0.129442	-0.612265	0.348329
C47	C	-0.054138	-0.612351	0.273187
C48	C	-0.054257	-0.687554	0.348440
C49	C	-0.054247	-0.612346	0.348477
C50	C	-0.230191	-0.578579	0.381758
C51	C	-0.020722	-0.578803	0.382168
C52	C	-0.073020	-0.631130	0.329609
C53	C	-0.053713	-0.813916	0.406386
C54	C	-0.036654	-0.865210	0.423504
C55	C	0.046338	-0.865293	0.391984
C56	C	0.029278	-0.813999	0.374865
C57	C	-0.255900	-0.590938	0.432169
C58	C	-0.307191	-0.573786	0.449185
C59	C	-0.307060	-0.531922	0.365377
C60	C	-0.255769	-0.549074	0.348360
C61	C	-0.033081	-0.528377	0.369764
C62	C	-0.016014	-0.511306	0.386922
C63	C	0.025770	-0.595083	0.428877
C64	C	0.008703	-0.612156	0.411725
C65	C	-0.032755	-0.528393	0.146761
C66	C	-0.015585	-0.511324	0.095468
C67	C	0.026262	-0.595106	0.095516
C68	C	0.009094	-0.612174	0.146811
C69	C	-0.020417	-0.578816	0.172432
C70	C	-0.020748	-0.788312	0.382068
N71	N	0.436037	-0.467415	0.493101
O72	O	0.592642	-0.471896	0.376066
O73	O	0.592838	-0.567146	0.505347
O74	O	0.592754	-0.566928	0.423360
O75	O	0.592727	-0.472113	0.458053
O76	O	0.511269	-0.539835	0.450606
O77	O	0.511353	-0.540052	0.532594
O78	O	0.511157	-0.444802	0.403312
Cu79	Cu	0.503815	-0.489954	0.470441
Cu80	Cu	0.600180	-0.521995	0.438219
O81	O	0.511242	-0.445020	0.485300
N82	N	0.667959	-0.544533	0.415554
N83	N	0.090544	-0.122107	0.493359
O84	O	-0.026406	0.034587	0.488773
O85	O	0.102877	0.034627	0.393499
O86	O	0.020848	0.034591	0.393771
O87	O	0.055623	0.034623	0.488500
O88	O	0.048051	-0.046899	0.420925
O89	O	0.130080	-0.046864	0.420653
O90	O	0.000796	-0.046903	0.515927
Cu91	Cu	0.067922	-0.054324	0.470769
Cu92	Cu	0.035752	0.042048	0.438656
O93	O	0.082825	-0.046867	0.515655
N94	N	0.013123	0.109830	0.416068
N95	N	0.090892	-0.467554	0.838649
O96	O	0.086330	-0.584488	0.995334
O97	O	-0.008902	-0.455160	0.995379
O98	O	-0.008679	-0.537172	0.995355
O99	O	0.086107	-0.502475	0.995358
O100	O	0.018452	-0.509990	0.913868
O101	O	0.018230	-0.427978	0.913891
O102	O	0.113461	-0.557306	0.913847
Cu103	Cu	0.068323	-0.490160	0.906429
Cu104	Cu	0.036237	-0.522306	1.002797
O105	O	0.113239	-0.475293	0.913870
N106	N	0.013667	-0.544916	1.070577
C107	C	0.031339	-0.425179	0.394250
C108	C	0.132837	-0.526572	0.394139
C109	C	0.072405	-0.587216	0.515344
C110	C	-0.029093	-0.485823	0.515455
C111	C	0.552119	-0.566716	0.535258
C112	C	0.552016	-0.566447	0.433726
C113	C	0.551873	-0.445232	0.373402
C114	C	0.551980	-0.445502	0.474933
C115	C	0.132731	-0.006013	0.393923
C116	C	0.031182	-0.006158	0.394293
C117	C	-0.029092	-0.006163	0.515469
C118	C	0.072491	-0.006119	0.515133
C119	C	-0.008451	-0.425276	0.954641
C120	C	-0.008170	-0.526833	0.954596
C121	C	0.113010	-0.587190	0.954585
C122	C	0.112735	-0.485627	0.954611
H123	H	0.047163	-0.397193	0.741627
C124	C	0.551963	-0.405260	0.484956
H125	H	0.551917	-0.376735	0.456643
H126	H	0.523566	-0.397661	0.511704
H127	H	0.580401	-0.416557	0.492698
C128	C	-0.065219	-0.491699	0.174942
H129	H	-0.073681	-0.509084	0.209167
H130	H	-0.047814	-0.471711	0.166572
H131	H	-0.094195	-0.471669	0.166479
C132	C	0.552195	-0.607114	0.585415
H133	H	0.552212	-0.595278	0.605997
H134	H	0.523798	-0.616046	0.600098
H135	H	0.580633	-0.634941	0.581094
C136	C	0.551791	-0.404831	0.323247
H137	H	0.551780	-0.416669	0.302664
H138	H	0.523358	-0.377005	0.327569
H139	H	0.580192	-0.395901	0.308561
C140	C	0.082547	-0.006109	0.555341
H141	H	0.054238	-0.006113	0.583866
H142	H	0.109287	-0.034519	0.562951
H143	H	0.090311	0.022320	0.544012
H144	H	-0.328125	-0.583847	0.490235
C145	C	0.182782	-0.005688	0.353414
H146	H	0.203360	-0.005609	0.365208
H147	H	0.197557	-0.034041	0.344378
H148	H	0.178305	0.022797	0.325666
H149	H	0.079796	-0.624394	0.545162
H150	H	0.056124	-0.793157	0.355062
C151	C	0.021126	-0.006173	0.354088
H152	H	-0.011316	-0.006189	0.366081
H153	H	0.024757	0.022245	0.326220
H154	H	0.043730	-0.034593	0.345166
C155	C	-0.079247	-0.006178	0.555875
H156	H	-0.099849	-0.006186	0.544058
H157	H	-0.074933	-0.034593	0.583716
H158	H	-0.093906	0.022245	0.564774
H159	H	0.169984	-0.533889	0.364272
C160	C	-0.048841	-0.375100	0.954651
H161	H	-0.077282	-0.375053	0.954648
H162	H	-0.056545	-0.369118	0.983069
H163	H	-0.037614	-0.350171	0.926232
C164	C	-0.048381	-0.536843	0.954549
H165	H	-0.036400	-0.569284	0.954525
H166	H	-0.076253	-0.533194	0.982960
H167	H	-0.057293	-0.514228	0.926123
H168	H	0.142514	-0.478200	0.954606
H169	H	0.016234	-0.428240	0.834672
H170	H	-0.066242	-0.478508	0.545321
H171	H	0.142910	-0.624330	0.954565
H172	H	0.199181	-0.473148	0.741498
C173	C	0.177782	-0.512586	0.841869
H174	H	0.210251	-0.517497	0.819228
H175	H	0.172852	-0.496908	0.861866
H176	H	0.172891	-0.543345	0.861887
C177	C	0.037484	-0.388746	0.572164
H178	H	0.004999	-0.383821	0.577113
H179	H	0.042442	-0.404413	0.602896
H180	H	0.042397	-0.357996	0.556501
H181	H	0.552029	-0.596233	0.426301
C182	C	0.001551	-0.424655	0.536287
H183	H	-0.003868	-0.439054	0.521880
H184	H	-0.012831	-0.436463	0.570896
H185	H	-0.012870	-0.390044	0.524502
C186	C	0.177423	-0.512545	0.448238
H187	H	0.209908	-0.517464	0.443283
H188	H	0.172511	-0.543294	0.463897
H189	H	0.172465	-0.496874	0.417504
H190	H	0.198948	-0.473094	0.487648
H191	H	0.338981	-0.510371	0.554246
H192	H	0.432025	-0.541365	0.523165
H193	H	0.431972	-0.390789	0.465748
H194	H	0.338923	-0.359792	0.496821
H195	H	0.160882	-0.219171	0.449698
H196	H	0.053957	-0.126168	0.570702
C197	C	0.133338	-0.118783	0.404310
H198	H	0.153345	-0.141395	0.386897
H199	H	0.104319	-0.098781	0.395926
H200	H	0.150736	-0.098764	0.395888
C201	C	0.081491	-0.226557	0.616090
H202	H	0.095907	-0.260777	0.621487
H203	H	0.093299	-0.218149	0.630485
H204	H	0.046885	-0.218162	0.630515
C205	C	-0.029168	-0.455858	0.067234
H206	H	-0.014714	-0.450466	0.033016
H207	H	-0.063770	-0.441423	0.075586
H208	H	-0.017388	-0.441465	0.075677
C209	C	0.058714	-0.631798	0.067333
H210	H	0.067170	-0.614411	0.033108
H211	H	0.087688	-0.651835	0.075795
H212	H	0.041300	-0.651779	0.075702
C213	C	0.022664	-0.667642	0.175046
H214	H	0.042691	-0.685062	0.152439
H215	H	0.040028	-0.676072	0.195103
H216	H	-0.006360	-0.676013	0.195007
H217	H	-0.057039	-0.501216	0.345698
H218	H	-0.327887	-0.507903	0.338181
C219	C	-0.029973	-0.455841	0.373647
H220	H	-0.050047	-0.438421	0.353693
H221	H	-0.047440	-0.447742	0.402833
H222	H	-0.001147	-0.447140	0.356325
H223	H	0.049734	-0.622248	0.452940
H224	H	0.018765	-0.653217	0.421828
H225	H	0.087072	-0.886205	0.386121
H226	H	-0.094449	-0.793002	0.412253
C227	C	-0.072913	-0.893379	0.450260
H228	H	-0.055586	-0.927607	0.459422
H229	H	-0.096424	-0.884949	0.478747
H230	H	-0.089094	-0.884965	0.429114
C231	C	-0.227766	-0.623390	0.468906
H232	H	-0.250425	-0.628287	0.501367
H233	H	-0.207765	-0.654146	0.464002
H234	H	-0.207757	-0.607750	0.464017
H235	H	-0.234840	-0.539009	0.307312
H236	H	0.023949	-0.388000	0.364433
