data_functionalizedCrystal
_audit_creation_method	'MofGen! by Chris Wilmer'
_symmetry_space_group_name_H-M	'P1'
_symmetry_Int_Tables_number	1
_symmetry_cell_setting	triclinic
loop_
_symmetry_equiv_pos_as_xyz
  x,y,z
_cell_length_a	17.038272
_cell_length_b	16.109301
_cell_length_c	14.586319
_cell_angle_alpha	90.000787
_cell_angle_beta	89.995924
_cell_angle_gamma	92.713482
loop_
_atom_site_label
_atom_site_type_symbol
_atom_site_fract_x
_atom_site_fract_y
_atom_site_fract_z
O1	O	0.100495	-1.110268	-0.076183
O2	O	0.600495	-0.610268	0.423817
O3	O	0.113001	-0.869094	-0.076198
O4	O	0.613001	-0.369094	0.423802
O5	O	-0.007067	-0.988248	-0.076183
O6	O	0.492933	-0.488248	0.423817
O7	O	0.220564	-0.991114	-0.076198
O8	O	0.720564	-0.491114	0.423802
O9	O	-0.007069	-0.988239	0.076298
O10	O	0.492931	-0.488239	0.576298
O11	O	0.113000	-0.869085	0.076283
O12	O	0.613000	-0.369085	0.576283
O13	O	0.100493	-1.110259	0.076298
O14	O	0.600493	-0.610259	0.576298
Cu15	Cu	0.106746	-0.989671	0.090213
Cu16	Cu	0.606746	-0.489671	0.590213
Cu17	Cu	0.106748	-0.989682	-0.090113
Cu18	Cu	0.606748	-0.489682	0.409887
O19	O	0.220562	-0.991105	0.076283
O20	O	0.720562	-0.491105	0.576283
C21	C	0.112494	-0.838079	0.000041
C22	C	0.612494	-0.338079	0.500041
C23	C	0.110975	-0.745676	0.000035
C24	C	0.610975	-0.245676	0.500035
C25	C	-0.036196	-0.985636	0.000057
C26	C	0.463804	-0.485636	0.500057
C27	C	-0.122989	-0.977857	0.000056
C28	C	0.377011	-0.477857	0.500056
N29	N	0.106744	-0.989670	0.217045
N30	N	0.606744	-0.489670	0.717045
C31	C	-0.173104	-1.049277	0.000062
C32	C	0.326896	-0.549277	0.500062
C33	C	-0.254654	-1.041963	0.000052
C34	C	0.245346	-0.541963	0.500052
C35	C	-0.286089	-0.963228	0.000044
C36	C	0.213911	-0.463228	0.500044
C37	C	-0.235967	-0.891802	0.000036
C38	C	0.264033	-0.391802	0.500036
C39	C	-0.154418	-0.899116	0.000039
C40	C	0.345582	-0.399116	0.500039
C41	C	-0.531846	-0.937385	0.000030
C42	C	-0.031846	-0.437385	0.500030
C43	C	-0.613402	-0.930076	0.000031
C44	C	-0.113402	-0.430076	0.500031
C45	C	-0.632083	-1.080238	0.000045
C46	C	-0.132083	-0.580238	0.500045
C47	C	-0.550532	-1.087546	0.000053
C48	C	-0.050532	-0.587546	0.500053
C49	C	-0.500418	-1.016120	0.000040
C50	C	-0.000418	-0.516120	0.500040
C51	C	-0.369446	-0.955749	0.000038
C52	C	0.130554	-0.455749	0.500038
C53	C	-0.417062	-1.023599	0.000040
C54	C	0.082938	-0.523599	0.500040
C55	C	0.249691	-0.993717	0.000041
C56	C	0.749691	-0.493717	0.500041
C57	C	0.336484	-1.001496	0.000036
C58	C	0.836484	-0.501496	0.500036
C59	C	0.101001	-1.141274	0.000057
C60	C	0.601001	-0.641274	0.500057
C61	C	0.102519	-1.233677	0.000057
C62	C	0.602519	-0.733677	0.500057
C63	C	0.178690	-0.528212	0.000042
C64	C	0.678690	-0.028212	0.500042
C65	C	0.177257	-0.441390	0.000048
C66	C	0.677257	0.058610	0.500048
C67	C	0.034799	-0.451147	0.000053
C68	C	0.534799	0.048853	0.500053
C69	C	0.036233	-0.537968	0.000054
C70	C	0.536233	-0.037968	0.500054
C71	C	0.108181	-0.576498	0.000043
C72	C	0.608181	-0.076498	0.500043
C73	C	0.105314	-0.402855	0.000049
C74	C	0.605314	0.097145	0.500049
C75	C	0.103759	-0.308719	0.000055
C76	C	0.603759	0.191281	0.500055
C77	C	0.109736	-0.670640	0.000039
C78	C	0.609736	-0.170640	0.500039
N79	N	0.106744	-0.989689	-0.216945
N80	N	0.606744	-0.489689	0.283055
C81	C	0.053596	-1.042451	0.452058
C82	C	0.553596	-0.542451	0.952058
C83	C	0.053594	-1.042453	0.548039
C84	C	0.553594	-0.542453	1.048039
C85	C	0.159895	-0.936902	0.548036
C86	C	0.659895	-0.436902	1.048036
C87	C	0.159893	-0.936896	0.452056
C88	C	0.659893	-0.436896	0.952056
C89	C	0.106744	-0.989675	0.404070
C90	C	0.606744	-0.489675	0.904070
C91	C	0.106744	-0.989684	0.596030
C92	C	0.606744	-0.489684	1.096030
C93	C	0.106743	-0.989686	0.700098
C94	C	0.606743	-0.489686	1.200098
C95	C	0.106744	-0.989672	0.299996
C96	C	0.606744	-0.489672	0.799996
H97	H	-0.147517	-1.113392	0.000074
H98	H	0.352483	-0.613392	0.500074
H99	H	0.203173	-0.893916	0.412982
H100	H	0.703173	-0.393916	0.912982
N101	N	-0.003727	-1.099372	0.400299
N102	N	0.496273	-0.599372	0.900299
H103	H	-0.037397	-1.132804	0.445267
H104	H	0.462603	-0.632804	0.945267
H105	H	-0.038301	-1.065098	0.360483
H106	H	0.461699	-0.565098	0.860483
N107	N	0.217218	-0.879979	0.599792
N108	N	0.717218	-0.379979	1.099792
H109	H	0.209157	-0.887991	0.667877
H110	H	0.709157	-0.387991	1.167877
H111	H	0.272685	-0.893503	0.583007
H112	H	0.772685	-0.393503	1.083007
H113	H	-0.023778	-0.419765	0.000067
H114	H	0.476222	0.080235	0.500067
H115	H	-0.295455	-1.100122	0.000059
H116	H	0.204545	-0.600122	0.500059
N117	N	-0.039819	-0.590055	0.000066
N118	N	0.460181	-0.090055	0.500066
H119	H	-0.085615	-0.552474	0.000067
H120	H	0.414385	-0.052474	0.500067
H121	H	-0.042327	-0.626295	-0.056457
H122	H	0.457673	-0.126295	0.443543
N123	N	0.256291	-0.569763	0.000042
N124	N	0.756291	-0.069763	0.500042
H125	H	0.260058	-0.605568	0.056566
H126	H	0.760058	-0.105568	0.556566
H127	H	0.260021	-0.605522	-0.056521
H128	H	0.760021	-0.105522	0.443479
N129	N	-0.516629	-1.172468	0.000067
N130	N	-0.016629	-0.672468	0.500067
H131	H	-0.560752	-1.216604	0.000069
H132	H	-0.060752	-0.716604	0.500069
H133	H	-0.483195	-1.178779	-0.056457
H134	H	0.016805	-0.678779	0.443543
H135	H	-0.638991	-0.865956	0.000039
H136	H	-0.138991	-0.365956	0.500039
H137	H	0.010315	-1.085426	0.587108
H138	H	0.510315	-0.585426	1.087108
H139	H	-0.491053	-0.879224	0.000020
H140	H	0.008947	-0.379224	0.500020
N141	N	-0.686133	-1.157272	0.000060
N142	N	-0.186133	-0.657272	0.500060
H143	H	-0.742564	-1.140695	0.000058
H144	H	-0.242564	-0.640695	0.500058
H145	H	-0.675954	-1.191341	-0.056463
H146	H	-0.175954	-0.691341	0.443537
N147	N	-0.269866	-0.806878	0.000022
N148	N	0.230134	-0.306878	0.500022
H149	H	-0.329132	-0.813080	0.000024
H150	H	0.170868	-0.313080	0.500024
H151	H	-0.251534	-0.775367	0.056546
H152	H	0.248466	-0.275367	0.556546
H153	H	-0.113615	-0.840958	0.000035
H154	H	0.386385	-0.340958	0.500035
N155	N	-0.383164	-1.108520	0.000056
N156	N	0.116836	-0.608520	0.500056
H157	H	-0.349738	-1.114909	-0.056464
H158	H	0.150262	-0.614909	0.443536
H159	H	-0.349790	-1.114830	0.056623
H160	H	0.150210	-0.614830	0.556623
H161	H	-0.395049	-0.891642	0.000034
H162	H	0.104951	-0.391642	0.500034
H163	H	0.234672	-0.402079	0.000048
H164	H	0.734672	0.097921	0.500048
