data_functionalizedCrystal
_audit_creation_method	'MofGen! by Chris Wilmer'
_symmetry_space_group_name_H-M	'P1'
_symmetry_Int_Tables_number	1
_symmetry_cell_setting	triclinic
loop_
_symmetry_equiv_pos_as_xyz
  x,y,z
_cell_length_a	11.026607
_cell_length_b	10.540510
_cell_length_c	10.065875
_cell_angle_alpha	98.879491
_cell_angle_beta	79.302338
_cell_angle_gamma	96.549664
loop_
_atom_site_label
_atom_site_type_symbol
_atom_site_fract_x
_atom_site_fract_y
_atom_site_fract_z
O1	O	1.632352	0.517967	-0.113479
O2	O	1.278527	0.457320	-0.113482
O3	O	1.463531	0.304707	-0.113480
O4	O	1.447349	0.670580	-0.113481
O5	O	1.428254	0.333957	0.113509
O6	O	1.243251	0.486570	0.113506
O7	O	1.597076	0.547217	0.113510
Zn8	Zn	1.414562	0.521538	0.149547
Zn9	Zn	1.461041	0.482999	-0.149520
O10	O	1.412072	0.699830	0.113507
C11	C	1.215583	0.460757	0.000011
C12	C	1.080583	0.427404	0.000010
C13	C	1.444687	0.271764	0.000012
C14	C	1.441081	0.130023	0.000003
C15	C	1.007566	0.519496	0.000009
C16	C	0.868037	0.485026	0.000007
C17	C	1.569521	-0.059214	0.000525
C18	C	1.573450	0.088158	0.000006
C19	C	1.393464	0.053718	-0.129616
C20	C	1.390569	-0.093693	-0.129718
C21	C	1.347696	-0.060842	0.128411
C22	C	1.353710	0.087094	0.130117
C23	C	1.660021	0.543780	0.000013
C24	C	1.795022	0.577131	0.000006
C25	C	1.430916	0.732773	0.000013
C26	C	1.434524	0.874513	0.000012
N27	N	1.382851	0.547841	0.353652
N28	N	1.492761	0.456688	-0.353625
C29	C	1.450000	0.492141	0.421432
C30	C	1.425603	0.512396	0.578599
H31	H	1.048350	0.623858	0.000016
Br32	Br	1.618981	0.352567	0.549185
Br33	Br	1.256916	0.652308	0.450853
Br34	Br	0.800076	0.311072	0.000023
H35	H	1.350044	0.575078	0.636919
H36	H	1.374493	-0.081149	0.226662
H37	H	1.039803	0.323038	-0.000025
Br38	Br	0.862973	0.751092	0.000031
Br39	Br	1.637710	0.176386	0.154895
Br40	Br	1.575615	0.387272	0.324232
H41	H	1.455513	0.082452	-0.226078
H42	H	1.635158	-0.103400	-0.091905
H43	H	1.606645	-0.077894	0.093481
Br44	Br	1.232294	0.096089	-0.137665
Br45	Br	1.411037	0.173386	0.289949
H46	H	1.641241	0.116250	-0.093069
Br47	Br	1.227086	-0.169438	-0.139532
Br48	Br	1.492855	-0.164632	-0.291204
H49	H	1.255853	0.116001	0.137943
Br50	Br	1.181824	-0.133854	0.129868
