data_functionalizedCrystal
_audit_creation_method	'MofGen! by Chris Wilmer'
_symmetry_space_group_name_H-M	'P1'
_symmetry_Int_Tables_number	1
_symmetry_cell_setting	triclinic
loop_
_symmetry_equiv_pos_as_xyz
  x,y,z
_cell_length_a	42.795305
_cell_length_b	42.779661
_cell_length_c	42.784841
_cell_angle_alpha	119.998300
_cell_angle_beta	90.002005
_cell_angle_gamma	59.988063
loop_
_atom_site_label
_atom_site_type_symbol
_atom_site_fract_x
_atom_site_fract_y
_atom_site_fract_z
O1	O	-0.266397	0.275761	0.490106
O2	O	-0.220942	0.211742	0.380652
O3	O	-0.220956	0.275759	0.444653
O4	O	-0.266383	0.211744	0.426106
O5	O	-0.168972	0.223763	0.444653
O6	O	-0.168958	0.159746	0.380652
O7	O	-0.214413	0.223764	0.490106
Zn8	Zn	-0.183432	0.183499	0.435379
Zn9	Zn	-0.251923	0.252007	0.435379
O10	O	-0.214399	0.159747	0.426106
C11	C	-0.079126	0.051032	0.073799
C12	C	-0.041510	0.013144	0.054902
C13	C	-0.079127	0.051030	0.130396
C14	C	-0.041511	0.013142	0.111414
C15	C	-0.022527	-0.005579	0.073799
C16	C	-0.098023	0.069668	0.111414
C17	C	-0.170807	0.152984	0.039239
C18	C	-0.188747	0.173828	0.021425
C19	C	-0.169407	0.155939	-0.015849
C20	C	-0.188855	0.178542	-0.035163
C21	C	-0.132126	0.117205	-0.035309
C22	C	-0.114191	0.096362	-0.017497
C23	C	-0.133533	0.114253	0.019779
C24	C	0.113958	-0.131845	-0.017876
C25	C	0.152609	-0.167607	-0.035816
C26	C	0.172000	-0.185547	-0.016478
C27	C	0.213908	-0.224318	-0.035923
C28	C	0.152734	-0.167725	0.020801
C29	C	0.114083	-0.131970	0.038737
C30	C	0.094697	-0.114030	0.019394
C31	C	-0.170811	0.152975	0.266881
C32	C	-0.188751	0.173820	0.305534
C33	C	-0.169412	0.155929	0.324924
C34	C	-0.188861	0.178529	0.366834
C35	C	-0.132133	0.117198	0.305660
C36	C	-0.114194	0.096357	0.267009
C37	C	-0.133538	0.114247	0.247621
C38	C	-0.114080	0.091651	0.039092
C39	C	-0.098575	0.073635	0.054486
C40	C	-0.098577	0.073630	0.172305
C41	C	-0.114083	0.091644	0.205711
C42	C	0.019381	-0.044350	0.054351
C43	C	0.052787	-0.075256	0.038847
C44	C	-0.079221	0.440849	0.463530
C45	C	-0.098109	0.422126	0.463795
C46	C	-0.022623	0.384236	0.463530
C47	C	-0.041597	0.365599	0.463795
C48	C	-0.079208	0.384237	0.463530
C49	C	-0.041610	0.422125	0.463795
C50	C	-0.113802	0.567118	0.453283
C51	C	-0.131621	0.602882	0.450386
C52	C	-0.168891	0.620822	0.448932
C53	C	-0.188210	0.659593	0.445784
C54	C	-0.188343	0.602998	0.450378
C55	C	-0.170526	0.567242	0.453280
C56	C	-0.133254	0.549302	0.454733
C57	C	-0.170855	0.339419	0.453283
C58	C	-0.188786	0.318703	0.450386
C59	C	-0.169444	0.279964	0.448930
C60	C	-0.188880	0.257496	0.445783
C61	C	-0.132169	0.261945	0.450376
C62	C	-0.114241	0.282665	0.453280
C63	C	-0.133588	0.321403	0.454731
C64	C	0.113842	0.339415	0.453283
C65	C	0.152491	0.318694	0.450381
C66	C	0.171884	0.279955	0.448926
C67	C	0.213790	0.257485	0.445778
C68	C	0.152629	0.261937	0.450371
C69	C	0.113982	0.282657	0.453271
C70	C	0.094590	0.321400	0.454731
C71	C	-0.113937	0.510527	0.457876
C72	C	-0.098538	0.479620	0.460383
C73	C	0.019282	0.361769	0.460383
C74	C	0.052684	0.343863	0.457876
C75	C	-0.098647	0.361772	0.460383
C76	C	-0.114144	0.343865	0.457876
C77	C	-0.356124	-0.005351	0.407228
C78	C	-0.393735	0.013372	0.406964
C79	C	-0.356139	0.051262	0.407228
C80	C	-0.393750	0.069898	0.406964
C81	C	-0.412723	0.051261	0.407228
C82	C	-0.337237	0.013373	0.406964
C83	C	-0.264435	-0.131620	0.417476
C84	C	-0.246490	-0.167383	0.420373
C85	C	-0.265820	-0.185323	0.421827
C86	C	-0.246367	-0.224095	0.424976
C87	C	-0.303095	-0.167500	0.420381
C88	C	-0.321035	-0.131744	0.417479
C89	C	-0.301704	-0.113804	0.416026
C90	C	-0.549186	0.096077	0.417475
C91	C	-0.587833	0.116793	0.420372
C92	C	-0.607230	0.155532	0.421828
C93	C	-0.649134	0.178000	0.424975
C94	C	-0.587974	0.173551	0.420382
C95	C	-0.549327	0.152832	0.417478
C96	C	-0.529935	0.114093	0.416027
C97	C	-0.264495	0.096084	0.417475
C98	C	-0.246567	0.116805	0.420377
C99	C	-0.265912	0.155544	0.421832
C100	C	-0.246476	0.178014	0.424980
C101	C	-0.303186	0.173562	0.420387
C102	C	-0.321112	0.152841	0.417487
C103	C	-0.301762	0.114099	0.416027
C104	C	-0.321161	-0.075029	0.412882
C105	C	-0.336670	-0.044122	0.410375
C106	C	-0.336701	0.073729	0.410375
C107	C	-0.321205	0.091636	0.412882
C108	C	-0.454627	0.073726	0.410375
C109	C	-0.488029	0.091632	0.412882
O110	O	0.337042	0.211733	0.426105
O111	O	0.227602	0.275751	0.444652
O112	O	0.291600	0.211733	0.380652
O113	O	0.273044	0.275751	0.490106
O114	O	0.291610	0.159737	0.380652
O115	O	0.227612	0.223756	0.444652
O116	O	0.337053	0.159737	0.426105
Zn117	Zn	0.282334	0.183491	0.435379
Zn118	Zn	0.282321	0.251997	0.435379
O119	O	0.273055	0.223755	0.490106
O120	O	0.337175	-0.327934	-0.061467
O121	O	0.227727	-0.237011	-0.016018
O122	O	0.291708	-0.237006	-0.016010
O123	O	0.273194	-0.327940	-0.061474
O124	O	0.291710	-0.237004	-0.067993
O125	O	0.227729	-0.237009	-0.068001
O126	O	0.337176	-0.327933	-0.113450
Zn127	Zn	0.282453	-0.282471	-0.098979
Zn128	Zn	0.282451	-0.282473	-0.030489
O129	O	0.273195	-0.327938	-0.113457
O130	O	-0.266264	0.763212	0.426106
O131	O	-0.220800	0.672286	0.444653
O132	O	-0.220801	0.672284	0.380653
O133	O	-0.266263	0.763214	0.490107
O134	O	-0.168830	0.672284	0.380653
O135	O	-0.168828	0.672286	0.444653
O136	O	-0.214293	0.763213	0.426106
Zn137	Zn	-0.183309	0.717749	0.435380
Zn138	Zn	-0.251784	0.717749	0.435380
O139	O	-0.214291	0.763215	0.490106
O140	O	-0.214407	0.223782	-0.113206
O141	O	-0.168950	0.159764	-0.067757
O142	O	-0.168968	0.223784	-0.067750
O143	O	-0.214389	0.159762	-0.113214
O144	O	-0.220953	0.275778	-0.015766
O145	O	-0.220935	0.211758	-0.015774
O146	O	-0.266392	0.275776	-0.061223
Zn147	Zn	-0.251917	0.252022	-0.030245
Zn148	Zn	-0.183425	0.183518	-0.098735
O149	O	-0.266374	0.211756	-0.061231
C150	C	-0.412571	0.440865	0.796969
C151	C	-0.393588	0.422142	0.815866
C152	C	-0.355974	0.384250	0.740369
C153	C	-0.337077	0.365614	0.759353
C154	C	-0.355973	0.384253	0.796969
C155	C	-0.393589	0.422140	0.759353
C156	C	-0.549055	0.567136	0.831530
C157	C	-0.587705	0.602900	0.849345
C158	C	-0.607094	0.620841	0.886620
C159	C	-0.649003	0.659614	0.905936
C160	C	-0.587828	0.603018	0.906081
C161	C	-0.549179	0.567261	0.888268
C162	C	-0.529792	0.549320	0.850991
C163	C	-0.321409	0.339437	0.888650
C164	C	-0.303593	0.318721	0.906590
C165	C	-0.266320	0.279982	0.887252
C166	C	-0.247002	0.257514	0.906698
C167	C	-0.246860	0.261962	0.849971
C168	C	-0.264672	0.282681	0.832034
C169	C	-0.301951	0.321420	0.851377
C170	C	-0.321412	0.339426	0.603880
C171	C	-0.303599	0.318705	0.565226
C172	C	-0.266324	0.279965	0.545836
C173	C	-0.247009	0.257495	0.503925
C174	C	-0.246866	0.261947	0.565101
C175	C	-0.264680	0.282669	0.603753
C176	C	-0.301953	0.321411	0.623141
C177	C	-0.487885	0.510544	0.831677
C178	C	-0.454479	0.479637	0.816282
C179	C	-0.336660	0.361783	0.698459
C180	C	-0.321265	0.343875	0.665053
C181	C	-0.336659	0.361788	0.816419
C182	C	-0.321263	0.343882	0.831923
C183	C	0.310516	-0.005368	0.073790
C184	C	0.310777	0.013353	0.054892
C185	C	0.310505	0.051246	0.130389
C186	C	0.310766	0.069881	0.111405
C187	C	0.310505	0.051242	0.073788
C188	C	0.310777	0.013357	0.111406
C189	C	0.300296	-0.131635	0.039231
C190	C	0.297407	-0.167398	0.021417
C191	C	0.295957	-0.185339	-0.015858
C192	C	0.292816	-0.224111	-0.035173
C193	C	0.297399	-0.167517	-0.035320
C194	C	0.300293	-0.131761	-0.017508
C195	C	0.301742	-0.113820	0.019770
C196	C	0.300252	0.096054	-0.017894
C197	C	0.297352	0.116769	-0.035836
C198	C	0.295888	0.155508	-0.016498
C199	C	0.292738	0.177975	-0.035945
C200	C	0.297331	0.173528	0.020783
C201	C	0.300238	0.152810	0.038721
C202	C	0.301696	0.114071	0.019378
C203	C	0.300251	0.096072	0.266879
C204	C	0.297346	0.116794	0.305533
C205	C	0.295884	0.155532	0.324922
C206	C	0.292732	0.178003	0.366833
C207	C	0.297325	0.173549	0.305657
C208	C	0.300229	0.152827	0.267004
C209	C	0.301695	0.114085	0.247617
C210	C	0.304877	-0.075045	0.039083
C211	C	0.307378	-0.044139	0.054477
C212	C	0.307354	0.073713	0.172299
C213	C	0.304844	0.091621	0.205705
C214	C	0.307355	0.073706	0.054338
C215	C	0.304845	0.091611	0.038833
C216	C	0.254175	0.384466	0.796961
C217	C	0.253914	0.422348	0.815855
C218	C	0.254177	0.384464	0.740362
C219	C	0.253916	0.422346	0.759342
C220	C	0.254181	0.441066	0.796957
C221	C	0.253910	0.365831	0.759346
C222	C	0.264409	0.282534	0.831529
C223	C	0.267303	0.261695	0.849345
C224	C	0.268758	0.279582	0.886619
C225	C	0.271903	0.256985	0.905936
C226	C	0.267315	0.318311	0.906077
C227	C	0.264416	0.339149	0.888263
C228	C	0.262963	0.321259	0.850987
C229	C	0.264437	0.567309	0.888626
C230	C	0.267337	0.603064	0.906563
C231	C	0.268796	0.620998	0.887223
C232	C	0.271946	0.659761	0.906666
C233	C	0.267349	0.603178	0.849944
C234	C	0.264443	0.567429	0.832010
C235	C	0.262989	0.549495	0.851355
C236	C	0.264418	0.282526	0.603879
C237	C	0.267320	0.261683	0.565226
C238	C	0.268777	0.279568	0.545834
C239	C	0.271924	0.256968	0.503924
C240	C	0.267336	0.318293	0.565096
C241	C	0.264436	0.339133	0.603747
C242	C	0.262974	0.321248	0.623137
C243	C	0.259823	0.343856	0.831672
C244	C	0.257318	0.361869	0.816276
C245	C	0.257323	0.361865	0.698453
C246	C	0.259830	0.343851	0.665047
C247	C	0.257331	0.479829	0.816403
C248	C	0.259841	0.510728	0.831904
C249	C	-0.022631	0.384224	0.073789
C250	C	-0.041605	0.365586	0.054893
C251	C	-0.079227	0.440838	0.130389
C252	C	-0.098116	0.422114	0.111407
C253	C	-0.079216	0.384224	0.073790
C254	C	-0.041617	0.422114	0.111405
C255	C	0.113833	0.339403	0.039225
C256	C	0.152480	0.318685	0.021410
C257	C	0.171873	0.279945	-0.015866
C258	C	0.213779	0.257475	-0.035182
C259	C	0.152616	0.261926	-0.035326
C260	C	0.113970	0.282647	-0.017513
C261	C	0.094579	0.321387	0.019765
C262	C	-0.113747	0.282271	-0.017888
C263	C	-0.131553	0.261429	-0.035828
C264	C	-0.168821	0.279316	-0.016489
C265	C	-0.188128	0.256718	-0.035934
C266	C	-0.188285	0.318053	0.020792
C267	C	-0.170483	0.338899	0.038728
C268	C	-0.133209	0.321002	0.019384
C269	C	-0.113806	0.567113	0.266878
C270	C	-0.131622	0.602874	0.305532
C271	C	-0.168892	0.620814	0.324923
C272	C	-0.188211	0.659587	0.366834
C273	C	-0.188343	0.602990	0.305659
C274	C	-0.170525	0.567229	0.267006
C275	C	-0.133257	0.549295	0.247618
C276	C	0.052675	0.343850	0.039079
C277	C	0.019273	0.361757	0.054475
C278	C	-0.098544	0.479611	0.172299
C279	C	-0.113942	0.510519	0.205706
C280	C	-0.098520	0.361622	0.054342
C281	C	-0.113907	0.343607	0.038838
O282	O	0.273025	0.275730	-0.061489
O283	O	0.291592	0.211714	-0.016036
O284	O	0.227589	0.275715	-0.016047
O285	O	0.337028	0.211729	-0.061478
O286	O	0.227619	0.223705	-0.068038
O287	O	0.291621	0.159704	-0.068028
O288	O	0.273055	0.223720	-0.113480
Zn289	Zn	0.282342	0.183454	-0.099009
Zn290	Zn	0.282304	0.251980	-0.030508
O291	O	0.337057	0.159719	-0.113470
C292	C	-0.356132	1.051276	0.796970
C293	C	-0.393742	1.069912	0.815867
C294	C	-0.356118	0.994661	0.740370
C295	C	-0.393728	1.013383	0.759353
C296	C	-0.412715	1.051274	0.796969
C297	C	-0.337230	1.013385	0.759354
C298	C	-0.264488	1.096099	0.831535
C299	C	-0.246558	1.116817	0.849350
C300	C	-0.265902	1.155557	0.886626
C301	C	-0.246466	1.178028	0.905942
C302	C	-0.303177	1.173576	0.906086
C303	C	-0.321102	1.152854	0.888272
C304	C	-0.301756	1.114114	0.850995
C305	C	-0.549192	1.153224	0.888647
C306	C	-0.587839	1.174066	0.906587
C307	C	-0.607221	1.156178	0.887248
C308	C	-0.649125	1.178776	0.906693
C309	C	-0.587951	1.117442	0.849967
C310	C	-0.549304	1.096596	0.832031
C311	C	-0.529927	1.114494	0.851375
C312	C	-0.264431	0.868386	0.603881
C313	C	-0.246489	0.832625	0.565227
C314	C	-0.265819	0.814684	0.545837
C315	C	-0.246367	0.775911	0.503925
C316	C	-0.303092	0.832508	0.565100
C317	C	-0.321033	0.868269	0.603753
C318	C	-0.301698	0.886203	0.623142
C319	C	-0.321198	1.091650	0.831680
C320	C	-0.336693	1.073743	0.816285
C321	C	-0.336664	0.955887	0.698460
C322	C	-0.321156	0.924980	0.665053
C323	C	-0.454619	1.073875	0.816417
C324	C	-0.488021	1.091890	0.831921
H325	H	-0.116386	0.102631	0.321449
O326	O	0.268673	0.224096	0.546488
C327	C	0.237461	0.231166	0.532858
H328	H	0.226940	0.259559	0.529918
H329	H	0.213311	0.239806	0.553888
C330	C	0.263122	0.153993	0.497144
C331	C	0.250202	0.188863	0.493529
H332	H	0.270980	0.127899	0.472885
H333	H	0.284149	0.149230	0.506327
H334	H	0.242995	0.161199	0.514670
H335	H	0.270330	0.181660	0.476007
H336	H	0.229178	0.193625	0.484342
O337	O	-0.606838	0.211148	0.421744
C338	C	-0.620474	0.204021	0.390528
H339	H	-0.623298	0.175550	0.379996
H340	H	-0.599511	0.195469	0.366383
C341	C	-0.656402	0.281215	0.416211
C342	C	-0.659874	0.246249	0.403277
H343	H	-0.680705	0.307263	0.424075
H344	H	-0.647214	0.286017	0.437241
H345	H	-0.638932	0.274082	0.396088
H346	H	-0.677340	0.253379	0.423402
H347	H	-0.669066	0.241449	0.382251
O348	O	-0.245714	1.058433	0.795346
C349	C	-0.242293	1.023942	0.795432
H350	H	-0.265527	1.038542	0.821422
H351	H	-0.212949	1.003353	0.796763
C352	C	-0.218277	0.976425	0.726699
C353	C	-0.246814	0.994356	0.758619
H354	H	-0.221064	0.958173	0.703990
H355	H	-0.220580	0.999661	0.726640
H356	H	-0.193826	0.959270	0.727813
H357	H	-0.271264	1.011514	0.757507
H358	H	-0.244515	0.971122	0.758676
H359	H	0.263259	0.370666	0.619428
H360	H	0.098055	0.370959	0.454469
O361	O	-0.224976	0.211419	0.040349
C362	C	-0.249898	0.202744	0.049863
H363	H	-0.232855	0.172624	0.050700
H364	H	-0.264529	0.195984	0.027440
C365	C	-0.301314	0.280082	0.088384
C366	C	-0.280382	0.243090	0.089416
H367	H	-0.320119	0.304969	0.112782
H368	H	-0.284525	0.285926	0.081974
H369	H	-0.313503	0.274442	0.069697
H370	H	-0.268190	0.248728	0.108100
H371	H	-0.297170	0.237248	0.095831
H372	H	-0.306334	-0.002299	0.406537
H373	H	-0.318830	-0.182112	0.421563
O374	O	-0.224980	0.211411	0.324274
C375	C	-0.249127	0.204346	0.337903
H376	H	-0.231259	0.175951	0.340841
H377	H	-0.264640	0.195713	0.316873
C378	C	-0.300627	0.281523	0.373621
C379	C	-0.278683	0.246650	0.377232
H380	H	-0.318860	0.307618	0.397880
H381	H	-0.284360	0.286283	0.364437
H382	H	-0.313552	0.274322	0.356094
H383	H	-0.265755	0.253848	0.394755
H384	H	-0.294949	0.241892	0.386419
H385	H	-0.083842	0.064818	0.251325
H386	H	-0.218689	0.617609	0.449196
O387	O	-0.078041	0.265229	0.454700
C388	C	-0.066361	0.291814	0.457558
H389	H	-0.092660	0.326640	0.469986
H390	H	-0.048740	0.277077	0.427914
C391	C	-0.009580	0.250945	0.468674
C392	C	-0.041881	0.293720	0.483941
H393	H	0.005523	0.252119	0.484947
H394	H	-0.017448	0.233032	0.466747
H395	H	0.005100	0.238669	0.443971
H396	H	-0.056562	0.305993	0.508642
H397	H	-0.034015	0.311634	0.485873
H398	H	-0.603617	0.617630	0.936432
H399	H	-0.218690	0.617598	0.321449
O400	O	-0.077596	0.549730	0.248106
C401	C	-0.064250	0.573133	0.273393
H402	H	-0.080844	0.589801	0.304149
H403	H	-0.068626	0.599319	0.269416
C404	C	-0.000967	0.520339	0.227068
C405	C	-0.021346	0.540807	0.264843
H406	H	0.025499	0.500399	0.221793
H407	H	-0.009958	0.504572	0.210031
H408	H	-0.004617	0.542164	0.223758
H409	H	-0.017699	0.518982	0.268151
H410	H	-0.012353	0.556569	0.281881
H411	H	-0.026272	-0.002527	0.126656
H412	H	0.168408	0.230385	-0.065677
O413	O	0.171171	0.336201	0.448925
C414	C	0.170408	0.337710	0.416743
H415	H	0.145270	0.337755	0.407886
H416	H	0.198268	0.307542	0.392078
C417	C	0.196772	0.379997	0.437747
C418	C	0.165895	0.380055	0.426871
H419	H	0.193990	0.406116	0.443993
H420	H	0.197288	0.378978	0.459428
H421	H	0.219986	0.354854	0.417191
H422	H	0.142682	0.405194	0.447428
H423	H	0.165375	0.381079	0.405194
O424	O	-0.245817	0.265143	0.622465
C425	C	-0.266507	0.254635	0.636116
H426	H	-0.285677	0.249949	0.618414
H427	H	-0.284898	0.282667	0.667396
C428	C	-0.214820	0.217372	0.654429
C429	C	-0.238363	0.211614	0.632684
H430	H	-0.197461	0.190836	0.652314
H431	H	-0.200882	0.224453	0.645234
H432	H	-0.230151	0.240734	0.680494
H433	H	-0.223033	0.188256	0.606620
H434	H	-0.252299	0.204528	0.641875
O435	O	-0.189672	0.377019	0.454647
C436	C	-0.199181	0.368416	0.421051
H437	H	-0.200117	0.338366	0.407977
H438	H	-0.176704	0.361578	0.399654
C439	C	-0.237516	0.445757	0.446977
C440	C	-0.238669	0.408851	0.430921
H441	H	-0.261873	0.470700	0.453063
H442	H	-0.231108	0.451553	0.469610
H443	H	-0.218783	0.440052	0.429143
H444	H	-0.257397	0.414554	0.448756
H445	H	-0.245080	0.403057	0.408290
H446	H	0.301403	0.167499	0.251321
O447	O	-0.357320	0.170290	0.416087
C448	C	-0.368990	0.143687	0.413203
H449	H	-0.351533	0.124081	0.424832
H450	H	-0.364213	0.119874	0.381914
C451	C	-0.433212	0.197363	0.422329
C452	C	-0.411774	0.173284	0.436614
H453	H	-0.459604	0.215619	0.436769
H454	H	-0.425350	0.215285	0.424271
H455	H	-0.429227	0.177514	0.396255
H456	H	-0.415756	0.193133	0.462686
H457	H	-0.419638	0.155366	0.434678
H458	H	-0.186333	0.370439	0.069080
H459	H	0.268532	0.617784	0.834198
H460	H	0.263240	0.370682	0.904109
H461	H	0.296133	0.205094	0.321446
H462	H	0.311183	0.100371	0.126647
H463	H	-0.129018	0.437785	0.126650
H464	H	-0.026348	0.335103	0.464208
O465	O	-0.189483	0.549989	0.248345
C466	C	-0.226196	0.573487	0.273747
H467	H	-0.234999	0.607797	0.298100
H468	H	-0.225618	0.554906	0.285942
C469	C	-0.244380	0.535766	0.222213
C470	C	-0.255192	0.577908	0.252123
H471	H	-0.262266	0.538492	0.208875
H472	H	-0.219645	0.519934	0.205099
H473	H	-0.243898	0.520287	0.232381
H474	H	-0.255670	0.593384	0.241955
H475	H	-0.279928	0.593743	0.269235
H476	H	0.268480	0.230162	0.833499
O477	O	-0.224969	0.336128	0.448919
C478	C	-0.224932	0.305033	0.414345
H479	H	-0.199011	0.270356	0.402950
H480	H	-0.223517	0.312447	0.392433
C481	C	-0.293657	0.350486	0.435566
C482	C	-0.261821	0.307894	0.421573
H483	H	-0.316412	0.352252	0.440024
H484	H	-0.293682	0.371436	0.458859
H485	H	-0.292472	0.356659	0.417304
H486	H	-0.263004	0.301724	0.439836
H487	H	-0.261797	0.286943	0.398283
H488	H	-0.216218	0.102132	0.421555
H489	H	0.263225	0.267964	0.801178
O490	O	-0.224506	0.335425	0.039522
C491	C	-0.248594	0.345877	0.018757
H492	H	-0.230663	0.325108	-0.012539
H493	H	-0.264195	0.382448	0.031175
C494	C	-0.300075	0.361454	0.060015
C495	C	-0.278053	0.335943	0.021576
H496	H	-0.318247	0.355328	0.061754
H497	H	-0.283847	0.354414	0.074005
H498	H	-0.313072	0.391928	0.070358
H499	H	-0.265052	0.305469	0.011234
H500	H	-0.294279	0.342977	0.007583
O501	O	0.295878	0.099352	0.324280
C502	C	0.261319	0.130447	0.355353
H503	H	0.239202	0.154847	0.349830
H504	H	0.266550	0.149073	0.382693
C505	C	0.273546	0.076325	0.366607
C506	C	0.246380	0.106291	0.359822
H507	H	0.264331	0.061425	0.369365
H508	H	0.296829	0.055376	0.345673
H509	H	0.277902	0.091851	0.389390
H510	H	0.242028	0.090765	0.337037
H511	H	0.223095	0.127238	0.380752
O512	O	-0.210630	0.224360	0.546272
C513	C	-0.186552	0.231482	0.532618
H514	H	-0.199580	0.268373	0.550390
H515	H	-0.183398	0.218694	0.501370
C516	C	-0.130914	0.161392	0.514080
C517	C	-0.146912	0.206702	0.535910
H518	H	-0.106461	0.146105	0.516109
H519	H	-0.147135	0.156592	0.523277
H520	H	-0.128289	0.150741	0.488042
H521	H	-0.149542	0.217352	0.561948
H522	H	-0.130690	0.211502	0.526717
O523	O	0.301615	0.170384	0.074940
C524	C	0.299710	0.209012	0.088161
H525	H	0.285626	0.223065	0.071493
H526	H	0.329859	0.200669	0.083765
C527	C	0.293227	0.226233	0.151532
C528	C	0.275926	0.243496	0.131061
H529	H	0.278557	0.247504	0.177995
H530	H	0.294512	0.200208	0.142625
H531	H	0.318351	0.219281	0.147865
H532	H	0.250805	0.250442	0.134725
H533	H	0.274637	0.269523	0.139970
H534	H	-0.319441	0.333395	0.936943
H535	H	-0.533616	1.065056	0.801678
O536	O	0.301736	0.058400	0.248011
C537	C	0.336295	0.023909	0.216930
H538	H	0.358403	0.031706	0.222524
H539	H	0.331059	0.020538	0.189624
C540	C	0.324100	-0.029323	0.205438
C541	C	0.351255	-0.019748	0.212310
H542	H	0.333328	-0.056253	0.202587
H543	H	0.300817	-0.006085	0.226377
H544	H	0.319739	-0.032129	0.182684
H545	H	0.355612	-0.016936	0.235066
H546	H	0.374540	-0.042986	0.191374
O547	O	0.095073	-0.114425	-0.036648
C548	C	0.064015	-0.117931	-0.040065
H549	H	0.055377	-0.120685	-0.016829
H550	H	0.072787	-0.148619	-0.069412
C551	C	0.040518	-0.073206	-0.064082
C552	C	0.029907	-0.076584	-0.035541
H553	H	0.019479	-0.047702	-0.061294
H554	H	0.061443	-0.070845	-0.061782
H555	H	0.047828	-0.098782	-0.088536
H556	H	0.022602	-0.051011	-0.011089
H557	H	0.008980	-0.078940	-0.037837
H558	H	-0.603731	1.102873	0.834222
O559	O	0.171413	0.224298	0.448947
C560	C	0.146127	0.212847	0.450855
H561	H	0.121745	0.228330	0.440900
H562	H	0.133964	0.225600	0.481627
C563	C	0.197819	0.143179	0.437044
C564	C	0.167874	0.162192	0.424814
H565	H	0.211234	0.111932	0.420982
H566	H	0.214855	0.150894	0.435760
H567	H	0.187679	0.153811	0.462688
H568	H	0.178015	0.151564	0.399173
H569	H	0.150841	0.154474	0.426094
O570	O	-0.606366	0.620143	0.830380
C571	C	-0.580965	0.596646	0.793663
H572	H	-0.556612	0.562335	0.784863
H573	H	-0.568774	0.615225	0.794240
C574	C	-0.632492	0.634374	0.775471
C575	C	-0.602584	0.592230	0.764661
H576	H	-0.645828	0.631652	0.757581
H577	H	-0.649606	0.650205	0.800208
H578	H	-0.622329	0.649852	0.775951
H579	H	-0.612748	0.576755	0.764185
H580	H	-0.585473	0.576396	0.739923
H581	H	-0.408963	-0.002305	0.406531
O582	O	-0.134970	0.440863	0.464286
C583	C	-0.147661	0.478393	0.464466
H584	H	-0.121926	0.475390	0.452111
H585	H	-0.164203	0.509360	0.495101
C586	C	-0.205550	0.485298	0.455148
C587	C	-0.173941	0.481609	0.439969
H588	H	-0.221762	0.487284	0.440038
H589	H	-0.197001	0.460015	0.455027
H590	H	-0.219331	0.511104	0.480676
H591	H	-0.160158	0.455801	0.414443
H592	H	-0.182489	0.506888	0.440085
O593	O	-0.411706	0.440791	0.852743
C594	C	-0.386871	0.416119	0.865419
H595	H	-0.355951	0.396944	0.847415
H596	H	-0.393180	0.391980	0.862348
C597	C	-0.430965	0.471229	0.929848
C598	C	-0.392989	0.447681	0.907737
H599	H	-0.434739	0.490697	0.955952
H600	H	-0.447698	0.487850	0.921308
H601	H	-0.436217	0.451109	0.927284
H602	H	-0.387738	0.467800	0.910298
H603	H	-0.376255	0.431063	0.916279
O604	O	-0.113370	0.224273	0.448895
C605	C	-0.109967	0.189789	0.414332
H606	H	-0.112178	0.197595	0.392223
H607	H	-0.133895	0.186416	0.419570
C608	C	-0.068228	0.136541	0.426523
C609	C	-0.070939	0.146128	0.399367
H610	H	-0.044154	0.109609	0.417293
H611	H	-0.070521	0.159774	0.449809
H612	H	-0.088169	0.133734	0.430885
H613	H	-0.051001	0.148941	0.395009
H614	H	-0.068641	0.122895	0.376080
O615	O	0.301652	-0.114213	0.075460
C616	C	0.268059	-0.098726	0.100451
H617	H	0.254996	-0.116645	0.083479
H618	H	0.246659	-0.061676	0.115011
C619	C	0.293966	-0.085645	0.151856
C620	C	0.277922	-0.107656	0.131011
H621	H	0.300049	-0.091152	0.170707
H622	H	0.316598	-0.096077	0.135019
H623	H	0.276129	-0.054771	0.163985
H624	H	0.295761	-0.138530	0.118878
H625	H	0.255294	-0.097230	0.147846
H626	H	0.098048	0.370947	0.069577
H627	H	-0.408984	1.100401	0.846775
H628	H	-0.533651	0.167504	0.416298
O629	O	-0.210635	0.224364	0.831243
C630	C	-0.186553	0.231492	0.852010
H631	H	-0.204487	0.259964	0.883305
H632	H	-0.170961	0.240041	0.839592
C633	C	-0.135056	0.154296	0.810756
C634	C	-0.157083	0.189265	0.849194
H635	H	-0.116876	0.128248	0.809018
H636	H	-0.151280	0.149494	0.796764
H637	H	-0.122067	0.161426	0.800412
H638	H	-0.170075	0.182137	0.859536
H639	H	-0.140860	0.194065	0.863188
O640	O	-0.112766	0.620254	0.449040
C641	C	-0.133465	0.665121	0.480241
H642	H	-0.152636	0.671286	0.504106
H643	H	-0.151858	0.686768	0.470604
C644	C	-0.081788	0.668991	0.465791
C645	C	-0.105332	0.676562	0.495104
H646	H	-0.064435	0.676050	0.474958
H647	H	-0.067843	0.638764	0.444769
H648	H	-0.097120	0.687031	0.457763
H649	H	-0.090001	0.658518	0.503127
H650	H	-0.119274	0.706787	0.516127
O651	O	0.253343	0.441101	0.852746
C652	C	0.220208	0.484870	0.876014
H653	H	0.197462	0.488514	0.861548
H654	H	0.227570	0.508640	0.880345
C655	C	0.232732	0.491175	0.932887
C656	C	0.204793	0.495650	0.915121
H657	H	0.223224	0.497826	0.957011
H658	H	0.255057	0.461688	0.917211
H659	H	0.238865	0.510984	0.936493
H660	H	0.198664	0.475837	0.911511
H661	H	0.182467	0.525134	0.930797
O662	O	-0.077605	0.549765	0.454715
C663	C	-0.064257	0.573159	0.452813
H664	H	-0.089692	0.607504	0.462762
H665	H	-0.046227	0.554543	0.422043
C666	C	-0.008431	0.535282	0.466640
C667	C	-0.039671	0.577466	0.478863
H668	H	0.006736	0.537937	0.482707
H669	H	-0.017423	0.519519	0.467921
H670	H	0.006589	0.519773	0.440998
H671	H	-0.054693	0.592972	0.504502
H672	H	-0.030681	0.593231	0.477587
O673	O	-0.023386	0.440744	0.464229
C674	C	0.009609	0.409821	0.431437
H675	H	0.006143	0.384013	0.408095
H676	H	0.035675	0.392864	0.438987
C677	C	0.019379	0.465507	0.445617
C678	C	0.015121	0.433811	0.416947
H679	H	0.022781	0.480305	0.436680
H680	H	-0.002849	0.486341	0.467711
H681	H	0.041101	0.451372	0.451906
H682	H	-0.006602	0.447948	0.410662
H683	H	0.037347	0.412980	0.394852
O684	O	0.095222	0.265233	0.454733
C685	C	0.064162	0.296326	0.489304
H686	H	0.055411	0.331003	0.500704
H687	H	0.072987	0.288908	0.511214
C688	C	0.040885	0.250877	0.468067
C689	C	0.030134	0.293469	0.482068
H690	H	0.019895	0.249113	0.463605
H691	H	0.061811	0.229928	0.444777
H692	H	0.048240	0.244700	0.486328
H693	H	0.022784	0.299643	0.463805
H694	H	0.009206	0.314419	0.505355
O695	O	-0.113398	0.099837	-0.071533
C696	C	-0.134154	0.089383	-0.095626
H697	H	-0.165447	0.110150	-0.077696
H698	H	-0.121731	0.052811	-0.111223
C699	C	-0.092903	0.073806	-0.147115
C700	C	-0.131338	0.099316	-0.125094
H701	H	-0.091165	0.079932	-0.165294
H702	H	-0.078919	0.080848	-0.130884
H703	H	-0.082555	0.043332	-0.160109
H704	H	-0.141685	0.129790	-0.112097
H705	H	-0.145325	0.092280	-0.141324
O706	O	-0.210276	0.815354	0.546577
C707	C	-0.197064	0.838861	0.571977
H708	H	-0.213730	0.855496	0.602695
H709	H	-0.201468	0.865081	0.568037
C710	C	-0.133699	0.786217	0.525819
C711	C	-0.154166	0.806645	0.563548
H712	H	-0.107238	0.766345	0.520619
H713	H	-0.142600	0.770380	0.508706
H714	H	-0.137374	0.808071	0.522540
H715	H	-0.150495	0.784792	0.566825
H716	H	-0.145263	0.822477	0.580661
O717	O	-0.134901	0.106024	0.129533
C718	C	-0.147580	0.118546	0.104705
H719	H	-0.129570	0.088789	0.073780
H720	H	-0.144524	0.145939	0.111034
C721	C	-0.212006	0.171965	0.148793
C722	C	-0.189888	0.135416	0.110810
H723	H	-0.238104	0.182373	0.152560
H724	H	-0.203464	0.163530	0.165521
H725	H	-0.209455	0.194788	0.154063
H726	H	-0.192436	0.112591	0.105542
H727	H	-0.198432	0.143847	0.094081
H728	H	-0.408958	0.997708	0.744111
H729	H	-0.318831	0.817897	0.549311
H730	H	-0.351379	0.882773	0.619437
O731	O	-0.411821	0.440895	0.741229
C732	C	-0.449168	0.478410	0.766056
H733	H	-0.450344	0.491341	0.796982
H734	H	-0.470215	0.469009	0.759734
C735	C	-0.458500	0.498737	0.721955
C736	C	-0.459944	0.514622	0.759939
H737	H	-0.465148	0.521073	0.718181
H738	H	-0.433339	0.473462	0.705227
H739	H	-0.476039	0.490903	0.716691
H740	H	-0.442402	0.522449	0.765200
H741	H	-0.485102	0.539899	0.776667
H742	H	0.168292	-0.182114	-0.066167
O743	O	-0.411968	0.106242	0.406414
C744	C	-0.422563	0.096363	0.373266
H745	H	-0.424572	0.067311	0.362563
H746	H	-0.400146	0.087345	0.350091
C747	C	-0.459237	0.172681	0.395966
C748	C	-0.461708	0.137000	0.382822
H749	H	-0.483382	0.197748	0.401860
H750	H	-0.452098	0.179337	0.418299
H751	H	-0.440554	0.165160	0.376652
H752	H	-0.480387	0.144519	0.402139
H753	H	-0.468851	0.130347	0.360493
O754	O	0.296069	-0.184773	0.040280
C755	C	0.327274	-0.229639	0.019581
H756	H	0.351131	-0.235799	0.000406
H757	H	0.317646	-0.251288	0.001190
C758	C	0.312841	-0.233517	0.071270
C759	C	0.342143	-0.241083	0.047721
H760	H	0.322012	-0.240577	0.088627
H761	H	0.291816	-0.203290	0.085214
H762	H	0.304820	-0.251559	0.055939
H763	H	0.350160	-0.223037	0.063051
H764	H	0.363170	-0.271307	0.033779
H765	H	-0.306328	0.997718	0.744115
O766	O	-0.112786	0.620263	0.324271
C767	C	-0.133484	0.665122	0.337904
H768	H	-0.164807	0.678589	0.340845
H769	H	-0.121091	0.668245	0.316876
C770	C	-0.092052	0.675175	0.373619
C771	C	-0.130524	0.691716	0.377233
H772	H	-0.090225	0.691580	0.397878
H773	H	-0.078107	0.644952	0.364433
H774	H	-0.081729	0.677779	0.356094
H775	H	-0.140845	0.689107	0.394754
H776	H	-0.144472	0.721940	0.386423
O777	O	-0.077972	0.058753	-0.036446
C778	C	-0.064750	0.047427	-0.073167
H779	H	-0.081421	0.078188	-0.073132
H780	H	-0.069138	0.021662	-0.094984
C781	C	-0.001383	-0.009476	-0.083899
C782	C	-0.021857	0.028307	-0.083855
H783	H	0.025076	-0.021272	-0.090493
H784	H	-0.010291	-0.001846	-0.059160
H785	H	-0.005044	-0.030942	-0.102080
H786	H	-0.018200	0.049774	-0.065671
H787	H	-0.012947	0.020681	-0.108592
H788	H	0.168521	-0.182337	0.036545
O789	O	-0.321976	1.211249	0.942268
C790	C	-0.325382	1.245735	0.942184
H791	H	-0.323171	1.237927	0.912269
H792	H	-0.301456	1.249111	0.950796
C793	C	-0.367123	1.298980	1.007609
C794	C	-0.364412	1.289393	0.970868
H795	H	-0.391198	1.325911	1.025303
H796	H	-0.364828	1.275746	1.007666
H797	H	-0.347183	1.301790	1.014780
H798	H	-0.384348	1.286577	0.963695
H799	H	-0.366712	1.312627	0.970810
O800	O	0.095431	-0.114699	0.074954
C801	C	0.120827	-0.138206	0.088176
H802	H	0.151543	-0.154841	0.071511
H803	H	0.116894	-0.164427	0.083774
C804	C	0.074666	-0.085563	0.151543
C805	C	0.112392	-0.105990	0.131078
H806	H	0.069462	-0.065691	0.178007
H807	H	0.057556	-0.069726	0.142636
H808	H	0.071393	-0.107417	0.147871
H809	H	0.115663	-0.084137	0.134747
H810	H	0.129503	-0.121823	0.139987
O811	O	-0.322444	0.336198	0.546487
C812	C	-0.301761	0.346723	0.532853
H813	H	-0.270436	0.325915	0.529912
H814	H	-0.314164	0.383281	0.553881
C815	C	-0.343200	0.362504	0.497139
C816	C	-0.304726	0.336944	0.493524
H817	H	-0.345030	0.356474	0.472881
H818	H	-0.357136	0.355415	0.506326
H819	H	-0.353532	0.392967	0.514665
H820	H	-0.294397	0.306482	0.476003
H821	H	-0.290788	0.344028	0.484334
O822	O	0.296013	0.099243	-0.072069
C823	C	0.327210	0.088731	-0.096229
H824	H	0.351068	0.084044	-0.083213
H825	H	0.317571	0.116762	-0.099484
C826	C	0.312780	0.051471	-0.151793
C827	C	0.342083	0.045710	-0.135808
H828	H	0.321953	0.024935	-0.176208
H829	H	0.291760	0.058554	-0.135516
H830	H	0.304750	0.074832	-0.154502
H831	H	0.350109	0.022353	-0.133096
H832	H	0.363104	0.038622	-0.152086
O833	O	-0.245649	0.058461	0.416073
C834	C	-0.208903	0.046993	0.417960
H835	H	-0.208844	0.077690	0.432060
H836	H	-0.187097	0.021207	0.387800
C837	C	-0.198374	-0.009868	0.424395
C838	C	-0.198302	0.027834	0.441716
H839	H	-0.191834	-0.021688	0.439047
H840	H	-0.223130	-0.002144	0.423122
H841	H	-0.180203	-0.031352	0.399262
H842	H	-0.216477	0.049319	0.466845
H843	H	-0.173549	0.020113	0.442993
O844	O	-0.245594	-0.114263	0.416048
C845	C	-0.208852	-0.137654	0.417954
H846	H	-0.199940	-0.172002	0.408000
H847	H	-0.209439	-0.119040	0.448725
C848	C	-0.190908	-0.099767	0.404139
C849	C	-0.179961	-0.141955	0.391910
H850	H	-0.173087	-0.102418	0.388075
H851	H	-0.215662	-0.084006	0.402856
H852	H	-0.191398	-0.084260	0.429781
H853	H	-0.179476	-0.157459	0.366270
H854	H	-0.155206	-0.157718	0.393188
H855	H	-0.186367	0.552734	0.454459
O856	O	-0.210261	-0.184761	0.421713
C857	C	-0.186103	-0.229628	0.390509
H858	H	-0.199118	-0.235784	0.366649
H859	H	-0.182848	-0.251276	0.400143
C860	C	-0.130545	-0.233516	0.404943
C861	C	-0.146529	-0.241077	0.375637
H862	H	-0.106133	-0.240580	0.395770
H863	H	-0.146820	-0.203289	0.425967
H864	H	-0.127836	-0.251557	0.412969
H865	H	-0.149242	-0.223032	0.367614
H866	H	-0.130253	-0.271301	0.354611
O867	O	-0.357247	-0.114475	0.416092
C868	C	-0.370458	-0.137984	0.417986
H869	H	-0.353794	-0.154616	0.432076
H870	H	-0.366050	-0.164206	0.387830
C871	C	-0.433822	-0.085345	0.424451
C872	C	-0.413357	-0.105771	0.441760
H873	H	-0.460284	-0.065476	0.439114
H874	H	-0.424921	-0.069508	0.423173
H875	H	-0.430144	-0.107201	0.399321
H876	H	-0.417031	-0.083915	0.466887
H877	H	-0.422259	-0.121604	0.443042
O878	O	0.253383	0.329478	0.741227
C879	C	0.253221	0.316960	0.766056
H880	H	0.241474	0.346718	0.796981
H881	H	0.283667	0.289566	0.759730
C882	C	0.242210	0.263542	0.721966
C883	C	0.227779	0.300093	0.759949
H884	H	0.226518	0.253136	0.718198
H885	H	0.242320	0.271975	0.705237
H886	H	0.267582	0.240719	0.716698
H887	H	0.202410	0.322917	0.765214
H888	H	0.227664	0.291663	0.776678
O889	O	-0.530401	0.058437	0.416048
C890	C	-0.555684	0.046981	0.417953
H891	H	-0.580067	0.062464	0.407999
H892	H	-0.567846	0.059731	0.448725
C893	C	-0.503987	-0.022687	0.404138
C894	C	-0.533933	-0.003674	0.391910
H895	H	-0.490570	-0.053933	0.388075
H896	H	-0.486953	-0.014969	0.402856
H897	H	-0.514126	-0.012058	0.429781
H898	H	-0.523793	-0.014299	0.366269
H899	H	-0.550964	-0.011396	0.393187
O900	O	0.263059	0.550160	0.795793
C901	C	0.264957	0.573661	0.782570
H902	H	0.279045	0.590288	0.799232
H903	H	0.234806	0.599887	0.786972
C904	C	0.271427	0.521023	0.719204
C905	C	0.288733	0.541441	0.739667
H906	H	0.286092	0.501149	0.692739
H907	H	0.270147	0.505190	0.728113
H908	H	0.246302	0.542882	0.722877
H909	H	0.313856	0.519583	0.735998
H910	H	0.290018	0.557269	0.730757
H911	H	-0.248686	0.882989	0.619665
O912	O	0.311220	-0.005310	0.018042
C913	C	0.278433	-0.005507	0.015945
H914	H	0.255088	0.021308	0.045217
H915	H	0.285982	-0.039136	0.006815
C916	C	0.292631	-0.029455	-0.049506
C917	C	0.263957	0.003483	-0.013555
H918	H	0.283702	-0.023912	-0.067704
H919	H	0.314721	-0.029324	-0.048094
H920	H	0.298919	-0.057476	-0.057109
H921	H	0.257672	0.031502	-0.005950
H922	H	0.241865	0.003356	-0.014966
O923	O	-0.189649	0.170424	0.248110
C924	C	-0.226400	0.209072	0.273397
H925	H	-0.226473	0.223238	0.304153
H926	H	-0.248201	0.200720	0.269417
C927	C	-0.236910	0.226040	0.227074
C928	C	-0.236998	0.243440	0.264849
H929	H	-0.243448	0.247240	0.221800
H930	H	-0.212150	0.200001	0.210037
H931	H	-0.255077	0.219080	0.223762
H932	H	-0.218828	0.250394	0.268159
H933	H	-0.261755	0.269482	0.281887
H934	H	-0.603508	0.102119	0.421549
H935	H	0.296221	-0.182130	-0.065671
H936	H	-0.318938	0.205107	0.421572
H937	H	-0.603526	1.205606	0.936940
O938	O	-0.300183	0.329292	0.741184
C939	C	-0.276931	0.339174	0.730572
H940	H	-0.291417	0.376403	0.749675
H941	H	-0.272581	0.327457	0.699434
C942	C	-0.220046	0.269780	0.711775
C943	C	-0.237837	0.315505	0.735240
H944	H	-0.195931	0.255179	0.714653
H945	H	-0.235712	0.263121	0.718923
H946	H	-0.216425	0.260022	0.685829
H947	H	-0.241462	0.325263	0.761186
H948	H	-0.222171	0.322166	0.728096
O949	O	-0.357629	0.377042	0.622650
C950	C	-0.370983	0.388506	0.597362
H951	H	-0.354382	0.357810	0.566606
H952	H	-0.366626	0.414303	0.601341
C953	C	-0.434270	0.445343	0.643682
C954	C	-0.413883	0.407642	0.605907
H955	H	-0.460733	0.457149	0.648954
H956	H	-0.425273	0.437621	0.660720
H957	H	-0.430635	0.466836	0.646994
H958	H	-0.417514	0.386147	0.602598
H959	H	-0.422882	0.415360	0.588869
O960	O	-0.530528	0.549990	0.907219
C961	C	-0.555924	0.573498	0.943942
H962	H	-0.586640	0.590134	0.943908
H963	H	-0.551989	0.599718	0.965756
C964	C	-0.509764	0.520854	0.954678
C965	C	-0.547490	0.541283	0.954635
H966	H	-0.504561	0.500983	0.961276
H967	H	-0.492654	0.505016	0.929938
H968	H	-0.506489	0.542707	0.972856
H969	H	-0.550763	0.519431	0.936455
H970	H	-0.564600	0.557116	0.979373
O971	O	-0.357315	1.170425	0.907222
C972	C	-0.370543	1.209054	0.943945
H973	H	-0.353884	1.223111	0.943912
H974	H	-0.366143	1.200712	0.965759
C975	C	-0.433899	1.226267	0.954679
C976	C	-0.413441	1.243534	0.954637
H977	H	-0.460360	1.247535	0.961276
H978	H	-0.424987	1.200241	0.929938
H979	H	-0.430228	1.219315	0.972857
H980	H	-0.417108	1.250480	0.936456
H981	H	-0.422354	1.269562	0.979375
O982	O	-0.245723	0.265109	0.795816
C983	C	-0.209001	0.226480	0.782594
H984	H	-0.209031	0.212425	0.799261
H985	H	-0.187195	0.234824	0.786993
C986	C	-0.198265	0.209264	0.719225
C987	C	-0.198303	0.191999	0.739693
H988	H	-0.191665	0.187995	0.692761
H989	H	-0.223005	0.235289	0.728133
H990	H	-0.180094	0.216217	0.722895
H991	H	-0.216478	0.185052	0.736027
H992	H	-0.173566	0.165972	0.730784
O993	O	0.301685	0.058416	-0.036744
C994	C	0.299781	0.046960	-0.073489
H995	H	0.309731	0.062439	-0.082397
H996	H	0.269014	0.059713	-0.072904
C997	C	0.313601	-0.022705	-0.091445
C998	C	0.325825	-0.003696	-0.102387
H999	H	0.329665	-0.053952	-0.109271
H1000	H	0.314882	-0.014987	-0.066689
H1001	H	0.287962	-0.012073	-0.090958
H1002	H	0.351462	-0.014323	-0.102870
H1003	H	0.324549	-0.011418	-0.127144
O1004	O	0.295844	0.211200	0.039579
C1005	C	0.261283	0.245686	0.042977
H1006	H	0.239180	0.237881	0.040767
H1007	H	0.266519	0.249060	0.019044
C1008	C	0.273463	0.298929	0.084717
C1009	C	0.246314	0.289345	0.082006
H1010	H	0.264230	0.325861	0.108791
H1011	H	0.296748	0.275695	0.082426
H1012	H	0.277824	0.301738	0.064770
H1013	H	0.241958	0.286531	0.101949
H1014	H	0.223028	0.312579	0.084301
H1015	H	0.263251	0.552711	0.904380
O1016	O	0.253390	0.440995	0.741112
C1017	C	0.253227	0.416326	0.703767
H1018	H	0.241481	0.397151	0.702596
H1019	H	0.283674	0.392188	0.682706
C1020	C	0.242216	0.471441	0.694445
C1021	C	0.227786	0.447892	0.693007
H1022	H	0.226524	0.490911	0.687807
H1023	H	0.242328	0.488060	0.719604
H1024	H	0.267588	0.451322	0.676894
H1025	H	0.202416	0.468011	0.710561
H1026	H	0.227670	0.431277	0.667851
H1027	H	0.168156	0.333358	0.037257
H1028	H	-0.351760	0.370981	0.904403
O1029	O	0.263024	0.265082	0.622651
C1030	C	0.264912	0.226437	0.597365
H1031	H	0.279003	0.212270	0.566609
H1032	H	0.234758	0.234796	0.601348
C1033	C	0.271369	0.209470	0.643689
C1034	C	0.288678	0.192068	0.605913
H1035	H	0.286028	0.188269	0.648962
H1036	H	0.270096	0.235506	0.660725
H1037	H	0.246241	0.216435	0.647003
H1038	H	0.313804	0.185108	0.602601
H1039	H	0.289957	0.166029	0.588876
O1040	O	0.268679	0.335674	0.942301
C1041	C	0.237466	0.346136	0.966393
H1042	H	0.226932	0.325377	0.948463
H1043	H	0.213324	0.382711	0.981993
C1044	C	0.263147	0.361696	1.017881
C1045	C	0.250212	0.336197	0.995860
H1046	H	0.271009	0.355567	1.036059
H1047	H	0.284176	0.354649	1.001650
H1048	H	0.243027	0.392172	1.030877
H1049	H	0.270333	0.305721	0.982861
H1050	H	0.229187	0.343238	1.012089
O1051	O	0.268758	0.620304	0.942766
C1052	C	0.266843	0.596816	0.955995
H1053	H	0.276793	0.562506	0.930492
H1054	H	0.236072	0.615404	0.973996
C1055	C	0.280654	0.634533	1.011903
C1056	C	0.292878	0.592392	0.980580
H1057	H	0.296713	0.631806	1.027070
H1058	H	0.281944	0.650360	1.002991
H1059	H	0.255012	0.650019	1.026899
H1060	H	0.318518	0.576909	0.965582
H1061	H	0.291594	0.576563	0.989490
H1062	H	-0.533273	0.552533	0.801178
H1063	H	-0.216209	1.102143	0.833504
O1064	O	0.268682	0.335697	0.546264
C1065	C	0.237479	0.346142	0.532613
H1066	H	0.213619	0.350905	0.550388
H1067	H	0.247109	0.318040	0.501366
C1068	C	0.251924	0.383230	0.514067
C1069	C	0.222617	0.389083	0.535901
H1070	H	0.242757	0.409717	0.516093
H1071	H	0.272947	0.376192	0.523262
H1072	H	0.259946	0.359810	0.488030
H1073	H	0.214599	0.412499	0.561938
H1074	H	0.201592	0.396126	0.526710
O1075	O	-0.530422	1.170653	0.907499
C1076	C	-0.555717	1.209314	0.944245
H1077	H	-0.580096	1.208265	0.953149
H1078	H	-0.567884	1.239509	0.943661
C1079	C	-0.504038	1.213460	0.962205
C1080	C	-0.533979	1.212171	0.973144
H1081	H	-0.490630	1.215224	0.980032
H1082	H	-0.486996	1.187415	0.937449
H1083	H	-0.514182	1.238623	0.961719
H1084	H	-0.523835	1.187006	0.973625
H1085	H	-0.551019	1.238212	0.997901
O1086	O	-0.023361	0.329203	0.018026
C1087	C	0.013971	0.316695	0.005339
H1088	H	0.023323	0.330082	0.031080
H1089	H	0.014291	0.330795	-0.011199
C1090	C	0.030202	0.249461	-0.052565
C1091	C	0.041689	0.265900	-0.020950
H1092	H	0.047300	0.218128	-0.068783
H1093	H	0.005050	0.257888	-0.044019
H1094	H	0.030469	0.261215	-0.066342
H1095	H	0.041418	0.254150	-0.007171
H1096	H	0.066842	0.257470	-0.029495
O1097	O	-0.023396	0.440766	0.129526
C1098	C	0.013946	0.416092	0.104697
H1099	H	0.015124	0.396908	0.073772
H1100	H	0.035005	0.391961	0.111022
C1101	C	0.023254	0.471213	0.148790
C1102	C	0.024699	0.447654	0.110807
H1103	H	0.029888	0.490680	0.152560
H1104	H	-0.001904	0.487836	0.165519
H1105	H	0.040802	0.451099	0.154056
H1106	H	0.007148	0.467766	0.105543
H1107	H	0.049854	0.431035	0.094077
O1108	O	-0.077549	0.264843	-0.036740
C1109	C	-0.064186	0.226182	-0.073485
H1110	H	-0.089613	0.227230	-0.082391
H1111	H	-0.046158	0.195987	-0.072902
C1112	C	-0.008362	0.222035	-0.091445
C1113	C	-0.039593	0.223325	-0.102384
H1114	H	0.006810	0.220271	-0.109272
H1115	H	-0.017364	0.248081	-0.066689
H1116	H	0.006657	0.196873	-0.090959
H1117	H	-0.054613	0.248489	-0.102866
H1118	H	-0.030593	0.197283	-0.127142
H1119	H	-0.026271	-0.002525	0.023995
O1120	O	-0.112686	0.223843	-0.072062
C1121	C	-0.133380	0.230889	-0.096220
H1122	H	-0.152560	0.267776	-0.083203
H1123	H	-0.151763	0.217997	-0.099474
C1124	C	-0.081687	0.160866	-0.151787
C1125	C	-0.105242	0.206172	-0.135800
H1126	H	-0.064331	0.145618	-0.176202
H1127	H	-0.067746	0.156118	-0.135511
H1128	H	-0.097010	0.150129	-0.154494
H1129	H	-0.089919	0.216909	-0.133088
H1130	H	-0.119180	0.210921	-0.152076
H1131	H	0.311211	-0.002317	0.126644
H1132	H	-0.186560	0.167556	0.069590
H1133	H	0.301473	-0.117258	-0.033358
H1134	H	0.098294	0.267974	-0.033360
