data_functionalizedCrystal
_audit_creation_method	'MofGen! by Chris Wilmer'
_symmetry_space_group_name_H-M	'P1'
_symmetry_Int_Tables_number	1
_symmetry_cell_setting	triclinic
loop_
_symmetry_equiv_pos_as_xyz
  x,y,z
_cell_length_a	21.295418
_cell_length_b	13.032721
_cell_length_c	13.033255
_cell_angle_alpha	74.857313
_cell_angle_beta	82.776995
_cell_angle_gamma	82.777348
loop_
_atom_site_label
_atom_site_type_symbol
_atom_site_fract_x
_atom_site_fract_y
_atom_site_fract_z
Zn1	Zn	0.974295	0.498710	-0.654722
Zn2	Zn	0.950497	0.653802	-0.499656
Zn3	Zn	0.857157	0.476248	-0.477078
Zn4	Zn	0.857133	0.676314	-0.677151
O5	O	0.909771	0.576268	-0.577152
O6	O	1.059234	0.519262	-0.634215
O7	O	0.928166	0.611427	-0.348034
O8	O	0.882665	0.330593	-0.481808
O9	O	1.041750	0.633207	-0.520288
O10	O	0.968726	0.347096	-0.612322
O11	O	0.859589	0.480979	-0.331446
O12	O	0.769058	0.502809	-0.503556
O13	O	0.882624	0.671576	-0.822802
O14	O	0.769040	0.649796	-0.650548
O15	O	0.968703	0.541091	-0.806324
O16	O	0.928143	0.805423	-0.542036
O17	O	0.859548	0.821962	-0.672441
C18	C	0.746207	0.576309	-0.577037
C19	C	0.676234	0.576355	-0.577016
C20	C	0.891279	0.852235	-0.612145
C21	C	0.883428	0.970299	-0.627151
C22	C	0.928315	0.611351	-0.854178
C23	C	0.936218	0.626301	-0.972230
C24	C	0.643362	0.652968	-0.653465
C25	C	0.577624	0.652948	-0.653509
C26	C	0.544759	0.576323	-0.577087
C27	C	0.577640	0.499696	-0.500632
C28	C	0.643377	0.499712	-0.500596
N29	N	0.435837	0.556238	-0.483135
N30	N	0.373389	0.556230	-0.483173
C31	C	0.346696	0.576270	-0.577191
N32	N	0.384810	0.596340	-0.671175
N33	N	0.447263	0.596354	-0.671137
C34	C	0.473478	0.576297	-0.577117
C35	C	0.242544	0.652866	-0.653694
C36	C	0.176806	0.652839	-0.653739
C37	C	0.176822	0.499591	-0.500853
C38	C	0.242560	0.499614	-0.500817
C39	C	0.275417	0.576257	-0.577236
C40	C	1.073973	0.576229	-0.577268
C41	C	1.143946	0.576212	-0.577318
C42	C	0.928353	0.299228	-0.542045
C43	C	0.936271	0.181169	-0.527084
C44	C	0.913904	1.014723	-0.569368
C45	C	0.905791	1.136748	-0.584876
C46	C	0.913983	0.583872	-1.138672
C47	C	0.905810	0.568418	-1.016659
C48	C	0.891339	0.541246	-0.301193
C49	C	0.883578	0.525997	-0.183104
H50	H	0.670110	0.715376	-0.715693
F51	F	0.978233	1.112814	-0.447414
F52	F	0.841642	0.446282	-1.114763
F53	F	0.955911	0.663599	-1.207015
H54	H	0.968303	0.687293	-1.024515
H55	H	0.550855	0.715336	-0.715767
H56	H	0.269298	0.715268	-0.715924
H57	H	0.851333	1.022604	-0.688107
H58	H	0.873694	1.189051	-0.645836
F59	F	0.955864	0.946363	-0.489704
H60	H	0.550877	0.437306	-0.438410
F61	F	0.141822	0.734381	-0.735116
F62	F	0.277546	0.418072	-0.419446
F63	F	0.863871	0.488698	-0.948321
H64	H	0.670141	0.437321	-0.438342
H65	H	0.150065	0.437197	-0.438633
