data_functionalizedCrystal
_audit_creation_method	'MofGen! by Chris Wilmer'
_symmetry_space_group_name_H-M	'P1'
_symmetry_Int_Tables_number	1
_symmetry_cell_setting	triclinic
loop_
_symmetry_equiv_pos_as_xyz
  x,y,z
_cell_length_a	12.759394
_cell_length_b	12.759395
_cell_length_c	12.759393
_cell_angle_alpha	90.021731
_cell_angle_beta	89.967706
_cell_angle_gamma	89.986910
loop_
_atom_site_label
_atom_site_type_symbol
_atom_site_fract_x
_atom_site_fract_y
_atom_site_fract_z
Zn1	Zn	-0.418253	-1.606255	-0.594067
Zn2	Zn	-0.593972	-1.606149	-0.418385
Zn3	Zn	-0.418303	-1.430557	-0.418396
Zn4	Zn	-0.593886	-1.430545	-0.594016
O5	O	-0.506104	-1.518377	-0.506216
O6	O	-0.441579	-1.753262	-0.570778
O7	O	-0.570726	-1.582817	-0.271365
O8	O	-0.271275	-1.453913	-0.441725
O9	O	-0.570679	-1.753184	-0.441705
O10	O	-0.271239	-1.582998	-0.570790
O11	O	-0.441662	-1.453810	-0.271373
O12	O	-0.441578	-1.283534	-0.441676
O13	O	-0.570531	-1.453893	-0.741044
O14	O	-0.570578	-1.283526	-0.570703
O15	O	-0.441495	-1.582986	-0.741081
O16	O	-0.740982	-1.582806	-0.441656
O17	O	-0.740918	-1.453790	-0.570692
C18	C	-0.506075	-1.245409	-0.506186
C19	C	-0.506088	-1.128632	-0.506198
C20	C	-0.371887	-0.909279	-0.640847
C21	C	-0.304771	-0.964186	-0.708146
C22	C	-0.304758	-1.073907	-0.708132
C23	C	-0.371870	-1.128724	-0.640812
C24	C	-0.438986	-1.073818	-0.573513
C25	C	-0.438990	-0.964094	-0.573532
C26	C	-0.573204	-1.073726	-0.438899
C27	C	-0.573214	-0.964004	-0.438906
C28	C	-0.640316	-1.128543	-0.371579
C29	C	-0.707428	-1.073636	-0.304273
C30	C	-0.707438	-0.963908	-0.304289
C31	C	-0.640329	-0.909097	-0.371607
C32	C	-0.779071	-1.518314	-0.506190
C33	C	-0.895848	-1.518383	-0.506215
C34	C	-0.895861	-1.652827	-0.371950
C35	C	-0.950728	-1.720077	-0.304831
C36	C	-1.060450	-1.720138	-0.304859
C37	C	-1.115306	-1.652945	-0.372017
C38	C	-1.060439	-1.585696	-0.439137
C39	C	-0.950715	-1.585639	-0.439099
C40	C	-1.060426	-1.451258	-0.573405
C41	C	-0.950705	-1.451190	-0.573373
C42	C	-1.115283	-1.384065	-0.640563
C43	C	-1.060416	-1.316809	-0.707679
C44	C	-0.950687	-1.316749	-0.707646
C45	C	-0.895837	-1.383940	-0.640492
C46	C	-0.232070	-1.518469	-0.506264
C47	C	-0.115293	-1.518508	-0.506285
C48	C	-0.505998	-1.518450	-0.780249
C49	C	-0.505952	-1.518482	-0.897026
C50	C	-0.506122	-0.792410	-0.506238
C51	C	-0.506102	-0.909187	-0.506226
C52	C	-0.438757	-1.585710	-0.951909
C53	C	-0.438719	-1.585735	-1.061633
C54	C	-0.573081	-1.451300	-1.061582
C55	C	-0.573113	-1.451271	-0.951859
C56	C	-0.361187	-1.663328	-0.951940
C57	C	-0.361149	-1.663353	-1.061664
C58	C	-0.506133	-1.518364	-0.233248
C59	C	-0.505883	-1.518536	-0.116472
H60	H	-0.762096	-0.919209	-0.249490
H61	H	-0.390358	-1.740599	-0.917908
H62	H	-0.627759	-1.396578	-1.106240
O63	O	-0.253416	-1.634496	-0.912508
H64	H	-0.200630	-1.620391	-0.980221
O65	O	-0.640293	-1.246886	-0.371542
H66	H	-0.582337	-1.275859	-0.429635
H67	H	-1.204624	-1.384124	-0.640586
O68	O	-0.779802	-1.132755	-0.231664
H69	H	-0.768516	-1.218275	-0.242960
O70	O	-0.371850	-1.247067	-0.640807
H71	H	-0.451113	-1.276001	-0.661905
O72	O	-0.645574	-1.378725	-0.892688
H73	H	-0.699065	-1.425679	-0.842674
H74	H	-0.283839	-1.634239	-1.095711
O75	O	-0.390030	-1.771127	-1.101131
H76	H	-0.404210	-1.823867	-1.033435
H77	H	-0.250133	-0.919541	-0.762959
H78	H	-0.906020	-1.261990	-0.762308
H79	H	-0.371868	-0.819938	-0.640843
O80	O	-0.232363	-1.133129	-0.780715
H81	H	-0.279445	-1.183138	-0.834081
O82	O	-0.640333	-0.790754	-0.371618
H83	H	-0.719604	-0.761820	-0.392710
O84	O	-0.777518	-1.652755	-0.371919
H85	H	-0.748591	-1.710777	-0.313951
H86	H	-1.105122	-1.774904	-0.250210
O87	O	-0.891565	-1.792569	-0.232417
H88	H	-0.806051	-1.781233	-0.243671
H89	H	-1.204647	-1.653011	-0.372043
H90	H	-0.806496	-1.383891	-0.640453
O91	O	-1.119577	-1.244332	-0.780098
H92	H	-1.205090	-1.255670	-0.768838
