data_functionalizedCrystal
_audit_creation_method	'MofGen! by Chris Wilmer'
_symmetry_space_group_name_H-M	'P1'
_symmetry_Int_Tables_number	1
_symmetry_cell_setting	triclinic
loop_
_symmetry_equiv_pos_as_xyz
  x,y,z
_cell_length_a	29.839134
_cell_length_b	13.897449
_cell_length_c	13.897441
_cell_angle_alpha	89.978378
_cell_angle_beta	89.968382
_cell_angle_gamma	89.997483
loop_
_atom_site_label
_atom_site_type_symbol
_atom_site_fract_x
_atom_site_fract_y
_atom_site_fract_z
Zn1	Zn	0.686884	-0.384116	-0.545721
Zn2	Zn	0.686854	-0.545438	-0.384448
Zn3	Zn	0.611754	-0.384144	-0.384409
Zn4	Zn	0.611765	-0.545356	-0.545670
O5	O	0.649314	-0.464764	-0.465062
O6	O	0.749747	-0.405538	-0.524366
O7	O	0.676875	-0.524088	-0.249461
O8	O	0.621728	-0.249159	-0.405813
O9	O	0.749725	-0.524061	-0.405879
O10	O	0.676925	-0.249138	-0.524328
O11	O	0.621699	-0.405586	-0.249433
O12	O	0.548888	-0.405507	-0.405763
O13	O	0.621747	-0.523922	-0.680659
O14	O	0.548896	-0.523949	-0.524241
O15	O	0.676936	-0.405459	-0.680696
O16	O	0.676886	-0.680409	-0.405829
O17	O	0.621718	-0.680349	-0.524278
C18	C	0.532591	-0.464723	-0.464993
C19	C	0.482657	-0.464728	-0.464986
C20	C	0.173027	-0.526528	-0.526678
C21	C	-0.014646	-0.526555	-0.526721
O22	O	-0.038899	-0.579053	-0.579133
N23	N	-0.038128	-0.464799	-0.465135
C24	C	-0.014689	-0.403028	-0.403538
O25	O	-0.038969	-0.350494	-0.351164
C26	C	0.172983	-0.402996	-0.403501
C27	C	0.196463	-0.464763	-0.465084
C28	C	0.196507	-0.588289	-0.588257
C29	C	0.243423	-0.588285	-0.588242
C30	C	0.266858	-0.526520	-0.526648
C31	C	0.243378	-0.464759	-0.465069
C32	C	0.196421	-0.341221	-0.341910
C33	C	0.243342	-0.341217	-0.341908
C34	C	0.266822	-0.402983	-0.403491
C35	C	0.313729	-0.402991	-0.403460
N36	N	0.337212	-0.464747	-0.465046
C37	C	0.313776	-0.526511	-0.526640
C38	C	-0.113220	-0.403050	-0.403561
C39	C	-0.160138	-0.403059	-0.403569
C40	C	-0.160091	-0.526585	-0.526753
C41	C	-0.113172	-0.526580	-0.526739
C42	C	-0.089738	-0.464805	-0.465147
C43	C	0.412302	-0.526499	-0.526603
C44	C	0.459222	-0.526493	-0.526580
C45	C	0.459171	-0.402964	-0.403400
C46	C	0.412255	-0.402973	-0.403419
C47	C	0.388822	-0.464744	-0.465028
O48	O	0.338011	-0.350512	-0.351083
O49	O	0.338064	-0.579022	-0.579022
C50	C	0.126112	-0.526531	-0.526693
C51	C	0.102632	-0.464770	-0.465114
C52	C	0.126067	-0.403006	-0.403520
C53	C	0.055714	-0.464779	-0.465122
C54	C	0.032279	-0.526544	-0.526716
C55	C	0.055761	-0.588300	-0.588302
C56	C	0.102677	-0.588296	-0.588287
C57	C	0.102585	-0.341250	-0.341934
C58	C	0.055669	-0.341259	-0.341954
C59	C	0.032234	-0.403024	-0.403547
C60	C	0.649312	-0.715378	-0.465074
C61	C	0.649352	-0.822592	-0.465111
C62	C	0.649346	-0.464678	-0.716655
C63	C	0.649359	-0.464642	-0.823869
C64	C	0.766492	-0.464805	-0.465133
C65	C	0.816427	-0.464823	-0.465163
C66	C	0.649328	-0.213171	-0.465072
C67	C	0.649334	-0.105957	-0.465076
C68	C	0.649348	0.090338	-0.465107
C69	C	0.649342	-0.018894	-0.465093
C70	C	0.649372	-0.464577	-1.020165
C71	C	0.649364	-0.464616	-0.910932
C72	C	0.649308	-0.464779	-0.214448
C73	C	0.649382	-0.464544	-0.107234
H74	H	0.121790	-0.638593	-0.638435
H75	H	0.478337	-0.576795	-0.576729
F76	F	0.387369	-0.592243	-0.592175
F77	F	0.268406	-0.654022	-0.653792
F78	F	0.268280	-0.275464	-0.276352
H79	H	0.177311	-0.290926	-0.291760
H80	H	0.393137	-0.352680	-0.353271
F81	F	0.030685	-0.275517	-0.276400
F82	F	0.484120	-0.337233	-0.337850
F83	F	0.030811	-0.654039	-0.653851
F84	F	0.171573	-0.654032	-0.653820
H85	H	-0.179180	-0.576876	-0.576905
H86	H	0.121661	-0.290952	-0.291776
H87	H	-0.179251	-0.352771	-0.353412
F88	F	-0.088187	-0.592319	-0.592285
H89	H	-0.094144	-0.352744	-0.353400
