data_functionalizedCrystal
_audit_creation_method	'MofGen! by Chris Wilmer'
_symmetry_space_group_name_H-M	'P1'
_symmetry_Int_Tables_number	1
_symmetry_cell_setting	triclinic
loop_
_symmetry_equiv_pos_as_xyz
  x,y,z
_cell_length_a	11.792254
_cell_length_b	16.109302
_cell_length_c	15.186229
_cell_angle_alpha	89.994701
_cell_angle_beta	89.999311
_cell_angle_gamma	96.169811
loop_
_atom_site_label
_atom_site_type_symbol
_atom_site_fract_x
_atom_site_fract_y
_atom_site_fract_z
O1	O	-0.145888	1.103822	-0.073259
O2	O	-0.164042	0.861846	-0.073251
O3	O	0.010256	0.988700	-0.073260
O4	O	-0.320186	0.976967	-0.073251
O5	O	0.010258	0.988692	0.073198
O6	O	-0.164040	0.861837	0.073206
O7	O	-0.145886	1.103813	0.073198
Zn8	Zn	-0.154963	0.982824	0.096455
Zn9	Zn	-0.154966	0.982835	-0.096509
O10	O	-0.320184	0.976959	0.073206
C11	C	-0.163306	0.830863	-0.000022
C12	C	-0.161101	0.738557	-0.000019
C13	C	-0.156000	0.526188	0.079806
C14	C	-0.153916	0.439458	0.079803
C15	C	-0.153925	0.439478	-0.079873
C16	C	-0.156001	0.526207	-0.079869
C17	C	-0.157044	0.569559	-0.000027
C18	C	-0.152884	0.396100	-0.000034
C19	C	-0.150624	0.302064	-0.000038
C20	C	-0.159302	0.663602	-0.000023
C21	C	-0.362469	0.977702	-0.000022
C22	C	-0.488463	0.979914	-0.000019
C23	C	-0.590784	0.981712	-0.000024
C24	C	-0.719151	0.983959	-0.000034
C25	C	0.052541	0.987957	-0.000034
C26	C	0.178535	0.985745	-0.000043
C27	C	-0.146623	1.134796	-0.000034
C28	C	-0.148828	1.227102	-0.000042
N29	N	-0.154960	0.982822	0.228148
N30	N	-0.154960	0.982843	-0.228201
C31	C	-0.077806	1.039013	0.453867
C32	C	-0.077804	1.039015	0.546057
C33	C	-0.232117	0.926647	0.546073
C34	C	-0.232113	0.926641	0.453885
C35	C	-0.154959	0.982828	0.407784
C36	C	-0.154960	0.982837	0.592162
C37	C	-0.154958	0.982839	0.692118
C38	C	-0.154960	0.982825	0.307822
H39	H	-0.156848	0.561521	-0.144883
H40	H	-0.156850	0.561483	0.144818
O41	O	-0.002705	1.093560	0.590724
C42	C	0.109655	1.079525	0.568214
H43	H	0.109527	1.047476	0.501284
H44	H	0.165522	1.141765	0.565049
H45	H	0.144773	1.037988	0.620104
H46	H	-0.294935	0.880901	0.583617
O47	O	-0.152959	0.397451	0.157431
C48	C	-0.154295	0.454319	0.227897
H49	H	-0.191689	0.512864	0.204494
H50	H	-0.208761	0.424224	0.283735
H51	H	-0.063517	0.471854	0.252443
O52	O	-0.152968	0.397230	-0.157349
C53	C	-0.150887	0.311382	-0.140236
H54	H	-0.186508	0.296249	-0.071621
H55	H	-0.205173	0.273398	-0.191221
H56	H	-0.059300	0.295079	-0.144028
O57	O	-0.002763	1.093455	0.409007
C58	C	0.067289	1.048579	0.355736
H59	H	0.022066	0.983746	0.341914
H60	H	0.085308	1.083193	0.290912
H61	H	0.151136	1.042510	0.391302
O62	O	-0.307175	0.872030	0.409251
C63	C	-0.375261	0.822429	0.469707
H64	H	-0.376565	0.856522	0.535416
H65	H	-0.465893	0.810154	0.443066
H66	H	-0.338383	0.760504	0.479523
