data_functionalizedCrystal
_audit_creation_method	'MofGen! by Chris Wilmer'
_symmetry_space_group_name_H-M	'P1'
_symmetry_Int_Tables_number	1
_symmetry_cell_setting	triclinic
loop_
_symmetry_equiv_pos_as_xyz
  x,y,z
_cell_length_a	19.288840
_cell_length_b	10.723023
_cell_length_c	17.766277
_cell_angle_alpha	89.994693
_cell_angle_beta	89.983415
_cell_angle_gamma	83.796782
loop_
_atom_site_label
_atom_site_type_symbol
_atom_site_fract_x
_atom_site_fract_y
_atom_site_fract_z
O1	O	0.922376	0.155510	-0.062718
O2	O	0.720249	0.176541	-0.062692
O3	O	0.825975	-0.015650	-0.062703
O4	O	0.816650	0.347700	-0.062708
O5	O	0.825956	-0.015659	0.062486
O6	O	0.720231	0.176531	0.062496
O7	O	0.922357	0.155500	0.062470
Cu8	Cu	0.821292	0.166015	0.073914
Cu9	Cu	0.821314	0.166026	-0.074136
O10	O	0.816631	0.347690	0.062481
C11	C	0.694359	0.175864	-0.000095
C12	C	0.617241	0.173849	-0.000085
C13	C	0.581042	0.172886	-0.068327
C14	C	0.508582	0.170978	-0.068336
C15	C	0.472327	0.170008	-0.000099
C16	C	0.508535	0.170978	0.068152
C17	C	0.580992	0.172899	0.068159
C18	C	0.362496	0.093875	0.052171
C19	C	0.290041	0.091947	0.052160
C20	C	0.248845	0.164090	-0.000119
C21	C	0.280114	0.238146	-0.052400
C22	C	0.352571	0.240066	-0.052393
C23	C	0.393760	0.167926	-0.000099
C24	C	0.134077	0.161060	-0.068375
C25	C	0.061615	0.159160	-0.068382
C26	C	0.061570	0.159148	0.068108
C27	C	0.134029	0.161061	0.068113
C28	C	0.170278	0.162011	-0.000131
C29	C	0.825287	-0.062140	-0.000109
C30	C	0.823257	-0.200651	-0.000111
C31	C	0.822362	-0.262393	-0.064964
C32	C	0.820264	-0.405551	-0.064967
C33	C	0.948247	0.156177	-0.000129
C34	C	1.025365	0.158192	-0.000144
C35	C	0.817319	0.394181	-0.000115
C36	C	0.819349	0.532692	-0.000117
N37	N	0.821282	0.166006	0.178044
N38	N	0.821330	0.166025	-0.178266
C39	C	0.868112	0.080946	0.217426
C40	C	0.868116	0.080940	0.296228
C41	C	0.821296	0.166016	0.335645
C42	C	0.774457	0.251083	0.296253
C43	C	0.774449	0.251078	0.217453
C44	C	0.812737	0.279709	0.460482
C45	C	0.812749	0.279716	0.539281
C46	C	0.821315	0.166031	0.578691
C47	C	0.829883	0.052334	0.539293
C48	C	0.829876	0.052329	0.460493
C49	C	0.821299	0.166030	0.421090
C50	C	0.868153	0.080957	0.703519
C51	C	0.868152	0.080950	0.782322
C52	C	0.774495	0.251103	0.782346
C53	C	0.774493	0.251100	0.703544
C54	C	0.821325	0.166028	0.664136
H55	H	0.610551	0.173659	-0.123896
H56	H	0.819497	-0.458649	-0.120490
C57	C	0.407808	0.014516	0.109685
C58	C	0.373419	-0.066949	0.167186
C59	C	0.418729	-0.146299	0.224701
C60	C	0.498429	-0.144183	0.224715
C61	C	0.532823	-0.062715	0.167212
C62	C	0.487512	0.016635	0.109697
H63	H	0.314417	-0.068518	0.167178
H64	H	0.393268	-0.206607	0.267269
H65	H	0.531970	-0.202922	0.267291
H66	H	0.591825	-0.061146	0.167221
H67	H	0.512973	0.076943	0.067130
H68	H	0.163504	0.161837	0.123683
H69	H	0.822466	-0.253775	0.055408
C70	C	0.820389	-0.395598	0.074898
C71	C	0.761490	-0.291575	0.093608
C72	C	0.762530	-0.219854	0.168623
C73	C	0.822469	-0.252157	0.224929
C74	C	0.881372	-0.356185	0.206220
C75	C	0.880332	-0.427906	0.131205
H76	H	0.717116	-0.267658	0.051926
H77	H	0.718926	-0.142845	0.182472
H78	H	0.823239	-0.199065	0.280460
H79	H	0.925746	-0.380102	0.247902
H80	H	0.923936	-0.504915	0.117356
H81	H	0.836851	-0.040247	0.428418
H82	H	0.378027	0.300368	-0.094961
C83	C	0.919619	-0.012640	0.174075
C84	C	0.971132	-0.106216	0.217397
C85	C	1.022637	-0.199803	0.174043
C86	C	1.022629	-0.199814	0.087365
C87	C	0.971114	-0.106234	0.044038
C88	C	0.919609	-0.012647	0.087393
H89	H	0.971140	-0.106212	0.281565
H90	H	1.060772	-0.269078	0.206117
H91	H	1.060756	-0.269093	0.055272
H92	H	0.971107	-0.106238	-0.020130
H93	H	0.881475	0.056627	0.055319
H94	H	0.479011	0.170191	0.123711
H95	H	0.032142	0.158383	-0.123955
H96	H	0.032052	0.158366	0.123668
C97	C	0.803317	0.404774	0.417135
C98	C	0.793906	0.529832	0.460466
C99	C	0.784487	0.654891	0.417120
C100	C	0.784479	0.654891	0.330443
C101	C	0.793891	0.529828	0.287107
C102	C	0.803310	0.404769	0.330453
H103	H	0.793911	0.529836	0.524634
H104	H	0.777519	0.747471	0.449201
H105	H	0.777506	0.747467	0.298355
H106	H	0.793885	0.529824	0.222939
H107	H	0.810277	0.312190	0.298372
H108	H	0.906253	0.011671	0.328299
H109	H	0.610465	0.173684	0.123732
C110	C	0.234808	0.317513	-0.109913
C111	C	0.155107	0.315416	-0.109921
C112	C	0.109799	0.394775	-0.167433
C113	C	0.144191	0.476230	-0.224937
C114	C	0.223896	0.478330	-0.224931
C115	C	0.269205	0.398971	-0.167419
H116	H	0.129644	0.255115	-0.067351
H117	H	0.050795	0.393220	-0.167437
H118	H	0.110651	0.534976	-0.267511
H119	H	0.249359	0.538631	-0.267501
H120	H	0.328208	0.400526	-0.167414
H121	H	0.823146	-0.209267	-0.120483
C122	C	0.839359	-0.072730	0.582633
C123	C	0.839400	-0.072733	0.669310
C124	C	0.848903	-0.197790	0.712654
C125	C	0.858366	-0.322843	0.669320
C126	C	0.858325	-0.322845	0.582638
C127	C	0.848821	-0.197788	0.539294
H128	H	0.832395	0.019843	0.701393
H129	H	0.848934	-0.197789	0.776822
H130	H	0.865401	-0.415418	0.701405
H131	H	0.865330	-0.415421	0.550555
H132	H	0.848791	-0.197789	0.475126
H133	H	0.906284	0.011683	0.671431
H134	H	0.264588	0.031640	0.094728
C135	C	0.722984	0.344680	0.660217
C136	C	0.671500	0.438300	0.703566
C137	C	0.619988	0.531881	0.660238
C138	C	0.619960	0.531842	0.573561
C139	C	0.671446	0.438218	0.530207
C140	C	0.722959	0.344637	0.573535
H141	H	0.671519	0.438333	0.767734
H142	H	0.581874	0.601188	0.692332
H143	H	0.581828	0.601116	0.541487
H144	H	0.671428	0.438186	0.466039
H145	H	0.761072	0.275330	0.541441
H146	H	0.906285	0.011677	0.814388
C147	C	0.722936	0.344656	0.174127
C148	C	0.671452	0.438276	0.217476
C149	C	0.619939	0.531857	0.174148
C150	C	0.619912	0.531818	0.087471
C151	C	0.671398	0.438194	0.044117
C152	C	0.722910	0.344613	0.087445
H153	H	0.671470	0.438309	0.281644
H154	H	0.581826	0.601164	0.206242
H155	H	0.581779	0.601092	0.055397
H156	H	0.671379	0.438162	-0.020051
H157	H	0.761024	0.275306	0.055351
C158	C	0.468753	0.169902	-0.143406
C159	C	0.508625	0.170943	-0.218470
C160	C	0.468798	0.169862	-0.293540
C161	C	0.389099	0.167741	-0.293546
C162	C	0.349222	0.166700	-0.218479
C163	C	0.389049	0.167781	-0.143410
H164	H	0.567627	0.172513	-0.218468
H165	H	0.498318	0.170632	-0.349110
H166	H	0.359616	0.166941	-0.349117
H167	H	0.290220	0.165130	-0.218481
H168	H	0.359529	0.167011	-0.087840
H169	H	0.163591	0.161847	-0.123944
H170	H	0.736371	0.320369	0.814438
H171	H	0.805777	0.372294	0.571353
H172	H	0.736334	0.320351	0.328350
