data_functionalizedCrystal
_audit_creation_method	'MofGen! by Chris Wilmer'
_symmetry_space_group_name_H-M	'P1'
_symmetry_Int_Tables_number	1
_symmetry_cell_setting	triclinic
loop_
_symmetry_equiv_pos_as_xyz
  x,y,z
_cell_length_a	19.805407
_cell_length_b	18.215404
_cell_length_c	18.215399
_cell_angle_alpha	89.972485
_cell_angle_beta	90.020634
_cell_angle_gamma	89.976177
loop_
_atom_site_label
_atom_site_type_symbol
_atom_site_fract_x
_atom_site_fract_y
_atom_site_fract_z
Zn1	Zn	1.034755	0.292992	0.416134
Zn2	Zn	1.034673	0.416063	0.293068
Zn3	Zn	0.921567	0.293015	0.293079
Zn4	Zn	0.921538	0.416021	0.416092
O5	O	0.978133	0.354523	0.354593
O6	O	1.129461	0.309325	0.399822
O7	O	1.019647	0.399768	0.190086
O8	O	0.936629	0.190028	0.309425
O9	O	1.129400	0.399745	0.309406
O10	O	1.019787	0.190011	0.399833
O11	O	0.936549	0.309365	0.190094
O12	O	0.826847	0.309324	0.309384
O13	O	0.936579	0.399674	0.519082
O14	O	0.826826	0.399696	0.399761
O15	O	1.019759	0.309285	0.519113
O16	O	1.019619	0.519042	0.309365
O17	O	0.936499	0.519011	0.399750
C18	C	0.802277	0.354509	0.354570
C19	C	0.727045	0.354520	0.354577
C20	C	0.978065	0.545729	0.354568
C21	C	0.978098	0.627528	0.354582
C22	C	1.021483	0.815713	0.307615
C23	C	1.021515	0.892572	0.307637
C24	C	0.934887	0.892580	0.401677
C25	C	0.934860	0.815723	0.401659
C26	C	0.978157	0.777291	0.354623
C27	C	0.978216	0.931007	0.354664
C28	C	0.978250	1.014341	0.354688
C29	C	0.978124	0.693952	0.354600
C30	C	0.691708	0.401648	0.401560
C31	C	0.621019	0.401649	0.401570
C32	C	0.585670	0.354526	0.354593
C33	C	0.621012	0.307393	0.307608
C34	C	0.691700	0.307389	0.307602
C35	C	0.335939	0.307410	0.307633
C36	C	0.265247	0.307419	0.307641
C37	C	0.265259	0.401670	0.401601
C38	C	0.335946	0.401666	0.401594
C39	C	0.371282	0.354530	0.354613
C40	C	0.447931	0.354529	0.354603
C41	C	0.509023	0.354531	0.354599
C42	C	1.154676	0.354537	0.354618
C43	C	1.229908	0.354544	0.354628
C44	C	0.978175	0.354472	0.546546
C45	C	0.978192	0.354450	0.628345
C46	C	0.978225	1.162570	0.354648
C47	C	0.978274	1.080771	0.354706
C48	C	0.978131	0.354520	0.163387
C49	C	0.978245	0.354334	0.081589
C50	C	1.021519	0.307341	0.816557
C51	C	1.021528	0.307319	0.893415
C52	C	0.934913	0.401446	0.893372
C53	C	0.934902	0.401463	0.816515
C54	C	0.978209	0.354412	0.778109
C55	C	0.978228	0.354373	0.931825
C56	C	0.978236	0.354350	1.015159
C57	C	0.978200	0.354433	0.694770
H58	H	1.056796	0.923852	0.269359
H59	H	0.364701	0.269035	0.269372
H60	H	0.899578	0.784437	0.439942
H61	H	0.899636	0.923880	0.439971
O62	O	0.582891	0.256584	0.256920
H63	H	0.527800	0.264516	0.264804
H64	H	0.364724	0.440041	0.439845
H65	H	0.236479	0.440047	0.439858
H66	H	1.056794	0.268988	0.924716
O67	O	0.227115	0.256585	0.256978
H68	H	0.263562	0.223802	0.224313
H69	H	0.720484	0.440024	0.439811
H70	H	0.720471	0.269009	0.269348
H71	H	0.592250	0.440026	0.439828
H72	H	0.899628	0.439794	0.785209
O73	O	1.068221	0.256590	0.775130
H74	H	1.098334	0.223850	0.814780
H75	H	0.899655	0.439756	0.924651
H76	H	1.056739	0.784424	0.269317
