data_functionalizedCrystal
_audit_creation_method	'MofGen! by Chris Wilmer'
_symmetry_space_group_name_H-M	'P1'
_symmetry_Int_Tables_number	1
_symmetry_cell_setting	triclinic
loop_
_symmetry_equiv_pos_as_xyz
  x,y,z
_cell_length_a	19.805407
_cell_length_b	18.101395
_cell_length_c	19.805399
_cell_angle_alpha	90.025118
_cell_angle_beta	90.017803
_cell_angle_gamma	90.028420
loop_
_atom_site_label
_atom_site_type_symbol
_atom_site_fract_x
_atom_site_fract_y
_atom_site_fract_z
Zn1	Zn	1.034714	-0.294900	0.382699
Zn2	Zn	1.284714	-0.044900	0.632699
Zn3	Zn	1.534714	0.205100	0.882699
Zn4	Zn	1.784714	0.455100	1.132699
Zn5	Zn	1.034619	-0.418743	0.269516
Zn6	Zn	1.284619	-0.168743	0.519516
Zn7	Zn	1.534619	0.081257	0.769516
Zn8	Zn	1.784619	0.331257	1.019516
Zn9	Zn	0.921528	-0.294914	0.269527
Zn10	Zn	1.171528	-0.044914	0.519527
Zn11	Zn	1.421528	0.205086	0.769527
Zn12	Zn	1.671528	0.455086	1.019527
Zn13	Zn	0.921482	-0.418698	0.382666
Zn14	Zn	1.171482	-0.168698	0.632666
Zn15	Zn	1.421482	0.081302	0.882666
Zn16	Zn	1.671482	0.331302	1.132666
O17	O	0.978086	-0.356814	0.326102
O18	O	1.228086	-0.106814	0.576102
O19	O	1.478086	0.143186	0.826102
O20	O	1.728086	0.393186	1.076102
O21	O	1.129418	-0.311341	0.367694
O22	O	1.379418	-0.061341	0.617694
O23	O	1.629418	0.188659	0.867694
O24	O	1.879418	0.438659	1.117694
O25	O	1.019597	-0.402342	0.174801
O26	O	1.269597	-0.152342	0.424801
O27	O	1.519597	0.097658	0.674801
O28	O	1.769597	0.347658	0.924801
O29	O	0.936601	-0.191280	0.284558
O30	O	1.186601	0.058720	0.534558
O31	O	1.436601	0.308720	0.784558
O32	O	1.686601	0.558720	1.034558
O33	O	1.129348	-0.402328	0.284539
O34	O	1.379348	-0.152328	0.534539
O35	O	1.629348	0.097672	0.784539
O36	O	1.879348	0.347672	1.034539
O37	O	1.019758	-0.191269	0.367705
O38	O	1.269758	0.058731	0.617705
O39	O	1.519758	0.308731	0.867705
O40	O	1.769758	0.558731	1.117705
O41	O	0.936510	-0.311366	0.174809
O42	O	1.186510	-0.061366	0.424809
O43	O	1.436510	0.188634	0.674809
O44	O	1.686510	0.438634	0.924809
O45	O	0.826806	-0.311322	0.284526
O46	O	1.076806	-0.061322	0.534526
O47	O	1.326806	0.188678	0.784526
O48	O	1.576806	0.438678	1.034526
O49	O	0.936523	-0.402251	0.477387
O50	O	1.186523	-0.152251	0.727387
O51	O	1.436523	0.097749	0.977387
O52	O	1.686523	0.347749	1.227387
O53	O	0.826772	-0.402265	0.367649
O54	O	1.076772	-0.152265	0.617649
O55	O	1.326772	0.097735	0.867649
O56	O	1.576772	0.347735	1.117649
O57	O	1.019714	-0.311297	0.477411
O58	O	1.269714	-0.061297	0.727411
O59	O	1.519714	0.188703	0.977411
O60	O	1.769714	0.438703	1.227411
O61	O	1.019553	-0.522370	0.284507
O62	O	1.269553	-0.272370	0.534507
O63	O	1.519553	-0.022370	0.784507
O64	O	1.769553	0.227630	1.034507
O65	O	0.936432	-0.522337	0.367638
O66	O	1.186432	-0.272337	0.617638
O67	O	1.436432	-0.022337	0.867638
O68	O	1.686432	0.227663	1.117638
C69	C	0.802230	-0.356791	0.326086
C70	C	1.052230	-0.106791	0.576086
C71	C	1.302230	0.143209	0.826086
C72	C	1.552230	0.393209	1.076086
C73	C	0.726998	-0.356799	0.326095
C74	C	0.976998	-0.106799	0.576095
C75	C	1.226998	0.143201	0.826095
C76	C	1.476998	0.393201	1.076095
C77	C	0.691690	-0.309505	0.369460
C78	C	0.941690	-0.059505	0.619460
C79	C	1.191690	0.190495	0.869460
C80	C	1.441690	0.440495	1.119460
C81	C	0.621002	-0.309509	0.369462
C82	C	0.871002	-0.059509	0.619462
C83	C	1.121002	0.190491	0.869462
C84	C	1.371002	0.440491	1.119462
C85	C	0.585622	-0.356811	0.326103
C86	C	0.835622	-0.106811	0.576103
C87	C	1.085622	0.143189	0.826103
C88	C	1.335622	0.393189	1.076103
C89	C	0.620935	-0.404106	0.282733
C90	C	0.870935	-0.154106	0.532733
C91	C	1.120935	0.095894	0.782733
C92	C	1.370935	0.345894	1.032733
C93	C	0.691622	-0.404098	0.282728
C94	C	0.941622	-0.154098	0.532728
C95	C	1.191622	0.095902	0.782728
C96	C	1.441622	0.345902	1.032728
C97	C	0.335861	-0.404139	0.282754
C98	C	0.585861	-0.154139	0.532754
C99	C	0.835861	0.095861	0.782754
C100	C	1.085861	0.345861	1.032754
C101	C	0.265169	-0.404146	0.282764
C102	C	0.515169	-0.154146	0.532764
C103	C	0.765169	0.095854	0.782764
C104	C	1.015169	0.345854	1.032764
C105	C	0.265242	-0.309551	0.369488
C106	C	0.515242	-0.059551	0.619488
C107	C	0.765242	0.190449	0.869488
C108	C	1.015242	0.440449	1.119488
C109	C	0.335929	-0.309543	0.369483
C110	C	0.585929	-0.059543	0.619483
C111	C	0.835929	0.190457	0.869483
C112	C	1.085929	0.440457	1.119483
C113	C	0.371235	-0.356835	0.326111
C114	C	0.621235	-0.106835	0.576111
C115	C	0.871235	0.143165	0.826111
C116	C	1.121235	0.393165	1.076111
C117	C	0.447883	-0.356829	0.326108
C118	C	0.697883	-0.106829	0.576108
C119	C	0.947883	0.143171	0.826108
C120	C	1.197883	0.393171	1.076108
C121	C	0.508975	-0.356821	0.326109
C122	C	0.758975	-0.106821	0.576109
C123	C	1.008975	0.143179	0.826109
C124	C	1.258975	0.393179	1.076109
C125	C	0.977995	-0.549225	0.326082
C126	C	1.227995	-0.299225	0.576082
C127	C	1.477995	-0.049225	0.826082
C128	C	1.727995	0.200775	1.076082
C129	C	0.978018	-0.631539	0.326096
C130	C	1.228018	-0.381539	0.576096
C131	C	1.478018	-0.131539	0.826096
C132	C	1.728018	0.118461	1.076096
C133	C	0.978167	-0.930630	0.326133
C134	C	1.228167	-0.680630	0.576133
C135	C	1.478167	-0.430630	0.826133
C136	C	1.728167	-0.180630	1.076133
C137	C	0.925991	-0.899314	0.378566
C138	C	1.175991	-0.649314	0.628566
C139	C	1.425991	-0.399314	0.878566
C140	C	1.675991	-0.149314	1.128566
C141	C	0.925743	-0.813696	0.378402
C142	C	1.175743	-0.563696	0.628402
C143	C	1.425743	-0.313696	0.878402
C144	C	1.675743	-0.063696	1.128402
C145	C	0.978093	-0.782247	0.326115
C146	C	1.228093	-0.532247	0.576115
C147	C	1.478093	-0.282247	0.826115
C148	C	1.728093	-0.032247	1.076115
C149	C	0.958782	-0.813394	0.254781
C150	C	1.208782	-0.563394	0.504781
C151	C	1.458782	-0.313394	0.754781
C152	C	1.708782	-0.063394	1.004781
C153	C	0.958446	-0.899040	0.255095
C154	C	1.208446	-0.649040	0.505095
C155	C	1.458446	-0.399040	0.755095
C156	C	1.708446	-0.149040	1.005095
C157	C	1.049768	-0.898978	0.344405
C158	C	1.299768	-0.648978	0.594405
C159	C	1.549768	-0.398978	0.844405
C160	C	1.799768	-0.148978	1.094405
C161	C	1.049347	-0.813327	0.345970
C162	C	1.299347	-0.563327	0.595970
C163	C	1.549347	-0.313327	0.845970
C164	C	1.799347	-0.063327	1.095970
C165	C	0.978053	-0.698388	0.326101
C166	C	1.228053	-0.448388	0.576101
C167	C	1.478053	-0.198388	0.826101
C168	C	1.728053	0.051612	1.076101
C169	C	0.978206	-1.014489	0.326142
C170	C	1.228206	-0.764489	0.576142
C171	C	1.478206	-0.514489	0.826142
C172	C	1.728206	-0.264489	1.076142
C173	C	1.154629	-0.356838	0.326119
C174	C	1.404629	-0.106838	0.576119
C175	C	1.654629	0.143162	0.826119
C176	C	1.904629	0.393162	1.076119
C177	C	1.229861	-0.356848	0.326126
C178	C	1.479861	-0.106848	0.576126
C179	C	1.729861	0.143152	0.826126
C180	C	1.979861	0.393152	1.076126
C181	C	0.978124	-0.356767	0.502645
C182	C	1.228124	-0.106767	0.752645
C183	C	1.478124	0.143233	1.002645
C184	C	1.728124	0.393233	1.252645
C185	C	0.978140	-0.356747	0.577877
C186	C	1.228140	-0.106747	0.827877
C187	C	1.478140	0.143253	1.077877
C188	C	1.728140	0.393253	1.327877
C189	C	0.978195	-0.163652	0.326137
C190	C	1.228195	0.086348	0.576137
C191	C	1.478195	0.336348	0.826137
C192	C	1.728195	0.586348	1.076137
C193	C	0.978242	-0.081338	0.326152
C194	C	1.228242	0.168662	0.576152
C195	C	1.478242	0.418662	0.826152
C196	C	1.728242	0.668662	1.076152
C197	C	0.978087	-0.356807	0.150246
C198	C	1.228087	-0.106807	0.400246
C199	C	1.478087	0.143193	0.650246
C200	C	1.728087	0.393193	0.900246
C201	C	0.978202	-0.356618	0.075015
C202	C	1.228202	-0.106618	0.325015
C203	C	1.478202	0.143382	0.575015
C204	C	1.728202	0.393382	0.825015
C205	C	1.021458	-0.309385	0.613235
C206	C	1.271458	-0.059385	0.863235
C207	C	1.521458	0.190615	1.113235
C208	C	1.771458	0.440615	1.363235
C209	C	1.021465	-0.309364	0.683923
C210	C	1.271465	-0.059364	0.933923
C211	C	1.521465	0.190636	1.183923
C212	C	1.771465	0.440636	1.433923
C213	C	0.978157	-0.356709	0.719253
C214	C	1.228157	-0.106709	0.969253
C215	C	1.478157	0.143291	1.219253
C216	C	1.728157	0.393291	1.469253
C217	C	0.934834	-0.404073	0.683890
C218	C	1.184834	-0.154073	0.933890
C219	C	1.434834	0.095927	1.183890
C220	C	1.684834	0.345927	1.433890
C221	C	0.934824	-0.404090	0.613203
C222	C	1.184824	-0.154090	0.863203
C223	C	1.434824	0.095910	1.113203
C224	C	1.684824	0.345910	1.363203
C225	C	0.934872	-0.404004	0.968963
C226	C	1.184872	-0.154004	1.218963
C227	C	1.434872	0.095996	1.468963
C228	C	1.684872	0.345996	1.718963
C229	C	0.934887	-0.403985	1.039655
C230	C	1.184887	-0.153985	1.289655
C231	C	1.434887	0.096015	1.539655
C232	C	1.684887	0.346015	1.789655
C233	C	1.021513	-0.309278	1.039684
C234	C	1.271513	-0.059278	1.289684
C235	C	1.521513	0.190722	1.539684
C236	C	1.771513	0.440722	1.789684
C237	C	1.021503	-0.309295	0.968997
C238	C	1.271503	-0.059295	1.218997
C239	C	1.521503	0.190705	1.468997
C240	C	1.771503	0.440705	1.718997
C241	C	0.978178	-0.356656	0.933640
C242	C	1.228178	-0.106656	1.183640
C243	C	1.478178	0.143344	1.433640
C244	C	1.728178	0.393344	1.683640
C245	C	0.978170	-0.356678	0.856992
C246	C	1.228170	-0.106678	1.106992
C247	C	1.478170	0.143322	1.356992
C248	C	1.728170	0.393322	1.606992
C249	C	0.978168	-0.356691	0.795900
C250	C	1.228168	-0.106691	1.045900
C251	C	1.478168	0.143309	1.295900
C252	C	1.728168	0.393309	1.545900
H253	H	0.592123	-0.442616	0.247426
H254	H	0.842123	-0.192616	0.497426
H255	H	1.092123	0.057384	0.747426
H256	H	1.342123	0.307384	0.997426
H257	H	0.720368	-0.442609	0.247415
H258	H	0.970368	-0.192609	0.497415
H259	H	1.220368	0.057391	0.747415
H260	H	1.470368	0.307391	0.997415
Br261	Br	0.217154	-0.468345	0.223915
Br262	Br	0.467154	-0.218345	0.473915
Br263	Br	0.717154	0.031655	0.723915
Br264	Br	0.967154	0.281655	0.973915
H265	H	1.088641	-0.919228	0.306216
H266	H	1.338641	-0.669228	0.556216
H267	H	1.588641	-0.419228	0.806216
H268	H	1.838641	-0.169228	1.056216
H269	H	0.906997	-0.792006	0.239025
H270	H	1.156997	-0.542006	0.489025
H271	H	1.406997	-0.292006	0.739025
H272	H	1.656997	-0.042006	0.989025
H273	H	0.899604	-0.442579	0.940184
H274	H	1.149604	-0.192579	1.190184
H275	H	1.399604	0.057421	1.440184
H276	H	1.649604	0.307421	1.690184
Br277	Br	1.080285	-0.245043	0.921053
Br278	Br	1.330285	0.004957	1.171053
Br279	Br	1.580285	0.254957	1.421053
Br280	Br	1.830285	0.504957	1.671053
Br281	Br	1.080312	-0.244999	1.087672
Br282	Br	1.330312	0.005001	1.337672
Br283	Br	1.580312	0.255001	1.587672
Br284	Br	1.830312	0.505001	1.837672
H285	H	1.056741	-0.270798	0.712709
H286	H	1.306741	-0.020798	0.962709
H287	H	1.556741	0.229202	1.212709
H288	H	1.806741	0.479202	1.462709
Br289	Br	0.876108	-0.468244	1.087602
Br290	Br	1.126108	-0.218244	1.337602
Br291	Br	1.376108	0.031756	1.587602
Br292	Br	1.626108	0.281756	1.837602
Br293	Br	0.876053	-0.468323	0.731836
Br294	Br	1.126053	-0.218323	0.981836
Br295	Br	1.376053	0.031677	1.231836
Br296	Br	1.626053	0.281677	1.481836
Br297	Br	0.945878	-0.778588	0.466562
Br298	Br	1.195878	-0.528588	0.716562
Br299	Br	1.445878	-0.278588	0.966562
Br300	Br	1.695878	-0.028588	1.216562
H301	H	0.899543	-0.442650	0.584415
H302	H	1.149543	-0.192650	0.834415
H303	H	1.399543	0.057350	1.084415
H304	H	1.649543	0.307350	1.334415
H305	H	0.364731	-0.271027	0.404793
H306	H	0.614731	-0.021027	0.654793
H307	H	0.864731	0.228973	0.904793
H308	H	1.114731	0.478973	1.154793
H309	H	0.236487	-0.271040	0.404801
H310	H	0.486487	-0.021040	0.654801
H311	H	0.736487	0.228960	0.904801
H312	H	0.986487	0.478960	1.154801
Br313	Br	0.838072	-0.935307	0.358666
Br314	Br	1.088072	-0.685307	0.608666
Br315	Br	1.338072	-0.435307	0.858666
Br316	Br	1.588072	-0.185307	1.108666
Br317	Br	0.739699	-0.245312	0.428312
Br318	Br	0.989699	0.004688	0.678312
Br319	Br	1.239699	0.254688	0.928312
Br320	Br	1.489699	0.504688	1.178312
H321	H	1.063910	-0.792967	0.398468
H322	H	1.313910	-0.542967	0.648468
H323	H	1.563910	-0.292967	0.898468
H324	H	1.813910	-0.042967	1.148468
Br325	Br	0.383768	-0.468303	0.223875
Br326	Br	0.633768	-0.218303	0.473875
Br327	Br	0.883768	0.031697	0.723875
Br328	Br	1.133768	0.281697	0.973875
H329	H	0.872670	-0.793270	0.366299
H330	H	1.122670	-0.543270	0.616299
H331	H	1.372670	-0.293270	0.866299
H332	H	1.622670	-0.043270	1.116299
Br333	Br	0.573087	-0.245323	0.428318
Br334	Br	0.823087	0.004677	0.678318
Br335	Br	1.073087	0.254677	0.928318
Br336	Br	1.323087	0.504677	1.178318
Br337	Br	0.945923	-0.933567	0.467015
Br338	Br	1.195923	-0.683567	0.717015
Br339	Br	1.445923	-0.433567	0.967015
Br340	Br	1.695923	-0.183567	1.217015
H341	H	0.994801	-0.919757	0.214696
H342	H	1.244801	-0.669757	0.464696
H343	H	1.494801	-0.419757	0.714696
H344	H	1.744801	-0.169757	0.964696
Br345	Br	0.871210	-0.932445	0.229295
Br346	Br	1.121210	-0.682445	0.479295
Br347	Br	1.371210	-0.432445	0.729295
Br348	Br	1.621210	-0.182445	0.979295
H349	H	0.995590	-0.793024	0.214649
H350	H	1.245590	-0.543024	0.464649
H351	H	1.495590	-0.293024	0.714649
H352	H	1.745590	-0.043024	0.964649
H353	H	1.067374	-0.920529	0.395536
H354	H	1.317374	-0.670529	0.645536
H355	H	1.567374	-0.420529	0.895536
H356	H	1.817374	-0.170529	1.145536
Br357	Br	1.080242	-0.245133	0.565295
Br358	Br	1.330242	0.004867	0.815295
Br359	Br	1.580242	0.254867	1.065295
Br360	Br	1.830242	0.504867	1.315295
H361	H	1.090278	-0.791915	0.310563
H362	H	1.340278	-0.541915	0.560563
H363	H	1.590278	-0.291915	0.810563
H364	H	1.840278	-0.041915	1.060563
