data_functionalizedCrystal
_audit_creation_method	'MofGen! by Chris Wilmer'
_symmetry_space_group_name_H-M	'P1'
_symmetry_Int_Tables_number	1
_symmetry_cell_setting	triclinic
loop_
_symmetry_equiv_pos_as_xyz
  x,y,z
_cell_length_a	12.811415
_cell_length_b	23.532355
_cell_length_c	11.892095
_cell_angle_alpha	86.132146
_cell_angle_beta	88.492960
_cell_angle_gamma	83.438749
loop_
_atom_site_label
_atom_site_type_symbol
_atom_site_fract_x
_atom_site_fract_y
_atom_site_fract_z
O1	O	0.119532	0.760063	-0.106100
O2	O	0.137887	0.594369	-0.108018
O3	O	-0.023011	0.680786	-0.091500
O4	O	0.280430	0.673646	-0.122618
O5	O	-0.009616	0.673581	0.095132
O6	O	0.151282	0.587164	0.078615
O7	O	0.132927	0.752857	0.080532
Zn8	Zn	0.144231	0.668867	0.109205
Zn9	Zn	0.126583	0.678360	-0.136691
O10	O	0.293825	0.666441	0.064014
C11	C	0.144125	0.569546	-0.014659
C12	C	0.142745	0.506315	-0.014531
C13	C	0.141381	0.110290	0.088138
C14	C	0.140069	0.050878	0.088277
O15	O	0.145564	0.016812	0.174870
N16	N	0.132117	0.025091	-0.013389
C17	C	0.125466	0.058720	-0.115200
O18	O	0.118580	0.031331	-0.201662
C19	C	0.126770	0.118131	-0.115337
C20	C	0.134734	0.143914	-0.013665
C21	C	0.149343	0.136073	0.189802
C22	C	0.150657	0.195481	0.189662
C23	C	0.144009	0.229105	0.087859
C24	C	0.136048	0.203322	-0.013805
C25	C	0.120112	0.151760	-0.217146
C26	C	0.121417	0.211175	-0.217274
C27	C	0.129380	0.236958	-0.115602
C28	C	0.130714	0.296354	-0.115747
N29	N	0.138667	0.322141	-0.014081
C30	C	0.145314	0.288517	0.087722
C31	C	0.122724	-0.066048	-0.114904
C32	C	0.121427	-0.125459	-0.114769
C33	C	0.136028	-0.133297	0.088708
C34	C	0.137333	-0.073885	0.088571
C35	C	0.130676	-0.040261	-0.013238
C36	C	0.148074	0.413278	0.087421
C37	C	0.149392	0.472691	0.087272
C38	C	0.134785	0.480524	-0.116204
C39	C	0.133473	0.421115	-0.116056
C40	C	0.140114	0.387494	-0.014234
O41	O	0.125219	0.330456	-0.202295
O42	O	0.152185	0.315915	0.174171
C43	C	-0.055127	0.676562	0.005794
C44	C	-0.170779	0.674706	0.017646
C45	C	-0.402695	0.679062	-0.163573
C46	C	-0.511361	0.677318	-0.152443
C47	C	-0.496779	0.669468	0.051036
C48	C	-0.388113	0.671212	0.039906
C49	C	-0.341075	0.676011	-0.067403
C50	C	-0.232408	0.677759	-0.078532
C51	C	-0.217826	0.669905	0.124946
C52	C	-0.326492	0.668161	0.136077
C53	C	0.325941	0.670664	-0.033282
C54	C	0.441593	0.672521	-0.045141
C55	C	0.126689	0.777681	-0.012829
C56	C	0.128069	0.840912	-0.012965
N57	N	0.156275	0.662392	0.277023
N58	N	0.114531	0.684839	-0.304508
C59	C	0.030665	0.729894	0.526566
C60	C	0.039091	0.725372	0.644043
C61	C	0.181547	0.648824	0.629456
C62	C	0.173121	0.653346	0.511979
C63	C	0.097679	0.693883	0.460538
C64	C	0.089258	0.698407	0.343059
C65	C	0.231709	0.621857	0.328475
C66	C	0.240135	0.617335	0.445952
H67	H	0.157135	0.216468	0.272455
H68	H	-0.194113	0.681668	-0.165908
N69	N	0.114597	0.245521	-0.321271
N70	N	0.036102	0.246298	-0.381832
H71	H	0.031286	0.270555	-0.455280
N72	N	0.157533	0.499036	0.191121
N73	N	0.233349	0.526523	0.206210
H74	H	0.239098	0.545129	0.279550
N75	N	-0.046391	0.771293	0.473995
N76	N	-0.053905	0.775323	0.369105
H77	H	-0.108327	0.804562	0.331976
N78	N	0.145439	-0.047552	0.192432
N79	N	0.074340	-0.010494	0.222602
H80	H	0.080062	0.008101	0.295960
N81	N	0.142828	-0.167659	0.192691
N82	N	0.141663	-0.220703	0.192786
H83	H	0.146469	-0.244973	0.266218
N84	N	0.012195	0.739803	0.290493
N85	N	0.004677	0.743836	0.185603
H86	H	-0.049754	0.773071	0.148479
H87	H	-0.364398	0.682974	-0.250948
N88	N	0.154856	0.378931	0.191417
N89	N	0.082305	0.349692	0.221744
H90	H	0.087100	0.325433	0.295189
H91	H	0.129377	0.507911	-0.199090
H92	H	-0.015479	0.754695	0.697800
N93	N	0.113315	-0.151784	-0.218637
N94	N	0.107387	-0.121749	-0.309520
H95	H	0.101654	-0.140338	-0.382882
H96	H	-0.535094	0.665557	0.138402
N97	N	0.258587	0.607418	0.682033
N98	N	0.266088	0.603385	0.786924
H99	H	0.320497	0.574140	0.824058
N100	N	0.115928	-0.031713	-0.218918
N101	N	0.108828	-0.054750	-0.309676
H102	H	0.104025	-0.030503	-0.383137
N103	N	0.156128	0.101741	0.293811
N104	N	0.163232	0.124782	0.384566
H105	H	0.168030	0.100538	0.458030
H106	H	-0.561529	0.679800	-0.230755
H107	H	0.301557	0.584329	0.487849
H108	H	0.113626	0.130778	-0.299938
N109	N	0.125351	0.394783	-0.219920
N110	N	0.119420	0.424815	-0.310808
H111	H	0.113674	0.406223	-0.384164
N112	N	0.300170	0.585079	0.261011
N113	N	0.292647	0.589126	0.156122
H114	H	0.341001	0.563155	0.108473
N115	N	-0.374560	0.663255	0.245675
N116	N	-0.471582	0.661695	0.255601
H117	H	-0.505530	0.658232	0.333006
N118	N	-0.154867	0.666793	0.223178
N119	N	-0.057847	0.668354	0.213229
H120	H	-0.013380	0.666158	0.282603
