data_functionalizedCrystal
_audit_creation_method	'MofGen! by Chris Wilmer'
_symmetry_space_group_name_H-M	'P1'
_symmetry_Int_Tables_number	1
_symmetry_cell_setting	triclinic
loop_
_symmetry_equiv_pos_as_xyz
  x,y,z
_cell_length_a	14.395555
_cell_length_b	18.878441
_cell_length_c	18.878441
_cell_angle_alpha	90.000195
_cell_angle_beta	119.997195
_cell_angle_gamma	120.007616
loop_
_atom_site_label
_atom_site_type_symbol
_atom_site_fract_x
_atom_site_fract_y
_atom_site_fract_z
Zr1	Zr	-1.016798	0.682325	-0.092930
O2	O	-1.210614	0.569198	-0.206033
O3	O	-0.822990	0.717015	-0.058261
O4	O	-1.016801	0.716995	-0.206037
O5	O	-1.016798	0.569223	0.058315
O6	O	-1.016794	0.833567	-0.206036
O7	O	-1.016803	0.569219	-0.058257
O8	O	-0.670102	0.833604	0.058308
O9	O	-1.363490	0.569187	-0.206029
O10	O	-0.902698	0.818794	-0.043471
O11	O	-0.902699	0.731801	0.043525
O12	O	-1.130886	0.731777	-0.130462
O13	O	-1.130887	0.644783	-0.043466
Zr14	Zr	-1.016778	0.868252	0.092990
Zr15	Zr	-1.016787	0.868245	-0.092929
Zr16	Zr	-1.016789	0.682333	0.092989
Zr17	Zr	-1.260617	0.682307	-0.092924
Zr18	Zr	-0.772959	0.868271	0.092984
O19	O	-1.210586	0.833562	0.058321
O20	O	-1.210598	0.833552	-0.206031
O21	O	-1.210601	0.569209	0.058320
O22	O	-0.822962	0.981379	0.206093
O23	O	-0.822975	0.981369	-0.058260
O24	O	-0.822978	0.717025	0.206091
O25	O	-1.016779	0.981354	-0.058255
O26	O	-1.016775	0.833583	0.206097
O27	O	-1.016782	0.717010	0.206096
O28	O	-1.016773	0.981359	0.058317
O29	O	-1.363481	0.716968	-0.206028
O30	O	-0.670095	0.833610	0.206088
O31	O	-0.670087	0.981391	0.206089
O32	O	-0.670093	0.981385	0.058308
O33	O	-1.363483	0.569192	-0.058248
O34	O	-1.363474	0.716974	-0.058248
O35	O	-0.902690	0.818801	0.130522
O36	O	-0.902689	0.905794	0.043526
O37	O	-1.130877	0.818777	-0.043465
O38	O	-1.130878	0.731783	0.043531
C39	C	-0.711807	0.775312	0.000022
C40	C	-0.608300	0.775320	0.000020
C41	C	-0.485813	0.822737	-0.047419
C42	C	-0.623948	0.740940	-0.081802
C43	C	-0.471576	0.857102	0.034363
C44	C	-0.562106	0.693442	-0.034414
C45	C	-0.409661	0.809662	0.081797
C46	C	-0.547786	0.727817	0.047434
C47	C	-0.321768	0.775273	0.000032
C48	C	-0.425272	0.775287	0.000017
C49	C	-1.016802	0.542732	0.000029
C50	C	-1.016807	0.463804	0.000028
C51	C	-1.016799	0.775280	-0.232526
C52	C	-1.016803	0.775277	-0.311454
C53	C	-0.897660	0.169277	0.045439
C54	C	-0.897666	0.243434	0.045434
C55	C	-1.016783	0.235086	0.000027
C56	C	-1.135902	0.152574	-0.045385
C57	C	-1.135895	0.078419	-0.045385
C58	C	-1.135909	0.307140	-0.045380
C59	C	-1.135916	0.381300	-0.045379
C60	C	-0.897680	0.472156	0.045440
C61	C	-0.897672	0.398001	0.045439
C62	C	-1.016792	0.315493	0.000028
C63	C	-1.016774	1.007846	0.000031
C64	C	-1.016770	1.086774	0.000032
C65	C	-1.135913	0.729855	-0.393942
C66	C	-1.135909	0.729863	-0.468100
C67	C	-1.016793	0.775289	-0.459767
C68	C	-0.897673	0.820717	-0.377270
C69	C	-0.897678	0.820713	-0.303114
C70	C	-0.897669	0.820720	-0.531837
C71	C	-0.897663	0.820723	-0.605998
C72	C	-1.135900	0.729870	-0.696823
C73	C	-1.135905	0.729866	-0.622667
C74	C	-1.016785	0.775293	-0.540175
C75	C	-1.016777	0.775298	0.232586
C76	C	-1.016774	0.775301	0.311514
C77	C	-0.711794	1.007870	0.000024
C78	C	-0.608281	1.086805	0.000021
C79	C	-0.711796	0.775321	0.232578
C80	C	-0.608285	0.775332	0.311503
C81	C	-0.711783	1.007878	0.232580
C82	C	-0.608267	1.086817	0.311505
C83	C	-1.321794	0.542699	-0.232520
C84	C	-1.425310	0.463760	-0.311445
C85	C	-1.321783	0.542708	0.000036
C86	C	-1.425295	0.463772	0.000039
C87	C	-1.321780	0.775256	-0.232518
C88	C	-1.425291	0.775246	-0.311443
C89	C	-0.559675	1.078461	-0.045399
C90	C	-0.462428	1.152623	-0.045418
C91	C	-0.413781	1.235127	-0.000012
C92	C	-0.462397	1.243470	0.045410
C93	C	-0.559649	1.169309	0.045424
C94	C	-0.559670	0.820750	0.393986
C95	C	-0.462424	0.820758	0.468152
C96	C	-0.413788	0.775351	0.459832
C97	C	-0.462412	0.729927	0.377340
C98	C	-0.559663	0.729915	0.303177
C99	C	-0.559654	1.169305	0.303158
C100	C	-0.462403	1.243484	0.377310
C101	C	-0.413760	1.235172	0.459807
C102	C	-0.462383	1.152676	0.468152
C103	C	-0.559638	1.078499	0.394002
C104	C	-1.473934	0.381273	-0.303098
C105	C	-1.571215	0.307094	-0.377250
C106	C	-1.619863	0.315405	-0.459747
C107	C	-1.571235	0.397902	-0.468092
C108	C	-1.473962	0.472079	-0.393942
C109	C	-1.473911	0.472116	0.045451
C110	C	-1.571185	0.397955	0.045450
C111	C	-1.619835	0.315450	0.000041
C112	C	-1.571215	0.307108	-0.045377
C113	C	-1.473949	0.381269	-0.045381
C114	C	-1.473897	0.820661	-0.303096
C115	C	-1.571144	0.820668	-0.377247
C116	C	-1.619790	0.775253	-0.459745
C117	C	-1.571175	0.729836	-0.468091
C118	C	-1.473923	0.729835	-0.393940
H119	H	-0.458699	0.862783	-0.087583
Br120	Br	-0.281794	1.335766	-0.000039
Br121	Br	-0.281803	0.775375	0.560493
H122	H	-1.610755	0.404765	0.082438
Br123	Br	-0.736004	0.882390	-0.419883
H124	H	-1.232901	0.692872	-0.629458
H125	H	-0.422798	0.692958	0.370579
H126	H	-1.232912	0.374497	-0.082328
Br127	Br	-1.407981	0.668185	-0.405285
H128	H	-1.698979	0.775261	-0.520116
Br129	Br	-1.407912	0.584078	0.107082
Br130	Br	-0.776650	0.692487	-0.197075
H131	H	-0.800660	0.176085	0.082418
Br132	Br	-1.407977	0.369929	-0.107014
Br133	Br	-1.407899	0.882302	-0.191144
H134	H	-0.599233	0.692933	0.236018
H135	H	-1.232909	0.239960	-0.082363
Br136	Br	-0.736009	0.355404	0.107058
Br137	Br	-1.297564	0.141243	-0.107003
Br138	Br	-0.736012	0.882372	-0.365959
Br139	Br	-0.396359	1.355448	0.107032
H140	H	-0.599245	1.176089	0.235991
Br141	Br	-0.592238	0.660979	0.114549
Br142	Br	-1.751878	0.214727	-0.560373
H143	H	-0.422763	1.145921	0.535332
H144	H	-1.434373	0.539242	-0.400748
H145	H	-0.599259	0.857726	0.400777
H146	H	-1.232892	0.692878	-0.763994
H147	H	-1.610716	0.857650	-0.370435
H148	H	-0.422824	1.310649	0.370500
Br149	Br	-1.637220	0.668198	-0.580059
H150	H	-0.599519	0.624234	-0.063544
H151	H	-1.610856	0.404659	-0.535271
H152	H	-0.318019	0.838747	0.150942
Br153	Br	-0.396453	0.882410	0.580093
Br154	Br	-0.409544	0.972398	0.082777
Br155	Br	-1.637251	0.195130	-0.106997
Br156	Br	-0.736012	0.409331	0.107078
Br157	Br	-1.751841	0.214811	0.000055
Br158	Br	-0.625678	0.966500	-0.107032
H159	H	-1.434330	0.374489	-0.235931
Br160	Br	-0.736022	0.882374	-0.191161
H161	H	-0.800688	0.539338	0.082415
H162	H	-1.232886	0.011241	-0.082362
Br163	Br	-0.281769	1.335851	0.560433
Br164	Br	-1.637188	0.195146	-0.365904
Br165	Br	-1.297566	0.668216	-0.580049
Br166	Br	-0.736003	0.882377	-0.594688
Br167	Br	-1.297581	0.668198	-0.405262
Br168	Br	-0.396468	1.141280	-0.107064
Br169	Br	-0.625595	0.966554	0.405345
Br170	Br	-0.625595	1.180649	0.107077
