data_functionalizedCrystal
_audit_creation_method	'MofGen! by Chris Wilmer'
_symmetry_space_group_name_H-M	'P1'
_symmetry_Int_Tables_number	1
_symmetry_cell_setting	triclinic
loop_
_symmetry_equiv_pos_as_xyz
  x,y,z
_cell_length_a	18.050591
_cell_length_b	18.050589
_cell_length_c	18.050583
_cell_angle_alpha	89.968090
_cell_angle_beta	89.979141
_cell_angle_gamma	90.024669
loop_
_atom_site_label
_atom_site_type_symbol
_atom_site_fract_x
_atom_site_fract_y
_atom_site_fract_z
Zn1	Zn	1.135301	-0.295677	-0.420031
Zn2	Zn	1.135209	-0.419890	-0.295850
Zn3	Zn	1.011117	-0.295710	-0.295845
Zn4	Zn	1.011068	-0.419822	-0.419988
O5	O	1.073174	-0.357774	-0.357929
O6	O	1.239213	-0.312168	-0.403578
O7	O	1.118730	-0.403459	-0.191925
O8	O	1.027650	-0.191781	-0.312334
O9	O	1.239146	-0.403427	-0.312343
O10	O	1.118887	-0.191756	-0.403573
O11	O	1.027561	-0.312225	-0.191921
O12	O	0.907186	-0.312159	-0.312292
O13	O	1.027565	-0.403311	-0.523919
O14	O	0.907150	-0.403344	-0.403500
O15	O	1.118838	-0.312102	-0.523950
O16	O	1.118682	-0.523805	-0.312302
O17	O	1.027476	-0.523755	-0.403506
C18	C	0.880222	-0.357748	-0.357891
C19	C	0.797676	-0.357755	-0.357893
C20	C	0.548848	-0.308118	-0.308412
C21	C	0.598282	-0.290020	-0.376186
C22	C	0.500555	-0.357793	-0.357954
C23	C	0.598204	-0.375836	-0.290153
C24	C	0.646540	-0.357772	-0.357920
C25	C	0.548901	-0.339661	-0.425765
C26	C	0.548819	-0.425508	-0.339686
C27	C	0.598230	-0.407437	-0.407507
C28	C	0.416457	-0.357803	-0.357972
C29	C	0.730637	-0.357763	-0.357910
C30	C	1.073084	-0.550727	-0.357916
C31	C	1.073114	-0.633272	-0.357936
C32	C	1.023565	-0.832723	-0.407515
C33	C	1.005465	-0.882172	-0.339746
C34	C	1.073187	-0.784403	-0.357945
C35	C	1.091322	-0.882035	-0.425722
C36	C	1.073256	-0.930388	-0.357961
C37	C	1.055052	-0.832765	-0.290141
C38	C	1.140940	-0.832624	-0.376162
C39	C	1.122867	-0.882050	-0.308347
C40	C	1.073145	-0.700304	-0.357938
C41	C	1.073297	-1.014484	-0.357961
C42	C	1.266879	-0.357801	-0.357966
C43	C	1.349425	-0.357813	-0.357982
C44	C	1.073207	-0.357695	-0.551634
C45	C	1.073221	-0.357661	-0.634180
C46	C	1.073284	-0.164069	-0.357957
C47	C	1.073331	-0.081523	-0.357969
C48	C	1.122905	-0.308038	-0.833648
C49	C	1.055171	-0.289858	-0.883036
C50	C	1.073250	-0.357649	-0.785311
C51	C	1.141011	-0.375782	-0.883005
C52	C	1.073285	-0.357635	-0.931296
C53	C	1.005481	-0.339433	-0.833611
C54	C	1.091367	-0.425389	-0.833576
C55	C	1.023586	-0.407234	-0.882941
C56	C	1.073231	-0.357655	-0.701212
C57	C	1.073296	-0.357629	-1.015392
C58	C	1.073184	-0.357800	-0.164976
C59	C	1.073314	-0.357624	-0.082431
H60	H	0.619775	-0.449437	-0.449438
H61	H	0.981562	-0.449183	-0.904449
H62	H	1.106634	-0.903678	-0.483034
H63	H	1.039674	-0.811211	-0.232813
Br64	Br	0.634306	-0.401287	-0.194611
Br65	Br	0.512707	-0.238067	-0.238691
Br66	Br	0.910016	-0.918443	-0.314064
H67	H	1.164860	-0.903573	-0.266386
Br68	Br	1.236365	-0.796322	-0.401873
H69	H	0.619995	-0.232744	-0.391637
H70	H	0.527334	-0.324324	-0.483105
Br71	Br	1.192782	-0.238073	-0.797569
H72	H	1.039859	-0.232565	-0.904761
H73	H	0.981539	-0.811063	-0.449375
Br74	Br	0.512576	-0.520942	-0.313915
H75	H	0.948174	-0.324024	-0.812005
Br76	Br	1.116922	-0.520855	-0.797336
Br77	Br	1.236497	-0.401357	-0.919169
