data_functionalizedCrystal
_audit_creation_method	'MofGen! by Chris Wilmer'
_symmetry_space_group_name_H-M	'P1'
_symmetry_Int_Tables_number	1
_symmetry_cell_setting	triclinic
loop_
_symmetry_equiv_pos_as_xyz
  x,y,z
_cell_length_a	14.853569
_cell_length_b	14.853559
_cell_length_c	17.766277
_cell_angle_alpha	89.995835
_cell_angle_beta	89.992614
_cell_angle_gamma	83.633509
loop_
_atom_site_label
_atom_site_type_symbol
_atom_site_fract_x
_atom_site_fract_y
_atom_site_fract_z
O1	O	1.196366	0.117713	-0.062556
O2	O	1.696366	0.617713	0.437444
O3	O	0.933907	0.131733	-0.062565
O4	O	1.433907	0.631733	0.437435
O5	O	1.072151	-0.006508	-0.062559
O6	O	1.572151	0.493492	0.437441
O7	O	1.058122	0.255953	-0.062561
O8	O	1.558122	0.755953	0.437439
O9	O	1.072127	-0.006515	0.062629
O10	O	1.572127	0.493485	0.562629
O11	O	0.933882	0.131726	0.062624
O12	O	1.433882	0.631726	0.562624
O13	O	1.196342	0.117706	0.062633
O14	O	1.696342	0.617706	0.562633
Cu15	Cu	1.065110	0.124715	0.074059
Cu16	Cu	1.565110	0.624715	0.574059
Cu17	Cu	1.065139	0.124723	-0.073991
Cu18	Cu	1.565139	0.624723	0.426009
O19	O	1.058098	0.255946	0.062627
O20	O	1.558098	0.755946	0.562627
C21	C	0.900306	0.131094	0.000028
C22	C	1.400306	0.631094	0.500028
C23	C	0.800222	0.129189	0.000025
C24	C	1.300222	0.629189	0.500025
C25	C	0.763848	0.046178	0.000023
C26	C	1.263848	0.546178	0.500023
C27	C	0.742554	0.210411	0.000030
C28	C	1.242554	0.710411	0.500030
C29	C	0.648520	0.208625	0.000031
C30	C	1.148520	0.708625	0.500031
C31	C	0.612146	0.125614	0.000029
C32	C	1.112146	0.625614	0.500029
C33	C	0.669806	0.044389	0.000026
C34	C	1.169806	0.544389	0.500026
C35	C	0.590853	0.289848	0.000042
C36	C	1.090853	0.789848	0.500042
C37	C	0.496812	0.288065	0.000043
C38	C	0.996812	0.788065	0.500043
C39	C	0.460437	0.205053	0.000036
C40	C	0.960437	0.705053	0.500036
C41	C	0.518103	0.123825	0.000032
C42	C	1.018103	0.623825	0.500032
C43	C	0.481729	0.040813	0.000030
C44	C	0.981729	0.540813	0.500030
C45	C	0.539394	-0.040416	0.000021
C46	C	1.039394	0.459584	0.500021
C47	C	0.633430	-0.038623	0.000019
C48	C	1.133430	0.461377	0.500019
C49	C	0.366401	0.203260	0.000038
C50	C	0.866401	0.703260	0.500038
C51	C	0.387687	0.039024	0.000033
C52	C	0.887687	0.539024	0.500033
C53	C	1.071505	-0.040100	0.000034
C54	C	1.571505	0.459900	0.500034
C55	C	1.069604	-0.140184	0.000029
C56	C	1.569604	0.359816	0.500029
C57	C	1.061554	-0.563355	-0.068211
C58	C	1.561554	-0.063355	0.431789
C59	C	1.061527	-0.563358	0.068274
C60	C	1.561527	-0.063358	0.568274
C61	C	1.063320	-0.469324	0.068275
C62	C	1.563320	0.030676	0.568275
C63	C	1.064229	-0.422302	0.000031
C64	C	1.564229	0.077698	0.500031
C65	C	1.063344	-0.469313	-0.068213
C66	C	1.563344	0.030687	0.431787
C67	C	1.064196	-0.422305	0.136518
C68	C	1.564196	0.077695	0.636518
C69	C	1.065988	-0.328266	0.136521
C70	C	1.565988	0.171734	0.636521
C71	C	1.066904	-0.281243	0.068277
C72	C	1.566904	0.218757	0.568277
C73	C	1.066020	-0.328260	0.000030
C74	C	1.566020	0.171740	0.500030
C75	C	1.066929	-0.281237	-0.068213
C76	C	1.566929	0.218763	0.431787
C77	C	1.066051	-0.328253	-0.136461
C78	C	1.566051	0.171747	0.363539
C79	C	1.064260	-0.422290	-0.136457
C80	C	1.564260	0.077710	0.363543
C81	C	1.068695	-0.187206	0.068273
C82	C	1.568695	0.312794	0.568273
C83	C	1.068719	-0.187195	-0.068215
C84	C	1.568719	0.312805	0.431785
C85	C	1.229943	0.118345	0.000038
C86	C	1.729943	0.618345	0.500038
C87	C	1.330027	0.120249	0.000036
C88	C	1.830027	0.620249	0.500036
C89	C	1.058744	0.289538	0.000033
C90	C	1.558744	0.789538	0.500033
C91	C	1.060645	0.389622	0.000032
C92	C	1.560645	0.889622	0.500032
N93	N	1.065096	0.124708	0.178189
N94	N	1.565096	0.624708	0.678189
N95	N	1.065160	0.124723	-0.178121
N96	N	1.565160	0.624723	0.321879
C97	C	1.126331	0.063526	0.217579
C98	C	1.626331	0.563526	0.717579
C99	C	1.126336	0.063522	0.296380
C100	C	1.626336	0.563522	0.796380
C101	C	1.065115	0.124716	0.335790
C102	C	1.565115	0.624716	0.835790
C103	C	1.003869	0.185903	0.296391
C104	C	1.503869	0.685903	0.796391
C105	C	1.003860	0.185899	0.217591
C106	C	1.503860	0.685899	0.717591
C107	C	1.053403	0.206808	0.460627
C108	C	1.553403	0.706808	0.960627
C109	C	1.053419	0.206813	0.539426
C110	C	1.553419	0.706813	1.039426
C111	C	1.065140	0.124727	0.578836
C112	C	1.565140	0.624727	1.078836
C113	C	1.076863	0.042632	0.539438
C114	C	1.576863	0.542632	1.039438
C115	C	1.076854	0.042629	0.460638
C116	C	1.576854	0.542629	0.960638
C117	C	1.065119	0.124726	0.421236
C118	C	1.565119	0.624726	0.921236
C119	C	1.126383	0.063534	0.703671
C120	C	1.626383	0.563534	1.203671
C121	C	1.126382	0.063529	0.782475
C122	C	1.626382	0.563529	1.282475
C123	C	1.003919	0.185918	0.782484
C124	C	1.503919	0.685918	1.282484
C125	C	1.003916	0.185916	0.703682
C126	C	1.503916	0.685916	1.203682
C127	C	1.065153	0.124725	0.664281
C128	C	1.565153	0.624725	1.164281
H129	H	0.680389	-0.104755	0.000013
H130	H	1.180389	0.395245	0.500013
H131	H	1.069389	-0.148928	0.123839
H132	H	1.569389	0.351072	0.623839
H133	H	1.069464	-0.148916	-0.123788
H134	H	1.569464	0.351084	0.376212
O135	O	1.060601	-0.614061	-0.141817
O136	O	1.560601	-0.114061	0.358183
H137	H	0.999553	-0.588044	-0.174541
H138	H	1.499553	-0.088044	0.325459
O139	O	0.826040	-0.041428	0.000014
O140	O	1.326040	0.458572	0.500014
H141	H	0.784945	-0.099448	0.000008
H142	H	1.284945	0.400552	0.500008
O143	O	0.781779	0.299943	0.000035
O144	O	1.281779	0.799943	0.500035
H145	H	0.856856	0.287541	0.000029
H146	H	1.356856	0.787541	0.500029
H147	H	1.176202	0.013697	0.328457
H148	H	1.676202	0.513697	0.828457
O149	O	1.067024	-0.277534	-0.210067
O150	O	1.567024	0.222466	0.289933
H151	H	1.129237	-0.242650	-0.213331
H152	H	1.629237	0.257350	0.286669
H153	H	0.319454	0.269396	0.000052
H154	H	0.819454	0.769396	0.500052
O155	O	0.630082	0.379377	0.000051
O156	O	1.130082	0.879377	0.500051
H157	H	0.672413	0.384133	-0.050980
H158	H	1.172413	0.884133	0.449020
H159	H	0.449869	0.354207	0.000050
H160	H	0.949869	0.854207	0.500050
H161	H	1.043844	0.273657	0.428545
H162	H	1.543844	0.773657	0.928545
H163	H	0.358079	-0.028574	0.000028
H164	H	0.858079	0.471426	0.500028
H165	H	1.063544	-0.460578	-0.192020
H166	H	1.563544	0.039422	0.307980
H167	H	1.086397	-0.024215	0.428563
H168	H	1.586397	0.475785	0.928563
H169	H	0.954057	0.235740	0.671609
H170	H	1.454057	0.735740	1.171609
H171	H	1.066706	-0.289994	0.192092
H172	H	1.566706	0.210006	0.692092
H173	H	1.060781	-0.601648	0.123835
H174	H	1.560781	-0.101648	0.623835
H175	H	0.954069	0.235740	0.814570
H176	H	1.454069	0.735740	1.314570
H177	H	1.043879	0.273659	0.571498
H178	H	1.543879	0.773659	1.071498
H179	H	1.063451	-0.460597	0.192078
H180	H	1.563451	0.039403	0.692078
O181	O	1.192364	-0.002481	0.175079
O182	O	1.692364	0.497519	0.675079
H183	H	1.234939	-0.045033	0.215713
H184	H	1.734939	0.454967	0.715713
H185	H	1.176244	0.013702	0.814546
H186	H	1.676244	0.513702	1.314546
O187	O	1.089498	-0.045914	0.581930
O188	O	1.589498	0.454086	1.081930
H189	H	1.087523	-0.032125	0.643344
H190	H	1.587523	0.467875	1.143344
O191	O	1.192415	-0.002471	0.661165
O192	O	1.692415	0.497529	1.161165
H193	H	1.234987	-0.045029	0.701797
H194	H	1.734987	0.454971	1.201797
O195	O	0.937844	0.251919	0.338887
O196	O	1.437844	0.751919	0.838887
H197	H	0.893990	0.213900	0.374810
H198	H	1.393990	0.713900	0.874810
O199	O	0.500160	-0.129950	0.000022
O200	O	1.000160	0.370050	0.500022
H201	H	0.425083	-0.117540	0.000025
H202	H	0.925083	0.382460	0.500025
O203	O	0.937819	0.251898	0.175099
O204	O	1.437819	0.751898	0.675099
H205	H	0.895250	0.294455	0.215738
H206	H	1.395250	0.794455	0.715738
