data_functionalizedCrystal
_audit_creation_method	'MofGen! by Chris Wilmer'
_symmetry_space_group_name_H-M	'P1'
_symmetry_Int_Tables_number	1
_symmetry_cell_setting	triclinic
loop_
_symmetry_equiv_pos_as_xyz
  x,y,z
_cell_length_a	23.532407
_cell_length_b	23.532407
_cell_length_c	22.610064
_cell_angle_alpha	90.002995
_cell_angle_beta	90.008651
_cell_angle_gamma	82.848678
loop_
_atom_site_label
_atom_site_type_symbol
_atom_site_fract_x
_atom_site_fract_y
_atom_site_fract_z
O1	O	0.755268	0.069128	0.049117
O2	O	1.255268	0.569128	0.549117
O3	O	0.589405	0.079132	0.049135
O4	O	1.089405	0.579132	0.549135
O5	O	0.677338	-0.008802	0.049114
O6	O	1.177338	0.491198	0.549114
O7	O	0.667335	0.157062	0.049137
O8	O	1.167335	0.657062	0.549137
O9	O	0.677313	-0.008792	-0.049255
O10	O	1.177313	0.491208	0.450745
O11	O	0.589380	0.079142	-0.049234
O12	O	1.089380	0.579142	0.450766
O13	O	0.755243	0.069138	-0.049252
O14	O	1.255243	0.569138	0.450748
Zn15	Zn	0.672308	0.074142	-0.064862
Zn16	Zn	1.172308	0.574142	0.435138
Zn17	Zn	0.672340	0.074128	0.064744
Zn18	Zn	1.172340	0.574128	0.564744
O19	O	0.667310	0.157072	-0.049232
O20	O	1.167310	0.657072	0.450768
C21	C	0.568176	0.078882	-0.000048
C22	C	1.068176	0.578882	0.499952
C23	C	0.504959	0.078116	-0.000041
C24	C	1.004959	0.578116	0.499959
C25	C	0.105856	0.125350	-0.000061
C26	C	0.605856	0.625350	0.499939
C27	C	0.046456	0.124638	-0.000065
C28	C	0.546456	0.624638	0.499935
O29	O	0.009711	0.168424	-0.000081
O30	O	0.509711	0.668424	0.499919
N31	N	0.023830	0.072362	-0.000071
N32	N	0.523830	0.572362	0.499929
C33	C	0.060607	0.020794	-0.000080
C34	C	0.560607	0.520794	0.499920
O35	O	0.035908	-0.023737	-0.000086
O36	O	0.535908	0.476263	0.499914
C37	C	0.120006	0.021506	-0.000080
C38	C	0.620006	0.521506	0.499920
C39	C	0.142629	0.073785	-0.000068
C40	C	0.642629	0.573785	0.499932
C41	C	0.128479	0.177625	-0.000050
C42	C	0.628479	0.677625	0.499950
C43	C	0.187876	0.178336	-0.000045
C44	C	0.687876	0.678336	0.499955
C45	C	0.224649	0.126772	-0.000052
C46	C	0.724649	0.626772	0.499948
C47	C	0.202025	0.074497	-0.000063
C48	C	0.702025	0.574497	0.499937
C49	C	0.156783	-0.030062	-0.000093
C50	C	0.656783	0.469938	0.499907
C51	C	0.216185	-0.029345	-0.000094
C52	C	0.716185	0.470655	0.499906
C53	C	0.238808	0.022934	-0.000082
C54	C	0.738808	0.522934	0.499918
C55	C	0.298194	0.023643	-0.000065
C56	C	0.798194	0.523643	0.499935
N57	N	0.320820	0.075920	-0.000059
N58	N	0.820820	0.575920	0.499941
C59	C	0.284048	0.127484	-0.000052
C60	C	0.784048	0.627484	0.499948
C61	C	-0.064135	0.019302	-0.000080
C62	C	0.435865	0.519302	0.499920
C63	C	-0.123533	0.018589	-0.000075
C64	C	0.376467	0.518589	0.499925
C65	C	-0.137680	0.122434	-0.000061
C66	C	0.362320	0.622434	0.499939
C67	C	-0.078281	0.123146	-0.000062
C68	C	0.421719	0.623146	0.499938
C69	C	-0.041509	0.071578	-0.000074
C70	C	0.458491	0.571578	0.499926
C71	C	0.408784	0.128974	-0.000042
C72	C	0.908784	0.628974	0.499958
C73	C	0.468186	0.129680	-0.000034
C74	C	0.968186	0.629680	0.499966
C75	C	0.482329	0.025836	-0.000051
C76	C	0.982329	0.525836	0.499949
C77	C	0.422932	0.025129	-0.000055
C78	C	0.922932	0.525129	0.499945
C79	C	0.386160	0.076702	-0.000052
C80	C	0.886160	0.576702	0.499948
O81	O	0.334974	-0.020119	-0.000052
O82	O	0.834974	0.479881	0.499948
O83	O	0.308755	0.172007	-0.000054
O84	O	0.808755	0.672007	0.499946
C85	C	0.677071	-0.030013	-0.000072
C86	C	1.177071	0.469987	0.499928
C87	C	0.676305	-0.093230	-0.000076
C88	C	1.176305	0.406770	0.499924
C89	C	0.723539	-0.492333	-0.000049
C90	C	1.223539	0.007667	0.499951
C91	C	0.722827	-0.551733	-0.000044
C92	C	1.222827	-0.051733	0.499956
O93	O	0.766613	-0.588478	-0.000027
O94	O	1.266613	-0.088478	0.499973
N95	N	0.670551	-0.574359	-0.000039
N96	N	1.170551	-0.074359	0.499961
C97	C	0.618983	-0.537582	-0.000032
C98	C	1.118983	-0.037582	0.499968
O99	O	0.574452	-0.562281	-0.000027
O100	O	1.074452	-0.062281	0.499973
C101	C	0.619695	-0.478182	-0.000033
C102	C	1.119695	0.021818	0.499967
C103	C	0.671974	-0.455560	-0.000044
C104	C	1.171974	0.044440	0.499956
C105	C	0.775814	-0.469710	-0.000060
C106	C	1.275814	0.030290	0.499940
C107	C	0.776525	-0.410313	-0.000065
C108	C	1.276525	0.089687	0.499935
C109	C	0.724961	-0.373540	-0.000060
C110	C	1.224961	0.126460	0.499940
C111	C	0.672685	-0.396164	-0.000050
C112	C	1.172685	0.103836	0.499950
C113	C	0.568127	-0.441406	-0.000022
C114	C	1.068127	0.058594	0.499978
C115	C	0.568844	-0.382004	-0.000021
C116	C	1.068844	0.117996	0.499979
C117	C	0.621123	-0.359381	-0.000033
C118	C	1.121123	0.140619	0.499967
C119	C	0.621832	-0.299995	-0.000050
C120	C	1.121832	0.200005	0.499950
N121	N	0.674109	-0.277368	-0.000056
N122	N	1.174109	0.222632	0.499944
C123	C	0.725673	-0.314141	-0.000061
C124	C	1.225673	0.185859	0.499939
C125	C	0.617491	-0.662324	-0.000031
C126	C	1.117491	-0.162324	0.499969
C127	C	0.616778	-0.721722	-0.000034
C128	C	1.116778	-0.221722	0.499966
C129	C	0.720623	-0.735869	-0.000045
C130	C	1.220623	-0.235869	0.499955
C131	C	0.721335	-0.676470	-0.000046
C132	C	1.221335	-0.176470	0.499954
C133	C	0.669767	-0.639698	-0.000036
C134	C	1.169767	-0.139698	0.499964
C135	C	0.727163	-0.189405	-0.000073
C136	C	1.227163	0.310595	0.499927
C137	C	0.727869	-0.130003	-0.000081
C138	C	1.227869	0.369997	0.499919
C139	C	0.624025	-0.115860	-0.000067
C140	C	1.124025	0.384140	0.499933
C141	C	0.623318	-0.175257	-0.000062
C142	C	1.123318	0.324743	0.499938
C143	C	0.674891	-0.212029	-0.000063
C144	C	1.174891	0.287971	0.499937
O145	O	0.578070	-0.263215	-0.000065
O146	O	1.078070	0.236785	0.499935
O147	O	0.770196	-0.289433	-0.000058
O148	O	1.270196	0.210567	0.499942
C149	C	0.776472	0.069388	-0.000069
C150	C	1.276472	0.569388	0.499931
C151	C	0.839689	0.070154	-0.000071
C152	C	1.339689	0.570154	0.499929
C153	C	0.667577	0.178283	-0.000045
C154	C	1.167577	0.678283	0.499955
C155	C	0.668343	0.241500	-0.000036
C156	C	1.168343	0.741500	0.499964
N157	N	0.672290	0.074150	-0.153314
N158	N	1.172290	0.574150	0.346686
C159	C	0.637982	0.039758	-0.438156
C160	C	1.137982	0.539758	0.061844
C161	C	0.637977	0.039761	-0.376236
C162	C	1.137977	0.539761	0.123764
O163	O	0.608784	0.010521	-0.344213
O164	O	1.108784	0.510521	0.155787
N165	N	0.672313	0.074132	-0.345266
N166	N	1.172313	0.574132	0.154734
C167	C	0.706662	0.108498	-0.376219
C168	C	1.206662	0.608498	0.123781
O169	O	0.735868	0.137734	-0.344191
O170	O	1.235868	0.637734	0.155809
C171	C	0.706670	0.108492	-0.438138
C172	C	1.206670	0.608492	0.061862
C173	C	0.672327	0.074123	-0.469105
C174	C	1.172327	0.574123	0.030895
C175	C	0.603642	0.005391	-0.469123
C176	C	1.103642	0.505391	0.030877
C177	C	0.603647	0.005389	-0.531039
C178	C	1.103647	0.505389	-0.031039
C179	C	0.637992	0.039754	-0.561988
C180	C	1.137992	0.539754	-0.061988
C181	C	0.672332	0.074121	-0.531021
C182	C	1.172332	0.574121	-0.031021
C183	C	0.741022	0.142855	-0.469090
C184	C	1.241022	0.642855	0.030910
C185	C	0.741027	0.142846	-0.531013
C186	C	1.241027	0.642846	-0.031013
C187	C	0.706684	0.108476	-0.561980
C188	C	1.206684	0.608476	-0.061980
C189	C	0.706681	0.108484	-0.623885
C190	C	1.206681	0.608484	-0.123885
N191	N	0.672345	0.074113	-0.654855
N192	N	1.172345	0.574113	-0.154855
C193	C	0.638000	0.039748	-0.623906
C194	C	1.138000	0.539748	-0.123906
C195	C	0.706643	0.108508	-0.246186
C196	C	1.206643	0.608508	0.253814
C197	C	0.706632	0.108518	-0.184268
C198	C	1.206632	0.608518	0.315732
C199	C	0.637948	0.039779	-0.184289
C200	C	1.137948	0.539779	0.315711
C201	C	0.637956	0.039773	-0.246208
C202	C	1.137956	0.539773	0.253792
C203	C	0.672307	0.074137	-0.277156
C204	C	1.172307	0.574137	0.222844
C205	C	0.638012	0.039747	-0.753934
C206	C	1.138012	0.539747	-0.253934
C207	C	0.638018	0.039750	-0.815855
C208	C	1.138018	0.539750	-0.315855
C209	C	0.706705	0.108486	-0.815828
C210	C	1.206705	0.608486	-0.315828
C211	C	0.706697	0.108486	-0.753912
C212	C	1.206697	0.608486	-0.253912
C213	C	0.672349	0.074112	-0.722967
C214	C	1.172349	0.574112	-0.222967
O215	O	0.735861	0.137707	-0.655948
O216	O	1.235861	0.637707	-0.155948
O217	O	0.608804	0.010512	-0.655942
O218	O	1.108804	0.510512	-0.155942
N219	N	0.672363	0.074115	0.153196
N220	N	1.172363	0.574115	0.653196
H221	H	0.098544	0.219617	-0.000046
H222	H	0.598544	0.719617	0.499954
H223	H	0.378851	0.170970	-0.000041
H224	H	0.878851	0.670970	0.499959
H225	H	0.609990	0.011787	-0.271417
H226	H	1.109990	0.511787	0.228583
H227	H	0.734654	0.136480	-0.728698
H228	H	1.234654	0.636480	-0.228698
H229	H	0.575496	-0.632386	-0.000028
H230	H	1.075496	-0.132386	0.499972
H231	H	0.609982	0.011797	-0.159080
H232	H	1.109982	0.511797	0.340920
C233	C	0.832540	-0.510151	-0.000070
C234	C	1.332540	-0.010151	0.499930
H235	H	0.863770	-0.488162	-0.000081
H236	H	1.363770	0.011838	0.499919
H237	H	0.834440	-0.533620	0.034231
H238	H	1.334440	-0.033620	0.534231
H239	H	0.834412	-0.533614	-0.034380
H240	H	1.334412	-0.033614	0.465620
C241	C	-0.148412	-0.038918	-0.000083
C242	C	0.351588	0.461082	0.499917
H243	H	-0.117999	-0.069523	-0.000090
H244	H	0.382001	0.430477	0.499910
H245	H	-0.171286	-0.041362	0.034218
H246	H	0.328714	0.458638	0.534218
H247	H	-0.171290	-0.041352	-0.034393
H248	H	0.328710	0.458648	0.465607
H249	H	0.525555	-0.459814	-0.000009
H250	H	1.025555	0.040186	0.499991
C251	C	0.783892	-0.229845	-0.000079
C252	C	1.283892	0.270155	0.499921
H253	H	0.815123	-0.207856	-0.000092
H254	H	1.315123	0.292144	0.499908
H255	H	0.785790	-0.253310	0.034224
H256	H	1.285790	0.246690	0.534224
H257	H	0.785765	-0.253311	-0.034387
H258	H	1.285765	0.246689	0.465613
H259	H	0.246123	-0.071339	-0.000104
H260	H	0.746123	0.428661	0.499896
H261	H	0.582043	-0.085909	-0.000065
H262	H	1.082043	0.414091	0.499935
C263	C	0.212753	0.235844	-0.000043
C264	C	0.712753	0.735844	0.499957
H265	H	0.182339	0.266448	-0.000047
H266	H	0.682339	0.766448	0.499953
H267	H	0.235637	0.238287	0.034258
H268	H	0.735637	0.738287	0.534258
H269	H	0.235622	0.238282	-0.034353
H270	H	0.735622	0.738282	0.465647
C271	C	0.744407	0.146327	-0.150211
C272	C	1.244407	0.646327	0.349789
H273	H	0.764863	0.166788	-0.177517
H274	H	1.264863	0.666788	0.322483
H275	H	0.720922	0.172659	-0.126060
H276	H	1.220922	0.672659	0.373940
H277	H	0.770752	0.122853	-0.126053
H278	H	1.270752	0.622853	0.373947
C279	C	0.778842	-0.651591	-0.000053
C280	C	1.278842	-0.151591	0.499947
H281	H	0.809447	-0.682003	-0.000052
H282	H	1.309447	-0.182003	0.499948
H283	H	0.781273	-0.628712	-0.034355
H284	H	1.281273	-0.128712	0.465645
H285	H	0.781289	-0.628716	0.034257
H286	H	1.281289	-0.128716	0.534257
C287	C	-0.053402	0.180653	-0.000054
C288	C	0.446598	0.680653	0.499946
H289	H	-0.083814	0.211258	-0.000052
H290	H	0.416186	0.711258	0.499948
H291	H	-0.030517	0.183089	0.034248
H292	H	0.469483	0.683089	0.534248
H293	H	-0.030533	0.183095	-0.034363
H294	H	0.469467	0.683095	0.465637
C295	C	-0.178136	0.179156	-0.000058
C296	C	0.321864	0.679156	0.499942
H297	H	-0.156159	0.210396	-0.000049
H298	H	0.343841	0.710396	0.499951
H299	H	-0.201606	0.181036	-0.034362
H300	H	0.298394	0.681036	0.465638
H301	H	-0.201596	0.181031	0.034249
H302	H	0.298404	0.681031	0.534249
H303	H	-0.034198	-0.022693	-0.000084
H304	H	0.465802	0.477307	0.499916
H305	H	0.768989	0.170841	-0.443888
H306	H	1.268989	0.670841	0.056112
H307	H	0.486602	0.172255	-0.000024
H308	H	0.986602	0.672255	0.499976
C309	C	0.131911	-0.087571	-0.000114
C310	C	0.631911	0.412429	0.499886
H311	H	0.162326	-0.118173	-0.000127
H312	H	0.662326	0.381827	0.499873
H313	H	0.109037	-0.090023	0.034185
H314	H	0.609037	0.409977	0.534185
H315	H	0.109033	-0.090000	-0.034426
H316	H	0.609033	0.410000	0.465574
C317	C	0.834033	-0.385436	-0.000066
C318	C	1.334033	0.114564	0.499934
H319	H	0.864637	-0.415850	-0.000062
H320	H	1.364637	0.084150	0.499938
H321	H	0.836470	-0.362559	-0.034368
H322	H	1.336470	0.137441	0.465632
H323	H	0.836477	-0.362561	0.034243
H324	H	1.336477	0.137439	0.534243
C325	C	0.778810	0.180650	-0.565052
C326	C	1.278810	0.680650	-0.065052
H327	H	0.799257	0.201121	-0.537737
H328	H	1.299257	0.701121	-0.037737
H329	H	0.805155	0.157181	-0.589202
H330	H	1.305155	0.657181	-0.089202
H331	H	0.755322	0.206983	-0.589209
H332	H	1.255322	0.706983	-0.089209
H333	H	0.404512	-0.017441	-0.000056
H334	H	0.904512	0.482559	0.499944
C335	C	0.600241	0.001943	-0.849918
C336	C	1.100241	0.501943	-0.349918
H337	H	0.605156	0.006865	-0.891228
H338	H	1.105156	0.506865	-0.391228
H339	H	0.611043	-0.037078	-0.839768
H340	H	1.111043	0.462922	-0.339768
H341	H	0.561213	0.012727	-0.839777
H342	H	1.061213	0.512727	-0.339777
C343	C	0.512117	-0.341557	-0.000013
C344	C	1.012117	0.158443	0.499987
H345	H	0.480883	-0.363542	-0.000010
H346	H	0.980883	0.136458	0.499990
H347	H	0.510244	-0.318087	0.034288
H348	H	1.010244	0.181913	0.534288
H349	H	0.510225	-0.318096	-0.034323
H350	H	1.010225	0.181904	0.465677
H351	H	0.512280	-0.016146	-0.000054
H352	H	1.012280	0.483854	0.499946
C353	C	0.785379	-0.105121	-0.000090
C354	C	1.285379	0.394879	0.499910
H355	H	0.815986	-0.135532	-0.000086
H356	H	1.315986	0.364468	0.499914
H357	H	0.787810	-0.082247	-0.034395
H358	H	1.287810	0.417753	0.465605
H359	H	0.787824	-0.082242	0.034216
H360	H	1.287824	0.417758	0.534216
H361	H	0.580748	-0.193677	-0.000069
H362	H	1.080748	0.306323	0.499931
H363	H	0.610043	0.011757	-0.728745
H364	H	1.110043	0.511757	-0.228745
H365	H	0.734614	0.136497	-0.271380
H366	H	1.234614	0.636497	0.228620
C367	C	0.777344	-0.776327	-0.000040
C368	C	1.277344	-0.276327	0.499960
H369	H	0.769428	-0.814942	-0.000030
H370	H	1.269428	-0.314942	0.499970
H371	H	0.798793	-0.769509	-0.034343
H372	H	1.298793	-0.269509	0.465657
H373	H	0.798797	-0.769497	0.034268
H374	H	1.298797	-0.269497	0.534268
H375	H	0.574207	-0.740136	-0.000035
H376	H	1.074207	-0.240136	0.499965
C377	C	0.565875	-0.032421	-0.565097
C378	C	1.065875	0.467579	-0.065097
H379	H	0.570790	-0.027504	-0.606408
H380	H	1.070790	0.472496	-0.106408
H381	H	0.576680	-0.071440	-0.554942
H382	H	1.076680	0.428560	-0.054942
H383	H	0.526846	-0.021638	-0.554957
H384	H	1.026846	0.478362	-0.054957
C385	C	0.565856	-0.032410	-0.435089
C386	C	1.065856	0.467590	0.064911
H387	H	0.545406	-0.052872	-0.462408
H388	H	1.045406	0.447128	0.037592
H389	H	0.589331	-0.058742	-0.410924
H390	H	1.089331	0.441258	0.089076
H391	H	0.539505	-0.008932	-0.410947
H392	H	1.039505	0.491068	0.089053
C393	C	0.744485	0.146281	-0.849880
C394	C	1.244485	0.646281	-0.349880
H395	H	0.739572	0.141349	-0.891190
H396	H	1.239572	0.641349	-0.391190
H397	H	0.733688	0.185306	-0.839740
H398	H	1.233688	0.685306	-0.339740
H399	H	0.783511	0.135493	-0.839723
H400	H	1.283511	0.635493	-0.339723
