data_functionalizedCrystal
_audit_creation_method	'MofGen! by Chris Wilmer'
_symmetry_space_group_name_H-M	'P1'
_symmetry_Int_Tables_number	1
_symmetry_cell_setting	triclinic
loop_
_symmetry_equiv_pos_as_xyz
  x,y,z
_cell_length_a	14.971482
_cell_length_b	10.723023
_cell_length_c	14.048226
_cell_angle_alpha	89.994597
_cell_angle_beta	89.994098
_cell_angle_gamma	84.040078
loop_
_atom_site_label
_atom_site_type_symbol
_atom_site_fract_x
_atom_site_fract_y
_atom_site_fract_z
O1	O	1.187822	0.162594	-0.079146
O2	O	0.927526	0.182073	-0.079151
O3	O	1.063678	-0.009306	-0.079144
O4	O	1.051669	0.353973	-0.079152
O5	O	1.063662	-0.009317	0.079177
O6	O	0.927509	0.182061	0.079171
O7	O	1.187805	0.162583	0.079175
Zn8	Zn	1.057655	0.172320	0.104310
Zn9	Zn	1.057676	0.172335	-0.104285
O10	O	1.051653	0.353961	0.079169
C11	C	0.894188	0.181197	0.000010
C12	C	0.794877	0.178589	0.000008
C13	C	0.748216	0.177354	0.086310
C14	C	0.654905	0.174884	0.086311
C15	C	0.608254	0.173657	0.000009
C16	C	0.654921	0.174888	-0.086300
C17	C	0.748232	0.177349	-0.086300
C18	C	0.460432	0.169761	-0.086293
C19	C	0.367114	0.167301	-0.086294
C20	C	0.367105	0.167295	0.086317
C21	C	0.460415	0.169757	0.086317
C22	C	0.507076	0.170990	0.000008
C23	C	1.062796	-0.055802	0.000015
C24	C	1.060182	-0.194329	0.000012
C25	C	1.059025	-0.256076	-0.082004
C26	C	1.056323	-0.399251	-0.082009
C27	C	1.221143	0.163459	0.000013
C28	C	1.320454	0.166067	0.000008
C29	C	1.052535	0.400458	0.000007
C30	C	1.055149	0.538984	0.000004
N31	N	1.057646	0.172310	0.246671
N32	N	1.057692	0.172336	-0.246646
C33	C	1.117954	0.087602	0.296491
C34	C	1.117960	0.087602	0.396149
C35	C	1.057662	0.172315	0.445984
C36	C	0.997348	0.257026	0.396156
C37	C	0.997338	0.257020	0.296500
C38	C	0.997374	0.257036	0.603871
C39	C	0.997384	0.257044	0.703533
C40	C	1.117995	0.087617	0.703519
C41	C	1.117986	0.087611	0.603863
C42	C	1.057672	0.172324	0.554042
H43	H	0.498420	0.170765	-0.156575
C44	C	1.184332	-0.005576	0.758318
H45	H	1.175695	0.006546	0.824806
H46	H	1.244107	0.008111	0.741974
H47	H	1.174103	-0.088883	0.741992
H48	H	0.786222	0.178357	-0.156576
H49	H	1.055333	-0.452353	-0.152227
C50	C	1.060390	-0.184318	-0.176863
H51	H	1.059309	-0.241623	-0.228320
H52	H	1.113417	-0.142972	-0.180398
H53	H	1.009272	-0.124100	-0.180400
C54	C	0.931004	0.350198	0.241693
H55	H	0.939627	0.338054	0.175205
H56	H	0.941223	0.433504	0.258011
H57	H	0.871227	0.336499	0.258042
H58	H	0.786192	0.178364	0.156587
H59	H	0.498395	0.170763	0.156592
H60	H	0.948257	0.326014	0.563310
H61	H	0.616920	0.173858	0.156587
H62	H	1.056148	-0.407923	0.070225
H63	H	1.059166	-0.247460	0.070226
H64	H	0.948247	0.325998	0.436738
C65	C	1.184281	-0.005586	0.241681
H66	H	1.220193	-0.056042	0.285630
H67	H	1.221785	0.039381	0.202790
H68	H	1.151779	-0.057611	0.202822
C69	C	0.931001	0.350147	0.758351
H70	H	0.895055	0.400564	0.714408
H71	H	0.963440	0.402201	0.797243
H72	H	0.893525	0.305083	0.797209
C73	C	1.184307	-0.005565	0.450948
H74	H	1.220226	-0.056004	0.406995
H75	H	1.151829	-0.057590	0.489839
H76	H	1.221814	0.039430	0.489807
C77	C	0.315734	0.166493	0.181254
H78	H	0.253467	0.165007	0.168897
H79	H	0.324776	0.239781	0.216435
H80	H	0.337242	0.094345	0.216992
H81	H	0.329134	0.166303	-0.156568
H82	H	1.167089	0.018637	0.563288
C83	C	0.603611	0.173558	-0.181232
H84	H	0.644767	0.174641	-0.232631
H85	H	0.560837	0.245316	-0.184814
H86	H	0.573584	0.099885	-0.184827
