data_functionalizedCrystal
_audit_creation_method	'MofGen! by Chris Wilmer'
_symmetry_space_group_name_H-M	'P1'
_symmetry_Int_Tables_number	1
_symmetry_cell_setting	triclinic
loop_
_symmetry_equiv_pos_as_xyz
  x,y,z
_cell_length_a	12.837942
_cell_length_b	12.837943
_cell_length_c	11.295483
_cell_angle_alpha	94.538773
_cell_angle_beta	94.530417
_cell_angle_gamma	85.171060
loop_
_atom_site_label
_atom_site_type_symbol
_atom_site_fract_x
_atom_site_fract_y
_atom_site_fract_z
O1	O	0.265788	-1.408689	-0.099003
O2	O	0.252345	-1.105556	-0.099010
O3	O	0.107500	-1.250401	-0.098999
O4	O	0.410633	-1.263845	-0.099013
O5	O	0.120201	-1.237676	0.099051
O6	O	0.265045	-1.092832	0.099040
O7	O	0.278489	-1.395965	0.099047
Cu8	Cu	0.272927	-1.243237	0.117127
Cu9	Cu	0.257907	-1.258285	-0.117090
O10	O	0.423333	-1.251121	0.099037
C11	C	0.254153	-1.060125	0.000014
C12	C	0.240609	-0.943710	0.000012
C13	C	0.074781	-1.239497	0.000025
C14	C	-0.041634	-1.225953	0.000023
C15	C	0.276680	-1.441396	0.000021
C16	C	0.290224	-1.557812	0.000015
C17	C	-0.266509	-1.388784	0.000002
C18	C	-0.375892	-1.376062	-0.000000
C19	C	-0.369784	-1.187791	0.000008
C20	C	-0.260402	-1.200512	0.000010
C21	C	-0.208768	-1.301011	0.000009
C22	C	-0.099383	-1.313731	0.000020
C23	C	-0.093278	-1.125461	0.000019
C24	C	-0.202660	-1.112740	0.000017
C25	C	0.456052	-1.262024	0.000010
C26	C	0.572467	-1.275569	0.000004
N27	N	0.283491	-1.232661	0.281863
C28	C	0.403439	-0.718835	0.000021
C29	C	0.390717	-0.609453	0.000020
C30	C	0.202446	-0.615561	0.000016
C31	C	0.215167	-0.724943	0.000017
C32	C	0.315667	-0.776576	0.000018
C33	C	0.328387	-0.885961	0.000011
C34	C	0.140117	-0.892066	0.000016
C35	C	0.127396	-0.782684	0.000015
N36	N	0.247335	-1.268868	-0.281825
C37	C	0.171231	-1.344996	0.531161
C38	C	0.179223	-1.337012	0.655824
C39	C	0.307459	-1.208702	0.655854
C40	C	0.299467	-1.216687	0.531191
C41	C	0.231353	-1.284837	0.468849
C42	C	0.223367	-1.292826	0.344183
C43	C	0.351597	-1.164512	0.344216
C44	C	0.359589	-1.156528	0.468879
H45	H	-0.057344	-1.395563	0.000023
H46	H	0.400555	-1.115530	0.293468
N47	N	0.149880	-1.366305	0.276942
H48	H	0.153934	-1.362233	0.188512
H49	H	0.170724	-1.440374	0.298706
N50	N	0.094066	-0.559844	0.000021
H51	H	0.050413	-0.584918	-0.073396
H52	H	0.059917	-0.575512	0.073487
H53	H	0.115777	-1.400494	0.480401
H54	H	-0.224468	-1.470613	0.000013
H55	H	-0.244716	-1.030916	0.000013
H56	H	-0.046252	-1.053990	0.000034
N57	N	0.045439	-0.954344	0.000001
H58	H	0.068744	-1.031473	-0.000003
H59	H	0.006808	-0.931847	0.073417
N60	N	0.114388	-1.401906	0.723034
H61	H	0.070031	-1.446291	0.664620
H62	H	0.162387	-1.448830	0.774738
H63	H	0.045572	-0.740628	0.000028
N64	N	0.511830	-0.774526	0.000015
H65	H	0.526015	-0.815058	0.073431
H66	H	0.516523	-0.824432	-0.073451
N67	N	0.485387	-0.547170	0.000069
H68	H	0.550980	-0.596480	0.000084
H69	H	0.479531	-0.506353	-0.073337
H70	H	0.362909	-1.153209	0.706630
H71	H	-0.411844	-1.105969	-0.000004
N72	N	-0.438173	-1.470730	-0.000010
H73	H	-0.388861	-1.536322	-0.000011
H74	H	-0.478984	-1.464839	0.073409
N75	N	0.436776	-0.941657	0.000002
H76	H	0.490448	-0.888476	0.000006
H77	H	0.450861	-0.982194	0.073420
N78	N	0.433047	-1.083021	0.536123
H79	H	0.428986	-1.087088	0.624552
H80	H	0.507115	-1.103848	0.514331
