data_functionalizedCrystal
_audit_creation_method	'MofGen! by Chris Wilmer'
_symmetry_space_group_name_H-M	'P1'
_symmetry_Int_Tables_number	1
_symmetry_cell_setting	triclinic
loop_
_symmetry_equiv_pos_as_xyz
  x,y,z
_cell_length_a	11.026607
_cell_length_b	14.519731
_cell_length_c	10.065918
_cell_angle_alpha	99.802130
_cell_angle_beta	97.708363
_cell_angle_gamma	96.137435
loop_
_atom_site_label
_atom_site_type_symbol
_atom_site_fract_x
_atom_site_fract_y
_atom_site_fract_z
O1	O	1.627001	0.401010	0.113514
O2	O	1.960334	0.734344	0.446847
O3	O	2.293667	1.067677	0.780181
O4	O	1.273595	0.357020	0.113514
O5	O	1.606928	0.690353	0.446847
O6	O	1.940261	1.023686	0.780180
O7	O	1.459652	0.246318	0.113502
O8	O	1.792986	0.579651	0.446835
O9	O	2.126319	0.912985	0.780168
O10	O	1.440943	0.511712	0.113526
O11	O	1.774276	0.845046	0.446860
O12	O	2.107609	1.178379	0.780193
O13	O	1.427721	0.216945	-0.113489
O14	O	1.761055	0.550278	0.219844
O15	O	2.094388	0.883611	0.553177
O16	O	1.241664	0.327646	-0.113477
O17	O	1.574997	0.660980	0.219856
O18	O	1.908330	0.994313	0.553190
O19	O	1.595070	0.371637	-0.113477
O20	O	1.928403	0.704970	0.219857
O21	O	2.261736	1.038304	0.553190
Zn22	Zn	1.413297	0.344978	-0.149516
Zn23	Zn	1.746630	0.678311	0.183817
Zn24	Zn	2.079964	1.011645	0.517150
Zn25	Zn	1.455367	0.383679	0.149554
Zn26	Zn	1.788701	0.717012	0.482887
Zn27	Zn	2.122034	1.050345	0.816220
O28	O	1.409012	0.482339	-0.113464
O29	O	1.742345	0.815672	0.219869
O30	O	2.075678	1.149005	0.553202
C31	C	1.212400	0.334217	0.000018
C32	C	1.545733	0.667551	0.333352
C33	C	1.879066	1.000884	0.666685
C34	C	1.077631	0.310025	0.000018
C35	C	1.410964	0.643358	0.333351
C36	C	1.744297	0.976691	0.666684
C37	C	1.003978	0.376826	0.000025
C38	C	1.337311	0.710159	0.333358
C39	C	1.670644	1.043492	0.666692
C40	C	0.864687	0.351823	0.000024
C41	C	1.198020	0.685156	0.333358
C42	C	1.531353	1.018490	0.666691
C43	C	1.442810	0.197127	0.000006
C44	C	1.776143	0.530461	0.333339
C45	C	2.109477	0.863794	0.666673
C46	C	1.440182	0.094314	0.000005
C47	C	1.773516	0.427647	0.333338
C48	C	2.106849	0.760981	0.666672
C49	C	1.438048	0.010819	0.000008
C50	C	1.771381	0.344152	0.333342
C51	C	2.104715	0.677485	0.666675
C52	C	1.435382	-0.093928	0.000019
C53	C	1.768715	0.239405	0.333352
C54	C	2.102048	0.572738	0.666685
C55	C	1.433266	-0.177415	0.000027
C56	C	1.766599	0.155918	0.333361
C57	C	2.099932	0.489252	0.666694
C58	C	1.430599	-0.282169	0.000035
C59	C	1.763933	0.051164	0.333369
C60	C	2.097266	0.384498	0.666702
C61	C	1.656265	0.394440	0.000022
C62	C	1.989598	0.727773	0.333355
C63	C	2.322932	1.061106	0.666689
C64	C	1.791035	0.418634	0.000031
C65	C	2.124368	0.751967	0.333365
C66	C	2.457702	1.085300	0.666698
C67	C	1.425855	0.531530	0.000034
C68	C	1.759188	0.864863	0.333368
C69	C	2.092521	1.198197	0.666701
C70	C	1.428483	0.634344	0.000044
C71	C	1.761817	0.967678	0.333377
C72	C	2.095150	1.301011	0.666711
N73	N	1.384594	0.318567	-0.353624
N74	N	1.717927	0.651900	-0.020290
N75	N	2.051260	0.985233	0.313043
C76	C	1.445373	0.374488	-0.421399
C77	C	1.778706	0.707822	-0.088066
C78	C	2.112039	1.041155	0.245268
C79	C	1.423292	0.354154	-0.578568
C80	C	1.756626	0.687488	-0.245234
C81	C	2.089959	1.020821	0.088099
N82	N	1.484080	0.410084	0.353661
N83	N	1.817413	0.743418	0.686994
N84	N	2.150747	1.076751	1.020328
H85	H	0.831091	0.494339	0.000029
H86	H	1.164424	0.827672	0.333363
H87	H	1.497757	1.161005	0.666696
Cl88	Cl	0.802846	0.234937	0.000004
Cl89	Cl	1.136179	0.568270	0.333337
Cl90	Cl	1.469513	0.901603	0.666670
Cl91	Cl	1.065822	0.493705	0.000032
Cl92	Cl	1.399155	0.827038	0.333365
Cl93	Cl	1.732489	1.160372	0.666699
H94	H	1.316215	0.255634	-0.411956
H95	H	1.649549	0.588968	-0.078622
H96	H	1.982882	0.922301	0.254711
Cl97	Cl	1.015784	0.193143	-0.000003
Cl98	Cl	1.349118	0.526477	0.333330
Cl99	Cl	1.682451	0.859810	0.666664
Cl100	Cl	1.317716	0.256983	-0.668610
Cl101	Cl	1.651049	0.590316	-0.335277
Cl102	Cl	1.984382	0.923650	-0.001944
H103	H	1.513759	0.437416	-0.363067
H104	H	1.847092	0.770749	-0.029734
H105	H	2.180426	1.104082	0.303600
H106	H	1.552469	0.473018	-0.588014
H107	H	1.885802	0.806351	-0.254681
H108	H	2.219136	1.139684	0.078652
