data_functionalizedCrystal
_audit_creation_method	'MofGen! by Chris Wilmer'
_symmetry_space_group_name_H-M	'P1'
_symmetry_Int_Tables_number	1
_symmetry_cell_setting	triclinic
loop_
_symmetry_equiv_pos_as_xyz
  x,y,z
_cell_length_a	19.288840
_cell_length_b	14.044220
_cell_length_c	18.366186
_cell_angle_alpha	89.993222
_cell_angle_beta	89.983729
_cell_angle_gamma	88.157446
loop_
_atom_site_label
_atom_site_type_symbol
_atom_site_fract_x
_atom_site_fract_y
_atom_site_fract_z
O1	O	0.928952	0.118100	-0.060674
O2	O	1.262285	0.451434	0.272659
O3	O	1.595619	0.784767	0.605992
O4	O	0.727715	0.134072	-0.060649
O5	O	1.061049	0.467405	0.272684
O6	O	1.394382	0.800739	0.606017
O7	O	0.825313	-0.011885	-0.060654
O8	O	1.158646	0.321448	0.272679
O9	O	1.491980	0.654782	0.606012
O10	O	0.831354	0.264058	-0.060669
O11	O	1.164688	0.597391	0.272664
O12	O	1.498021	0.930724	0.605997
O13	O	0.825295	-0.011892	0.060445
O14	O	1.158628	0.321441	0.393778
O15	O	1.491961	0.654774	0.727112
O16	O	0.727697	0.134065	0.060450
O17	O	1.061030	0.467398	0.393783
O18	O	1.394363	0.800732	0.727117
O19	O	0.928933	0.118093	0.060425
O20	O	1.262267	0.451427	0.393758
O21	O	1.595600	0.784760	0.727092
Zn22	Zn	0.828312	0.126078	0.079665
Zn23	Zn	1.161645	0.459411	0.412998
Zn24	Zn	1.494979	0.792745	0.746331
Zn25	Zn	0.828337	0.126087	-0.079889
Zn26	Zn	1.161670	0.459421	0.253444
Zn27	Zn	1.495003	0.792754	0.586778
O28	O	0.831336	0.264050	0.060430
O29	O	1.164669	0.597384	0.393763
O30	O	1.498002	0.930717	0.727097
C31	C	0.701796	0.133559	-0.000096
C32	C	1.035130	0.466892	0.333237
C33	C	1.368463	0.800225	0.666570
C34	C	0.624594	0.132028	-0.000087
C35	C	0.957927	0.465361	0.333247
C36	C	1.291260	0.798694	0.666580
C37	C	0.588353	0.131296	-0.066100
C38	C	0.921686	0.464630	0.267234
C39	C	1.255020	0.797963	0.600567
C40	C	0.515813	0.129847	-0.066109
C41	C	0.849146	0.463181	0.267225
C42	C	1.182480	0.796514	0.600558
C43	C	0.479517	0.129111	-0.000101
C44	C	0.812850	0.462444	0.333233
C45	C	1.146184	0.795777	0.666566
C46	C	0.515766	0.129848	0.065921
C47	C	0.849099	0.463181	0.399255
C48	C	1.182433	0.796515	0.732588
C49	C	0.588304	0.131306	0.065928
C50	C	0.921638	0.464640	0.399261
C51	C	1.254971	0.797973	0.732595
C52	C	0.366467	0.071292	0.050464
C53	C	0.699800	0.404626	0.383797
C54	C	1.033133	0.737959	0.717130
C55	C	0.293930	0.069828	0.050454
C56	C	0.627263	0.403161	0.383787
C57	C	0.960597	0.736495	0.717121
C58	C	0.255785	0.124617	-0.000119
C59	C	0.589118	0.457950	0.333214
C60	C	0.922451	0.791283	0.666547
C61	C	0.290185	0.180858	-0.050695
C62	C	0.623519	0.514191	0.282638
C63	C	0.956852	0.847524	0.615971
C64	C	0.362724	0.182316	-0.050688
C65	C	0.696057	0.515649	0.282645
C66	C	1.029390	0.848983	0.615978
C67	C	0.400861	0.127530	-0.000101
C68	C	0.734195	0.460863	0.333233
C69	C	1.067528	0.794197	0.666566
C70	C	0.140888	0.122316	-0.066147
C71	C	0.474221	0.455649	0.267187
C72	C	0.807554	0.788982	0.600520
C73	C	0.068346	0.120872	-0.066153
C74	C	0.401679	0.454206	0.267181
C75	C	0.735013	0.787539	0.600514
C76	C	0.068301	0.120863	0.065879
C77	C	0.401635	0.454197	0.399212
C78	C	0.734968	0.787530	0.732546
C79	C	0.140841	0.122316	0.065883
C80	C	0.474174	0.455649	0.399217
C81	C	0.807508	0.788983	0.732550
C82	C	0.177130	0.123037	-0.000132
C83	C	0.510463	0.456371	0.333202
C84	C	0.843797	0.789704	0.666535
C85	C	0.822659	-0.047191	-0.000104
C86	C	1.155993	0.286142	0.333229
C87	C	1.489326	0.619475	0.666563
C88	C	0.814772	-0.152383	-0.000102
C89	C	1.148105	0.180951	0.333231
C90	C	1.481438	0.514284	0.666565
C91	C	0.800351	-0.344981	-0.000111
C92	C	1.133684	-0.011647	0.333223
C93	C	1.467018	0.321686	0.666556
C94	C	0.856295	-0.402860	-0.000120
C95	C	1.189628	-0.069526	0.333213
C96	C	1.522961	0.263807	0.666547
C97	C	0.848271	-0.510028	-0.000125
C98	C	1.181604	-0.176694	0.333209
C99	C	1.514937	0.156639	0.666542
C100	C	0.808374	-0.237802	-0.000106
C101	C	1.141707	0.095531	0.333227
C102	C	1.475040	0.428864	0.666561
C103	C	0.954852	0.118607	-0.000129
C104	C	1.288186	0.451940	0.333204
C105	C	1.621519	0.785273	0.666537
C106	C	1.032055	0.120138	-0.000144
C107	C	1.365389	0.453471	0.333189
C108	C	1.698722	0.786804	0.666523
C109	C	0.833989	0.299357	-0.000122
C110	C	1.167323	0.632690	0.333211
C111	C	1.500656	0.966023	0.666545
C112	C	0.841877	0.404548	-0.000129
C113	C	1.175210	0.737881	0.333205
C114	C	1.508544	1.071215	0.666538
N115	N	0.828300	0.126071	0.188556
N116	N	1.161634	0.459404	0.521889
N117	N	1.494967	0.792738	0.855222
N118	N	0.828353	0.126087	-0.188780
N119	N	1.161687	0.459420	0.144553
N120	N	1.495020	0.792754	0.477887
C121	C	0.871534	0.061473	0.226654
C122	C	1.204868	0.394806	0.559987
C123	C	1.538201	0.728139	0.893321
C124	C	0.871538	0.061469	0.302882
C125	C	1.204872	0.394802	0.636215
C126	C	1.538205	0.728135	0.969549
C127	C	0.828316	0.126079	0.341009
C128	C	1.161650	0.459412	0.674342
C129	C	1.494983	0.792745	1.007675
C130	C	0.785074	0.190682	0.302901
C131	C	1.118407	0.524015	0.636234
C132	C	1.451741	0.857349	0.969568
C133	C	0.785066	0.190678	0.226675
C134	C	1.118399	0.524011	0.560008
C135	C	1.451733	0.857345	0.893341
C136	C	0.824566	0.212423	0.461765
C137	C	1.157899	0.545756	0.795098
C138	C	1.491233	0.879089	1.128431
C139	C	0.824579	0.212428	0.537990
C140	C	1.157912	0.545761	0.871323
C141	C	1.491245	0.879094	1.204656
C142	C	0.828337	0.126091	0.576116
C143	C	1.161670	0.459424	0.909449
C144	C	1.495004	0.792757	1.242783
C145	C	0.832097	0.039745	0.538008
C146	C	1.165430	0.373078	0.871341
C147	C	1.498763	0.706411	1.204675
C148	C	0.832089	0.039741	0.461782
C149	C	1.165422	0.373074	0.795115
C150	C	1.498755	0.706407	1.128448
C151	C	0.828320	0.126090	0.423663
C152	C	1.161653	0.459423	0.756997
C153	C	1.494987	0.792756	1.090330
C154	C	0.871577	0.061483	0.696869
C155	C	1.204911	0.394816	1.030203
C156	C	1.538244	0.728149	1.363536
C157	C	0.871577	0.061477	0.773098
C158	C	1.204910	0.394810	1.106432
C159	C	1.538243	0.728144	1.439765
C160	C	0.785116	0.190699	0.773116
C161	C	1.118449	0.524032	1.106450
C162	C	1.451783	0.857365	1.439783
C163	C	0.785113	0.190696	0.696888
C164	C	1.118446	0.524029	1.030222
C165	C	1.451780	0.857363	1.363555
C166	C	0.828347	0.126089	0.658770
C167	C	1.161681	0.459422	0.992103
C168	C	1.495014	0.792756	1.325436
H169	H	0.617895	0.131884	-0.119854
H170	H	0.951228	0.465217	0.213479
H171	H	1.284562	0.798550	0.546812
F172	F	0.926774	-0.362429	-0.000123
F173	F	1.260107	-0.029096	0.333210
F174	F	1.593440	0.304237	0.666544
F175	F	0.399333	0.242172	-0.104511
F176	F	0.732666	0.575506	0.228822
F177	F	1.065999	0.908839	0.562155
F178	F	0.836084	-0.052152	0.421227
F179	F	1.169418	0.281181	0.754560
F180	F	1.502751	0.614515	1.087894
F181	F	0.729877	-0.385411	-0.000106
F182	F	1.063210	-0.052078	0.333227
F183	F	1.396543	0.281255	0.666561
F184	F	0.820582	0.304324	0.578540
F185	F	1.153915	0.637657	0.911873
F186	F	1.487249	0.970990	1.245207
F187	F	0.917545	-0.007290	0.186087
F188	F	1.250878	0.326043	0.519420
F189	F	1.584211	0.659377	0.852753
H190	H	0.821494	0.282733	0.430729
H191	H	1.154827	0.616067	0.764062
H192	H	1.488160	0.949400	1.097395
F193	F	0.739071	0.259442	0.343479
F194	F	1.072405	0.592775	0.676812
F195	F	1.405738	0.926109	1.010145
H196	H	0.259129	0.225476	-0.091875
H197	H	0.592462	0.558809	0.241459
H198	H	0.925795	0.892142	0.574792
H199	H	0.749911	0.243302	0.665867
H200	H	1.083244	0.576635	0.999200
H201	H	1.416578	0.909968	1.332533
H202	H	0.906746	0.008863	0.333907
H203	H	1.240079	0.342196	0.667241
H204	H	1.573412	0.675530	1.000574
H205	H	0.170435	0.122913	-0.119900
H206	H	0.503769	0.456246	0.213434
H207	H	0.837102	0.789580	0.546767
F208	F	0.739049	0.259435	0.186126
F209	F	1.072382	0.592769	0.519459
F210	F	1.405716	0.926102	0.852793
F211	F	0.029776	0.120101	-0.136417
F212	F	0.363109	0.453435	0.196916
F213	F	0.696443	0.786768	0.530250
H214	H	0.835156	-0.030559	0.569049
H215	H	1.168490	0.302774	0.902382
H216	H	1.501823	0.636107	1.235715
H217	H	0.486300	0.129253	-0.119866
H218	H	0.819633	0.462586	0.213467
H219	H	1.152967	0.795920	0.546801
H220	H	0.397519	0.026674	0.091650
H221	H	0.730852	0.360008	0.424984
H222	H	1.064186	0.693341	0.758317
F223	F	0.179413	0.123090	0.136144
F224	F	0.512746	0.456423	0.469478
F225	F	0.846079	0.789756	0.802811
H226	H	0.906779	0.008873	0.665832
H227	H	1.240113	0.342206	0.999165
H228	H	1.573446	0.675539	1.332498
F229	F	0.917590	-0.007285	0.813647
F230	F	1.250923	0.326048	1.146980
F231	F	1.584256	0.659381	1.480314
F232	F	0.739111	0.259456	0.813690
F233	F	1.072445	0.592789	1.147023
F234	F	1.405778	0.926122	1.480356
H235	H	0.265927	0.024029	0.091633
H236	H	0.599260	0.357362	0.424966
H237	H	0.932593	0.690696	0.758299
F238	F	0.029677	0.120088	0.136130
F239	F	0.363010	0.453421	0.469464
F240	F	0.696344	0.786754	0.802797
H241	H	0.486209	0.129250	0.119665
H242	H	0.819543	0.462584	0.452999
H243	H	1.152876	0.795917	0.786332
F244	F	0.626876	0.132085	0.136191
F245	F	0.960209	0.465418	0.469525
F246	F	1.293542	0.798752	0.802858
