data_functionalizedCrystal
_audit_creation_method	'MofGen! by Chris Wilmer'
_symmetry_space_group_name_H-M	'P1'
_symmetry_Int_Tables_number	1
_symmetry_cell_setting	triclinic
loop_
_symmetry_equiv_pos_as_xyz
  x,y,z
_cell_length_a	10.654545
_cell_length_b	11.792254
_cell_length_c	10.868271
_cell_angle_alpha	90.001586
_cell_angle_beta	90.003913
_cell_angle_gamma	84.340838
loop_
_atom_site_label
_atom_site_type_symbol
_atom_site_fract_x
_atom_site_fract_y
_atom_site_fract_z
O1	O	1.667402	0.159389	0.102311
O2	O	1.917402	0.409389	0.352311
O3	O	2.167402	0.659389	0.602311
O4	O	2.417402	0.909389	0.852311
O5	O	1.301881	0.174583	0.102316
O6	O	1.551881	0.424583	0.352316
O7	O	1.801881	0.674583	0.602316
O8	O	2.051881	0.924583	0.852316
O9	O	1.493503	0.001837	0.102304
O10	O	1.743503	0.251837	0.352304
O11	O	1.993503	0.501837	0.602304
O12	O	2.243503	0.751837	0.852304
O13	O	1.475779	0.332135	0.102322
O14	O	1.725779	0.582135	0.352322
O15	O	1.975779	0.832135	0.602322
O16	O	2.225779	1.082135	0.852322
O17	O	1.493486	0.001842	-0.102340
O18	O	1.743486	0.251842	0.147660
O19	O	1.993486	0.501842	0.397660
O20	O	2.243486	0.751842	0.647660
O21	O	1.301863	0.174588	-0.102329
O22	O	1.551863	0.424588	0.147671
O23	O	1.801863	0.674588	0.397671
O24	O	2.051863	0.924588	0.647671
O25	O	1.667385	0.159395	-0.102334
O26	O	1.917385	0.409395	0.147666
O27	O	2.167385	0.659395	0.397666
O28	O	2.417385	0.909395	0.647666
Zn29	Zn	1.484621	0.166992	-0.134823
Zn30	Zn	1.734621	0.416992	0.115177
Zn31	Zn	1.984621	0.666992	0.365177
Zn32	Zn	2.234621	0.916992	0.615177
Zn33	Zn	1.484644	0.166985	0.134805
Zn34	Zn	1.734644	0.416985	0.384805
Zn35	Zn	1.984644	0.666985	0.634805
Zn36	Zn	2.234644	0.916985	0.884805
O37	O	1.475762	0.332141	-0.102323
O38	O	1.725762	0.582141	0.147677
O39	O	1.975762	0.832141	0.397677
O40	O	2.225762	1.082141	0.647677
C41	C	1.255077	0.173471	-0.000006
C42	C	1.505077	0.423471	0.249994
C43	C	1.755077	0.673471	0.499994
C44	C	2.005077	0.923471	0.749994
C45	C	1.115643	0.170137	-0.000004
C46	C	1.365643	0.420137	0.249996
C47	C	1.615643	0.670137	0.499996
C48	C	1.865643	0.920137	0.749996
C49	C	1.050133	0.168570	-0.111557
C50	C	1.300133	0.418570	0.138443
C51	C	1.550133	0.668570	0.388443
C52	C	1.800133	0.918570	0.638443
C53	C	0.919122	0.165418	-0.111557
C54	C	1.169122	0.415418	0.138443
C55	C	1.419122	0.665418	0.388443
C56	C	1.669122	0.915418	0.638443
C57	C	0.919142	0.165404	0.111558
C58	C	1.169142	0.415404	0.361558
C59	C	1.419142	0.665404	0.611558
C60	C	1.669142	0.915404	0.861558
C61	C	1.050151	0.168548	0.111557
C62	C	1.300151	0.418548	0.361557
C63	C	1.550151	0.668548	0.611557
C64	C	1.800151	0.918548	0.861557
C65	C	1.492378	-0.040454	-0.000018
C66	C	1.742378	0.209546	0.249982
C67	C	1.992378	0.459546	0.499982
C68	C	2.242378	0.709546	0.749982
C69	C	1.489036	-0.166474	-0.000016
C70	C	1.739036	0.083526	0.249984
C71	C	1.989036	0.333526	0.499984
C72	C	2.239036	0.583526	0.749984
C73	C	1.486321	-0.268817	-0.000012
C74	C	1.736321	-0.018817	0.249988
C75	C	1.986321	0.231183	0.499988
C76	C	2.236321	0.481183	0.749988
C77	C	1.482926	-0.397212	-0.000001
C78	C	1.732926	-0.147212	0.249999
C79	C	1.982926	0.102788	0.499999
C80	C	2.232926	0.352788	0.749999
C81	C	1.714188	0.160506	-0.000010
C82	C	1.964188	0.410506	0.249990
C83	C	2.214188	0.660506	0.499990
C84	C	2.464188	0.910506	0.749990
C85	C	1.853623	0.163841	-0.000003
C86	C	2.103623	0.413841	0.249997
C87	C	2.353623	0.663841	0.499997
C88	C	2.603623	0.913841	0.749997
C89	C	1.476887	0.374431	0.000002
C90	C	1.726887	0.624431	0.250002
C91	C	1.976887	0.874431	0.500002
C92	C	2.226887	1.124431	0.750002
C93	C	1.480229	0.500452	0.000009
C94	C	1.730229	0.750452	0.250009
C95	C	1.980229	1.000452	0.500009
C96	C	2.230229	1.250452	0.750009
N97	N	1.484615	0.166997	-0.318837
N98	N	1.734615	0.416997	-0.068837
N99	N	1.984615	0.666997	0.181163
N100	N	2.234615	0.916997	0.431163
C101	C	1.484624	0.166997	-0.430175
C102	C	1.734624	0.416997	-0.180175
C103	C	1.984624	0.666997	0.069825
C104	C	2.234624	0.916997	0.319825
C105	C	1.484641	0.166987	-0.569852
C106	C	1.734641	0.416987	-0.319852
C107	C	1.984641	0.666987	-0.069852
C108	C	2.234641	0.916987	0.180148
N109	N	1.484660	0.166972	0.318819
N110	N	1.734660	0.416972	0.568819
N111	N	1.984660	0.666972	0.818819
N112	N	2.234660	0.916972	1.068819
H113	H	0.865790	0.164143	-0.202394
H114	H	1.115790	0.414143	0.047606
H115	H	1.365790	0.664143	0.297606
H116	H	1.615790	0.914143	0.547606
H117	H	0.865803	0.164112	0.202387
H118	H	1.115803	0.414112	0.452387
H119	H	1.365803	0.664112	0.702387
H120	H	1.615803	0.914112	0.952387
H121	H	1.103452	0.169863	-0.202397
H122	H	1.353452	0.419863	0.047603
H123	H	1.603452	0.669863	0.297603
H124	H	1.853452	0.919863	0.547603
C125	C	1.122217	0.170265	0.234280
C126	C	1.372217	0.420265	0.484280
C127	C	1.622217	0.670265	0.734280
C128	C	1.872217	0.920265	0.984280
N129	N	1.176498	0.171553	0.326711
N130	N	1.426498	0.421553	0.576711
N131	N	1.676498	0.671553	0.826711
N132	N	1.926498	0.921553	1.076711
