data_functionalizedCrystal
_audit_creation_method	'MofGen! by Chris Wilmer'
_symmetry_space_group_name_H-M	'P1'
_symmetry_Int_Tables_number	1
_symmetry_cell_setting	triclinic
loop_
_symmetry_equiv_pos_as_xyz
  x,y,z
_cell_length_a	14.560438
_cell_length_b	14.560438
_cell_length_c	14.560438
_cell_angle_alpha	60.000905
_cell_angle_beta	90.001034
_cell_angle_gamma	60.000378
loop_
_atom_site_label
_atom_site_type_symbol
_atom_site_fract_x
_atom_site_fract_y
_atom_site_fract_z
Zr1	Zr	0.884752	1.005292	-0.120514
O2	O	0.738102	1.196892	-0.267158
O3	O	0.929707	0.813691	-0.075562
O4	O	0.929703	1.005295	-0.267163
O5	O	0.738110	1.005286	0.075584
O6	O	1.080841	1.005297	-0.267164
O7	O	0.738107	1.005288	-0.075557
O8	O	1.080849	0.662553	0.075575
O9	O	0.738102	1.348030	-0.267155
O10	O	1.061673	0.892501	-0.056388
O11	O	0.948884	0.892497	0.056407
O12	O	0.948878	1.118086	-0.169178
O13	O	0.836088	1.118082	-0.056382
Zr14	Zr	1.125806	1.005292	0.120537
Zr15	Zr	1.125800	1.005296	-0.120515
Zr16	Zr	0.884758	1.005288	0.120538
Zr17	Zr	0.884752	1.246339	-0.120509
Zr18	Zr	1.125805	0.764244	0.120532
O19	O	1.080850	1.196892	0.075585
O20	O	1.080841	1.196898	-0.267160
O21	O	0.738111	1.196887	0.075587
O22	O	1.272455	0.813691	0.267181
O23	O	1.272447	0.813697	-0.075564
O24	O	0.929716	0.813685	0.267183
O25	O	1.272447	1.005297	-0.075561
O26	O	1.080855	1.005288	0.267186
O27	O	0.929716	1.005286	0.267187
O28	O	1.272451	1.005295	0.075580
O29	O	0.929703	1.348034	-0.267156
O30	O	1.080854	0.662550	0.267179
O31	O	1.272455	0.662553	0.267178
O32	O	1.272450	0.662556	0.075573
O33	O	0.738107	1.348027	-0.075551
O34	O	0.929708	1.348030	-0.075552
O35	O	1.061679	0.892497	0.169201
O36	O	1.174469	0.892501	0.056405
O37	O	1.061674	1.118086	-0.056384
O38	O	0.948884	1.118082	0.056411
C39	C	0.703764	1.005287	0.000014
C40	C	0.601433	1.005285	0.000014
C41	C	1.005278	0.703778	0.000006
C42	C	1.005278	0.601447	0.000004
C43	C	0.612233	0.887534	0.058885
C44	C	0.516078	0.887540	0.058886
C45	C	0.398327	1.123059	-0.058864
C46	C	0.494481	1.123051	-0.058858
C47	C	1.064151	0.553373	-0.058874
C48	C	1.064155	0.457213	-0.058864
C49	C	0.946405	0.457215	0.058905
C50	C	0.946408	0.553366	0.058900
C51	C	1.306793	1.005297	0.000009
C52	C	1.409124	1.005299	0.000009
C53	C	1.005271	1.005297	-0.301508
C54	C	1.005268	1.005299	-0.403841
C55	C	1.005279	1.306806	0.000017
C56	C	1.005279	1.409137	0.000019
C57	C	0.946392	1.123049	-0.510792
C58	C	0.946405	1.123043	-0.606941
C59	C	1.064173	0.887525	-0.489174
C60	C	1.064166	0.887532	-0.393027
C61	C	1.005286	1.005287	0.301531
C62	C	1.005289	1.005285	0.403864
C63	C	1.306793	0.703783	0.000004
C64	C	1.409124	0.601454	0.000001
C65	C	1.005286	0.703773	0.301525
C66	C	1.005288	0.601440	0.403856
C67	C	1.306800	0.703778	0.301523
C68	C	1.409134	0.601447	0.403853
C69	C	0.703757	1.306806	-0.301500
C70	C	0.601424	1.409137	-0.403830
C71	C	0.703765	1.306800	0.000019
C72	C	0.601434	1.409130	0.000022
C73	C	1.005272	1.306811	-0.301502
C74	C	1.005269	1.409143	-0.403833
C75	C	1.398324	0.553377	-0.058875
C76	C	1.494478	0.457235	-0.058881
C77	C	1.612230	0.457253	0.058873
C78	C	1.516076	0.553399	0.058872
C79	C	1.064166	0.553362	0.510809
C80	C	1.064156	0.457219	0.606956
C81	C	0.946387	0.457236	0.489184
C82	C	0.946392	0.553384	0.393039
C83	C	1.516086	0.553371	0.393053
C84	C	1.612235	0.457229	0.489207
C85	C	1.494467	0.457242	0.606958
C86	C	1.398320	0.553390	0.510805
H87	H	0.699314	0.791641	0.106835
C88	C	1.128937	0.757990	-0.275370
N89	N	1.177722	0.660423	-0.186752
C90	C	1.482589	0.404349	-0.123644
N91	N	1.473631	0.364516	-0.172426
H92	H	1.699320	0.418113	0.106806
H93	H	1.524878	0.592547	0.106816
C94	C	1.128945	0.606229	0.522712
N95	N	1.177734	0.646050	0.531683
H96	H	1.524896	0.592499	0.305972
H97	H	0.311237	1.218940	-0.106797
C98	C	1.128933	0.404331	0.724604
N99	N	1.177728	0.364495	0.813219
C100	C	0.881614	1.252595	-0.522692
N101	N	0.832826	1.350174	-0.531660
C102	C	0.881620	0.606272	0.275381
N103	N	0.832834	0.646108	0.186762
C104	C	0.881640	0.404327	0.123676
N105	N	0.832854	0.364497	0.172459
H106	H	0.898438	0.418095	0.480391
H107	H	0.898463	1.218928	-0.694022
H108	H	0.898466	0.592506	0.106851
H109	H	0.524881	0.791655	0.106826
H110	H	0.485679	1.218944	-0.106795
H111	H	1.112088	0.592516	-0.106829
H112	H	1.112096	0.418072	-0.106806
H113	H	1.112124	0.791644	-0.480383
H114	H	1.311229	0.592537	0.519608
H115	H	1.311242	0.592512	-0.106823
H116	H	1.699318	0.418090	0.480406
H117	H	1.485677	0.418100	0.694048
