data_functionalizedCrystal
_audit_creation_method	'MofGen! by Chris Wilmer'
_symmetry_space_group_name_H-M	'P1'
_symmetry_Int_Tables_number	1
_symmetry_cell_setting	triclinic
loop_
_symmetry_equiv_pos_as_xyz
  x,y,z
_cell_length_a	14.853567
_cell_length_b	16.109301
_cell_length_c	13.330367
_cell_angle_alpha	90.006067
_cell_angle_beta	90.004582
_cell_angle_gamma	83.548206
loop_
_atom_site_label
_atom_site_type_symbol
_atom_site_fract_x
_atom_site_fract_y
_atom_site_fract_z
O1	O	-1.196190	-0.108547	-0.083358
O2	O	-0.933709	-0.121478	-0.083375
O3	O	-1.072160	0.006009	-0.083356
O4	O	-1.057738	-0.236033	-0.083377
O5	O	-1.072140	0.006011	0.083491
O6	O	-0.933689	-0.121475	0.083472
O7	O	-1.196169	-0.108544	0.083490
Cu8	Cu	-1.064927	-0.115009	0.098715
Cu9	Cu	-1.064951	-0.115013	-0.098601
O10	O	-1.057718	-0.236030	0.083470
C11	C	-1.071566	0.036986	0.000068
C12	C	-1.069814	0.129284	0.000070
C13	C	-0.900111	-0.120890	0.000046
C14	C	-0.800030	-0.119135	0.000040
C15	C	-1.229767	-0.109131	0.000066
C16	C	-1.329848	-0.110887	0.000066
C17	C	-0.387634	-0.035983	0.000070
C18	C	-0.366102	-0.187440	0.000055
C19	C	-0.460133	-0.189090	0.000052
C20	C	-0.517919	-0.114187	0.000056
C21	C	-0.481674	-0.037632	0.000063
C22	C	-0.496386	-0.265644	0.000034
C23	C	-0.590422	-0.267298	0.000030
C24	C	-0.648210	-0.192393	0.000041
C25	C	-0.611959	-0.115835	0.000050
C26	C	-0.669745	-0.040931	0.000054
C27	C	-0.633496	0.035628	0.000069
C28	C	-0.539461	0.037273	0.000074
C29	C	-0.742245	-0.194038	0.000036
C30	C	-0.763785	-0.042580	0.000047
C31	C	-1.058313	-0.267007	0.000044
C32	C	-1.060064	-0.359305	0.000036
N33	N	-1.064917	-0.115006	0.237497
C34	C	-1.147896	0.351446	0.000059
C35	C	-1.146243	0.438169	0.000051
C36	C	-0.981976	0.418525	0.000044
C37	C	-0.983629	0.331804	0.000045
C38	C	-1.066592	0.298267	0.000058
C39	C	-1.063286	0.471711	0.000048
C40	C	-1.061494	0.565740	0.000039
C41	C	-1.068385	0.204233	0.000065
N42	N	-1.064968	-0.115009	-0.237382
C43	C	-1.003642	-0.171441	0.710111
C44	C	-1.126284	-0.058577	0.710096
C45	C	-1.126274	-0.058575	0.605078
C46	C	-1.064948	-0.115007	0.552571
C47	C	-1.003632	-0.171442	0.605083
C48	C	-1.187595	-0.002147	0.552558
C49	C	-1.187588	-0.002142	0.447534
C50	C	-1.126256	-0.058571	0.395025
C51	C	-1.064937	-0.115008	0.447543
C52	C	-1.003611	-0.171440	0.395036
C53	C	-0.942287	-0.227874	0.447553
C54	C	-0.942301	-0.227871	0.552574
C55	C	-1.126243	-0.058574	0.290003
C56	C	-1.003601	-0.171441	0.290008
H57	H	-0.810829	0.018417	0.000054
O58	O	-1.246940	0.052866	0.396519
C59	C	-1.265842	0.166679	0.278350
C60	C	-1.198586	0.104313	0.335976
H61	H	-1.226774	0.208301	0.229404
H62	H	-1.310986	0.130986	0.228990
H63	H	-1.309567	0.206960	0.334060
H64	H	-1.154802	0.064016	0.280339
H65	H	-1.153505	0.140057	0.385352
H66	H	-1.237529	0.043795	0.595313
H67	H	-0.319048	-0.248423	0.000044
H68	H	-0.953659	-0.217393	0.247264
O69	O	-0.625518	-0.341717	-0.000114
C70	C	-0.635914	-0.471655	-0.086598
C71	C	-0.596094	-0.387411	-0.086550
H72	H	-0.612156	-0.508615	-0.156484
H73	H	-0.612079	-0.508730	-0.016824
H74	H	-0.713047	-0.459958	-0.086550
H75	H	-0.518959	-0.399033	-0.086634
H76	H	-0.619999	-0.350364	-0.156318
O77	O	-1.225162	0.489912	0.000187
C78	C	-1.318646	0.599199	0.086651
C79	C	-1.229225	0.540661	0.086613
H80	H	-1.321969	0.640232	0.156529
H81	H	-1.321998	0.640338	0.016869
H82	H	-1.378208	0.560313	0.086609
H83	H	-1.169613	0.579481	0.086690
H84	H	-1.225953	0.499519	0.156389
H85	H	-0.771754	-0.256371	0.000025
O86	O	-1.228504	0.318906	-0.000118
C87	C	-1.369434	0.309196	-0.086534
C88	C	-1.278166	0.346084	-0.086464
H89	H	-1.409619	0.331169	-0.156326
H90	H	-1.356705	0.238076	-0.086597
H91	H	-1.409571	0.331082	-0.016679
H92	H	-1.237982	0.324262	-0.156307
H93	H	-1.290958	0.417200	-0.086349
H94	H	-1.176218	-0.012636	0.752850
O95	O	-0.504294	0.111658	0.000256
C96	C	-0.493961	0.241641	0.086662
C97	C	-0.533834	0.157423	0.086600
H98	H	-0.517844	0.278674	0.156453
H99	H	-0.416823	0.230003	0.086723
H100	H	-0.517750	0.278621	0.016805
H101	H	-0.510114	0.120401	0.156444
H102	H	-0.610968	0.169121	0.086487
O103	O	-0.904706	0.280055	0.000177
C104	C	-0.811211	0.170779	0.086635
C105	C	-0.900628	0.229323	0.086605
H106	H	-0.807876	0.129759	0.156516
H107	H	-0.807878	0.129626	0.016856
H108	H	-0.751646	0.209660	0.086584
H109	H	-0.960244	0.190507	0.086692
H110	H	-0.903881	0.270478	0.156379
H111	H	-0.680557	0.096614	0.000066
H112	H	-0.358115	0.026349	0.000086
H113	H	-0.449331	-0.326626	0.000021
O114	O	-0.882752	-0.282612	0.396388
C115	C	-0.828442	-0.332663	0.234589
C116	C	-0.895895	-0.270617	0.292413
H117	H	-0.839057	-0.322998	0.150516
H118	H	-0.756220	-0.321706	0.255167
H119	H	-0.840154	-0.399268	0.255289
H120	H	-0.884266	-0.203988	0.271744
H121	H	-0.968093	-0.281646	0.271830
O122	O	-0.901469	0.451243	0.000085
C123	C	-0.826119	0.576135	0.000028
C124	C	-0.917357	0.539197	0.000000
H125	H	-0.838933	0.647250	-0.000061
H126	H	-0.785923	0.554306	0.069869
H127	H	-0.785948	0.554187	-0.069781
H128	H	-0.957602	0.561128	0.069763
H129	H	-0.957484	0.561022	-0.069887
H130	H	-0.892374	-0.273818	0.595339
O131	O	-0.943950	-0.226173	0.761075
C132	C	-0.787181	-0.274650	0.793180
C133	C	-0.854683	-0.212608	0.735416
H134	H	-0.714994	-0.263716	0.772440
H135	H	-0.797638	-0.264956	0.877273
H136	H	-0.798946	-0.341257	0.772536
H137	H	-0.842958	-0.145977	0.755976
H138	H	-0.844209	-0.222375	0.651337
H139	H	-1.176176	-0.012631	0.247249
