data_functionalizedCrystal
_audit_creation_method	'MofGen! by Chris Wilmer'
_symmetry_space_group_name_H-M	'P1'
_symmetry_Int_Tables_number	1
_symmetry_cell_setting	triclinic
loop_
_symmetry_equiv_pos_as_xyz
  x,y,z
_cell_length_a	13.635800
_cell_length_b	11.020199
_cell_length_c	17.078481
_cell_angle_alpha	79.059352
_cell_angle_beta	99.306161
_cell_angle_gamma	107.292983
loop_
_atom_site_label
_atom_site_type_symbol
_atom_site_fract_x
_atom_site_fract_y
_atom_site_fract_z
V1	V	1.915077	-0.175542	0.247360
O2	O	1.987744	0.008741	0.242653
O3	O	1.817413	-0.348363	0.245666
O4	O	1.881806	-0.172708	0.355243
O5	O	1.922906	-0.168131	0.132318
V6	V	2.167585	-0.153515	0.233600
O7	O	2.022131	-0.223859	0.277543
O8	O	2.285629	-0.105198	0.203417
O9	O	2.153645	0.019306	0.235294
O10	O	2.153616	-0.337798	0.238306
O11	O	2.218454	-0.160926	0.348642
O12	O	2.089252	-0.156349	0.125717
V13	V	2.415077	-0.175542	0.247360
O14	O	2.487744	0.008741	0.242653
O15	O	2.317413	-0.348363	0.245666
O16	O	2.381806	-0.172708	0.355243
O17	O	2.422906	-0.168131	0.132318
V18	V	2.667585	-0.153515	0.233600
O19	O	2.522131	-0.223859	0.277543
O20	O	2.785629	-0.105198	0.203417
O21	O	2.653645	0.019306	0.235294
O22	O	2.653616	-0.337798	0.238306
O23	O	2.718454	-0.160926	0.348642
O24	O	2.589252	-0.156349	0.125717
C25	C	2.222336	-0.390498	0.241763
C26	C	2.183068	-0.531781	0.241097
C27	C	2.159101	-0.580103	0.168135
C28	C	2.122209	-0.712856	0.167519
C29	C	2.133249	-0.748954	0.312833
C30	C	2.170148	-0.616204	0.313449
C31	C	2.172021	-0.495680	0.095783
C32	C	2.148053	-0.544001	0.022815
C33	C	2.111161	-0.676754	0.022199
C34	C	2.098236	-0.761186	0.094551
C35	C	1.722336	-0.390498	0.241763
C36	C	1.683068	-0.531781	0.241097
C37	C	1.804475	-0.166430	0.381538
C38	C	1.817429	-0.165256	0.469733
C39	C	2.080391	0.061434	0.239194
C40	C	2.109277	0.202716	0.239865
C41	C	1.998253	-0.162631	0.099417
C42	C	1.974921	-0.163799	0.011222
C43	C	2.304475	-0.166430	0.381538
C44	C	2.317429	-0.165256	0.469733
C45	C	1.911484	-0.171049	0.515209
C46	C	1.923649	-0.169945	0.598077
C47	C	1.841756	-0.163058	0.635469
C48	C	1.747695	-0.157261	0.589986
C49	C	1.735533	-0.158355	0.507119
C50	C	1.868698	-0.159096	0.882872
C51	C	1.880866	-0.158006	0.965746
C52	C	2.056821	-0.170688	0.973830
C53	C	2.044649	-0.171790	0.890962
C54	C	1.950591	-0.165986	0.845486
N55	N	1.854188	-0.161934	0.720173
N56	N	1.938163	-0.167101	0.760782
C57	C	2.580391	0.061434	0.239194
C58	C	2.609277	0.202716	0.239865
C59	C	2.498253	-0.162631	0.099417
C60	C	2.474921	-0.163799	0.011222
C61	C	2.411495	-0.171036	0.515194
C62	C	2.423684	-0.169917	0.598061
C63	C	2.341804	-0.163026	0.635467
C64	C	2.247732	-0.157241	0.589999
C65	C	2.235546	-0.158352	0.507133
C66	C	2.374575	-0.170675	-0.026164
C67	C	2.352642	-0.171757	-0.109034
C68	C	2.431054	-0.165971	-0.154516
C69	C	2.531409	-0.159090	-0.117126
C70	C	2.553343	-0.158000	-0.034258
C71	C	1.752542	-0.604624	0.244742
C72	C	1.715640	-0.737376	0.244123
C73	C	1.539785	-0.724428	0.236212
C74	C	1.576687	-0.591680	0.236836
C75	C	1.858922	-0.544725	0.249003
C76	C	1.928404	-0.617569	0.252647
C77	C	1.891502	-0.750321	0.252029
C78	C	1.785119	-0.810229	0.247766
H79	H	2.202054	-0.387584	0.096277
F80	F	1.426570	-0.788190	0.231672
H81	H	2.158586	-0.475249	-0.036090
H82	H	2.595247	-0.154376	-0.154171
H83	H	2.091656	-0.716093	-0.037214
F84	F	1.635430	-0.152180	0.458720
H85	H	2.068202	-0.869282	0.094043
F86	F	2.660145	-0.150697	0.005522
H87	H	2.015021	-0.568785	0.256125
H88	H	2.158945	-0.153647	0.470124
H89	H	2.351740	-0.162124	0.702943
F90	F	2.119490	-0.838815	0.389829
F91	F	2.160593	-0.149920	0.629822
H92	H	2.189677	-0.576861	0.372862
F93	F	1.745849	-0.951520	0.247118
H94	H	1.888979	-0.436632	0.249505
F95	F	1.793699	-0.150675	1.005539
F96	F	2.131811	-0.179124	0.851173
H97	H	1.792100	-0.154415	0.845860
H98	H	2.310715	-0.175386	0.010858
F99	F	2.498652	-0.178371	0.475400
H100	H	2.000239	-0.174655	0.635099
H101	H	2.270923	-0.177359	-0.139465
H102	H	2.413178	-0.166876	-0.221990
F103	F	1.998646	-0.178388	0.475422
F104	F	1.965450	-0.827846	0.255916
H105	H	1.520114	-0.532370	0.233872
F106	F	2.156920	-0.176861	1.022234
H107	H	1.681019	-0.151645	0.620437
H108	H	2.500288	-0.174633	0.635070
