data_functionalizedCrystal
_audit_creation_method	'MofGen! by Chris Wilmer'
_symmetry_space_group_name_H-M	'P1'
_symmetry_Int_Tables_number	1
_symmetry_cell_setting	triclinic
loop_
_symmetry_equiv_pos_as_xyz
  x,y,z
_cell_length_a	29.839134
_cell_length_b	19.805405
_cell_length_c	19.805399
_cell_angle_alpha	90.029301
_cell_angle_beta	90.028355
_cell_angle_gamma	90.021271
loop_
_atom_site_label
_atom_site_type_symbol
_atom_site_fract_x
_atom_site_fract_y
_atom_site_fract_z
Zn1	Zn	0.686795	-0.269572	0.382870
Zn2	Zn	1.186795	0.230428	0.882870
Zn3	Zn	0.686738	-0.382760	0.269678
Zn4	Zn	1.186738	0.117240	0.769678
Zn5	Zn	0.611669	-0.269580	0.269677
Zn6	Zn	1.111669	0.230420	0.769677
Zn7	Zn	0.611645	-0.382714	0.382808
Zn8	Zn	1.111645	0.117286	0.882808
O9	O	0.649212	-0.326156	0.326258
O10	O	1.149212	0.173844	0.826258
O11	O	0.749654	-0.284602	0.367882
O12	O	1.249654	0.215398	0.867882
O13	O	0.676767	-0.367769	0.174962
O14	O	1.176767	0.132231	0.674962
O15	O	0.621669	-0.174862	0.284718
O16	O	1.121669	0.325138	0.784718
O17	O	0.749613	-0.367761	0.284720
O18	O	1.249613	0.132239	0.784720
O19	O	0.676863	-0.174856	0.367880
O20	O	1.176863	0.325144	0.867880
O21	O	0.621614	-0.284617	0.174961
O22	O	1.121614	0.215383	0.674961
O23	O	0.548799	-0.284572	0.284658
O24	O	1.048799	0.215428	0.784658
O25	O	0.621627	-0.367682	0.477533
O26	O	1.121627	0.132318	0.977533
O27	O	0.548781	-0.367691	0.367774
O28	O	1.048781	0.132309	0.867774
O29	O	0.676840	-0.284557	0.477578
O30	O	1.176840	0.215443	0.977578
O31	O	0.676743	-0.477470	0.284660
O32	O	1.176743	0.022530	0.784660
O33	O	0.621572	-0.477437	0.367775
O34	O	1.121572	0.022563	0.867775
C35	C	0.649161	-0.502012	0.326226
C36	C	1.149161	-0.002012	0.826226
C37	C	0.649181	-0.577244	0.326234
C38	C	1.149181	-0.077244	0.826234
C39	C	0.532489	-0.326128	0.326210
C40	C	1.032489	0.173872	0.826210
C41	C	0.482555	-0.326132	0.326205
C42	C	0.982555	0.173868	0.826205
C43	C	0.677936	-0.612584	0.283001
C44	C	1.177936	-0.112584	0.783001
C45	C	0.677955	-0.683272	0.283016
C46	C	1.177955	-0.183272	0.783016
C47	C	0.649216	-0.718620	0.326261
C48	C	1.149216	-0.218620	0.826261
C49	C	0.620460	-0.683276	0.369499
C50	C	1.120460	-0.183276	0.869499
C51	C	0.620443	-0.612589	0.369487
C52	C	1.120443	-0.112589	0.869487
C53	C	0.620526	-0.968349	0.369549
C54	C	1.120526	-0.468349	0.869549
C55	C	0.620544	-1.039041	0.369557
C56	C	1.120544	-0.539041	0.869557
C57	C	0.678038	-1.039033	0.283079
C58	C	1.178038	-0.539033	0.783079
C59	C	0.678021	-0.968345	0.283066
C60	C	1.178021	-0.468345	0.783066
C61	C	0.649267	-0.933007	0.326306
C62	C	1.149267	-0.433007	0.826306
C63	C	0.649247	-0.856359	0.326291
C64	C	1.149247	-0.356359	0.826291
C65	C	0.649233	-0.795267	0.326274
C66	C	1.149233	-0.295267	0.826274
C67	C	0.172912	-0.369500	0.369484
C68	C	0.672912	0.130500	0.869484
C69	C	-0.014761	-0.369519	0.369514
C70	C	0.485239	0.130481	0.869514
O71	O	-0.039026	-0.406361	0.406283
O72	O	0.460974	0.093639	0.906283
N73	N	-0.038230	-0.326181	0.326309
N74	N	0.461770	0.173819	0.826309
C75	C	-0.014778	-0.282832	0.283097
C76	C	0.485222	0.217168	0.783097
O77	O	-0.039046	-0.245966	0.246354
O78	O	0.460954	0.254034	0.746354
C79	C	0.172894	-0.282810	0.283071
C80	C	0.672894	0.217190	0.783071
C81	C	0.196361	-0.326156	0.326274
C82	C	0.696361	0.173844	0.826274
C83	C	0.196378	-0.412842	0.412684
C84	C	0.696378	0.087158	0.912684
C85	C	0.243294	-0.412840	0.412673
C86	C	0.743294	0.087160	0.912673
C87	C	0.266743	-0.369495	0.369463
C88	C	0.766743	0.130505	0.869463
C89	C	0.243276	-0.326153	0.326263
C90	C	0.743276	0.173847	0.826263
C91	C	0.196346	-0.239458	0.239863
C92	C	0.696346	0.260542	0.739863
C93	C	0.243267	-0.239455	0.239861
C94	C	0.743267	0.260545	0.739861
C95	C	0.266733	-0.282801	0.283064
C96	C	0.766733	0.217199	0.783064
C97	C	0.313641	-0.282806	0.283042
C98	C	0.813641	0.217194	0.783042
N99	N	0.337109	-0.326144	0.326247
N100	N	0.837109	0.173856	0.826247
C101	C	0.313660	-0.369489	0.369457
C102	C	0.813660	0.130511	0.869457
C103	C	-0.113309	-0.282848	0.283113
C104	C	0.386691	0.217152	0.783113
C105	C	-0.160226	-0.282854	0.283119
C106	C	0.339774	0.217146	0.783119
C107	C	-0.160207	-0.369541	0.369537
C108	C	0.339793	0.130459	0.869537
C109	C	-0.113288	-0.369537	0.369527
C110	C	0.386712	0.130463	0.869527
C111	C	-0.089840	-0.326186	0.326318
C112	C	0.410160	0.173814	0.826318
C113	C	0.412186	-0.369481	0.369432
C114	C	0.912186	0.130519	0.869432
C115	C	0.459106	-0.369476	0.369415
C116	C	0.959106	0.130524	0.869415
C117	C	0.459082	-0.282787	0.283000
C118	C	0.959082	0.217213	0.783000
C119	C	0.412166	-0.282794	0.283013
C120	C	0.912166	0.217206	0.783013
C121	C	0.388720	-0.326143	0.326235
C122	C	0.888720	0.173857	0.826235
O123	O	0.337934	-0.245978	0.246298
O124	O	0.837934	0.254022	0.746298
O125	O	0.337936	-0.406339	0.406205
O126	O	0.837936	0.093661	0.906205
C127	C	0.125996	-0.369503	0.369495
C128	C	0.625996	0.130497	0.869495
C129	C	0.102530	-0.326161	0.326295
C130	C	0.602530	0.173839	0.826295
C131	C	0.125979	-0.282817	0.283084
C132	C	0.625979	0.217183	0.783084
C133	C	0.055612	-0.326167	0.326300
C134	C	0.555612	0.173833	0.826300
C135	C	0.032163	-0.369512	0.369511
C136	C	0.532163	0.130488	0.869511
C137	C	0.055632	-0.412850	0.412716
C138	C	0.555632	0.087150	0.912716
C139	C	0.102547	-0.412847	0.412705
C140	C	0.602547	0.087153	0.912705
C141	C	0.102510	-0.239478	0.239880
C142	C	0.602510	0.260522	0.739880
C143	C	0.055594	-0.239485	0.239893
C144	C	0.555594	0.260515	0.739893
C145	C	0.032145	-0.282830	0.283104
C146	C	0.532145	0.217170	0.783104
C147	C	0.766390	-0.326186	0.326308
C148	C	1.266390	0.173814	0.826308
C149	C	0.816325	-0.326198	0.326329
C150	C	1.316325	0.173802	0.826329
C151	C	0.649237	-0.326114	0.502801
C152	C	1.149237	0.173886	1.002801
C153	C	0.649248	-0.326096	0.578033
C154	C	1.149248	0.173904	1.078033
C155	C	0.649275	-0.149614	0.326306
C156	C	1.149275	0.350386	0.826306
C157	C	0.649302	-0.074382	0.326326
C158	C	1.149302	0.425618	0.826326
C159	C	0.649213	-0.326150	0.150402
C160	C	1.149213	0.173850	0.650402
C161	C	0.649289	-0.325978	0.075171
C162	C	1.149289	0.174022	0.575171
C163	C	0.677997	-0.282810	0.613402
C164	C	1.177997	0.217190	1.113402
C165	C	0.678002	-0.282791	0.684091
C166	C	1.178002	0.217209	1.184091
C167	C	0.649259	-0.326060	0.719409
C168	C	1.149259	0.173940	1.219409
C169	C	0.620506	-0.369348	0.684035
C170	C	1.120506	0.130652	1.184035
C171	C	0.620500	-0.369363	0.613348
C172	C	1.120500	0.130637	1.113348
C173	C	0.620531	-0.369284	0.969108
C174	C	1.120531	0.130716	1.469108
C175	C	0.620541	-0.369267	1.039801
C176	C	1.120541	0.130733	1.539801
C177	C	0.678034	-0.282712	1.039851
C178	C	1.178034	0.217288	1.539851
C179	C	0.678027	-0.282727	0.969164
C180	C	1.178027	0.217273	1.469164
C181	C	0.649273	-0.326012	0.933796
C182	C	1.149273	0.173988	1.433796
C183	C	0.649268	-0.326032	0.857148
C184	C	1.149268	0.173968	1.357148
C185	C	0.649266	-0.326044	0.796056
C186	C	1.149266	0.173956	1.296056
H187	H	0.701336	-0.583808	0.247783
H188	H	1.201336	-0.083808	0.747783
H189	H	0.597124	-0.404539	0.940320
H190	H	1.097124	0.095461	1.440320
O191	O	0.708969	-0.721385	0.236381
O192	O	1.208969	-0.221385	0.736381
H193	H	0.704157	-0.776477	0.243658
H194	H	1.204157	-0.276477	0.743658
H195	H	0.597142	-1.067819	0.404777
H196	H	1.097142	-0.567819	0.904777
O197	O	0.709001	-0.236139	0.575316
O198	O	1.209001	0.263861	1.075316
H199	H	0.731848	-0.266447	0.543121
H200	H	1.231848	0.233553	1.043121
O201	O	0.709059	-1.077142	0.236442
O202	O	1.209059	-0.577142	0.736442
H203	H	0.744308	-1.063515	0.248104
H204	H	1.244308	-0.563515	0.748104
H205	H	0.597101	-0.404576	0.712797
H206	H	1.097101	0.095424	1.212797
H207	H	0.701434	-0.247495	0.940412
H208	H	1.201434	0.252505	1.440412
O209	O	0.589500	-0.930237	0.416163
O210	O	1.089500	-0.430237	0.916163
H211	H	0.569512	-0.966695	0.446223
H212	H	1.069512	-0.466695	0.946223
O213	O	0.589532	-0.415932	1.077893
O214	O	1.089532	0.084068	1.577893
H215	H	0.609627	-0.450374	1.110095
H216	H	1.109627	0.049626	1.610095
H217	H	0.597084	-0.404604	0.584551
H218	H	1.097084	0.095396	1.084551
H219	H	-0.179307	-0.404833	0.404720
H220	H	0.320693	0.095167	0.904720
O221	O	0.709037	-0.236004	1.077997
O222	O	1.209037	0.263996	1.577997
H223	H	0.704207	-0.243249	1.133084
H224	H	1.204207	0.256751	1.633084
O225	O	0.030283	-0.192735	0.193292
O226	O	0.530283	0.307265	0.693292
H227	H	0.039303	-0.139629	0.205003
H228	H	0.539303	0.360371	0.705003
O229	O	0.386846	-0.236069	0.236400
O230	O	0.886846	0.263931	0.736400
H231	H	0.365484	-0.201675	0.266751
H232	H	0.865484	0.298325	0.766751
O233	O	0.709020	-0.930218	0.236428
O234	O	1.209020	-0.430218	0.736428
H235	H	0.729023	-0.966668	0.206373
H236	H	1.229023	-0.466668	0.706373
H237	H	0.597062	-0.712062	0.404713
H238	H	1.097062	-0.212062	0.904713
O239	O	0.709015	-0.236108	0.722237
O240	O	1.209015	0.263892	1.222237
H241	H	0.688926	-0.201651	0.754436
H242	H	1.188926	0.298349	1.254436
H243	H	0.597028	-0.583816	0.404693
H244	H	1.097028	-0.083816	0.904693
H245	H	0.478210	-0.404776	0.404597
H246	H	0.978210	0.095224	0.904597
O247	O	0.386900	-0.416284	0.415997
O248	O	0.886900	0.083716	0.915997
H249	H	0.411106	-0.446440	0.446009
H250	H	0.911106	0.053560	0.946009
H251	H	0.177291	-0.448139	0.447875
H252	H	0.677291	0.051861	0.947875
O253	O	0.268602	-0.459581	0.459281
O254	O	0.768602	0.040419	0.959281
H255	H	0.244408	-0.489711	0.489331
H256	H	0.744408	0.010289	0.989331
H257	H	-0.179329	-0.247564	0.247932
H258	H	0.320671	0.252436	0.747932
O259	O	-0.087978	-0.416281	0.416131
O260	O	0.412022	0.083719	0.916131
H261	H	-0.112171	-0.446416	0.446179
H262	H	0.387829	0.053584	0.946179
H263	H	-0.094221	-0.247545	0.247923
H264	H	0.405779	0.252455	0.747923
O265	O	0.171042	-0.192700	0.193271
O266	O	0.671042	0.307300	0.693271
H267	H	0.195237	-0.162556	0.163236
H268	H	0.695237	0.337444	0.663236
H269	H	0.262356	-0.204148	0.204678
H270	H	0.762356	0.295852	0.704678
H271	H	0.478183	-0.247499	0.247817
H272	H	0.978183	0.252501	0.747817
H273	H	0.121649	-0.448144	0.447886
H274	H	0.621649	0.051856	0.947886
H275	H	0.121597	-0.204181	0.204692
H276	H	0.621597	0.295819	0.704692
O277	O	0.030337	-0.459599	0.459327
O278	O	0.530337	0.040401	0.959327
H279	H	-0.006230	-0.452309	0.452074
H280	H	0.493770	0.047691	0.952074
