data_functionalizedCrystal
_audit_creation_method	'MofGen! by Chris Wilmer'
_symmetry_space_group_name_H-M	'P1'
_symmetry_Int_Tables_number	1
_symmetry_cell_setting	triclinic
loop_
_symmetry_equiv_pos_as_xyz
  x,y,z
_cell_length_a	35.277628
_cell_length_b	35.288095
_cell_length_c	35.277682
_cell_angle_alpha	59.997929
_cell_angle_beta	89.998958
_cell_angle_gamma	60.000166
loop_
_atom_site_label
_atom_site_type_symbol
_atom_site_fract_x
_atom_site_fract_y
_atom_site_fract_z
O1	O	-0.323087	-0.271234	0.011271
O2	O	-0.267964	-0.193634	-0.011228
O3	O	-0.267962	-0.271233	0.066395
O4	O	-0.323089	-0.193635	-0.066351
O5	O	-0.204915	-0.334261	0.066394
O6	O	-0.204918	-0.256661	-0.011228
O7	O	-0.260040	-0.334261	0.011271
Zn8	Zn	-0.222469	-0.305468	0.000022
Zn9	Zn	-0.305535	-0.222427	0.000022
O10	O	-0.260043	-0.256662	-0.066351
C11	C	-0.163481	-0.071298	-0.023519
C12	C	-0.186872	-0.024531	-0.020298
C13	C	-0.117860	-0.093995	-0.023838
C14	C	-0.163483	-0.139918	-0.023524
C15	C	-0.186875	-0.166518	-0.020308
C16	C	-0.117862	-0.162510	-0.023843
C17	C	-0.094838	-0.139921	-0.023519
C18	C	-0.044836	-0.166525	-0.020298
C19	C	-0.186401	-0.093991	-0.023843
C20	C	-0.004439	-0.188019	-0.017694
C21	C	-0.205769	0.013252	-0.017695
C22	C	-0.205774	-0.188010	-0.017709
C23	C	0.046241	-0.214983	-0.014429
C24	C	-0.229477	0.060653	-0.014430
C25	C	-0.229483	-0.214971	-0.014450
C26	C	-0.500364	-0.466062	0.034181
C27	C	-0.477341	-0.511990	0.034503
C28	C	-0.431722	-0.466060	0.034178
C29	C	-0.408804	-0.511988	0.034500
C30	C	-0.431721	-0.534685	0.034181
C31	C	-0.477342	-0.443470	0.034500
C32	C	-0.665895	-0.342485	0.021756
C33	C	-0.712772	-0.317221	0.018243
C34	C	-0.736287	-0.338907	0.016481
C35	C	-0.787116	-0.311512	0.012664
C36	C	-0.712921	-0.385861	0.018236
C37	C	-0.666047	-0.411125	0.021755
C38	C	-0.642533	-0.389434	0.023515
C39	C	-0.389805	-0.687746	0.021758
C40	C	-0.368199	-0.731097	0.018245
C41	C	-0.322995	-0.752841	0.016478
C42	C	-0.299567	-0.799839	0.012662
C43	C	-0.299393	-0.731235	0.018230
C44	C	-0.320995	-0.687892	0.021751
C45	C	-0.366205	-0.666148	0.023512
C46	C	-0.389808	-0.342477	0.021744
C47	C	-0.368205	-0.317208	0.018222
C48	C	-0.322998	-0.338892	0.016457
C49	C	-0.299573	-0.311495	0.012637
C50	C	-0.299398	-0.385842	0.018210
C51	C	-0.321003	-0.411107	0.021730
C52	C	-0.366208	-0.389423	0.023501
C53	C	-0.591706	-0.416830	0.027326
C54	C	-0.551191	-0.438667	0.030366
C55	C	-0.408299	-0.438663	0.030360
C56	C	-0.389629	-0.416824	0.027317
C57	C	-0.408298	-0.581682	0.030365
C58	C	-0.389627	-0.619146	0.027325
C59	C	-0.432024	-0.061845	-0.438511
C60	C	-0.477645	-0.015917	-0.461431
C61	C	-0.432025	-0.061844	-0.369869
C62	C	-0.477645	-0.015916	-0.392892
C63	C	-0.500668	0.006779	-0.438513
C64	C	-0.409106	-0.084435	-0.392891
C65	C	-0.320834	-0.185425	-0.480424
C66	C	-0.299076	-0.210690	-0.502029
C67	C	-0.322531	-0.189005	-0.547237
C68	C	-0.298945	-0.216401	-0.570661
C69	C	-0.367745	-0.142051	-0.570839
C70	C	-0.389497	-0.116787	-0.549237
C71	C	-0.366040	-0.138476	-0.504027
C72	C	-0.666200	0.159838	-0.549704
C73	C	-0.713077	0.203188	-0.571462
C74	C	-0.736595	0.224934	-0.548009
C75	C	-0.787423	0.271931	-0.571594
C76	C	-0.713230	0.203329	-0.502796
C77	C	-0.666353	0.159987	-0.481041
C78	C	-0.642841	0.138241	-0.504500
C79	C	-0.320836	-0.185423	-0.204335
C80	C	-0.299080	-0.210691	-0.157455
C81	C	-0.322536	-0.189006	-0.133940
C82	C	-0.298950	-0.216402	-0.083110
C83	C	-0.367748	-0.142056	-0.157305
C84	C	-0.389502	-0.116792	-0.204182
C85	C	-0.366040	-0.138478	-0.227695
C86	C	-0.389632	-0.111079	-0.480604
C87	C	-0.408436	-0.089241	-0.461934
C88	C	-0.408437	-0.089240	-0.319041
C89	C	-0.389634	-0.111078	-0.278525
C90	C	-0.551496	0.053776	-0.462102
C91	C	-0.592011	0.091239	-0.480906
O92	O	0.196122	-0.334274	0.011291
O93	O	0.063378	-0.256674	-0.011208
O94	O	0.140994	-0.334276	0.066414
O95	O	0.118506	-0.256671	-0.066331
O96	O	0.140996	-0.271251	0.066419
O97	O	0.063380	-0.193649	-0.011203
O98	O	0.196124	-0.271249	0.011296
Zn99	Zn	0.129752	-0.222442	0.000047
Zn100	Zn	0.129750	-0.305480	0.000041
O101	O	0.118508	-0.193647	-0.066327
O102	O	-0.260036	0.184774	0.011294
O103	O	-0.204910	0.074561	-0.011204
O104	O	-0.204913	0.074554	0.066418
O105	O	-0.260033	0.184781	-0.066328
O106	O	-0.267961	0.074557	0.066413
O107	O	-0.267958	0.074564	-0.011209
O108	O	-0.323083	0.184777	0.011289
Zn109	Zn	-0.305531	0.129671	0.000039
Zn110	Zn	-0.222463	0.129667	0.000046
O111	O	-0.323081	0.184784	-0.066333
O112	O	-0.936929	0.397535	-0.602582
O113	O	-0.804185	0.287317	-0.547454
O114	O	-0.881802	0.287315	-0.547452
O115	O	-0.859312	0.397537	-0.602584
O116	O	-0.881801	0.287314	-0.610498
O117	O	-0.804183	0.287316	-0.610500
O118	O	-0.936927	0.397533	-0.665628
Zn119	Zn	-0.870555	0.342425	-0.648073
Zn120	Zn	-0.870557	0.342426	-0.565008
O121	O	-0.859310	0.397536	-0.665629
O122	O	-0.267961	-0.271234	-0.665316
O123	O	-0.323086	-0.193638	-0.610192
O124	O	-0.323085	-0.271236	-0.610189
O125	O	-0.267962	-0.193636	-0.665319
O126	O	-0.260038	-0.334264	-0.547142
O127	O	-0.260039	-0.256666	-0.547145
O128	O	-0.204914	-0.334262	-0.602269
Zn129	Zn	-0.222466	-0.305471	-0.564697
Zn130	Zn	-0.305534	-0.222429	-0.647764
O131	O	-0.204915	-0.256664	-0.602272
C132	C	-0.094840	-0.456607	0.293255
C133	C	-0.044837	-0.503376	0.316647
C134	C	-0.117862	-0.433912	0.316174
C135	C	-0.163483	-0.387984	0.224612
C136	C	-0.186875	-0.361381	0.174609
C137	C	-0.186401	-0.365393	0.247634
C138	C	-0.163483	-0.387984	0.293255
C139	C	-0.186874	-0.361382	0.316646
C140	C	-0.117862	-0.433912	0.247635
C141	C	-0.205772	-0.339889	0.335543
C142	C	-0.004440	-0.541160	0.335545
C143	C	-0.205773	-0.339888	0.134212
C144	C	-0.229480	-0.312925	0.359250
C145	C	0.046239	-0.588562	0.359254
C146	C	-0.229481	-0.312924	0.083532
C147	C	0.153295	-0.388013	0.293279
C148	C	0.150076	-0.361413	0.316673
C149	C	0.153614	-0.433940	0.316196
C150	C	0.153297	-0.388008	0.224634
C151	C	0.150079	-0.361403	0.174632
C152	C	0.153616	-0.433935	0.247655
C153	C	0.153293	-0.456633	0.293275
C154	C	0.150072	-0.503401	0.316665
C155	C	0.153617	-0.365420	0.247659
C156	C	0.147469	-0.541185	0.335561
C157	C	0.147474	-0.339922	0.335572
C158	C	0.147479	-0.339908	0.134234
C159	C	0.144204	-0.588587	0.359267
C160	C	0.144211	-0.312962	0.359282
C161	C	0.144218	-0.312942	0.083555
C162	C	-0.163482	-0.139963	0.293267
C163	C	-0.186875	-0.166567	0.316654
C164	C	-0.117861	-0.162559	0.316187
C165	C	-0.163482	-0.071333	0.224628
C166	C	-0.186873	-0.024557	0.174627
C167	C	-0.117860	-0.094033	0.247653
C168	C	-0.094838	-0.139967	0.293272
C169	C	-0.044835	-0.166574	0.316665
C170	C	-0.186401	-0.094030	0.247648
C171	C	-0.004438	-0.188070	0.335563
C172	C	-0.205773	-0.188061	0.335549
C173	C	-0.205771	0.013233	0.134231
C174	C	0.046242	-0.215038	0.359273
C175	C	-0.229482	-0.215026	0.359253
C176	C	-0.229479	0.060643	0.083553
C177	C	0.095627	0.006487	-0.438489
C178	C	0.095306	-0.016206	-0.461409
C179	C	0.095623	-0.062137	-0.369847
C180	C	0.095303	-0.084726	-0.392871
C181	C	0.095625	-0.062133	-0.438492
C182	C	0.095305	-0.016210	-0.392868
C183	C	0.108059	0.159543	-0.480399
C184	C	0.111575	0.202893	-0.502003
C185	C	0.113340	0.224640	-0.547210
C186	C	0.117161	0.271637	-0.570634
C187	C	0.111587	0.203038	-0.570814
C188	C	0.108065	0.159695	-0.549212
C189	C	0.106302	0.137948	-0.504002
C190	C	0.108054	-0.116452	-0.549685
C191	C	0.111568	-0.141562	-0.571444
C192	C	0.113332	-0.188519	-0.547992
C193	C	0.117148	-0.215753	-0.571578
C194	C	0.111577	-0.210363	-0.502779
C195	C	0.108055	-0.185249	-0.481023
C196	C	0.106297	-0.138292	-0.504481
C197	C	0.108046	-0.116473	-0.204312
C198	C	0.111564	-0.141591	-0.157432
C199	C	0.113326	-0.188548	-0.133918
C200	C	0.117142	-0.215786	-0.083088
C201	C	0.111574	-0.210388	-0.157283
C202	C	0.108058	-0.185270	-0.204161
C203	C	0.106290	-0.138308	-0.227673
C204	C	0.102487	0.090947	-0.480580
C205	C	0.099445	0.053484	-0.461911
C206	C	0.099438	-0.089371	-0.319019
C207	C	0.102477	-0.111078	-0.278503
C208	C	0.099442	-0.089362	-0.462081
C209	C	0.102482	-0.111066	-0.480886
O210	O	0.118477	-0.256700	0.452885
O211	O	0.140984	-0.334299	0.397762
O212	O	0.063360	-0.256699	0.397752
O213	O	0.196101	-0.334300	0.452895
O214	O	0.063367	-0.193672	0.334708
O215	O	0.140992	-0.271271	0.334718
O216	O	0.118484	-0.193673	0.389842
Zn217	Zn	0.129739	-0.222465	0.352270
Zn218	Zn	0.129729	-0.305506	0.435333
O219	O	0.196108	-0.271272	0.389852
C220	C	-0.500364	0.533998	-0.438484
C221	C	-0.477341	0.556591	-0.461399
C222	C	-0.431721	0.465364	-0.369840
C223	C	-0.408802	0.488061	-0.392859
C224	C	-0.431720	0.533995	-0.438478
C225	C	-0.477342	0.488064	-0.392865
C226	C	-0.665898	0.588334	-0.480407
C227	C	-0.712776	0.613450	-0.502014
C228	C	-0.736291	0.660414	-0.547220
C229	C	-0.787122	0.687654	-0.570647
C230	C	-0.712926	0.682257	-0.570819
C231	C	-0.666050	0.657138	-0.549214
C232	C	-0.642536	0.610174	-0.504006
C233	C	-0.389802	0.657585	-0.549654
C234	C	-0.368196	0.682850	-0.571408
C235	C	-0.322990	0.661164	-0.547952
C236	C	-0.299561	0.688558	-0.571532
C237	C	-0.299388	0.614205	-0.502740
C238	C	-0.320990	0.588935	-0.480990
C239	C	-0.366202	0.610633	-0.504452
C240	C	-0.389804	0.312282	-0.204314
C241	C	-0.368201	0.268929	-0.157436
C242	C	-0.322993	0.247179	-0.133918
C243	C	-0.299567	0.200174	-0.083089
C244	C	-0.299392	0.268786	-0.157278
C245	C	-0.320998	0.312139	-0.204154
C246	C	-0.366204	0.333881	-0.227670
C247	C	-0.591708	0.582942	-0.480581
C248	C	-0.551193	0.561234	-0.461909
C249	C	-0.408297	0.418359	-0.319013
C250	C	-0.389626	0.380890	-0.278499
C251	C	-0.408296	0.561393	-0.462062
C252	C	-0.389624	0.583232	-0.480862
H253	H	-0.371321	-0.530978	0.035012
H254	H	0.106623	-0.203035	-0.444212
H255	H	0.154122	-0.452930	0.353678
H256	H	0.154133	-0.328462	0.229178
C257	C	-0.502038	0.605951	-0.511341
C258	C	-0.541742	0.647927	-0.513799
C259	C	-0.564497	0.693411	-0.559792
H260	H	-0.510783	0.598046	-0.530463
H261	H	-0.481795	0.616241	-0.521748
H262	H	-0.561981	0.637638	-0.503397
H263	H	-0.533010	0.655848	-0.494687
H264	H	-0.544255	0.703701	-0.570199
H265	H	-0.573239	0.685501	-0.578910
H266	H	-0.591437	0.721898	-0.561465
H267	H	-0.223884	-0.075035	0.229163
H268	H	0.094785	-0.121682	-0.374387
H269	H	-0.099372	-0.452898	0.229148
C270	C	-0.640661	0.136147	-0.575115
C271	C	-0.624241	0.082141	-0.550080
C272	C	-0.600711	0.060301	-0.573474
H273	H	-0.615232	0.138922	-0.577926
H274	H	-0.661273	0.155188	-0.605155
H275	H	-0.603630	0.063104	-0.520048
H276	H	-0.649660	0.079351	-0.547268
H277	H	-0.621323	0.079343	-0.603515
H278	H	-0.575284	0.063080	-0.576284
H279	H	-0.589571	0.023658	-0.556494
C280	C	0.106142	-0.209051	-0.229452
C281	C	0.108427	-0.255542	-0.198830
C282	C	0.106661	-0.277462	-0.222112
H283	H	0.131621	-0.217712	-0.240620
H284	H	0.077906	-0.183722	-0.254846
H285	H	0.136660	-0.280866	-0.173444
H286	H	0.082950	-0.246895	-0.187660
H287	H	0.078425	-0.252134	-0.247507
H288	H	0.132141	-0.286120	-0.233280
H289	H	0.108207	-0.309006	-0.201340
H290	H	-0.099376	-0.075038	0.229168
C291	C	0.154328	-0.459198	0.222939
C292	C	0.154546	-0.429478	0.177976
C293	C	0.155209	-0.452739	0.155198
H294	H	0.127557	-0.459396	0.221309
H295	H	0.181409	-0.494940	0.239615
H296	H	0.127468	-0.393746	0.161303
H297	H	0.181315	-0.429278	0.179592
H298	H	0.182290	-0.488481	0.171875
H299	H	0.128437	-0.452935	0.153572
H300	H	0.155361	-0.432580	0.124690
H301	H	-0.496128	0.003076	-0.374407
C302	C	-0.093286	-0.211856	0.366159
C303	C	-0.123223	-0.226885	0.381385
C304	C	-0.100599	-0.272295	0.427413
H305	H	-0.084597	-0.203906	0.385270
H306	H	-0.066322	-0.240419	0.367941
H307	H	-0.150178	-0.198328	0.379607
H308	H	-0.131913	-0.234846	0.362287
H309	H	-0.073634	-0.300859	0.429195
H310	H	-0.091911	-0.264341	0.446520
H311	H	-0.120906	-0.282501	0.437749
H312	H	-0.099379	-0.074998	-0.024355
C313	C	-0.358852	0.462820	-0.368207
C314	C	-0.356375	0.500049	-0.365929
C315	C	-0.310372	0.476817	-0.343221
H316	H	-0.339753	0.452458	-0.384879
H317	H	-0.348428	0.432171	-0.337669
H318	H	-0.366794	0.530688	-0.396462
H319	H	-0.375464	0.510415	-0.349254
H320	H	-0.299948	0.446168	-0.312683
H321	H	-0.291277	0.466455	-0.359895
H322	H	-0.308686	0.502071	-0.341669
C323	C	0.106156	0.135846	-0.431311
C324	C	0.102712	0.093253	-0.417438
C325	C	0.100964	0.071405	-0.372221
H326	H	0.079876	0.162602	-0.430533
H327	H	0.133594	0.123153	-0.410824
H328	H	0.075277	0.105948	-0.437920
H329	H	0.128989	0.066487	-0.418205
H330	H	0.128402	0.058711	-0.351733
H331	H	0.074683	0.098164	-0.371447
H332	H	0.098631	0.042500	-0.362800
H333	H	0.094791	0.002793	-0.498893
H334	H	-0.262587	-0.403497	0.016771
C335	C	-0.502066	-0.537236	0.035186
C336	C	-0.547033	-0.507509	0.035388
C337	C	-0.569820	-0.530750	0.036018
H338	H	-0.485415	-0.572976	0.062255
H339	H	-0.503678	-0.537419	0.008401
H340	H	-0.545419	-0.507332	0.062170
H341	H	-0.563696	-0.471770	0.008321
H342	H	-0.571432	-0.530933	0.009233
H343	H	-0.553165	-0.566489	0.063087
H344	H	-0.600334	-0.510581	0.036151
H345	H	-0.426615	-0.670047	0.023195
C346	C	-0.250323	-0.754900	0.016287
C347	C	-0.236457	-0.797475	0.012819
C348	C	-0.191260	-0.819282	0.011019
H349	H	-0.229806	-0.767607	0.043706
H350	H	-0.249588	-0.728104	-0.010009
H351	H	-0.237189	-0.824266	0.039112
H352	H	-0.256962	-0.784782	-0.014600
H353	H	-0.190525	-0.792487	-0.015277
H354	H	-0.170747	-0.831986	0.038439
H355	H	-0.181848	-0.848169	0.008662
C356	C	-0.236349	-0.316047	0.222988
C357	C	-0.238811	-0.274079	0.220724
C358	C	-0.284811	-0.228612	0.198023
H359	H	-0.255449	-0.323983	0.239659
H360	H	-0.246780	-0.305733	0.192447
H361	H	-0.228386	-0.284392	0.251260
H362	H	-0.219721	-0.266127	0.204050
H363	H	-0.295242	-0.218297	0.167482
H364	H	-0.303907	-0.236553	0.214697
H365	H	-0.286487	-0.200129	0.196480
H366	H	-0.387425	-0.278978	0.016792
H367	H	0.094825	0.002760	-0.374372
H368	H	0.113001	-0.123813	-0.138408
H369	H	0.106608	-0.078237	-0.223453
H370	H	0.113004	0.220477	-0.482781
C371	C	0.113536	0.226703	-0.619881
C372	C	0.117009	0.269275	-0.633744
C373	C	0.118814	0.291081	-0.678940
H374	H	0.086118	0.239412	-0.640401
H375	H	0.139832	0.199905	-0.620613
H376	H	0.090716	0.296067	-0.633016
H377	H	0.144426	0.256580	-0.613236
H378	H	0.145110	0.264284	-0.679672
H379	H	0.091396	0.303787	-0.699457
H380	H	0.121175	0.319965	-0.688351
C381	C	-0.295367	-0.664475	0.023742
C382	C	-0.291188	-0.668714	0.065384
C383	C	-0.267580	-0.647149	0.067232
H384	H	-0.312211	-0.627822	-0.001713
H385	H	-0.265336	-0.683632	0.022211
H386	H	-0.321213	-0.649556	0.066911
H387	H	-0.274339	-0.705361	0.090846
H388	H	-0.237549	-0.666306	0.065701
H389	H	-0.284427	-0.610497	0.041776
H390	H	-0.264737	-0.650027	0.095487
H391	H	-0.387419	-0.748683	0.016816
H392	H	0.106637	0.142110	-0.568432
H393	H	0.106619	-0.078217	-0.568789
C394	C	0.113504	-0.117787	-0.620518
C395	C	0.111225	-0.071302	-0.636396
C396	C	0.113018	-0.049393	-0.681597
H397	H	0.088031	-0.109122	-0.640363
H398	H	0.141745	-0.143124	-0.620562
H399	H	0.082987	-0.045970	-0.636355
H400	H	0.136696	-0.079953	-0.616564
H401	H	0.141259	-0.074729	-0.681640
H402	H	0.087544	-0.040730	-0.701437
H403	H	0.111476	-0.017853	-0.692374
H404	H	-0.223885	-0.074993	-0.024363
H405	H	0.113006	-0.248593	-0.483685
C406	C	0.113460	-0.261353	-0.131684
C407	C	0.116897	-0.278668	-0.085635
C408	C	0.118625	-0.325607	-0.062043
H409	H	0.139736	-0.288409	-0.132165
H410	H	0.086017	-0.254388	-0.146434
H411	H	0.144337	-0.285636	-0.070888
H412	H	0.090624	-0.251626	-0.085140
H413	H	0.091182	-0.318642	-0.076794
H414	H	0.144901	-0.352659	-0.062528
H415	H	0.120953	-0.337359	-0.030798
H416	H	-0.495832	0.469078	-0.374381
C417	C	-0.393893	0.245530	-0.132161
C418	C	-0.438101	0.273844	-0.162792
C419	C	-0.461780	0.252299	-0.139528
H420	H	-0.396816	0.248347	-0.106760
H421	H	-0.377045	0.208890	-0.121008
H422	H	-0.454946	0.310475	-0.173938
H423	H	-0.435192	0.271029	-0.188193
H424	H	-0.444932	0.215658	-0.128375
H425	H	-0.464700	0.255117	-0.114128
H426	H	-0.491776	0.271503	-0.160309
C427	C	-0.393736	0.733823	-0.620495
C428	C	-0.365135	0.751301	-0.634526
C429	C	-0.388645	0.798252	-0.679744
H430	H	-0.421281	0.760812	-0.621215
H431	H	-0.401533	0.726824	-0.640934
H432	H	-0.357344	0.758302	-0.614092
H433	H	-0.337590	0.724326	-0.633817
H434	H	-0.396442	0.791253	-0.700183
H435	H	-0.416189	0.825237	-0.680460
H436	H	-0.369242	0.810114	-0.689271
C437	C	-0.093262	-0.459135	0.366135
C438	C	-0.091011	-0.421899	0.368624
C439	C	-0.068365	-0.445112	0.414642
H440	H	-0.062722	-0.489788	0.376606
H441	H	-0.109975	-0.469480	0.385191
H442	H	-0.074297	-0.411562	0.349574
H443	H	-0.121544	-0.391245	0.358163
H444	H	-0.085078	-0.455457	0.433698
H445	H	-0.037827	-0.475764	0.425109
H446	H	-0.066839	-0.419849	0.416337
H447	H	-0.301727	-0.203079	-0.223479
C448	C	-0.438911	0.335999	-0.229884
C449	C	-0.467881	0.390008	-0.246311
C450	C	-0.513120	0.411878	-0.269875
H451	H	-0.449940	0.316991	-0.209305
H452	H	-0.438919	0.333214	-0.255313
H453	H	-0.467876	0.392789	-0.220885
H454	H	-0.456868	0.409029	-0.266897
H455	H	-0.513128	0.409093	-0.295305
H456	H	-0.524144	0.392866	-0.249293
H457	H	-0.532781	0.448526	-0.281028
C458	C	-0.640446	-0.318835	0.023609
C459	C	-0.662304	-0.266923	-0.016853
C460	C	-0.638878	-0.245121	-0.015155
H461	H	-0.609180	-0.340536	0.025934
H462	H	-0.641002	-0.317550	0.049881
H463	H	-0.661744	-0.268211	-0.043119
H464	H	-0.693569	-0.245209	-0.019187
H465	H	-0.639434	-0.243836	0.011118
H466	H	-0.607613	-0.266826	-0.012828
H467	H	-0.653708	-0.209895	-0.042606
H468	H	-0.646757	0.550094	-0.443598
H469	H	-0.262268	-0.248920	-0.138435
H470	H	-0.731797	0.595663	-0.482796
H471	H	-0.386837	-0.124397	-0.607648
H472	H	-0.732075	0.720493	-0.607626
C473	C	-0.359107	-0.133673	-0.368199
C474	C	-0.331121	-0.121740	-0.355433
C475	C	-0.285065	-0.167088	-0.332675
H476	H	-0.348624	-0.143993	-0.388402
H477	H	-0.357333	-0.162209	-0.341209
H478	H	-0.332893	-0.093213	-0.382418
H479	H	-0.341589	-0.111426	-0.335224
H480	H	-0.283290	-0.195624	-0.305685
H481	H	-0.274586	-0.177405	-0.352881
H482	H	-0.266071	-0.158999	-0.324006
C483	C	-0.738488	-0.409393	0.016392
C484	C	-0.754917	-0.421933	0.053989
C485	C	-0.778476	-0.443607	0.052302
H486	H	-0.717905	-0.440992	0.017962
H487	H	-0.763915	-0.383982	-0.011825
H488	H	-0.729494	-0.447342	0.082199
H489	H	-0.775506	-0.390342	0.052427
H490	H	-0.803903	-0.418196	0.024085
H491	H	-0.757890	-0.475204	0.053870
H492	H	-0.789630	-0.452113	0.077808
C493	C	-0.295278	-0.209039	-0.431349
C494	C	-0.251024	-0.255553	-0.415310
C495	C	-0.227469	-0.277315	-0.370107
H496	H	-0.312151	-0.217641	-0.411566
H497	H	-0.292439	-0.183646	-0.431352
H498	H	-0.253864	-0.280941	-0.415304
H499	H	-0.234139	-0.246965	-0.435080
H500	H	-0.224630	-0.251922	-0.370110
H501	H	-0.244345	-0.285913	-0.350328
H502	H	-0.197439	-0.308874	-0.359220
C503	C	-0.640771	0.680950	-0.574901
C504	C	-0.671399	0.727462	-0.619109
C505	C	-0.648130	0.749418	-0.642782
H506	H	-0.615373	0.655663	-0.577826
H507	H	-0.629616	0.689590	-0.558047
H508	H	-0.682547	0.718820	-0.635959
H509	H	-0.696797	0.752761	-0.616197
H510	H	-0.636975	0.758058	-0.625928
H511	H	-0.622733	0.724126	-0.645704
H512	H	-0.668909	0.780980	-0.672778
H513	H	-0.301770	0.550701	-0.444180
C514	C	-0.438877	0.681203	-0.575213
C515	C	-0.454915	0.727722	-0.619465
C516	C	-0.500117	0.749487	-0.643023
H517	H	-0.458659	0.689800	-0.558339
H518	H	-0.438876	0.655814	-0.578057
H519	H	-0.454919	0.753105	-0.616619
H520	H	-0.435146	0.719139	-0.636351
H521	H	-0.500116	0.724098	-0.645867
H522	H	-0.519895	0.758080	-0.626145
H523	H	-0.511003	0.781049	-0.673052
C524	C	-0.250316	0.590751	-0.477340
C525	C	-0.236450	0.622935	-0.506058
C526	C	-0.191252	0.601352	-0.482672
H527	H	-0.229801	0.555538	-0.469538
H528	H	-0.249580	0.589502	-0.449799
H529	H	-0.237183	0.624179	-0.533591
H530	H	-0.256953	0.658149	-0.513861
H531	H	-0.190516	0.600103	-0.455131
H532	H	-0.170741	0.566139	-0.474871
H533	H	-0.181840	0.623188	-0.502152
C534	C	-0.295288	0.335503	-0.229442
C535	C	-0.251069	0.307168	-0.198819
C536	C	-0.227369	0.328670	-0.222098
H537	H	-0.312099	0.372140	-0.240610
H538	H	-0.292389	0.332662	-0.254837
H539	H	-0.253970	0.310013	-0.173433
H540	H	-0.234246	0.270531	-0.187649
H541	H	-0.224470	0.325830	-0.247493
H542	H	-0.244184	0.365307	-0.233266
H543	H	-0.197363	0.309445	-0.201325
H544	H	-0.262581	0.251075	-0.138127
H545	H	-0.426314	-0.078564	-0.223203
C546	C	-0.093300	-0.211771	-0.024553
C547	C	-0.123244	-0.226786	-0.024771
C548	C	-0.100635	-0.272158	-0.025430
H549	H	-0.066332	-0.240361	0.002220
H550	H	-0.084628	-0.203770	-0.051633
H551	H	-0.131910	-0.234790	0.002307
H552	H	-0.150212	-0.198209	-0.051542
H553	H	-0.091963	-0.264156	-0.052510
H554	H	-0.073668	-0.300743	0.001344
H555	H	-0.120950	-0.282348	-0.025582
H556	H	-0.495829	-0.406511	0.035012
C557	C	-0.438901	-0.318831	0.023627
C558	C	-0.454953	-0.272296	0.021320
C559	C	-0.500179	-0.250495	0.023044
H560	H	-0.438950	-0.344180	0.051849
H561	H	-0.458647	-0.310250	-0.001869
H562	H	-0.435213	-0.280878	0.046814
H563	H	-0.454916	-0.246934	-0.006900
H564	H	-0.519924	-0.241914	-0.002452
H565	H	-0.500222	-0.275848	0.051266
H566	H	-0.511077	-0.218916	0.021474
C567	C	-0.738215	-0.266194	0.016255
C568	C	-0.775625	-0.224642	-0.025383
C569	C	-0.799077	-0.177629	-0.027229
H570	H	-0.717556	-0.256821	0.017778
H571	H	-0.749415	-0.271863	0.041723
H572	H	-0.764425	-0.218973	-0.050844
H573	H	-0.796294	-0.233998	-0.026915
H574	H	-0.810277	-0.183297	-0.001762
H575	H	-0.778415	-0.168260	-0.025705
H576	H	-0.824465	-0.149431	-0.055478
C577	C	-0.738370	0.226543	-0.620537
C578	C	-0.707749	0.198211	-0.636416
C579	C	-0.731034	0.219704	-0.681618
H580	H	-0.749547	0.263183	-0.640380
H581	H	-0.763759	0.223691	-0.620583
H582	H	-0.682369	0.201068	-0.636373
H583	H	-0.696571	0.161572	-0.616586
H584	H	-0.756423	0.216852	-0.681664
H585	H	-0.742210	0.256343	-0.701457
H586	H	-0.710263	0.200481	-0.692396
H587	H	-0.647026	-0.449354	0.023185
H588	H	-0.301784	-0.449335	0.023157
H589	H	-0.496124	0.003081	-0.498917
H590	H	-0.262264	-0.248919	-0.482808
H591	H	-0.426308	-0.078556	-0.568458
H592	H	-0.732378	0.221040	-0.483702
H593	H	-0.386847	-0.124399	-0.138156
C594	C	-0.641073	0.136592	-0.431947
C595	C	-0.671700	0.164903	-0.416057
C596	C	-0.648431	0.143363	-0.370832
H597	H	-0.615676	0.139416	-0.431851
H598	H	-0.629916	0.099950	-0.412141
H599	H	-0.682851	0.201536	-0.435859
H600	H	-0.697098	0.162082	-0.416142
H601	H	-0.637274	0.106721	-0.351025
H602	H	-0.623034	0.146188	-0.370740
H603	H	-0.669209	0.162566	-0.360043
