data_functionalizedCrystal
_audit_creation_method	'MofGen! by Chris Wilmer'
_symmetry_space_group_name_H-M	'P1'
_symmetry_Int_Tables_number	1
_symmetry_cell_setting	triclinic
loop_
_symmetry_equiv_pos_as_xyz
  x,y,z
_cell_length_a	19.077236
_cell_length_b	13.031981
_cell_length_c	19.076919
_cell_angle_alpha	95.212724
_cell_angle_beta	90.112677
_cell_angle_gamma	99.168272
loop_
_atom_site_label
_atom_site_type_symbol
_atom_site_fract_x
_atom_site_fract_y
_atom_site_fract_z
Zn1	Zn	1.027260	-0.379248	0.406832
Zn2	Zn	1.018200	-0.546676	0.274444
Zn3	Zn	0.914520	-0.378700	0.284661
Zn4	Zn	0.894879	-0.560614	0.385943
O5	O	0.963714	-0.466310	0.337970
O6	O	1.124850	-0.395853	0.393737
O7	O	1.008875	-0.518331	0.178007
O8	O	0.941487	-0.232571	0.313886
O9	O	1.118194	-0.518863	0.296472
O10	O	1.024316	-0.232973	0.403644
O11	O	0.932702	-0.394920	0.185514
O12	O	0.813122	-0.408435	0.293630
O13	O	0.908011	-0.542618	0.486506
O14	O	0.798692	-0.542087	0.368042
O15	O	1.005271	-0.409369	0.501853
O16	O	0.989829	-0.694727	0.276216
O17	O	0.899226	-0.704967	0.358134
C18	C	0.780291	-0.476715	0.329678
C19	C	0.701819	-0.481192	0.326145
C20	C	0.668407	-0.419362	0.375185
C21	C	0.594675	-0.423564	0.371860
C22	C	0.554355	-0.489602	0.319497
C23	C	0.587773	-0.551435	0.270452
C24	C	0.661504	-0.547227	0.273775
C25	C	0.333472	-0.509038	0.304120
C26	C	0.259735	-0.513244	0.300803
C27	C	0.266643	-0.385371	0.402209
C28	C	0.340375	-0.381173	0.405530
C29	C	0.373786	-0.443002	0.356483
N30	N	0.478989	-0.493901	0.316098
N31	N	0.449152	-0.438697	0.359879
C32	C	0.941432	-0.737755	0.313816
C33	C	0.931963	-0.853878	0.303509
C34	C	0.968693	-0.905770	0.343365
C35	C	0.958907	-1.025789	0.332713
C36	C	1.147854	-0.455864	0.346295
C37	C	1.226323	-0.451413	0.349842
C38	C	0.955460	-0.477609	0.520245
C39	C	0.951943	-0.482425	0.597920
C40	C	0.986103	-0.193804	0.362235
C41	C	0.995643	-0.077678	0.372575
C42	C	0.971983	-0.454976	0.156413
C43	C	0.975662	-0.449859	0.078771
C44	C	1.000926	-0.415314	0.642403
C45	C	0.997612	-0.419835	0.715386
C46	C	0.945319	-0.491472	0.743885
C47	C	0.896331	-0.558586	0.699397
C48	C	0.899642	-0.554059	0.626415
C49	C	0.929984	-0.512445	0.961301
C50	C	0.926679	-0.516969	1.034288
C51	C	1.027960	-0.378217	1.050273
C52	C	1.031269	-0.373700	0.977288
C53	C	0.982278	-0.440810	0.932807
N54	N	0.941932	-0.496098	0.818486
N55	N	0.985662	-0.436179	0.858208
H56	H	0.688707	-0.597575	0.233841
H57	H	1.037501	-0.365189	0.751602
O58	O	0.562239	-0.363619	0.419591
C59	C	0.575244	-0.389891	0.487982
H60	H	0.588507	-0.472422	0.484900
H61	H	0.525931	-0.385876	0.521127
H62	H	0.621809	-0.332622	0.513219
O63	O	0.882341	-0.577484	0.918069
C64	C	0.843562	-0.517960	0.879077
H65	H	0.844964	-0.437290	0.908208
H66	H	0.786164	-0.558774	0.872420
H67	H	0.868197	-0.509684	0.825077
O68	O	1.014847	-0.852614	0.393430
C69	C	1.014334	-0.744615	0.392928
H70	H	0.994892	-0.727845	0.339234
H71	H	1.070363	-0.700290	0.403768
H72	H	0.977333	-0.718378	0.435374
O73	O	1.041897	-1.024798	0.422655
C74	C	1.110819	-1.046340	0.408275
H75	H	1.107104	-1.123858	0.374493
H76	H	1.139862	-1.051224	0.459851
H77	H	1.141223	-0.981360	0.378853
H78	H	0.920210	-1.070214	0.290706
O79	O	0.845622	-0.628280	0.727105
C80	C	0.878357	-0.696084	0.765145
H81	H	0.934426	-0.698021	0.745093
H82	H	0.846178	-0.777985	0.757657
H83	H	0.880935	-0.667074	0.823443
O84	O	0.852162	-0.619293	0.583121
C85	C	0.888730	-0.681886	0.536728
H86	H	0.945755	-0.641323	0.531505
H87	H	0.861157	-0.694329	0.482855
H88	H	0.888849	-0.760618	0.558307
O89	O	0.379641	-0.317112	0.456369
C90	C	0.451885	-0.326641	0.448776
H91	H	0.456382	-0.405215	0.419081
H92	H	0.478116	-0.321328	0.503011
H93	H	0.479575	-0.261086	0.418096
H94	H	0.226908	-0.567025	0.258162
H95	H	0.239431	-0.335032	0.442140
O96	O	1.082091	-0.304015	0.949725
C97	C	1.124626	-0.245767	1.004637
H98	H	1.093648	-0.247014	1.055674
H99	H	1.139877	-0.161717	0.991220
H100	H	1.174748	-0.281468	1.011419
O101	O	0.885750	-0.906711	0.253381
C102	C	0.853512	-0.835159	0.218378
H103	H	0.856048	-0.759247	0.253745
H104	H	0.795668	-0.869539	0.205571
H105	H	0.882748	-0.818831	0.167514
H106	H	1.067844	-0.323579	1.086497
O107	O	0.365805	-0.569202	0.256444
C108	C	0.314406	-0.628371	0.209507
H109	H	0.260257	-0.636830	0.235436
H110	H	0.329300	-0.708986	0.195595
H111	H	0.312100	-0.587146	0.159538
O112	O	1.051750	-0.345632	0.614840
C113	C	1.094283	-0.287385	0.669755
H114	H	1.063302	-0.288637	0.720791
H115	H	1.109533	-0.203334	0.656341
H116	H	1.144405	-0.323084	0.676538
O117	O	0.548562	-0.615704	0.219676
C118	C	0.498570	-0.688155	0.251456
H119	H	0.517770	-0.696879	0.306904
H120	H	0.492289	-0.766974	0.218906
H121	H	0.445229	-0.659199	0.254256
H122	H	0.884093	-0.575308	1.057488
H123	H	0.701230	-0.365589	0.417826
