data_functionalizedCrystal
_audit_creation_method	'MofGen! by Chris Wilmer'
_symmetry_space_group_name_H-M	'P1'
_symmetry_Int_Tables_number	1
_symmetry_cell_setting	triclinic
loop_
_symmetry_equiv_pos_as_xyz
  x,y,z
_cell_length_a	14.044191
_cell_length_b	14.044220
_cell_length_c	14.048226
_cell_angle_alpha	89.992807
_cell_angle_beta	89.996146
_cell_angle_gamma	93.190327
loop_
_atom_site_label
_atom_site_type_symbol
_atom_site_fract_x
_atom_site_fract_y
_atom_site_fract_z
O1	O	1.277175	0.230202	-0.079119
O2	O	1.777175	0.730202	0.420881
O3	O	1.000503	0.221889	-0.079131
O4	O	1.500503	0.721889	0.420869
O5	O	1.134686	0.087710	-0.079116
O6	O	1.634686	0.587710	0.420884
O7	O	1.142992	0.364382	-0.079134
O8	O	1.642992	0.864382	0.420866
O9	O	1.134668	0.087700	0.079206
O10	O	1.634668	0.587700	0.579206
O11	O	1.000484	0.221879	0.079191
O12	O	1.500484	0.721879	0.579191
O13	O	1.277157	0.230192	0.079202
O14	O	1.777157	0.730192	0.579202
Zn15	Zn	1.138818	0.226034	0.104333
Zn16	Zn	1.638818	0.726034	0.604333
Zn17	Zn	1.138842	0.226047	-0.104262
Zn18	Zn	1.638842	0.726047	0.395738
O19	O	1.142973	0.364372	0.079187
O20	O	1.642973	0.864372	0.579187
C21	C	0.964872	0.218248	0.000029
C22	C	1.464872	0.718248	0.500029
C23	C	0.858728	0.207401	0.000024
C24	C	1.358728	0.707401	0.500024
C25	C	0.613270	0.264501	0.000030
C26	C	1.113270	0.764501	0.500030
C27	C	0.664395	0.187585	0.000033
C28	C	1.164395	0.687585	0.500033
C29	C	0.772532	0.198613	0.000028
C30	C	1.272532	0.698613	0.500028
C31	C	0.505123	0.253474	0.000035
C32	C	1.005123	0.753474	0.500035
C33	C	1.131041	0.052083	0.000045
C34	C	1.631041	0.552083	0.500045
C35	C	1.120197	-0.054060	0.000046
C36	C	1.620197	0.445940	0.500046
C37	C	1.100370	-0.248398	0.000032
C38	C	1.600370	0.251602	0.500032
C39	C	1.177285	-0.299526	0.000032
C40	C	1.677285	0.200474	0.500032
C41	C	1.166253	-0.407663	0.000024
C42	C	1.666253	0.092337	0.500024
C43	C	1.111400	-0.140252	0.000040
C44	C	1.611400	0.359748	0.500040
C45	C	1.312788	0.233834	0.000041
C46	C	1.812788	0.733834	0.500041
C47	C	1.418931	0.244681	0.000039
C48	C	1.918931	0.744681	0.500039
C49	C	1.146618	0.399998	0.000024
C50	C	1.646618	0.899998	0.500024
C51	C	1.157463	0.506142	0.000017
C52	C	1.657463	1.006142	0.500017
N53	N	1.138808	0.226025	0.246694
N54	N	1.638808	0.726025	0.746694
N55	N	1.138858	0.226050	-0.246622
N56	N	1.638858	0.726050	0.253378
C57	C	1.198247	0.166639	0.296519
C58	C	1.698247	0.666639	0.796519
C59	C	1.198254	0.166639	0.396177
C60	C	1.698254	0.666639	0.896177
C61	C	1.138825	0.226031	0.446008
C62	C	1.638825	0.726031	0.946008
C63	C	1.079379	0.285419	0.396176
C64	C	1.579379	0.785419	0.896176
C65	C	1.079369	0.285414	0.296520
C66	C	1.579369	0.785414	0.796520
C67	C	1.079408	0.285429	0.603890
C68	C	1.579408	0.785429	1.103890
C69	C	1.079419	0.285436	0.703553
C70	C	1.579419	0.785436	1.203553
C71	C	1.198292	0.166654	0.703547
C72	C	1.698292	0.666654	1.203547
C73	C	1.198282	0.166648	0.603891
C74	C	1.698282	0.666648	1.103891
C75	C	1.138837	0.226038	0.554066
C76	C	1.638837	0.726038	1.054066
H77	H	1.251419	-0.262085	-0.000029
H78	H	1.751419	0.237915	0.499971
Cl79	Cl	0.671077	0.378949	0.000011
Cl80	Cl	1.171077	0.878949	0.500011
H81	H	1.031026	0.333798	0.744120
H82	H	1.531026	0.833798	1.244120
Cl83	Cl	0.985920	-0.306201	0.000022
Cl84	Cl	1.485920	0.193799	0.500022
H85	H	1.246645	0.118279	0.255953
H86	H	1.746645	0.618279	0.755953
Cl87	Cl	0.606590	0.073129	0.000040
Cl88	Cl	1.106590	0.573129	0.500040
H89	H	1.246652	0.118281	0.436743
H90	H	1.746652	0.618281	0.936743
H91	H	1.246677	0.118292	0.563319
H92	H	1.746677	0.618292	1.063319
H93	H	1.246694	0.118296	0.744120
H94	H	1.746694	0.618296	1.244120
Cl95	Cl	1.004672	0.360090	0.541257
Cl96	Cl	1.504672	0.860090	1.041257
Cl97	Cl	1.004663	0.360080	0.458818
Cl98	Cl	1.504663	0.860080	0.958818
H99	H	1.030966	0.333771	0.255954
H100	H	1.530966	0.833771	0.755954
