data_functionalizedCrystal
_audit_creation_method	'MofGen! by Chris Wilmer'
_symmetry_space_group_name_H-M	'P1'
_symmetry_Int_Tables_number	1
_symmetry_cell_setting	triclinic
loop_
_symmetry_equiv_pos_as_xyz
  x,y,z
_cell_length_a	17.666332
_cell_length_b	12.837943
_cell_length_c	19.188924
_cell_angle_alpha	91.014548
_cell_angle_beta	90.008552
_cell_angle_gamma	89.991984
loop_
_atom_site_label
_atom_site_type_symbol
_atom_site_fract_x
_atom_site_fract_y
_atom_site_fract_z
O1	O	0.062942	-1.374632	0.181454
O2	O	0.062946	-1.072867	0.172490
O3	O	0.062935	-1.232461	0.075913
O4	O	0.062953	-1.215037	0.278030
O5	O	-0.062962	-1.232433	0.075906
O6	O	-0.062950	-1.072839	0.172483
O7	O	-0.062955	-1.374604	0.181446
Cu8	Cu	-0.074448	-1.223719	0.176964
Cu9	Cu	0.074440	-1.223752	0.176973
O10	O	-0.062943	-1.215009	0.278023
C11	C	-0.000002	-1.034246	0.169458
C12	C	-0.000000	-0.919210	0.160428
N13	N	-0.179167	-1.223703	0.176957
C14	C	-0.000014	-1.231884	0.049860
C15	C	-0.000016	-1.230194	-0.027761
C16	C	-0.218782	-1.294394	0.134218
C17	C	-0.298030	-1.294400	0.134215
C18	C	-0.337659	-1.223725	0.176964
C19	C	-0.298035	-1.153021	0.219706
C20	C	-0.218789	-1.153010	0.219703
N21	N	-0.462073	-1.210251	0.237848
N22	N	-0.537353	-1.210268	0.237849
C23	C	-0.576423	-1.223752	0.176976
N24	N	-0.537370	-1.237240	0.116100
N25	N	-0.462082	-1.237228	0.116100
C26	C	-0.423589	-1.223729	0.176972
C27	C	-0.701967	-1.294454	0.134229
C28	C	-0.781217	-1.294453	0.134225
C29	C	-0.781221	-1.153078	0.219723
C30	C	-0.701973	-1.153074	0.219721
C31	C	-0.662351	-1.223768	0.176975
N32	N	0.179159	-1.223776	0.176974
C33	C	-0.000005	-1.413224	0.184478
C34	C	-0.000001	-1.528260	0.193509
C35	C	-0.000002	-0.677756	0.268995
C36	C	-0.000001	-0.569669	0.260513
C37	C	-0.000004	-0.594947	0.134982
C38	C	-0.000005	-0.703034	0.143464
C39	C	-0.000002	-0.744434	0.210473
C40	C	0.000003	-0.852523	0.218954
C41	C	-0.000006	-0.877800	0.093424
C42	C	-0.000005	-0.769713	0.084941
C43	C	0.068611	-1.229420	-0.064210
C44	C	0.068616	-1.227817	-0.137142
C45	C	-0.000008	-1.227009	-0.173624
C46	C	-0.068644	-1.227777	-0.137166
C47	C	-0.068648	-1.229370	-0.064234
N48	N	-0.051085	-1.283470	-0.289417
N49	N	-0.051076	-1.281960	-0.358699
C50	C	-0.000001	-1.222209	-0.393362
N51	N	0.051078	-1.164039	-0.356127
N52	N	0.051071	-1.165554	-0.286839
C53	C	-0.000012	-1.225282	-0.252706
C54	C	0.068637	-1.219696	-0.508893
C55	C	0.068640	-1.218087	-0.581827
C56	C	-0.068623	-1.218057	-0.581849
C57	C	-0.068624	-1.219655	-0.508916
C58	C	0.000008	-1.220480	-0.472443
C59	C	0.000007	-1.215586	0.304076
C60	C	0.000014	-1.217277	0.381697
H61	H	-0.186524	-1.351954	0.099410
H62	H	-0.000016	-0.735989	0.030385
C63	C	-0.677562	-1.091672	0.336484
C64	C	-0.658424	-1.075379	0.266711
H65	H	-0.650673	-1.043706	0.365494
H66	H	-0.730423	-1.081560	0.342597
H67	H	-0.664556	-1.160798	0.348682
H68	H	-0.671435	-1.006255	0.254512
H69	H	-0.605552	-1.085483	0.260595
C70	C	-0.322413	-1.091600	0.336469
C71	C	-0.341590	-1.075329	0.266697
H72	H	-0.349298	-1.043626	0.365477
H73	H	-0.335391	-1.160715	0.348677
H74	H	-0.269545	-1.081476	0.342573
H75	H	-0.394457	-1.085461	0.260592
H76	H	-0.328618	-1.006198	0.254486
H77	H	0.124526	-1.217451	-0.611502
C78	C	-0.204297	-1.218182	-0.574541
C79	C	-0.144058	-1.217163	-0.621940
H80	H	-0.250868	-1.217621	-0.599295
H81	H	-0.201446	-1.279220	-0.547404
H82	H	-0.201435	-1.158384	-0.544785
H83	H	-0.146917	-1.276966	-0.651693
H84	H	-0.146910	-1.156119	-0.649089
C85	C	-0.000004	-0.816676	0.342183
C86	C	0.000001	-0.898034	0.292609
H87	H	-0.000012	-0.844773	0.387655
H88	H	0.043897	-0.775056	0.336272
H89	H	-0.043910	-0.775035	0.336250
H90	H	0.043909	-0.939671	0.298539
H91	H	-0.043905	-0.939672	0.298523
H92	H	-0.124507	-1.220294	-0.479240
H93	H	-0.000069	-0.561220	0.080426
C94	C	-0.290074	-1.434148	0.049708
C95	C	-0.341586	-1.372106	0.087230
H96	H	-0.316964	-1.482121	0.020704
H97	H	-0.259179	-1.391129	0.021713
H98	H	-0.259151	-1.471284	0.081263
H99	H	-0.372505	-1.334964	0.055675
H100	H	-0.372494	-1.415130	0.115227
H101	H	-0.186534	-1.095443	0.254507
C102	C	-0.204318	-1.227900	-0.129864
C103	C	-0.144078	-1.226888	-0.177263
H104	H	-0.250889	-1.227341	-0.154619
H105	H	-0.201468	-1.288935	-0.102724
H106	H	-0.201456	-1.168099	-0.100111
H107	H	-0.146937	-1.286694	-0.207012
H108	H	-0.146930	-1.165846	-0.204414
H109	H	-0.000002	-0.932102	0.045770
C110	C	0.148261	-1.310618	-0.428814
C111	C	0.144081	-1.220619	-0.468806
H112	H	0.194842	-1.311197	-0.404075
H113	H	0.107401	-1.311299	-0.396660
H114	H	0.145389	-1.370395	-0.458588
H115	H	0.146947	-1.160842	-0.439031
H116	H	0.184953	-1.219929	-0.500963
H117	H	0.124502	-1.227181	-0.166825
C118	C	0.064722	-0.433465	0.323803
C119	C	0.000004	-0.496372	0.324842
H120	H	0.064721	-0.388211	0.363517
H121	H	0.108616	-0.476167	0.324511
H122	H	0.064713	-0.393341	0.282680
H123	H	0.000016	-0.536501	0.365962
H124	H	-0.043901	-0.453665	0.324140
H125	H	-0.124533	-1.229995	-0.034558
H126	H	0.124496	-1.230089	-0.034517
H127	H	-0.813471	-1.352015	0.099418
C128	C	-0.677507	-1.355898	0.017477
C129	C	-0.658377	-1.372146	0.087262
H130	H	-0.650584	-1.403858	-0.011510
H131	H	-0.730360	-1.366049	0.011340
H132	H	-0.664537	-1.286769	0.005272
H133	H	-0.671351	-1.441273	0.099469
H134	H	-0.605511	-1.362003	0.093403
C135	C	-0.805639	-0.973502	0.248704
C136	C	-0.824773	-1.075386	0.266713
H137	H	-0.832533	-0.925537	0.277711
H138	H	-0.752779	-0.963388	0.254823
H139	H	-0.818641	-0.962481	0.201366
H140	H	-0.811765	-1.086410	0.314050
H141	H	-0.877644	-1.085504	0.260599
H142	H	0.000002	-0.711464	0.323557
