data_functionalizedCrystal
_audit_creation_method	'MofGen! by Chris Wilmer'
_symmetry_space_group_name_H-M	'P1'
_symmetry_Int_Tables_number	1
_symmetry_cell_setting	triclinic
loop_
_symmetry_equiv_pos_as_xyz
  x,y,z
_cell_length_a	18.050591
_cell_length_b	18.050589
_cell_length_c	11.169409
_cell_angle_alpha	90.032850
_cell_angle_beta	90.028021
_cell_angle_gamma	90.024669
loop_
_atom_site_label
_atom_site_type_symbol
_atom_site_fract_x
_atom_site_fract_y
_atom_site_fract_z
Zn1	Zn	1.135353	-0.295670	0.678801
Zn2	Zn	1.135246	-0.419885	0.478116
Zn3	Zn	1.011154	-0.295705	0.478106
Zn4	Zn	1.011120	-0.419815	0.678732
O5	O	1.073218	-0.357769	0.578439
O6	O	1.239263	-0.312161	0.652212
O7	O	1.118754	-0.403456	0.310165
O8	O	1.027689	-0.191776	0.504754
O9	O	1.239185	-0.403422	0.504770
O10	O	1.118937	-0.191750	0.652203
O11	O	1.027585	-0.312222	0.310158
O12	O	0.907225	-0.312154	0.504687
O13	O	1.027631	-0.403302	0.846691
O14	O	0.907200	-0.403337	0.652086
O15	O	1.118904	-0.312093	0.846742
O16	O	1.118721	-0.523800	0.504703
O17	O	1.027527	-0.523749	0.652095
C18	C	0.880266	-0.357742	0.578379
C19	C	0.797721	-0.357749	0.578382
C20	C	0.548887	-0.308113	0.498416
C21	C	0.598329	-0.290014	0.607945
C22	C	0.500600	-0.357787	0.578480
C23	C	0.598240	-0.375832	0.468909
C24	C	0.646585	-0.357767	0.578426
C25	C	0.548955	-0.339654	0.688067
C26	C	0.548862	-0.425503	0.548957
C27	C	0.598281	-0.407430	0.658562
C28	C	0.416502	-0.357797	0.578509
C29	C	0.730682	-0.357757	0.578409
C30	C	1.073129	-0.550721	0.578419
C31	C	1.073158	-0.633266	0.578450
C32	C	1.023616	-0.832716	0.658574
C33	C	1.005508	-0.882166	0.549055
C34	C	1.073231	-0.784397	0.578466
C35	C	1.091375	-0.882028	0.687998
C36	C	1.073300	-0.930382	0.578491
C37	C	1.055088	-0.832760	0.468889
C38	C	1.140987	-0.832617	0.607906
C39	C	1.122905	-0.882045	0.498311
C40	C	1.073190	-0.700299	0.578453
C41	C	1.073342	-1.014478	0.578491
C42	C	1.266924	-0.357795	0.578500
C43	C	1.349470	-0.357807	0.578526
C44	C	1.073275	-0.357686	0.891481
C45	C	1.073300	-0.357651	1.024882
C46	C	1.073329	-0.164063	0.578485
C47	C	1.073376	-0.081517	0.578505
C48	C	1.073204	-0.357797	0.266614
C49	C	1.073324	-0.357623	0.133215
H50	H	0.619892	-0.391102	0.376269
C51	C	0.928145	-0.911571	0.515420
H52	H	0.892924	-0.894686	0.572406
H53	H	0.914938	-0.893977	0.438169
H54	H	0.928844	-0.964196	0.514963
H55	H	0.527118	-0.482761	0.523970
C56	C	1.034302	-0.803654	0.343731
H57	H	1.025676	-0.844313	0.291499
H58	H	0.990703	-0.774395	0.349188
H59	H	1.073713	-0.774305	0.313285
H60	H	0.981595	-0.811056	0.726223
H61	H	1.164893	-0.903568	0.430499
C62	C	1.218344	-0.803219	0.641560
H63	H	1.231143	-0.820065	0.719434
H64	H	1.253718	-0.820861	0.585441
H65	H	1.217893	-0.750595	0.640592
H66	H	1.106694	-0.903670	0.780618
H67	H	0.620043	-0.232737	0.632914
C68	C	0.519579	-0.251336	0.407101
H69	H	0.536518	-0.203239	0.428260
H70	H	0.537177	-0.263688	0.329481
H71	H	0.466954	-0.252046	0.407251
H72	H	0.527395	-0.324316	0.780734
C73	C	0.627403	-0.464164	0.750096
H74	H	0.610437	-0.451217	0.827842
H75	H	0.609717	-0.512130	0.729808
H76	H	0.680029	-0.464133	0.749125
