data_functionalizedCrystal
_audit_creation_method	'MofGen! by Chris Wilmer'
_symmetry_space_group_name_H-M	'P1'
_symmetry_Int_Tables_number	1
_symmetry_cell_setting	triclinic
loop_
_symmetry_equiv_pos_as_xyz
  x,y,z
_cell_length_a	8.497365
_cell_length_b	10.686285
_cell_length_c	10.686220
_cell_angle_alpha	89.654569
_cell_angle_beta	85.661520
_cell_angle_gamma	85.581624
loop_
_atom_site_label
_atom_site_type_symbol
_atom_site_fract_x
_atom_site_fract_y
_atom_site_fract_z
Zn1	Zn	-0.670953	-0.351837	-1.956275
Zn2	Zn	-0.385539	-0.561733	-1.972227
Zn3	Zn	-0.425716	-0.368084	-1.746466
Zn4	Zn	-0.667821	-0.577660	-1.762600
O5	O	-0.537507	-0.464829	-1.859392
O6	O	-0.617589	-0.366216	-2.133927
O7	O	-0.170101	-0.536179	-1.942203
O8	O	-0.476373	-0.190379	-1.760870
O9	O	-0.407897	-0.520425	-2.145646
O10	O	-0.656547	-0.178442	-1.915016
O11	O	-0.199619	-0.393906	-1.776337
O12	O	-0.473335	-0.409350	-1.573071
O13	O	-0.889004	-0.547570	-1.788368
O14	O	-0.651208	-0.563324	-1.584924
O15	O	-0.891306	-0.381659	-1.930660
O16	O	-0.404860	-0.739396	-1.957847
O17	O	-0.612250	-0.751097	-1.803835
C18	C	-0.503887	-0.790762	-1.884357
C19	C	-0.489546	-0.930189	-1.895152
C20	C	-0.566292	-0.489829	-1.533483
C21	C	-0.578641	-0.500554	-1.394060
C22	C	-0.127621	-0.464972	-1.859312
C23	C	0.051011	-0.464701	-1.859471
C24	C	-0.508611	-0.439732	-2.186573
C25	C	-0.496297	-0.429037	-2.325999
C26	C	-0.571291	-0.137619	-1.834364
C27	C	-0.585687	0.001818	-1.823698
H28	H	-0.678971	-0.949729	-1.754265
H29	H	-0.416350	-0.359603	-1.374391
O30	O	-0.684454	-0.592641	-1.330027
H31	H	-0.808340	-0.569375	-1.353527
H32	H	-0.396247	-0.978651	-1.964581
