data_functionalizedCrystal
_audit_creation_method	'MofGen! by Chris Wilmer'
_symmetry_space_group_name_H-M	'P1'
_symmetry_Int_Tables_number	1
_symmetry_cell_setting	triclinic
loop_
_symmetry_equiv_pos_as_xyz
  x,y,z
_cell_length_a	14.519709
_cell_length_b	10.654550
_cell_length_c	9.730223
_cell_angle_alpha	89.996328
_cell_angle_beta	89.996979
_cell_angle_gamma	95.917462
loop_
_atom_site_label
_atom_site_type_symbol
_atom_site_fract_x
_atom_site_fract_y
_atom_site_fract_z
O1	O	1.224719	-0.164622	0.114110
O2	O	0.956342	-0.184008	0.114152
O3	O	1.096701	0.008484	0.114122
O4	O	1.084360	-0.357114	0.114141
O5	O	1.096694	0.008487	-0.114458
O6	O	0.956335	-0.184005	-0.114428
O7	O	1.224711	-0.164618	-0.114470
Zn8	Zn	1.090522	-0.174311	-0.150741
Zn9	Zn	1.090532	-0.174315	0.150423
O10	O	1.084353	-0.357110	-0.114439
C11	C	0.921974	-0.183103	-0.000132
C12	C	0.819579	-0.180396	-0.000116
C13	C	1.095791	0.055275	-0.000167
C14	C	1.093080	0.194692	-0.000165
N15	N	1.090522	-0.174307	-0.356277
C16	C	0.444631	-0.170428	-0.000179
C17	C	0.548954	-0.173196	-0.000162
C18	C	0.632102	-0.175412	-0.000147
C19	C	0.736431	-0.178180	-0.000131
C20	C	1.259079	-0.165524	-0.000182
C21	C	1.361475	-0.168231	-0.000189
C22	C	1.085262	-0.403901	-0.000147
C23	C	1.087973	-0.543318	-0.000140
C24	C	1.175721	0.274972	-0.000177
C25	C	1.173168	0.405968	-0.000160
C26	C	1.005326	0.376391	-0.000124
C27	C	1.007880	0.245397	-0.000131
C28	C	1.152699	-0.089104	-0.572109
C29	C	1.152693	-0.089105	-0.428226
C30	C	1.028359	-0.259522	-0.428219
C31	C	1.028370	-0.259525	-0.572099
N32	N	1.090539	-0.174309	0.355960
H33	H	1.245096	0.233692	-0.000202
Cl34	Cl	1.277065	0.506887	-0.000173
Cl35	Cl	0.898223	0.440145	-0.000082
H36	H	0.940579	0.180029	-0.000117
H37	H	1.203321	-0.019717	-0.630680
Cl38	Cl	1.230842	0.018012	-0.337801
H39	H	0.977742	-0.328901	-0.369630
Cl40	Cl	0.950225	-0.366655	-0.662536
