data_functionalizedCrystal
_audit_creation_method	'MofGen! by Chris Wilmer'
_symmetry_space_group_name_H-M	'P1'
_symmetry_Int_Tables_number	1
_symmetry_cell_setting	triclinic
loop_
_symmetry_equiv_pos_as_xyz
  x,y,z
_cell_length_a	16.992694
_cell_length_b	16.974813
_cell_length_c	16.776229
_cell_angle_alpha	86.338786
_cell_angle_beta	89.998654
_cell_angle_gamma	87.024634
loop_
_atom_site_label
_atom_site_type_symbol
_atom_site_fract_x
_atom_site_fract_y
_atom_site_fract_z
O1	O	1.040214	0.167652	-0.077001
O2	O	0.811931	0.165812	-0.076906
O3	O	0.932436	0.052030	-0.069550
O4	O	0.919709	0.281434	-0.084357
O5	O	0.932420	0.052022	0.063027
O6	O	0.811915	0.165804	0.055671
O7	O	1.040198	0.167643	0.055576
Zn8	Zn	0.926054	0.166722	0.076673
Zn9	Zn	0.926075	0.166733	-0.098003
O10	O	0.919693	0.281425	0.048220
C11	C	0.782713	0.163442	-0.010468
C12	C	0.695676	0.156382	-0.010022
C13	C	0.645362	0.224498	-0.014418
C14	C	0.563583	0.217860	-0.013978
C15	C	0.532119	0.143106	-0.009148
C16	C	0.582439	0.074985	-0.004750
C17	C	0.664217	0.081624	-0.005183
C18	C	0.288551	0.115591	-0.007351
C19	C	0.206766	0.108957	-0.006920
C20	C	0.187916	0.251834	-0.016147
C21	C	0.269696	0.258466	-0.016585
C22	C	0.320009	0.190345	-0.012182
N23	N	0.448527	0.136319	-0.008701
N24	N	0.403599	0.197132	-0.012623
C25	C	0.931944	0.022537	-0.001360
C26	C	0.930491	-0.065332	0.004306
C27	C	0.929819	-0.106603	-0.065300
C28	C	0.928450	-0.189165	-0.059973
C29	C	0.927757	-0.230454	0.014959
C30	C	0.928427	-0.189176	0.084570
C31	C	0.929791	-0.106616	0.079243
C32	C	0.923671	-0.477374	0.038640
C33	C	0.922309	-0.559941	0.043962
C34	C	0.922331	-0.559924	-0.100582
C35	C	0.923700	-0.477362	-0.105902
C36	C	0.924365	-0.436091	-0.036291
N37	N	0.926360	-0.314846	0.020405
N38	N	0.925757	-0.351701	-0.041738
C39	C	1.069416	0.170014	-0.010864
C40	C	1.156453	0.177073	-0.011316
C41	C	0.920185	0.310919	-0.019972
C42	C	0.921638	0.398787	-0.025643
N43	N	0.926045	0.166714	0.195884
N44	N	0.926090	0.166735	-0.217215
C45	C	0.979421	0.116355	0.240857
C46	C	0.979426	0.116355	0.324310
C47	C	0.926057	0.166718	0.362787
C48	C	0.872675	0.217080	0.317808
C49	C	0.872668	0.217076	0.234358
C50	C	0.872704	0.217097	0.654354
C51	C	0.872717	0.217099	0.737811
C52	C	0.979461	0.116376	0.744306
C53	C	0.979454	0.116372	0.660856
C54	C	0.926070	0.166730	0.615884
C55	C	0.926065	0.166729	0.525396
C56	C	0.926065	0.166724	0.453274
H57	H	0.295308	0.319339	-0.020527
Cl58	Cl	0.805579	0.280392	0.366178
H59	H	0.924229	-0.443783	0.095322
Cl60	Cl	0.805561	0.280385	0.177821
Cl61	Cl	1.046521	0.053040	0.192494
Cl62	Cl	0.930695	-0.054706	-0.159505
H63	H	0.927906	-0.222765	-0.116653
Cl64	Cl	0.921493	-0.611812	-0.188086
H65	H	0.670974	0.285371	-0.018351
H66	H	0.829255	0.258113	0.769137
Cl67	Cl	0.500334	0.303496	-0.019510
Cl68	Cl	0.351790	0.029952	-0.001817
H69	H	0.556814	0.014118	-0.000806
H70	H	0.829238	0.258102	0.617745
H71	H	1.022914	0.075364	0.629530
Cl72	Cl	1.046571	0.053064	0.800846
Cl73	Cl	0.124662	0.337465	-0.021679
H74	H	0.181152	0.048080	-0.002987
H75	H	0.924264	-0.443750	-0.166920
Cl76	Cl	0.921444	-0.611846	0.138170
Cl77	Cl	0.927547	-0.241082	0.178771
H78	H	0.705182	0.026156	-0.001604
H79	H	0.930327	-0.073013	0.135923
H80	H	1.022888	0.075348	0.360926
