data_functionalizedCrystal
_audit_creation_method	'MofGen! by Chris Wilmer'
_symmetry_space_group_name_H-M	'P1'
_symmetry_Int_Tables_number	1
_symmetry_cell_setting	triclinic
loop_
_symmetry_equiv_pos_as_xyz
  x,y,z
_cell_length_a	17.077404
_cell_length_b	13.897448
_cell_length_c	17.077396
_cell_angle_alpha	89.971029
_cell_angle_beta	89.982940
_cell_angle_gamma	90.017917
loop_
_atom_site_label
_atom_site_type_symbol
_atom_site_fract_x
_atom_site_fract_y
_atom_site_fract_z
Zn1	Zn	1.200064	-0.383994	-0.443849
Zn2	Zn	1.700064	0.116006	0.056151
Zn3	Zn	1.199989	-0.545311	-0.312585
Zn4	Zn	1.699989	-0.045311	0.187415
Zn5	Zn	1.068801	-0.384032	-0.312597
Zn6	Zn	1.568801	0.115968	0.187403
Zn7	Zn	1.068776	-0.545249	-0.443809
Zn8	Zn	1.568776	-0.045249	0.056191
O9	O	1.134407	-0.464647	-0.378210
O10	O	1.634407	0.035353	0.121790
O11	O	1.309901	-0.405403	-0.426448
O12	O	1.809901	0.094597	0.073552
O13	O	1.182566	-0.523959	-0.202740
O14	O	1.682566	-0.023959	0.297260
O15	O	1.086256	-0.249045	-0.330029
O16	O	1.586256	0.250955	0.169971
O17	O	1.309846	-0.523922	-0.330010
O18	O	1.809846	-0.023922	0.169990
O19	O	1.182694	-0.249017	-0.426459
O20	O	1.682694	0.250983	0.073541
O21	O	1.086183	-0.405468	-0.202748
O22	O	1.586183	0.094532	0.297252
O23	O	0.958951	-0.405408	-0.329990
O24	O	1.458951	0.094592	0.170010
O25	O	1.086212	-0.523816	-0.553661
O26	O	1.586212	-0.023816	-0.053661
O27	O	0.958932	-0.523854	-0.426391
O28	O	1.458932	-0.023854	0.073609
O29	O	1.182669	-0.405343	-0.553690
O30	O	1.682669	0.094657	-0.053690
O31	O	1.182541	-0.680284	-0.329971
O32	O	1.682541	-0.180284	0.170029
O33	O	1.086139	-0.680239	-0.426380
O34	O	1.586139	-0.180239	0.073620
C35	C	0.930460	-0.464629	-0.378188
C36	C	1.430460	0.035371	0.121812
C37	C	0.843210	-0.464645	-0.378198
C38	C	1.343210	0.035355	0.121802
C39	C	0.802230	-0.526412	-0.428313
C40	C	1.302230	-0.026412	0.071687
C41	C	0.720250	-0.526415	-0.428326
C42	C	1.220250	-0.026415	0.071674
C43	C	0.679250	-0.464653	-0.378218
C44	C	1.179250	0.035347	0.121782
C45	C	0.720236	-0.402879	-0.328100
C46	C	1.220236	0.097121	0.171900
C47	C	0.802215	-0.402873	-0.328092
C48	C	1.302215	0.097127	0.171908
C49	C	0.549366	-0.402898	-0.328119
C50	C	1.049366	0.097102	0.171881
C51	C	0.467381	-0.402905	-0.328126
C52	C	0.967381	0.097095	0.171874
C53	C	0.467401	-0.526440	-0.428353
C54	C	0.967401	-0.026440	0.071647
C55	C	0.549380	-0.526433	-0.428345
C56	C	1.049380	-0.026433	0.071655
C57	C	0.590359	-0.464660	-0.378226
C58	C	1.090359	0.035340	0.121774
C59	C	1.134350	-0.715261	-0.378187
C60	C	1.634350	-0.215261	0.121813
C61	C	1.134397	-0.822475	-0.378204
C62	C	1.634397	-0.322475	0.121796
C63	C	1.134480	-1.018770	-0.378253
C64	C	1.634480	-0.518770	0.121747
C65	C	1.134432	-0.909537	-0.378228
C66	C	1.634432	-0.409537	0.121772
C67	C	1.339152	-0.464665	-0.378232
C68	C	1.839152	0.035335	0.121768
C69	C	1.426401	-0.464673	-0.378242
C70	C	1.926401	0.035327	0.121758
C71	C	1.134446	-0.464568	-0.582954
C72	C	1.634446	0.035432	-0.082954
C73	C	1.134463	-0.464535	-0.670204
C74	C	1.634463	0.035465	-0.170204
C75	C	1.134486	-0.213054	-0.378250
C76	C	1.634486	0.286946	0.121750
C77	C	1.134520	-0.105840	-0.378267
C78	C	1.634520	0.394160	0.121733
C79	C	1.184721	-0.526121	-1.046017
C80	C	1.684721	-0.026121	-0.546017
C81	C	1.184701	-0.526149	-0.964036
C82	C	1.684701	-0.026149	-0.464036
C83	C	1.134513	-0.464467	-0.923053
C84	C	1.634513	0.035533	-0.423053
C85	C	1.084337	-0.402760	-0.964055
C86	C	1.584337	0.097240	-0.464055
C87	C	1.084353	-0.402737	-1.046034
C88	C	1.584353	0.097263	-0.546034
C89	C	1.084307	-0.402809	-0.793185
C90	C	1.584307	0.097191	-0.293185
C91	C	1.084292	-0.402831	-0.711200
C92	C	1.584292	0.097169	-0.211200
C93	C	1.184655	-0.526221	-0.711187
C94	C	1.684655	-0.026221	-0.211187
C95	C	1.184671	-0.526199	-0.793166
C96	C	1.684671	-0.026199	-0.293166
C97	C	1.134496	-0.464490	-0.834162
C98	C	1.634496	0.035510	-0.334162
C99	C	1.134414	-0.464655	-0.174262
C100	C	1.634414	0.035345	0.325738
C101	C	1.134550	-0.464416	-0.087013
C102	C	1.634550	0.035584	0.412987
H103	H	0.835606	-0.576709	-0.469114
H104	H	1.335606	-0.076709	0.030886
H105	H	1.043427	-0.352601	-0.677834
H106	H	1.543427	0.147399	-0.177834
H107	H	0.686888	-0.576713	-0.469134
H108	H	1.186888	-0.076713	0.030866
H109	H	0.582759	-0.576730	-0.469142
H110	H	1.082759	-0.076730	0.030858
H111	H	0.582729	-0.352587	-0.287314
H112	H	1.082729	0.147413	0.212686
H113	H	1.225510	-0.576467	-0.677804
H114	H	1.725510	-0.076467	-0.177804
H115	H	0.686847	-0.352587	-0.287305
H116	H	1.186847	0.147413	0.212695
H117	H	0.835579	-0.352570	-0.287287
H118	H	1.335579	0.147430	0.212713
O119	O	0.427687	-0.586401	-0.477150
O120	O	0.927687	-0.086401	0.022850
C121	C	0.447743	-0.565433	-0.555415
C122	C	0.947743	-0.065433	-0.055415
H123	H	0.507272	-0.528348	-0.557089
H124	H	1.007272	-0.028348	-0.057089
H125	H	0.450553	-0.635107	-0.590507
H126	H	0.950553	-0.135107	-0.090507
H127	H	0.401625	-0.515892	-0.581937
H128	H	0.901625	-0.015892	-0.081937
O129	O	1.035678	-0.342816	-0.833095
O130	O	1.535678	0.157184	-0.333095
C131	C	1.080405	-0.280495	-0.880517
C132	C	1.580405	0.219505	-0.380517
H133	H	1.139881	-0.314525	-0.892796
H134	H	1.639881	0.185475	-0.392796
H135	H	1.048448	-0.267543	-0.938164
H136	H	1.548448	0.232457	-0.438164
H137	H	1.089052	-0.209024	-0.848938
H138	H	1.589052	0.290976	-0.348938
O139	O	0.427674	-0.342815	-0.279432
O140	O	0.927674	0.157185	0.220568
C141	C	0.481420	-0.288302	-0.235185
C142	C	0.981420	0.211698	0.264815
H143	H	0.539872	-0.285005	-0.267334
H144	H	1.039872	0.214995	0.232666
H145	H	0.457741	-0.212293	-0.226930
H146	H	0.957741	0.287707	0.273070
H147	H	0.490108	-0.323523	-0.175513
H148	H	0.990108	0.176477	0.324487
H149	H	1.225593	-0.576345	-1.079379
H150	H	1.725593	-0.076345	-0.579379
O151	O	1.233319	-0.586151	-0.833070
O152	O	1.733319	-0.086151	-0.333070
C153	C	1.188620	-0.648445	-0.880463
C154	C	1.688620	-0.148445	-0.380463
H155	H	1.129141	-0.614423	-0.892737
H156	H	1.629141	-0.114423	-0.392737
H157	H	1.220598	-0.661340	-0.938116
H158	H	1.720598	-0.161340	-0.438116
H159	H	1.179976	-0.719945	-0.848863
H160	H	1.679976	-0.219945	-0.348863
H161	H	1.225545	-0.576407	-0.930661
H162	H	1.725545	-0.076407	-0.430661
H163	H	1.043470	-0.352542	-0.930680
H164	H	1.543470	0.147458	-0.430680
O165	O	1.035509	-0.342843	-1.085773
O166	O	1.535509	0.157157	-0.585773
C167	C	0.957262	-0.363936	-1.065742
C168	C	1.457262	0.136064	-0.565742
H169	H	0.955612	-0.401031	-1.006210
H170	H	1.455612	0.098969	-0.506210
H171	H	0.922086	-0.294317	-1.062950
H172	H	1.422086	0.205683	-0.562950
H173	H	0.930815	-0.413513	-1.111865
H174	H	1.430815	0.086487	-0.611865
