data_functionalizedCrystal
_audit_creation_method	'MofGen! by Chris Wilmer'
_symmetry_space_group_name_H-M	'P1'
_symmetry_Int_Tables_number	1
_symmetry_cell_setting	triclinic
loop_
_symmetry_equiv_pos_as_xyz
  x,y,z
_cell_length_a	15.944551
_cell_length_b	15.021413
_cell_length_c	15.944493
_cell_angle_alpha	90.009890
_cell_angle_beta	83.486891
_cell_angle_gamma	89.997174
loop_
_atom_site_label
_atom_site_type_symbol
_atom_site_fract_x
_atom_site_fract_y
_atom_site_fract_z
O1	O	1.114506	-0.073927	0.108324
O2	O	1.614506	0.426073	0.608324
O3	O	0.869954	-0.073948	0.121680
O4	O	1.369954	0.426052	0.621680
O5	O	0.998934	-0.073945	-0.007276
O6	O	1.498934	0.426055	0.492724
O7	O	0.985527	-0.073931	0.237280
O8	O	1.485527	0.426069	0.737280
O9	O	0.998913	0.074120	-0.007258
O10	O	1.498913	0.574120	0.492742
O11	O	0.869933	0.074116	0.121699
O12	O	1.369933	0.574116	0.621699
O13	O	1.114486	0.074137	0.108342
O14	O	1.614486	0.574137	0.608342
Zn15	Zn	0.992206	0.097635	0.115023
Zn16	Zn	1.492206	0.597635	0.615023
Zn17	Zn	0.992233	-0.097446	0.114999
Zn18	Zn	1.492233	0.402554	0.614999
O19	O	0.985506	0.074133	0.237299
O20	O	1.485506	0.574133	0.737299
C21	C	0.838650	0.000081	0.121135
C22	C	1.338650	0.500081	0.621135
C23	C	0.745404	0.000073	0.119473
C24	C	1.245404	0.500073	0.619473
N25	N	0.992194	0.230772	0.115039
N26	N	1.492194	0.730772	0.615039
C27	C	0.998375	0.000084	-0.038562
C28	C	1.498375	0.500084	0.461438
C29	C	0.996733	0.000072	-0.131810
C30	C	1.496733	0.500072	0.368190
C31	C	0.530565	0.000085	0.035566
C32	C	1.030565	0.500085	0.535566
C33	C	0.469547	-0.072916	0.074520
C34	C	0.969547	0.427084	0.574520
C35	C	0.574679	0.000083	0.116465
C36	C	1.074679	0.500083	0.616465
C37	C	0.469549	0.073064	0.074558
C38	C	0.969549	0.573064	0.574558
C39	C	0.409767	0.000097	0.113555
C40	C	0.909767	0.500097	0.613555
C41	C	0.514889	-0.072979	0.155442
C42	C	1.014889	0.427021	0.655442
C43	C	0.514897	0.073067	0.155468
C44	C	1.014897	0.573067	0.655468
C45	C	0.453897	0.000048	0.194481
C46	C	0.953897	0.500048	0.694481
C47	C	0.669681	0.000074	0.118140
C48	C	1.169681	0.500074	0.618140
C49	C	0.314766	0.000099	0.111886
C50	C	0.814766	0.500099	0.611886
C51	C	1.145790	0.000106	0.108888
C52	C	1.645790	0.500106	0.608888
C53	C	1.239036	0.000108	0.110550
C54	C	1.739036	0.500108	0.610550
N55	N	0.992252	-0.230584	0.114976
N56	N	1.492252	0.269416	0.614976
C57	C	0.932545	0.470454	0.174641
C58	C	1.432545	0.970454	0.674641
C59	C	1.008442	0.529796	0.190948
C60	C	1.508442	1.029796	0.690948
C61	C	0.992215	0.412379	0.115018
C62	C	1.492215	0.912379	0.615018
C63	C	0.916339	0.529779	0.098730
C64	C	1.416339	1.029779	0.598730
C65	C	0.992229	0.587803	0.115000
C66	C	1.492229	1.087803	0.615000
C67	C	1.068151	0.470415	0.131364
C68	C	1.568151	0.970415	0.631364
C69	C	0.975998	0.470392	0.039112
C70	C	1.475998	0.970392	0.539112
C71	C	1.051950	0.529708	0.055387
C72	C	1.551950	1.029708	0.555387
C73	C	0.992206	0.311322	0.115031
C74	C	1.492206	0.811322	0.615031
C75	C	0.992247	0.688859	0.114987
C76	C	1.492247	1.188859	0.614987
C77	C	1.072653	0.000095	-0.367570
C78	C	1.572653	0.500095	0.132430
C79	C	1.031722	-0.072911	-0.418147
C80	C	1.531722	0.427089	0.081853
C81	C	0.993688	0.000083	-0.302531
C82	C	1.493688	0.500083	0.197469
C83	C	1.031683	0.073069	-0.418105
C84	C	1.531683	0.573069	0.081895
C85	C	0.990754	0.000097	-0.467441
C86	C	1.490754	0.500097	0.032559
C87	C	0.952779	-0.072984	-0.351880
C88	C	1.452779	0.427016	0.148120
C89	C	0.952752	0.073061	-0.351835
C90	C	1.452752	0.573061	0.148165
C91	C	0.911763	0.000037	-0.402379
C92	C	1.411763	0.500037	0.097621
C93	C	0.995381	0.000074	-0.207531
C94	C	1.495381	0.500074	0.292469
C95	C	0.989055	0.000100	-0.562438
C96	C	1.489055	0.500100	-0.062438
C97	C	0.986064	0.000103	0.268584
C98	C	1.486064	0.500103	0.768584
C99	C	0.987707	0.000109	0.361833
C100	C	1.487707	0.500109	0.861833
H101	H	0.563912	-0.000009	-0.031574
H102	H	1.063912	0.499991	0.468426
F103	F	1.152050	0.436479	0.149459
F104	F	1.652050	0.936479	0.649459
H105	H	1.022171	0.555888	0.255133
H106	H	1.522171	1.055888	0.755133
F107	F	0.541192	0.153745	0.200166
F108	F	1.041192	0.653745	0.700166
F109	F	1.117985	0.563506	-0.010530
F110	F	1.617985	1.063506	0.489470
H111	H	0.962245	0.444279	-0.025052
H112	H	1.462245	0.944279	0.474948
F113	F	1.161556	0.000010	-0.347140
F114	F	1.661556	0.500010	0.152860
F115	F	1.075280	0.153739	-0.455908
F116	F	1.575280	0.653739	0.044092
F117	F	0.832461	0.563864	0.080731
F118	F	1.332461	1.063864	0.580731
H119	H	0.882134	0.444437	0.225102
H120	H	1.382134	0.944437	0.725102
F121	F	0.443283	-0.153592	0.029789
F122	F	0.943283	0.346408	0.529789
H123	H	1.065078	-0.134628	-0.447101
H124	H	1.565078	0.365372	0.052899
H125	H	0.420724	0.000011	0.261690
H126	H	0.920724	0.500011	0.761690
F127	F	0.443294	0.153731	0.029826
F128	F	0.943294	0.653731	0.529826
F129	F	0.909229	-0.153747	-0.314224
F130	F	1.409229	0.346253	0.185776
H131	H	0.534878	-0.134763	0.189626
H132	H	1.034878	0.365237	0.689626
F133	F	0.822791	-0.000020	-0.422597
F134	F	1.322791	0.499980	0.077403
F135	F	0.909203	0.153733	-0.313954
F136	F	1.409203	0.653733	0.186046
