data_functionalizedCrystal
_audit_creation_method	'MofGen! by Chris Wilmer'
_symmetry_space_group_name_H-M	'P1'
_symmetry_Int_Tables_number	1
_symmetry_cell_setting	triclinic
loop_
_symmetry_equiv_pos_as_xyz
  x,y,z
_cell_length_a	14.971494
_cell_length_b	14.044191
_cell_length_c	13.448316
_cell_angle_alpha	89.995859
_cell_angle_beta	89.995115
_cell_angle_gamma	88.404667
loop_
_atom_site_label
_atom_site_type_symbol
_atom_site_fract_x
_atom_site_fract_y
_atom_site_fract_z
O1	O	0.215693	1.257963	-0.082636
O2	O	0.549027	1.591296	0.250697
O3	O	0.882360	1.924629	0.584030
O4	O	0.207905	0.981984	-0.082649
O5	O	0.541238	1.315317	0.250684
O6	O	0.874571	1.648651	0.584017
O7	O	0.082182	1.127366	-0.082640
O8	O	0.415515	1.460699	0.250693
O9	O	0.748849	1.794033	0.584026
O10	O	0.341416	1.112580	-0.082645
O11	O	0.674749	1.445914	0.250688
O12	O	1.008083	1.779247	0.584021
O13	O	0.082172	1.127348	0.082744
O14	O	0.415506	1.460681	0.416077
O15	O	0.748839	1.794014	0.749410
O16	O	0.207895	0.981966	0.082735
O17	O	0.541228	1.315299	0.416068
O18	O	0.874561	1.648632	0.749401
O19	O	0.215684	1.257944	0.082747
O20	O	0.549017	1.591278	0.416081
O21	O	0.882350	1.924611	0.749414
Cu22	Cu	0.211788	1.119953	0.097842
Cu23	Cu	0.545122	1.453287	0.431175
Cu24	Cu	0.878455	1.786620	0.764508
Cu25	Cu	0.211800	1.119975	-0.097744
Cu26	Cu	0.545133	1.453308	0.235590
Cu27	Cu	0.878467	1.786642	0.568923
O28	O	0.341406	1.112562	0.082738
O29	O	0.674740	1.445896	0.416072
O30	O	1.008073	1.779229	0.749405
C31	C	0.204492	0.946656	0.000041
C32	C	0.537826	1.279990	0.333374
C33	C	0.871159	1.613323	0.666708
C34	C	0.194329	0.841419	0.000036
C35	C	0.527662	1.174752	0.333369
C36	C	0.860995	1.508085	0.666703
C37	C	0.247830	0.591194	0.000045
C38	C	0.581164	0.924528	0.333378
C39	C	0.914497	1.257861	0.666711
C40	C	0.175762	0.648739	0.000045
C41	C	0.509095	0.982073	0.333378
C42	C	0.842429	1.315406	0.666711
C43	C	0.186095	0.755956	0.000040
C44	C	0.519428	1.089289	0.333373
C45	C	0.852762	1.422623	0.666706
C46	C	0.237499	0.483968	0.000050
C47	C	0.570832	0.817301	0.333383
C48	C	0.904165	1.150635	0.666716
C49	C	0.048800	1.126694	0.000050
C50	C	0.382134	1.460028	0.333383
C51	C	0.715467	1.793361	0.666717
C52	C	-0.050653	1.124708	0.000045
C53	C	0.282680	1.458042	0.333379
C54	C	0.616014	1.791375	0.666712
C55	C	-0.097366	1.123788	-0.090107
C56	C	0.235968	1.457121	0.243227
C57	C	0.569301	1.790454	0.576560
C58	C	-0.190812	1.121916	-0.090108
C59	C	0.142521	1.455249	0.243225
C60	C	0.475855	1.788582	0.576559
C61	C	-0.237545	1.120971	0.000044
C62	C	0.095789	1.454305	0.333377
C63	C	0.429122	1.787638	0.666710
C64	C	-0.190825	1.121889	0.090203
C65	C	0.142508	1.455223	0.423536
C66	C	0.475841	1.788556	0.756869
C67	C	-0.097380	1.123755	0.090203
C68	C	0.235953	1.457088	0.423536
C69	C	0.569287	1.790421	0.756870
C70	C	-0.385595	1.118004	0.090196
C71	C	-0.052261	1.451337	0.423529
C72	C	0.281072	1.784671	0.756862
C73	C	-0.479046	1.116141	0.090196
C74	C	-0.145713	1.449474	0.423529
C75	C	0.187620	1.782807	0.756863
C76	C	-0.479027	1.116165	-0.090115
C77	C	-0.145693	1.449499	0.243218
C78	C	0.187640	1.782832	0.576552
C79	C	-0.385581	1.118030	-0.090115
C80	C	-0.052248	1.451364	0.243219
C81	C	0.281085	1.784697	0.576552
C82	C	-0.338869	1.118950	0.000045
C83	C	-0.005535	1.452283	0.333378
C84	C	0.327798	1.785617	0.666711
C85	C	0.374788	1.113234	0.000046
C86	C	0.708121	1.446567	0.333379
C87	C	1.041455	1.779901	0.666713
C88	C	0.474241	1.115220	0.000044
C89	C	0.807574	1.448553	0.333377
C90	C	1.140908	1.781886	0.666711
C91	C	0.219096	1.293272	0.000055
C92	C	0.552429	1.626605	0.333388
C93	C	0.885763	1.959939	0.666722
C94	C	0.229259	1.398510	0.000053
C95	C	0.562593	1.731843	0.333387
C96	C	0.895926	2.065176	0.666720
N97	N	0.211780	1.119945	0.235406
N98	N	0.545113	1.453278	0.568739
N99	N	0.878447	1.786612	0.902073
N100	N	0.211802	1.119991	-0.235308
N101	N	0.545135	1.453324	0.098025
N102	N	0.878468	1.786657	0.431359
C103	C	0.156137	1.184340	0.287450
C104	C	0.489470	1.517674	0.620784
C105	C	0.822803	1.851007	0.954117
C106	C	0.156136	1.184346	0.391554
C107	C	0.489470	1.517680	0.724887
C108	C	0.822803	1.851013	1.058220
C109	C	0.211785	1.119961	0.443611
C110	C	0.545118	1.453294	0.776944
C111	C	0.878451	1.786627	1.110277
C112	C	0.267431	1.055559	0.391559
C113	C	0.600764	1.388892	0.724892
C114	C	0.934097	1.722225	1.058226
C115	C	0.267426	1.055549	0.287458
C116	C	0.600759	1.388882	0.620791
C117	C	0.934092	1.722216	0.954124
C118	C	0.267439	1.055585	0.608539
C119	C	0.600772	1.388918	0.941872
C120	C	0.934105	1.722252	1.275206
C121	C	0.267445	1.055596	0.712648
C122	C	0.600778	1.388929	1.045981
C123	C	0.934112	1.722262	1.379314
C124	C	0.156150	1.184382	0.712635
C125	C	0.489483	1.517716	1.045968
C126	C	0.822816	1.851049	1.379302
C127	C	0.156144	1.184373	0.608534
C128	C	0.489478	1.517706	0.941867
C129	C	0.822811	1.851039	1.275200
C130	C	0.211792	1.119971	0.556489
C131	C	0.545125	1.453305	0.889823
C132	C	0.878458	1.786638	1.223156
H133	H	-0.059323	1.124562	-0.163519
H134	H	0.274011	1.457895	0.169815
H135	H	0.607344	1.791228	0.503148
Br136	Br	0.363596	0.643288	0.000032
Br137	Br	0.696929	0.976621	0.333366
Br138	Br	1.030263	1.309954	0.666699
Br139	Br	0.059989	0.596649	0.000049
Br140	Br	0.393322	0.929982	0.333382
Br141	Br	0.726655	1.263316	0.666716
Br142	Br	-0.254205	1.120665	-0.212462
Br143	Br	0.079129	1.453998	0.120871
Br144	Br	0.412462	1.787331	0.454204
Br145	Br	-0.254246	1.120592	0.212553
Br146	Br	0.079087	1.453925	0.545887
Br147	Br	0.412421	1.787259	0.879220
H148	H	-0.517093	1.115364	0.163605
H149	H	-0.183760	1.448697	0.496939
H150	H	0.149574	1.782030	0.830272
H151	H	-0.347535	1.118806	-0.163524
H152	H	-0.014201	1.452140	0.169809
H153	H	0.319132	1.785473	0.503143
H154	H	0.110836	1.236804	0.566149
H155	H	0.444170	1.570138	0.899482
H156	H	0.777503	1.903471	1.232816
H157	H	0.312759	1.003165	0.755027
H158	H	0.646092	1.336499	1.088361
H159	H	0.979426	1.669832	1.421694
H160	H	0.312749	1.003139	0.566168
H161	H	0.646083	1.336473	0.899501
H162	H	0.979416	1.669806	1.232835
H163	H	-0.517064	1.115414	-0.163526
H164	H	-0.183731	1.448748	0.169807
H165	H	0.149602	1.782081	0.503141
Br166	Br	-0.033983	1.124999	0.212557
Br167	Br	0.299351	1.458332	0.545890
Br168	Br	0.632684	1.791666	0.879223
H169	H	0.312737	1.003130	0.433950
H170	H	0.646071	1.336463	0.767283
H171	H	0.979404	1.669797	1.100617
Br172	Br	0.342939	0.968145	0.216826
Br173	Br	0.676272	1.301479	0.550159
Br174	Br	1.009605	1.634812	0.883493
Br175	Br	-0.322199	1.119254	0.212556
Br176	Br	0.011134	1.452587	0.545889
Br177	Br	0.344468	1.785920	0.879223
H178	H	0.110825	1.236774	0.245072
H179	H	0.444159	1.570108	0.578406
H180	H	0.777492	1.903441	0.911739
H181	H	0.110840	1.236819	0.755016
H182	H	0.444173	1.570153	1.088349
H183	H	0.777506	1.903486	1.421682
Br184	Br	0.080616	1.271737	0.462189
Br185	Br	0.413949	1.605071	0.795522
Br186	Br	0.747283	1.938404	1.128855
