data_functionalizedCrystal
_audit_creation_method	'MofGen! by Chris Wilmer'
_symmetry_space_group_name_H-M	'P1'
_symmetry_Int_Tables_number	1
_symmetry_cell_setting	triclinic
loop_
_symmetry_equiv_pos_as_xyz
  x,y,z
_cell_length_a	10.654556
_cell_length_b	10.723024
_cell_length_c	9.130313
_cell_angle_alpha	89.999893
_cell_angle_beta	89.999332
_cell_angle_gamma	84.477639
loop_
_atom_site_label
_atom_site_type_symbol
_atom_site_fract_x
_atom_site_fract_y
_atom_site_fract_z
O1	O	1.667803	0.175306	-0.121810
O2	O	1.302323	0.191997	-0.121809
O3	O	1.493494	0.002076	-0.121804
O4	O	1.476633	0.365226	-0.121815
O5	O	1.493491	0.002081	0.121794
O6	O	1.302321	0.192002	0.121789
O7	O	1.667801	0.175311	0.121789
Cu8	Cu	1.485061	0.183657	0.144032
Cu9	Cu	1.485063	0.183651	-0.144052
O10	O	1.476631	0.365231	0.121784
C11	C	1.255524	0.190772	-0.000010
C12	C	1.116082	0.187101	-0.000010
C13	C	0.919554	0.181931	-0.132807
C14	C	1.050576	0.185374	-0.132801
C15	C	1.050561	0.185372	0.132784
C16	C	0.919543	0.181921	0.132776
C17	C	0.919563	0.181938	-0.286141
C18	C	1.050584	0.185380	-0.286134
C19	C	1.492265	-0.044421	-0.000007
C20	C	1.488594	-0.182976	-0.000012
C21	C	1.595563	-0.257940	-0.000014
C22	C	1.591771	-0.401144	-0.000019
C23	C	1.714600	0.176535	-0.000014
C24	C	1.854042	0.180207	-0.000024
C25	C	1.477859	0.411728	-0.000017
C26	C	1.481530	0.550283	-0.000022
N27	N	1.485068	0.183660	0.346654
N28	N	1.485066	0.183637	-0.346675
C29	C	1.569740	0.099592	0.423308
C30	C	1.569737	0.099577	0.576645
C31	C	1.400385	0.267709	0.576660
C32	C	1.400383	0.267717	0.423326
C33	C	1.667518	0.002526	0.423301
C34	C	1.667514	0.002511	0.576638
H35	H	0.867844	0.270810	-0.333721
C36	C	1.307334	0.360294	0.339012
N37	N	1.237285	0.430066	0.275507
H38	H	1.758697	0.032922	0.375742
C39	C	1.723081	-0.201425	-0.000004
N40	N	1.819131	-0.158860	0.000010
H41	H	1.389951	-0.385307	-0.000010
C42	C	1.715489	-0.488166	-0.000021
N43	N	1.808676	-0.553714	-0.000024
C44	C	1.120462	0.065315	-0.350414
N45	N	1.173095	-0.025117	-0.398824
H46	H	1.764022	0.023895	0.618254
C47	C	1.084122	0.304415	-0.365660
N48	N	1.109383	0.394069	-0.425554
H49	H	1.394207	-0.224814	-0.000021
H50	H	1.331436	0.336145	0.639103
H51	H	0.866211	0.180491	0.240901
H52	H	1.646089	-0.093392	0.381684
C53	C	1.626296	-0.119933	0.640883
N54	N	1.595243	-0.212152	0.689274
H55	H	0.894752	0.093827	-0.345017
C56	C	1.122620	0.187298	0.278856
N57	N	1.176891	0.188763	0.388881
