data_functionalizedCrystal
_audit_creation_method	'MofGen! by Chris Wilmer'
_symmetry_space_group_name_H-M	'P1'
_symmetry_Int_Tables_number	1
_symmetry_cell_setting	triclinic
loop_
_symmetry_equiv_pos_as_xyz
  x,y,z
_cell_length_a	6.817900
_cell_length_b	12.200863
_cell_length_c	14.858340
_cell_angle_alpha	93.924527
_cell_angle_beta	104.519754
_cell_angle_gamma	107.143441
loop_
_atom_site_label
_atom_site_type_symbol
_atom_site_fract_x
_atom_site_fract_y
_atom_site_fract_z
V1	V	-4.056885	-0.159444	-0.290055
O2	O	-4.024763	0.006909	-0.284437
O3	O	-4.026528	-0.315427	-0.288165
O4	O	-4.013258	-0.157322	-0.416516
O5	O	-4.038125	-0.152291	-0.155197
V6	V	-4.537556	-0.139507	-0.273914
O7	O	-4.324398	-0.203177	-0.325463
O8	O	-4.720240	-0.095774	-0.238506
O9	O	-4.344706	0.016475	-0.275804
O10	O	-4.687075	-0.305861	-0.279533
O11	O	-4.673712	-0.146661	-0.408772
O12	O	-4.357976	-0.141630	-0.147453
C13	C	-3.875764	-0.353442	-0.283613
C14	C	-3.932263	-0.480962	-0.282911
C15	C	-4.035667	-0.714436	-0.281632
C16	C	-3.978118	-0.584514	-0.282344
C17	C	-3.858835	-0.151762	-0.447336
C18	C	-3.904568	-0.151059	-0.550719
C19	C	-3.941706	-0.150486	-0.634677
C20	C	-3.988312	-0.149764	-0.740006
C21	C	-4.025474	-0.149188	-0.823957
C22	C	-4.072085	-0.148467	-0.929293
C23	C	-4.158813	0.054484	-0.280353
C24	C	-4.081553	0.182003	-0.281062
C25	C	-4.175741	-0.147194	-0.116628
C26	C	-4.109246	-0.147891	-0.013244
