data_functionalizedCrystal
_audit_creation_method	'MofGen! by Chris Wilmer'
_symmetry_space_group_name_H-M	'P1'
_symmetry_Int_Tables_number	1
_symmetry_cell_setting	triclinic
loop_
_symmetry_equiv_pos_as_xyz
  x,y,z
_cell_length_a	10.723023
_cell_length_b	10.723024
_cell_length_c	9.198806
_cell_angle_alpha	89.997988
_cell_angle_beta	89.996513
_cell_angle_gamma	84.467709
loop_
_atom_site_label
_atom_site_type_symbol
_atom_site_fract_x
_atom_site_fract_y
_atom_site_fract_z
O1	O	1.657188	0.175020	-0.120874
O2	O	1.294036	0.191774	-0.120879
O3	O	1.483989	0.001821	-0.120871
O4	O	1.467235	0.364973	-0.120882
O5	O	1.483974	0.001820	0.120914
O6	O	1.294021	0.191774	0.120906
O7	O	1.657173	0.175019	0.120911
Cu8	Cu	1.475596	0.183396	0.142985
Cu9	Cu	1.475613	0.183397	-0.142953
O10	O	1.467220	0.364973	0.120903
C11	C	1.247529	0.190555	0.000012
C12	C	1.108974	0.186908	0.000010
C13	C	1.047194	0.185281	0.125261
C14	C	0.903991	0.181511	0.125262
C15	C	1.482762	-0.044679	0.000020
C16	C	1.479114	-0.183233	0.000015
C17	C	1.585402	-0.258216	0.000014
C18	C	1.581634	-0.401420	0.000009
C19	C	1.703680	0.176239	0.000016
C20	C	1.842235	0.179886	0.000009
C21	C	1.468447	0.411473	0.000009
C22	C	1.472095	0.550027	0.000005
N23	N	1.475592	0.183395	0.344099
N24	N	1.475627	0.183388	-0.344067
C25	C	1.555348	0.103288	0.416300
C26	C	1.555367	0.103283	0.583712
H27	H	1.055849	0.185506	-0.107221
O28	O	0.840805	0.179902	0.253326
C29	C	0.854257	0.180175	0.514809
C30	C	0.925968	0.182031	0.369877
H31	H	0.923083	0.181868	0.609078
H32	H	0.782661	0.265772	0.521408
H33	H	0.803936	0.091410	0.521228
H34	H	0.976365	0.270738	0.363360
H35	H	0.997493	0.096374	0.363339
O36	O	1.393989	0.265164	0.582040
C37	C	1.177808	0.336806	0.535158
C38	C	1.270122	0.244145	0.618971
H39	H	1.077641	0.319828	0.564963
H40	H	1.195078	0.436882	0.565023
H41	H	1.192372	0.322250	0.413345
H42	H	1.255612	0.258587	0.740804
H43	H	1.252829	0.144103	0.588985
O44	O	1.394196	0.265385	0.418041
C45	C	1.323596	0.481809	0.464977
C46	C	1.415833	0.389092	0.381129
H47	H	1.341075	0.581846	0.435189
H48	H	1.223384	0.465046	0.435127
H49	H	1.338102	0.467163	0.586785
H50	H	1.401441	0.403683	0.259302
H51	H	1.516011	0.405877	0.411101
O52	O	1.363498	-0.373175	0.000260
C53	C	1.170441	-0.309400	0.125468
C54	C	1.293391	-0.396437	0.125378
H55	H	1.113713	-0.328196	0.226599
H56	H	1.192747	-0.207578	0.125566
H57	H	1.113801	-0.328054	0.024230
H58	H	1.350091	-0.377895	0.226598
H59	H	1.270997	-0.498231	0.125204
H60	H	1.385328	-0.225055	0.000004
O61	O	1.636774	0.021286	0.657616
C62	C	1.707367	-0.195144	0.704532
C63	C	1.615121	-0.102416	0.620717
H64	H	1.689875	-0.295177	0.674754
H65	H	1.807575	-0.178388	0.674643
H66	H	1.692884	-0.180504	0.826345
H67	H	1.629490	-0.117001	0.498885
H68	H	1.514946	-0.119196	0.650727
O69	O	1.697372	-0.208486	0.000206
C70	C	1.892458	-0.192108	0.125503
C71	C	1.765703	-0.248527	0.125454
H72	H	1.947729	-0.224438	0.226771
H73	H	1.947905	-0.224528	0.024384
H74	H	1.875535	-0.085504	0.125432
H75	H	1.782513	-0.355133	0.125577
H76	H	1.710297	-0.216008	0.226565
O77	O	0.905716	0.181726	-0.127838
C78	C	1.039596	0.293563	-0.280645
C79	C	0.967774	0.291622	-0.135794
H80	H	1.089767	0.382418	-0.287139
H81	H	1.111304	0.208051	-0.287162
H82	H	0.970803	0.291690	-0.374925
H83	H	1.036472	0.293536	-0.041432
H84	H	0.896049	0.377126	-0.129404
H85	H	1.100321	0.186672	0.232492
H86	H	1.672625	-0.465852	0.000015
H87	H	1.623612	0.034702	0.354177
