data_functionalizedCrystal
_audit_creation_method	'MofGen! by Chris Wilmer'
_symmetry_space_group_name_H-M	'P1'
_symmetry_Int_Tables_number	1
_symmetry_cell_setting	triclinic
loop_
_symmetry_equiv_pos_as_xyz
  x,y,z
_cell_length_a	14.971486
_cell_length_b	13.448316
_cell_length_c	14.971494
_cell_angle_alpha	89.995115
_cell_angle_beta	96.384157
_cell_angle_gamma	90.001801
loop_
_atom_site_label
_atom_site_type_symbol
_atom_site_fract_x
_atom_site_fract_y
_atom_site_fract_z
O1	O	-1.186951	-0.082574	0.116564
O2	O	-0.853618	0.250760	0.449898
O3	O	-0.520284	0.584093	0.783231
O4	O	-0.926551	-0.082600	0.130523
O5	O	-0.593218	0.250733	0.463856
O6	O	-0.259884	0.584066	0.797190
O7	O	-1.063726	-0.082584	-0.006656
O8	O	-0.730393	0.250749	0.326677
O9	O	-0.397060	0.584083	0.660011
O10	O	-1.049776	-0.082590	0.253743
O11	O	-0.716442	0.250743	0.587077
O12	O	-0.383109	0.584077	0.920410
O13	O	-1.063709	0.082800	-0.006664
O14	O	-0.730376	0.416133	0.326669
O15	O	-0.397043	0.749466	0.660002
O16	O	-0.926534	0.082784	0.130515
O17	O	-0.593201	0.416117	0.463848
O18	O	-0.259867	0.749450	0.797181
O19	O	-1.186934	0.082810	0.116556
O20	O	-0.853600	0.416144	0.449889
O21	O	-0.520267	0.749477	0.783223
Cu22	Cu	-1.056732	0.097898	0.123534
Cu23	Cu	-0.723399	0.431231	0.456868
Cu24	Cu	-0.390066	0.764564	0.790201
Cu25	Cu	-1.056753	-0.097688	0.123544
Cu26	Cu	-0.723419	0.235646	0.456878
Cu27	Cu	-0.390086	0.568979	0.790211
O28	O	-1.049758	0.082794	0.253735
O29	O	-0.716425	0.416127	0.587068
O30	O	-0.383092	0.749461	0.920401
C31	C	-0.893218	0.000088	0.129895
C32	C	-0.559884	0.333422	0.463228
C33	C	-0.226551	0.666755	0.796561
C34	C	-0.793921	0.000078	0.128024
C35	C	-0.460587	0.333411	0.461357
C36	C	-0.127254	0.666745	0.794691
C37	C	-1.220267	0.000120	0.117184
C38	C	-0.886934	0.333453	0.450518
C39	C	-0.553600	0.666786	0.783851
C40	C	-1.319564	0.000123	0.119055
C41	C	-0.986231	0.333457	0.452388
C42	C	-0.652897	0.666790	0.785722
C43	C	-1.063093	0.000106	-0.039985
C44	C	-0.729759	0.333440	0.293349
C45	C	-0.396426	0.666773	0.626682
C46	C	-1.061219	0.000102	-0.139281
C47	C	-0.727886	0.333435	0.194052
C48	C	-0.394552	0.666768	0.527385
N49	N	-1.056724	0.235462	0.123527
N50	N	-0.723391	0.568795	0.456860
N51	N	-0.390058	0.902129	0.790194
C52	C	-0.736698	0.000078	0.208613
C53	C	-0.403364	0.333411	0.541946
C54	C	-0.070031	0.666744	0.875279
C55	C	-0.643398	0.000092	0.206850
C56	C	-0.310065	0.333426	0.540183
C57	C	0.023268	0.666759	0.873516
C58	C	-0.607323	0.000101	0.124497
C59	C	-0.273990	0.333434	0.457830
C60	C	0.059343	0.666767	0.791163
C61	C	-0.664554	0.000104	0.043902
C62	C	-0.331220	0.333437	0.377235
C63	C	0.002113	0.666771	0.710568
C64	C	-0.757851	0.000096	0.045666
C65	C	-0.424518	0.333430	0.378999
C66	C	-0.091185	0.666763	0.712332
C67	C	-0.470091	0.000118	0.040231
C68	C	-0.136758	0.333451	0.373564
C69	C	0.196576	0.666784	0.706897
C70	C	-0.376787	0.000124	0.038466
C71	C	-0.043454	0.333457	0.371799
C72	C	0.289880	0.666790	0.705133
C73	C	-0.355638	0.000114	0.201415
C74	C	-0.022305	0.333447	0.534748
C75	C	0.311029	0.666781	0.868081
C76	C	-0.448936	0.000106	0.203179
C77	C	-0.115602	0.333440	0.536512
C78	C	0.217731	0.666773	0.869845
C79	C	-0.506160	0.000108	0.122583
C80	C	-0.172826	0.333441	0.455916
C81	C	0.160507	0.666774	0.789250
N82	N	-1.056768	-0.235252	0.123545
N83	N	-0.723434	0.098081	0.456878
N84	N	-0.390101	0.431415	0.790212
C85	C	-1.117484	0.287510	0.062809
C86	C	-0.784151	0.620843	0.396142
C87	C	-0.450818	0.954176	0.729476
C88	C	-1.117490	0.391613	0.062808
C89	C	-0.784157	0.724946	0.396142
C90	C	-0.450823	1.058280	0.729475
C91	C	-1.056739	0.443667	0.123530
C92	C	-0.723406	0.777000	0.456864
C93	C	-0.390072	1.110333	0.790197
C94	C	-0.995973	0.391612	0.184251
C95	C	-0.662639	0.724945	0.517584
C96	C	-0.329306	1.058278	0.850918
C97	C	-0.995963	0.287510	0.184247
C98	C	-0.662630	0.620844	0.517580
C99	C	-0.329297	0.954177	0.850914
C100	C	-0.995997	0.608592	0.184257
C101	C	-0.662664	0.941925	0.517590
C102	C	-0.329331	1.275259	0.850924
C103	C	-0.996007	0.712700	0.184263
C104	C	-0.662674	1.046034	0.517596
C105	C	-0.329341	1.379367	0.850929
C106	C	-1.117524	0.712694	0.062819
C107	C	-0.784191	1.046028	0.396152
C108	C	-0.450857	1.379361	0.729485
C109	C	-1.117515	0.608593	0.062814
C110	C	-0.784182	0.941926	0.396148
C111	C	-0.450848	1.275260	0.729481
C112	C	-1.056749	0.556545	0.123536
C113	C	-0.723416	0.889879	0.456870
C114	C	-0.390083	1.223212	0.790203
C115	C	-1.060350	-0.090050	-0.185921
C116	C	-0.727017	0.243283	0.147412
C117	C	-0.393683	0.576616	0.480745
C118	C	-1.058584	-0.090052	-0.279221
C119	C	-0.725250	0.243282	0.054113
C120	C	-0.391917	0.576615	0.387446
C121	C	-1.057693	0.000100	-0.325879
C122	C	-0.724359	0.333433	0.007455
C123	C	-0.391026	0.666766	0.340788
C124	C	-1.058559	0.090259	-0.279232
C125	C	-0.725226	0.423592	0.054102
C126	C	-0.391892	0.756925	0.387435
C127	C	-1.060319	0.090259	-0.185933
C128	C	-0.726985	0.423592	0.147400
C129	C	-0.393652	0.756926	0.480733
C130	C	-1.054893	0.090252	-0.473695
C131	C	-0.721560	0.423585	-0.140361
C132	C	-0.388226	0.756918	0.192972
C133	C	-1.053135	0.090252	-0.567000
C134	C	-0.719801	0.423585	-0.233666
C135	C	-0.386468	0.756918	0.099667
C136	C	-1.053158	-0.090059	-0.566982
C137	C	-0.719825	0.243274	-0.233649
C138	C	-0.386491	0.576607	0.099685
C139	C	-1.054918	-0.090059	-0.473684
C140	C	-0.721585	0.243274	-0.140350
C141	C	-0.388251	0.576608	0.192983
C142	C	-1.055786	0.000100	-0.427043
C143	C	-0.722452	0.333434	-0.093710
C144	C	-0.389119	0.666767	0.239623
C145	C	-1.050392	0.000101	0.287064
C146	C	-0.717059	0.333435	0.620397
C147	C	-0.383725	0.666768	0.953730
C148	C	-1.052266	0.000100	0.386360
C149	C	-0.718933	0.333433	0.719694
C150	C	-0.385599	0.666766	1.053027
H151	H	-0.766062	0.000070	0.275674
H152	H	-0.432729	0.333404	0.609007
H153	H	-0.099395	0.666737	0.942341
F154	F	-0.818752	0.000100	-0.040108
F155	F	-0.485419	0.333434	0.293225
F156	F	-0.152086	0.666767	0.626559
F157	F	-0.582501	0.000088	0.292624
F158	F	-0.249167	0.333421	0.625957
F159	F	0.084166	0.666754	0.959290
H160	H	-1.057828	0.163662	-0.317227
H161	H	-0.724495	0.496995	0.016106
H162	H	-0.391161	0.830328	0.349439
H163	H	-0.635174	0.000125	-0.023152
H164	H	-0.301841	0.333458	0.310182
H165	H	0.031492	0.666792	0.643515
F166	F	-1.182150	0.232120	-0.001817
F167	F	-0.848816	0.565453	0.331516
F168	F	-0.515483	0.898787	0.664850
H169	H	-1.055650	-0.163468	-0.435698
H170	H	-0.722317	0.169865	-0.102365
H171	H	-0.388983	0.503198	0.230969
F172	F	-1.182157	0.447006	-0.001815
F173	F	-0.848823	0.780339	0.331518
F174	F	-0.515490	1.113673	0.664851
H175	H	-0.478304	0.000090	0.270238
H176	H	-0.144971	0.333423	0.603571
H177	H	0.188362	0.666757	0.936904
H178	H	-1.061080	-0.163463	-0.147940
H179	H	-0.727747	0.169871	0.185394
H180	H	-0.394414	0.503204	0.518727
H181	H	-0.516681	0.000121	-0.025399
H182	H	-0.183348	0.333454	0.307934
H183	H	0.149986	0.666787	0.641268
H184	H	-1.166987	0.566211	0.013374
H185	H	-0.833654	0.899544	0.346708
H186	H	-0.500320	1.232878	0.680041
H187	H	-1.167001	0.755078	0.013377
H188	H	-0.833668	1.088411	0.346710
H189	H	-0.500334	1.421744	0.680043
F190	F	-1.057660	-0.186004	-0.328854
F191	F	-0.724327	0.147329	0.004479
F192	F	-0.390993	0.480663	0.337812
H193	H	-1.052449	-0.163470	-0.604961
H194	H	-0.719116	0.169863	-0.271627
H195	H	-0.385783	0.503196	0.061706
F196	F	-1.061242	0.186211	-0.136296
F197	F	-0.727909	0.519544	0.197037
F198	F	-0.394576	0.852878	0.530371
F199	F	-0.294735	0.000114	0.287191
F200	F	0.038598	0.333448	0.620524
F201	F	0.371931	0.666781	0.953858
F202	F	-1.052188	0.186201	-0.616655
F203	F	-0.718854	0.519534	-0.283322
F204	F	-0.385521	0.852868	0.050012
H205	H	-0.946537	0.755077	0.233708
H206	H	-0.613203	1.088411	0.567041
H207	H	-0.279870	1.421744	0.900375
H208	H	-0.347418	0.000132	-0.028593
H209	H	-0.014085	0.333465	0.304741
H210	H	0.319248	0.666798	0.638074
H211	H	-1.055580	0.163669	-0.435721
H212	H	-0.722247	0.497002	-0.102387
H213	H	-0.388913	0.830336	0.230946
F214	F	-0.931320	0.553203	0.248883
F215	F	-0.597986	0.886537	0.582216
F216	F	-0.264653	1.219870	0.915550
H217	H	-0.946503	0.434000	0.233689
H218	H	-0.613170	0.767333	0.567023
H219	H	-0.279837	1.100667	0.900356
F220	F	-0.931291	0.232119	0.248869
F221	F	-0.597958	0.565452	0.582202
F222	F	-0.264625	0.898786	0.915536
