data_functionalizedCrystal
_audit_creation_method	'MofGen! by Chris Wilmer'
_symmetry_space_group_name_H-M	'P1'
_symmetry_Int_Tables_number	1
_symmetry_cell_setting	triclinic
loop_
_symmetry_equiv_pos_as_xyz
  x,y,z
_cell_length_a	6.817900
_cell_length_b	17.458011
_cell_length_c	17.078481
_cell_angle_alpha	95.903756
_cell_angle_beta	99.306161
_cell_angle_gamma	106.367272
loop_
_atom_site_label
_atom_site_type_symbol
_atom_site_fract_x
_atom_site_fract_y
_atom_site_fract_z
V1	V	-3.994431	-0.110379	-0.248072
O2	O	-3.967309	0.005496	-0.242617
O3	O	-3.960837	-0.219047	-0.247080
O4	O	-3.925238	-0.108597	-0.355944
O5	O	-4.003154	-0.105719	-0.133000
V6	V	-4.478835	-0.096529	-0.234223
O7	O	-4.253757	-0.140760	-0.278451
O8	O	-4.669706	-0.066148	-0.203844
O9	O	-4.289222	0.012140	-0.235215
O10	O	-4.623354	-0.212404	-0.239678
O11	O	-4.587508	-0.101189	-0.349295
O12	O	-4.324821	-0.098311	-0.126352
C13	C	-3.810113	-0.245541	-0.243349
C14	C	-3.863794	-0.334379	-0.243256
C15	C	-4.185523	-0.834863	-0.243076
C16	C	-4.135073	-0.751392	-0.243173
C17	C	-3.927945	-0.705595	-0.239242
C18	C	-3.771256	-0.743272	-0.235206
C19	C	-3.821706	-0.826740	-0.235103
C20	C	-3.757554	-0.455524	-0.239117
C21	C	-3.707116	-0.372050	-0.239223
C22	C	-4.070936	-0.380176	-0.247189
C23	C	-4.121372	-0.463646	-0.247090
C24	C	-3.964678	-0.501315	-0.243050
N25	N	-3.876373	-0.620275	-0.239344
N26	N	-4.016249	-0.586633	-0.242942
C27	C	-3.764701	-0.104649	-0.382214
C28	C	-3.789510	-0.103911	-0.470404
C29	C	-3.983040	-0.107554	-0.515903
C30	C	-4.006339	-0.106860	-0.598767
C31	C	-3.836107	-0.102529	-0.636131
C32	C	-3.642559	-0.098884	-0.590625
C33	C	-3.619260	-0.099572	-0.507762
C34	C	-3.886284	-0.100038	-0.883518
C35	C	-3.909600	-0.099353	-0.966387
C36	C	-4.273377	-0.107327	-0.974523
C37	C	-4.250064	-0.108020	-0.891659
C38	C	-4.056517	-0.104370	-0.846160
N39	N	-3.859919	-0.101822	-0.720831
N40	N	-4.032704	-0.105071	-0.761460
C41	C	-4.103289	0.038629	-0.238945
C42	C	-4.028845	0.127466	-0.239042
C43	C	-4.148701	-0.102261	-0.100078
C44	C	-4.103131	-0.102995	-0.011887
H45	H	-3.602604	-0.705976	-0.232000
H46	H	-3.694122	-0.857412	-0.231825
O47	O	-4.461509	-0.111016	-1.018714
C48	C	-4.611930	-0.183124	-1.012133
H49	H	-4.530868	-0.229570	-0.994802
H50	H	-4.701547	-0.170292	-0.964042
C51	C	-4.864248	-0.159442	-1.114608
C52	C	-4.764686	-0.216489	-1.093327
H53	H	-4.958482	-0.180022	-1.164690
H54	H	-4.762910	-0.110859	-1.119039
H55	H	-4.938912	-0.148753	-1.074525
H56	H	-4.690003	-0.227170	-1.133404
H57	H	-4.866016	-0.265075	-1.088904
O58	O	-4.194472	-0.110536	-0.642947
C59	C	-4.344913	-0.182641	-0.636370
H60	H	-4.263874	-0.229099	-0.619059
H61	H	-4.434496	-0.169809	-0.588266
C62	C	-4.597238	-0.158921	-0.738815
C63	C	-4.497706	-0.215984	-0.717559
H64	H	-4.691495	-0.179487	-0.788894
H65	H	-4.495887	-0.110340	-0.743243
H66	H	-4.671874	-0.148232	-0.698721
H67	H	-4.423051	-0.226663	-0.757647
H68	H	-4.599048	-0.264567	-0.713139
O69	O	-3.431219	-0.095900	-0.463503
C70	C	-3.361416	-0.026549	-0.404104
H71	H	-3.439863	0.019994	-0.423552
H72	H	-3.402914	-0.043860	-0.344934
C73	C	-3.026790	-0.047443	-0.368995
C74	C	-3.123126	0.009724	-0.392884
H75	H	-2.879801	-0.025069	-0.362070
H76	H	-3.073819	-0.094168	-0.409011
H77	H	-3.061393	-0.061864	-0.319689
H78	H	-3.088544	0.024137	-0.442194
H79	H	-3.076086	0.056453	-0.352876
O80	O	-3.744072	-0.094993	-1.002626
C81	C	-3.582260	-0.023217	-0.968686
H82	H	-3.650511	0.022849	-0.940449
H83	H	-3.465576	-0.036842	-0.920589
C84	C	-3.387102	-0.045214	-1.069407
C85	C	-3.470932	0.011367	-1.034732
H86	H	-3.318422	-0.023882	-1.110146
H87	H	-3.496113	-0.093573	-1.092272
H88	H	-3.289878	-0.056563	-1.029319
H89	H	-3.568172	0.022708	-1.074818
H90	H	-3.361934	0.059729	-1.011876
H91	H	-4.121669	-0.111086	-0.485489
O92	O	-4.386704	-0.879289	-0.246753
C93	C	-4.458493	-0.850542	-0.180110
H94	H	-4.319627	-0.817672	-0.129514
H95	H	-4.548629	-0.807064	-0.198273
C96	C	-4.773295	-0.962648	-0.213268
C97	C	-4.602738	-0.922282	-0.151122
H98	H	-4.862280	-1.006899	-0.195388
H99	H	-4.724935	-0.982014	-0.258169
H100	H	-4.848384	-0.926408	-0.228398
H101	H	-4.527638	-0.958519	-0.136000
H102	H	-4.651089	-0.902924	-0.106218
H103	H	-4.388688	-0.111545	-0.861243
O104	O	-3.698338	-0.096445	-0.839245
C105	C	-3.628405	-0.027134	-0.779795
H106	H	-3.706585	0.019490	-0.799221
H107	H	-3.670104	-0.044470	-0.720659
C108	C	-3.294056	-0.048247	-0.744639
C109	C	-3.390064	0.009019	-0.768501
H110	H	-3.147035	-0.025947	-0.737668
H111	H	-3.341172	-0.094945	-0.784689
H112	H	-3.328826	-0.062689	-0.695361
H113	H	-3.355315	0.023453	-0.817782
H114	H	-3.342937	0.055721	-0.728458
H115	H	-3.503953	-0.095353	-0.621052
H116	H	-4.290033	-0.500929	-0.250292
O117	O	-4.223265	-0.343643	-0.251245
C118	C	-4.372848	-0.377327	-0.322727
H119	H	-4.298849	-0.405443	-0.368673
H120	H	-4.509539	-0.425869	-0.309525
C121	C	-4.542445	-0.276034	-0.300151
C122	C	-4.451553	-0.310561	-0.356584
H123	H	-4.591004	-0.234851	-0.321034
H124	H	-4.441674	-0.253342	-0.251990
H125	H	-4.656342	-0.316493	-0.289154
H126	H	-4.337644	-0.270104	-0.367572
H127	H	-4.552308	-0.333245	-0.404747
O128	O	-4.287124	-0.714721	-0.247200
C129	C	-4.295393	-0.677501	-0.316605
H130	H	-4.138744	-0.665075	-0.336195
H131	H	-4.423189	-0.719235	-0.366920
C132	C	-4.535796	-0.612513	-0.273929
C133	C	-4.343391	-0.597246	-0.297986
H134	H	-4.565413	-0.563010	-0.262447
H135	H	-4.530233	-0.637592	-0.227171
H136	H	-4.642270	-0.647294	-0.315863
H137	H	-4.236918	-0.562474	-0.256050
H138	H	-4.348938	-0.572160	-0.344738
O139	O	-3.505817	-0.327570	-0.235256
C140	C	-3.380920	-0.334698	-0.163715
H141	H	-3.482668	-0.352471	-0.117722
H142	H	-3.302757	-0.383052	-0.176789
C143	C	-3.087660	-0.231327	-0.186526
C144	C	-3.212626	-0.253150	-0.130034
H145	H	-2.983842	-0.181026	-0.165751
H146	H	-3.171801	-0.226527	-0.234726
H147	H	-3.022545	-0.271629	-0.197416
H148	H	-3.277759	-0.212854	-0.119153
H149	H	-3.128491	-0.257942	-0.081831
H150	H	-3.629953	-0.486182	-0.235817
