data_functionalizedCrystal
_audit_creation_method	'MofGen! by Chris Wilmer'
_symmetry_space_group_name_H-M	'P1'
_symmetry_Int_Tables_number	1
_symmetry_cell_setting	triclinic
loop_
_symmetry_equiv_pos_as_xyz
  x,y,z
_cell_length_a	16.120484
_cell_length_b	17.077404
_cell_length_c	17.077396
_cell_angle_alpha	89.981638
_cell_angle_beta	92.868746
_cell_angle_gamma	92.923471
loop_
_atom_site_label
_atom_site_type_symbol
_atom_site_fract_x
_atom_site_fract_y
_atom_site_fract_z
Zn1	Zn	-0.331952	1.184192	-0.459652
Zn2	Zn	0.168048	1.684192	0.040348
Zn3	Zn	-0.471376	1.177436	-0.335036
Zn4	Zn	0.028624	1.677436	0.164964
Zn5	Zn	-0.331976	1.052923	-0.328403
Zn6	Zn	0.168024	1.552923	0.171597
Zn7	Zn	-0.471321	1.046232	-0.466259
Zn8	Zn	0.028679	1.546232	0.033741
O9	O	-0.401656	1.115196	-0.397338
O10	O	0.098344	1.615196	0.102662
O11	O	-0.350460	1.293142	-0.443132
O12	O	0.149540	1.793142	0.056868
O13	O	-0.452917	1.160892	-0.224311
O14	O	0.047083	1.660892	0.275689
O15	O	-0.215307	1.075963	-0.340273
O16	O	0.284693	1.575963	0.159727
O17	O	-0.452894	1.288179	-0.351577
O18	O	0.047106	1.788179	0.148423
O19	O	-0.215290	1.172406	-0.436700
O20	O	0.284710	1.672406	0.063300
O21	O	-0.350500	1.069413	-0.219438
O22	O	0.149500	1.569413	0.280562
O23	O	-0.350447	0.942189	-0.346680
O24	O	0.149553	1.442189	0.153320
O25	O	-0.452800	1.064560	-0.575228
O26	O	0.047200	1.564560	-0.075228
O27	O	-0.452823	0.937273	-0.447962
O28	O	0.047177	1.437273	0.052038
O29	O	-0.350407	1.165918	-0.570374
O30	O	0.149593	1.665918	-0.070374
O31	O	-0.588034	1.154405	-0.357984
O32	O	-0.088034	1.654405	0.142016
O33	O	-0.587994	1.058009	-0.454393
O34	O	-0.087994	1.558009	0.045607
C35	C	-0.401632	0.911249	-0.397319
C36	C	0.098368	1.411249	0.102681
C37	C	-0.401642	0.823999	-0.397330
C38	C	0.098358	1.323999	0.102670
C39	C	-0.348400	0.785589	-0.445084
C40	C	0.151600	1.285589	0.054916
C41	C	-0.348405	0.703608	-0.445088
C42	C	0.151595	1.203608	0.054912
C43	C	-0.401658	0.660039	-0.397342
C44	C	0.098342	1.160039	0.102658
C45	C	-0.454903	0.698454	-0.349583
C46	C	0.045097	1.198454	0.150417
C47	C	-0.454893	0.780433	-0.349575
C48	C	0.045107	1.280433	0.150425
C49	C	-0.454922	0.527583	-0.349603
C50	C	0.045078	1.027583	0.150397
C51	C	-0.454933	0.445598	-0.349611
C52	C	0.045067	0.945598	0.150389
C53	C	-0.348434	0.450758	-0.445116
C54	C	0.151566	0.950758	0.054884
C55	C	-0.348424	0.532737	-0.445108
C56	C	0.151576	1.032737	0.054892
C57	C	-0.401670	0.571147	-0.397350
C58	C	0.098330	1.071147	0.102650
C59	C	-0.618264	1.104769	-0.407642
C60	C	-0.118264	1.604769	0.092358
C61	C	-0.710930	1.100380	-0.412077
C62	C	-0.210930	1.600380	0.087923
C63	C	-0.880591	1.092372	-0.420190
C64	C	-0.380591	1.592372	0.079810
C65	C	-0.921881	1.138160	-0.374498
C66	C	-0.421881	1.638160	0.125502
C67	C	-1.016286	1.133704	-0.379012
C68	C	-0.516286	1.633704	0.120988
C69	C	-0.786177	1.096827	-0.415677
C70	C	-0.286177	1.596827	0.084323
C71	C	-0.184202	1.125684	-0.387010
C72	C	0.315798	1.625684	0.112990
C73	C	-0.091537	1.130154	-0.382609
C74	C	0.408463	1.630154	0.117391
C75	C	-0.401595	1.115246	-0.602079
C76	C	0.098405	1.615246	-0.102079
C77	C	-0.401568	1.115268	-0.689328
C78	C	0.098432	1.615268	-0.189328
C79	C	-0.401680	1.319939	-0.397357
C80	C	0.098320	1.819939	0.102643
C81	C	-0.401691	1.407188	-0.397365
C82	C	0.098309	1.907188	0.102635
C83	C	-0.348248	1.168047	-0.727791
C84	C	0.151752	1.668047	-0.227791
C85	C	-0.348220	1.168058	-0.809770
C86	C	0.151780	1.668058	-0.309770
C87	C	-0.401518	1.115292	-0.853285
C88	C	0.098482	1.615292	-0.353285
C89	C	-0.454841	1.062507	-0.814816
C90	C	0.045159	1.562507	-0.314816
C91	C	-0.454864	1.062493	-0.732838
C92	C	0.045136	1.562493	-0.232838
C93	C	-0.454791	1.062541	-0.985683
C94	C	0.045209	1.562541	-0.485683
C95	C	-0.454769	1.062556	-1.067667
C96	C	0.045231	1.562556	-0.567667
C97	C	-0.348147	1.168106	-1.062616
C98	C	0.151853	1.668106	-0.562616
C99	C	-0.348170	1.168092	-0.980638
C100	C	0.151830	1.668092	-0.480638
C101	C	-0.401494	1.115307	-0.942175
C102	C	0.098506	1.615307	-0.442175
C103	C	-0.401657	1.115193	-0.193390
C104	C	0.098343	1.615193	0.306610
C105	C	-0.401448	1.115335	-0.106130
C106	C	0.098552	1.615335	0.393870
H107	H	-0.498258	0.662973	-0.310703
H108	H	0.001742	1.162973	0.189297
H109	H	-0.916140	1.049829	-0.462693
H110	H	-0.416140	1.549829	0.037307
O111	O	-0.874794	1.194519	-0.318191
O112	O	-0.374794	1.694519	0.181809
H113	H	-0.891515	1.180319	-0.257356
H114	H	-0.391515	1.680319	0.242644
O115	O	-0.512321	0.821860	-0.298068
O116	O	-0.012321	1.321860	0.201932
H117	H	-0.474943	0.860980	-0.256403
H118	H	0.025057	1.360980	0.243597
O119	O	-0.290628	1.225032	-1.104102
O120	O	0.209372	1.725032	-0.604102
H121	H	-0.304947	1.285947	-1.089066
H122	H	0.195053	1.785947	-0.589066
O123	O	-0.290762	1.224959	-0.680858
O124	O	0.209238	1.724959	-0.180858
H125	H	-0.253675	1.261656	-0.721380
H126	H	0.246325	1.761656	-0.221380
H127	H	-0.304803	1.211038	-0.841083
H128	H	0.195197	1.711038	-0.341083
O129	O	-0.290691	1.225005	-0.933700
O130	O	0.209309	1.725005	-0.433700
H131	H	-0.253602	1.261708	-0.974216
H132	H	0.246398	1.761708	-0.474216
H133	H	-0.498167	1.019588	-1.103094
H134	H	0.001833	1.519588	-0.603094
O135	O	-0.512298	1.005606	-0.944193
O136	O	-0.012298	1.505606	-0.444193
H137	H	-0.549360	0.968920	-0.988222
H138	H	-0.049360	1.468920	-0.488222
O139	O	-0.512320	1.005590	-0.861749
O140	O	-0.012320	1.505590	-0.361749
H141	H	-0.577760	1.015885	-0.849120
H142	H	-0.077760	1.515885	-0.349120
O143	O	-0.290958	0.832582	-0.496577
O144	O	0.209042	1.332582	0.003423
H145	H	-0.253929	0.792097	-0.529776
H146	H	0.246071	1.292097	-0.029776
O147	O	-0.290976	0.662180	-0.496592
O148	O	0.209024	1.162180	0.003408
H149	H	-0.305362	0.677241	-0.558861
H150	H	0.194638	1.177241	-0.058861
O151	O	-0.290983	0.579736	-0.496598
O152	O	0.209017	1.079736	0.003402
H153	H	-0.253951	0.539257	-0.529801
H154	H	0.246049	1.039257	-0.029801
O155	O	-0.290994	0.409337	-0.496620
O156	O	0.209006	0.909337	0.003380
H157	H	-0.328363	0.370200	-0.538275
H158	H	0.171637	0.870200	-0.038275
O159	O	-0.512360	0.398600	-0.298108
O160	O	-0.012360	0.898600	0.201892
H161	H	-0.549374	0.439079	-0.264887
H162	H	-0.049374	0.939079	0.235113
O163	O	-0.512352	0.569015	-0.298096
O164	O	-0.012352	1.069015	0.201904
H165	H	-0.549391	0.524947	-0.264902
H166	H	-0.049391	1.024947	0.235098
O167	O	-0.512362	1.005558	-0.691345
O168	O	-0.012362	1.505558	-0.191345
H169	H	-0.549421	0.968868	-0.735374
H170	H	-0.049421	1.468868	-0.235374
