data_functionalizedCrystal
_audit_creation_method	'MofGen! by Chris Wilmer'
_symmetry_space_group_name_H-M	'P1'
_symmetry_Int_Tables_number	1
_symmetry_cell_setting	triclinic
loop_
_symmetry_equiv_pos_as_xyz
  x,y,z
_cell_length_a	19.288840
_cell_length_b	19.188930
_cell_length_c	17.766277
_cell_angle_alpha	89.988508
_cell_angle_beta	89.983415
_cell_angle_gamma	83.135398
loop_
_atom_site_label
_atom_site_type_symbol
_atom_site_fract_x
_atom_site_fract_y
_atom_site_fract_z
O1	O	0.921371	0.087016	-0.062728
O2	O	1.421371	0.587016	0.437272
O3	O	0.719108	0.098784	-0.062703
O4	O	1.219108	0.598784	0.437297
O5	O	0.826076	-0.008757	-0.062702
O6	O	1.326076	0.491243	0.437298
O7	O	0.814403	0.194556	-0.062730
O8	O	1.314403	0.694556	0.437270
O9	O	0.826058	-0.008762	0.062487
O10	O	1.326058	0.491238	0.562487
O11	O	0.719090	0.098778	0.062485
O12	O	1.219090	0.598778	0.562485
O13	O	0.921352	0.087011	0.062460
O14	O	1.421352	0.587011	0.562460
Cu15	Cu	0.820219	0.092894	0.073903
Cu16	Cu	1.320219	0.592894	0.573903
Cu17	Cu	0.820241	0.092900	-0.074147
Cu18	Cu	1.320241	0.592900	0.425853
O19	O	0.814384	0.194551	0.062459
O20	O	1.314384	0.694551	0.562459
C21	C	0.693222	0.098405	-0.000106
C22	C	1.193222	0.598405	0.499894
C23	C	0.616118	0.097277	-0.000096
C24	C	1.116118	0.597277	0.499904
C25	C	0.579924	0.096739	-0.068338
C26	C	1.079924	0.596739	0.431662
C27	C	0.507477	0.095671	-0.068347
C28	C	1.007477	0.595671	0.431653
C29	C	0.471228	0.095128	-0.000110
C30	C	0.971228	0.595128	0.499890
C31	C	0.507430	0.095671	0.068141
C32	C	1.007430	0.595671	0.568141
C33	C	0.579875	0.096746	0.068148
C34	C	1.079875	0.596746	0.568148
C35	C	0.361890	0.052528	0.052165
C36	C	0.861890	0.552528	0.552165
C37	C	0.289447	0.051449	0.052155
C38	C	0.789447	0.551449	0.552155
C39	C	0.247784	0.091817	-0.000129
C40	C	0.747784	0.591817	0.499871
C41	C	0.278575	0.133255	-0.052415
C42	C	0.778575	0.633255	0.447585
C43	C	0.351020	0.134330	-0.052408
C44	C	0.851020	0.634330	0.447592
C45	C	0.392674	0.093963	-0.000110
C46	C	0.892674	0.593963	0.499890
C47	C	0.133036	0.090122	-0.068386
C48	C	0.633036	0.590122	0.431614
C49	C	0.060587	0.089058	-0.068392
C50	C	0.560587	0.589058	0.431608
C51	C	0.060542	0.089052	0.068098
C52	C	0.560542	0.589052	0.568098
C53	C	0.132988	0.090122	0.068102
C54	C	0.632988	0.590122	0.568102
C55	C	0.169231	0.090653	-0.000142
C56	C	0.669231	0.590653	0.499858
C57	C	0.825689	-0.034770	-0.000105
C58	C	1.325689	0.465230	0.499895
C59	C	0.824554	-0.112275	-0.000099
C60	C	1.324554	0.387725	0.499901
C61	C	0.887319	-0.157209	-0.000103
C62	C	1.387319	0.342791	0.499897
C63	C	0.886253	-0.230033	-0.000115
C64	C	1.386253	0.269967	0.499885
C65	C	0.822418	-0.257919	-0.000108
C66	C	1.322418	0.242081	0.499892
C67	C	0.759645	-0.212975	-0.000108
C68	C	1.259645	0.287025	0.499892
C69	C	0.760713	-0.140153	-0.000103
C70	C	1.260713	0.359847	0.499897
N71	N	0.773618	-0.365917	0.042503
N72	N	1.273618	0.134083	0.542503
N73	N	0.772608	-0.435096	0.042500
N74	N	1.272608	0.064904	0.542500
C75	C	0.819197	-0.477327	-0.000122
C76	C	1.319197	0.022673	0.499878
N77	N	0.866845	-0.447767	-0.042733
N78	N	1.366845	0.052233	0.457267
N79	N	0.867858	-0.378583	-0.042727
N80	N	1.367858	0.121417	0.457273
C81	C	0.821253	-0.336881	-0.000113
C82	C	1.321253	0.163119	0.499887
C83	C	0.880811	-0.601225	-0.000141
C84	C	1.380811	-0.101225	0.499859
C85	C	0.879742	-0.674050	-0.000157
C86	C	1.379742	-0.174050	0.499843
C87	C	0.753131	-0.656990	-0.000142
C88	C	1.253131	-0.156990	0.499858
C89	C	0.754202	-0.584167	-0.000133
C90	C	1.254202	-0.084167	0.499867
C91	C	0.818043	-0.556289	-0.000129
C92	C	1.318043	-0.056289	0.499871
C93	C	0.947238	0.087389	-0.000139
C94	C	1.447238	0.587389	0.499861
C95	C	1.024343	0.088517	-0.000154
C96	C	1.524343	0.588517	0.499846
C97	C	0.814771	0.220565	-0.000139
C98	C	1.314771	0.720565	0.499861
C99	C	0.815906	0.298069	-0.000151
C100	C	1.315906	0.798069	0.499849
N101	N	0.820209	0.092889	0.178034
N102	N	1.320209	0.592889	0.678034
N103	N	0.820257	0.092900	-0.178277
N104	N	1.320257	0.592900	0.321723
C105	C	0.867589	0.045293	0.217421
C106	C	1.367589	0.545293	0.717421
C107	C	0.867593	0.045290	0.296223
C108	C	1.367593	0.545290	0.796223
C109	C	0.820223	0.092894	0.335634
C110	C	1.320223	0.592894	0.835634
C111	C	0.772834	0.140494	0.296237
C112	C	1.272834	0.640494	0.796237
C113	C	0.772826	0.140491	0.217437
C114	C	1.272826	0.640491	0.717437
C115	C	0.810929	0.156512	0.460464
C116	C	1.310929	0.656512	0.960464
C117	C	0.810941	0.156516	0.539263
C118	C	1.310941	0.656516	1.039263
C119	C	0.820242	0.092903	0.578681
C120	C	1.320242	0.592903	1.078681
C121	C	0.829545	0.029284	0.539290
C122	C	1.329545	0.529284	1.039290
C123	C	0.829538	0.029281	0.460489
C124	C	1.329538	0.529281	0.960489
C125	C	0.820226	0.092902	0.421080
C126	C	1.320226	0.592902	0.921080
C127	C	0.867629	0.045300	0.703514
C128	C	1.367629	0.545300	1.203514
C129	C	0.867629	0.045296	0.782317
C130	C	1.367629	0.545296	1.282317
C131	C	0.772872	0.140505	0.782330
C132	C	1.272872	0.640505	1.282330
C133	C	0.772870	0.140504	0.703528
C134	C	1.272870	0.640504	1.203528
C135	C	0.820252	0.092901	0.664125
C136	C	1.320252	0.592901	1.164125
H137	H	0.162458	0.090556	0.123673
H138	H	0.662458	0.590556	0.623673
H139	H	0.734300	0.179263	0.814418
H140	H	1.234300	0.679263	1.314418
O141	O	0.690795	-0.243051	-0.000099
O142	O	1.190795	0.256949	0.499901
H143	H	0.647327	-0.199567	-0.000100
H144	H	1.147327	0.300433	0.499900
H145	H	0.477911	0.095231	0.123700
H146	H	0.977911	0.595231	0.623700
H147	H	0.734291	0.179263	0.671457
H148	H	1.234291	0.679263	1.171457
H149	H	0.930855	-0.710636	-0.000165
H150	H	1.430855	-0.210636	0.499835
H151	H	0.837111	-0.022520	0.428420
H152	H	1.337111	0.477480	0.928420
H153	H	0.609343	0.097185	0.123721
H154	H	1.109343	0.597185	0.623721
H155	H	0.906209	0.006534	0.814387
H156	H	1.406209	0.506534	1.314387
O157	O	0.384232	0.179028	-0.108788
O158	O	0.884232	0.679028	0.391212
H159	H	0.343096	0.206925	-0.145144
H160	H	0.843096	0.706925	0.354856
H161	H	0.609429	0.097171	-0.123907
H162	H	1.109429	0.597171	0.376093
O163	O	0.686505	-0.535695	-0.000121
O164	O	1.186505	-0.035695	0.499879
H165	H	0.683961	-0.502118	0.050904
H166	H	1.183961	-0.002118	0.550904
H167	H	0.837118	-0.022516	0.571382
H168	H	1.337118	0.477484	1.071382
O169	O	0.918722	-0.006047	0.661006
O170	O	1.418722	0.493953	1.161006
H171	H	0.951662	-0.039154	0.701637
H172	H	1.451662	0.460846	1.201637
O173	O	0.956173	-0.127139	-0.000119
O174	O	1.456173	0.372861	0.499881
H175	H	0.999640	-0.170624	-0.000135
H176	H	1.499640	0.329376	0.499865
H177	H	0.734242	0.179250	0.185367
H178	H	1.234242	0.679250	0.685367
O179	O	0.918701	-0.006045	0.338718
O180	O	1.418701	0.493955	0.838718
H181	H	0.952360	0.023268	0.374599
H182	H	1.452360	0.523268	0.874599
H183	H	0.478003	0.095233	-0.123919
H184	H	0.978003	0.595233	0.376081
H185	H	0.734263	0.179253	0.328330
H186	H	1.234263	0.679253	0.828330
O187	O	0.953953	-0.278511	-0.000106
O188	O	1.453953	0.221489	0.499894
H189	H	0.984534	-0.268617	-0.051124
H190	H	1.484534	0.231383	0.448876
H191	H	0.031028	0.088614	0.123658
H192	H	0.531028	0.588614	0.623658
H193	H	0.395806	0.019653	0.094744
H194	H	0.895806	0.519653	0.594744
O195	O	0.800883	0.225124	0.417947
O196	O	1.300883	0.725124	0.917947
H197	H	0.847251	0.229480	0.382013
H198	H	1.347251	0.729480	0.882013
H199	H	0.709600	-0.103566	-0.000100
H200	H	1.209600	0.396434	0.499900
O201	O	0.256239	0.006754	0.108542
O202	O	0.756239	0.506754	0.608542
H203	H	0.218614	0.040755	0.143823
H204	H	0.718614	0.540755	0.643823
H205	H	0.906169	0.006531	0.185341
H206	H	1.406169	0.506531	0.685341
H207	H	0.031119	0.088624	-0.123965
H208	H	0.531119	0.588624	0.376035
H209	H	0.244654	0.166129	-0.094987
H210	H	0.744654	0.666129	0.405013
H211	H	0.932794	-0.578526	-0.000140
H212	H	1.432794	-0.078526	0.499860
H213	H	0.701156	-0.679694	-0.000140
H214	H	1.201156	-0.179694	0.499860
O215	O	0.172133	0.090708	-0.141986
O216	O	0.672133	0.590708	0.358014
H217	H	0.134789	0.090166	-0.189443
H218	H	0.634789	0.590166	0.310557
O219	O	0.800922	0.225129	0.581748
O220	O	1.300922	0.725129	1.081748
H221	H	0.794444	0.269362	0.541102
H222	H	1.294444	0.769362	1.041102
