data_functionalizedCrystal
_audit_creation_method	'MofGen! by Chris Wilmer'
_symmetry_space_group_name_H-M	'P1'
_symmetry_Int_Tables_number	1
_symmetry_cell_setting	triclinic
loop_
_symmetry_equiv_pos_as_xyz
  x,y,z
_cell_length_a	10.654550
_cell_length_b	9.730217
_cell_length_c	10.654550
_cell_angle_alpha	89.995045
_cell_angle_beta	95.515069
_cell_angle_gamma	90.000472
loop_
_atom_site_label
_atom_site_type_symbol
_atom_site_fract_x
_atom_site_fract_y
_atom_site_fract_z
O1	O	1.667840	0.114187	-0.176400
O2	O	1.302361	0.114212	-0.193206
O3	O	1.493503	0.114190	-0.002064
O4	O	1.476697	0.114209	-0.367542
O5	O	1.493490	-0.114390	-0.002056
O6	O	1.302348	-0.114368	-0.193198
O7	O	1.667826	-0.114393	-0.176392
Zn8	Zn	1.485085	-0.150672	-0.184794
Zn9	Zn	1.485103	0.150492	-0.184804
O10	O	1.476684	-0.114371	-0.367534
C11	C	1.255556	-0.000075	-0.191968
C12	C	1.116113	-0.000065	-0.188276
N13	N	1.485081	-0.356209	-0.184786
C14	C	1.036628	-0.000064	-0.300818
C15	C	0.905607	-0.000088	-0.297341
C16	C	0.933570	-0.000109	-0.068772
C17	C	1.064588	-0.000095	-0.072250
C18	C	1.331437	-0.356262	-0.031010
C19	C	1.254628	-0.428229	0.045880
C20	C	1.254647	-0.572108	0.045880
C21	C	1.331480	-0.644025	-0.031021
C22	C	1.408288	-0.572059	-0.107912
C23	C	1.408264	-0.428175	-0.107901
C24	C	1.561924	-0.572005	-0.261692
C25	C	1.561914	-0.428126	-0.261688
C26	C	1.638757	-0.643922	-0.338594
C27	C	1.715574	-0.571956	-0.415479
C28	C	1.715554	-0.428067	-0.415475
C29	C	1.638723	-0.356159	-0.338578
C30	C	1.714631	-0.000103	-0.177630
C31	C	1.854074	-0.000104	-0.181322
C32	C	1.492263	-0.000099	0.044738
C33	C	1.488571	-0.000096	0.184181
N34	N	1.485116	0.356028	-0.184802
C35	C	1.477925	-0.000079	-0.414336
C36	C	1.481616	-0.000072	-0.553779
C37	C	1.601112	-0.000104	0.263667
C38	C	1.597636	-0.000087	0.394688
C39	C	1.369066	-0.000061	0.366725
C40	C	1.372544	-0.000068	0.235706
H41	H	1.078574	-0.000049	-0.395294
H42	H	1.274601	-0.000041	0.408693
H43	H	1.695588	-0.000124	0.221720
H44	H	0.840894	-0.000089	-0.388984
H45	H	0.891602	-0.000142	0.025693
H46	H	1.280893	-0.000058	0.170985
F47	F	1.149188	-0.000106	0.047539
H48	H	1.778094	-0.369481	-0.478096
F49	F	1.331424	-0.203132	-0.030991
F50	F	1.717418	-0.000092	0.479278
F51	F	1.638699	-0.203029	-0.338563
F52	F	1.172857	-0.351681	0.127716
H53	H	1.331476	-0.761179	-0.031026
F54	F	1.638766	-0.797052	-0.338601
F55	F	1.172893	-0.648702	0.127709
H56	H	1.778119	-0.630521	-0.478093
