data_functionalizedCrystal
_audit_creation_method	'MofGen! by Chris Wilmer'
_symmetry_space_group_name_H-M	'P1'
_symmetry_Int_Tables_number	1
_symmetry_cell_setting	triclinic
loop_
_symmetry_equiv_pos_as_xyz
  x,y,z
_cell_length_a	15.995350
_cell_length_b	15.995350
_cell_length_c	14.472310
_cell_angle_alpha	89.998838
_cell_angle_beta	89.990621
_cell_angle_gamma	96.507625
loop_
_atom_site_label
_atom_site_type_symbol
_atom_site_fract_x
_atom_site_fract_y
_atom_site_fract_z
O1	O	1.110997	-0.107921	-0.076758
O2	O	0.867221	-0.121248	-0.076776
O3	O	0.995773	0.007303	-0.076766
O4	O	0.982445	-0.236472	-0.076769
O5	O	0.995740	0.007296	0.076916
O6	O	0.867188	-0.121256	0.076906
O7	O	1.110963	-0.107928	0.076924
Cu8	Cu	0.989073	-0.114593	0.090947
Cu9	Cu	0.989112	-0.114584	-0.090800
O10	O	0.982412	-0.236480	0.076913
C11	C	0.836010	-0.120701	0.000062
C12	C	0.743060	-0.119049	0.000055
C13	C	0.405312	-0.113117	0.000074
C14	C	0.452746	-0.021565	0.000418
C15	C	0.549436	-0.023217	0.000065
C16	C	0.572873	-0.116060	0.000065
C17	C	0.531804	-0.161212	-0.087692
C18	C	0.435169	-0.158912	-0.087759
C19	C	0.434792	-0.160812	0.087007
C20	C	0.531737	-0.160790	0.088160
C21	C	0.667570	-0.117727	0.000057
C22	C	0.310614	-0.111452	0.000076
C23	C	0.995205	0.038494	0.000073
C24	C	0.993553	0.131444	0.000068
C25	C	1.142175	-0.108476	0.000083
C26	C	1.235125	-0.110127	0.000084
C27	C	0.982980	-0.267671	0.000072
C28	C	0.984631	-0.360621	0.000071
N29	N	0.989051	-0.114598	0.218778
C30	C	0.987621	0.469192	0.000071
C31	C	0.896069	0.421758	-0.000281
C32	C	0.897721	0.325068	0.000066
C33	C	0.990564	0.301631	0.000069
C34	C	1.035701	0.342705	0.087831
C35	C	1.033401	0.439340	0.087904
C36	C	1.035330	0.439707	-0.086861
C37	C	1.035309	0.342762	-0.088021
C38	C	0.992231	0.206934	0.000071
C39	C	0.985956	0.563890	0.000075
N40	N	0.989140	-0.114572	-0.218631
C41	C	0.989111	-0.114581	0.592869
C42	C	0.920095	-0.183135	0.553698
C43	C	0.920254	-0.183385	0.446610
C44	C	0.989081	-0.114590	0.407278
C45	C	1.076445	-0.133671	0.446122
C46	C	1.076057	-0.134159	0.553243
C47	C	0.971542	-0.026741	0.553398
C48	C	0.969538	-0.027327	0.446270
C49	C	0.989069	-0.114593	0.302390
C50	C	0.989128	-0.114579	0.697757
H51	H	0.577852	0.012275	0.062973
H52	H	1.129029	-0.085068	0.420643
O53	O	0.428195	0.026913	0.083779
H54	H	0.381918	-0.013721	0.125855
H55	H	1.103014	0.327400	-0.093317
O56	O	0.888970	-0.002446	0.589204
H57	H	0.859529	-0.052715	0.635538
H58	H	0.859626	0.441349	0.062299
O59	O	0.569391	-0.119662	-0.174210
H60	H	0.617310	-0.066862	-0.154929
O61	O	0.884405	-0.008140	0.412661
H62	H	0.856124	-0.060527	0.368362
H63	H	1.103909	0.328579	0.091097
H64	H	0.547101	-0.228494	0.093461
H65	H	0.577308	0.012521	-0.062951
O66	O	0.426808	0.026705	-0.082473
H67	H	0.380282	-0.014228	-0.123917
H68	H	1.100617	0.471588	0.091888
H69	H	0.403031	-0.228313	0.087600
H70	H	0.545930	-0.229421	-0.090955
O71	O	1.031808	0.043421	0.410837
H72	H	1.077866	0.017375	0.364679
O73	O	1.146133	-0.070546	0.587574
H74	H	1.136071	-0.007072	0.561885
O75	O	0.407590	-0.121159	0.175118
H76	H	0.337947	-0.123949	0.176384
H77	H	0.416874	-0.125979	-0.153359
H78	H	0.402921	-0.226128	-0.091741
H79	H	0.559040	-0.127830	0.153082
O80	O	0.850705	0.287410	-0.083253
H81	H	0.826579	0.338256	-0.124156
H82	H	0.859490	0.440293	-0.063217
H83	H	1.092297	-0.197002	0.419285
H84	H	0.861973	0.297200	0.063079
H85	H	1.000459	0.457639	0.153505
O86	O	0.994148	0.305112	0.174344
H87	H	0.941354	0.257188	0.155058
H88	H	0.931473	-0.248569	0.420976
H89	H	1.005412	0.460250	-0.153379
H90	H	1.002307	0.315516	-0.152945
O91	O	1.124741	0.481780	-0.087655
H92	H	1.135190	0.523493	-0.026471
H93	H	0.855314	-0.172016	0.420349
O94	O	0.833795	-0.168336	0.587864
H95	H	0.819320	-0.105360	0.564867
H96	H	0.931159	-0.247952	0.580608
H97	H	1.021872	0.024275	0.578728
H98	H	1.091540	-0.198219	0.578220
