data_functionalizedCrystal
_audit_creation_method	'MofGen! by Chris Wilmer'
_symmetry_space_group_name_H-M	'P1'
_symmetry_Int_Tables_number	1
_symmetry_cell_setting	triclinic
loop_
_symmetry_equiv_pos_as_xyz
  x,y,z
_cell_length_a	16.959455
_cell_length_b	12.645330
_cell_length_c	16.959447
_cell_angle_alpha	89.973930
_cell_angle_beta	89.985678
_cell_angle_gamma	90.014639
loop_
_atom_site_label
_atom_site_type_symbol
_atom_site_fract_x
_atom_site_fract_y
_atom_site_fract_z
Zn1	Zn	1.208397	-0.422105	-0.446932
Zn2	Zn	1.208325	-0.599396	-0.314763
Zn3	Zn	1.076225	-0.422138	-0.314770
Zn4	Zn	1.076195	-0.599317	-0.446902
O5	O	1.142286	-0.510739	-0.380842
O6	O	1.318998	-0.445642	-0.429410
O7	O	1.190784	-0.575930	-0.204153
O8	O	1.093801	-0.273786	-0.332316
O9	O	1.318945	-0.575898	-0.332306
O10	O	1.190907	-0.273762	-0.429416
O11	O	1.093731	-0.445699	-0.204158
O12	O	0.965610	-0.445622	-0.332287
O13	O	1.093750	-0.575763	-0.557517
O14	O	0.965589	-0.575795	-0.429364
O15	O	1.190878	-0.445565	-0.557539
O16	O	1.190755	-0.747733	-0.332277
O17	O	1.093680	-0.747675	-0.429358
C18	C	0.936919	-0.510704	-0.380824
C19	C	0.849063	-0.510715	-0.380835
C20	C	1.142228	-0.786169	-0.380831
C21	C	1.142276	-0.903999	-0.380852
C22	C	0.477574	-0.442903	-0.330399
C23	C	0.477600	-0.578663	-0.431329
C24	C	0.560146	-0.578648	-0.431325
C25	C	0.601410	-0.510760	-0.380855
C26	C	0.560128	-0.442888	-0.330391
C27	C	0.601434	-0.646526	-0.481782
C28	C	0.683985	-0.646515	-0.481779
C29	C	0.725251	-0.578621	-0.431313
C30	C	0.683963	-0.510745	-0.380847
C31	C	0.725227	-0.442857	-0.330378
C32	C	0.683941	-0.374975	-0.279916
C33	C	0.601393	-0.374994	-0.279925
C34	C	0.807799	-0.578602	-0.431304
C35	C	0.807781	-0.442842	-0.330370
C36	C	1.081458	-1.071570	-0.442115
C37	C	1.081147	-0.949011	-0.441918
C38	C	1.119734	-0.948594	-0.297551
C39	C	1.119363	-1.071192	-0.297922
C40	C	1.226007	-1.071094	-0.402216
C41	C	1.225494	-0.948487	-0.404038
C42	C	1.348454	-0.510775	-0.380860
C43	C	1.436310	-0.510790	-0.380868
C44	C	1.142319	-0.510651	-0.587010
C45	C	1.142333	-0.510614	-0.674867
C46	C	1.142365	-0.234234	-0.380870
C47	C	1.142399	-0.116404	-0.380882
C48	C	1.091857	-0.578290	-1.046333
C49	C	1.192997	-0.442715	-1.046352
C50	C	1.192976	-0.442737	-0.963806
C51	C	1.142395	-0.510538	-0.922520
C52	C	1.091836	-0.578317	-0.963780
C53	C	1.243540	-0.374967	-0.922539
C54	C	1.243522	-0.374988	-0.839988
C55	C	1.192937	-0.442784	-0.798701
C56	C	1.142375	-0.510565	-0.839966
C57	C	1.091794	-0.578366	-0.798680
C58	C	1.041227	-0.646142	-0.839944
C59	C	1.041251	-0.646113	-0.922492
C60	C	1.192913	-0.442813	-0.716153
C61	C	1.091773	-0.578393	-0.716127
C62	C	1.142298	-0.510750	-0.175475
C63	C	1.142437	-0.510489	-0.087619
H64	H	0.717549	-0.319706	-0.238821
C65	C	0.432898	-0.369091	-0.275582
C66	C	0.486707	-0.309621	-0.231397
C67	C	0.445580	-0.241604	-0.180899
H68	H	0.400674	-0.409470	-0.241024
H69	H	0.400730	-0.322896	-0.305863
H70	H	0.518861	-0.355809	-0.201118
H71	H	0.518932	-0.269220	-0.265934
H72	H	0.413412	-0.195410	-0.211179
H73	H	0.413358	-0.281992	-0.146346
H74	H	0.482083	-0.201239	-0.150918
H75	H	0.567831	-0.701804	-0.522866
C76	C	0.852436	-0.369095	-0.275485
C77	C	0.798609	-0.309676	-0.231284
C78	C	0.839716	-0.241742	-0.180707
H79	H	0.884660	-0.322857	-0.305685
H80	H	0.884602	-0.409564	-0.240946
H81	H	0.766457	-0.269210	-0.265818
H82	H	0.766384	-0.355886	-0.201067
H83	H	0.871882	-0.282211	-0.146169
H84	H	0.871939	-0.195511	-0.210914
H85	H	0.803202	-0.201425	-0.150706
H86	H	1.246571	-1.101937	-0.461927
C87	C	1.286555	-1.109550	-0.342686
C88	C	1.320824	-1.022473	-0.304948
C89	C	1.376587	-1.057865	-0.250095
H90	H	1.326288	-1.148905	-0.369076
H91	H	1.261395	-1.153260	-0.304673
H92	H	1.345984	-0.978780	-0.342955
H93	H	1.281110	-0.983108	-0.278542
H94	H	1.351427	-1.101576	-0.212082
H95	H	1.416316	-1.097221	-0.276492
H96	H	1.399841	-0.998790	-0.224478
C97	C	0.432660	-0.652252	-0.486091
C98	C	0.351531	-0.637723	-0.475308
C99	C	0.310105	-0.705487	-0.525751
H100	H	0.446084	-0.723502	-0.474484
H101	H	0.446159	-0.636810	-0.539235
H102	H	0.338037	-0.653173	-0.422176
H103	H	0.338083	-0.566488	-0.486920
H104	H	0.323604	-0.690045	-0.578896
H105	H	0.323535	-0.776732	-0.514141
H106	H	0.255054	-0.695631	-0.518447
C107	C	1.100141	-1.110583	-0.524789
C108	C	1.114946	-1.023877	-0.573989
C109	C	1.132173	-1.059783	-0.650152
H110	H	1.056561	-1.149497	-0.544681
H111	H	1.145377	-1.154832	-0.523188
H112	H	1.069715	-0.979646	-0.575592
H113	H	1.158529	-0.984954	-0.554122
H114	H	1.177410	-1.104032	-0.648551
H115	H	1.088591	-1.098697	-0.670036
H116	H	1.142228	-1.000960	-0.683541
H117	H	1.050577	-0.633596	-0.682518
C118	C	0.728663	-0.720245	-0.536655
C119	C	0.674857	-0.779682	-0.580868
C120	C	0.715986	-0.847600	-0.631438
H121	H	0.760858	-0.766473	-0.506449
H122	H	0.760861	-0.679764	-0.571187
H123	H	0.642673	-0.820161	-0.546341
H124	H	0.642661	-0.733483	-0.611090
H125	H	0.748183	-0.807119	-0.665969
H126	H	0.748179	-0.893821	-0.601225
H127	H	0.679485	-0.887929	-0.661447
C128	C	0.852725	-0.652123	-0.486130
C129	C	0.900153	-0.592178	-0.536854
C130	C	0.941557	-0.659871	-0.587366
H131	H	0.816419	-0.692585	-0.516261
H132	H	0.884961	-0.698235	-0.455851
H133	H	0.867920	-0.546084	-0.567130
H134	H	0.936473	-0.551718	-0.506744
H135	H	0.973793	-0.705983	-0.557087
H136	H	0.905245	-0.700330	-0.617492
H137	H	0.973747	-0.619209	-0.621784
H138	H	1.000048	-0.701350	-0.806318
H139	H	1.161824	-1.100854	-0.250744
H140	H	1.058245	-1.099880	-0.279850
C141	C	0.986406	-0.719870	-0.967195
C142	C	1.003569	-0.824766	-0.947082
C143	C	0.953059	-0.892740	-0.988242
H144	H	0.993618	-0.710288	-1.022282
H145	H	0.933283	-0.704417	-0.953658
H146	H	1.056679	-0.840214	-0.960625
H147	H	0.996352	-0.834382	-0.892003
H148	H	0.899936	-0.877287	-0.974705
H149	H	0.960275	-0.883148	-1.043327
H150	H	0.964692	-0.963918	-0.974597
C151	C	1.298325	-0.301239	-0.967409
C152	C	1.253603	-0.233249	-1.014797
C153	C	1.304046	-0.165307	-1.056140
H154	H	1.332770	-0.341674	-0.999670
H155	H	1.328428	-0.260818	-0.931042
H156	H	1.223513	-0.273665	-1.051160
H157	H	1.219160	-0.192790	-0.982555
H158	H	1.334149	-0.124886	-1.019773
H159	H	1.338488	-0.205751	-1.088396
H160	H	1.273709	-0.119161	-1.088292
H161	H	1.095249	-0.918856	-0.503685
C162	C	0.999386	-1.112969	-0.423492
C163	C	0.999513	-1.223567	-0.427368
C164	C	0.923927	-1.261742	-0.410203
H165	H	0.962856	-1.085624	-0.460728
H166	H	0.984563	-1.091199	-0.371970
H167	H	1.014326	-1.245326	-0.478882
H168	H	1.036026	-1.250940	-0.390132
H169	H	0.909104	-1.239973	-0.358681
H170	H	0.887403	-1.234390	-0.447441
H171	H	0.924004	-1.336786	-0.412824
C172	C	1.177001	-0.909922	-0.234947
C173	C	1.155164	-0.951216	-0.161503
C174	C	1.207918	-0.915645	-0.103821
H175	H	1.175813	-0.834875	-0.232853
H176	H	1.228792	-0.932849	-0.247728
H177	H	1.103387	-0.928283	-0.148725
H178	H	1.156357	-1.026259	-0.163571
H179	H	1.259709	-0.938572	-0.116602
H180	H	1.206726	-0.840599	-0.101734
H181	H	1.193113	-0.943665	-0.053984
C182	C	1.248105	-0.909844	-0.485858
C183	C	1.259386	-0.996842	-0.535634
C184	C	1.280186	-0.961290	-0.611022
H185	H	1.295517	-0.870045	-0.482839
H186	H	1.207139	-0.866524	-0.506257
H187	H	1.300349	-1.040144	-0.515239
H188	H	1.211983	-1.036650	-0.538676
H189	H	1.239220	-0.917971	-0.631421
H190	H	1.327597	-0.921491	-0.607995
H191	H	1.287836	-1.020312	-0.644806
H192	H	1.234182	-0.387520	-1.079971
C193	C	0.998480	-0.909956	-0.423228
C194	C	0.970669	-0.848522	-0.486038
C195	C	0.894512	-0.812541	-0.468850
H196	H	0.999669	-0.868376	-0.376611
H197	H	0.964489	-0.968810	-0.415593
H198	H	1.004651	-0.789676	-0.493663
H199	H	0.969460	-0.890079	-0.532662
H200	H	0.860521	-0.871394	-0.461215
H201	H	0.895709	-0.770965	-0.422231
H202	H	0.875630	-0.770862	-0.511466
H203	H	1.059254	-0.917979	-0.279151
H204	H	1.284696	-0.319800	-0.806398
H205	H	0.567771	-0.319729	-0.238841
H206	H	1.273288	-0.917841	-0.362687
C207	C	1.247838	-0.369121	-0.671495
C208	C	1.292129	-0.309726	-0.725319
C209	C	1.342728	-0.241816	-0.684210
H210	H	1.282325	-0.409574	-0.639280
H211	H	1.217625	-0.322875	-0.639319
H212	H	1.322339	-0.355966	-0.757482
H213	H	1.257663	-0.269252	-0.757535
H214	H	1.312515	-0.195569	-0.652035
H215	H	1.377210	-0.282276	-0.651998
H216	H	1.372780	-0.201501	-0.720724
H217	H	1.050685	-0.633468	-1.079934
