data_functionalizedCrystal
_audit_creation_method	'MofGen! by Chris Wilmer'
_symmetry_space_group_name_H-M	'P1'
_symmetry_Int_Tables_number	1
_symmetry_cell_setting	triclinic
loop_
_symmetry_equiv_pos_as_xyz
  x,y,z
_cell_length_a	10.489741
_cell_length_b	16.992695
_cell_length_c	15.455313
_cell_angle_alpha	87.152573
_cell_angle_beta	87.289477
_cell_angle_gamma	92.396302
loop_
_atom_site_label
_atom_site_type_symbol
_atom_site_fract_x
_atom_site_fract_y
_atom_site_fract_z
O1	O	1.708930	-0.107286	-0.072173
O2	O	1.338638	-0.117677	-0.072166
O3	O	1.522299	0.001669	-0.072162
O4	O	1.525269	-0.226632	-0.072176
O5	O	1.511794	-0.005127	0.072100
O6	O	1.328133	-0.124473	0.072096
O7	O	1.698425	-0.114083	0.072089
Cu8	Cu	1.512320	-0.119898	0.085265
Cu9	Cu	1.524744	-0.111861	-0.085341
O10	O	1.514764	-0.233428	0.072086
C11	C	1.513227	0.027505	-0.000031
C12	C	1.501832	0.114614	-0.000031
C13	C	1.285785	-0.120290	-0.000034
C14	C	1.143951	-0.117942	-0.000031
C15	C	1.751278	-0.111469	-0.000045
C16	C	1.893112	-0.113816	-0.000053
C17	C	1.967858	-0.189753	-0.000049
C18	C	2.062044	-0.150531	-0.071172
C19	C	2.051651	-0.157213	0.071059
C20	C	1.985434	-0.074560	-0.071235
C21	C	1.975028	-0.081256	0.071059
C22	C	2.069182	-0.041978	-0.000081
C23	C	1.523836	-0.259264	-0.000047
C24	C	1.535232	-0.346373	-0.000053
N25	N	1.503591	-0.125551	0.205260
C26	C	1.611782	0.164233	-0.000033
C27	C	1.601067	0.246081	-0.000041
C28	C	1.480402	0.278307	-0.000041
C29	C	1.370445	0.228681	-0.000043
C30	C	1.381161	0.146835	-0.000041
C31	C	1.435990	0.522156	-0.000052
C32	C	1.425282	0.604008	-0.000052
C33	C	1.655906	0.621402	-0.000051
C34	C	1.666611	0.539554	-0.000044
C35	C	1.556654	0.489935	-0.000050
N36	N	1.469448	0.361968	-0.000047
N37	N	1.567610	0.406276	-0.000051
N38	N	1.533482	-0.106202	-0.205337
C39	C	1.581647	-0.074868	0.250656
C40	C	1.575058	-0.079150	0.341464
C41	C	1.490418	-0.134120	0.386874
C42	C	1.412353	-0.184805	0.341472
C43	C	1.418936	-0.180519	0.250666
C44	C	1.462000	-0.152601	0.658455
C45	C	1.455425	-0.156885	0.749268
C46	C	1.618130	-0.051228	0.749253
C47	C	1.624711	-0.046950	0.658445
C48	C	1.546641	-0.097633	0.613051
N49	N	1.483684	-0.138500	0.479694
N50	N	1.553369	-0.093248	0.520232
H51	H	1.923647	-0.252184	-0.000124
H52	H	2.100238	-0.179830	-0.131304
N53	N	1.321058	-0.244089	0.390453
H54	H	1.370634	-0.280899	0.428111
H55	H	1.272624	-0.275490	0.347862
H56	H	1.355373	-0.221789	0.213706
H57	H	1.690600	0.286478	-0.000040
N58	N	1.741931	0.129481	-0.000029
H59	H	1.732040	0.070103	-0.000024
H60	H	1.786508	0.145074	0.053451
N61	N	1.377805	-0.207276	0.609514
H62	H	1.432838	-0.240530	0.571822
H63	H	1.320976	-0.175131	0.571906
H64	H	1.291628	0.106435	-0.000040
H65	H	1.956196	-0.039623	-0.131437
H66	H	2.113163	0.020516	-0.000112
N67	N	1.672915	-0.015563	0.201684
H68	H	1.665240	-0.020533	0.137269
H69	H	1.763230	-0.025905	0.217533
H70	H	1.638617	-0.037879	0.378424
H71	H	1.936807	-0.051986	0.131197
H72	H	1.272197	0.254926	-0.000049
H73	H	1.693631	-0.002189	0.621473
N74	N	2.090598	-0.203538	0.150709
H75	H	2.053518	-0.259351	0.150636
H76	H	2.057526	-0.177887	0.204390
N77	N	1.796756	0.504797	-0.000038
H78	H	1.864786	0.548651	-0.000040
H79	H	1.810124	0.473732	-0.053516
N80	N	1.702328	0.003434	0.798212
H81	H	1.685318	-0.007620	0.862628
H82	H	1.683067	0.059929	0.782352
N83	N	1.774497	0.674918	-0.000043
H84	H	1.749404	0.731657	-0.000044
H85	H	1.830620	0.666926	-0.053523
N86	N	1.295131	0.638768	-0.000053
H87	H	1.227098	0.594917	-0.000060
H88	H	1.289569	0.674867	-0.053533
N89	N	1.317399	0.468645	-0.000055
H90	H	1.239335	0.501482	-0.000051
H91	H	1.312924	0.431791	0.053425
N92	N	1.364144	-0.216184	0.798249
H93	H	1.315688	-0.247643	0.755714
H94	H	1.301939	-0.187593	0.835950
