data_functionalizedCrystal
_audit_creation_method	'MofGen! by Chris Wilmer'
_symmetry_space_group_name_H-M	'P1'
_symmetry_Int_Tables_number	1
_symmetry_cell_setting	triclinic
loop_
_symmetry_equiv_pos_as_xyz
  x,y,z
_cell_length_a	14.519709
_cell_length_b	14.519709
_cell_length_c	13.596369
_cell_angle_alpha	90.006934
_cell_angle_beta	90.000291
_cell_angle_gamma	96.319855
loop_
_atom_site_label
_atom_site_type_symbol
_atom_site_fract_x
_atom_site_fract_y
_atom_site_fract_z
O1	O	1.223868	-0.120893	-0.081665
O2	O	1.473868	0.129107	0.168335
O3	O	1.723868	0.379107	0.418335
O4	O	1.973868	0.629107	0.668335
O5	O	0.955392	-0.135129	-0.081696
O6	O	1.205392	0.114871	0.168304
O7	O	1.455392	0.364871	0.418304
O8	O	1.705392	0.614871	0.668304
O9	O	1.096748	0.006227	-0.081671
O10	O	1.346748	0.256227	0.168329
O11	O	1.596748	0.506227	0.418329
O12	O	1.846748	0.756227	0.668329
O13	O	1.082512	-0.262249	-0.081690
O14	O	1.332512	-0.012249	0.168310
O15	O	1.582512	0.237751	0.418310
O16	O	1.832512	0.487751	0.668310
O17	O	1.096734	0.006235	0.081912
O18	O	1.346734	0.256235	0.331912
O19	O	1.596734	0.506235	0.581912
O20	O	1.846734	0.756235	0.831912
O21	O	0.955377	-0.135122	0.081887
O22	O	1.205377	0.114878	0.331887
O23	O	1.455377	0.364878	0.581887
O24	O	1.705377	0.614878	0.831887
O25	O	1.223854	-0.120885	0.081917
O26	O	1.473854	0.129115	0.331917
O27	O	1.723854	0.379115	0.581917
O28	O	1.973854	0.629115	0.831917
Zn29	Zn	1.089614	-0.128002	0.107875
Zn30	Zn	1.339614	0.121998	0.357875
Zn31	Zn	1.589614	0.371998	0.607875
Zn32	Zn	1.839614	0.621998	0.857875
Zn33	Zn	1.089632	-0.128012	-0.107653
Zn34	Zn	1.339632	0.121988	0.142347
Zn35	Zn	1.589632	0.371988	0.392347
Zn36	Zn	1.839632	0.621988	0.642347
O37	O	1.082498	-0.262242	0.081893
O38	O	1.332498	-0.012242	0.331893
O39	O	1.582498	0.237758	0.581893
O40	O	1.832498	0.487758	0.831893
C41	C	0.921025	-0.134462	0.000092
C42	C	1.171025	0.115538	0.250092
C43	C	1.421025	0.365538	0.500092
C44	C	1.671025	0.615538	0.750092
C45	C	0.818643	-0.132474	0.000081
C46	C	1.068643	0.117526	0.250081
C47	C	1.318643	0.367526	0.500081
C48	C	1.568643	0.617526	0.750081
C49	C	1.096078	0.040591	0.000121
C50	C	1.346078	0.290591	0.250121
C51	C	1.596078	0.540591	0.500121
C52	C	1.846078	0.790591	0.750121
C53	C	1.094090	0.142972	0.000121
C54	C	1.344090	0.392972	0.250121
C55	C	1.594090	0.642972	0.500121
C56	C	1.844090	0.892972	0.750121
C57	C	1.083168	-0.296605	0.000099
C58	C	1.333168	-0.046605	0.250099
C59	C	1.583168	0.203395	0.500099
C60	C	1.833168	0.453395	0.750099
C61	C	1.085156	-0.398987	0.000092
C62	C	1.335156	-0.148987	0.250092
C63	C	1.585156	0.101013	0.500092
C64	C	1.835156	0.351013	0.750092
C65	C	0.443748	-0.125154	0.000126
C66	C	0.693748	0.124846	0.250126
C67	C	0.943748	0.374846	0.500126
C68	C	1.193748	0.624846	0.750126
C69	C	0.548056	-0.127187	0.000113
C70	C	0.798056	0.122813	0.250113
C71	C	1.048056	0.372813	0.500113
C72	C	1.298056	0.622813	0.750113
C73	C	0.631192	-0.128814	0.000102
C74	C	0.881192	0.121186	0.250102
C75	C	1.131192	0.371186	0.500102
C76	C	1.381192	0.621186	0.750102
C77	C	0.735507	-0.130847	0.000091
C78	C	0.985507	0.119153	0.250091
C79	C	1.235507	0.369153	0.500091
C80	C	1.485507	0.619153	0.750091
C81	C	1.258221	-0.121553	0.000128
C82	C	1.508221	0.128447	0.250128
C83	C	1.758221	0.378447	0.500128
C84	C	2.008221	0.628447	0.750128
C85	C	1.360602	-0.123541	0.000132
C86	C	1.610602	0.126459	0.250132
C87	C	1.860602	0.376459	0.500132
C88	C	2.110602	0.626459	0.750132
N89	N	1.089608	-0.127995	0.254966
N90	N	1.339608	0.122005	0.504966
N91	N	1.589608	0.372005	0.754966
N92	N	1.839608	0.622005	1.004966
C93	C	1.086770	0.517868	0.000095
C94	C	1.336770	0.767868	0.250095
C95	C	1.586770	1.017868	0.500095
C96	C	1.836770	1.267868	0.750095
C97	C	1.088803	0.413560	0.000102
C98	C	1.338803	0.663560	0.250102
C99	C	1.588803	0.913560	0.500102
C100	C	1.838803	1.163560	0.750102
C101	C	1.090430	0.330423	0.000109
C102	C	1.340430	0.580423	0.250109
C103	C	1.590430	0.830423	0.500109
C104	C	1.840430	1.080423	0.750109
C105	C	1.092463	0.226109	0.000114
C106	C	1.342463	0.476109	0.250114
C107	C	1.592463	0.726109	0.500114
C108	C	1.842463	0.976109	0.750114
N109	N	1.089645	-0.128012	-0.254745
N110	N	1.339645	0.121988	-0.004745
N111	N	1.589645	0.371988	0.245255
N112	N	1.839645	0.621988	0.495255
C113	C	1.089631	-0.128013	0.656257
C114	C	1.339631	0.121987	0.906257
C115	C	1.589631	0.371987	1.156257
C116	C	1.839631	0.621987	1.406257
C117	C	1.089622	-0.128011	0.544606
C118	C	1.339622	0.121989	0.794606
C119	C	1.589622	0.371989	1.044606
C120	C	1.839622	0.621989	1.294606
C121	C	1.089620	-0.128005	0.455615
C122	C	1.339620	0.121995	0.705615
C123	C	1.589620	0.371995	0.955615
C124	C	1.839620	0.621995	1.205615
C125	C	1.089610	-0.128001	0.343957
C126	C	1.339610	0.121999	0.593957
C127	C	1.589610	0.371999	0.843957
C128	C	1.839610	0.621999	1.093957
