data_functionalizedCrystal
_audit_creation_method	'MofGen! by Chris Wilmer'
_symmetry_space_group_name_H-M	'P1'
_symmetry_Int_Tables_number	1
_symmetry_cell_setting	triclinic
loop_
_symmetry_equiv_pos_as_xyz
  x,y,z
_cell_length_a	9.065218
_cell_length_b	9.065218
_cell_length_c	8.140239
_cell_angle_alpha	89.997972
_cell_angle_beta	90.002802
_cell_angle_gamma	94.984115
loop_
_atom_site_label
_atom_site_type_symbol
_atom_site_fract_x
_atom_site_fract_y
_atom_site_fract_z
O1	O	-1.960398	0.216355	-0.136612
O2	O	-1.627065	0.549688	0.196722
O3	O	-1.293731	0.883021	0.530055
O4	O	-1.531113	0.234101	-0.136614
O5	O	-1.197780	0.567434	0.196720
O6	O	-0.864446	0.900768	0.530053
O7	O	-1.754629	0.010585	-0.136608
O8	O	-1.421295	0.343919	0.196725
O9	O	-1.087962	0.677252	0.530059
O10	O	-1.736882	0.439870	-0.136617
O11	O	-1.403549	0.773204	0.196716
O12	O	-1.070216	1.106537	0.530049
O13	O	-1.754616	0.010583	0.136619
O14	O	-1.421283	0.343916	0.469953
O15	O	-1.087950	0.677249	0.803286
O16	O	-1.531101	0.234098	0.136613
O17	O	-1.197767	0.567432	0.469947
O18	O	-0.864434	0.900765	0.803280
O19	O	-1.960385	0.216352	0.136615
O20	O	-1.627052	0.549685	0.469949
O21	O	-1.293719	0.883019	0.803282
Zn22	Zn	-1.745741	0.225225	0.179995
Zn23	Zn	-1.412408	0.558558	0.513328
Zn24	Zn	-1.079074	0.891891	0.846662
Zn25	Zn	-1.745758	0.225228	-0.179993
Zn26	Zn	-1.412424	0.558562	0.153340
Zn27	Zn	-1.079091	0.891895	0.486673
O28	O	-1.736870	0.439868	0.136610
O29	O	-1.403536	0.773201	0.469943
O30	O	-1.070203	1.106534	0.803276
C31	C	-1.752917	-0.044403	0.000003
C32	C	-1.419584	0.288931	0.333337
C33	C	-1.086250	0.622264	0.666670
C34	C	-1.747817	-0.208245	-0.000003
C35	C	-1.414484	0.125088	0.333330
C36	C	-1.081151	0.458421	0.666663
C37	C	-1.476120	0.232394	-0.000000
C38	C	-1.142787	0.565727	0.333333
C39	C	-0.809454	0.899061	0.666666
C40	C	-1.312277	0.227294	-0.000001
C41	C	-0.978944	0.560628	0.333332
C42	C	-0.645611	0.893961	0.666666
C43	C	-2.015378	0.218059	-0.000002
C44	C	-1.682045	0.551392	0.333332
C45	C	-1.348712	0.884725	0.666665
C46	C	-2.179221	0.223158	-0.000012
C47	C	-1.845888	0.556492	0.333322
C48	C	-1.512555	0.889825	0.666655
N49	N	-1.745741	0.225221	0.425678
N50	N	-1.412407	0.558555	0.759011
N51	N	-1.079074	0.891888	1.092344
C52	C	-1.738582	0.494855	-0.000005
C53	C	-1.405248	0.828189	0.333328
C54	C	-1.071915	1.161522	0.666661
C55	C	-1.743681	0.658698	-0.000009
C56	C	-1.410348	0.992032	0.333324
C57	C	-1.077015	1.325365	0.666657
N58	N	-1.745770	0.225220	-0.425676
N59	N	-1.412436	0.558553	-0.092343
N60	N	-1.079103	0.891887	0.240991
