data_functionalizedCrystal
_audit_creation_method	'MofGen! by Chris Wilmer'
_symmetry_space_group_name_H-M	'P1'
_symmetry_Int_Tables_number	1
_symmetry_cell_setting	triclinic
loop_
_symmetry_equiv_pos_as_xyz
  x,y,z
_cell_length_a	19.121102
_cell_length_b	13.032721
_cell_length_c	13.032268
_cell_angle_alpha	103.289627
_cell_angle_beta	84.957231
_cell_angle_gamma	84.922575
loop_
_atom_site_label
_atom_site_type_symbol
_atom_site_fract_x
_atom_site_fract_y
_atom_site_fract_z
Zn1	Zn	0.963320	0.569211	0.724190
Zn2	Zn	1.463320	1.069211	1.224190
Zn3	Zn	0.963245	0.724290	0.569133
Zn4	Zn	1.463245	1.224290	1.069133
Zn5	Zn	0.864186	0.539489	0.539408
Zn6	Zn	1.364186	1.039489	1.039408
Zn7	Zn	0.830418	0.737094	0.737024
Zn8	Zn	1.330418	1.237094	1.237024
O9	O	0.905292	0.642521	0.642439
O10	O	1.405292	1.142521	1.142439
O11	O	1.060387	0.596863	0.710691
O12	O	1.560387	1.096863	1.210691
O13	O	0.964204	0.681978	0.417594
O14	O	1.464204	1.181978	0.917594
O15	O	0.891500	0.395832	0.546108
O16	O	1.391500	0.895832	1.046108
O17	O	1.060331	0.710798	0.596771
O18	O	1.560331	1.210798	1.096771
O19	O	0.964334	0.417669	0.681867
O20	O	1.464334	0.917669	1.181867
O21	O	0.891426	0.546206	0.395755
O22	O	1.391426	1.046206	0.895755
O23	O	0.762630	0.558621	0.558553
O24	O	1.262630	1.058621	1.058553
O25	O	0.833948	0.732621	0.882917
O26	O	1.333948	1.232621	1.382917
O27	O	0.737821	0.703801	0.703741
O28	O	1.237821	1.203801	1.203741
O29	O	0.931591	0.609278	0.873488
O30	O	1.431591	1.109278	1.373488
O31	O	0.931462	0.873588	0.609215
O32	O	1.431462	1.373588	1.109215
O33	O	0.833874	0.882995	0.732564
O34	O	1.333874	1.382995	1.232564
C35	C	0.879012	0.916566	0.675532
C36	C	1.379012	1.416566	1.175532
C37	C	0.867830	1.033813	0.689730
C38	C	1.367830	1.533813	1.189730
C39	C	0.725054	0.629376	0.629315
C40	C	1.225054	1.129376	1.129315
C41	C	0.647943	0.623781	0.623728
C42	C	1.147943	1.123781	1.123728
C43	C	0.879011	0.675693	0.917543
C44	C	1.379011	1.175693	1.417543
C45	C	0.867812	0.689830	1.034776
C46	C	1.367812	1.189830	1.534776
C47	C	0.598818	0.696829	0.696602
C48	C	1.098818	1.196829	1.196602
C49	C	0.526364	0.691558	0.691356
C50	C	1.026364	1.191558	1.191356
C51	C	0.503037	0.613244	0.613232
C52	C	1.003037	1.113244	1.113232
C53	C	0.552168	0.540189	0.540355
C54	C	1.052168	1.040189	1.040355
C55	C	0.624620	0.545456	0.545606
C56	C	1.124620	1.045456	1.045606
C57	C	0.284924	0.593553	0.593604
C58	C	0.784924	1.093553	1.093604
C59	C	0.212466	0.588294	0.588356
C60	C	0.712466	1.088294	1.088356
C61	C	0.186667	0.739662	0.739360
C62	C	0.686667	1.239662	1.239360
C63	C	0.259121	0.744926	0.744600
C64	C	0.759121	1.244926	1.244600
C65	C	0.308246	0.671867	0.671726
C66	C	0.808246	1.171867	1.171726
C67	C	0.428978	0.607857	0.607866
C68	C	0.928978	1.107857	1.107866
C69	C	0.382303	0.677250	0.677098
C70	C	0.882303	1.177250	1.177098
C71	C	1.086234	0.655718	0.655615
C72	C	1.586234	1.155718	1.155615
C73	C	1.163341	0.661341	0.661230
C74	C	1.663341	1.161341	1.161230
C75	C	0.931692	0.367409	0.609241
C76	C	1.431692	0.867409	1.109241
C77	C	0.942941	0.250173	0.595093
C78	C	1.442941	0.750173	1.095093
C79	C	0.911161	1.081404	0.635079
C80	C	1.411161	1.581404	1.135079
C81	C	0.899604	1.202585	0.649752
C82	C	1.399604	1.702585	1.149752
C83	C	0.931518	0.609404	0.368399
C84	C	1.431518	1.109404	0.868399
C85	C	0.942881	0.594981	0.251140
C86	C	1.442881	1.094981	0.751140
C87	C	0.911130	0.635104	1.082377
C88	C	1.411130	1.135104	1.582377
C89	C	0.899556	0.649713	1.203543
C90	C	1.399556	1.149713	1.703543
H91	H	0.617804	0.760604	0.760216
H92	H	1.117804	1.260604	1.260216
C93	C	1.004565	0.517068	1.185022
C94	C	1.504565	1.017068	1.685022
N95	N	1.051026	0.458387	1.135221
N96	N	1.551026	0.958387	1.635221
H97	H	0.664618	0.485968	0.486269
H98	H	1.164618	0.985968	0.986269
H99	H	0.822152	0.747490	1.083725
H100	H	1.322152	1.247490	1.583725
H101	H	0.278108	0.808700	0.808215
H102	H	0.778108	1.308700	1.308215
C103	C	0.972838	1.015255	0.557193
C104	C	1.472838	1.515255	1.057193
N105	N	1.019293	0.965432	0.498525
N106	N	1.519293	1.465432	0.998525
H107	H	0.956783	0.577433	1.033426
H108	H	1.456783	1.077433	1.533426
C109	C	0.837923	1.268730	0.727640
C110	C	1.337923	1.768730	1.227640
N111	N	0.791464	1.318552	0.786302
N112	N	1.291464	1.818552	1.286302
H113	H	0.401299	0.741009	0.740710
H114	H	0.901299	1.241009	1.240710
C115	C	0.806151	1.099962	0.767614
C116	C	1.306151	1.599962	1.267614
N117	N	0.759693	1.149784	0.826276
N118	N	1.259693	1.649784	1.326276
H119	H	0.988600	1.201210	0.537443
H120	H	1.488600	1.701210	1.037443
C121	C	0.837871	0.727622	1.269663
C122	C	1.337871	1.227622	1.769663
N123	N	0.791410	0.786302	1.319466
N124	N	1.291410	1.286302	1.819466
H125	H	0.486368	0.751043	0.750697
H126	H	0.986368	1.251043	1.250697
C127	C	0.403311	0.521717	0.521927
C128	C	0.903311	1.021717	1.021927
N129	N	0.383975	0.456835	0.457200
N130	N	0.883975	0.956835	0.957200
H131	H	0.146662	0.799141	0.798690
H132	H	0.646662	1.299141	1.298690
H133	H	0.324913	0.534070	0.534258
H134	H	0.824913	1.034070	1.034258
C135	C	0.186809	0.502137	0.502410
C136	C	0.686809	1.002137	1.002410
N137	N	0.167484	0.437248	0.437678
N138	N	0.667484	0.937248	0.937678
H139	H	0.533170	0.476420	0.476748
H140	H	1.033170	0.976420	0.976748
