data_functionalizedCrystal
_audit_creation_method	'MofGen! by Chris Wilmer'
_symmetry_space_group_name_H-M	'P1'
_symmetry_Int_Tables_number	1
_symmetry_cell_setting	triclinic
loop_
_symmetry_equiv_pos_as_xyz
  x,y,z
_cell_length_a	21.395362
_cell_length_b	17.640280
_cell_length_c	21.395364
_cell_angle_alpha	101.209491
_cell_angle_beta	90.034975
_cell_angle_gamma	78.812025
loop_
_atom_site_label
_atom_site_type_symbol
_atom_site_fract_x
_atom_site_fract_y
_atom_site_fract_z
Zn1	Zn	1.008275	-0.314416	0.304286
Zn2	Zn	1.029403	-0.446545	0.178371
Zn3	Zn	0.903510	-0.314444	0.199483
Zn4	Zn	0.924672	-0.446571	0.283071
O5	O	0.966465	-0.380494	0.241303
O6	O	1.098752	-0.331921	0.287626
O7	O	1.012689	-0.429023	0.093493
O8	O	0.899709	-0.203848	0.231099
O9	O	1.114275	-0.428996	0.195116
O10	O	0.976679	-0.203827	0.308097
O11	O	0.920196	-0.331968	0.109004
O12	O	0.818643	-0.331993	0.210528
O13	O	0.935776	-0.429039	0.373563
O14	O	0.834191	-0.429066	0.271940
O15	O	0.997199	-0.331945	0.389150
O16	O	1.033209	-0.557141	0.174545
O17	O	0.956264	-0.557160	0.251468
C18	C	0.803684	-0.380536	0.241223
C19	C	0.734049	-0.380573	0.241201
C20	C	0.999343	-0.585826	0.208428
C21	C	1.013465	-0.673668	0.194385
C22	C	0.709458	-0.431186	0.273108
C23	C	0.644020	-0.431166	0.273139
C24	C	0.603176	-0.380542	0.241251
C25	C	0.627772	-0.329919	0.209343
C26	C	0.693209	-0.329935	0.209318
C27	C	0.498437	-0.374171	0.185865
C28	C	0.433002	-0.374161	0.185887
C29	C	0.401347	-0.380491	0.241328
C30	C	0.435136	-0.386846	0.296745
C31	C	0.500573	-0.386862	0.296720
C32	C	0.532220	-0.380520	0.241274
C33	C	0.305801	-0.431085	0.273271
C34	C	0.240360	-0.431060	0.273304
C35	C	0.224114	-0.329818	0.209502
C36	C	0.289553	-0.329838	0.209475
C37	C	0.330393	-0.380476	0.241358
C38	C	0.859435	-0.962754	0.348214
C39	C	0.872707	-1.045295	0.334999
C40	C	0.952880	-1.045210	0.254980
C41	C	0.939617	-0.962668	0.268191
C42	C	0.892894	-0.921446	0.314808
C43	C	0.973075	-0.921360	0.234785
C44	C	0.959811	-0.838825	0.247992
C45	C	0.913089	-0.797597	0.294606
C46	C	0.879630	-0.838911	0.328016
C47	C	1.019795	-0.962583	0.188164
C48	C	1.053254	-0.921275	0.154758
C49	C	1.039993	-0.838738	0.167969
C50	C	0.993271	-0.797511	0.214583
C51	C	1.073452	-0.797424	0.134559
C52	C	1.060188	-0.714889	0.147767
C53	C	0.980007	-0.714976	0.227791
C54	C	1.129882	-0.380453	0.241382
C55	C	1.199520	-0.380435	0.241417
C56	C	0.966491	-0.380492	0.404726
C57	C	0.966502	-0.380491	0.474368
C58	C	0.933476	-0.174360	0.274320
C59	C	0.919418	-0.086518	0.288390
C60	C	0.918348	-0.329958	0.515147
C61	C	0.918337	-0.329963	0.580582
C62	C	0.966491	-0.380491	0.605236
C63	C	1.014650	-0.431034	0.564447
C64	C	1.014655	-0.431034	0.499013
C65	C	1.023927	-0.386714	0.707946
C66	C	1.023922	-0.386709	0.773379
C67	C	0.966474	-0.380496	0.807056
C68	C	0.909027	-0.374271	0.775293
C69	C	0.909033	-0.374271	0.709859
C70	C	0.966490	-0.380497	0.676187
C71	C	0.918304	-0.329965	0.918787
C72	C	0.918293	-0.329975	0.984222
C73	C	1.014611	-0.431041	0.968087
C74	C	1.014616	-0.431036	0.902653
C75	C	0.966463	-0.380493	0.878008
C76	C	0.966442	-0.380511	1.078512
C77	C	0.966447	-0.380505	1.008872
H78	H	0.742707	-0.472418	0.299070
O79	O	0.213890	-0.485704	0.307710
H80	H	0.178475	-0.450447	0.345327
O81	O	0.401006	-0.393661	0.356553
H82	H	0.379733	-0.447182	0.346940
O83	O	0.583727	-0.275333	0.174931
H84	H	0.534095	-0.283837	0.180297
O85	O	0.537013	-0.393707	0.356490
H86	H	0.587833	-0.392657	0.347154
H87	H	0.902286	-0.730392	0.305355
H88	H	0.623994	-0.472381	0.299123
H89	H	0.713229	-0.288717	0.183336
H90	H	0.190859	-0.288595	0.183542
H91	H	0.339054	-0.472314	0.299236
H92	H	0.309575	-0.288628	0.183490
O93	O	0.829235	-0.794439	0.378296
H94	H	0.808194	-0.837027	0.399308
H95	H	0.990920	-1.078784	0.217022
H96	H	0.405497	-0.368991	0.140763
O97	O	0.532579	-0.367345	0.126064
H98	H	0.498094	-0.362937	0.087533
H99	H	1.053856	-0.472174	0.584525
O100	O	1.066599	-0.485539	0.455028
H101	H	1.058512	-0.477051	0.405386
H102	H	0.879136	-0.288806	0.495085
H103	H	0.941964	-0.681411	0.265756
H104	H	0.821393	-0.929190	0.386180
H105	H	0.845465	-1.078925	0.362213
O106	O	1.085878	-0.393413	0.807637
H107	H	1.118249	-0.449640	0.786095
O108	O	0.847079	-0.367565	0.675597
H109	H	0.839510	-0.314023	0.654367
O110	O	0.866403	-0.275451	0.624579
H111	H	0.832923	-0.240302	0.596449
H112	H	1.030595	-1.029788	0.177414
O113	O	0.847062	-0.367572	0.811610
H114	H	0.814692	-0.311345	0.808049
H115	H	1.091294	-0.954849	0.116800
H116	H	1.111490	-0.830999	0.096599
H117	H	1.087433	-0.681256	0.120564
O118	O	0.866367	-0.275463	0.892196
H119	H	0.832873	-0.240333	0.931547
O120	O	0.866355	-0.275466	1.028212
H121	H	0.832879	-0.240317	1.000079
O122	O	1.066551	-0.485542	0.994668
H123	H	1.058460	-0.477050	1.047020
H124	H	1.053830	-0.472183	0.869450
O125	O	1.085892	-0.393410	0.671625
H126	H	1.125834	-0.397724	0.704705
