data_functionalizedCrystal
_audit_creation_method	'MofGen! by Chris Wilmer'
_symmetry_space_group_name_H-M	'P1'
_symmetry_Int_Tables_number	1
_symmetry_cell_setting	triclinic
loop_
_symmetry_equiv_pos_as_xyz
  x,y,z
_cell_length_a	20.299480
_cell_length_b	20.298645
_cell_length_c	20.294903
_cell_angle_alpha	60.007695
_cell_angle_beta	60.015306
_cell_angle_gamma	59.991039
loop_
_atom_site_label
_atom_site_type_symbol
_atom_site_fract_x
_atom_site_fract_y
_atom_site_fract_z
O1	O	0.091305	-0.962534	0.804873
O2	O	0.591305	-0.462534	1.304873
O3	O	0.034397	-0.749399	0.648508
O4	O	0.534397	-0.249399	1.148508
O5	O	0.169355	-0.884263	0.648401
O6	O	0.669355	-0.384263	1.148401
O7	O	-0.043654	-0.827670	0.804979
O8	O	0.456346	-0.327670	1.304979
O9	O	0.214132	-0.839502	0.693072
O10	O	0.714132	-0.339502	1.193072
O11	O	0.079173	-0.704639	0.693178
O12	O	0.579173	-0.204639	1.193178
O13	O	0.136081	-0.917774	0.849544
O14	O	0.636081	-0.417774	1.349544
Zn15	Zn	0.114736	-0.804099	0.778453
Zn16	Zn	0.614736	-0.304099	1.278453
Zn17	Zn	0.055742	-0.863073	0.719598
Zn18	Zn	0.555742	-0.363073	1.219598
O19	O	0.001122	-0.782910	0.849650
O20	O	0.501122	-0.282910	1.349650
N21	N	0.155000	-0.763857	0.818624
N22	N	0.655000	-0.263857	1.318624
N23	N	0.015485	-0.903322	0.679427
N24	N	0.515485	-0.403322	1.179427
C25	C	0.179343	-0.615641	0.842971
C26	C	0.679343	-0.115641	1.342971
C27	C	0.179443	-0.739552	0.966834
C28	C	0.679443	-0.239552	1.466834
C29	C	0.303264	-0.739536	0.842917
C30	C	0.803264	-0.239536	1.342917
C31	C	0.179356	-0.739528	0.842952
C32	C	0.679356	-0.239528	1.342952
C33	C	0.210353	-0.708565	0.873918
C34	C	0.710353	-0.208565	1.373918
C35	C	-0.132622	-0.927446	0.654695
C36	C	0.367378	-0.427446	1.154695
C37	C	-0.008595	-0.927622	0.530981
C38	C	0.491405	-0.427622	1.030981
C39	C	-0.008820	-1.051459	0.654914
C40	C	0.491180	-0.551459	1.154914
C41	C	-0.008800	-0.927618	0.654995
C42	C	0.491200	-0.427618	1.154995
C43	C	-0.039709	-0.958538	0.623897
C44	C	0.460291	-0.458538	1.123897
N45	N	0.376268	-0.763873	0.818558
N46	N	0.876268	-0.263873	1.318558
O47	O	0.652281	-0.777347	0.619856
O48	O	1.152281	-0.277347	1.119856
O49	O	0.652556	-0.934198	0.832777
O50	O	1.152556	-0.434198	1.332777
O51	O	0.652445	-0.933836	0.697731
O52	O	1.152445	-0.433836	1.197731
O53	O	0.652392	-0.777709	0.754902
O54	O	1.152392	-0.277709	1.254902
O55	O	0.518259	-0.889182	0.742556
O56	O	1.018259	-0.389182	1.242556
O57	O	0.518369	-0.889544	0.877602
O58	O	1.018369	-0.389544	1.377602
O59	O	0.518095	-0.732693	0.664680
O60	O	1.018095	-0.232693	1.164680
Zn61	Zn	0.496927	-0.804029	0.778258
Zn62	Zn	0.996927	-0.304029	1.278258
Zn63	Zn	0.673724	-0.862862	0.719200
Zn64	Zn	1.173724	-0.362862	1.219200
O65	O	0.518205	-0.733055	0.799726
O66	O	1.018205	-0.233055	1.299726
N67	N	0.794383	-0.903019	0.678891
N68	N	1.294383	-0.403019	1.178891
N69	N	0.154981	-0.542636	0.818657
N70	N	0.654981	-0.042636	1.318657
O71	O	-0.043628	-0.266455	0.805024
O72	O	0.456372	0.233545	1.305024
O73	O	0.169291	-0.266451	0.648191
O74	O	0.669291	0.233549	1.148191
O75	O	0.034217	-0.266468	0.648577
O76	O	0.534217	0.233532	1.148577
O77	O	0.091446	-0.266438	0.804638
O78	O	0.591446	0.233562	1.304638
O79	O	0.078998	-0.400670	0.693303
O80	O	0.578998	0.099330	1.193303
O81	O	0.214071	-0.400653	0.692918
O82	O	0.714071	0.099347	1.192918
O83	O	0.001152	-0.400657	0.849750
O84	O	0.501152	0.099343	1.349750
Zn85	Zn	0.114722	-0.421963	0.778435
Zn86	Zn	0.614722	0.078037	1.278435
Zn87	Zn	0.055722	-0.245145	0.719506
Zn88	Zn	0.555722	0.254855	1.219506
O89	O	0.136226	-0.400640	0.849364
O90	O	0.636226	0.099360	1.349364
N91	N	0.015453	-0.124472	0.679286
N92	N	0.515453	0.375528	1.179286
N93	N	0.155155	-0.763898	1.039838
N94	N	0.655155	-0.263898	1.539838
O95	O	0.141555	-0.962488	1.315987
O96	O	0.641555	-0.462488	1.815987
O97	O	-0.015254	-0.749480	1.316022
O98	O	0.484746	-0.249480	1.816022
O99	O	-0.014890	-0.884527	1.315962
O100	O	0.485110	-0.384527	1.815962
O101	O	0.141192	-0.827441	1.316047
O102	O	0.641192	-0.327441	1.816047
O103	O	0.029815	-0.839777	1.181768
O104	O	0.529815	-0.339777	1.681768
O105	O	0.029452	-0.704730	1.181828
O106	O	0.529452	-0.204730	1.681828
O107	O	0.186261	-0.917739	1.181793
O108	O	0.686261	-0.417739	1.681793
Zn109	Zn	0.114954	-0.804130	1.160504
Zn110	Zn	0.614954	-0.304130	1.660504
Zn111	Zn	0.056053	-0.863089	1.337311
Zn112	Zn	0.556053	-0.363089	1.837311
O113	O	0.185897	-0.782692	1.181853
O114	O	0.685897	-0.282692	1.681853
N115	N	0.015850	-0.903330	1.457977
N116	N	0.515850	-0.403330	1.957977
C117	C	0.051451	-0.700162	0.649301
C118	C	0.551451	-0.200162	1.149301
C119	C	0.218580	-0.867175	0.649169
C120	C	0.718580	-0.367175	1.149169
C121	C	0.119026	-0.967011	0.848750
C122	C	0.619026	-0.467011	1.348750
C123	C	-0.048103	-0.799998	0.848882
C124	C	0.451897	-0.299998	1.348882
C125	C	0.585495	-0.933471	0.882014
C126	C	1.085495	-0.433471	1.382014
C127	C	0.585361	-0.933023	0.714775
C128	C	1.085361	-0.433023	1.214775
C129	C	0.585151	-0.733419	0.615444
C130	C	1.085151	-0.233419	1.115444
C131	C	0.585291	-0.733869	0.782682
C132	C	1.085291	-0.233869	1.282682
C133	C	0.218449	-0.333386	0.648902
C134	C	0.718449	0.166614	1.148902
C135	C	0.051232	-0.333573	0.649435
C136	C	0.551232	0.166427	1.149435
C137	C	-0.048061	-0.333556	0.848984
C138	C	0.451939	0.166444	1.348984
C139	C	0.119212	-0.333537	0.848507
C140	C	0.619212	0.166463	1.348507
C141	C	-0.014496	-0.700269	1.248929
C142	C	0.485504	-0.200269	1.748929
C143	C	-0.014037	-0.867500	1.248828
C144	C	0.485963	-0.367500	1.748828
C145	C	0.185503	-0.966949	1.248886
C146	C	0.685503	-0.466949	1.748886
C147	C	0.185054	-0.799709	1.248957
C148	C	0.685054	-0.299709	1.748957
H149	H	0.039295	-0.638935	0.600193
H150	H	0.539295	-0.138935	1.100193
H151	H	0.585062	-0.684173	0.554297
H152	H	1.085062	-0.184173	1.054297
H153	H	-0.063051	-0.879692	1.248749
H154	H	0.436949	-0.379692	1.748749
O155	O	0.244139	-1.039985	1.248907
O156	O	0.744139	-0.539985	1.748907
C157	C	0.215106	-1.090179	1.248849
C158	C	0.715106	-0.590179	1.748849
H159	H	0.146380	-1.068315	1.274249
H160	H	0.646380	-0.568315	1.774249
H161	H	0.239855	-1.154824	1.287795
H162	H	0.739855	-0.654824	1.787795
H163	H	0.235605	-1.087985	1.184458
H164	H	0.735605	-0.587985	1.684458
H165	H	0.279759	-0.879241	0.599998
H166	H	0.779759	-0.379241	1.099998
O167	O	0.585555	-0.992298	0.954930
O168	O	1.085555	-0.492298	1.454930
C169	C	0.585622	-1.061769	0.954885
C170	C	1.085622	-0.561769	1.454885
H171	H	0.560166	-1.043886	0.907125
H172	H	1.060166	-0.543886	1.407125
H173	H	0.546732	-1.091996	1.016747
H174	H	1.046732	-0.591996	1.516747
H175	H	0.650019	-1.105599	0.940748
H176	H	1.150019	-0.605599	1.440748
H177	H	0.131466	-0.333527	0.897533
H178	H	0.631466	0.166473	1.397533
H179	H	0.131184	-1.028235	0.897860
H180	H	0.631184	-0.528235	1.397860
O181	O	0.036506	-0.333641	0.591050
O182	O	0.536506	0.166359	1.091050
C183	C	-0.042807	-0.333637	0.620448
C184	C	0.457193	0.166363	1.120448
H185	H	-0.064012	-0.359017	0.689177
H186	H	0.435988	0.140983	1.189177
H187	H	-0.043972	-0.372632	0.595912
H188	H	0.456028	0.127368	1.095912
H189	H	-0.084573	-0.269262	0.600026
H190	H	0.415427	0.230738	1.100026
O191	O	0.243480	-0.785000	1.248939
O192	O	0.743480	-0.285000	1.748939
C193	C	0.214085	-0.705688	1.248982
C194	C	0.714085	-0.205688	1.748982
H195	H	0.162283	-0.667497	1.223574
H196	H	0.662283	-0.167497	1.723574
H197	H	0.264610	-0.678551	1.210035
H198	H	0.764610	-0.178551	1.710035
H199	H	0.191593	-0.706879	1.313369
H200	H	0.691593	-0.206879	1.813369
H201	H	-0.109285	-0.787936	0.898049
H202	H	0.390715	-0.287936	1.398049
H203	H	0.585383	-0.982069	0.702538
H204	H	1.085383	-0.482069	1.202538
O205	O	-0.073154	-0.627255	1.248975
O206	O	0.426846	-0.127255	1.748975
C207	C	-0.044106	-0.577047	1.248986
C208	C	0.455894	-0.077047	1.748986
H209	H	0.007694	-0.615858	1.274401
H210	H	0.507694	-0.115858	1.774401
H211	H	-0.094809	-0.538386	1.287955
H212	H	0.405191	-0.038386	1.787955
H213	H	-0.021713	-0.536297	1.184615
H214	H	0.478287	-0.036297	1.684615
H215	H	0.585279	-0.684826	0.794916
H216	H	1.085279	-0.184826	1.294916
H217	H	-0.109209	-0.333558	0.898221
H218	H	0.390791	0.166442	1.398221
O219	O	0.291277	-0.332901	0.590087
O220	O	0.791277	0.167099	1.090087
C221	C	0.341468	-0.332757	0.619074
C222	C	0.841468	0.167243	1.119074
H223	H	0.302662	-0.307613	0.671058
H224	H	0.802662	0.192387	1.171058
H225	H	0.379805	-0.293485	0.568409
H226	H	0.879805	0.206515	1.068409
H227	H	0.382523	-0.397056	0.641193
H228	H	0.882523	0.102944	1.141193
