data_functionalizedCrystal
_audit_creation_method	'MofGen! by Chris Wilmer'
_symmetry_space_group_name_H-M	'P1'
_symmetry_Int_Tables_number	1
_symmetry_cell_setting	triclinic
loop_
_symmetry_equiv_pos_as_xyz
  x,y,z
_cell_length_a	16.120530
_cell_length_b	18.050589
_cell_length_c	16.120297
_cell_angle_alpha	87.124343
_cell_angle_beta	89.871860
_cell_angle_gamma	87.123928
loop_
_atom_site_label
_atom_site_type_symbol
_atom_site_fract_x
_atom_site_fract_y
_atom_site_fract_z
Zn1	Zn	1.247404	-0.376248	0.534587
Zn2	Zn	1.254344	-0.494473	0.395537
Zn3	Zn	1.115396	-0.363698	0.388504
Zn4	Zn	1.108300	-0.493789	0.527506
O5	O	1.181361	-0.432052	0.461533
O6	O	1.364691	-0.397469	0.522048
O7	O	1.241786	-0.472159	0.278238
O8	O	1.132972	-0.261442	0.407903
O9	O	1.369789	-0.484328	0.419888
O10	O	1.229959	-0.270662	0.515230
O11	O	1.139701	-0.376080	0.273071
O12	O	0.998089	-0.375417	0.401037
O13	O	1.120879	-0.483162	0.644811
O14	O	0.992876	-0.470994	0.503160
O15	O	1.223078	-0.396806	0.650014
O16	O	1.234906	-0.598303	0.413022
O17	O	1.127608	-0.597800	0.509979
C18	C	0.965310	-0.421770	0.450568
C19	C	0.872881	-0.417390	0.445896
C20	C	1.181261	-0.624999	0.461515
C21	C	1.181293	-0.707547	0.461538
C22	C	0.703653	-0.409376	0.437374
C23	C	0.659907	-0.454785	0.485754
C24	C	0.565742	-0.450326	0.481012
C25	C	0.797826	-0.413834	0.442115
C26	C	1.123001	-0.906753	0.514247
C27	C	1.106578	-0.951975	0.437341
C28	C	1.181375	-0.858682	0.461553
C29	C	1.197838	-0.960544	0.538470
C30	C	1.181451	-1.004671	0.461574
C31	C	1.164914	-0.902813	0.384605
C32	C	1.256207	-0.911381	0.485787
C33	C	1.239815	-0.956580	0.408830
C34	C	1.181328	-0.774581	0.461542
C35	C	1.181498	-1.088770	0.461577
C36	C	1.398256	-0.442375	0.472543
C37	C	1.490683	-0.446774	0.477234
C38	C	1.170413	-0.441308	0.678428
C39	C	1.165748	-0.445252	0.770856
C40	C	1.181483	-0.238354	0.461572
C41	C	1.181535	-0.155811	0.461588
C42	C	1.192314	-0.422781	0.245485
C43	C	1.197141	-0.418635	0.153066
C44	C	1.157199	-0.452435	0.940081
C45	C	1.205687	-0.411454	0.983846
C46	C	1.200930	-0.415451	1.078009
C47	C	1.161955	-0.448439	0.845910
H48	H	0.670386	-0.367156	0.392397
O49	O	0.699457	-0.505186	0.539482
C50	C	0.640238	-0.546547	0.583515
H51	H	0.578162	-0.513382	0.583403
H52	H	0.632541	-0.601171	0.552492
C53	C	0.746045	-0.603475	0.673812
C54	C	0.669804	-0.562739	0.673680
H55	H	0.764284	-0.613466	0.729429
H56	H	0.785943	-0.575612	0.644144
H57	H	0.739621	-0.648990	0.647955
H58	H	0.676232	-0.517221	0.699527
H59	H	0.629908	-0.590595	0.703354
O60	O	1.063927	-0.880674	0.567226
C61	C	0.985170	-0.901213	0.541385
H62	H	0.987147	-0.912068	0.472334
H63	H	0.967680	-0.953761	0.578125
C64	C	0.917670	-0.824665	0.641617
C65	C	0.920096	-0.837992	0.556805
H66	H	0.877528	-0.785670	0.651131
H67	H	0.970730	-0.810830	0.659029
H68	H	0.903098	-0.868460	0.672223
H69	H	0.934678	-0.794200	0.526202
H70	H	0.867037	-0.851818	0.539388
O71	O	1.259499	-0.365957	0.944317
C72	C	1.303667	-0.328656	1.003555
H73	H	1.266541	-0.327034	1.063763
H74	H	1.366345	-0.359247	1.015973
C75	C	1.363000	-0.250769	0.896212
C76	C	1.317397	-0.248771	0.970158
H77	H	1.371473	-0.201493	0.875610
H78	H	1.333246	-0.275901	0.856301
H79	H	1.415226	-0.276265	0.906569
H80	H	1.265168	-0.223284	0.959797
H81	H	1.347143	-0.223632	1.010067
O82	O	1.031184	-0.973553	0.412873
C83	C	1.032507	-1.051698	0.412520
H84	H	1.099326	-1.074539	0.406260
H85	H	1.004988	-1.074828	0.473072
C86	C	0.898797	-1.046903	0.346482
C87	C	0.980864	-1.074957	0.338787
H88	H	0.866938	-1.061251	0.301002
H89	H	0.897903	-0.994256	0.346722
H90	H	0.875875	-1.066181	0.396945
H91	H	1.003787	-1.055672	0.288329
H92	H	0.981760	-1.127602	0.338536
O93	O	1.148221	-0.872713	0.307045
C94	C	1.148367	-0.794655	0.307973
H95	H	1.135710	-0.776589	0.373756
H96	H	1.211512	-0.775351	0.286464
C97	C	1.095872	-0.782061	0.168384
C98	C	1.080319	-0.759870	0.249179
H99	H	1.053899	-0.760602	0.132115
H100	H	1.095776	-0.834649	0.167757
H101	H	1.148494	-0.765973	0.150472
H102	H	1.027703	-0.775967	0.267094
H103	H	1.080405	-0.707283	0.249808
O104	O	1.298661	-0.982470	0.355502
C105	C	1.281041	-0.952749	0.274541
H106	H	1.212126	-0.935671	0.269400
H107	H	1.319288	-0.902093	0.261023
C108	C	1.387861	-1.032757	0.217623
C109	C	1.303217	-1.011787	0.211307
H110	H	1.401544	-1.069173	0.178616
H111	H	1.399735	-1.052779	0.272168
H112	H	1.419724	-0.990538	0.206360
H113	H	1.271356	-1.054004	0.222580
H114	H	1.291338	-0.991774	0.156762
H115	H	1.112120	-0.490519	0.973329
H116	H	1.319438	-0.893389	0.506301
O117	O	1.214320	-0.990540	0.616117
C118	C	1.152568	-0.965140	0.671445
H119	H	1.122130	-0.910614	0.645165
H120	H	1.103607	-1.008329	0.679830
C121	C	1.229754	-1.019678	0.788330
C122	C	1.192374	-0.952705	0.756057
H123	H	1.254307	-1.012011	0.840525
H124	H	1.271357	-1.036794	0.751055
H125	H	1.188947	-1.055663	0.795311
H126	H	1.233184	-0.916725	0.749067
H127	H	1.150780	-0.935583	0.793333
