data_functionalizedCrystal
_audit_creation_method	'MofGen! by Chris Wilmer'
_symmetry_space_group_name_H-M	'P1'
_symmetry_Int_Tables_number	1
_symmetry_cell_setting	triclinic
loop_
_symmetry_equiv_pos_as_xyz
  x,y,z
_cell_length_a	23.532407
_cell_length_b	15.944499
_cell_length_c	15.021413
_cell_angle_alpha	90.009008
_cell_angle_beta	90.000307
_cell_angle_gamma	96.836856
loop_
_atom_site_label
_atom_site_type_symbol
_atom_site_fract_x
_atom_site_fract_y
_atom_site_fract_z
O1	O	-0.755642	0.101972	0.073922
O2	O	-0.589834	0.116725	0.073948
O3	O	-0.677281	-0.012968	0.073927
O4	O	-0.668194	0.231665	0.073943
O5	O	-0.677273	-0.012981	-0.074137
O6	O	-0.589826	0.116712	-0.074116
O7	O	-0.755634	0.101958	-0.074142
Zn8	Zn	-0.672729	0.109333	-0.097637
Zn9	Zn	-0.672739	0.109351	0.097443
O10	O	-0.668187	0.231651	-0.074122
C11	C	-0.568612	0.116343	-0.000081
C12	C	-0.505391	0.115214	-0.000071
C13	C	-0.676905	-0.044266	-0.000104
C14	C	-0.675790	-0.137505	-0.000104
C15	C	-0.776855	0.102341	-0.000111
C16	C	-0.840077	0.103470	-0.000115
C17	C	-0.106549	0.184878	-0.000107
C18	C	-0.047145	0.183829	-0.000112
O19	O	-0.010642	0.248409	-0.000141
N20	N	-0.024230	0.106726	-0.000116
C21	C	-0.060722	0.030668	-0.000122
O22	O	-0.035777	-0.035010	-0.000127
C23	C	-0.120125	0.031719	-0.000123
C24	C	-0.143037	0.108826	-0.000111
C25	C	-0.129461	0.261979	-0.000095
C26	C	-0.188861	0.263028	-0.000088
C27	C	-0.225349	0.186976	-0.000092
C28	C	-0.202437	0.109875	-0.000104
C29	C	-0.156617	-0.044339	-0.000137
C30	C	-0.216023	-0.043282	-0.000138
C31	C	-0.238935	0.033826	-0.000126
C32	C	-0.298325	0.034872	-0.000101
N33	N	-0.321240	0.111974	-0.000097
C34	C	-0.284752	0.188026	-0.000093
C35	C	0.064028	0.028469	-0.000122
C36	C	0.123430	0.027418	-0.000115
C37	C	0.137004	0.180578	-0.000106
C38	C	0.077601	0.181629	-0.000107
C39	C	0.041113	0.105571	-0.000119
C40	C	-0.409497	0.190224	-0.000077
C41	C	-0.468903	0.191266	-0.000067
C42	C	-0.482471	0.038105	-0.000080
C43	C	-0.423071	0.037063	-0.000086
C44	C	-0.386584	0.113129	-0.000088
O45	O	-0.334862	-0.029674	-0.000076
O46	O	-0.309706	0.253694	-0.000101
C47	C	-0.668563	0.262950	-0.000088
C48	C	-0.669678	0.356188	-0.000082
C49	C	-0.618873	0.648153	-0.000083
C50	C	-0.645279	0.586895	-0.073093
C51	C	-0.673730	0.691791	-0.000098
C52	C	-0.645301	0.586921	0.072887
C53	C	-0.671736	0.526899	-0.000089
C54	C	-0.700151	0.631761	-0.073169
C55	C	-0.700165	0.631794	0.072877
C56	C	-0.726611	0.570553	-0.000151
C57	C	-0.674877	0.786781	-0.000104
C58	C	-0.670593	0.431910	-0.000089
N59	N	-0.672726	0.109321	-0.230775
C60	C	-0.712859	0.048880	-0.529776
C61	C	-0.724367	0.124455	-0.470407
C62	C	-0.672740	0.109346	-0.587812
C63	C	-0.661252	0.033760	-0.470440
C64	C	-0.672734	0.109330	-0.412388
C65	C	-0.684273	0.184959	-0.529749
C66	C	-0.621136	0.094215	-0.529787
C67	C	-0.632622	0.169845	-0.470445
C68	C	-0.672744	0.109354	-0.688869
C69	C	-0.672730	0.109330	-0.311333
N70	N	-0.672746	0.109356	0.230581
H71	H	-0.487554	0.254058	-0.000056
C72	C	-0.369368	0.273895	-0.000072
C73	C	-0.371940	0.337213	0.076826
C74	C	-0.331811	0.420884	0.076839
C75	C	-0.289110	0.441236	-0.000045
C76	C	-0.286536	0.377916	-0.076949
C77	C	-0.326665	0.294246	-0.076962
H78	H	-0.403552	0.322149	0.133746
H79	H	-0.333717	0.467757	0.133769
H80	H	-0.259404	0.503174	-0.000036
H81	H	-0.254924	0.392981	-0.133869
H82	H	-0.324759	0.247372	-0.133892
H83	H	-0.723329	0.651539	-0.134960
H84	H	-0.404415	-0.025724	-0.000083
H85	H	0.058951	0.244416	-0.000102
H86	H	-0.622073	0.566990	-0.134809
C87	C	-0.586784	0.238984	-0.435461
C88	C	-0.537549	0.214876	-0.376850
C89	C	-0.491715	0.284016	-0.341862
C90	C	-0.495115	0.377265	-0.365485
C91	C	-0.544352	0.401377	-0.424098
C92	C	-0.590186	0.332237	-0.459086
H93	H	-0.535030	0.145844	-0.359361
H94	H	-0.455267	0.266166	-0.298473
H95	H	-0.461186	0.428446	-0.339585
H96	H	-0.546871	0.470409	-0.441588
H97	H	-0.626634	0.350087	-0.502476
C98	C	0.148628	-0.057402	-0.000118
C99	C	0.187594	-0.079200	-0.077009
C100	C	0.212789	-0.164024	-0.077018
C101	C	0.199018	-0.227049	-0.000137
C102	C	0.160051	-0.205252	0.076760
C103	C	0.134856	-0.120429	0.076769
H104	H	0.197789	-0.032544	-0.133926
H105	H	0.241635	-0.180159	-0.133943
H106	H	0.217669	-0.289840	-0.000144
H107	H	0.149856	-0.251908	0.133677
H108	H	0.106010	-0.104294	0.133693
H109	H	-0.651538	-0.030155	-0.444386
C110	C	-0.731489	0.658723	0.156251
C111	C	-0.708467	0.641361	0.249581
C112	C	-0.739785	0.668294	0.332964
C113	C	-0.794125	0.712589	0.323018
C114	C	-0.817150	0.729954	0.229685
C115	C	-0.785832	0.703021	0.146301
H116	H	-0.668239	0.608568	0.256947
H117	H	-0.722741	0.655439	0.402055
H118	H	-0.817309	0.732527	0.384743
H119	H	-0.857378	0.762747	0.222318
H120	H	-0.802876	0.715876	0.077210
C121	C	-0.557375	0.693707	-0.000164
C122	C	-0.516563	0.679825	-0.077498
C123	C	-0.455067	0.725380	-0.077584
C124	C	-0.434382	0.784819	-0.000336
C125	C	-0.475195	0.798704	0.077004
C126	C	-0.536691	0.753148	0.077090
H127	H	-0.531874	0.635822	-0.134687
H128	H	-0.424855	0.715101	-0.134837
H129	H	-0.388859	0.818542	-0.000400
H130	H	-0.459884	0.842707	0.134193
H131	H	-0.566903	0.763428	0.134342
C132	C	-0.613954	0.560074	0.156273
C133	C	-0.645659	0.498451	0.223625
C134	C	-0.614308	0.471609	0.307006
C135	C	-0.551251	0.506389	0.323036
C136	C	-0.519543	0.568015	0.255682
C137	C	-0.550895	0.594857	0.172300
H138	H	-0.692340	0.472702	0.211760
H139	H	-0.637780	0.425990	0.356866
H140	H	-0.528043	0.486519	0.384760
H141	H	-0.472862	0.593764	0.267546
H142	H	-0.527422	0.640477	0.122441
H143	H	-0.772176	0.536986	-0.000201
C144	C	-0.562203	0.076897	-0.565060
C145	C	-0.538710	-0.006487	-0.541712
C146	C	-0.479777	-0.023816	-0.576986
C147	C	-0.444337	0.042239	-0.635608
C148	C	-0.467830	0.125628	-0.658959
C149	C	-0.526762	0.142957	-0.623685
H150	H	-0.564945	-0.055389	-0.498313
H151	H	-0.462386	-0.085546	-0.559700
H152	H	-0.400711	0.029411	-0.661720
H153	H	-0.441595	0.174531	-0.702358
H154	H	-0.544153	0.204688	-0.640971
C155	C	-0.758723	-0.020112	-0.564979
C156	C	-0.822169	-0.017280	-0.541524
C157	C	-0.868033	-0.086266	-0.576729
C158	C	-0.850451	-0.158084	-0.635390
C159	C	-0.787002	-0.160919	-0.658848
C160	C	-0.741138	-0.091933	-0.623643
H161	H	-0.835186	0.035887	-0.498097
H162	H	-0.915002	-0.084167	-0.559363
H163	H	-0.884403	-0.209152	-0.661451
H164	H	-0.773985	-0.214086	-0.702275
H165	H	-0.694169	-0.094032	-0.641009
C166	C	-0.783317	0.141737	-0.435157
C167	C	-0.831640	0.155094	-0.500897
C168	C	-0.890591	0.172365	-0.465649
C169	C	-0.901219	0.176280	-0.364660
C170	C	-0.852894	0.162923	-0.298914
C171	C	-0.793943	0.145652	-0.334162
H172	H	-0.823774	0.152196	-0.575660
H173	H	-0.926364	0.182253	-0.514319
H174	H	-0.944858	0.189066	-0.338568
H175	H	-0.860760	0.165821	-0.224151
H176	H	-0.758170	0.135764	-0.285492
C177	C	-0.697469	0.271323	-0.564788
C178	C	-0.708201	0.341727	-0.498876
C179	C	-0.721399	0.428087	-0.533916
C180	C	-0.723865	0.444043	-0.634870
C181	C	-0.713132	0.373636	-0.700789
C182	C	-0.699934	0.287276	-0.665748
H183	H	-0.706376	0.329918	-0.424138
H184	H	-0.729344	0.480207	-0.485118
H185	H	-0.733634	0.507972	-0.660809
H186	H	-0.714957	0.385445	-0.775526
H187	H	-0.691990	0.235156	-0.714546
C188	C	-0.089331	0.345647	-0.000087
C189	C	-0.091910	0.408965	0.076809
C190	C	-0.051785	0.492639	0.076826
C191	C	-0.009080	0.512995	-0.000054
C192	C	-0.006499	0.449675	-0.076956
C193	C	-0.046625	0.366001	-0.076972
H194	H	-0.123524	0.393898	0.133726
H195	H	-0.053696	0.539512	0.133754
H196	H	0.020623	0.574935	-0.000042
H197	H	0.025115	0.464742	-0.133872
H198	H	-0.044714	0.319128	-0.133901
H199	H	0.166723	0.242504	-0.000107
C200	C	0.023895	-0.055202	-0.000120
C201	C	-0.018811	-0.075564	-0.077005
C202	C	-0.058941	-0.159234	-0.077003
C203	C	-0.056365	-0.222541	-0.000117
C204	C	-0.013658	-0.202180	0.076774
C205	C	0.026472	-0.118511	0.076773
H206	H	-0.020719	-0.028699	-0.133926
H207	H	-0.090555	-0.174306	-0.133923
H208	H	-0.086072	-0.284479	-0.000116
H209	H	-0.011750	-0.249046	0.133695
H210	H	0.058087	-0.103439	0.133693
C211	C	-0.256159	-0.126948	-0.000147
C212	C	-0.253592	-0.190273	-0.077041
C213	C	-0.293726	-0.273938	-0.077047
C214	C	-0.336428	-0.294279	-0.000161
C215	C	-0.338997	-0.230953	0.076738
C216	C	-0.298863	-0.147287	0.076745
H217	H	-0.221980	-0.175217	-0.133962
H218	H	-0.291824	-0.320817	-0.133974
H219	H	-0.366138	-0.356213	-0.000166
H220	H	-0.370609	-0.246008	0.133659
H221	H	-0.300765	-0.100409	0.133671
H222	H	-0.207510	0.325817	-0.000078
H223	H	-0.137973	-0.107128	-0.000147
C224	C	-0.522616	-0.045548	-0.000090
C225	C	-0.520055	-0.108869	-0.076988
C226	C	-0.560202	-0.192522	-0.077007
C227	C	-0.602910	-0.212855	-0.000127
C228	C	-0.605473	-0.149532	0.076777
C229	C	-0.565326	-0.065879	0.076796
H230	H	-0.488439	-0.093819	-0.133904
H231	H	-0.558305	-0.239398	-0.133936
H232	H	-0.632630	-0.274780	-0.000141
H233	H	-0.637090	-0.164582	0.133693
H234	H	-0.567223	-0.019004	0.133726
