data_functionalizedCrystal
_audit_creation_method	'MofGen! by Chris Wilmer'
_symmetry_space_group_name_H-M	'P1'
_symmetry_Int_Tables_number	1
_symmetry_cell_setting	triclinic
loop_
_symmetry_equiv_pos_as_xyz
  x,y,z
_cell_length_a	19.077105
_cell_length_b	16.959454
_cell_length_c	19.076919
_cell_angle_alpha	87.724511
_cell_angle_beta	89.923776
_cell_angle_gamma	87.716588
loop_
_atom_site_label
_atom_site_type_symbol
_atom_site_fract_x
_atom_site_fract_y
_atom_site_fract_z
Zn1	Zn	1.058295	-0.382399	0.440440
Zn2	Zn	1.391629	-0.049065	0.773773
Zn3	Zn	1.724962	0.284268	1.107107
Zn4	Zn	1.062944	-0.509490	0.322940
Zn5	Zn	1.396277	-0.176157	0.656274
Zn6	Zn	1.729610	0.157177	0.989607
Zn7	Zn	0.945513	-0.371810	0.318233
Zn8	Zn	1.278846	-0.038477	0.651566
Zn9	Zn	1.612179	0.294857	0.984899
Zn10	Zn	0.940765	-0.509013	0.435693
Zn11	Zn	1.274099	-0.175680	0.769026
Zn12	Zn	1.607432	0.157653	1.102360
O13	O	1.001879	-0.443178	0.379326
O14	O	1.335213	-0.109845	0.712660
O15	O	1.668546	0.223489	1.045993
O16	O	1.157244	-0.403889	0.428810
O17	O	1.490577	-0.070555	0.762143
O18	O	1.823911	0.262778	1.095477
O19	O	1.051298	-0.486995	0.223984
O20	O	1.384632	-0.153661	0.557318
O21	O	1.717965	0.179672	0.890651
O22	O	0.960515	-0.262606	0.334460
O23	O	1.293848	0.070727	0.667793
O24	O	1.627182	0.404060	1.001127
O25	O	1.160659	-0.497262	0.342484
O26	O	1.493993	-0.163929	0.675817
O27	O	1.827326	0.169405	1.009150
O28	O	1.043376	-0.270386	0.424245
O29	O	1.376709	0.062947	0.757578
O30	O	1.710043	0.396281	1.090912
O31	O	0.965022	-0.385842	0.220526
O32	O	1.298355	-0.052508	0.553859
O33	O	1.631689	0.280825	0.887192
O34	O	0.846551	-0.385379	0.329857
O35	O	1.179884	-0.052046	0.663190
O36	O	1.513217	0.281287	0.996524
O37	O	0.952424	-0.496450	0.534654
O38	O	1.285757	-0.163116	0.867987
O39	O	1.619091	0.170217	1.201321
O40	O	0.843063	-0.486182	0.416155
O41	O	1.176396	-0.152849	0.749488
O42	O	1.509730	0.180485	1.082821
O43	O	1.038773	-0.403426	0.538142
O44	O	1.372106	-0.070093	0.871475
O45	O	1.705440	0.263240	1.204808
O46	O	1.046695	-0.620035	0.337881
O47	O	1.380028	-0.286702	0.671214
O48	O	1.713362	0.046632	1.004548
O49	O	0.956931	-0.619685	0.420720
O50	O	1.290265	-0.286352	0.754053
O51	O	1.623598	0.046982	1.087386
C52	C	0.819311	-0.434581	0.371980
C53	C	1.152644	-0.101247	0.705314
C54	C	1.485977	0.232086	1.038647
C55	C	0.741206	-0.430922	0.368854
C56	C	1.074539	-0.097589	0.702188
C57	C	1.407873	0.235744	1.035521
C58	C	0.702718	-0.481759	0.412246
C59	C	1.036051	-0.148426	0.745579
C60	C	1.369385	0.184907	1.078912
C61	C	0.629330	-0.478312	0.409312
C62	C	0.962664	-0.144979	0.742645
C63	C	1.295997	0.188355	1.075979
C64	C	0.594433	-0.424030	0.362983
C65	C	0.927766	-0.090697	0.696316
C66	C	1.261099	0.242636	1.029649
C67	C	0.632926	-0.373188	0.319590
C68	C	0.966259	-0.039855	0.652923
C69	C	1.299593	0.293479	0.986256
C70	C	0.706312	-0.376632	0.322528
C71	C	1.039645	-0.043299	0.655861
C72	C	1.372979	0.290034	0.989194
C73	C	0.375144	-0.408090	0.349389
C74	C	0.708478	-0.074756	0.682723
C75	C	1.041811	0.258577	1.016056
C76	C	0.301753	-0.404651	0.346453
C77	C	0.635086	-0.071318	0.679786
C78	C	0.968420	0.262016	1.013120
C79	C	0.298162	-0.509774	0.436177
C80	C	0.631496	-0.176441	0.769510
C81	C	0.964829	0.156892	1.102843
C82	C	0.371550	-0.513217	0.439107
C83	C	0.704883	-0.179884	0.772441
C84	C	1.038217	0.153450	1.105774
C85	C	0.410037	-0.462372	0.395717
C86	C	0.743370	-0.129038	0.729050
C87	C	1.076704	0.204295	1.062384
N88	N	0.519419	-0.420507	0.359981
N89	N	0.852752	-0.087173	0.693315
N90	N	1.186085	0.246160	1.026648
N91	N	0.485049	-0.465892	0.398723
N92	N	0.818383	-0.132559	0.732056
N93	N	1.151716	0.200775	1.065389
C94	C	1.001821	-0.648541	0.379312
C95	C	1.335154	-0.315208	0.712645
C96	C	1.668488	0.018126	1.045979
C97	C	1.001859	-0.736400	0.379332
C98	C	1.335193	-0.403067	0.712665
C99	C	1.668526	-0.069734	1.045999
C100	C	0.955205	-1.107727	0.422458
C101	C	1.288538	-0.774394	0.755792
C102	C	1.621871	-0.441060	1.089125
C103	C	1.048747	-1.108038	0.336274
C104	C	1.382080	-0.774705	0.669607
C105	C	1.715413	-0.441372	1.002941
C106	C	1.048723	-1.025491	0.336266
C107	C	1.382056	-0.692158	0.669600
C108	C	1.715389	-0.358824	1.002933
C109	C	1.001938	-0.984058	0.379355
C110	C	1.335271	-0.650724	0.712688
C111	C	1.668605	-0.317391	1.046022
C112	C	0.955178	-1.025172	0.422451
C113	C	1.288511	-0.691839	0.755784
C114	C	1.621844	-0.358505	1.089117
C115	C	1.095477	-0.984370	0.293166
C116	C	1.428811	-0.651037	0.626499
C117	C	1.762144	-0.317704	0.959833
C118	C	1.095454	-0.901818	0.293156
C119	C	1.428788	-0.568485	0.626490
C120	C	1.762121	-0.235151	0.959823
C121	C	1.048672	-0.860383	0.336249
C122	C	1.382006	-0.527050	0.669582
C123	C	1.715339	-0.193717	1.002916
C124	C	1.001911	-0.901503	0.379347
C125	C	1.335244	-0.568169	0.712681
C126	C	1.668577	-0.234836	1.046014
C127	C	0.955126	-0.860069	0.422436
C128	C	1.288459	-0.526736	0.755769
C129	C	1.621793	-0.193403	1.089102
C130	C	0.908367	-0.901187	0.465538
C131	C	1.241701	-0.567854	0.798871
C132	C	1.575034	-0.234521	1.132205
C133	C	0.908396	-0.983737	0.465543
C134	C	1.241729	-0.650404	0.798877
C135	C	1.575062	-0.317071	1.132210
C136	C	1.048644	-0.777834	0.336244
C137	C	1.381977	-0.444500	0.669577
C138	C	1.715311	-0.111167	1.002910
C139	C	0.955099	-0.777514	0.422428
C140	C	1.288432	-0.444181	0.755761
C141	C	1.621766	-0.110848	1.089095
C142	C	1.185161	-0.451810	0.386702
C143	C	1.518494	-0.118476	0.720035
C144	C	1.851828	0.214857	1.053368
C145	C	1.263265	-0.455488	0.389844
C146	C	1.596598	-0.122155	0.723178
C147	C	1.929931	0.211179	1.056511
C148	C	0.994550	-0.451066	0.562607
C149	C	1.327884	-0.117733	0.895940
C150	C	1.661217	0.215601	1.229274
C151	C	0.991427	-0.454427	0.640710
C152	C	1.324761	-0.121094	0.974044
C153	C	1.658094	0.212239	1.307377
C154	C	1.001956	-0.237015	0.379357
C155	C	1.335290	0.096319	0.712690
C156	C	1.668623	0.429652	1.046024
C157	C	1.001989	-0.149160	0.379370
C158	C	1.335323	0.184173	0.712703
C159	C	1.668656	0.517506	1.046037
C160	C	1.009220	-0.435266	0.196760
C161	C	1.342553	-0.101932	0.530094
C162	C	1.675887	0.231401	0.863427
C163	C	1.012479	-0.431688	0.118663
C164	C	1.345813	-0.098355	0.451996
C165	C	1.679146	0.234979	0.785330
C166	C	1.034915	-0.407577	0.679220
C167	C	1.368248	-0.074243	1.012554
C168	C	1.701582	0.259090	1.345887
C169	C	1.031972	-0.410731	0.752606
C170	C	1.365305	-0.077398	1.085940
C171	C	1.698638	0.255935	1.419273
C172	C	0.985544	-0.460742	0.787481
C173	C	1.318877	-0.127409	1.120814
C174	C	1.652211	0.205925	1.454148
C175	C	0.942052	-0.507595	0.748966
C176	C	1.275385	-0.174261	1.082299
C177	C	1.608718	0.159072	1.415633
C178	C	0.944992	-0.504435	0.675581
C179	C	1.278325	-0.171102	1.008914
C180	C	1.611658	0.162232	1.342248
C181	C	0.971927	-0.475381	1.006763
C182	C	1.305260	-0.142048	1.340096
C183	C	1.638594	0.191286	1.673430
C184	C	0.968992	-0.478539	1.080153
C185	C	1.302325	-0.145206	1.413486
C186	C	1.635658	0.188128	1.746820
C187	C	1.058911	-0.381674	1.083788
C188	C	1.392245	-0.048341	1.417122
C189	C	1.725578	0.284992	1.750455
C190	C	1.061850	-0.378523	1.010402
C191	C	1.395184	-0.045189	1.343736
C192	C	1.728517	0.288144	1.677069
C193	C	1.018355	-0.425372	0.971893
C194	C	1.351689	-0.092039	1.305227
C195	C	1.685022	0.241295	1.638560
N196	N	0.982536	-0.463970	0.862493
N197	N	1.315870	-0.130637	1.195827
N198	N	1.649203	0.202697	1.529160
N199	N	1.021360	-0.422140	0.896882
N200	N	1.354693	-0.088806	1.230216
N201	N	1.688027	0.244527	1.563549
H202	H	0.406472	-0.366694	0.314052
H203	H	0.739805	-0.033360	0.647386
H204	H	1.073138	0.299973	0.980719
Br205	Br	0.418907	-0.586892	0.501981
Br206	Br	0.752240	-0.253558	0.835314
Br207	Br	1.085573	0.079775	1.168648
H208	H	0.266818	-0.551169	0.471504
H209	H	0.600152	-0.217835	0.804837
H210	H	0.933485	0.115498	1.138170
Br211	Br	0.879037	-0.575462	0.796295
Br212	Br	1.212371	-0.242129	1.129628
Br213	Br	1.545704	0.091205	1.462962
H214	H	1.094322	-0.343531	1.115150
H215	H	1.427655	-0.010198	1.448483
H216	H	1.760988	0.323136	1.781817
Br217	Br	0.844871	-0.844946	0.524007
Br218	Br	1.178204	-0.511613	0.857341
Br219	Br	1.511538	-0.178280	1.190674
H220	H	1.133562	-1.018111	0.258080
H221	H	1.466895	-0.684777	0.591414
H222	H	1.800228	-0.351444	0.924747
Br223	Br	1.124864	-0.310651	0.963077
Br224	Br	1.458197	0.022682	1.296410
Br225	Br	1.791531	0.356015	1.629744
Br226	Br	0.750072	-0.555437	0.475119
Br227	Br	1.083405	-0.222103	0.808452
Br228	Br	1.416739	0.111230	1.141786
Br229	Br	0.585565	-0.299512	0.256720
Br230	Br	0.918899	0.033821	0.590053
Br231	Br	1.252232	0.367155	0.923387
Br232	Br	1.091026	-0.347184	0.804869
Br233	Br	1.424360	-0.013850	1.138202
Br234	Br	1.757693	0.319483	1.471535
Br235	Br	0.758547	-0.307632	0.263641
Br236	Br	1.091880	0.025701	0.596974
Br237	Br	1.425214	0.359035	0.930307
H238	H	0.597996	-0.519710	0.444645
H239	H	0.931330	-0.186376	0.777978
H240	H	1.264663	0.146957	1.111312
Br241	Br	1.097932	-0.339708	0.631898
Br242	Br	1.431266	-0.006375	0.965231
Br243	Br	1.764599	0.326959	1.298564
H244	H	0.931183	-0.519265	1.108546
H245	H	1.264516	-0.185932	1.441879
H246	H	1.597849	0.147401	1.775213
H247	H	0.909572	-0.542578	0.644227
H248	H	1.242906	-0.209244	0.977560
H249	H	1.576239	0.124089	1.310893
H250	H	0.273341	-0.360439	0.308731
H251	H	0.606675	-0.027106	0.642064
H252	H	0.940008	0.306227	0.975397
H253	H	0.917003	-0.743785	0.457519
H254	H	1.250337	-0.410451	0.790852
H255	H	1.583670	-0.077118	1.124185
Br256	Br	0.844943	-1.039544	0.524034
Br257	Br	1.178276	-0.706211	0.857367
Br258	Br	1.511610	-0.372878	1.190701
H259	H	1.086833	-1.141778	0.301189
H260	H	1.420166	-0.808444	0.634522
H261	H	1.753499	-0.475111	0.967856
Br262	Br	0.891754	-1.163526	0.480957
Br263	Br	1.225087	-0.830193	0.814291
Br264	Br	1.558421	-0.496860	1.147624
Br265	Br	1.158916	-0.846022	0.234667
Br266	Br	1.492249	-0.512689	0.568001
Br267	Br	1.825583	-0.179356	0.901334
Br268	Br	1.112087	-0.722033	0.277743
Br269	Br	1.445421	-0.388699	0.611076
Br270	Br	1.778754	-0.055366	0.944409
Br271	Br	0.912897	-0.538961	0.954510
Br272	Br	1.246230	-0.205628	1.287843
Br273	Br	1.579563	0.127705	1.621177
