data_functionalizedCrystal
_audit_creation_method	'MofGen! by Chris Wilmer'
_symmetry_space_group_name_H-M	'P1'
_symmetry_Int_Tables_number	1
_symmetry_cell_setting	triclinic
loop_
_symmetry_equiv_pos_as_xyz
  x,y,z
_cell_length_a	15.297475
_cell_length_b	16.959453
_cell_length_c	15.298159
_cell_angle_alpha	80.338390
_cell_angle_beta	88.366721
_cell_angle_gamma	80.322456
loop_
_atom_site_label
_atom_site_type_symbol
_atom_site_fract_x
_atom_site_fract_y
_atom_site_fract_z
Zn1	Zn	1.253259	-0.615353	0.726553
Zn2	Zn	1.753259	-0.115353	1.226553
Zn3	Zn	1.278562	-0.729135	0.580072
Zn4	Zn	1.778562	-0.229135	1.080072
Zn5	Zn	1.132175	-0.570906	0.554802
Zn6	Zn	1.632175	-0.070906	1.054802
Zn7	Zn	1.106759	-0.721395	0.701196
Zn8	Zn	1.606759	-0.221395	1.201196
O9	O	1.192688	-0.659197	0.640656
O10	O	1.692688	-0.159197	1.140656
O11	O	1.379189	-0.652287	0.728310
O12	O	1.879189	-0.152287	1.228310
O13	O	1.280369	-0.692783	0.454151
O14	O	1.780369	-0.192783	0.954151
O15	O	1.148284	-0.466204	0.577622
O16	O	1.648284	0.033796	1.077622
O17	O	1.397779	-0.735882	0.620691
O18	O	1.897779	-0.235882	1.120691
O19	O	1.237244	-0.498859	0.703807
O20	O	1.737244	0.001141	1.203807
O21	O	1.172820	-0.576533	0.435585
O22	O	1.672820	-0.076533	0.935585
O23	O	1.006229	-0.569028	0.553034
O24	O	1.506229	-0.069028	1.053034
O25	O	1.104966	-0.722690	0.827128
O26	O	1.604966	-0.222690	1.327128
O27	O	0.987556	-0.679591	0.660589
O28	O	1.487556	-0.179591	1.160589
O29	O	1.212599	-0.644781	0.845758
O30	O	1.712599	-0.144781	1.345758
O31	O	1.255724	-0.838706	0.596103
O32	O	1.755724	-0.338706	1.096103
O33	O	1.129501	-0.833019	0.685092
O34	O	1.629501	-0.333019	1.185092
C35	C	0.965111	-0.618647	0.601318
C36	C	1.465111	-0.118647	1.101318
C37	C	0.867748	-0.601322	0.584510
C38	C	1.367748	-0.101322	1.084510
C39	C	0.554569	-0.783032	0.760788
C40	C	1.054569	-0.283032	1.260788
C41	C	0.646046	-0.799316	0.776578
C42	C	1.146046	-0.299316	1.276578
C43	C	0.701476	-0.749819	0.728562
C44	C	1.201476	-0.249819	1.228562
C45	C	0.665420	-0.684035	0.664754
C46	C	1.165420	-0.184035	1.164754
C47	C	0.573935	-0.667753	0.648958
C48	C	1.073935	-0.167753	1.148958
C49	C	0.720842	-0.634540	0.616732
C50	C	1.220842	-0.134540	1.116732
C51	C	0.684786	-0.568756	0.552924
C52	C	1.184786	-0.068756	1.052924
C53	C	0.593309	-0.552477	0.537132
C54	C	1.093309	-0.052477	1.037132
C55	C	0.537879	-0.601974	0.585147
C56	C	1.037879	-0.101974	1.085147
C57	C	0.812327	-0.650822	0.632528
C58	C	1.312327	-0.150822	1.132528
C59	C	0.831693	-0.535543	0.520698
C60	C	1.331693	-0.035543	1.020698
C61	C	0.740215	-0.519259	0.504909
C62	C	1.240215	-0.019259	1.004909
C63	C	1.192621	-0.864546	0.640611
C64	C	1.692621	-0.364546	1.140611
C65	C	1.192667	-0.952413	0.640635
C66	C	1.692667	-0.452413	1.140635
C67	C	1.239063	-1.340866	0.706478
C68	C	1.739063	-0.840866	1.206478
C69	C	1.146536	-1.306984	0.575006
C70	C	1.646536	-0.806984	1.075006
C71	C	1.146507	-1.224430	0.574980
C72	C	1.646507	-0.724430	1.074980
C73	C	1.192756	-1.200090	0.640705
C74	C	1.692756	-0.700090	1.140705
C75	C	1.239033	-1.258305	0.706456
C76	C	1.739033	-0.758305	1.206456
C77	C	1.100223	-1.166209	0.509235
C78	C	1.600223	-0.666209	1.009235
C79	C	1.100191	-1.083649	0.509207
C80	C	1.600191	-0.583649	1.009207
C81	C	1.146446	-1.059309	0.574930
C82	C	1.646446	-0.559309	1.074930
C83	C	1.192726	-1.117529	0.640683
C84	C	1.692726	-0.617529	1.140683
C85	C	1.238975	-1.093189	0.706408
C86	C	1.738975	-0.593189	1.206408
C87	C	1.285261	-1.151409	0.772158
C88	C	1.785261	-0.651409	1.272158
C89	C	1.285288	-1.233964	0.772179
C90	C	1.785288	-0.733964	1.272179
C91	C	1.146418	-0.976753	0.574910
C92	C	1.646418	-0.476753	1.074910
C93	C	1.238945	-1.010628	0.706386
C94	C	1.738945	-0.510628	1.206386
C95	C	1.421155	-0.699905	0.680148
C96	C	1.921155	-0.199905	1.180148
C97	C	1.518514	-0.717253	0.696977
C98	C	2.018514	-0.217253	1.196977
C99	C	1.153125	-0.687830	0.869113
C100	C	1.653125	-0.187830	1.369113
C101	C	1.136265	-0.700032	0.966468
C102	C	1.636265	-0.200032	1.466468
C103	C	1.192777	-0.453052	0.640724
C104	C	1.692777	0.046948	1.140724
C105	C	1.192814	-0.365206	0.640753
C106	C	1.692814	0.134794	1.140753
C107	C	1.312902	-0.572183	1.279695
C108	C	1.812902	-0.072183	1.779695
C109	C	1.328748	-0.560721	1.188226
C110	C	1.828748	-0.060721	1.688226
C111	C	1.280629	-0.595547	1.132782
C112	C	1.780629	-0.095547	1.632782
C113	C	1.216661	-0.641838	1.168816
C114	C	1.716661	-0.141838	1.668816
C115	C	1.200818	-0.653307	1.260294
C116	C	1.700818	-0.153307	1.760294
C117	C	1.168544	-0.676671	1.113381
C118	C	1.668544	-0.176671	1.613381
C119	C	1.104576	-0.722962	1.149415
C120	C	1.604576	-0.222962	1.649415
C121	C	1.088736	-0.734428	1.240885
C122	C	1.588736	-0.234428	1.740885
C123	C	1.136856	-0.699601	1.296329
C124	C	1.636856	-0.199601	1.796329
C125	C	1.184387	-0.665203	1.021903
C126	C	1.684387	-0.165203	1.521903
C127	C	1.072303	-0.746327	1.002502
C128	C	1.572303	-0.246327	1.502502
C129	C	1.056457	-0.757788	1.093971
C130	C	1.556457	-0.257788	1.593971
C131	C	1.232089	-0.630689	1.413086
C132	C	1.732089	-0.130689	1.913086
C133	C	1.248940	-0.618478	1.315729
C134	C	1.748940	-0.118478	1.815729
H135	H	0.509432	-0.823329	0.799870
H136	H	1.009432	-0.323329	1.299870
H137	H	1.062567	-1.186033	0.455727
H138	H	1.562567	-0.686033	0.955727
H139	H	1.276610	-0.990818	0.759905
H140	H	1.776610	-0.490818	1.259905
H141	H	0.841675	-0.704383	0.684482
H142	H	1.341675	-0.204383	1.184482
O143	O	1.121469	-0.710882	1.385185
O144	O	1.621469	-0.210882	1.885185
C145	C	1.138661	-0.794464	1.419619
C146	C	1.638661	-0.294464	1.919619
H147	H	1.132805	-0.830718	1.364306
H148	H	1.632805	-0.330718	1.864306
H149	H	1.088549	-0.809140	1.473983
H150	H	1.588549	-0.309140	1.973983
H151	H	1.208529	-0.811121	1.448410
H152	H	1.708529	-0.311121	1.948410
H153	H	1.033121	-0.774687	0.957360
H154	H	1.533121	-0.274687	1.457360
O155	O	0.885510	-0.487517	0.473920
O156	O	1.385510	0.012483	0.973920
C157	C	0.878245	-0.489725	0.382724
C158	C	1.378245	0.010275	0.882724
H159	H	0.853867	-0.547816	0.373831
H160	H	1.353867	-0.047816	0.873831
H161	H	0.945892	-0.488141	0.349854
H162	H	1.445892	0.011859	0.849854
H163	H	0.829102	-0.435006	0.350744
H164	H	1.329102	0.064994	0.850744
O165	O	1.330312	-1.127866	0.835984
O166	O	1.830312	-0.627866	1.335984
C167	C	1.420945	-1.161124	0.832000
C168	C	1.920945	-0.661124	1.332000
H169	H	1.428651	-1.217187	0.798667
H170	H	1.928651	-0.717187	1.298667
H171	H	1.449216	-1.178809	0.902028
H172	H	1.949216	-0.678809	1.402028
H173	H	1.458254	-1.114273	0.792087
H174	H	1.958254	-0.614273	1.292087
O175	O	1.330161	-1.290442	0.836166
O176	O	1.830161	-0.790442	1.336166
C177	C	1.295793	-1.277770	0.920111
C178	C	1.795793	-0.777770	1.420111
H179	H	1.261809	-1.212069	0.916057
H180	H	1.761809	-0.712069	1.416057
H181	H	1.352153	-1.291091	0.970374
H182	H	1.852153	-0.791091	1.470374
H183	H	1.245629	-1.319902	0.941783
H184	H	1.745629	-0.819902	1.441783
O185	O	1.055122	-1.027065	0.445446
O186	O	1.555122	-0.527065	0.945446
C187	C	0.989877	-0.975470	0.485462
C188	C	1.489877	-0.475470	0.985462
H189	H	0.972470	-1.007994	0.553506
H190	H	1.472470	-0.507994	1.053506
H191	H	0.927991	-0.958610	0.442078
H192	H	1.427991	-0.458610	0.942078
H193	H	1.016411	-0.918088	0.493161
H194	H	1.516411	-0.418088	0.993161
O195	O	1.283876	-1.397443	0.770417
O196	O	1.783876	-0.897443	1.270417
C197	C	1.224189	-1.443417	0.818313
C198	C	1.724189	-0.943417	1.318313
H199	H	1.154262	-1.406961	0.811733
H200	H	1.654262	-0.906961	1.311733
H201	H	1.244134	-1.458397	0.891213
H202	H	1.744134	-0.958397	1.391213
H203	H	1.225908	-1.502067	0.790724
H204	H	1.725908	-1.002067	1.290724
H205	H	1.004373	-0.795479	1.123323
H206	H	1.504373	-0.295479	1.623323
H207	H	0.675397	-0.852878	0.828528
H208	H	1.175397	-0.352878	1.328528
O209	O	1.101346	-0.920164	0.511160
O210	O	1.601346	-0.420164	1.011160
C211	C	1.036108	-0.868575	0.551191
C212	C	1.536108	-0.368575	1.051191
H213	H	1.018709	-0.901105	0.619234
H214	H	1.518709	-0.401105	1.119234
H215	H	0.974216	-0.851710	0.507815
H216	H	1.474216	-0.351710	1.007815
H217	H	1.062644	-0.811194	0.558893
H218	H	1.562644	-0.311194	1.058893
O219	O	0.448989	-0.586193	0.569962
O220	O	0.948989	-0.086193	1.069962
C221	C	0.403892	-0.571089	0.648665
C222	C	0.903892	-0.071089	1.148665
H223	H	0.447887	-0.600349	0.708196
H224	H	0.947887	-0.100349	1.208196
H225	H	0.340015	-0.597835	0.653595
H226	H	0.840015	-0.097835	1.153595
H227	H	0.387306	-0.502870	0.647844
H228	H	0.887306	-0.002870	1.147844
O229	O	1.101550	-1.330722	0.511279
O230	O	1.601550	-0.830722	1.011279
C231	C	1.036308	-1.374635	0.551324
C232	C	1.536308	-0.874635	1.051324
H233	H	1.055647	-1.400769	0.623063
H234	H	1.555647	-0.900769	1.123063
H235	H	1.030803	-1.426155	0.513634
H236	H	1.530803	-0.926155	1.013634
H237	H	0.969719	-1.332492	0.549657
H238	H	1.469719	-0.832492	1.049657
H239	H	1.236470	-0.627512	0.992573
H240	H	1.736470	-0.127512	1.492573
H241	H	0.563957	-0.498919	0.485166
H242	H	1.063957	0.001081	0.985166
O243	O	1.296098	-0.584301	1.043943
O244	O	1.796098	-0.084301	1.543943
C245	C	1.362890	-0.535992	1.024030
C246	C	1.862890	-0.035992	1.524030
H247	H	1.366053	-0.498614	1.078884
H248	H	1.866053	0.001386	1.578884
H249	H	1.347070	-0.493616	0.958278
H250	H	1.847070	0.006384	1.458278
H251	H	1.429554	-0.576679	1.018824
H252	H	1.929554	-0.076679	1.518824
H253	H	1.380833	-0.523033	1.158895
H254	H	1.880833	-0.023033	1.658895
H255	H	0.775961	-0.763081	0.741422
H256	H	1.275961	-0.263081	1.241422
H257	H	1.036656	-0.772128	1.270221
H258	H	1.536656	-0.272128	1.770221
O259	O	0.705164	-0.455457	0.442822
O260	O	1.205164	0.044543	0.942822
C261	C	0.662018	-0.483857	0.377036
C262	C	1.162018	0.016143	0.877036
H263	H	0.690531	-0.550312	0.376258
H264	H	1.190531	-0.050312	0.876258
H265	H	0.672632	-0.446546	0.309505
H266	H	1.172632	0.053454	0.809505
H267	H	0.588003	-0.477677	0.392146
H268	H	1.088003	0.022323	0.892146
O269	O	1.359538	-0.538390	1.333673
O270	O	1.859538	-0.038390	1.833673
C271	C	1.331856	-0.558461	1.422138
C272	C	1.831856	-0.058461	1.922138
H273	H	1.262081	-0.573860	1.422933
H274	H	1.762081	-0.073860	1.922933
H275	H	1.331809	-0.504685	1.457960
H276	H	1.831809	-0.004685	1.957960
H277	H	1.379294	-0.613068	1.457056
H278	H	1.879294	-0.113068	1.957056
