data_functionalizedCrystal
_audit_creation_method	'MofGen! by Chris Wilmer'
_symmetry_space_group_name_H-M	'P1'
_symmetry_Int_Tables_number	1
_symmetry_cell_setting	triclinic
loop_
_symmetry_equiv_pos_as_xyz
  x,y,z
_cell_length_a	13.032831
_cell_length_b	18.215405
_cell_length_c	18.215399
_cell_angle_alpha	90.030551
_cell_angle_beta	82.809197
_cell_angle_gamma	97.170997
loop_
_atom_site_label
_atom_site_type_symbol
_atom_site_fract_x
_atom_site_fract_y
_atom_site_fract_z
Zn1	Zn	1.597611	0.436094	-0.558719
Zn2	Zn	1.847611	0.686094	-0.308719
Zn3	Zn	2.097611	0.936094	-0.058719
Zn4	Zn	2.347611	1.186094	0.191281
Zn5	Zn	1.597481	0.559154	-0.435635
Zn6	Zn	1.847481	0.809154	-0.185635
Zn7	Zn	2.097481	1.059154	0.064365
Zn8	Zn	2.347481	1.309154	0.314365
Zn9	Zn	1.422854	0.420464	-0.420066
Zn10	Zn	1.672854	0.670464	-0.170066
Zn11	Zn	1.922854	0.920464	0.079934
Zn12	Zn	2.172854	1.170464	0.329934
Zn13	Zn	1.422806	0.543466	-0.543067
Zn14	Zn	1.672806	0.793466	-0.293067
Zn15	Zn	1.922806	1.043466	-0.043067
Zn16	Zn	2.172806	1.293466	0.206933
O17	O	1.510188	0.489795	-0.489372
O18	O	1.760188	0.739795	-0.239372
O19	O	2.010188	0.989795	0.010628
O20	O	2.260188	1.239795	0.260628
O21	O	1.743832	0.465525	-0.555458
O22	O	1.993832	0.715525	-0.305458
O23	O	2.243832	0.965525	-0.055458
O24	O	2.493832	1.215525	0.194542
O25	O	1.574282	0.540781	-0.330583
O26	O	1.824282	0.790781	-0.080583
O27	O	2.074282	1.040781	0.169417
O28	O	2.324282	1.290781	0.419417
O29	O	1.446111	0.319560	-0.438493
O30	O	1.696111	0.569560	-0.188493
O31	O	1.946111	0.819560	0.061507
O32	O	2.196111	1.069560	0.311507
O33	O	1.743737	0.555937	-0.465029
O34	O	1.993737	0.805937	-0.215029
O35	O	2.243737	1.055937	0.034971
O36	O	2.493737	1.305937	0.284971
O37	O	1.574504	0.331043	-0.540361
O38	O	1.824504	0.581043	-0.290361
O39	O	2.074504	0.831043	-0.040361
O40	O	2.324504	1.081043	0.209639
O41	O	1.445985	0.438886	-0.319144
O42	O	1.695985	0.688886	-0.069144
O43	O	1.945985	0.938886	0.180856
O44	O	2.195985	1.188886	0.430856
O45	O	1.276609	0.423674	-0.423316
O46	O	1.526609	0.673674	-0.173316
O47	O	1.776609	0.923674	0.076684
O48	O	2.026609	1.173674	0.326684
O49	O	1.446028	0.529199	-0.648131
O50	O	1.696028	0.779199	-0.398131
O51	O	1.946028	1.029199	-0.148131
O52	O	2.196028	1.279199	0.101869
O53	O	1.276574	0.514043	-0.513685
O54	O	1.526574	0.764043	-0.263685
O55	O	1.776574	1.014043	-0.013685
O56	O	2.026574	1.264043	0.236315
O57	O	1.574457	0.450313	-0.659630
O58	O	1.824457	0.700313	-0.409630
O59	O	2.074457	0.950313	-0.159630
O60	O	2.324457	1.200313	0.090370
O61	O	1.574235	0.660051	-0.449852
O62	O	1.824235	0.910051	-0.199852
O63	O	2.074235	1.160051	0.050148
O64	O	2.324235	1.410051	0.300148
O65	O	1.445902	0.648525	-0.528782
O66	O	1.695902	0.898525	-0.278782
O67	O	1.945902	1.148525	-0.028782
O68	O	2.195902	1.398525	0.221218
C69	C	1.238674	0.465460	-0.465113
C70	C	1.488674	0.715460	-0.215113
C71	C	1.738674	0.965460	0.034887
C72	C	1.988674	1.215460	0.284887
C73	C	1.122519	0.455068	-0.454753
C74	C	1.372519	0.705068	-0.204753
C75	C	1.622519	0.955068	0.045247
C76	C	1.872519	1.205068	0.295247
C77	C	1.510078	0.680991	-0.489327
C78	C	1.760078	0.930991	-0.239327
C79	C	2.010078	1.180991	0.010673
C80	C	2.260078	1.430991	0.260673
C81	C	1.510126	0.762794	-0.489340
C82	C	1.760126	1.012794	-0.239340
C83	C	2.010126	1.262794	0.010660
C84	C	2.260126	1.512794	0.260660
C85	C	1.510252	0.489750	-0.681331
C86	C	1.760252	0.739750	-0.431331
C87	C	2.010252	0.989750	-0.181331
C88	C	2.260252	1.239750	0.068669
C89	C	1.510279	0.489730	-0.763132
C90	C	1.760279	0.739730	-0.513132
C91	C	2.010279	0.989730	-0.263132
C92	C	2.260279	1.239730	-0.013132
C93	C	1.070743	0.495219	-0.494779
C94	C	1.320743	0.745219	-0.244779
C95	C	1.570743	0.995219	0.005221
C96	C	1.820743	1.245219	0.255221
C97	C	0.950691	0.484478	-0.484072
C98	C	1.200691	0.734478	-0.234072
C99	C	1.450691	0.984478	0.015928
C100	C	1.700691	1.234478	0.265928
C101	C	1.782763	0.514225	-0.513726
C102	C	2.032763	0.764225	-0.263726
C103	C	2.282763	1.014225	-0.013726
C104	C	2.532763	1.264225	0.236274
C105	C	1.898918	0.524635	-0.524104
C106	C	2.148918	0.774635	-0.274104
C107	C	2.398918	1.024635	-0.024104
C108	C	2.648918	1.274635	0.225896
C109	C	1.510327	0.297854	-0.489436
C110	C	1.760327	0.547854	-0.239436
C111	C	2.010327	0.797854	0.010564
C112	C	2.260327	1.047854	0.260564
C113	C	1.510387	0.216061	-0.489463
C114	C	1.760387	0.466061	-0.239463
C115	C	2.010387	0.716061	0.010537
C116	C	2.260387	0.966061	0.260537
C117	C	1.577106	0.956979	-0.448342
C118	C	1.827106	1.206979	-0.198342
C119	C	2.077106	1.456979	0.051658
C120	C	2.327106	1.706979	0.301658
C121	C	1.577153	1.033842	-0.448364
C122	C	1.827153	1.283842	-0.198364
C123	C	2.077153	1.533842	0.051636
C124	C	2.327153	1.783842	0.301636
C125	C	1.443404	1.021870	-0.530466
C126	C	1.693404	1.271870	-0.280466
C127	C	1.943404	1.521870	-0.030466
C128	C	2.193404	1.771870	0.219534
C129	C	1.443363	0.945009	-0.530448
C130	C	1.693363	1.195009	-0.280448
C131	C	1.943363	1.445009	-0.030448
C132	C	2.193363	1.695009	0.219552
C133	C	1.510213	0.912565	-0.489382
C134	C	1.760213	1.162565	-0.239382
C135	C	2.010213	1.412565	0.010618
C136	C	2.260213	1.662565	0.260618
C137	C	1.510300	1.066289	-0.489422
C138	C	1.760300	1.316289	-0.239422
C139	C	2.010300	1.566289	0.010578
C140	C	2.260300	1.816289	0.260578
C141	C	1.510350	1.149627	-0.489446
C142	C	1.760350	1.399627	-0.239446
C143	C	2.010350	1.649627	0.010554
C144	C	2.260350	1.899627	0.260554
C145	C	1.510164	0.829222	-0.489358
C146	C	1.760164	1.079222	-0.239358
C147	C	2.010164	1.329222	0.010642
C148	C	2.260164	1.579222	0.260642
C149	C	1.577176	0.448613	-0.957317
C150	C	1.827176	0.698613	-0.707317
C151	C	2.077176	0.948613	-0.457317
C152	C	2.327176	1.198613	-0.207317
C153	C	1.577188	0.448593	-1.034177
C154	C	1.827188	0.698593	-0.784177
C155	C	2.077188	0.948593	-0.534177
C156	C	2.327188	1.198593	-0.284177
C157	C	1.443456	0.530741	-1.022192
C158	C	1.693456	0.780741	-0.772192
C159	C	1.943456	1.030741	-0.522192
C160	C	2.193456	1.280741	-0.272192
C161	C	1.443439	0.530756	-0.945333
C162	C	1.693439	0.780756	-0.695333
C163	C	1.943439	1.030756	-0.445333
C164	C	2.193439	1.280756	-0.195333
C165	C	1.510305	0.489694	-0.912898
C166	C	1.760305	0.739694	-0.662898
C167	C	2.010305	0.989694	-0.412898
C168	C	2.260305	1.239694	-0.162898
C169	C	1.510334	0.489658	-1.066617
C170	C	1.760334	0.739658	-0.816617
C171	C	2.010334	0.989658	-0.566617
C172	C	2.260334	1.239658	-0.316617
C173	C	1.510347	0.489636	-1.149952
C174	C	1.760347	0.739636	-0.899952
C175	C	2.010347	0.989636	-0.649952
C176	C	2.260347	1.239636	-0.399952
C177	C	1.510291	0.489715	-0.829558
C178	C	1.760291	0.739715	-0.579558
C179	C	2.010291	0.989715	-0.329558
C180	C	2.260291	1.239715	-0.079558
C181	C	1.510185	0.489792	-0.298165
C182	C	1.760185	0.739792	-0.048165
C183	C	2.010185	0.989792	0.201835
C184	C	2.260185	1.239792	0.451835
C185	C	1.510360	0.489622	-0.216383
C186	C	1.760360	0.739622	0.033617
C187	C	2.010360	0.989622	0.283617
C188	C	2.260360	1.239622	0.533617
H189	H	1.115294	0.537542	-0.536977
H190	H	1.365294	0.787542	-0.286977
H191	H	1.615294	1.037542	-0.036977
H192	H	1.865294	1.287542	0.213023
H193	H	1.388977	0.564208	-0.909164
H194	H	1.638977	0.814208	-0.659164
H195	H	1.888977	1.064208	-0.409164
H196	H	2.138977	1.314208	-0.159164
H197	H	0.943464	0.566960	-0.566307
H198	H	1.193464	0.816960	-0.316307
H199	H	1.443464	1.066960	-0.066307
H200	H	1.693464	1.316960	0.183693
O201	O	1.063503	0.399006	-0.398857
O202	O	1.313503	0.649006	-0.148857
O203	O	1.563503	0.899006	0.101143
O204	O	1.813503	1.149006	0.351143
H205	H	1.084409	0.343117	-0.413434
H206	H	1.334409	0.593117	-0.163434
H207	H	1.584409	0.843117	0.086566
H208	H	1.834409	1.093117	0.336566
O209	O	1.649216	0.921984	-0.404062
O210	O	1.899216	1.171984	-0.154062
O211	O	2.149216	1.421984	0.095938
O212	O	2.399216	1.671984	0.345938
H213	H	1.695747	0.965785	-0.375536
H214	H	1.945747	1.215785	-0.125536
H215	H	2.195747	1.465785	0.124464
H216	H	2.445747	1.715785	0.374464
H217	H	1.631639	0.415139	-1.070340
H218	H	1.881639	0.665139	-0.820340
H219	H	2.131639	0.915139	-0.570340
H220	H	2.381639	1.165139	-0.320340
O221	O	1.371346	0.575032	-1.057178
O222	O	1.621346	0.825032	-0.807178
O223	O	1.871346	1.075032	-0.557178
O224	O	2.121346	1.325032	-0.307178
H225	H	1.289334	0.555058	-1.035102
H226	H	1.539334	0.805058	-0.785102
H227	H	1.789334	1.055058	-0.535102
H228	H	2.039334	1.305058	-0.285102
H229	H	1.388976	1.048295	-0.563900
H230	H	1.638976	1.298295	-0.313900
H231	H	1.888976	1.548295	-0.063900
H232	H	2.138976	1.798295	0.186100
O233	O	0.891697	0.428419	-0.428161
O234	O	1.141697	0.678419	-0.178161
O235	O	1.391697	0.928419	0.071839
O236	O	1.641697	1.178419	0.321839
H237	H	0.806661	0.428790	-0.428514
H238	H	1.056661	0.678790	-0.178514
H239	H	1.306661	0.928790	0.071486
H240	H	1.556661	1.178790	0.321486
H241	H	1.631625	1.070001	-0.414947
H242	H	1.881625	1.320001	-0.164947
H243	H	2.131625	1.570001	0.085053
H244	H	2.381625	1.820001	0.335053
H245	H	1.631619	0.415175	-0.930911
H246	H	1.881619	0.665175	-0.680911
H247	H	2.131619	0.915175	-0.430911
H248	H	2.381619	1.165175	-0.180911
O249	O	1.371195	0.897095	-0.574702
O250	O	1.621195	1.147095	-0.324702
O251	O	1.871195	1.397095	-0.074702
O252	O	2.121195	1.647095	0.175298
H253	H	1.324701	0.932565	-0.603248
H254	H	1.574701	1.182565	-0.353248
H255	H	1.824701	1.432565	-0.103248
H256	H	2.074701	1.682565	0.146752
