data_functionalizedCrystal
_audit_creation_method	'MofGen! by Chris Wilmer'
_symmetry_space_group_name_H-M	'P1'
_symmetry_Int_Tables_number	1
_symmetry_cell_setting	triclinic
loop_
_symmetry_equiv_pos_as_xyz
  x,y,z
_cell_length_a	6.817900
_cell_length_b	11.168121
_cell_length_c	16.305550
_cell_angle_alpha	93.901156
_cell_angle_beta	103.455250
_cell_angle_gamma	108.508496
loop_
_atom_site_label
_atom_site_type_symbol
_atom_site_fract_x
_atom_site_fract_y
_atom_site_fract_z
V1	V	-4.052075	-0.175770	-0.263038
O2	O	-4.012761	0.007350	-0.258024
O3	O	-4.028756	-0.347468	-0.261246
O4	O	-4.003154	-0.173548	-0.377755
O5	O	-4.038540	-0.167775	-0.140708
V6	V	-4.532520	-0.153810	-0.248406
O7	O	-4.320084	-0.223942	-0.295136
O8	O	-4.714708	-0.105639	-0.216308
O9	O	-4.332632	0.017888	-0.250198
O10	O	-4.689230	-0.336930	-0.253420
O11	O	-4.663451	-0.161806	-0.370736
O12	O	-4.358234	-0.156033	-0.133689
C13	C	-3.879875	-0.389310	-0.257099
C14	C	-3.942093	-0.529678	-0.256398
C15	C	-4.143791	-0.598385	-0.260087
C16	C	-4.208100	-0.743464	-0.259363
C17	C	-3.847216	-0.167455	-0.405716
C18	C	-3.888668	-0.166774	-0.499498
C19	C	-4.039367	-0.164135	-0.840243
C20	C	-3.802168	-0.156300	-0.799315
C21	C	-3.759155	-0.157531	-0.701820
C22	C	-3.964601	-0.165443	-0.671196
C23	C	-4.149960	-0.290149	-0.721827
C24	C	-4.191720	-0.289444	-0.819377
C25	C	-4.077095	-0.048261	-0.794395
C26	C	-4.029020	-0.047274	-0.696553
C27	C	-3.922361	-0.166187	-0.575658
C28	C	-4.081618	-0.163399	-0.935782
C29	C	-4.144856	0.059723	-0.254343
C30	C	-4.061876	0.200090	-0.255049
C31	C	-4.177514	-0.162130	-0.105724
C32	C	-4.115300	-0.162804	-0.011941
H33	H	-4.380883	-0.802525	-0.262511
H34	H	-3.889082	-0.740854	-0.251889
C35	C	-4.428737	-0.304228	-0.857196
N36	N	-4.607260	-0.315378	-0.885679
C37	C	-4.358913	-0.304072	-0.696276
N38	N	-4.516294	-0.314557	-0.677028
H39	H	-4.168465	-0.377164	-0.849762
H40	H	-4.107420	-0.377893	-0.705018
H41	H	-4.268865	-0.549804	-0.263786
C42	C	-3.773115	-0.595304	-0.251405
N43	N	-3.645833	-0.644731	-0.247641
H44	H	-3.619482	-0.067868	-0.666793
H45	H	-3.682791	-0.066213	-0.811675
C46	C	-3.934849	0.079391	-0.812446
N47	N	-3.827690	0.175532	-0.826041
C48	C	-3.847178	0.077341	-0.650107
N49	N	-3.710211	0.171199	-0.615118
C50	C	-4.227525	-0.045083	-0.667615
N51	N	-4.376998	-0.043413	-0.645788
C52	C	-4.310458	-0.054508	-0.830629
N53	N	-4.486226	-0.059221	-0.857927
H54	H	-3.705103	-0.241742	-0.685530
H55	H	-3.769310	-0.239550	-0.830830
