data_functionalizedCrystal
_audit_creation_method	'MofGen! by Chris Wilmer'
_symmetry_space_group_name_H-M	'P1'
_symmetry_Int_Tables_number	1
_symmetry_cell_setting	triclinic
loop_
_symmetry_equiv_pos_as_xyz
  x,y,z
_cell_length_a	14.908520
_cell_length_b	12.759401
_cell_length_c	12.759393
_cell_angle_alpha	90.018496
_cell_angle_beta	93.262473
_cell_angle_gamma	86.679304
loop_
_atom_site_label
_atom_site_type_symbol
_atom_site_fract_x
_atom_site_fract_y
_atom_site_fract_z
Zn1	Zn	-0.359100	-1.582067	-0.618083
Zn2	Zn	-0.509987	-1.571798	-0.452530
Zn3	Zn	-0.359147	-1.406366	-0.442425
Zn4	Zn	-0.509917	-1.396199	-0.628166
O5	O	-0.434538	-1.489108	-0.535301
O6	O	-0.379125	-1.727726	-0.596130
O7	O	-0.490026	-1.549811	-0.304171
O8	O	-0.232897	-1.438226	-0.457278
O9	O	-0.489981	-1.720181	-0.474499
O10	O	-0.232862	-1.567313	-0.586332
O11	O	-0.379205	-1.428268	-0.296748
O12	O	-0.379138	-1.257997	-0.467055
O13	O	-0.489862	-1.420898	-0.773847
O14	O	-0.489908	-1.250528	-0.603519
O15	O	-0.379058	-1.557454	-0.766438
O16	O	-0.636222	-1.539952	-0.484277
O17	O	-0.636171	-1.410940	-0.613317
C18	C	-0.434521	-1.216142	-0.535286
C19	C	-0.434536	-1.099364	-0.535305
C20	C	-0.668930	-1.473257	-0.551010
C21	C	-0.769204	-1.466573	-0.557766
C22	C	-0.434447	-1.489187	-0.809328
C23	C	-0.434408	-1.489221	-0.926102
C24	C	-0.957621	-1.588489	-0.436200
C25	C	-1.051837	-1.582212	-0.442544
C26	C	-1.051854	-1.447746	-0.576803
C27	C	-0.957638	-1.454024	-0.570459
C28	C	-0.910524	-1.524397	-0.500154
C29	C	-0.816307	-1.530668	-0.493805
C30	C	-0.816325	-1.396208	-0.628069
C31	C	-0.910541	-1.389931	-0.634413
C32	C	-0.199231	-1.505049	-0.519553
C33	C	-0.098957	-1.511842	-0.512842
C34	C	-0.434555	-1.763140	-0.535317
C35	C	-0.434563	-1.879916	-0.535324
C36	C	-0.492306	-1.040634	-0.606257
C37	C	-0.492318	-0.930909	-0.606269
C38	C	-0.376786	-0.938654	-0.464369
C39	C	-0.376771	-1.048377	-0.464363
C40	C	-0.559010	-1.036161	-0.688179
C41	C	-0.559022	-0.926436	-0.688191
C42	C	-0.376707	-1.560336	-0.977108
C43	C	-0.376674	-1.560363	-1.086830
C44	C	-0.492052	-1.418158	-1.094531
C45	C	-0.492079	-1.418126	-0.984811
C46	C	-0.310097	-1.642440	-0.972663
C47	C	-0.310064	-1.642467	-1.082385
C48	C	-0.434563	-1.489093	-0.262335
C49	C	-0.434348	-1.489280	-0.145545
H50	H	-0.777948	-1.587966	-0.436557
N51	N	-0.554315	-1.341423	-0.929799
H52	H	-0.545582	-1.352188	-0.851383
H53	H	-0.540256	-1.267348	-0.948035
H54	H	-0.328777	-1.722578	-1.113419
N55	N	-0.906798	-1.664375	-0.360366
H56	H	-0.950931	-1.704022	-0.320809
H57	H	-0.867642	-1.715581	-0.400536
H58	H	-0.335143	-1.718025	-0.940308
H59	H	-1.090230	-1.390459	-0.634049
H60	H	-1.090179	-1.634405	-0.390468
N61	N	-0.525909	-0.883619	-0.788388
H62	H	-0.509914	-0.943633	-0.836800
H63	H	-0.574753	-0.835728	-0.823896
H64	H	-0.539004	-1.360273	-1.142345
N65	N	-0.961358	-1.314034	-0.710239
H66	H	-1.028191	-1.319781	-0.704556
H67	H	-0.944957	-1.240104	-0.692706
H68	H	-0.777969	-1.344016	-0.680141
H69	H	-0.329723	-1.096192	-0.406594
N70	N	-0.651544	-0.880723	-0.665350
H71	H	-0.692822	-0.939466	-0.655141
H72	H	-0.647395	-0.836970	-0.599462
N73	N	-0.314498	-0.883660	-0.387840
H74	H	-0.323276	-0.805239	-0.398606
H75	H	-0.328475	-0.901875	-0.313720
H76	H	-0.540377	-1.067224	-0.768335
N77	N	-0.646876	-1.075300	-0.655284
H78	H	-0.697560	-1.047475	-0.705408
H79	H	-0.643578	-1.154572	-0.656465
H80	H	-0.240231	-1.625378	-0.938218
N81	N	-0.222136	-1.609833	-1.121597
H82	H	-0.179673	-1.594047	-1.059843
H83	H	-0.194418	-1.668614	-1.164328
