data_functionalizedCrystal
_audit_creation_method	'MofGen! by Chris Wilmer'
_symmetry_space_group_name_H-M	'P1'
_symmetry_Int_Tables_number	1
_symmetry_cell_setting	triclinic
loop_
_symmetry_equiv_pos_as_xyz
  x,y,z
_cell_length_a	19.121063
_cell_length_b	19.805407
_cell_length_c	19.805399
_cell_angle_alpha	89.980427
_cell_angle_beta	92.411105
_cell_angle_gamma	92.469032
loop_
_atom_site_label
_atom_site_type_symbol
_atom_site_fract_x
_atom_site_fract_y
_atom_site_fract_z
Zn1	Zn	-0.279631	1.023234	-0.394203
Zn2	Zn	-0.029631	1.273234	-0.144203
Zn3	Zn	0.220369	1.523234	0.105797
Zn4	Zn	0.470369	1.773234	0.355797
Zn5	Zn	-0.397083	1.018317	-0.285838
Zn6	Zn	-0.147083	1.268317	-0.035838
Zn7	Zn	0.102917	1.518317	0.214162
Zn8	Zn	0.352917	1.768317	0.464162
Zn9	Zn	-0.279650	0.910048	-0.281028
Zn10	Zn	-0.029650	1.160048	-0.031028
Zn11	Zn	0.220350	1.410048	0.218972
Zn12	Zn	0.470350	1.660048	0.468972
Zn13	Zn	-0.397046	0.905182	-0.398983
Zn14	Zn	-0.147046	1.155182	-0.148983
Zn15	Zn	0.102954	1.405182	0.101017
Zn16	Zn	0.352954	1.655182	0.351017
O17	O	-0.338352	0.964195	-0.340013
O18	O	-0.088352	1.214195	-0.090013
O19	O	0.161648	1.464195	0.159987
O20	O	0.411648	1.714195	0.409987
O21	O	-0.295218	1.117298	-0.379840
O22	O	-0.045218	1.367298	-0.129840
O23	O	0.204782	1.617298	0.120160
O24	O	0.454782	1.867298	0.370160
O25	O	-0.381529	1.003934	-0.190484
O26	O	-0.131529	1.253934	0.059516
O27	O	0.118471	1.503934	0.309516
O28	O	0.368471	1.753934	0.559516
O29	O	-0.181363	0.929156	-0.292028
O30	O	0.068637	1.179156	-0.042028
O31	O	0.318637	1.429156	0.207972
O32	O	0.568637	1.679156	0.457972
O33	O	-0.381510	1.113686	-0.300225
O34	O	-0.131510	1.363686	-0.050225
O35	O	0.118490	1.613686	0.199775
O36	O	0.368490	1.863686	0.449775
O37	O	-0.181348	1.012313	-0.375177
O38	O	0.068652	1.262313	-0.125177
O39	O	0.318652	1.512313	0.124823
O40	O	0.568652	1.762313	0.374823
O41	O	-0.295251	0.924388	-0.186951
O42	O	-0.045251	1.174388	0.063049
O43	O	0.204749	1.424388	0.313049
O44	O	0.454749	1.674388	0.563049
O45	O	-0.295215	0.814686	-0.296663
O46	O	-0.045215	1.064686	-0.046663
O47	O	0.204785	1.314686	0.203337
O48	O	0.454785	1.564686	0.453337
O49	O	-0.381447	0.920863	-0.493065
O50	O	-0.131447	1.170863	-0.243065
O51	O	0.118553	1.420863	0.006935
O52	O	0.368553	1.670863	0.256935
O53	O	-0.381465	0.811111	-0.383324
O54	O	-0.131465	1.061111	-0.133324
O55	O	0.118535	1.311111	0.116676
O56	O	0.368535	1.561111	0.366676
O57	O	-0.295182	1.007595	-0.489553
O58	O	-0.045182	1.257595	-0.239553
O59	O	0.204818	1.507595	0.010447
O60	O	0.454818	1.757595	0.260447
O61	O	-0.495363	0.999216	-0.304860
O62	O	-0.245363	1.249216	-0.054860
O63	O	0.004637	1.499216	0.195140
O64	O	0.254637	1.749216	0.445140
O65	O	-0.495335	0.916096	-0.387987
O66	O	-0.245335	1.166096	-0.137987
O67	O	0.004665	1.416096	0.112013
O68	O	0.254665	1.666096	0.362013
C69	C	-0.338339	0.788340	-0.339991
C70	C	-0.088339	1.038340	-0.089991
C71	C	0.161661	1.288340	0.160009
C72	C	0.411661	1.538340	0.410009
C73	C	-0.338350	0.713107	-0.339998
C74	C	-0.088350	0.963107	-0.089998
C75	C	0.161650	1.213107	0.160002
C76	C	0.411650	1.463107	0.410002
C77	C	-0.520833	0.956613	-0.347479
C78	C	-0.270833	1.206613	-0.097479
C79	C	-0.020833	1.456613	0.152521
C80	C	0.229167	1.706613	0.402521
C81	C	-0.598899	0.953431	-0.350696
C82	C	-0.348899	1.203431	-0.100696
C83	C	-0.098899	1.453431	0.149304
C84	C	0.151101	1.703431	0.399304
C85	C	-0.383328	0.675917	-0.385055
C86	C	-0.133328	0.925917	-0.135055
C87	C	0.116672	1.175917	0.114945
C88	C	0.366672	1.425917	0.364945
C89	C	-0.383329	0.605228	-0.385064
C90	C	-0.133329	0.855228	-0.135064
C91	C	0.116671	1.105228	0.114936
C92	C	0.366671	1.355228	0.364936
C93	C	-0.338356	0.571732	-0.340013
C94	C	-0.088356	0.821732	-0.090013
C95	C	0.161644	1.071732	0.159987
C96	C	0.411644	1.321732	0.409987
C97	C	-0.293373	0.608927	-0.294954
C98	C	-0.043373	0.858927	-0.044954
C99	C	0.206627	1.108927	0.205046
C100	C	0.456627	1.358927	0.455046
C101	C	-0.293368	0.679614	-0.294948
C102	C	-0.043368	0.929614	-0.044948
C103	C	0.206632	1.179614	0.205052
C104	C	0.456632	1.429614	0.455052
C105	C	-0.293388	0.323853	-0.294977
C106	C	-0.043388	0.573853	-0.044977
C107	C	0.206612	0.823853	0.205023
C108	C	0.456612	1.073853	0.455023
C109	C	-0.293397	0.253161	-0.294985
C110	C	-0.043397	0.503161	-0.044985
C111	C	0.206603	0.753161	0.205015
C112	C	0.456603	1.003161	0.455015
C113	C	-0.383349	0.249467	-0.385093
C114	C	-0.133349	0.499467	-0.135093
C115	C	0.116651	0.749467	0.114907
C116	C	0.366651	0.999467	0.364907
C117	C	-0.383345	0.320154	-0.385087
C118	C	-0.133345	0.570154	-0.135087
C119	C	0.116655	0.820154	0.114913
C120	C	0.366655	1.070154	0.364913
C121	C	-0.338360	0.357344	-0.340031
C122	C	-0.088360	0.607344	-0.090031
C123	C	0.161640	0.857344	0.159969
C124	C	0.411640	1.107344	0.409969
C125	C	-0.338358	0.433992	-0.340022
C126	C	-0.088358	0.683992	-0.090022
C127	C	0.161642	0.933992	0.159978
C128	C	0.411642	1.183992	0.409978
C129	C	-0.338360	0.495084	-0.340018
C130	C	-0.088360	0.745084	-0.090018
C131	C	0.161640	0.995084	0.159982
C132	C	0.411640	1.245084	0.409982
C133	C	-0.635566	0.995246	-0.308963
C134	C	-0.385566	1.245246	-0.058963
C135	C	-0.135566	1.495246	0.191037
C136	C	0.114434	1.745246	0.441037
C137	C	-0.708917	0.992258	-0.311992
C138	C	-0.458917	1.242258	-0.061992
C139	C	-0.208917	1.492258	0.188008
C140	C	0.041083	1.742258	0.438008
C141	C	-0.745601	0.947451	-0.356752
C142	C	-0.495601	1.197451	-0.106752
C143	C	-0.245601	1.447451	0.143248
C144	C	0.004399	1.697451	0.393248
C145	C	-0.708929	0.905634	-0.398489
C146	C	-0.458929	1.155634	-0.148489
C147	C	-0.208929	1.405634	0.101511
C148	C	0.041071	1.655634	0.351511
C149	C	-0.635579	0.908626	-0.395463
C150	C	-0.385579	1.158626	-0.145463
C151	C	-0.135579	1.408626	0.104537
C152	C	0.114421	1.658626	0.354537
C153	C	-0.967071	0.936252	-0.368056
C154	C	-0.717071	1.186252	-0.118056
C155	C	-0.467071	1.436252	0.131944
C156	C	-0.217071	1.686252	0.381944
C157	C	-1.040426	0.933262	-0.371078
C158	C	-0.790426	1.183262	-0.121078
C159	C	-0.540426	1.433262	0.128922
C160	C	-0.290426	1.683262	0.378922
C161	C	-1.040409	1.019887	-0.284581
C162	C	-0.790409	1.269887	-0.034581
C163	C	-0.540409	1.519887	0.215419
C164	C	-0.290409	1.769887	0.465419
C165	C	-0.967058	1.022872	-0.281556
C166	C	-0.717058	1.272872	-0.031556
C167	C	-0.467058	1.522872	0.218444
C168	C	-0.217058	1.772872	0.468444
C169	C	-0.930393	0.981058	-0.323296
C170	C	-0.680393	1.231058	-0.073296
C171	C	-0.430393	1.481058	0.176704
C172	C	-0.180393	1.731058	0.426704
C173	C	-0.820578	0.944394	-0.359848
C174	C	-0.570578	1.194394	-0.109848
C175	C	-0.320578	1.444394	0.140152
C176	C	-0.070578	1.694394	0.390152
C177	C	-0.855417	0.984119	-0.320203
C178	C	-0.605417	1.234119	-0.070203
C179	C	-0.355417	1.484119	0.179797
C180	C	-0.105417	1.734119	0.429797
C181	C	-0.155159	0.971825	-0.332532
C182	C	0.094841	1.221825	-0.082532
C183	C	0.344841	1.471825	0.167468
C184	C	0.594841	1.721825	0.417468
C185	C	-0.077093	0.975077	-0.329345
C186	C	0.172907	1.225077	-0.079345
C187	C	0.422907	1.475077	0.170655
C188	C	0.672907	1.725077	0.420655
C189	C	-0.338308	0.964235	-0.516554
C190	C	-0.088308	1.214235	-0.266554
C191	C	0.161692	1.464235	-0.016554
C192	C	0.411692	1.714235	0.233446
C193	C	-0.338289	0.964252	-0.591785
C194	C	-0.088289	1.214252	-0.341785
C195	C	0.161711	1.464252	-0.091785
C196	C	0.411711	1.714252	0.158215
C197	C	-0.338366	1.140737	-0.340036
C198	C	-0.088366	1.390737	-0.090036
C199	C	0.161634	1.640737	0.159964
C200	C	0.411634	1.890737	0.409964
C201	C	-0.338372	1.215969	-0.340046
C202	C	-0.088372	1.465969	-0.090046
C203	C	0.161628	1.715969	0.159954
C204	C	0.411628	1.965969	0.409954
C205	C	-0.293369	1.009414	-0.625302
C206	C	-0.043369	1.259414	-0.375302
C207	C	0.206631	1.509414	-0.125302
C208	C	0.456631	1.759414	0.124698
C209	C	-0.293349	1.009422	-0.695989
C210	C	-0.043349	1.259422	-0.445989
C211	C	0.206651	1.509422	-0.195989
C212	C	0.456651	1.759422	0.054011
C213	C	-0.338253	0.964270	-0.733159
C214	C	-0.088253	1.214270	-0.483159
C215	C	0.161747	1.464270	-0.233159
C216	C	0.411747	1.714270	0.016841
C217	C	-0.383175	0.919103	-0.699638
C218	C	-0.133175	1.169103	-0.449638
C219	C	0.116825	1.419103	-0.199638
C220	C	0.366825	1.669103	0.050362
C221	C	-0.383191	0.919093	-0.628952
C222	C	-0.133191	1.169093	-0.378952
C223	C	0.116809	1.419093	-0.128952
C224	C	0.366809	1.669093	0.121048
C225	C	-0.383109	0.919144	-0.984709
C226	C	-0.133109	1.169144	-0.734709
C227	C	0.116891	1.419144	-0.484709
C228	C	0.366891	1.669144	-0.234709
C229	C	-0.383091	0.919159	-1.055400
C230	C	-0.133091	1.169159	-0.805400
C231	C	0.116909	1.419159	-0.555400
C232	C	0.366909	1.669159	-0.305400
C233	C	-0.293267	1.009474	-1.051747
C234	C	-0.043267	1.259474	-0.801747
C235	C	0.206733	1.509474	-0.551747
C236	C	0.456733	1.759474	-0.301747
C237	C	-0.293283	1.009463	-0.981060
C238	C	-0.043283	1.259463	-0.731060
C239	C	0.206717	1.509463	-0.481060
C240	C	0.456717	1.759463	-0.231060
C241	C	-0.338202	0.964294	-0.947545
C242	C	-0.088202	1.214294	-0.697545
C243	C	0.161798	1.464294	-0.447545
C244	C	0.411798	1.714294	-0.197545
C245	C	-0.338223	0.964285	-0.870897
C246	C	-0.088223	1.214285	-0.620897
C247	C	0.161777	1.464285	-0.370897
C248	C	0.411777	1.714285	-0.120897
C249	C	-0.338236	0.964282	-0.809806
C250	C	-0.088236	1.214282	-0.559806
C251	C	0.161764	1.464282	-0.309806
C252	C	0.411764	1.714282	-0.059806
C253	C	-0.338346	0.964197	-0.164157
C254	C	-0.088346	1.214197	0.085843
C255	C	0.161654	1.464197	0.335843
C256	C	0.411654	1.714197	0.585843
C257	C	-0.338167	0.964319	-0.088918
C258	C	-0.088167	1.214319	0.161082
C259	C	0.161833	1.464319	0.411082
C260	C	0.411833	1.714319	0.661082
H261	H	-0.419953	0.703185	-0.421739
H262	H	-0.169953	0.953185	-0.171739
H263	H	0.080047	1.203185	0.078261
H264	H	0.330047	1.453185	0.328261
H265	H	-1.070292	0.896783	-0.407538
H266	H	-0.820292	1.146783	-0.157538
H267	H	-0.570292	1.396783	0.092462
H268	H	-0.320292	1.646783	0.342462
H269	H	-0.419970	0.347424	-0.421771
H270	H	-0.169970	0.597424	-0.171771
H271	H	0.080030	0.847424	0.078229
H272	H	0.330030	1.097424	0.328229
H273	H	-0.256805	1.046184	-0.595043
H274	H	-0.006805	1.296184	-0.345043
H275	H	0.243195	1.546184	-0.095043
H276	H	0.493195	1.796184	0.154957
H277	H	-0.419976	0.219179	-0.421783
H278	H	-0.169976	0.469179	-0.171783
H279	H	0.080024	0.719179	0.078217
H280	H	0.330024	0.969179	0.328217
H281	H	-0.605703	1.031730	-0.272512
H282	H	-0.355703	1.281730	-0.022512
H283	H	-0.105703	1.531730	0.227488
H284	H	0.144297	1.781730	0.477488
H285	H	-0.605726	0.874577	-0.429447
H286	H	-0.355726	1.124577	-0.179447
H287	H	-0.105726	1.374577	0.070553
H288	H	0.144274	1.624577	0.320553
H289	H	-0.256772	1.046199	-0.723275
H290	H	-0.006772	1.296199	-0.473275
H291	H	0.243228	1.546199	-0.223275
H292	H	0.493228	1.796199	0.026725
H293	H	-0.937224	0.902204	-0.402041
H294	H	-0.687224	1.152204	-0.152041
H295	H	-0.437224	1.402204	0.097959
H296	H	-0.187224	1.652204	0.347959
H297	H	-0.738803	0.869154	-0.434936
H298	H	-0.488803	1.119154	-0.184936
H299	H	-0.238803	1.369154	0.065064
H300	H	0.011197	1.619154	0.315064
H301	H	-0.825547	1.020604	-0.283763
H302	H	-0.575547	1.270604	-0.033763
H303	H	-0.325547	1.520604	0.216237
H304	H	-0.075547	1.770604	0.466237
H305	H	-0.419658	0.882388	-1.085662
H306	H	-0.169658	1.132388	-0.835662
H307	H	0.080342	1.382388	-0.585662
H308	H	0.330342	1.632388	-0.335662
H309	H	-0.256720	1.046232	-0.950800
H310	H	-0.006720	1.296232	-0.700800
H311	H	0.243280	1.546232	-0.450800
H312	H	0.493280	1.796232	-0.200800
H313	H	-0.419695	0.882374	-0.957430
H314	H	-0.169695	1.132374	-0.707430
H315	H	0.080305	1.382374	-0.457430
H316	H	0.330305	1.632374	-0.207430
H317	H	-0.256689	1.046250	-1.079043
H318	H	-0.006689	1.296250	-0.829043
H319	H	0.243311	1.546250	-0.579043
H320	H	0.493311	1.796250	-0.329043
H321	H	-0.419734	0.882337	-0.729907
H322	H	-0.169734	1.132337	-0.479907
H323	H	0.080266	1.382337	-0.229907
H324	H	0.330266	1.632337	0.020093
H325	H	-0.256739	0.709894	-0.258261
H326	H	-0.006739	0.959894	-0.008261
H327	H	0.243261	1.209894	0.241739
H328	H	0.493261	1.459894	0.491739
H329	H	-0.850454	0.907910	-0.396289
H330	H	-0.600454	1.157910	-0.146289
H331	H	-0.350454	1.407910	0.103711
H332	H	-0.100454	1.657910	0.353711
H333	H	-0.419956	0.574951	-0.421754
H334	H	-0.169956	0.824951	-0.171754
H335	H	0.080044	1.074951	0.078246
H336	H	0.330044	1.324951	0.328246
H337	H	-0.419762	0.882310	-0.601663
H338	H	-0.169762	1.132310	-0.351663
H339	H	0.080238	1.382310	-0.101663
H340	H	0.330238	1.632310	0.148337
H341	H	-0.256770	0.225890	-0.258298
H342	H	-0.006770	0.475890	-0.008298
H343	H	0.243230	0.725890	0.241702
H344	H	0.493230	0.975890	0.491702
H345	H	-0.256751	0.581649	-0.258275
H346	H	-0.006751	0.831649	-0.008275
H347	H	0.243249	1.081649	0.241725
H348	H	0.493249	1.331649	0.491725
H349	H	-0.256764	0.354124	-0.258284
H350	H	-0.006764	0.604124	-0.008284
H351	H	0.243236	0.854124	0.241716
H352	H	0.493236	1.104124	0.491716
H353	H	-0.738768	1.026308	-0.278008
H354	H	-0.488768	1.276308	-0.028008
H355	H	-0.238768	1.526308	0.221992
H356	H	0.011232	1.776308	0.471992
H357	H	-1.070270	1.053931	-0.250600
H358	H	-0.820270	1.303931	-0.000600
H359	H	-0.570270	1.553931	0.249400
H360	H	-0.320270	1.803931	0.499400
H361	H	-0.937192	1.059358	-0.245110
H362	H	-0.687192	1.309358	0.004890
H363	H	-0.437192	1.559358	0.254890
H364	H	-0.187192	1.809358	0.504890
