data_functionalizedCrystal
_audit_creation_method	'MofGen! by Chris Wilmer'
_symmetry_space_group_name_H-M	'P1'
_symmetry_Int_Tables_number	1
_symmetry_cell_setting	triclinic
loop_
_symmetry_equiv_pos_as_xyz
  x,y,z
_cell_length_a	12.759401
_cell_length_b	18.050589
_cell_length_c	12.759393
_cell_angle_alpha	90.029345
_cell_angle_beta	89.980324
_cell_angle_gamma	89.964876
loop_
_atom_site_label
_atom_site_type_symbol
_atom_site_fract_x
_atom_site_fract_y
_atom_site_fract_z
Zn1	Zn	1.606120	0.295615	-0.593993
Zn2	Zn	1.605950	0.419823	-0.418317
Zn3	Zn	1.430419	0.295652	-0.418332
Zn4	Zn	1.430350	0.419769	-0.593958
O5	O	1.518210	0.357715	-0.506150
O6	O	1.753119	0.312099	-0.570698
O7	O	1.582623	0.403390	-0.271298
O8	O	1.453827	0.191723	-0.441655
O9	O	1.752994	0.403354	-0.441629
O10	O	1.582914	0.191695	-0.570712
O11	O	1.453661	0.312162	-0.271309
O12	O	1.283389	0.312109	-0.441621
O13	O	1.453708	0.403261	-0.740984
O14	O	1.283338	0.403297	-0.570652
O15	O	1.582846	0.312046	-0.741010
O16	O	1.582556	0.523740	-0.441595
O17	O	1.453543	0.523701	-0.570637
C18	C	1.245242	0.357702	-0.506135
C19	C	1.128466	0.357714	-0.506154
C20	C	1.073670	0.310284	-0.573463
C21	C	0.963946	0.310291	-0.573470
C22	C	0.963824	0.405167	-0.438855
C23	C	1.073546	0.405155	-0.438843
C24	C	0.814069	0.222755	-0.611236
C25	C	0.759269	0.175330	-0.678562
C26	C	0.794933	0.164012	-0.781101
C27	C	0.885396	0.200128	-0.816333
C28	C	0.940190	0.247557	-0.749013
C29	C	0.904528	0.258862	-0.646460
C30	C	1.223424	0.492693	-0.401088
C31	C	1.278220	0.540126	-0.333772
C32	C	1.242558	0.551453	-0.231232
C33	C	1.152092	0.515350	-0.196003
C34	C	1.097296	0.467916	-0.263319
C35	C	1.132966	0.456588	-0.365858
C36	C	1.518052	0.550667	-0.506133
C37	C	1.518081	0.633213	-0.506162
C38	C	1.447961	0.832669	-0.576311
C39	C	1.422337	0.882116	-0.480443
C40	C	1.518160	0.784343	-0.506176
C41	C	1.543812	0.881977	-0.602056
C42	C	1.518234	0.930328	-0.506198
C43	C	1.492486	0.832703	-0.410257
C44	C	1.614005	0.832560	-0.531934
C45	C	1.588418	0.881985	-0.436000
C46	C	1.518114	0.700245	-0.506164
C47	C	1.518280	1.014425	-0.506199
C48	C	1.792243	0.357728	-0.506165
C49	C	1.909020	0.357734	-0.506172
C50	C	1.518288	0.357643	-0.780183
C51	C	1.518322	0.357613	-0.896960
C52	C	1.518357	1.164009	-0.506191
C53	C	1.518316	1.081463	-0.506211
C54	C	1.585569	0.310110	-0.951837
C55	C	1.585587	0.310078	-1.061561
C56	C	1.451108	0.405059	-1.061522
C57	C	1.451085	0.405086	-0.951799
C58	C	1.623242	0.222457	-1.211536
C59	C	1.690506	0.174960	-1.266417
C60	C	1.793024	0.163574	-1.230823
C61	C	1.828300	0.199695	-1.140350
C62	C	1.761042	0.247197	-1.085475
C63	C	1.658509	0.258570	-1.121067
C64	C	1.413441	0.492708	-0.801823
C65	C	1.346187	0.540215	-0.746945
C66	C	1.243667	0.551609	-0.782537
C67	C	1.208395	0.515501	-0.873014
C68	C	1.275649	0.467994	-0.927891
C69	C	1.378168	0.456599	-0.892292
C70	C	1.518192	0.357732	-0.233183
C71	C	1.518362	0.357553	-0.116406
H72	H	1.123051	0.524576	-0.112509
H73	H	1.252475	0.483468	-0.484582
O74	O	0.741801	0.117995	-0.846653
C75	C	0.792688	0.115735	-0.944709
H76	H	0.841602	0.168034	-0.955252
H77	H	0.731674	0.112287	-1.009774
H78	H	0.845935	0.065060	-0.948392
O79	O	0.671292	0.140329	-0.644443
C80	C	0.585546	0.161243	-0.707534
H81	H	0.602701	0.216892	-0.746082
H82	H	0.512276	0.166216	-0.656855
H83	H	0.572325	0.117533	-0.770678
O84	O	1.650981	0.264096	-0.898517
C85	C	1.718770	0.306391	-0.835026
H86	H	1.725218	0.364874	-0.868078
H87	H	1.799646	0.279531	-0.833797
H88	H	1.686265	0.308969	-0.751866
H89	H	1.388518	0.811014	-0.635538
H90	H	1.470725	0.811148	-0.329159
O91	O	1.325617	0.908053	-0.454626
C92	C	1.251797	0.882916	-0.528736
H93	H	1.293530	0.868994	-0.605272
H94	H	1.191163	0.928144	-0.543419
H95	H	1.211005	0.831284	-0.497447
H96	H	1.023634	0.438519	-0.234627
O97	O	1.108852	0.526507	-0.907763
C98	C	1.092134	0.484436	-0.999372
H99	H	1.170634	0.472129	-1.038380
H100	H	1.040409	0.517021	-1.055768
H101	H	1.051842	0.430140	-0.978046
H102	H	1.647815	0.903503	-0.376630
H103	H	1.695005	0.810778	-0.553747
O104	O	1.027964	0.282680	-0.783385
C105	C	1.002653	0.327754	-0.869980
H106	H	0.928179	0.306162	-0.908703
H107	H	1.069778	0.326440	-0.928942
H108	H	0.989536	0.387106	-0.842321
O109	O	0.779574	0.233669	-0.511558
C110	C	0.857780	0.211276	-0.440230
H111	H	0.912191	0.169697	-0.479851
H112	H	0.819501	0.184370	-0.369054
H113	H	0.904888	0.261650	-0.414105
O114	O	1.569545	0.907712	-0.698855
C115	C	1.495269	0.882599	-0.772525
H116	H	1.455239	0.830640	-0.741352
H117	H	1.536412	0.869226	-0.849575
H118	H	1.434098	0.927623	-0.786221
H119	H	1.789764	0.276609	-1.011816
O120	O	1.178459	0.597761	-0.729083
C121	C	1.231580	0.627213	-0.641615
H122	H	1.298989	0.588905	-0.619169
H123	H	1.174881	0.632249	-0.572906
H124	H	1.263824	0.684299	-0.662039
O125	O	1.927910	0.188531	-1.105899
C126	C	1.979718	0.138874	-1.173748
H127	H	1.919332	0.103825	-1.217040
H128	H	2.033396	0.101218	-1.126180
H129	H	2.028319	0.171425	-1.232885
H130	H	1.847790	0.124900	-1.275515
H131	H	0.919094	0.443791	-0.384054
H132	H	0.914420	0.190914	-0.899835
O133	O	1.295933	0.597536	-0.165964
C134	C	1.383405	0.626999	-0.219052
H135	H	1.405926	0.588736	-0.286517
H136	H	1.452076	0.631969	-0.162353
H137	H	1.362948	0.684117	-0.251215
H138	H	1.661775	0.145551	-1.340081
H139	H	1.351893	0.569513	-0.362459
O140	O	1.523582	0.233437	-1.245963
C141	C	1.452216	0.211127	-1.167733
H142	H	1.491774	0.169538	-1.113382
H143	H	1.381006	0.184263	-1.205994
H144	H	1.426158	0.261539	-1.120566
H145	H	1.396368	0.443712	-1.106185
O146	O	1.241460	0.432797	-1.015714
C147	C	1.247865	0.355521	-1.000969
H148	H	1.308306	0.342779	-0.937708
H149	H	1.272374	0.327917	-1.077537
H150	H	1.168096	0.333378	-0.975741
H151	H	1.496919	0.483429	-0.772829
O152	O	1.127068	0.264304	-0.638950
C153	C	1.190557	0.306635	-0.706684
H154	H	1.157456	0.365135	-0.713037
H155	H	1.191855	0.279841	-0.787601
H156	H	1.273698	0.309157	-0.674186
O157	O	1.380607	0.575329	-0.659147
C158	C	1.467289	0.620312	-0.684451
H159	H	1.505990	0.598661	-0.758965
H160	H	1.526233	0.618960	-0.617354
H161	H	1.439740	0.679687	-0.697494
