data_functionalizedCrystal
_audit_creation_method	'MofGen! by Chris Wilmer'
_symmetry_space_group_name_H-M	'P1'
_symmetry_Int_Tables_number	1
_symmetry_cell_setting	triclinic
loop_
_symmetry_equiv_pos_as_xyz
  x,y,z
_cell_length_a	6.394989
_cell_length_b	16.956984
_cell_length_c	16.053802
_cell_angle_alpha	87.610701
_cell_angle_beta	92.643543
_cell_angle_gamma	81.275565
loop_
_atom_site_label
_atom_site_type_symbol
_atom_site_fract_x
_atom_site_fract_y
_atom_site_fract_z
O1	O	0.077034	1.062178	-0.069431
O2	O	0.150241	0.830756	-0.069431
O3	O	-0.190994	0.949752	-0.069432
O4	O	0.418269	0.943182	-0.069430
O5	O	-0.172284	0.943201	0.069427
O6	O	0.168951	0.824205	0.069428
O7	O	0.095744	1.055627	0.069428
Zn8	Zn	0.135318	0.938876	0.091475
Zn9	Zn	0.110667	0.947507	-0.091478
O10	O	0.436979	0.936631	0.069429
C11	C	0.163345	0.797810	-0.000001
C12	C	0.174490	0.709401	-0.000001
N13	N	0.152139	0.932992	0.216335
C14	C	-0.011856	0.675444	-0.000000
C15	C	-0.001372	0.592375	-0.000006
C16	C	0.195460	0.543263	-0.000007
C17	C	0.381819	0.577226	-0.000011
C18	C	0.371333	0.660294	-0.000011
C19	C	0.247366	0.294013	-0.000013
C20	C	0.257839	0.210939	-0.000010
C21	C	-0.125354	0.226094	-0.000007
C22	C	-0.135822	0.309163	-0.000002
C23	C	0.050536	0.343118	-0.000010
N24	N	0.206181	0.458353	-0.000011
N25	N	0.039812	0.428028	-0.000013
C26	C	0.505220	0.941206	-0.000005
C27	C	0.740769	0.945176	-0.000007
C28	C	0.082640	1.088573	-0.000004
C29	C	0.071494	1.176982	-0.000009
N30	N	0.093828	0.953397	-0.216338
C31	C	0.006988	0.983644	0.260028
C32	C	0.018774	0.979535	0.347435
C33	C	0.175721	0.924778	0.391147
C34	C	0.320879	0.874120	0.347448
C35	C	0.309082	0.878225	0.260042
C36	C	0.227189	0.906845	0.652557
C37	C	0.238979	0.902745	0.739968
C38	C	-0.063130	1.008160	0.739950
C39	C	-0.074905	1.012264	0.652543
C40	C	0.070246	0.961603	0.608851
N41	N	0.187775	0.920578	0.480491
N42	N	0.058181	0.965799	0.519509
H43	H	-0.172138	0.715426	0.000004
C44	C	-0.140874	1.035261	0.395495
H45	H	-0.236014	1.068469	0.356943
H46	H	-0.218188	1.004163	0.429604
H47	H	-0.066904	1.067546	0.429577
H48	H	-0.296103	0.349144	0.000002
C49	C	0.576306	0.697651	-0.000012
H50	H	0.541871	0.754157	-0.000021
H51	H	0.663282	0.678642	0.048409
H52	H	0.650208	0.683208	-0.048443
C53	C	-0.165658	1.043877	0.211953
H54	H	-0.250428	1.073449	0.250497
H55	H	-0.100931	1.079367	0.177843
H56	H	-0.252164	1.015967	0.177870
C57	C	-0.247558	1.072492	0.604466
H58	H	-0.332332	1.102066	0.643008
H59	H	-0.182827	1.107981	0.570356
H60	H	-0.334062	1.044581	0.570383
H61	H	-0.153114	0.564731	-0.000006
C62	C	-0.222804	1.063875	0.788009
H63	H	-0.317957	1.097077	0.749457
H64	H	-0.300099	1.032768	0.822116
H65	H	-0.148862	1.096167	0.822093
C66	C	-0.330330	0.188741	-0.000011
H67	H	-0.295903	0.132236	-0.000018
H68	H	-0.404257	0.203183	0.048410
H69	H	-0.417281	0.207754	-0.048443
H70	H	0.427277	0.836978	0.224468
C71	C	0.411524	0.842465	0.788050
H72	H	0.496242	0.812864	0.749511
H73	H	0.498082	0.870327	0.822157
H74	H	0.346652	0.806996	0.822136
C75	C	0.452354	0.331353	-0.000006
H76	H	0.571077	0.290204	0.000006
H77	H	0.449728	0.365728	-0.048427
H78	H	0.462744	0.361155	0.048426
C79	C	0.386866	0.851127	0.604507
H80	H	0.482038	0.817936	0.643060
H81	H	0.312938	0.818838	0.570421
H82	H	0.464171	0.882238	0.570400
H83	H	0.448663	0.829531	0.383043
H84	H	0.418133	0.170953	-0.000007
C85	C	0.598330	0.523205	-0.000009
H86	H	0.577892	0.468869	0.000000
H87	H	0.668816	0.535988	-0.048431
H88	H	0.681850	0.531425	0.048421
