data_functionalizedCrystal
_audit_creation_method	'MofGen! by Chris Wilmer'
_symmetry_space_group_name_H-M	'P1'
_symmetry_Int_Tables_number	1
_symmetry_cell_setting	triclinic
loop_
_symmetry_equiv_pos_as_xyz
  x,y,z
_cell_length_a	29.917948
_cell_length_b	29.917021
_cell_length_c	29.913391
_cell_angle_alpha	60.005297
_cell_angle_beta	60.010472
_cell_angle_gamma	59.993667
loop_
_atom_site_label
_atom_site_type_symbol
_atom_site_fract_x
_atom_site_fract_y
_atom_site_fract_z
O1	O	0.061938	-0.653075	0.546110
O2	O	0.561938	-0.153075	1.046110
O3	O	0.023328	-0.508466	0.440017
O4	O	0.523328	-0.008466	0.940017
O5	O	0.114898	-0.599963	0.439941
O6	O	0.614898	-0.099963	0.939941
O7	O	-0.029633	-0.561578	0.546186
O8	O	0.470367	-0.061578	1.046186
O9	O	0.145278	-0.569587	0.470242
O10	O	0.645278	-0.069587	0.970242
O11	O	0.053708	-0.478090	0.470318
O12	O	0.553708	0.021910	0.970318
O13	O	0.092318	-0.622699	0.576411
O14	O	0.592318	-0.122699	1.076411
Zn15	Zn	0.077836	-0.545572	0.528175
Zn16	Zn	0.577836	-0.045572	1.028175
Zn17	Zn	0.037809	-0.585593	0.488253
Zn18	Zn	0.537809	-0.085593	0.988253
O19	O	0.000747	-0.531202	0.576487
O20	O	0.500747	-0.031202	1.076487
N21	N	0.105154	-0.518262	0.555424
N22	N	0.605154	-0.018262	1.055424
N23	N	0.010496	-0.612908	0.461004
N24	N	0.510496	-0.112908	0.961004
C25	C	0.164136	-0.309209	0.614352
C26	C	0.664136	0.190791	1.114352
C27	C	0.164251	-0.459335	0.764424
C28	C	0.664251	0.040665	1.264424
C29	C	0.164150	-0.459313	0.614341
C30	C	0.664150	0.040687	1.114341
C31	C	0.314282	-0.459305	0.614278
C32	C	0.814282	0.040695	1.114278
C33	C	0.180666	-0.358742	0.630849
C34	C	0.680666	0.141258	1.130849
C35	C	0.180732	-0.442815	0.714891
C36	C	0.680732	0.057185	1.214891
C37	C	0.264747	-0.442797	0.630809
C38	C	0.764747	0.057203	1.130809
C39	C	0.180676	-0.442802	0.630843
C40	C	0.680676	0.057198	1.130843
C41	C	0.143097	-0.246161	0.593354
C42	C	0.643097	0.253839	1.093354
C43	C	0.143120	-0.480326	0.593337
C44	C	0.643120	0.019674	1.093337
C45	C	0.201706	-0.421790	0.651848
C46	C	0.701706	0.078210	1.151848
C47	C	0.405963	-0.443499	0.565998
C48	C	0.905963	0.056501	1.065998
C49	C	0.463273	-0.462598	0.546874
C50	C	0.963273	0.037402	1.046874
C51	C	0.463297	-0.555329	0.582235
C52	C	0.963297	-0.055329	1.082235
C53	C	0.405988	-0.536228	0.601360
C54	C	0.905988	-0.036228	1.101360
C55	C	0.156905	-0.217495	0.537012
C56	C	0.656905	0.282505	1.037012
C57	C	0.137776	-0.160180	0.517926
C58	C	0.637776	0.339820	1.017926
C59	C	0.091035	-0.160201	0.611524
C60	C	0.591035	0.339799	1.111524
C61	C	0.110164	-0.217516	0.630611
C62	C	0.610164	0.282484	1.130611
C63	C	0.086772	-0.466488	0.607209
C64	C	0.586772	0.033512	1.107209
C65	C	0.067659	-0.485590	0.588108
C66	C	0.567659	0.014410	1.088108
C67	C	0.161236	-0.532368	0.541277
C68	C	0.661236	-0.032368	1.041277
C69	C	0.180352	-0.513266	0.560371
C70	C	0.680352	-0.013266	1.060371
C71	C	0.086942	-0.466529	0.856152
C72	C	0.586942	0.033471	1.356152
C73	C	0.067877	-0.485647	0.913465
C74	C	0.567877	0.014353	1.413465
C75	C	0.161489	-0.532436	0.913415
C76	C	0.661489	-0.032436	1.413415
C77	C	0.180552	-0.513318	0.856101
C78	C	0.680552	-0.013318	1.356101
C79	C	0.143277	-0.480363	0.827471
C80	C	0.643277	0.019637	1.327471
C81	C	0.377323	-0.480313	0.593239
C82	C	0.877323	0.019687	1.093239
C83	C	-0.111377	-0.650681	0.422736
C84	C	0.388623	-0.150681	0.922736
C85	C	-0.027364	-0.650787	0.422929
C86	C	0.472636	-0.150787	0.922929
C87	C	-0.048335	-0.671770	0.401835
C88	C	0.451665	-0.171770	0.901835
C89	C	-0.064214	-0.763416	0.450041
C90	C	0.435786	-0.263416	0.950041
C91	C	-0.045160	-0.820731	0.469172
C92	C	0.454840	-0.320731	0.969172
C93	C	0.047573	-0.820841	0.433980
C94	C	0.547573	-0.320841	0.933980
C95	C	0.028517	-0.763527	0.414847
C96	C	0.528517	-0.263527	0.914847
C97	C	-0.140115	-0.664483	0.479060
C98	C	0.359885	-0.164483	0.979060
C99	C	-0.197425	-0.645309	0.498058
C100	C	0.302575	-0.145309	0.998058
C101	C	-0.197256	-0.598535	0.404405
C102	C	0.302744	-0.098535	0.904405
C103	C	-0.139946	-0.617709	0.385407
C104	C	0.360054	-0.117709	0.885407
C105	C	-0.041168	-0.594444	0.409067
C106	C	0.458832	-0.094444	0.909067
C107	C	-0.022104	-0.575374	0.428250
C108	C	0.477896	-0.075374	0.928250
C109	C	0.024568	-0.668986	0.475143
C110	C	0.524568	-0.168986	0.975143
C111	C	0.005504	-0.688059	0.455967
C112	C	0.505504	-0.188059	0.955967
C113	C	-0.041000	-0.594453	0.310105
C114	C	0.459000	-0.094453	0.810105
C115	C	-0.021803	-0.575386	0.252792
C116	C	0.478197	-0.075386	0.752792
C117	C	0.024951	-0.669004	0.252854
C118	C	0.524951	-0.169004	0.752854
C119	C	0.005755	-0.688070	0.310168
C120	C	0.505755	-0.188070	0.810168
C121	C	-0.027222	-0.650793	0.338792
C122	C	0.472778	-0.150793	0.838792
C123	C	-0.027377	-0.734817	0.422881
C124	C	0.472623	-0.234817	0.922881
N125	N	0.491125	-0.518235	0.555255
N126	N	0.991125	-0.018235	1.055255
O127	O	0.678406	-0.527360	0.420422
O128	O	1.178406	-0.027360	0.920422
O129	O	0.678588	-0.633782	0.564887
O130	O	1.178588	-0.133782	1.064887
O131	O	0.678516	-0.633539	0.473265
O132	O	1.178516	-0.133539	0.973265
O133	O	0.678478	-0.527602	0.512044
O134	O	1.178478	-0.027602	1.012044
O135	O	0.587469	-0.603251	0.503685
O136	O	1.087469	-0.103251	1.003685
O137	O	0.587541	-0.603493	0.595307
O138	O	1.087541	-0.103493	1.095307
O139	O	0.587359	-0.497071	0.450842
O140	O	1.087359	0.002929	0.950842
Zn141	Zn	0.572994	-0.545473	0.527905
Zn142	Zn	1.072994	-0.045473	1.027905
Zn143	Zn	0.692953	-0.585380	0.487825
Zn144	Zn	1.192953	-0.085380	0.987825
O145	O	0.587431	-0.497313	0.542465
O146	O	1.087431	0.002687	1.042465
N147	N	0.774821	-0.612618	0.460470
N148	N	1.274821	-0.112618	0.960470
N149	N	0.105125	-0.132348	0.555445
N150	N	0.605125	0.367652	1.055445
O151	O	-0.029633	0.055031	0.546198
O152	O	0.470367	0.555031	1.046198
O153	O	0.114837	0.055047	0.439777
O154	O	0.614837	0.555047	0.939777
O155	O	0.023189	0.055024	0.440050
O156	O	0.523189	0.555024	0.940050
O157	O	0.062016	0.055054	0.545925
O158	O	0.562016	0.555054	1.045925
O159	O	0.053572	-0.036031	0.470398
O160	O	0.553572	0.463969	0.970398
O161	O	0.145220	-0.036008	0.470125
O162	O	0.645220	0.463992	0.970125
O163	O	0.000750	-0.036024	0.576546
O164	O	0.500750	0.463976	1.076546
Zn165	Zn	0.077809	-0.050473	0.528154
Zn166	Zn	0.577809	0.449527	1.028154
Zn167	Zn	0.037778	0.069496	0.488169
Zn168	Zn	0.537778	0.569496	0.988169
O169	O	0.092399	-0.036001	0.576273
O170	O	0.592399	0.463999	1.076273
N171	N	0.010456	0.151371	0.460879
N172	N	0.510456	0.651371	0.960879
N173	N	0.105414	-0.518315	0.941279
N174	N	0.605414	-0.018315	1.441279
O175	O	0.096182	-0.653057	1.128644
O176	O	0.596182	-0.153057	1.628644
O177	O	-0.010215	-0.508539	1.128670
O178	O	0.489785	-0.008539	1.628670
O179	O	-0.009968	-0.600172	1.128636
O180	O	0.490032	-0.100172	1.628636
O181	O	0.095935	-0.561424	1.128678
O182	O	0.595935	-0.061424	1.628678
O183	O	0.020367	-0.569808	1.037586
O184	O	0.520367	-0.069808	1.537586
O185	O	0.020121	-0.478175	1.037620
O186	O	0.520121	0.021825	1.537620
O187	O	0.126517	-0.622693	1.037594
O188	O	0.626517	-0.122693	1.537594
Zn189	Zn	0.078135	-0.545613	1.023151
Zn190	Zn	0.578135	-0.045613	1.523151
Zn191	Zn	0.038167	-0.585619	1.143113
Zn192	Zn	0.538167	-0.085619	1.643113
O193	O	0.126270	-0.531061	1.037628
O194	O	0.626270	-0.031061	1.537628
N195	N	0.010887	-0.612923	1.224985
N196	N	0.510887	-0.112923	1.724985
C197	C	0.034899	-0.475056	0.440551
C198	C	0.534899	0.024944	0.940551
C199	C	0.148298	-0.588365	0.440456
C200	C	0.648298	-0.088365	0.940456
C201	C	0.080746	-0.656109	0.575876
C202	C	0.580746	-0.156109	1.075876
C203	C	-0.032653	-0.542801	0.575971
C204	C	0.467347	-0.042801	1.075971
C205	C	0.633086	-0.633292	0.598298
C206	C	1.133086	-0.133292	1.098298
C207	C	0.632998	-0.632993	0.484834
C208	C	1.132998	-0.132993	0.984834
C209	C	0.632857	-0.497559	0.417433
C210	C	1.132857	0.002441	0.917433
C211	C	0.632949	-0.497860	0.530895
C212	C	1.132949	0.002140	1.030895
C213	C	0.148191	0.009634	0.440259
C214	C	0.648191	0.509634	0.940259
C215	C	0.034733	0.009493	0.440634
C216	C	0.534733	0.509493	0.940634
C217	C	-0.032641	0.009502	0.576027
C218	C	0.467359	0.509502	1.076027
C219	C	0.080854	0.009529	0.575690
C220	C	0.580854	0.509529	1.075690
C221	C	-0.009699	-0.475150	1.083148
C222	C	0.490301	0.024850	1.583148
C223	C	-0.009388	-0.588620	1.083088
C224	C	0.490612	-0.088620	1.583088
C225	C	0.126001	-0.656082	1.083116
C226	C	0.626001	-0.156082	1.583116
C227	C	0.125697	-0.542605	1.083155
C228	C	0.625697	-0.042605	1.583155
H229	H	0.022003	-0.474373	0.936811
H230	H	0.522003	0.025627	1.436811
O231	O	0.024903	0.009508	0.400882
O232	O	0.524903	0.509508	0.900882
C233	C	0.071902	0.009497	0.353636
C234	C	0.571902	0.509497	0.853636
H235	H	0.098048	0.026743	0.354088
H236	H	0.598048	0.526743	0.854088
H237	H	0.059046	0.035926	0.315634
H238	H	0.559046	0.535926	0.815634
H239	H	0.096616	-0.034188	0.352981
H240	H	0.596616	0.465812	0.852981
O241	O	0.633111	-0.672747	0.474932
O242	O	1.133111	-0.172747	0.974932
C243	C	0.680294	-0.718897	0.480988
C244	C	1.180294	-0.218897	0.980988
H245	H	0.713242	-0.705768	0.475037
H246	H	1.213242	-0.205768	0.975037
H247	H	0.696108	-0.738311	0.449090
H248	H	1.196108	-0.238311	0.949090
H249	H	0.669684	-0.749929	0.523733
H250	H	1.169684	-0.249929	1.023733
H251	H	0.632798	-0.464146	0.375944
H252	H	1.132798	0.035854	0.875944
O253	O	-0.049500	-0.425613	1.083180
O254	O	0.450500	0.074387	1.583180
C255	C	-0.029790	-0.391543	1.083183
C256	C	0.470210	0.108457	1.583183
H257	H	0.005356	-0.417872	1.100423
H258	H	0.505356	0.082128	1.600423
H259	H	-0.064193	-0.365313	1.109623
H260	H	0.435807	0.134687	1.609623
H261	H	-0.014595	-0.363893	1.039506
H262	H	0.485405	0.136107	1.539506
O263	O	-0.082179	0.009531	0.615816
O264	O	0.417821	0.509531	1.115816
C265	C	-0.116260	0.009509	0.596128
C266	C	0.383740	0.509509	1.096128
H267	H	-0.101449	0.026736	0.549494
H268	H	0.398551	0.526736	1.049494
H269	H	-0.160111	0.035951	0.612910
H270	H	0.339889	0.535951	1.112910
H271	H	-0.114781	-0.034176	0.610058
H272	H	0.385219	0.465824	1.110058
O273	O	0.025005	-0.425525	0.400781
O274	O	0.525005	0.074475	0.900781
C275	C	-0.019331	-0.415751	0.388194
C276	C	0.480669	0.084249	0.888194
H277	H	-0.023683	-0.456417	0.400272
H278	H	0.476317	0.043583	0.900272
H279	H	-0.011585	-0.393546	0.342376
H280	H	0.488415	0.106454	0.842376
H281	H	-0.058574	-0.389386	0.411755
H282	H	0.441426	0.110614	0.911755
H283	H	-0.042644	-0.596897	1.083039
H284	H	0.457356	-0.096897	1.583039
O285	O	0.165872	-0.705599	1.083180
O286	O	0.665872	-0.205599	1.583180
C287	C	0.180564	-0.729845	1.130347
C288	C	0.680564	-0.229845	1.630347
H289	H	0.169468	-0.696649	1.146083
H290	H	0.669468	-0.196649	1.646083
H291	H	0.226517	-0.752776	1.119742
H292	H	0.726517	-0.252776	1.619742
H293	H	0.157590	-0.759717	1.163356
H294	H	0.657590	-0.259717	1.663356
O295	O	0.165406	-0.532660	1.083065
O296	O	0.665406	-0.032660	1.583065
C297	C	0.177958	-0.488317	1.035924
C298	C	0.677958	0.011683	1.535924
H299	H	0.165926	-0.484002	1.002960
H300	H	0.665926	0.015998	1.502960
H301	H	0.223761	-0.496030	1.020095
H302	H	0.723761	0.003970	1.520095
H303	H	0.154336	-0.449063	1.046595
H304	H	0.654336	0.050937	1.546595
O305	O	0.050656	-0.434539	0.828428
O306	O	0.550656	0.065461	1.328428
C307	C	-0.003155	-0.426416	0.866034
C308	C	0.496845	0.073584	1.366034
H309	H	-0.003021	-0.460977	0.906879
H310	H	0.496979	0.039023	1.406879
H311	H	-0.030383	-0.426112	0.849492
H312	H	0.469617	0.073888	1.349492
H313	H	-0.019574	-0.385590	0.872141
H314	H	0.480426	0.114410	1.372141
H315	H	0.633132	-0.666701	0.639790
H316	H	1.133132	-0.166701	1.139790
O317	O	0.197780	-0.598039	0.400583
O318	O	0.697780	-0.098039	0.900583
C319	C	0.197828	-0.550950	0.353417
C320	C	0.697828	-0.050950	0.853417
H321	H	0.153928	-0.524876	0.354014
H322	H	0.653928	-0.024876	0.854014
H323	H	0.222171	-0.563694	0.315352
H324	H	0.722171	-0.063694	0.815352
H325	H	0.217424	-0.526203	0.352744
H326	H	0.717424	-0.026203	0.852744
O327	O	0.090869	0.009504	0.615324
O328	O	0.590869	0.509504	1.115324
C329	C	0.144679	0.009523	0.595367
C330	C	0.644679	0.509523	1.095367
H331	H	0.170564	-0.007708	0.560219
H332	H	0.670564	0.492292	1.060219
H333	H	0.163121	-0.016915	0.629646
H334	H	0.663121	0.483085	1.129646
H335	H	0.143865	0.053208	0.580100
H336	H	0.643865	0.553208	1.080100
H337	H	-0.074166	-0.534620	0.609333
H338	H	0.425834	-0.034620	1.109333
H339	H	0.632941	-0.464583	0.539193
H340	H	1.132941	0.035417	1.039193
H341	H	0.226428	-0.524588	0.832752
H342	H	0.726428	-0.024588	1.332752
O343	O	0.197717	-0.564521	0.941205
O344	O	0.697717	-0.064521	1.441205
C345	C	0.230861	-0.612577	0.927170
C346	C	0.730861	-0.112577	1.427170
H347	H	0.208720	-0.620542	0.911422
H348	H	0.708720	-0.120542	1.411422
H349	H	0.239552	-0.648687	0.964849
H350	H	0.739552	-0.148687	1.464849
H351	H	0.271113	-0.607364	0.893892
H352	H	0.771113	-0.107364	1.393892
O353	O	0.050530	-0.434472	0.639201
O354	O	0.550530	0.065528	1.139201
C355	C	-0.003302	-0.426364	0.647353
C356	C	0.496698	0.073636	1.147353
H357	H	-0.003221	-0.432761	0.612803
H358	H	0.496779	0.067239	1.112803
H359	H	-0.030517	-0.382897	0.647666
H360	H	0.469483	0.117103	1.147666
H361	H	-0.019698	-0.456874	0.688181
H362	H	0.480302	0.043126	1.188181
O363	O	0.012936	-0.472249	0.601601
O364	O	0.512936	0.027751	1.101601
C365	C	-0.000887	-0.520413	0.630455
C366	C	0.499113	-0.020413	1.130455
H367	H	0.036887	-0.556417	0.620094
H368	H	0.536887	-0.056417	1.120094
H369	H	-0.034135	-0.515288	0.618274
H370	H	0.465865	-0.015288	1.118274
H371	H	-0.016592	-0.528480	0.676327
H372	H	0.483408	-0.028480	1.176327
H373	H	0.191560	-0.559196	0.514439
H374	H	0.691560	-0.059196	1.014439
O375	O	0.197539	0.010009	0.400230
O376	O	0.697539	0.510009	0.900230
C377	C	0.190040	0.057270	0.354254
C378	C	0.690040	0.557270	0.854254
H379	H	0.146332	0.072811	0.355005
H380	H	0.646332	0.572811	0.855005
H381	H	0.219998	0.046865	0.315261
H382	H	0.719998	0.546865	0.815261
H383	H	0.197724	0.090351	0.355316
H384	H	0.697724	0.590351	0.855316
O385	O	0.235106	-0.526769	0.546859
O386	O	0.735106	-0.026769	1.046859
C387	C	0.263869	-0.559923	0.513652
C388	C	0.763869	-0.059923	1.013652
H389	H	0.236542	-0.580770	0.520981
H390	H	0.736542	-0.080770	1.020981
H391	H	0.302140	-0.592342	0.524360
H392	H	0.802140	-0.092342	1.024360
H393	H	0.276182	-0.533467	0.468763
H394	H	0.776182	-0.033467	0.968763
H395	H	0.382671	-0.566208	0.623544
H396	H	0.882671	-0.066208	1.123544
O397	O	0.090663	-0.705704	0.615562
O398	O	0.590663	-0.205704	1.115562
C399	C	0.144469	-0.739658	0.595703
C400	C	0.644469	-0.239658	1.095703
H401	H	0.158908	-0.724739	0.549071
H402	H	0.658908	-0.224739	1.049071
H403	H	0.145213	-0.783541	0.612425
H404	H	0.645213	-0.283541	1.112425
H405	H	0.172792	-0.738149	0.609554
H406	H	0.672792	-0.238149	1.109554
H407	H	0.486634	-0.600858	0.588843
H408	H	0.986634	-0.100858	1.088843
H409	H	0.382624	-0.397967	0.559385
H410	H	0.882624	0.102033	1.059385
O411	O	0.491014	-0.426760	0.520398
O412	O	0.991014	0.073240	1.020398
C413	C	0.453425	-0.373312	0.517343
C414	C	0.953425	0.126688	1.017343
H415	H	0.412564	-0.371080	0.521117
H416	H	0.912564	0.128920	1.021117
H417	H	0.469962	-0.343023	0.476377
H418	H	0.969962	0.156977	0.976377
H419	H	0.447355	-0.362613	0.552061
H420	H	0.947355	0.137387	1.052061
H421	H	0.183721	-0.240813	0.506671
H422	H	0.683721	0.259187	1.006671
H423	H	0.149018	-0.136838	0.472047
H424	H	0.649018	0.363162	0.972047
H425	H	0.098918	-0.240852	0.676488
H426	H	0.598918	0.259148	1.176488
O427	O	0.059114	-0.132435	0.647769
O428	O	0.559114	0.367565	1.147769
C429	C	0.088092	-0.146432	0.680871
C430	C	0.588092	0.353568	1.180871
H431	H	0.121464	-0.188040	0.681412
H432	H	0.621464	0.311960	1.181412
H433	H	0.058713	-0.148407	0.724343
H434	H	0.558713	0.351593	1.224343
H435	H	0.107530	-0.114168	0.663625
H436	H	0.607530	0.385832	1.163625
O437	O	-0.035267	-0.520635	0.225015
O438	O	0.464733	-0.020635	0.725015
C439	C	-0.068479	-0.491827	0.262573
C440	C	0.431521	0.008173	0.762573
H441	H	-0.089371	-0.519127	0.303403
H442	H	0.410629	-0.019127	0.803403
H443	H	-0.100858	-0.453557	0.245945
H444	H	0.399142	0.046443	0.745945
H445	H	-0.042065	-0.479500	0.268739
H446	H	0.457935	0.020500	0.768739
H447	H	0.051792	-0.699362	0.229554
H448	H	0.551792	-0.199362	0.729554
O449	O	0.019170	-0.742821	0.337949
O450	O	0.519170	-0.242821	0.837949
C451	C	0.052399	-0.771630	0.300392
C452	C	0.552399	-0.271630	0.800392
H453	H	0.045163	-0.744297	0.259497
H454	H	0.545163	-0.244297	0.759497
H455	H	0.041628	-0.809849	0.316922
H456	H	0.541628	-0.309849	0.816922
H457	H	0.097275	-0.784042	0.294389
H458	H	0.597275	-0.284042	0.794389
H459	H	-0.067855	-0.564093	0.333408
H460	H	0.432145	-0.064093	0.833408
H461	H	-0.033345	-0.529494	0.416965
H462	H	0.466655	-0.029494	0.916965
O463	O	-0.073111	-0.558164	0.377003
O464	O	0.426889	-0.058164	0.877003
C465	C	-0.081197	-0.504345	0.368876
C466	C	0.418803	-0.004345	0.868876
H467	H	-0.074858	-0.504454	0.403478
H468	H	0.425142	-0.004454	0.903478
H469	H	-0.124636	-0.477092	0.368491
H470	H	0.375364	0.022908	0.868491
H471	H	-0.050638	-0.487969	0.328090
H472	H	0.449362	0.012031	0.828090
H473	H	-0.109727	-0.740044	0.456586
H474	H	0.390273	-0.240044	0.956586
O475	O	0.056553	-0.705246	0.507168
O476	O	0.556553	-0.205246	1.007168
C477	C	0.104644	-0.738421	0.478288
C478	C	0.604644	-0.238421	0.978288
H479	H	0.097017	-0.738973	0.444875
H480	H	0.597017	-0.238973	0.944875
H481	H	0.116671	-0.781884	0.507727
H482	H	0.616671	-0.281884	1.007727
H483	H	0.139131	-0.721234	0.458909
H484	H	0.639131	-0.221234	0.958909
O485	O	0.018888	-0.742801	0.469505
O486	O	0.518888	-0.242801	0.969505
C487	C	-0.000809	-0.766592	0.526902
C488	C	0.499191	-0.266592	1.026902
H489	H	-0.006450	-0.739442	0.547004
H490	H	0.493550	-0.239442	1.047004
H491	H	0.029862	-0.808776	0.540341
H492	H	0.529862	-0.308776	1.040341
H493	H	-0.041768	-0.770795	0.539773
H494	H	0.458232	-0.270795	1.039773
H495	H	0.058518	-0.740243	0.392731
H496	H	0.558518	-0.240243	0.892731
H497	H	0.093086	-0.844219	0.427442
H498	H	0.593086	-0.344219	0.927442
H499	H	-0.116855	-0.691337	0.509456
H500	H	0.383145	-0.191337	1.009456
O501	O	-0.081029	-0.848429	0.495630
O502	O	0.418971	-0.348429	0.995630
C503	C	-0.134453	-0.810798	0.498641
C504	C	0.365547	-0.310798	0.998641
H505	H	-0.136642	-0.769937	0.494826
H506	H	0.363358	-0.269937	0.994826
H507	H	-0.164765	-0.827289	0.539608
H508	H	0.335235	-0.327289	1.039608
H509	H	-0.145151	-0.804738	0.463926
H510	H	0.354849	-0.304738	0.963926
H511	H	-0.220518	-0.571693	0.374008
H512	H	0.279482	-0.071693	0.874008
O513	O	-0.225260	-0.658790	0.552793
O514	O	0.274740	-0.158790	1.052793
C515	C	-0.187755	-0.691994	0.581666
C516	C	0.312245	-0.191994	1.081666
H517	H	-0.146878	-0.712869	0.554385
H518	H	0.353122	-0.212869	1.054385
H519	H	-0.204375	-0.724391	0.619888
H520	H	0.295625	-0.224391	1.119888
H521	H	-0.181684	-0.665574	0.594071
H522	H	0.318316	-0.165574	1.094071
H523	H	-0.116547	-0.606465	0.339541
H524	H	0.383453	-0.106465	0.839541
