data_functionalizedCrystal
_audit_creation_method	'MofGen! by Chris Wilmer'
_symmetry_space_group_name_H-M	'P1'
_symmetry_Int_Tables_number	1
_symmetry_cell_setting	triclinic
loop_
_symmetry_equiv_pos_as_xyz
  x,y,z
_cell_length_a	10.654545
_cell_length_b	9.065215
_cell_length_c	9.730223
_cell_angle_alpha	89.996553
_cell_angle_beta	89.997167
_cell_angle_gamma	84.748888
loop_
_atom_site_label
_atom_site_type_symbol
_atom_site_fract_x
_atom_site_fract_y
_atom_site_fract_z
O1	O	1.668661	0.207203	-0.114273
O2	O	1.303260	0.226954	-0.114279
O3	O	1.493515	0.002394	-0.114270
O4	O	1.478406	0.431763	-0.114282
O5	O	1.493503	0.002388	0.114310
O6	O	1.303248	0.226948	0.114301
O7	O	1.668649	0.207197	0.114307
Zn8	Zn	1.485946	0.217071	0.150596
Zn9	Zn	1.485963	0.217080	-0.150568
O10	O	1.478394	0.431757	0.114298
C11	C	1.256450	0.225502	0.000011
C12	C	1.116989	0.221167	0.000009
C13	C	1.051470	0.219124	0.124608
C14	C	0.920434	0.215026	0.124609
C15	C	0.920448	0.215023	-0.124602
C16	C	1.051483	0.219110	-0.124601
C17	C	1.492058	-0.052587	0.000019
C18	C	1.487718	-0.216407	0.000014
C19	C	1.715459	0.208649	0.000014
C20	C	1.854919	0.212984	0.000007
C21	C	1.479851	0.486738	0.000006
C22	C	1.484190	0.650558	0.000002
N23	N	1.485944	0.217065	0.356132
N24	N	1.485974	0.217074	-0.356104
C25	C	1.570219	0.117672	0.428062
C26	C	1.570231	0.117673	0.571945
C27	C	1.401691	0.316472	0.571956
C28	C	1.401673	0.316463	0.428076
H29	H	0.867097	0.213349	-0.226054
H30	H	1.638853	0.036737	0.630506
O31	O	1.114918	0.221035	0.245771
C32	C	1.028980	0.218385	0.355744
H33	H	0.940249	0.168846	0.319212
H34	H	1.003203	0.336109	0.394057
C35	C	1.198771	0.184226	0.518338
C36	C	1.089794	0.123371	0.473471
H37	H	1.236284	0.125624	0.590961
H38	H	1.256670	0.186017	0.444249
H39	H	1.177274	0.282328	0.550256
H40	H	1.111294	0.025278	0.441538
H41	H	1.031899	0.121561	0.547559
O42	O	1.652113	0.020970	0.358388
C43	C	1.726517	-0.066731	0.452737
H44	H	1.675018	-0.068951	0.555310
H45	H	1.820359	-0.017805	0.468015
C46	C	1.813847	-0.222900	0.270619
C47	C	1.750590	-0.225636	0.396597
H48	H	1.828702	-0.320919	0.235988
H49	H	1.763724	-0.163811	0.207053
H50	H	1.892042	-0.182121	0.283367
H51	H	1.672391	-0.266397	0.383844
H52	H	1.800701	-0.284736	0.460160
O53	O	1.319964	0.412977	0.642057
C54	C	1.338029	0.391653	0.784475
H55	H	1.437258	0.337597	0.804111
H56	H	1.266111	0.316878	0.825333
C57	C	1.198997	0.608783	0.834209
C58	C	1.320876	0.542402	0.858327
H59	H	1.188410	0.701770	0.879767
H60	H	1.186821	0.623147	0.738260
H61	H	1.139079	0.546455	0.868258
H62	H	1.380790	0.604720	0.824264
H63	H	1.333061	0.528051	0.954273
O64	O	0.856629	0.213232	0.245555
C65	C	0.768064	0.338438	0.253022
H66	H	0.744177	0.380355	0.144836
H67	H	0.809603	0.429338	0.314511
C68	C	0.676815	0.244311	0.457134
C69	C	0.647469	0.295786	0.324257
H70	H	0.602428	0.218005	0.501081
H71	H	0.736486	0.159959	0.452108
H72	H	0.711433	0.320070	0.508358
H73	H	0.612867	0.220022	0.273031
H74	H	0.587789	0.380124	0.329276
H75	H	1.104830	0.220770	-0.226071
O76	O	1.319760	0.413162	0.358407
C77	C	1.245370	0.500879	0.452755
H78	H	1.296889	0.503124	0.555308
H79	H	1.151534	0.451949	0.468082
C80	C	1.157996	0.657005	0.270620
C81	C	1.221278	0.659772	0.396575
H82	H	1.143129	0.755016	0.235964
H83	H	1.208110	0.597906	0.207054
H84	H	1.079807	0.616222	0.283410
H85	H	1.299472	0.700536	0.383780
H86	H	1.171177	0.718881	0.460137
