data_functionalizedCrystal
_audit_creation_method	'MofGen! by Chris Wilmer'
_symmetry_space_group_name_H-M	'P1'
_symmetry_Int_Tables_number	1
_symmetry_cell_setting	triclinic
loop_
_symmetry_equiv_pos_as_xyz
  x,y,z
_cell_length_a	16.974800
_cell_length_b	10.654554
_cell_length_c	16.053802
_cell_angle_alpha	92.593619
_cell_angle_beta	91.074188
_cell_angle_gamma	83.937091
loop_
_atom_site_label
_atom_site_type_symbol
_atom_site_fract_x
_atom_site_fract_y
_atom_site_fract_z
O1	O	1.049954	0.160086	0.001546
O2	O	0.820597	0.179310	-0.013958
O3	O	0.940547	-0.013096	-0.005850
O4	O	0.930004	0.352493	-0.006561
O5	O	0.933944	-0.002550	0.132562
O6	O	0.813995	0.189857	0.124455
O7	O	1.043351	0.170633	0.139959
Zn8	Zn	0.927625	0.181919	0.154183
Zn9	Zn	0.936324	0.168023	-0.028182
O10	O	0.923402	0.363039	0.131851
C11	C	0.787928	0.183659	0.053263
C12	C	0.700420	0.180890	0.047348
C13	C	0.655714	0.185335	0.120019
C14	C	0.573493	0.182713	0.114463
C15	C	0.535978	0.175655	0.036235
C16	C	0.580690	0.171206	-0.036442
C17	C	0.662911	0.173819	-0.030885
C18	C	0.290461	0.167216	0.011526
C19	C	0.208234	0.164607	0.005975
C20	C	0.201043	0.176112	0.156880
C21	C	0.283265	0.178732	0.162430
C22	C	0.327970	0.174276	0.089753
N23	N	0.451934	0.172979	0.030554
N24	N	0.412013	0.176943	0.095435
C25	C	0.936471	-0.054613	0.063302
C26	C	0.934153	-0.194032	0.063139
C27	C	0.859169	-0.375802	0.058081
C28	C	0.861347	-0.244804	0.058220
C29	C	1.004786	-0.274266	0.067911
C30	C	1.002607	-0.405262	0.067766
C31	C	0.786357	-0.426566	0.053169
C32	C	0.715724	-0.346341	0.048396
C33	C	0.717902	-0.215343	0.048535
C34	C	0.790714	-0.164570	0.053447
C35	C	1.076021	0.166283	0.072736
C36	C	1.163529	0.169052	0.078646
C37	C	0.927478	0.404556	0.062698
C38	C	0.929796	0.543974	0.062855
N39	N	0.921693	0.191402	0.278642
N40	N	0.942261	0.158531	-0.152641
C41	C	0.972751	0.109562	0.325787
C42	C	0.968610	0.116208	0.412914
C43	C	0.913414	0.204700	0.452895
C44	C	0.862350	0.286544	0.405743
C45	C	0.866489	0.279891	0.318618
C46	C	0.895337	0.233722	0.713082
C47	C	0.891204	0.240371	0.800214
C48	C	0.997462	0.070032	0.807379
C49	C	1.001599	0.063393	0.720252
C50	C	0.950533	0.145232	0.673108
N51	N	0.909181	0.211497	0.541952
N52	N	0.954763	0.138428	0.584052
H53	H	0.164635	0.179738	0.216050
H54	H	0.660389	-0.150028	0.044640
H55	H	1.017701	0.037508	0.293241
H56	H	0.784576	-0.533230	0.053057
H57	H	0.313804	0.184473	0.226132
N58	N	1.052532	-0.018243	0.858224
H59	H	1.109266	-0.004697	0.846833
H60	H	1.041470	-0.000561	0.919465
H61	H	0.817405	0.358592	0.438300
N62	N	0.831665	0.335807	0.843346
H63	H	0.860371	0.394300	0.881537
H64	H	0.799953	0.386557	0.800215
N65	N	1.023686	0.027963	0.463774
H66	H	1.057111	0.078890	0.502284
H67	H	0.991500	-0.024996	0.497829
N68	N	0.167781	0.156980	-0.078409
H69	H	0.139792	0.077863	-0.083669
H70	H	0.127903	0.233477	-0.084437
N71	N	1.061135	-0.032052	0.677136
H72	H	1.116426	-0.016185	0.696077
H73	H	1.050786	-0.120026	0.691675
N74	N	0.711130	0.169036	-0.109268
H75	H	0.768908	0.171758	-0.093878
H76	H	0.704294	0.088286	-0.142783
N77	N	1.083311	-0.219503	0.073226
H78	H	1.127725	-0.290203	0.076229
H79	H	1.089789	-0.169702	0.022188
N80	N	0.637196	-0.401096	0.043087
H81	H	0.646531	-0.496254	0.043725
H82	H	0.603811	-0.367848	0.092306
N83	N	0.793066	-0.023281	0.053586
H84	H	0.737275	0.019840	0.049811
H85	H	0.819336	0.006304	0.106836
H86	H	1.060119	-0.470583	0.071649
H87	H	0.853758	0.300361	0.674705
H88	H	0.537098	0.186312	0.173640
N89	N	0.811416	0.368154	0.267764
H90	H	0.775821	0.425224	0.306310
H91	H	0.843604	0.421044	0.233660
H92	H	0.326851	0.163583	-0.047653
N93	N	0.696173	0.192961	0.204395
H94	H	0.655373	0.195377	0.249588
H95	H	0.736098	0.116516	0.210392
H96	H	0.550140	0.165450	-0.100137
