data_functionalizedCrystal
_audit_creation_method	'MofGen! by Chris Wilmer'
_symmetry_space_group_name_H-M	'P1'
_symmetry_Int_Tables_number	1
_symmetry_cell_setting	triclinic
loop_
_symmetry_equiv_pos_as_xyz
  x,y,z
_cell_length_a	14.044220
_cell_length_b	19.188930
_cell_length_c	13.101039
_cell_angle_alpha	93.345801
_cell_angle_beta	86.340132
_cell_angle_gamma	88.166830
loop_
_atom_site_label
_atom_site_type_symbol
_atom_site_fract_x
_atom_site_fract_y
_atom_site_fract_z
O1	O	1.262233	0.164759	-0.085127
O2	O	0.986290	0.158685	-0.085152
O3	O	1.132223	0.060581	-0.085119
O4	O	1.116300	0.262863	-0.085160
O5	O	1.121753	0.067633	0.085309
O6	O	0.975820	0.165737	0.085275
O7	O	1.251762	0.171810	0.085300
Zn8	Zn	1.112128	0.169893	0.112347
Zn9	Zn	1.125924	0.160602	-0.112199
O10	O	1.105829	0.269914	0.085267
C11	C	0.945752	0.159553	0.000059
C12	C	0.840559	0.151623	0.000050
C13	C	0.647957	0.137129	0.000073
C14	C	0.590091	0.193363	0.000066
C15	C	0.482920	0.185298	0.000079
C16	C	0.755137	0.145193	0.000060
C17	C	1.126472	0.038063	0.000098
C18	C	1.124923	-0.039541	0.000106
C19	C	1.210553	-0.078939	0.000119
C20	C	1.209099	-0.151857	0.000103
C21	C	1.122010	-0.185374	0.000094
C22	C	1.036370	-0.145968	0.000075
C23	C	1.037827	-0.073051	0.000082
N24	N	1.051878	-0.295275	0.058088
N25	N	1.050500	-0.364543	0.058084
C26	C	1.117617	-0.405067	0.000073
N27	N	1.186177	-0.373707	-0.057921
N28	N	1.187558	-0.304433	-0.057913
C29	C	1.120421	-0.264440	0.000086
C30	C	1.201676	-0.523532	0.000066
C31	C	1.200219	-0.596452	0.000043
C32	C	1.027487	-0.590560	0.000026
C33	C	1.028947	-0.517642	0.000039
C34	C	1.116043	-0.484132	0.000064
C35	C	1.292301	0.170943	0.000087
C36	C	1.397494	0.178872	0.000089
C37	C	1.111580	0.292433	0.000048
C38	C	1.113129	0.370037	0.000033
N39	N	1.102720	0.176234	0.265593
N40	N	1.135340	0.154257	-0.265445
C41	C	1.089920	0.184867	0.474633
C42	C	1.148137	0.145626	0.525522
C43	C	1.141014	0.150429	0.641839
C44	C	1.097041	0.180064	0.358306
H45	H	0.617011	0.082932	0.000090
C46	C	1.381142	-0.092092	0.000140
C47	C	1.306289	-0.042107	0.000135
H48	H	1.440245	-0.069351	0.000142
H49	H	1.373328	-0.117956	0.059566
H50	H	1.380627	-0.122863	-0.059298
H51	H	1.306800	-0.011338	0.059577
H52	H	1.314106	-0.016231	-0.059297
C53	C	1.313056	-0.240895	-0.087488
C54	C	1.303228	-0.195175	0.000123
H55	H	1.371170	-0.267633	-0.087475
H56	H	1.260983	-0.271284	-0.087494
H57	H	1.313696	-0.214773	-0.146913
H58	H	1.302581	-0.221298	0.059548
H59	H	1.355315	-0.164783	0.000138
H60	H	0.959218	-0.485564	0.000034
C61	C	1.022712	0.230193	0.639194
C62	C	1.015428	0.235095	0.533739
H63	H	0.976729	0.261206	0.675690
H64	H	1.011440	0.183696	0.656718
H65	H	1.084905	0.242365	0.656694
H66	H	0.953237	0.222917	0.516238
H67	H	1.026693	0.281602	0.516208
H68	H	0.968095	-0.040974	0.000072
C69	C	0.957443	-0.255128	0.000074
C70	C	0.940640	-0.182807	0.000070
H71	H	0.898339	-0.277868	0.000074
H72	H	0.996334	-0.270736	-0.059350
H73	H	0.989038	-0.265827	0.059514
H74	H	0.909051	-0.172107	-0.059374
H75	H	0.901733	-0.167193	0.059501
C76	C	0.856900	-0.577408	0.000006
C77	C	0.931755	-0.627392	0.000013
H78	H	0.797799	-0.600151	-0.000011
H79	H	0.857408	-0.546643	0.059439
H80	H	0.864721	-0.551539	-0.059425
H81	H	0.923938	-0.653258	0.059448
H82	H	0.931246	-0.658170	-0.059426
H83	H	0.621038	0.247564	0.000050
C84	C	1.354723	-0.509705	-0.087543
C85	C	1.297408	-0.486689	0.000071
H86	H	1.413820	-0.486956	-0.087543
H87	H	1.366113	-0.558763	-0.087541
H88	H	1.323110	-0.498992	-0.146966
H89	H	1.329018	-0.497406	0.059494
H90	H	1.286020	-0.437619	0.000078
C91	C	1.304182	-0.685470	-0.087571
C92	C	1.294353	-0.639759	0.000049
H93	H	1.362301	-0.712203	-0.087569
H94	H	1.252115	-0.715865	-0.087578
H95	H	1.304811	-0.659342	-0.146989
H96	H	1.293717	-0.665887	0.059468
H97	H	1.346434	-0.609361	0.000066
C98	C	1.215075	0.100067	0.360959
C99	C	1.222439	0.095239	0.466416
H100	H	1.260889	0.068917	0.324469
H101	H	1.152805	0.088041	0.343572
H102	H	1.226555	0.146518	0.343315
H103	H	1.210953	0.048789	0.484061
H104	H	1.284724	0.107261	0.483810
