data_functionalizedCrystal
_audit_creation_method	'MofGen! by Chris Wilmer'
_symmetry_space_group_name_H-M	'P1'
_symmetry_Int_Tables_number	1
_symmetry_cell_setting	triclinic
loop_
_symmetry_equiv_pos_as_xyz
  x,y,z
_cell_length_a	16.120490
_cell_length_b	18.101395
_cell_length_c	16.120256
_cell_angle_alpha	92.874436
_cell_angle_beta	90.129807
_cell_angle_gamma	87.123501
loop_
_atom_site_label
_atom_site_type_symbol
_atom_site_fract_x
_atom_site_fract_y
_atom_site_fract_z
Zn1	Zn	1.247390	-0.375265	-0.534537
Zn2	Zn	1.254324	-0.493153	-0.395479
Zn3	Zn	1.115382	-0.362740	-0.388458
Zn4	Zn	1.108279	-0.492468	-0.527452
O5	O	1.181344	-0.430907	-0.461482
O6	O	1.364676	-0.396431	-0.521994
O7	O	1.241767	-0.470899	-0.278182
O8	O	1.132964	-0.260773	-0.407862
O9	O	1.369770	-0.483044	-0.419829
O10	O	1.229950	-0.269975	-0.515186
O11	O	1.139687	-0.375085	-0.273023
O12	O	0.998074	-0.374420	-0.400992
O13	O	1.120859	-0.481875	-0.644758
O14	O	0.992856	-0.469731	-0.503111
O15	O	1.223063	-0.395767	-0.649964
O16	O	1.234880	-0.596691	-0.412959
O17	O	1.127582	-0.596187	-0.509919
C18	C	0.965292	-0.420643	-0.450522
C19	C	0.872863	-0.416271	-0.445852
C20	C	0.659896	-0.453580	-0.485702
C21	C	0.703640	-0.408295	-0.437327
C22	C	0.797805	-0.412734	-0.442072
C23	C	0.565723	-0.449142	-0.480958
C24	C	1.181234	-0.623311	-0.461452
C25	C	1.181262	-0.705627	-0.461470
C26	C	1.181442	-1.004728	-0.461524
C27	C	1.114074	-0.973131	-0.522696
C28	C	1.113779	-0.887490	-0.522479
C29	C	1.181352	-0.856341	-0.461498
C30	C	1.162070	-0.882614	-0.372659
C31	C	1.161637	-0.968256	-0.373024
C32	C	1.268271	-0.978206	-0.488428
C33	C	1.267657	-0.892613	-0.490323
C34	C	1.181303	-0.772478	-0.461478
C35	C	1.181489	-1.088591	-0.461538
C36	C	1.398239	-0.441211	-0.472485
C37	C	1.490667	-0.445602	-0.477174
C38	C	1.170395	-0.440142	-0.678377
C39	C	1.165729	-0.444077	-0.770805
C40	C	1.181476	-0.237753	-0.461531
C41	C	1.181532	-0.155442	-0.461552
C42	C	1.205674	-0.410365	-0.983788
C43	C	1.157183	-0.451230	-0.940025
C44	C	1.161940	-0.447249	-0.845862
C45	C	1.200918	-0.414345	-1.077959
C46	C	1.192298	-0.421656	-0.245433
C47	C	1.197125	-0.417520	-0.153013
H48	H	0.693163	-0.495681	-0.530677
C49	C	1.096282	-0.502542	-0.984946
N50	N	1.050417	-0.541193	-1.018785
C51	C	1.266583	-0.359068	-0.938868
N52	N	1.312462	-0.320434	-0.905024
H53	H	0.670370	-0.366191	-0.392347
C54	C	1.293188	-1.012331	-0.574773
N55	N	1.311946	-1.038034	-0.639811
H56	H	1.125465	-0.997167	-0.588633
H57	H	1.320148	-0.871723	-0.449371
C58	C	1.077440	-0.848536	-0.342158
N59	N	1.013693	-0.822869	-0.319189
C60	C	1.027524	-0.997280	-0.498421
N61	N	0.962335	-1.015467	-0.480132
C62	C	1.129378	-0.863742	-0.611284
N63	N	1.141124	-0.845858	-0.678177
H64	H	1.049329	-0.863337	-0.504308
H65	H	1.098298	-0.984435	-0.350751
H66	H	1.208818	-0.988967	-0.325652
H67	H	1.209790	-0.862278	-0.325644
C68	C	1.287432	-0.869950	-0.578663
N69	N	1.302330	-0.852866	-0.645196
C70	C	1.336005	-1.005914	-0.428315
N71	N	1.387017	-1.026789	-0.383036
