data_functionalizedCrystal
_audit_creation_method	'MofGen! by Chris Wilmer'
_symmetry_space_group_name_H-M	'P1'
_symmetry_Int_Tables_number	1
_symmetry_cell_setting	triclinic
loop_
_symmetry_equiv_pos_as_xyz
  x,y,z
_cell_length_a	16.109301
_cell_length_b	10.540539
_cell_length_c	15.186229
_cell_angle_alpha	89.998389
_cell_angle_beta	89.999362
_cell_angle_gamma	83.993486
loop_
_atom_site_label
_atom_site_type_symbol
_atom_site_fract_x
_atom_site_fract_y
_atom_site_fract_z
O1	O	1.104128	0.163159	-0.073169
O2	O	0.862191	0.183464	-0.073182
O3	O	0.988679	-0.011474	-0.073174
O4	O	0.977640	0.358096	-0.073177
O5	O	0.988671	-0.011477	0.073283
O6	O	0.862182	0.183461	0.073275
O7	O	1.104120	0.163156	0.073289
Zn8	Zn	0.983150	0.173308	0.096535
Zn9	Zn	0.983161	0.173312	-0.096429
O10	O	0.977631	0.358094	0.073280
C11	C	0.831206	0.182640	0.000045
C12	C	0.738896	0.180174	0.000039
C13	C	0.517296	0.290112	0.000049
C14	C	0.430561	0.287785	0.000054
C15	C	0.449021	0.056499	0.000053
C16	C	0.535754	0.058827	0.000053
C17	C	0.569889	0.175637	0.000047
C18	C	0.396421	0.170982	0.000052
C19	C	0.302380	0.168459	0.000058
C20	C	0.663936	0.178162	0.000042
C21	C	0.987847	-0.058767	0.000053
C22	C	0.985370	-0.199679	0.000048
C23	C	0.890460	-0.381753	-0.000286
C24	C	0.892971	-0.235171	0.000044
C25	C	1.029832	-0.261972	0.083685
C26	C	1.026678	-0.408472	0.083755
C27	C	1.028567	-0.409014	-0.082794
C28	C	1.029418	-0.262044	-0.083900
C29	C	1.135104	0.163980	0.000060
C30	C	1.227414	0.166446	0.000059
C31	C	0.978463	0.405386	0.000052
C32	C	0.980940	0.546299	0.000051
N33	N	0.983148	0.173305	0.228228
N34	N	0.983169	0.173305	-0.228121
C35	C	1.039177	0.087015	0.453954
C36	C	1.039179	0.087012	0.546144
C37	C	0.927134	0.259598	0.546146
C38	C	0.927128	0.259594	0.453958
C39	C	0.983154	0.173304	0.407864
C40	C	0.983163	0.173305	0.592242
C41	C	0.983165	0.173303	0.692198
C42	C	0.983151	0.173305	0.307902
H43	H	0.857986	-0.192068	-0.059910
H44	H	0.881521	0.329855	0.583684
C45	C	0.865508	0.354523	0.403251
H46	H	0.873526	0.342153	0.341746
H47	H	0.875042	0.439244	0.418354
H48	H	0.809937	0.340713	0.418361
C49	C	0.411474	-0.071986	0.000049
H50	H	0.455221	-0.139830	0.000055
H51	H	0.378024	-0.077697	-0.051025
H52	H	0.378022	-0.077706	0.051127
H53	H	0.578578	-0.034398	0.000054
C54	C	0.841147	-0.419695	-0.081301
H55	H	0.875293	-0.479761	-0.115645
H56	H	0.824868	-0.346047	-0.115744
H57	H	0.792861	-0.456720	-0.062490
H58	H	1.084795	0.016751	0.416427
H59	H	0.387743	0.381003	0.000058
C60	C	1.116441	-0.474566	0.088909
H61	H	1.115124	-0.564464	0.088985
H62	H	1.142198	-0.449412	0.141460
H63	H	1.147376	-0.450605	0.039454
H64	H	0.854106	-0.411444	0.059352
C65	C	0.845373	-0.178070	0.081164
H66	H	0.846738	-0.088183	0.081638
H67	H	0.870937	-0.213678	0.133192
H68	H	0.789066	-0.197104	0.078701
C69	C	0.554842	0.418598	0.000051
H70	H	0.511094	0.486440	0.000061
H71	H	0.588294	0.424322	-0.051021
H72	H	0.588291	0.424307	0.051131
C73	C	1.120426	-0.230632	-0.090719
H74	H	1.132807	-0.178849	-0.042238
H75	H	1.127737	-0.186148	-0.144098
H76	H	1.156886	-0.307534	-0.090006
H77	H	0.993812	-0.436204	0.146272
H78	H	1.084796	0.016747	0.583668
C79	C	1.121495	-0.233077	0.087901
H80	H	1.133491	-0.182640	0.038575
H81	H	1.157084	-0.310843	0.087129
H82	H	1.130456	-0.187894	0.140598
H83	H	0.998939	-0.218934	0.145921
C84	C	0.988179	-0.451054	-0.168433
H85	H	1.017859	-0.423140	-0.217620
H86	H	0.931762	-0.414551	-0.171007
H87	H	0.990007	-0.541418	-0.169508
C88	C	0.985537	-0.206114	-0.167488
H89	H	0.940562	-0.145004	-0.151304
H90	H	0.964723	-0.272658	-0.200329
H91	H	1.024256	-0.166143	-0.202394
C92	C	1.118722	-0.474105	-0.083558
H93	H	1.127329	-0.528259	-0.033665
H94	H	1.156658	-0.410961	-0.081722
H95	H	1.127788	-0.523281	-0.135754
