data_functionalizedCrystal
_audit_creation_method	'MofGen! by Chris Wilmer'
_symmetry_space_group_name_H-M	'P1'
_symmetry_Int_Tables_number	1
_symmetry_cell_setting	triclinic
loop_
_symmetry_equiv_pos_as_xyz
  x,y,z
_cell_length_a	12.759394
_cell_length_b	19.077142
_cell_length_c	19.076919
_cell_angle_alpha	90.074357
_cell_angle_beta	87.725879
_cell_angle_gamma	92.289549
loop_
_atom_site_label
_atom_site_type_symbol
_atom_site_fract_x
_atom_site_fract_y
_atom_site_fract_z
Zn1	Zn	-0.508301	-1.058326	0.440467
Zn2	Zn	-0.008301	-0.558326	0.940467
Zn3	Zn	-0.677228	-1.062984	0.322965
Zn4	Zn	-0.177228	-0.562984	0.822965
Zn5	Zn	-0.494224	-0.945542	0.318256
Zn6	Zn	0.005776	-0.445542	0.818256
Zn7	Zn	-0.676592	-0.940806	0.435713
Zn8	Zn	-0.176592	-0.440806	0.935713
O9	O	-0.589086	-1.001914	0.379350
O10	O	-0.089086	-0.501914	0.879350
O11	O	-0.536867	-1.157276	0.428840
O12	O	-0.036867	-0.657276	0.928840
O13	O	-0.647327	-1.051337	0.224009
O14	O	-0.147327	-0.551337	0.724009
O15	O	-0.349073	-0.960535	0.334486
O16	O	0.150927	-0.460535	0.834486
O17	O	-0.660977	-1.160699	0.342512
O18	O	-0.160977	-0.660699	0.842512
O19	O	-0.359416	-1.043397	0.424274
O20	O	0.140584	-0.543397	0.924274
O21	O	-0.512875	-0.965053	0.220549
O22	O	-0.012875	-0.465053	0.720549
O23	O	-0.512258	-0.846581	0.329877
O24	O	-0.012258	-0.346581	0.829877
O25	O	-0.659893	-0.952464	0.534675
O26	O	-0.159893	-0.452464	1.034675
O27	O	-0.646243	-0.843102	0.416172
O28	O	-0.146243	-0.343102	0.916172
O29	O	-0.536250	-1.038805	0.538168
O30	O	-0.036250	-0.538805	1.038168
O31	O	-0.824162	-1.046745	0.337902
O32	O	-0.324162	-0.546745	0.837902
O33	O	-0.823694	-0.956981	0.420738
O34	O	-0.323694	-0.456981	0.920738
C35	C	-0.577654	-0.819345	0.371998
C36	C	-0.077654	-0.319345	0.871998
C37	C	-0.572790	-0.741241	0.368870
C38	C	-0.072790	-0.241241	0.868870
C39	C	-0.862050	-1.001873	0.379332
C40	C	-0.362050	-0.501873	0.879332
C41	C	-0.978831	-1.001919	0.379350
C42	C	-0.478831	-0.501919	0.879350
C43	C	-0.640361	-0.702757	0.412259
C44	C	-0.140361	-0.202757	0.912259
C45	C	-0.635776	-0.629369	0.409323
C46	C	-0.135776	-0.129369	0.909323
C47	C	-0.563626	-0.594467	0.362993
C48	C	-0.063626	-0.094467	0.862993
C49	C	-0.496048	-0.632956	0.319603
C50	C	0.003952	-0.132956	0.819603
C51	C	-0.500628	-0.706342	0.322543
C52	C	-0.000628	-0.206342	0.822543
C53	C	-0.542433	-0.375177	0.349393
C54	C	-0.042433	0.124823	0.849393
C55	C	-0.537860	-0.301786	0.346455
C56	C	-0.037860	0.198214	0.846455
C57	C	-0.677588	-0.298204	0.436176
C58	C	-0.177588	0.201796	0.936176
C59	C	-0.682165	-0.371592	0.439109
C60	C	-0.182165	0.128408	0.939109
C61	C	-0.614584	-0.410074	0.395721
C62	C	-0.114584	0.089926	0.895721
N63	N	-0.558941	-0.519453	0.359990
N64	N	-0.058941	-0.019453	0.859990
N65	N	-0.619265	-0.485087	0.398729
N66	N	-0.119265	0.014913	0.898729
C67	C	-0.979272	-1.095454	0.293163
C68	C	-0.479272	-0.595454	0.793163
C69	C	-1.034356	-1.142240	0.250078
C70	C	-0.534356	-0.642240	0.750078
C71	C	-1.144081	-1.142281	0.250099
C72	C	-0.644081	-0.642281	0.750099
C73	C	-1.198726	-1.095532	0.293210
C74	C	-0.698726	-0.595532	0.793210
C75	C	-1.143642	-1.048746	0.336295
C76	C	-0.643642	-0.548746	0.836295
C77	C	-1.033914	-1.048709	0.336268
C78	C	-0.533914	-0.548709	0.836268
C79	C	-1.143201	-0.955214	0.422485
C80	C	-0.643201	-0.455214	0.922485
C81	C	-1.033475	-0.955169	0.422461
C82	C	-0.533475	-0.455169	0.922461
C83	C	-1.197846	-0.908465	0.465596
C84	C	-0.697846	-0.408465	0.965596
C85	C	-1.142762	-0.861675	0.508678
C86	C	-0.642762	-0.361675	1.008678
C87	C	-1.033030	-0.861636	0.508655
C88	C	-0.533030	-0.361636	1.008655
C89	C	-0.978392	-0.908384	0.465546
C90	C	-0.478392	-0.408384	0.965546
C91	C	-0.315059	-1.001975	0.379385
C92	C	0.184941	-0.501975	0.879385
C93	C	-0.198284	-1.002000	0.379400
C94	C	0.301716	-0.502000	0.879400
C95	C	-0.599571	-0.994586	0.562631
C96	C	-0.099571	-0.494586	1.062631
C97	C	-0.604038	-0.991463	0.640734
C98	C	-0.104038	-0.491463	1.140734
C99	C	-0.600558	-0.185197	0.386723
C100	C	-0.100558	0.314803	0.886723
C101	C	-0.605431	-0.263302	0.389843
C102	C	-0.105431	0.236698	0.889843
C103	C	-0.578570	-1.009255	0.196785
C104	C	-0.078570	-0.509255	0.696785
C105	C	-0.573814	-1.012514	0.118688
C106	C	-0.073814	-0.512514	0.618688
C107	C	-0.541766	-1.034947	0.679246
C108	C	-0.041766	-0.534947	1.179246
C109	C	-0.545960	-1.032004	0.752632
C110	C	-0.045960	-0.532004	1.252632
C111	C	-0.612431	-0.985581	0.787504
C112	C	-0.112431	-0.485581	1.287504
C113	C	-0.674706	-0.942092	0.748986
C114	C	-0.174706	-0.442092	1.248986
C115	C	-0.670506	-0.945032	0.675602
C116	C	-0.170506	-0.445032	1.175602
C117	C	-0.631889	-0.971965	1.006785
C118	C	-0.131889	-0.471965	1.506785
C119	C	-0.636086	-0.969030	1.080175
C120	C	-0.136086	-0.469030	1.580175
C121	C	-0.507338	-1.058941	1.083815
C122	C	-0.007338	-0.558941	1.583815
C123	C	-0.503149	-1.061880	1.010429
C124	C	-0.003149	-0.561880	1.510429
C125	C	-0.565419	-1.018389	0.971918
C126	C	-0.065419	-0.518389	1.471918
N127	N	-0.616722	-0.982573	0.862516
N128	N	-0.116722	-0.482573	1.362516
N129	N	-0.561123	-1.021393	0.896907
N130	N	-0.061123	-0.521393	1.396907
H131	H	-0.699117	-0.731169	0.449983
H132	H	-0.199117	-0.231169	0.949983
H133	H	-0.988187	-0.823540	0.543742
H134	H	-0.488187	-0.323540	1.043742
H135	H	-0.740920	-0.400004	0.476833
H136	H	-0.240920	0.099996	0.976833
F137	F	-0.976192	-1.191994	0.204201
F138	F	-0.476192	-0.691994	0.704201
F139	F	-0.428708	-0.747299	0.276364
F140	F	0.071292	-0.247299	0.776364
F141	F	-0.461070	-0.264642	0.297138
F142	F	0.038930	0.235358	0.797138
H143	H	-1.188930	-1.180381	0.215020
H144	H	-0.688930	-0.680381	0.715020
H145	H	-0.889927	-1.095417	0.293132
H146	H	-0.389927	-0.595417	0.793132
H147	H	-1.288070	-1.095574	0.293230
H148	H	-0.788070	-0.595574	0.793230
F149	F	-0.707694	-0.588414	0.455504
F150	F	-0.207694	-0.088414	0.955504
H151	H	-0.889047	-0.908352	0.465518
H152	H	-0.389047	-0.408352	0.965518
H153	H	-0.682610	-0.936562	0.975438
H154	H	-0.182610	-0.436562	1.475438
H155	H	-0.487641	-1.072752	0.650859
H156	H	0.012359	-0.572752	1.150859
H157	H	-1.287190	-0.908504	0.465613
H158	H	-0.787190	-0.408504	0.965613
F159	F	-0.432401	-1.111291	0.973321
F160	F	0.067599	-0.611291	1.473321
H161	H	-0.690218	-0.931224	1.108566
H162	H	-0.190218	-0.431224	1.608566
H163	H	-0.456640	-1.094348	1.115179
H164	H	0.043360	-0.594348	1.615179
F165	F	-0.749509	-0.257243	0.482348
F166	F	-0.249509	0.242757	0.982348
F167	F	-0.745446	-0.892682	0.786102
F168	F	-0.245446	-0.392682	1.286102
H169	H	-0.721204	-0.909616	0.644245
H170	H	-0.221204	-0.409616	1.144245
F171	F	-0.419253	-0.595808	0.270300
F172	F	0.080747	-0.095808	0.770300
F173	F	-0.470503	-0.416124	0.303217
F174	F	0.029497	0.083876	0.803217
F175	F	-1.200924	-0.811931	0.554559
F176	F	-0.700924	-0.311931	1.054559
F177	F	-0.479719	-1.078310	0.793617
F178	F	0.020281	-0.578310	1.293617
