data_functionalizedCrystal
_audit_creation_method	'MofGen! by Chris Wilmer'
_symmetry_space_group_name_H-M	'P1'
_symmetry_Int_Tables_number	1
_symmetry_cell_setting	triclinic
loop_
_symmetry_equiv_pos_as_xyz
  x,y,z
_cell_length_a	18.050591
_cell_length_b	16.959454
_cell_length_c	16.959447
_cell_angle_alpha	89.973264
_cell_angle_beta	90.021459
_cell_angle_gamma	89.983919
loop_
_atom_site_label
_atom_site_type_symbol
_atom_site_fract_x
_atom_site_fract_y
_atom_site_fract_z
Zn1	Zn	1.135339	0.314750	0.447079
Zn2	Zn	1.135266	0.446943	0.314909
Zn3	Zn	1.011157	0.314773	0.314900
Zn4	Zn	1.011123	0.446881	0.447031
O5	O	1.073221	0.380837	0.380980
O6	O	1.239253	0.332302	0.429570
O7	O	1.118786	0.429445	0.204296
O8	O	1.027674	0.204159	0.332450
O9	O	1.239200	0.429423	0.332465
O10	O	1.118910	0.204142	0.429562
O11	O	1.027603	0.332340	0.204290
O12	O	0.907228	0.332281	0.332404
O13	O	1.027617	0.429319	0.557648
O14	O	0.907203	0.429341	0.429479
O15	O	1.118878	0.332242	0.557683
O16	O	1.118754	0.557545	0.332418
O17	O	1.027547	0.557500	0.429488
C18	C	1.073159	0.586203	0.380966
C19	C	1.073200	0.674060	0.380987
C20	C	0.880269	0.380807	0.380936
C21	C	0.797723	0.380814	0.380936
C22	C	1.073252	0.380771	0.587148
C23	C	1.073265	0.380743	0.675004
C24	C	0.598264	0.327971	0.328268
C25	C	0.548854	0.400068	0.308821
C26	C	0.646593	0.380838	0.380972
C27	C	0.548921	0.308766	0.400416
C28	C	0.500608	0.380854	0.381005
C29	C	0.598270	0.452972	0.361487
C30	C	0.598341	0.361621	0.453116
C31	C	0.548954	0.433768	0.433697
C32	C	0.730691	0.380827	0.380951
C33	C	0.416511	0.380873	0.381026
C34	C	1.266927	0.380867	0.381024
C35	C	1.349472	0.380880	0.381043
C36	C	1.073304	0.174668	0.381010
C37	C	1.073339	0.086812	0.381023
C38	C	1.025799	1.045542	0.431518
C39	C	1.120850	1.045529	0.330521
C40	C	1.120824	0.962983	0.330514
C41	C	1.073284	0.921712	0.381009
C42	C	1.025770	0.962988	0.431511
C43	C	1.168333	0.921701	0.280007
C44	C	1.168308	0.839150	0.279997
C45	C	1.120771	0.797878	0.330497
C46	C	1.073255	0.839159	0.381001
C47	C	1.025715	0.797889	0.431496
C48	C	0.978202	0.839168	0.482005
C49	C	0.978232	0.921716	0.482010
C50	C	1.120741	0.715330	0.330492
C51	C	1.025686	0.715335	0.431489
C52	C	1.073233	0.380845	0.175613
C53	C	1.073364	0.380650	0.087757
C54	C	1.025839	0.431203	1.046464
C55	C	1.120869	0.330117	1.046496
C56	C	1.120849	0.330134	0.963950
C57	C	1.073324	0.380687	0.922658
C58	C	1.025819	0.431223	0.963911
C59	C	1.168359	0.279604	0.922691
C60	C	1.168342	0.279619	0.840140
C61	C	1.120812	0.330169	0.798846
C62	C	1.073305	0.380707	0.840104
C63	C	1.025780	0.431260	0.798811
C64	C	0.978268	0.481794	0.840068
C65	C	0.978290	0.481773	0.922617
C66	C	1.120790	0.330190	0.716297
C67	C	1.025760	0.431280	0.716258
H68	H	0.619916	0.283312	0.283649
C69	C	1.015270	0.622451	0.537794
C70	C	0.973428	0.669974	0.486997
H71	H	0.983008	0.594452	0.572065
H72	H	1.043551	0.586056	0.507714
H73	H	1.047620	0.654622	0.568064
H74	H	0.941083	0.637802	0.456724
H75	H	0.945135	0.706373	0.517081
C76	C	0.475862	0.197229	0.361056
C77	C	0.519659	0.226477	0.422604
H78	H	0.457803	0.146425	0.374749
H79	H	0.435289	0.231810	0.352259
H80	H	0.504797	0.193606	0.314423
H81	H	0.490722	0.230106	0.469236
H82	H	0.560238	0.191888	0.431411
C83	C	1.294135	0.241125	0.948134
C84	C	1.220600	0.224040	0.968076
H85	H	1.326386	0.206822	0.976158
H86	H	1.300918	0.233905	0.893073
H87	H	1.304973	0.294234	0.961659
H88	H	1.209760	0.170933	0.954545
H89	H	1.213813	0.231254	1.023149
C90	C	1.015449	1.138318	0.537842
C91	C	0.973574	1.090913	0.487034
H92	H	0.983206	1.166332	0.572112
H93	H	1.047767	1.106073	0.568106
H94	H	1.043763	1.174709	0.507764
H95	H	0.945264	1.054519	0.517113
H96	H	0.941242	1.123162	0.456768
C97	C	1.220608	0.622433	0.319603
C98	C	1.172959	0.669955	0.274977
H99	H	1.252844	0.594419	0.285326
H100	H	1.249006	0.654600	0.354064
H101	H	1.192287	0.586043	0.349674
H102	H	1.201280	0.706350	0.244910
H103	H	1.144558	0.637786	0.240502
H104	H	1.159551	1.079136	0.289406
C105	C	0.983531	0.476199	0.589702
C106	C	0.973517	0.486849	0.670870
H107	H	0.951274	0.510502	0.561684
H108	H	1.033415	0.487783	0.576184
H109	H	0.972682	0.423089	0.576189
H110	H	0.984372	0.539957	0.684384
H111	H	0.923621	0.475270	0.684394
H112	H	1.207032	0.955309	0.238891
C113	C	0.705283	0.340571	0.534686
C114	C	0.627719	0.339634	0.535433
H115	H	0.723419	0.326994	0.585506
H116	H	0.722892	0.303537	0.497105
H117	H	0.722139	0.391825	0.520953
H118	H	0.610862	0.288379	0.549160
H119	H	0.610102	0.376671	0.573026
C120	C	0.544387	0.366582	0.171362
C121	C	0.519502	0.422027	0.226481
H122	H	0.526263	0.380134	0.120530
H123	H	0.597001	0.366268	0.170636
H124	H	0.526760	0.315744	0.185535
H125	H	0.537134	0.472865	0.212312
H126	H	0.466877	0.422349	0.227205
H127	H	0.619856	0.513948	0.344987
C128	C	1.262274	0.847438	0.180171
C129	C	1.220540	0.793780	0.224488
H130	H	1.294524	0.819426	0.145908
H131	H	1.229947	0.879667	0.149900
H132	H	1.290665	0.879602	0.214653
H133	H	1.192145	0.761619	0.190006
H134	H	1.252871	0.761537	0.254761
C135	C	0.942066	0.615607	0.947996
C136	C	0.926073	0.537321	0.967967
H137	H	0.909828	0.649899	0.975994
H138	H	0.991958	0.627172	0.961527
H139	H	0.935246	0.622844	0.892923
H140	H	0.932899	0.530082	1.023040
H141	H	0.876169	0.525753	0.954442
H142	H	0.939576	0.522958	0.806437
H143	H	0.987154	0.472345	1.080059
C144	C	0.884251	0.847456	0.581848
C145	C	0.925948	0.793799	0.537511
H146	H	0.851991	0.819443	0.616111
H147	H	0.916601	0.879610	0.612121
H148	H	0.855873	0.879696	0.547380
H149	H	0.954330	0.761562	0.571980
H150	H	0.893593	0.761631	0.507236
H151	H	0.939549	0.955333	0.523131
H152	H	0.527438	0.478534	0.478281
C153	C	1.163096	0.285211	1.173051
C154	C	1.173109	0.274554	1.091883
H155	H	1.195346	0.250902	1.201072
H156	H	1.173948	0.338312	1.186560
H157	H	1.113204	0.273630	1.186570
H158	H	1.223000	0.286140	1.078363
H159	H	1.162262	0.221440	1.078369
H160	H	1.207028	0.238471	0.806556
C161	C	1.214729	0.230275	0.724625
C162	C	1.173009	0.274648	0.670948
H163	H	1.246964	0.195979	0.696627
H164	H	1.243128	0.264713	0.756813
H165	H	1.182387	0.200028	0.756829
H166	H	1.205351	0.304899	0.638748
H167	H	1.144607	0.240205	0.638746
