data_functionalizedCrystal
_audit_creation_method	'MofGen! by Chris Wilmer'
_symmetry_space_group_name_H-M	'P1'
_symmetry_Int_Tables_number	1
_symmetry_cell_setting	triclinic
loop_
_symmetry_equiv_pos_as_xyz
  x,y,z
_cell_length_a	12.645330
_cell_length_b	14.908571
_cell_length_c	14.908803
_cell_angle_alpha	90.189116
_cell_angle_beta	86.710065
_cell_angle_gamma	93.285920
loop_
_atom_site_label
_atom_site_type_symbol
_atom_site_fract_x
_atom_site_fract_y
_atom_site_fract_z
Zn1	Zn	-0.553453	-1.345183	0.587601
Zn2	Zn	-0.721074	-1.353804	0.437252
Zn3	Zn	-0.533030	-1.203534	0.428600
Zn4	Zn	-0.719869	-1.194799	0.578901
O5	O	-0.631857	-1.274330	0.508089
O6	O	-0.584740	-1.472151	0.574919
O7	O	-0.688087	-1.341133	0.310281
O8	O	-0.387397	-1.222371	0.449712
O9	O	-0.707890	-1.478485	0.464458
O10	O	-0.402402	-1.326441	0.566529
O11	O	-0.549932	-1.230730	0.303924
O12	O	-0.548763	-1.076550	0.441276
O13	O	-0.705837	-1.207485	0.705879
O14	O	-0.686033	-1.070133	0.551702
O15	O	-0.583572	-1.317971	0.712270
O16	O	-0.869257	-1.332664	0.456022
O17	O	-0.868372	-1.215844	0.560091
C18	C	-0.615052	-1.040717	0.494607
C19	C	-0.607890	-0.940775	0.488861
C20	C	-0.907281	-1.274265	0.508072
C21	C	-1.025117	-1.274318	0.508100
C22	C	-0.646848	-1.260792	0.742611
C23	C	-0.653236	-1.255023	0.842551
C24	C	-1.192202	-1.201101	0.573801
C25	C	-1.069603	-1.200760	0.573556
C26	C	-1.061779	-1.254161	0.411865
C27	C	-1.184375	-1.253714	0.412264
C28	C	-1.200610	-1.368160	0.537890
C29	C	-1.078095	-1.367456	0.539929
C30	C	-0.355360	-1.274419	0.508126
C31	C	-0.237534	-1.274456	0.508142
C32	C	-0.648728	-1.508855	0.521624
C33	C	-0.655917	-1.608796	0.527391
C34	C	-0.737571	-0.746349	0.592895
C35	C	-0.730845	-0.652444	0.587499
C36	C	-0.587708	-0.659059	0.472678
C37	C	-0.594434	-0.752964	0.478074
C38	C	-0.669369	-0.796605	0.538183
C39	C	-0.676099	-0.890512	0.543574
C40	C	-0.532958	-0.897125	0.428758
C41	C	-0.526232	-0.803220	0.423363
C42	C	-0.537901	-1.359229	1.037005
C43	C	-0.543900	-1.353812	1.130908
C44	C	-0.671227	-1.238766	1.124260
C45	C	-0.665228	-1.244184	1.030357
C46	C	-0.598564	-1.304419	0.986734
C47	C	-0.592572	-1.309840	0.892830
C48	C	-0.719892	-1.194791	0.886183
C49	C	-0.725891	-1.189373	0.980085
C50	C	-0.616948	-1.287810	1.274478
C51	C	-0.610562	-1.293583	1.174538
H52	H	-1.045116	-1.212735	0.644743
C53	C	-1.022497	-1.324375	0.343640
N54	N	-0.992905	-1.377259	0.292254
C55	C	-0.820003	-0.794357	0.659011
N56	N	-0.882092	-0.830515	0.708813
C57	C	-0.505276	-0.611037	0.406572
N58	N	-0.443186	-0.574865	0.356782
H59	H	-0.737117	-0.926043	0.592517
H60	H	-0.780164	-1.140330	1.015617
H61	H	-1.227286	-1.212915	0.645209
H62	H	-0.477424	-0.938054	0.384206
C63	C	-0.786626	-1.134495	0.830876
N64	N	-0.836891	-1.089084	0.789218
C65	C	-0.519237	-1.376096	0.844845
N66	N	-0.463995	-1.425998	0.808706
C67	C	-1.225754	-1.107679	0.546898
N68	N	-1.251022	-1.037314	0.526628
C69	C	-0.477170	-1.414111	1.186204
N70	N	-0.426905	-1.459531	1.227853
H71	H	-0.483627	-1.408279	1.001487
H72	H	-0.725501	-1.189726	1.159794
H73	H	-1.034270	-1.131181	0.553416
H74	H	-1.054815	-1.382757	0.610779
C75	C	-0.805880	-0.597165	0.647679
N76	N	-0.862401	-0.555530	0.693009
H77	H	-1.206750	-1.185380	0.387699
H78	H	-1.214053	-1.305123	0.361380
H79	H	-1.048327	-1.424548	0.496024
H80	H	-0.465219	-0.767674	0.374426
H81	H	-1.024881	-1.186573	0.386971
H82	H	-1.230049	-1.422744	0.490135
C83	C	-1.250439	-1.394448	0.631475
N84	N	-1.287969	-1.414238	0.701967
