data_functionalizedCrystal
_audit_creation_method	'MofGen! by Chris Wilmer'
_symmetry_space_group_name_H-M	'P1'
_symmetry_Int_Tables_number	1
_symmetry_cell_setting	triclinic
loop_
_symmetry_equiv_pos_as_xyz
  x,y,z
_cell_length_a	25.639242
_cell_length_b	25.639239
_cell_length_c	25.639234
_cell_angle_alpha	89.975095
_cell_angle_beta	89.970648
_cell_angle_gamma	90.034213
loop_
_atom_site_label
_atom_site_type_symbol
_atom_site_fract_x
_atom_site_fract_y
_atom_site_fract_z
Zn1	Zn	0.799262	-0.208245	-0.295742
Zn2	Zn	1.132595	0.125088	0.037591
Zn3	Zn	1.465929	0.458422	0.370924
Zn4	Zn	0.799175	-0.295673	-0.208307
Zn5	Zn	1.132508	0.037660	0.125027
Zn6	Zn	1.465841	0.370994	0.458360
Zn7	Zn	0.711827	-0.208247	-0.208306
Zn8	Zn	1.045161	0.125087	0.125027
Zn9	Zn	1.378494	0.458420	0.458360
Zn10	Zn	0.711784	-0.295644	-0.295696
Zn11	Zn	1.045117	0.037689	0.037637
Zn12	Zn	1.378450	0.371022	0.370970
O13	O	0.755512	-0.251952	-0.252013
O14	O	1.088845	0.081381	0.081320
O15	O	1.422179	0.414714	0.414654
O16	O	0.872416	-0.219854	-0.284163
O17	O	1.205749	0.113480	0.049170
O18	O	1.539082	0.446813	0.382504
O19	O	0.787570	-0.284089	-0.135141
O20	O	1.120903	0.049245	0.198192
O21	O	1.454236	0.382578	0.531525
O22	O	0.723481	-0.135081	-0.219924
O23	O	1.056814	0.198252	0.113409
O24	O	1.390148	0.531585	0.446743
O25	O	0.872351	-0.284087	-0.219924
O26	O	1.205685	0.049246	0.113409
O27	O	1.539018	0.382580	0.446742
O28	O	0.787719	-0.135080	-0.284163
O29	O	1.121052	0.198253	0.049171
O30	O	1.454385	0.531587	0.382504
O31	O	0.723396	-0.219857	-0.135141
O32	O	1.056729	0.113477	0.198192
O33	O	1.390063	0.446810	0.531526
O34	O	0.638656	-0.219829	-0.219880
O35	O	0.971990	0.113504	0.113454
O36	O	1.305323	0.446838	0.446787
O37	O	0.723406	-0.284038	-0.368868
O38	O	1.056739	0.049295	-0.035534
O39	O	1.390073	0.382629	0.297799
O40	O	0.638624	-0.284040	-0.284085
O41	O	0.971958	0.049294	0.049249
O42	O	1.305291	0.382627	0.382582
O43	O	0.787676	-0.219826	-0.368901
O44	O	1.121010	0.113507	-0.035568
O45	O	1.454343	0.446841	0.297765
O46	O	0.787527	-0.368835	-0.219880
O47	O	1.120860	-0.035501	0.113453
O48	O	1.454194	0.297832	0.446787
O49	O	0.723321	-0.368813	-0.284085
O50	O	1.056655	-0.035480	0.049248
O51	O	1.389988	0.297853	0.382582
C52	C	0.619669	-0.251932	-0.251977
C53	C	0.953003	0.081402	0.081356
C54	C	1.286336	0.414735	0.414689
C55	C	0.561555	-0.251935	-0.251975
C56	C	0.894889	0.081398	0.081359
C57	C	1.228222	0.414731	0.414692
C58	C	0.201184	-0.285443	-0.285413
C59	C	0.534518	0.047891	0.047920
C60	C	0.867851	0.381224	0.381254
C61	C	0.146580	-0.285446	-0.285421
C62	C	0.479913	0.047887	0.047912
C63	C	0.813247	0.381221	0.381246
O64	O	0.118337	-0.313909	-0.313821
O65	O	0.451670	0.019424	0.019512
O66	O	0.785003	0.352757	0.352845
N67	N	0.119273	-0.251967	-0.252047
N68	N	0.452606	0.081367	0.081286
N69	N	0.785940	0.414700	0.414620
C70	C	0.146573	-0.218478	-0.218666
C71	C	0.479906	0.114855	0.114667
C72	C	0.813240	0.448188	0.448000
O73	O	0.118332	-0.190002	-0.190280
O74	O	0.451665	0.143332	0.143053
O75	O	0.784999	0.476665	0.476387
C76	C	0.201176	-0.218473	-0.218661
C77	C	0.534510	0.114860	0.114672
C78	C	0.867843	0.448194	0.448006
C79	C	0.228481	-0.251958	-0.252034
C80	C	0.561814	0.081375	0.081300
C81	C	0.895147	0.414709	0.414633
C82	C	0.228489	-0.318925	-0.318783
C83	C	0.561822	0.014409	0.014550
C84	C	0.895155	0.347742	0.347884
C85	C	0.283089	-0.318922	-0.318774
C86	C	0.616423	0.014411	0.014559
C87	C	0.949756	0.347745	0.347893
C88	C	0.310385	-0.285437	-0.285395
C89	C	0.643719	0.047896	0.047939
C90	C	0.977052	0.381229	0.381272
C91	C	0.283081	-0.251955	-0.252024
C92	C	0.616414	0.081378	0.081309
C93	C	0.949748	0.414711	0.414642
C94	C	0.228475	-0.184982	-0.185283
C95	C	0.561809	0.148351	0.148050
C96	C	0.895142	0.481684	0.481383
C97	C	0.283082	-0.184980	-0.185281
C98	C	0.616416	0.148354	0.148052
C99	C	0.949749	0.481687	0.481385
C100	C	0.310387	-0.218465	-0.218654
C101	C	0.643720	0.114869	0.114680
C102	C	0.977053	0.448202	0.448013
C103	C	0.364978	-0.218468	-0.218636
C104	C	0.698311	0.114865	0.114697
C105	C	1.031644	0.448198	0.448031
N106	N	0.392285	-0.251947	-0.252010
N107	N	0.725618	0.081386	0.081323
N108	N	1.058952	0.414719	0.414656
C109	C	0.364989	-0.285432	-0.285389
C110	C	0.698322	0.047901	0.047944
C111	C	1.031655	0.381235	0.381277
C112	C	0.031902	-0.218492	-0.218680
C113	C	0.365236	0.114842	0.114653
C114	C	0.698569	0.448175	0.447986
C115	C	-0.022700	-0.218499	-0.218683
C116	C	0.310633	0.114834	0.114651
C117	C	0.643967	0.448167	0.447984
C118	C	-0.022689	-0.285466	-0.285438
C119	C	0.310644	0.047867	0.047895
C120	C	0.643978	0.381200	0.381228
C121	C	0.031914	-0.285461	-0.285433
C122	C	0.365248	0.047872	0.047900
C123	C	0.698581	0.381206	0.381234
C124	C	0.059209	-0.251971	-0.252054
C125	C	0.392543	0.081362	0.081279
C126	C	0.725876	0.414696	0.414612
C127	C	0.479654	-0.285424	-0.285368
C128	C	0.812987	0.047909	0.047966
C129	C	1.146321	0.381242	0.381299
C130	C	0.534259	-0.285420	-0.285354
C131	C	0.867593	0.047913	0.047979
C132	C	1.200926	0.381247	0.381313
C133	C	0.534243	-0.218451	-0.218601
C134	C	0.867577	0.114882	0.114733
C135	C	1.200910	0.448215	0.448066
C136	C	0.479643	-0.218457	-0.218612
C137	C	0.812976	0.114876	0.114721
C138	C	1.146310	0.448209	0.448055
C139	C	0.452349	-0.251945	-0.252000
C140	C	0.785683	0.081388	0.081334
C141	C	1.119016	0.414721	0.414667
O142	O	0.393256	-0.190018	-0.190252
O143	O	0.726589	0.143316	0.143082
O144	O	1.059923	0.476649	0.476415
O145	O	0.393236	-0.313899	-0.313776
O146	O	0.726570	0.019434	0.019558
O147	O	1.059903	0.352768	0.352891
C148	C	0.755424	-0.387795	-0.251989
C149	C	1.088757	-0.054462	0.081344
C150	C	1.422091	0.278872	0.414678
C151	C	0.755434	-0.445909	-0.251996
C152	C	1.088768	-0.112576	0.081337
C153	C	1.422101	0.220758	0.414670
C154	C	0.789031	-0.806270	-0.218638
C155	C	1.122365	-0.472937	0.114695
C156	C	1.455698	-0.139604	0.448028
C157	C	0.789051	-0.860875	-0.218645
C158	C	1.122385	-0.527541	0.114688
C159	C	1.455718	-0.194208	0.448021
O160	O	0.817526	-0.889110	-0.190257
O161	O	1.150859	-0.555777	0.143076
O162	O	1.484192	-0.222443	0.476410
N163	N	0.755604	-0.888191	-0.252048
N164	N	1.088937	-0.554858	0.081286
N165	N	1.422271	-0.221525	0.414619
C166	C	0.722138	-0.860901	-0.285449
C167	C	1.055471	-0.527568	0.047885
C168	C	1.388804	-0.194234	0.381218
O169	O	0.693690	-0.889150	-0.313861
O170	O	1.027023	-0.555816	0.019472
O171	O	1.360357	-0.222483	0.352806
C172	C	0.722120	-0.806298	-0.285444
C173	C	1.055454	-0.472964	0.047889
C174	C	1.388787	-0.139631	0.381223
C175	C	0.755566	-0.778984	-0.252036
C176	C	1.088900	-0.445650	0.081298
C177	C	1.422233	-0.112317	0.414631
C178	C	0.822475	-0.778957	-0.185233
C179	C	1.155808	-0.445623	0.148100
C180	C	1.489142	-0.112290	0.481433
C181	C	0.822454	-0.724356	-0.185226
C182	C	1.155787	-0.391023	0.148108
C183	C	1.489121	-0.057689	0.481441
C184	C	0.788989	-0.697069	-0.218623
C185	C	1.122322	-0.363736	0.114710
C186	C	1.455656	-0.030403	0.448043
C187	C	0.755545	-0.724383	-0.252028
C188	C	1.088879	-0.391050	0.081305
C189	C	1.422212	-0.057717	0.414638
C190	C	0.688657	-0.779008	-0.318847
C191	C	1.021990	-0.445675	0.014486
C192	C	1.355324	-0.112341	0.347819
C193	C	0.688643	-0.724401	-0.318840
C194	C	1.021976	-0.391068	0.014493
C195	C	1.355310	-0.057734	0.347827
C196	C	0.722089	-0.697087	-0.285432
C197	C	1.055422	-0.363754	0.047901
C198	C	1.388756	-0.030421	0.381235
C199	C	0.722059	-0.642496	-0.285418
C200	C	1.055393	-0.309163	0.047915
C201	C	1.388726	0.024171	0.381248
N202	N	0.755507	-0.615179	-0.252016
N203	N	1.088840	-0.281846	0.081317
N204	N	1.422174	0.051487	0.414651
C205	C	0.788972	-0.642466	-0.218619
C206	C	1.122305	-0.309133	0.114715
C207	C	1.455638	0.024201	0.448048
C208	C	0.722177	-0.975571	-0.285457
C209	C	1.055510	-0.642238	0.047877
C210	C	1.388844	-0.308905	0.381210
C211	C	0.722191	-1.030174	-0.285459
C212	C	1.055524	-0.696840	0.047874
C213	C	1.388858	-0.363507	0.381207
C214	C	0.789106	-1.030144	-0.218656
C215	C	1.122439	-0.696811	0.114677
C216	C	1.455773	-0.363477	0.448010
C217	C	0.789089	-0.975541	-0.218652
C218	C	1.122422	-0.642207	0.114682
C219	C	1.455755	-0.308874	0.448015
C220	C	0.755625	-0.948255	-0.252055
C221	C	1.088958	-0.614921	0.081279
C222	C	1.422291	-0.281588	0.414612
C223	C	0.788925	-0.527801	-0.218605
C224	C	1.122258	-0.194468	0.114728
C225	C	1.455591	0.138866	0.448062
C226	C	0.788899	-0.473196	-0.218599
C227	C	1.122232	-0.139862	0.114735
C228	C	1.455566	0.193471	0.448068
C229	C	0.721987	-0.473230	-0.285403
C230	C	1.055320	-0.139897	0.047930
C231	C	1.388653	0.193436	0.381263
C232	C	0.722010	-0.527831	-0.285408
C233	C	1.055343	-0.194498	0.047926
C234	C	1.388677	0.138836	0.381259
C235	C	0.755483	-0.555115	-0.252007
C236	C	1.088817	-0.221782	0.081327
C237	C	1.422150	0.111552	0.414660
O238	O	0.693601	-0.614226	-0.313794
O239	O	1.026935	-0.280893	0.019540
O240	O	1.360268	0.052441	0.352873
O241	O	0.817419	-0.614210	-0.190216
O242	O	1.150753	-0.280877	0.143117
O243	O	1.484086	0.052456	0.476451
C244	C	0.891885	-0.251973	-0.252049
C245	C	1.225218	0.081360	0.081285
C246	C	1.558552	0.414693	0.414618
C247	C	0.949999	-0.251982	-0.252064
C248	C	1.283332	0.081351	0.081269
C249	C	1.616666	0.414684	0.414603
C250	C	0.755546	-0.251928	-0.388386
C251	C	1.088879	0.081405	-0.055053
C252	C	1.422213	0.414738	0.278281
C253	C	0.755560	-0.251918	-0.446500
C254	C	1.088894	0.081415	-0.113167
C255	C	1.422227	0.414748	0.220167
C256	C	0.755614	-0.115579	-0.252048
C257	C	1.088948	0.217754	0.081285
C258	C	1.422281	0.551087	0.414618
C259	C	0.755658	-0.057465	-0.252064
C260	C	1.088992	0.275868	0.081270
C261	C	1.422325	0.609201	0.414603
C262	C	0.722160	-0.218411	-0.806869
C263	C	1.055493	0.114923	-0.473535
C264	C	1.388827	0.448256	-0.140202
C265	C	0.722163	-0.218401	-0.861473
C266	C	1.055496	0.114932	-0.528140
C267	C	1.388829	0.448266	-0.194806
O268	O	0.693738	-0.189969	-0.889714
O269	O	1.027071	0.143364	-0.556381
O270	O	1.360405	0.476698	-0.223048
N271	N	0.755578	-0.251836	-0.888783
N272	N	1.088911	0.081497	-0.555449
N273	N	1.422244	0.414830	-0.222116
C274	C	0.788988	-0.285287	-0.861485
C275	C	1.122322	0.048046	-0.528152
C276	C	1.455655	0.381380	-0.194819
O277	O	0.817411	-0.313726	-0.889728
O278	O	1.150744	0.019608	-0.556395
O279	O	1.484077	0.352941	-0.223062
C280	C	0.788983	-0.285299	-0.806882
C281	C	1.122316	0.048035	-0.473549
C282	C	1.455649	0.381368	-0.140215
C283	C	0.755569	-0.251857	-0.779575
C284	C	1.088902	0.081476	-0.446242
C285	C	1.422236	0.414809	-0.112908
C286	C	0.688749	-0.184972	-0.779562
C287	C	1.022082	0.148361	-0.446228
C288	C	1.355415	0.481694	-0.112895
C289	C	0.688747	-0.184981	-0.724961
C290	C	1.022080	0.148352	-0.391628
C291	C	1.355413	0.481685	-0.058294
C292	C	0.722156	-0.218428	-0.697668
C293	C	1.055489	0.114905	-0.364334
C294	C	1.388823	0.448238	-0.031001
C295	C	0.755567	-0.251866	-0.724974
C296	C	1.088900	0.081467	-0.391641
C297	C	1.422234	0.414800	-0.058308
C298	C	0.822390	-0.318752	-0.779585
C299	C	1.155724	0.014582	-0.446252
C300	C	1.489057	0.347915	-0.112919
C301	C	0.822381	-0.318761	-0.724978
C302	C	1.155715	0.014573	-0.391645
C303	C	1.489048	0.347906	-0.058312
C304	C	0.788968	-0.285319	-0.697672
C305	C	1.122301	0.048014	-0.364338
C306	C	1.455634	0.381347	-0.031005
C307	C	0.788974	-0.285322	-0.643080
C308	C	1.122308	0.048011	-0.309747
C309	C	1.455641	0.381344	0.023586
N310	N	0.755559	-0.251887	-0.615771
N311	N	1.088893	0.081446	-0.282437
N312	N	1.422226	0.414780	0.050896
C313	C	0.722150	-0.218440	-0.643064
C314	C	1.055483	0.114893	-0.309731
C315	C	1.388817	0.448227	0.023602
C316	C	0.788998	-0.285260	-0.976156
C317	C	1.122331	0.048073	-0.642823
C318	C	1.455664	0.381406	-0.309489
C319	C	0.789006	-0.285246	-1.030758
C320	C	1.122340	0.048087	-0.697425
C321	C	1.455673	0.381420	-0.364092
C322	C	0.722180	-0.218361	-1.030742
C323	C	1.055513	0.114972	-0.697409
C324	C	1.388847	0.448306	-0.364076
C325	C	0.722174	-0.218373	-0.976139
C326	C	1.055507	0.114960	-0.642806
C327	C	1.388841	0.448294	-0.309472
C328	C	0.755583	-0.251825	-0.948846
C329	C	1.088916	0.081508	-0.615513
C330	C	1.422249	0.414841	-0.282180
C331	C	0.722149	-0.218461	-0.528399
C332	C	1.055482	0.114872	-0.195066
C333	C	1.388815	0.448206	0.138268
C334	C	0.722151	-0.218471	-0.473794
C335	C	1.055485	0.114862	-0.140460
C336	C	1.388818	0.448195	0.192873
C337	C	0.788976	-0.285358	-0.473814
C338	C	1.122309	0.047975	-0.140481
C339	C	1.455642	0.381308	0.192852
C340	C	0.788975	-0.285346	-0.528415
C341	C	1.122309	0.047987	-0.195082
C342	C	1.455642	0.381320	0.138252
C343	C	0.755558	-0.251896	-0.555706
C344	C	1.088891	0.081437	-0.222373
C345	C	1.422224	0.414771	0.110961
O346	O	0.817383	-0.313741	-0.614804
O347	O	1.150716	0.019592	-0.281471
O348	O	1.484050	0.352925	0.051862
O349	O	0.693728	-0.190011	-0.614814
O350	O	1.027061	0.143322	-0.281481
O351	O	1.360395	0.476656	0.051852
C352	C	0.755508	-0.251938	-0.116170
C353	C	1.088842	0.081395	0.217163
C354	C	1.422175	0.414728	0.550496
C355	C	0.755595	-0.251801	-0.058057
C356	C	1.088928	0.081532	0.275277
C357	C	1.422262	0.414865	0.608610
H358	H	0.206253	-0.157717	-0.158106
H359	H	0.539587	0.175617	0.175227
H360	H	0.872920	0.508950	0.508560
C361	C	0.685393	-1.060213	-0.322206
C362	C	1.018726	-0.726880	0.011128
C363	C	1.352060	-0.393546	0.344461
N364	N	0.657677	-1.082836	-0.349887
N365	N	0.991011	-0.749503	-0.016554
N366	N	1.324344	-0.416170	0.316780
H367	H	0.694942	-0.191237	-0.451563
H368	H	1.028275	0.142096	-0.118229
H369	H	1.361609	0.475430	0.215104
H370	H	0.694937	-0.191222	-0.550613
H371	H	1.028271	0.142111	-0.217280
H372	H	1.361604	0.475445	0.116054
C373	C	0.825766	-0.322049	-0.946139
C374	C	1.159099	0.011284	-0.612806
C375	C	1.492432	0.344617	-0.279472
N376	N	0.853462	-0.349756	-0.923533
N377	N	1.186796	-0.016423	-0.590199
N378	N	1.520129	0.316911	-0.256866
C379	C	0.198472	-0.355769	-0.355501
C380	C	0.531805	-0.022436	-0.022167
C381	C	0.865138	0.310897	0.311166
N382	N	0.175866	-0.383528	-0.383154
N383	N	0.509200	-0.050195	-0.049821
N384	N	0.842533	0.283139	0.283513
C385	C	-0.052725	-0.322297	-0.322160
C386	C	0.280608	0.011037	0.011173
C387	C	0.613941	0.344370	0.344506
N388	N	-0.075350	-0.350035	-0.349818
N389	N	0.257983	-0.016701	-0.016485
N390	N	0.591316	0.316632	0.316849
C391	C	0.449639	-0.322267	-0.322092
C392	C	0.782972	0.011067	0.011241
C393	C	1.116306	0.344400	0.344575
N394	N	0.427032	-0.350020	-0.349750
N395	N	0.760365	-0.016686	-0.016416
N396	N	1.093699	0.316647	0.316917
C397	C	0.651865	-0.809041	-0.355601
C398	C	0.985198	-0.475708	-0.022268
C399	C	1.318531	-0.142374	0.311065
N400	N	0.624151	-0.831661	-0.383287
N401	N	0.957484	-0.498328	-0.049954
N402	N	1.290818	-0.164994	0.283379
H403	H	0.556488	-0.312690	-0.312530
H404	H	0.889821	0.020644	0.020803
H405	H	1.223155	0.353977	0.354136
H406	H	0.305316	-0.346188	-0.345950
H407	H	0.638649	-0.012855	-0.012617
H408	H	0.971982	0.320479	0.320716
H409	H	0.849599	-0.345983	-0.801809
H410	H	1.182932	-0.012650	-0.468476
H411	H	1.516265	0.320683	-0.135143
H412	H	0.661536	-0.157752	-0.702733
H413	H	0.994869	0.175581	-0.369399
H414	H	1.328203	0.508914	-0.036066
C415	C	0.859289	-0.808963	-0.148487
C416	C	1.192623	-0.475630	0.184846
C417	C	1.525956	-0.142297	0.518179
N418	N	0.887017	-0.831561	-0.120804
N419	N	1.220350	-0.498227	0.212529
N420	N	1.553684	-0.164894	0.545862
H421	H	0.849690	-0.702120	-0.158024
H422	H	1.183023	-0.368787	0.175310
H423	H	1.516357	-0.035454	0.508643
H424	H	0.694922	-0.953358	-0.312656
H425	H	1.028255	-0.620025	0.020677
H426	H	1.361589	-0.286691	0.354011
H427	H	0.661393	-0.702188	-0.346042
H428	H	0.994726	-0.368854	-0.012709
H429	H	1.328060	-0.035521	0.320624
C430	C	0.685425	-0.181572	-1.060776
C431	C	1.018758	0.151761	-0.727442
C432	C	1.352092	0.485094	-0.394109
N433	N	0.657742	-0.153865	-1.083399
N434	N	0.991076	0.179468	-0.750065
N435	N	1.324409	0.512801	-0.416732
H436	H	0.054142	-0.312727	-0.312609
H437	H	0.387475	0.020607	0.020725
H438	H	0.720808	0.353940	0.354058
C439	C	0.825722	-0.322150	-0.443781
C440	C	1.159056	0.011183	-0.110448
C441	C	1.492389	0.344517	0.222886
N442	N	0.853397	-0.349865	-0.421158
N443	N	1.186730	-0.016531	-0.087825
N444	N	1.520064	0.316802	0.245508
C445	C	0.825768	-0.322030	-1.060790
C446	C	1.159101	0.011303	-0.727456
C447	C	1.492435	0.344636	-0.394123
N448	N	0.853456	-0.349740	-1.083408
N449	N	1.186789	-0.016406	-0.750074
N450	N	1.520122	0.316927	-0.416741
H451	H	0.694777	-0.550071	-0.312613
H452	H	1.028110	-0.216738	0.020720
H453	H	1.361444	0.116596	0.354054
C454	C	0.859137	-0.355559	-0.694960
C455	C	1.192471	-0.022225	-0.361627
C456	C	1.525804	0.311108	-0.028293
N457	N	0.886824	-0.383273	-0.672351
N458	N	1.220158	-0.049940	-0.339018
N459	N	1.553491	0.283394	-0.005684
H460	H	0.661540	-0.157736	-0.801778
H461	H	0.994874	0.175598	-0.468445
H462	H	1.328207	0.508931	-0.135112
C463	C	0.313104	-0.148138	-0.148559
C464	C	0.646437	0.185195	0.184774
C465	C	0.979770	0.518528	0.518107
N466	N	0.335714	-0.120391	-0.120899
N467	N	0.669048	0.212942	0.212434
N468	N	1.002381	0.546275	0.545767
C469	C	0.685179	-0.443205	-0.322141
C470	C	1.018512	-0.109871	0.011193
C471	C	1.351846	0.223462	0.344526
N472	N	0.657459	-0.420587	-0.349815
N473	N	0.990792	-0.087254	-0.016482
N474	N	1.324125	0.246079	0.316852
C475	C	0.449607	-0.181626	-0.181897
C476	C	0.782941	0.151707	0.151437
C477	C	1.116274	0.485040	0.484770
N478	N	0.426988	-0.153881	-0.154245
N479	N	0.760321	0.179452	0.179088
N480	N	1.093655	0.512786	0.512421
H481	H	0.694966	-0.191142	-0.953909
H482	H	1.028299	0.142192	-0.620576
H483	H	1.361633	0.475525	-0.287243
H484	H	-0.044927	-0.191238	-0.191502
H485	H	0.288407	0.142096	0.141831
H486	H	0.621740	0.475429	0.475165
C487	C	0.825691	-0.443154	-0.181843
C488	C	1.159025	-0.109820	0.151490
C489	C	1.492358	0.223513	0.484824
N490	N	0.853402	-0.420528	-0.154159
N491	N	1.186736	-0.087195	0.179174
N492	N	1.520069	0.246139	0.512508
H493	H	0.816189	-0.312571	-0.550650
H494	H	1.149522	0.020762	-0.217316
H495	H	1.482856	0.354096	0.116017
H496	H	0.816324	-0.953305	-0.191448
H497	H	1.149657	-0.619971	0.141885
H498	H	1.482990	-0.286638	0.475218
H499	H	0.054123	-0.191221	-0.191496
H500	H	0.387456	0.142113	0.141838
H501	H	0.720789	0.475446	0.475171
H502	H	0.556478	-0.191191	-0.191422
H503	H	0.889811	0.142143	0.141911
H504	H	1.223145	0.475476	0.475244
C505	C	0.825744	-0.557805	-0.181859
C506	C	1.159077	-0.224472	0.151474
C507	C	1.492411	0.108861	0.484808
N508	N	0.853473	-0.580404	-0.154179
N509	N	1.186807	-0.247071	0.179154
N510	N	1.520140	0.086262	0.512488
C511	C	0.825922	-1.060170	-0.181922
C512	C	1.159256	-0.726836	0.151411
C513	C	1.492589	-0.393503	0.484744
N514	N	0.853651	-1.082787	-0.154257
N515	N	1.186985	-0.749453	0.179077
N516	N	1.520318	-0.416120	0.512410
