data_functionalizedCrystal
_audit_creation_method	'MofGen! by Chris Wilmer'
_symmetry_space_group_name_H-M	'P1'
_symmetry_Int_Tables_number	1
_symmetry_cell_setting	triclinic
loop_
_symmetry_equiv_pos_as_xyz
  x,y,z
_cell_length_a	13.339070
_cell_length_b	13.339070
_cell_length_c	12.376457
_cell_angle_alpha	104.398083
_cell_angle_beta	75.589755
_cell_angle_gamma	115.629294
loop_
_atom_site_label
_atom_site_type_symbol
_atom_site_fract_x
_atom_site_fract_y
_atom_site_fract_z
O1	O	1.511964	0.535384	-0.094035
O2	O	1.197153	0.463125	-0.094030
O3	O	1.318428	0.341851	-0.094029
O4	O	1.390689	0.656659	-0.094037
O5	O	1.288108	0.372116	0.093983
O6	O	1.166834	0.493391	0.093982
O7	O	1.481644	0.565650	0.093976
Zn8	Zn	1.319425	0.534326	0.123830
Zn9	Zn	1.359372	0.494450	-0.123884
O10	O	1.360369	0.686924	0.093975
C11	C	1.140878	0.466052	-0.000024
C12	C	1.018364	0.429669	-0.000022
C13	C	0.732980	0.712564	-0.000047
C14	C	0.848090	0.746750	-0.000052
C15	C	0.890664	0.667483	-0.000044
C16	C	0.818117	0.554023	-0.000031
C17	C	0.702998	0.519831	-0.000035
C18	C	0.860682	0.474751	-0.000032
C19	C	0.788135	0.361291	-0.000020
C20	C	0.673027	0.327105	-0.000022
C21	C	0.630453	0.406372	-0.000030
C22	C	0.975801	0.508942	-0.000029
C23	C	0.945819	0.316210	-0.000017
C24	C	0.830709	0.282023	-0.000012
C25	C	1.291062	0.315868	-0.000024
C26	C	1.254679	0.193353	-0.000028
C27	C	1.537579	-0.092035	-0.000032
C28	C	1.571765	0.023075	-0.000022
C29	C	1.492496	0.065651	-0.000024
C30	C	1.379036	-0.006896	-0.000035
C31	C	1.344845	-0.122016	-0.000037
C32	C	1.299763	0.035669	-0.000028
C33	C	1.186303	-0.036877	-0.000040
C34	C	1.152118	-0.151986	-0.000042
C35	C	1.231386	-0.194561	-0.000040
C36	C	1.333954	0.150790	-0.000027
C37	C	1.141220	0.120808	-0.000031
C38	C	1.107034	0.005698	-0.000042
C39	C	1.537920	0.562723	-0.000033
C40	C	1.660435	0.599105	-0.000042
C41	C	1.387736	0.712907	-0.000032
C42	C	1.424120	0.835420	-0.000035
N43	N	1.292170	0.561541	0.292888
N44	N	1.386634	0.467227	-0.292942
C45	C	1.449896	0.404029	0.647875
C46	C	1.468966	0.384979	0.529535
C47	C	1.424768	0.429117	0.470367
C48	C	1.361498	0.492310	0.529551
C49	C	1.342434	0.511370	0.647902
C50	C	1.317306	0.536458	0.470395
C51	C	1.254035	0.599651	0.529579
C52	C	1.234974	0.618707	0.647918
C53	C	1.279171	0.574568	0.707086
C54	C	1.336370	0.517399	0.352044
C55	C	1.228907	0.624740	0.352071
C56	C	1.209837	0.643790	0.470411
H57	H	0.980482	0.251662	-0.000015
H58	H	0.536722	0.378543	-0.000025
O59	O	1.260451	0.592937	0.822045
C60	C	1.143563	0.547693	0.861602
H61	H	1.098851	0.479104	0.793409
H62	H	1.126751	0.510095	0.940771
H63	H	1.110568	0.617293	0.882615
H64	H	1.158322	0.695244	0.518613
H65	H	1.059730	-0.211050	-0.000042
H66	H	1.076672	0.155473	-0.000027
H67	H	1.014653	-0.053385	-0.000050
O68	O	1.002434	0.700577	0.000107
C69	C	1.016963	0.674849	0.097503
H70	H	0.936637	0.604107	0.129971
H71	H	1.090138	0.646821	0.075613
H72	H	1.035864	0.752810	0.165680
O73	O	1.530028	0.323255	0.471873
C74	C	1.537134	0.315656	0.354734
H75	H	1.523696	0.389067	0.338455
H76	H	1.623878	0.318950	0.309559
H77	H	1.469579	0.232810	0.321466
O78	O	1.397645	0.455811	0.294650
C79	C	1.344595	0.346776	0.323662
H80	H	1.251273	0.326789	0.356185
H81	H	1.354292	0.282643	0.245872
H82	H	1.385322	0.342725	0.392384
O83	O	1.444207	0.221175	-0.000226
C84	C	1.510181	0.186470	-0.097585
H85	H	1.455373	0.135103	-0.165642
H86	H	1.581650	0.263708	-0.130271
H87	H	1.546867	0.132536	-0.075570
O88	O	0.760368	0.171754	-0.000160
C89	C	0.795062	0.105809	-0.097544
H90	H	0.888141	0.152800	-0.130007
H91	H	0.781748	0.022345	-0.075641
H92	H	0.743353	0.088956	-0.165730
H93	H	1.664144	0.082135	-0.000012
H94	H	0.613963	0.234717	-0.000025
H95	H	1.602105	-0.126710	-0.000021
O96	O	1.525618	0.177491	0.000185
C97	C	1.468450	0.223393	0.097541
H98	H	1.439460	0.168268	0.165596
H99	H	1.527571	0.312120	0.130233
H100	H	1.392095	0.226909	0.075519
O101	O	1.173349	0.679941	0.705358
C102	C	1.064283	0.626875	0.676443
H103	H	1.044313	0.533565	0.643918
H104	H	1.000172	0.636543	0.754282
H105	H	1.060171	0.667606	0.607751
O106	O	1.443424	0.410806	0.355413
C107	C	1.501335	0.514954	0.315861
H108	H	1.547940	0.581662	0.384048
H109	H	1.564445	0.506296	0.236679
H110	H	1.438452	0.541120	0.294873
H111	H	1.203558	-0.288293	-0.000052
H112	H	1.485884	0.368104	0.696057
O113	O	1.186010	0.667501	0.294434
C114	C	1.216426	0.637152	0.177290
H115	H	1.235572	0.558783	0.161125
H116	H	1.143929	0.618742	0.132326
H117	H	1.294368	0.709386	0.143693
H118	H	1.034857	0.601322	-0.000035
H119	H	0.907151	0.839128	-0.000071
H120	H	0.698306	0.777089	-0.000063
