data_functionalizedCrystal
_audit_creation_method	'MofGen! by Chris Wilmer'
_symmetry_space_group_name_H-M	'P1'
_symmetry_Int_Tables_number	1
_symmetry_cell_setting	triclinic
loop_
_symmetry_equiv_pos_as_xyz
  x,y,z
_cell_length_a	18.101398
_cell_length_b	18.101397
_cell_length_c	17.077404
_cell_angle_alpha	90.014137
_cell_angle_beta	90.014212
_cell_angle_gamma	90.018196
loop_
_atom_site_label
_atom_site_type_symbol
_atom_site_fract_x
_atom_site_fract_y
_atom_site_fract_z
Zn1	Zn	1.132098	-0.295003	0.443948
Zn2	Zn	1.632098	0.204997	0.943948
Zn3	Zn	1.132040	-0.418813	0.312675
Zn4	Zn	1.632040	0.081187	0.812675
Zn5	Zn	1.008280	-0.294985	0.312683
Zn6	Zn	1.508280	0.205015	0.812683
Zn7	Zn	1.008231	-0.418802	0.443885
Zn8	Zn	1.508231	0.081198	0.943885
O9	O	1.070162	-0.356901	0.378298
O10	O	1.570162	0.143099	0.878298
O11	O	1.235724	-0.311438	0.426558
O12	O	1.735724	0.188562	0.926558
O13	O	1.115619	-0.402385	0.202829
O14	O	1.615619	0.097615	0.702829
O15	O	1.024750	-0.191355	0.330125
O16	O	1.524750	0.308645	0.830125
O17	O	1.235681	-0.402402	0.330112
O18	O	1.735681	0.097598	0.830112
O19	O	1.115719	-0.191367	0.426566
O20	O	1.615719	0.308633	0.926566
O21	O	1.024693	-0.311409	0.202835
O22	O	1.524693	0.188591	0.702835
O23	O	0.904641	-0.311398	0.330064
O24	O	1.404641	0.188602	0.830064
O25	O	1.024666	-0.402382	0.553741
O26	O	1.524666	0.097618	1.053741
O27	O	0.904605	-0.402365	0.426458
O28	O	1.404605	0.097635	0.926458
O29	O	1.115671	-0.311427	0.553787
O30	O	1.615671	0.188573	1.053787
O31	O	1.115572	-0.522445	0.330051
O32	O	1.615572	-0.022445	0.830051
O33	O	1.024610	-0.522436	0.426450
O34	O	1.524610	-0.022436	0.926450
C35	C	0.877752	-0.356879	0.378255
C36	C	1.377752	0.143121	0.878255
C37	C	0.795438	-0.356887	0.378256
C38	C	1.295438	0.143113	0.878256
C39	C	1.070099	-0.549311	0.378260
C40	C	1.570099	-0.049311	0.878260
C41	C	1.070140	-0.631625	0.378270
C42	C	1.570140	-0.131625	0.878270
C43	C	0.644729	-0.356903	0.378291
C44	C	1.144729	0.143097	0.878291
C45	C	0.613374	-0.299586	0.317744
C46	C	1.113374	0.200414	0.817744
C47	C	0.527755	-0.299371	0.317942
C48	C	1.027755	0.200629	0.817942
C49	C	0.496347	-0.356918	0.378324
C50	C	0.996347	0.143082	0.878324
C51	C	0.527468	-0.336108	0.461146
C52	C	1.027468	0.163892	0.961146
C53	C	0.613113	-0.335683	0.460776
C54	C	1.113113	0.164317	0.960776
C55	C	0.613144	-0.435177	0.356747
C56	C	1.113144	0.064823	0.856747
C57	C	0.527493	-0.434764	0.354942
C58	C	1.027493	0.065236	0.854942
C59	C	0.412487	-0.356927	0.378348
C60	C	0.912487	0.143073	0.878348
C61	C	0.728589	-0.356891	0.378273
C62	C	1.228589	0.143109	0.878273
C63	C	1.070234	-0.930716	0.378342
C64	C	1.570234	-0.430716	0.878342
C65	C	1.127305	-0.899366	0.317527
C66	C	1.627305	-0.399366	0.817527
C67	C	1.127503	-0.813747	0.317685
C68	C	1.627503	-0.313747	0.817685
C69	C	1.070187	-0.782334	0.378305
C70	C	1.570187	-0.282334	0.878305
C71	C	1.091329	-0.813364	0.461049
C72	C	1.591329	-0.313364	0.961049
C73	C	1.091770	-0.899009	0.460718
C74	C	1.591770	-0.399009	0.960718
C75	C	0.991869	-0.899216	0.357128
C76	C	1.491869	-0.399216	0.857128
C77	C	0.992256	-0.813567	0.355282
C78	C	1.492256	-0.313567	0.855282
C79	C	1.070160	-0.698474	0.378290
C80	C	1.570160	-0.198474	0.878290
C81	C	1.070264	-1.014576	0.378362
C82	C	1.570264	-0.514576	0.878362
C83	C	1.263324	-0.356923	0.378341
C84	C	1.763324	0.143077	0.878341
C85	C	1.345638	-0.356933	0.378360
C86	C	1.845638	0.143067	0.878360
C87	C	1.070169	-0.356905	0.583042
C88	C	1.570169	0.143095	1.083042
C89	C	1.070173	-0.356907	0.670292
C90	C	1.570173	0.143093	1.170292
C91	C	1.070246	-0.163739	0.378353
C92	C	1.570246	0.336261	0.878353
C93	C	1.070282	-0.081425	0.378377
C94	C	1.570282	0.418575	0.878377
C95	C	1.117553	-0.309555	0.711308
C96	C	1.617553	0.190445	1.211308
C97	C	1.117547	-0.309554	0.793288
C98	C	1.617547	0.190446	1.293288
C99	C	1.070163	-0.356910	0.834251
C100	C	1.570163	0.143090	1.334251
C101	C	1.022778	-0.404264	0.793230
C102	C	1.522778	0.095736	1.293230
C103	C	1.022781	-0.404261	0.711251
C104	C	1.522781	0.095739	1.211251
C105	C	1.022776	-0.404269	0.964100
C106	C	1.522776	0.095731	1.464100
C107	C	1.022774	-0.404273	1.046085
C108	C	1.522774	0.095727	1.546085
C109	C	1.117542	-0.309562	1.046137
C110	C	1.617542	0.190438	1.546137
C111	C	1.117545	-0.309559	0.964158
C112	C	1.617545	0.190441	1.464158
C113	C	1.070160	-0.356914	0.923142
C114	C	1.570160	0.143086	1.423142
C115	C	1.070152	-0.356915	1.174350
C116	C	1.570152	0.143085	1.674350
C117	C	1.070154	-0.356921	1.087100
C118	C	1.570154	0.143079	1.587100
H119	H	0.506711	-0.312351	0.256542
H120	H	1.006711	0.187649	0.756542
H121	H	0.984179	-0.442819	0.930708
H122	H	1.484179	0.057181	1.430708
C123	C	0.498504	-0.259685	0.486187
C124	C	0.998504	0.240315	0.986187
N125	N	0.476685	-0.202124	0.505046
N126	N	0.976685	0.297876	1.005046
C127	C	0.642455	-0.221670	0.336825
C128	C	1.142455	0.278330	0.836825
N129	N	0.664357	-0.162984	0.351202
N130	N	1.164357	0.337016	0.851202
C131	C	1.169157	-0.925930	0.484982
C132	C	1.669157	-0.425930	0.984982
N133	N	1.227448	-0.946204	0.503255
N134	N	1.727448	-0.446204	1.003255
C135	C	1.109663	-0.927238	0.234393
C136	C	1.609663	-0.427238	0.734393
N137	N	1.096372	-0.948235	0.171774
N138	N	1.596372	-0.448235	0.671774
H139	H	0.947448	-0.792190	0.396331
H140	H	1.447448	-0.292190	0.896331
H141	H	0.633104	-0.278477	0.478985
H142	H	1.133104	0.221523	0.978985
H143	H	1.185037	-0.920840	0.331402
H144	H	1.685037	-0.420840	0.831402
C145	C	0.934423	-0.926612	0.416964
C146	C	1.434423	-0.426612	0.916964
N147	N	0.891159	-0.947250	0.462034
N148	N	1.391159	-0.447250	0.962034
C149	C	0.970648	-0.456348	0.838293
C150	C	1.470648	0.043652	1.338293
N151	N	0.931383	-0.495579	0.872233
N152	N	1.431383	0.004421	1.372233
C153	C	0.641141	-0.389648	0.523836
C154	C	1.141141	0.110352	1.023836
N155	N	0.662249	-0.430288	0.571337
N156	N	1.162249	0.069712	1.071337
C157	C	0.640545	-0.492864	0.416315
C158	C	1.140545	0.007136	0.916315
N159	N	0.661188	-0.536309	0.461183
N160	N	1.161188	-0.036309	0.961183
H161	H	1.185552	-0.793210	0.331721
H162	H	1.685552	-0.293210	0.831721
C163	C	1.169665	-0.257470	1.091256
C164	C	1.669665	0.242530	1.591256
N165	N	1.208925	-0.218238	1.125243
N166	N	1.708925	0.281762	1.625243
H167	H	1.051031	-0.793016	0.507579
H168	H	1.551031	-0.293016	1.007579
H169	H	0.633928	-0.312419	0.256139
H170	H	1.133928	0.187581	0.756139
C171	C	1.038060	-0.927027	0.524027
C172	C	1.538060	-0.427027	1.024027
N173	N	0.997611	-0.948127	0.571717
N174	N	1.497611	-0.448127	1.071717
H175	H	1.156130	-0.270997	0.826679
H176	H	1.656130	0.229003	1.326679
H177	H	0.984188	-0.442833	1.079435
H178	H	1.484188	0.057167	1.579435
C179	C	0.970660	-0.456353	0.666134
C180	C	1.470660	0.043647	1.166134
N181	N	0.931399	-0.495590	0.632154
N182	N	1.431399	0.004410	1.132154
H183	H	0.507280	-0.241374	0.332246
H184	H	1.007280	0.258626	0.832246
H185	H	0.507127	-0.376584	0.507507
H186	H	1.007127	0.123416	1.007507
C187	C	0.642283	-0.460852	0.276516
C188	C	1.142283	0.039148	0.776516
N189	N	0.664231	-0.480182	0.216082
N190	N	1.164231	0.019818	0.716082
H191	H	0.507150	-0.450462	0.293989
H192	H	1.007150	0.049538	0.793989
H193	H	1.147968	-0.791864	0.479320
H194	H	1.647968	-0.291864	0.979320
C195	C	1.109610	-0.785404	0.234806
C196	C	1.609610	-0.285404	0.734806
N197	N	1.096125	-0.764059	0.172380
N198	N	1.596125	-0.264059	0.672380
H199	H	0.972633	-0.920860	0.297838
H200	H	1.472633	-0.420860	0.797838
H201	H	1.156133	-0.271002	0.930808
H202	H	1.656133	0.228998	1.430808
H203	H	0.506106	-0.479730	0.395797
H204	H	1.006106	0.020270	0.895797
H205	H	0.976315	-0.793291	0.294389
H206	H	1.476315	-0.293291	0.794389
C207	C	1.169679	-0.257459	0.666255
C208	C	1.669679	0.242541	1.166255
N209	N	1.208939	-0.218215	0.632324
N210	N	1.708939	0.281785	1.132324
