data_functionalizedCrystal
_audit_creation_method	'MofGen! by Chris Wilmer'
_symmetry_space_group_name_H-M	'P1'
_symmetry_Int_Tables_number	1
_symmetry_cell_setting	triclinic
loop_
_symmetry_equiv_pos_as_xyz
  x,y,z
_cell_length_a	16.109318
_cell_length_b	23.532357
_cell_length_c	15.186229
_cell_angle_alpha	89.990735
_cell_angle_beta	90.000224
_cell_angle_gamma	83.148428
loop_
_atom_site_label
_atom_site_type_symbol
_atom_site_fract_x
_atom_site_fract_y
_atom_site_fract_z
O1	O	1.102526	0.073251	-0.073166
O2	O	1.602526	0.573251	0.426834
O3	O	0.860393	0.082350	-0.073185
O4	O	1.360393	0.582350	0.426815
O5	O	0.988783	-0.005106	-0.073157
O6	O	1.488783	0.494894	0.426843
O7	O	0.974136	0.160707	-0.073195
O8	O	1.474136	0.660707	0.426805
O9	O	0.988774	-0.005107	0.073300
O10	O	1.488774	0.494893	0.573300
O11	O	0.860384	0.082349	0.073272
O12	O	1.360384	0.582349	0.573272
O13	O	1.102518	0.073249	0.073291
O14	O	1.602518	0.573249	0.573291
Zn15	Zn	0.981450	0.077799	0.096535
Zn16	Zn	1.481450	0.577799	0.596535
Zn17	Zn	0.981461	0.077801	-0.096429
Zn18	Zn	1.481461	0.577801	0.403571
O19	O	0.974128	0.160706	0.073263
O20	O	1.474128	0.660706	0.573263
C21	C	0.829417	0.081979	0.000041
C22	C	1.329417	0.581979	0.500041
C23	C	0.737131	0.080869	0.000034
C24	C	1.237131	0.580869	0.500034
C25	C	0.438091	0.077284	-0.079783
C26	C	0.938091	0.577284	0.420217
C27	C	0.524804	0.078323	-0.079789
C28	C	1.024804	0.578323	0.420211
C29	C	0.524814	0.078314	0.079887
C30	C	1.024814	0.578314	0.579887
C31	C	0.438103	0.077271	0.079892
C32	C	0.938103	0.577271	0.579892
C33	C	0.394744	0.076758	0.000054
C34	C	0.894744	0.576758	0.500054
C35	C	0.568167	0.078841	0.000044
C36	C	1.068167	0.578841	0.500044
C37	C	0.662185	0.079968	0.000038
C38	C	1.162185	0.579968	0.500038
C39	C	0.300720	0.075630	0.000059
C40	C	0.800720	0.575630	0.500059
C41	C	0.988412	-0.026324	0.000074
C42	C	1.488412	0.473676	0.500074
C43	C	0.987311	-0.089547	0.000082
C44	C	1.487311	0.410453	0.500082
C45	C	0.980401	-0.481584	-0.079800
C46	C	1.480401	0.018416	0.420200
C47	C	0.979353	-0.540987	-0.079805
C48	C	1.479353	-0.040987	0.420195
O49	O	0.978788	-0.571705	-0.147700
O50	O	1.478788	-0.071705	0.352300
N51	N	0.978830	-0.570701	0.000028
N52	N	1.478830	-0.070701	0.500028
C53	C	0.979344	-0.541007	0.079871
C54	C	1.479344	-0.041007	0.579871
O55	O	0.978802	-0.571736	0.147775
O56	O	1.478802	-0.071736	0.647775
C57	C	0.980385	-0.481604	0.079875
C58	C	1.480385	0.018396	0.579875
C59	C	0.980918	-0.451895	0.000037
C60	C	1.480918	0.048105	0.500037
C61	C	0.980932	-0.451873	-0.159631
C62	C	1.480932	0.048127	0.340369
C63	C	0.981980	-0.392474	-0.159626
C64	C	1.481980	0.107526	0.340374
C65	C	0.982498	-0.362785	-0.079789
C66	C	1.482498	0.137215	0.420211
C67	C	0.981966	-0.392495	0.000043
C68	C	1.481966	0.107505	0.500043
C69	C	0.980894	-0.451912	0.159717
C70	C	1.480894	0.048088	0.659717
C71	C	0.981935	-0.392505	0.159715
C72	C	1.481935	0.107495	0.659715
C73	C	0.982467	-0.362795	0.079877
C74	C	1.482467	0.137205	0.579877
C75	C	0.983532	-0.303407	0.079885
C76	C	1.483532	0.196593	0.579885
N77	N	0.984056	-0.273693	0.000052
N78	N	1.484056	0.226307	0.500052
C79	C	0.983539	-0.303382	-0.079785
C80	C	1.483539	0.196618	0.420215
C81	C	0.977157	-0.665757	0.079856
C82	C	1.477157	-0.165757	0.579856
C83	C	0.976122	-0.725159	0.079853
C84	C	1.476122	-0.225159	0.579853
C85	C	0.976129	-0.725135	-0.079823
C86	C	1.476129	-0.225135	0.420177
C87	C	0.977170	-0.665732	-0.079819
C88	C	1.477170	-0.165732	0.420181
C89	C	0.977680	-0.636043	0.000023
C90	C	1.477680	-0.136043	0.500023
C91	C	0.985741	-0.178640	-0.079767
C92	C	1.485741	0.321360	0.420233
C93	C	0.986793	-0.119236	-0.079755
C94	C	1.486793	0.380764	0.420245
C95	C	0.986781	-0.119266	0.079921
C96	C	1.486781	0.380734	0.579921
C97	C	0.985734	-0.178665	0.079909
C98	C	1.485734	0.321335	0.579909
C99	C	0.985211	-0.208350	0.000058
C100	C	1.485211	0.291650	0.500058
O101	O	0.984095	-0.272651	0.147746
O102	O	1.484095	0.227349	0.647746
O103	O	0.984070	-0.272646	-0.147677
O104	O	1.484070	0.227354	0.352323
C105	C	1.133494	0.073620	0.000063
C106	C	1.633494	0.573620	0.500063
C107	C	1.225779	0.074731	0.000063
C108	C	1.725779	0.574731	0.500063
C109	C	0.974498	0.181924	0.000029
C110	C	1.474498	0.681924	0.500029
C111	C	0.975600	0.245147	0.000015
C112	C	1.475600	0.745147	0.500015
N113	N	0.981448	0.077798	0.228227
N114	N	1.481448	0.577798	0.728227
N115	N	0.981469	0.077798	-0.228122
N116	N	1.481469	0.577798	0.271878
C117	C	1.038318	0.039085	0.453963
C118	C	1.538318	0.539085	0.953963
C119	C	1.038321	0.039084	0.546152
C120	C	1.538321	0.539084	1.046152
C121	C	0.924593	0.116512	0.546136
C122	C	1.424593	0.616512	1.046136
C123	C	0.924587	0.116510	0.453948
C124	C	1.424587	0.616510	0.953948
C125	C	0.981454	0.077797	0.407864
C126	C	1.481454	0.577797	0.907864
C127	C	0.981463	0.077798	0.592242
C128	C	1.481463	0.577798	1.092242
C129	C	0.981465	0.077797	0.692198
C130	C	1.481465	0.577797	1.192198
C131	C	0.981451	0.077798	0.307901
C132	C	1.481451	0.577798	0.807901
H133	H	0.560094	0.078750	-0.144800
H134	H	1.060094	0.578750	0.355200
H135	H	0.878294	0.148032	0.583668
H136	H	1.378294	0.648032	1.083668
H137	H	0.878277	0.148035	0.416412
H138	H	1.378277	0.648035	0.916412
C139	C	0.975544	-0.757834	0.167681
C140	C	1.475544	-0.257834	0.667681
N141	N	0.975103	-0.782442	0.233836
N142	N	1.475103	-0.282442	0.733836
H143	H	0.402809	0.076842	0.144909
H144	H	0.902809	0.576842	0.644909
C145	C	1.100869	-0.003508	0.596857
C146	C	1.600869	0.496492	1.096857
N147	N	1.147981	-0.035591	0.635047
N148	N	1.647981	0.464409	1.135047
H149	H	0.980462	-0.476091	0.224730
H150	H	1.480462	0.023909	0.724730
H151	H	0.402791	0.076866	-0.144792
H152	H	0.902791	0.576866	0.355208
C153	C	1.100868	-0.003505	0.403273
C154	C	1.600868	0.496495	0.903273
N155	N	1.147979	-0.035586	0.365096
N156	N	1.647979	0.464414	0.865096
C157	C	0.572511	0.078908	0.167704
C158	C	1.072511	0.578908	0.667704
N159	N	0.608434	0.079366	0.233849
N160	N	1.108434	0.579366	0.733849
C161	C	0.987376	-0.086558	-0.167586
C162	C	1.487376	0.413442	0.332414
N163	N	0.987813	-0.061947	-0.233739
N164	N	1.487813	0.438053	0.266261
C165	C	0.985181	-0.211287	-0.167607
C166	C	1.485181	0.288713	0.332393
N167	N	0.984768	-0.235877	-0.233769
N168	N	1.484768	0.264123	0.266231
H169	H	0.980508	-0.476040	-0.224647
H170	H	1.480508	0.023960	0.275353
C171	C	0.982556	-0.359800	-0.247455
C172	C	1.482556	0.140200	0.252545
N173	N	0.982986	-0.335193	-0.313612
N174	N	1.482986	0.164807	0.186388
H175	H	0.982338	-0.368334	0.224734
H176	H	1.482338	0.131666	0.724734
H177	H	0.975705	-0.749318	-0.144831
H178	H	1.475705	-0.249318	0.355169
C179	C	0.977748	-0.633056	-0.167646
C180	C	1.477748	-0.133056	0.332354
N181	N	0.978180	-0.608447	-0.233801
N182	N	1.478180	-0.108447	0.266199
C183	C	0.977731	-0.633106	0.167695
C184	C	1.477731	-0.133106	0.667695
N185	N	0.978164	-0.608516	0.233855
N186	N	1.478164	-0.108516	0.733855
H187	H	0.985308	-0.202857	0.144920
H188	H	1.485308	0.297143	0.644920
C189	C	0.987342	-0.086596	0.167737
C190	C	1.487342	0.413404	0.667737
N191	N	0.987756	-0.061986	0.233881
N192	N	1.487756	0.438014	0.733881
