data_functionalizedCrystal
_audit_creation_method	'MofGen! by Chris Wilmer'
_symmetry_space_group_name_H-M	'P1'
_symmetry_Int_Tables_number	1
_symmetry_cell_setting	triclinic
loop_
_symmetry_equiv_pos_as_xyz
  x,y,z
_cell_length_a	15.500235
_cell_length_b	15.944551
_cell_length_c	15.944551
_cell_angle_alpha	96.501262
_cell_angle_beta	87.159693
_cell_angle_gamma	87.173474
loop_
_atom_site_label
_atom_site_type_symbol
_atom_site_fract_x
_atom_site_fract_y
_atom_site_fract_z
O1	O	0.071855	-1.118411	0.104424
O2	O	0.071877	-0.873863	0.117779
O3	O	0.071858	-1.002815	-0.011173
O4	O	0.071875	-0.989459	0.233376
O5	O	-0.072030	-0.995020	-0.003351
O6	O	-0.072010	-0.866068	0.125601
O7	O	-0.072032	-1.110616	0.112246
Cu8	Cu	-0.085159	-0.987630	0.119638
Cu9	Cu	0.085004	-0.996849	0.110387
O10	O	-0.072013	-0.981664	0.241198
C11	C	-0.000064	-0.838672	0.121135
C12	C	-0.000056	-0.745426	0.119473
C13	C	-0.000086	-0.998363	-0.038556
C14	C	-0.000086	-0.996700	-0.131802
N15	N	-0.204843	-0.981153	0.126144
C16	C	-0.750026	-0.948679	0.158501
C17	C	-0.659454	-0.953596	0.153597
C18	C	-0.614170	-1.013172	0.094069
C19	C	-0.659462	-1.067829	0.039436
C20	C	-0.750032	-1.062907	0.044337
C21	C	-0.340706	-1.030887	0.076412
C22	C	-0.250129	-1.035807	0.071517
C23	C	-0.250127	-0.921573	0.185677
C24	C	-0.340699	-0.916660	0.190577
C25	C	-0.385984	-0.971313	0.135941
C26	C	-0.521591	-1.018202	0.089056
C27	C	-0.478561	-0.966279	0.140950
N28	N	0.204688	-1.003333	0.103874
C29	C	-0.000089	-1.145808	0.108889
C30	C	-0.000092	-1.239054	0.110552
C31	C	-0.000078	-0.530568	0.035569
C32	C	0.070868	-0.473391	0.070675
C33	C	-0.000066	-0.574699	0.116466
C34	C	-0.070993	-0.465728	0.078406
C35	C	-0.000080	-0.409786	0.113556
C36	C	0.070939	-0.518754	0.151590
C37	C	-0.070986	-0.511094	0.159314
C38	C	-0.000022	-0.453936	0.194477
C39	C	-0.000058	-0.669702	0.118140
C40	C	-0.000083	-0.314785	0.111888
C41	C	-0.000067	-0.912797	-0.346660
C42	C	-0.071016	-0.947916	-0.403820
C43	C	-0.000079	-0.993694	-0.302528
C44	C	0.070846	-0.955620	-0.411516
C45	C	-0.000069	-0.990783	-0.467441
C46	C	-0.071087	-1.028831	-0.358457
C47	C	0.070839	-1.036528	-0.366150
C48	C	-0.000127	-1.071705	-0.423291
C49	C	-0.000086	-0.995368	-0.207526
C50	C	-0.000068	-0.989115	-0.562443
C51	C	-0.000067	-0.986117	0.268581
C52	C	-0.000061	-0.987779	0.361826
H53	H	-0.786890	-0.900170	0.206979
N54	N	-0.201290	-0.862620	0.244599
H55	H	-0.163729	-0.896750	0.279784
H56	H	-0.163746	-0.827487	0.210382
H57	H	-0.130965	-0.527976	0.196762
H58	H	0.000022	-0.420780	0.261682
H59	H	-0.130971	-0.442393	0.047436
N60	N	0.150288	-1.086111	-0.343797
H61	H	0.149392	-1.087322	-0.280565
H62	H	0.150808	-1.145804	-0.372890
N63	N	-0.201306	-1.100052	0.007277
H64	H	-0.163720	-1.069983	-0.031963
H65	H	-0.163789	-1.139282	0.037403
H66	H	0.000005	-0.563905	-0.031573
N67	N	0.150293	-0.914588	-0.442452
H68	H	0.150231	-0.854568	-0.414283
H69	H	0.203832	-0.947500	-0.428050
H70	H	0.130844	-0.456530	0.033198
N71	N	-0.000177	-1.160719	-0.467222
H72	H	-0.000713	-1.202054	-0.423677
H73	H	-0.053269	-1.166723	-0.501196
N74	N	-0.000142	-0.823850	-0.302535
H75	H	-0.053780	-0.790495	-0.315997
H76	H	0.000440	-0.825697	-0.239458
H77	H	-0.130991	-0.910451	-0.420668
N78	N	0.150479	-0.549529	0.192555
H79	H	0.150007	-0.612748	0.193399
H80	H	0.203951	-0.535479	0.159297
N81	N	-0.527403	-0.902021	0.205148
H82	H	-0.565000	-0.932077	0.244391
H83	H	-0.484922	-0.868159	0.238956
N84	N	-0.150626	-1.069812	-0.327664
H85	H	-0.150153	-1.070656	-0.264445
H86	H	-0.204099	-1.036564	-0.341701
H87	H	-0.622582	-0.909092	0.198078
H88	H	-0.377568	-0.868148	0.239049
H89	H	-0.377569	-1.075390	0.031927
H90	H	-0.622586	-1.116334	-0.009038
H91	H	-0.484713	-1.066711	0.040588
N92	N	-0.798881	-1.121855	-0.014581
H93	H	-0.756452	-1.160346	-0.053033
H94	H	-0.836477	-1.156940	0.019640
