data_functionalizedCrystal
_audit_creation_method	'MofGen! by Chris Wilmer'
_symmetry_space_group_name_H-M	'P1'
_symmetry_Int_Tables_number	1
_symmetry_cell_setting	triclinic
loop_
_symmetry_equiv_pos_as_xyz
  x,y,z
_cell_length_a	17.038272
_cell_length_b	23.532407
_cell_length_c	16.098538
_cell_angle_alpha	92.700973
_cell_angle_beta	87.069734
_cell_angle_gamma	86.980117
loop_
_atom_site_label
_atom_site_type_symbol
_atom_site_fract_x
_atom_site_fract_y
_atom_site_fract_z
O1	O	1.039966	0.121251	-0.069166
O2	O	0.812351	0.119288	-0.069191
O3	O	0.933021	0.037699	-0.069163
O4	O	0.919295	0.202840	-0.069195
O5	O	0.925973	0.042445	0.069349
O6	O	0.805302	0.124034	0.069321
O7	O	1.032917	0.125997	0.069345
Zn8	Zn	0.917990	0.125769	0.091324
Zn9	Zn	0.927278	0.119516	-0.091170
O10	O	0.912247	0.207586	0.069317
C11	C	0.779712	0.119875	0.000062
C12	C	0.692959	0.114548	0.000054
C13	C	0.642483	0.163453	0.000045
C14	C	0.560969	0.158445	0.000057
C15	C	0.529932	0.104532	0.000072
C16	C	0.580415	0.055624	0.000084
C17	C	0.661927	0.060632	0.000077
C18	C	0.284304	0.086837	0.000098
C19	C	0.202786	0.081832	0.000102
C20	C	0.183345	0.184654	0.000077
C21	C	0.264860	0.189657	0.000066
C22	C	0.315335	0.140750	0.000081
C23	C	0.446612	0.099411	0.000083
C24	C	0.398653	0.145871	0.000077
C25	C	0.929147	0.018838	0.000095
C26	C	0.928096	-0.044434	0.000101
C27	C	0.992917	-0.440131	0.000063
C28	C	0.991941	-0.499583	0.000056
O29	O	1.052030	-0.533169	0.000032
N30	N	0.920202	-0.525981	0.000049
C31	C	0.849435	-0.492924	0.000040
O32	O	0.788325	-0.520836	0.000033
C33	C	0.850412	-0.433473	0.000041
C34	C	0.922155	-0.407078	0.000056
C35	C	1.064654	-0.413736	0.000077
C36	C	1.065630	-0.354288	0.000085
C37	C	0.994868	-0.321236	0.000079
C38	C	0.923131	-0.347631	0.000064
C39	C	0.779646	-0.400418	0.000026
C40	C	0.780629	-0.340963	0.000025
C41	C	0.852372	-0.314569	0.000041
C42	C	0.853344	-0.255130	0.000066
N43	N	0.925083	-0.228732	0.000073
C44	C	0.995845	-0.261785	0.000079
C45	C	0.847388	-0.617774	0.000038
C46	C	0.846410	-0.677223	0.000043
C47	C	0.988917	-0.683878	0.000058
C48	C	0.989894	-0.624428	0.000058
C49	C	0.919127	-0.591376	0.000045
C50	C	0.997889	-0.136940	0.000097
C51	C	0.998858	-0.077487	0.000108
C52	C	0.856352	-0.070837	0.000089
C53	C	0.855382	-0.130285	0.000082
C54	C	0.926157	-0.163336	0.000083
O55	O	0.793287	-0.221508	0.000086
O56	O	1.056945	-0.233865	0.000076
C57	C	1.065556	0.125410	0.000090
C58	C	1.152310	0.130737	0.000093
C59	C	0.916121	0.226447	0.000057
C60	C	0.917172	0.289719	0.000045
N61	N	0.911658	0.130036	0.215872
N62	N	0.933616	0.115244	-0.215718
C63	C	0.962894	0.095421	0.259469
C64	C	0.958471	0.098412	0.346657
C65	C	0.902816	0.136022	0.390246
C66	C	0.851574	0.170639	0.346643
C67	C	0.855994	0.167644	0.259457
C68	C	0.886795	0.146867	0.653493
C69	C	0.882380	0.149860	0.740685
C70	C	0.989277	0.077632	0.740693
C71	C	0.993694	0.074644	0.653505
C72	C	0.942450	0.109258	0.609909
C73	C	0.898295	0.139081	0.479366
C74	C	0.946968	0.106195	0.520791
H75	H	0.325392	0.047013	0.000112
O76	O	0.506526	0.211192	0.000051
H77	H	0.520366	0.234867	-0.056415
H78	H	1.057282	-0.055999	0.000123
H79	H	1.000191	0.070225	0.382153
H80	H	0.555138	0.011727	0.000108
O81	O	1.065244	-0.719532	0.000062
H82	H	1.071079	-0.748701	-0.056399
O83	O	0.769028	-0.705687	0.000045
H84	H	0.768042	-0.734544	-0.056409
O85	O	0.771056	-0.582125	0.000045
H86	H	0.721013	-0.610473	0.000051
H87	H	0.992280	0.075571	0.485298
H88	H	0.290124	0.233559	0.000043
H89	H	0.814271	0.195831	0.223961
H90	H	0.703024	0.020809	0.000084
H91	H	1.030996	0.049450	0.776196
H92	H	0.845071	0.175052	0.618004
H93	H	1.039013	0.044019	0.618016
O94	O	1.022912	0.054851	0.212449
H95	H	1.082936	0.065647	0.229168
H96	H	0.837057	0.180488	0.776172
H97	H	0.723001	-0.314056	0.000013
H98	H	0.721225	-0.421898	0.000008
O99	O	0.791547	0.211207	0.393651
H100	H	0.797087	0.207480	0.461602
O101	O	0.778005	-0.158760	0.000068
H102	H	0.728965	-0.125786	0.000061
O103	O	1.140986	-0.449377	0.000089
H104	H	1.128271	-0.495154	0.000082
O105	O	0.413137	0.041263	0.000099
H106	H	0.379330	0.034587	-0.056353
O107	O	0.675957	0.221602	0.000036
H108	H	0.627159	0.254767	0.000043
O109	O	0.128906	0.237404	0.000078
H110	H	0.067011	0.224867	0.000095
O111	O	1.074221	-0.172583	0.000110
H112	H	1.124262	-0.144233	0.000131
O113	O	0.169306	0.023681	0.000127
H114	H	0.218097	-0.009487	0.000145
O115	O	0.838278	0.179653	0.526383
H116	H	0.798472	0.155198	0.566126
H117	H	0.423926	0.189766	0.000069
O118	O	1.143011	-0.325823	0.000078
H119	H	1.192046	-0.358802	0.000067
H120	H	0.798739	-0.043915	0.000087
O121	O	1.067273	-0.595961	0.000070
H122	H	1.074000	-0.570963	-0.056384
