data_functionalizedCrystal
_audit_creation_method	'MofGen! by Chris Wilmer'
_symmetry_space_group_name_H-M	'P1'
_symmetry_Int_Tables_number	1
_symmetry_cell_setting	triclinic
loop_
_symmetry_equiv_pos_as_xyz
  x,y,z
_cell_length_a	16.120566
_cell_length_b	21.395363
_cell_length_c	21.395063
_cell_angle_alpha	89.654501
_cell_angle_beta	92.984036
_cell_angle_gamma	92.901067
loop_
_atom_site_label
_atom_site_type_symbol
_atom_site_fract_x
_atom_site_fract_y
_atom_site_fract_z
Zn1	Zn	-1.275140	-0.295768	-0.402935
Zn2	Zn	-0.775140	0.204232	0.097065
Zn3	Zn	-1.274976	-0.401146	-0.298174
Zn4	Zn	-0.774976	0.098854	0.201826
Zn5	Zn	-1.135599	-0.291099	-0.292850
Zn6	Zn	-0.635599	0.208901	0.207150
Zn7	Zn	-1.135731	-0.395223	-0.397611
Zn8	Zn	-0.635731	0.104777	0.102389
O9	O	-1.205361	-0.345809	-0.347893
O10	O	-0.705361	0.154191	0.152107
O11	O	-1.391791	-0.314178	-0.393495
O12	O	-0.891791	0.185822	0.106505
O13	O	-1.256363	-0.387072	-0.209783
O14	O	-0.756363	0.112928	0.290217
O15	O	-1.154122	-0.204041	-0.307453
O16	O	-0.654122	0.295959	0.192547
O17	O	-1.391670	-0.391599	-0.316527
O18	O	-0.891670	0.108401	0.183473
O19	O	-1.256643	-0.207471	-0.388332
O20	O	-0.756643	0.292529	0.111668
O21	O	-1.153963	-0.306222	-0.205871
O22	O	-0.653963	0.193778	0.294129
O23	O	-1.018943	-0.300479	-0.302290
O24	O	-0.518943	0.199521	0.197710
O25	O	-1.154348	-0.381505	-0.486003
O26	O	-0.654348	0.118495	0.013997
O27	O	-1.019041	-0.376979	-0.379258
O28	O	-0.519041	0.123021	0.120742
O29	O	-1.256771	-0.308436	-0.489914
O30	O	-0.756771	0.191564	0.010086
O31	O	-1.256491	-0.488037	-0.311365
O32	O	-0.756491	0.011963	0.188635
O33	O	-1.154189	-0.483686	-0.384421
O34	O	-0.654189	0.016314	0.115579
C35	C	-0.988740	-0.337580	-0.339619
C36	C	-0.488740	0.162420	0.160381
C37	C	-0.896068	-0.334075	-0.336094
C38	C	-0.396068	0.165925	0.163906
C39	C	-0.726396	-0.327660	-0.329665
C40	C	-0.226396	0.172340	0.170335
C41	C	-0.685167	-0.364011	-0.366125
C42	C	-0.185167	0.135989	0.133875
C43	C	-0.590755	-0.360442	-0.362548
C44	C	-0.090755	0.139558	0.137452
C45	C	-0.820816	-0.331229	-0.333242
C46	C	-0.320816	0.168771	0.166758
C47	C	-1.205359	-0.508596	-0.347908
C48	C	-0.705359	-0.008596	0.152092
C49	C	-1.205435	-0.578240	-0.347938
C50	C	-0.705435	-0.078240	0.152062
C51	C	-0.422829	-0.354072	-0.356189
C52	C	0.077171	0.145928	0.143811
C53	C	-0.515500	-0.357599	-0.359698
C54	C	-0.015500	0.142401	0.140302
C55	C	-1.205593	-0.344831	-0.511330
C56	C	-0.705593	0.155169	-0.011330
C57	C	-1.205692	-0.344414	-0.580977
C58	C	-0.705692	0.155586	-0.080977
C59	C	-1.205386	-0.182387	-0.347892
C60	C	-0.705386	0.317613	0.152108
C61	C	-1.205397	-0.112746	-0.347892
C62	C	-0.705397	0.387254	0.152108
C63	C	-1.152029	-0.078246	-0.305784
C64	C	-0.652029	0.421754	0.194216
C65	C	-1.152028	-0.012811	-0.305791
C66	C	-0.652028	0.487189	0.194209
C67	C	-1.205410	0.018122	-0.347901
C68	C	-0.705410	0.518122	0.152099
C69	C	-1.258781	-0.016385	-0.390017
C70	C	-0.758781	0.483615	0.109983
C71	C	-1.258774	-0.081819	-0.390012
C72	C	-0.758774	0.418181	0.109988
C73	C	-1.280544	0.118967	-0.355722
C74	C	-0.780544	0.618967	0.144278
C75	C	-1.280552	0.184400	-0.355722
C76	C	-0.780552	0.684400	0.144278
C77	C	-1.205429	0.219942	-0.347918
C78	C	-0.705429	0.719942	0.152082
C79	C	-1.130296	0.190044	-0.340100
C80	C	-0.630296	0.690044	0.159900
C81	C	-1.130289	0.124610	-0.340096
C82	C	-0.630289	0.624610	0.159904
C83	C	-1.205422	0.089074	-0.347910
C84	C	-0.705422	0.589074	0.152090
C85	C	-1.152056	0.325395	-0.305816
C86	C	-0.652056	0.825395	0.194184
C87	C	-1.152054	0.390831	-0.305827
C88	C	-0.652054	0.890831	0.194173
C89	C	-1.258814	0.387255	-0.390050
C90	C	-0.758814	0.887255	0.109950
C91	C	-1.258808	0.321820	-0.390041
C92	C	-0.758808	0.821820	0.109959
C93	C	-1.205431	0.290894	-0.347921
C94	C	-0.705431	0.790894	0.152079
C95	C	-1.205179	-0.346740	-0.185093
C96	C	-0.705179	0.153260	0.314907
C97	C	-1.205241	-0.346986	-0.115452
C98	C	-0.705241	0.153014	0.384548
C99	C	-1.258198	-0.308477	-0.085269
C100	C	-0.758198	0.191523	0.414731
C101	C	-1.258259	-0.308165	-0.019838
C102	C	-0.758259	0.191835	0.480162
C103	C	-1.205348	-0.346354	0.015409
C104	C	-0.705348	0.153646	0.515409
C105	C	-1.152388	-0.384870	-0.014782
C106	C	-0.652388	0.115130	0.485218
C107	C	-1.152334	-0.385187	-0.080212
C108	C	-0.652334	0.114813	0.419788
C109	C	-1.130364	-0.348357	0.122090
C110	C	-0.630364	0.151643	0.622090
C111	C	-1.130416	-0.348037	0.187519
C112	C	-0.630416	0.151963	0.687519
C113	C	-1.205513	-0.345382	0.217218
C114	C	-0.705513	0.154618	0.717218
C115	C	-1.280560	-0.343035	0.181479
C116	C	-0.780560	0.156965	0.681479
C117	C	-1.280507	-0.343351	0.116048
C118	C	-0.780507	0.156649	0.616048
C119	C	-1.205400	-0.346015	0.086357
C120	C	-0.705400	0.153985	0.586357
C121	C	-1.258540	-0.306532	0.318348
C122	C	-0.758540	0.193468	0.818348
C123	C	-1.258602	-0.306224	0.383781
C124	C	-0.758602	0.193776	0.883781
C125	C	-1.152723	-0.382926	0.388836
C126	C	-0.652723	0.117074	0.888836
C127	C	-1.152669	-0.383238	0.323404
C128	C	-0.652669	0.116762	0.823404
C129	C	-1.205576	-0.345037	0.288164
C130	C	-0.705576	0.154963	0.788164
H131	H	-1.108564	-0.103422	-0.271487
H132	H	-0.608564	0.396578	0.228513
H133	H	-0.720774	-0.397812	-0.400028
H134	H	-0.220774	0.102188	0.099972
H135	H	-0.690791	-0.293862	-0.295766
H136	H	-0.190791	0.206138	0.204234
H137	H	-1.302271	0.293730	-0.424327
H138	H	-0.802271	0.793730	0.075673
Br139	Br	-1.028329	0.084036	-0.329490
Br140	Br	-0.528329	0.584036	0.170510
Br141	Br	-1.080926	-0.434765	0.436663
Br142	Br	-0.580926	0.065235	0.936663
H143	H	-1.108569	0.015284	-0.271501
H144	H	-0.608569	0.515284	0.228499
Br145	Br	-1.028337	0.238272	-0.329498
Br146	Br	-0.528337	0.738272	0.170502
Br147	Br	-1.079616	0.283419	-0.248655
Br148	Br	-0.579616	0.783419	0.251345
H149	H	-1.341613	-0.341442	0.086952
H150	H	-0.841613	0.158558	0.586952
Br151	Br	-1.079607	0.437655	-0.248685
Br152	Br	-0.579607	0.937655	0.251315
Br153	Br	-1.028567	-0.351213	0.236015
Br154	Br	-0.528567	0.148787	0.736015
H155	H	-1.302274	0.412440	-0.424338
H156	H	-0.802274	0.912440	0.075662
Br157	Br	-1.080795	-0.435503	0.282439
Br158	Br	-0.580795	0.064497	0.782439
H159	H	-1.341728	0.208740	-0.362084
H160	H	-0.841728	0.708740	0.137916
Br161	Br	-1.382506	0.070737	-0.366317
Br162	Br	-0.882506	0.570737	0.133683
H163	H	-1.302243	0.008804	-0.424304
H164	H	-0.802243	0.508804	0.075696
H165	H	-1.302232	-0.109909	-0.424304
H166	H	-0.802232	0.390091	0.075696
Br167	Br	-1.330036	-0.256662	-0.133093
Br168	Br	-0.830036	0.243338	0.366907
H169	H	-1.301382	-0.276804	0.004742
H170	H	-0.801382	0.223196	0.504742
Br171	Br	-1.080461	-0.437454	-0.121178
Br172	Br	-0.580461	0.062546	0.378822
H173	H	-1.341711	-0.340871	0.205657
H174	H	-0.841711	0.159129	0.705657
Br175	Br	-1.330321	-0.254675	0.270520
Br176	Br	-0.830321	0.245325	0.770520
Br177	Br	-1.330486	-0.253963	0.424744
Br178	Br	-0.830486	0.246037	0.924744
H179	H	-1.069207	-0.350520	0.097915
H180	H	-0.569207	0.149480	0.597915
H181	H	-1.109309	-0.415965	0.013920
H182	H	-0.609309	0.084035	0.513920
