data_functionalizedCrystal
_audit_creation_method	'MofGen! by Chris Wilmer'
_symmetry_space_group_name_H-M	'P1'
_symmetry_Int_Tables_number	1
_symmetry_cell_setting	triclinic
loop_
_symmetry_equiv_pos_as_xyz
  x,y,z
_cell_length_a	12.759399
_cell_length_b	21.395362
_cell_length_c	21.395355
_cell_angle_alpha	90.048039
_cell_angle_beta	89.985737
_cell_angle_gamma	89.966621
loop_
_atom_site_label
_atom_site_type_symbol
_atom_site_fract_x
_atom_site_fract_y
_atom_site_fract_z
Zn1	Zn	-0.417876	-0.957927	-0.354673
Zn2	Zn	0.082124	-0.457927	0.145327
Zn3	Zn	-0.593540	-0.957858	-0.249903
Zn4	Zn	-0.093540	-0.457858	0.250097
Zn5	Zn	-0.417932	-0.853142	-0.249866
Zn6	Zn	0.082068	-0.353142	0.250134
Zn7	Zn	-0.593569	-0.853140	-0.354600
Zn8	Zn	-0.093569	-0.353140	0.145400
O9	O	-0.505729	-0.905517	-0.302261
O10	O	-0.005729	-0.405517	0.197739
O11	O	-0.441142	-1.045596	-0.340820
O12	O	0.058858	-0.545596	0.159180
O13	O	-0.570257	-0.943940	-0.162220
O14	O	-0.070257	-0.443940	0.337780
O15	O	-0.270904	-0.867072	-0.263784
O16	O	0.229096	-0.367072	0.236216
O17	O	-0.570202	-1.045545	-0.263847
O18	O	-0.070202	-0.545545	0.236153
O19	O	-0.270862	-0.944057	-0.340785
O20	O	0.229138	-0.444057	0.159215
O21	O	-0.441238	-0.867005	-0.162193
O22	O	0.058762	-0.367005	0.337807
O23	O	-0.441266	-0.765464	-0.263714
O24	O	0.058734	-0.265464	0.236286
O25	O	-0.570252	-0.867068	-0.442288
O26	O	-0.070252	-0.367068	0.057712
O27	O	-0.570306	-0.765462	-0.340661
O28	O	-0.070306	-0.265462	0.159339
O29	O	-0.441171	-0.944055	-0.442341
O30	O	0.058829	-0.444055	0.057659
O31	O	-0.740565	-0.943937	-0.263776
O32	O	-0.240565	-0.443937	0.236224
O33	O	-0.740587	-0.867001	-0.340697
O34	O	-0.240587	-0.367001	0.159303
C35	C	-0.505796	-0.742729	-0.302176
C36	C	-0.005796	-0.242729	0.197824
C37	C	-0.505850	-0.673088	-0.302155
C38	C	-0.005850	-0.173088	0.197845
C39	C	-0.573133	-0.640390	-0.342159
C40	C	-0.073133	-0.140390	0.157841
C41	C	-0.573111	-0.574955	-0.342182
C42	C	-0.073111	-0.074955	0.157818
C43	C	-0.505819	-0.542220	-0.302190
C44	C	-0.005819	-0.042220	0.197810
C45	C	-0.438523	-0.574925	-0.262183
C46	C	0.061477	-0.074925	0.237817
C47	C	-0.438539	-0.640359	-0.262166
C48	C	0.061461	-0.140359	0.237834
C49	C	-0.497362	-0.438494	-0.245777
C50	C	0.002638	0.061506	0.254223
C51	C	-0.497354	-0.373061	-0.245794
C52	C	0.002646	0.126939	0.254206
C53	C	-0.505764	-0.340399	-0.302245
C54	C	-0.005764	0.159601	0.197755
C55	C	-0.514205	-0.373178	-0.358681
C56	C	-0.014205	0.126822	0.141319
C57	C	-0.514221	-0.438613	-0.358664
C58	C	-0.014221	0.061387	0.141336
C59	C	-0.505794	-0.471267	-0.302205
C60	C	-0.005794	0.028733	0.197795
C61	C	-0.573027	-0.236749	-0.342278
C62	C	-0.073027	0.263251	0.157722
C63	C	-0.572999	-0.171312	-0.342302
C64	C	-0.072999	0.328688	0.157698
C65	C	-0.438416	-0.171284	-0.262297
C66	C	0.061584	0.328716	0.237703
C67	C	-0.438439	-0.236719	-0.262279
C68	C	0.061561	0.263281	0.237721
C69	C	-0.505751	-0.269448	-0.302268
C70	C	-0.005751	0.230552	0.197732
C71	C	-0.778697	-0.905479	-0.302246
C72	C	-0.278697	-0.405479	0.197754
C73	C	-0.895473	-0.905520	-0.302261
C74	C	-0.395473	-0.405520	0.197739
C75	C	-0.950289	-0.945626	-0.262254
C76	C	-0.450289	-0.445626	0.237746
C77	C	-1.060013	-0.945666	-0.262275
C78	C	-0.560013	-0.445666	0.237725
C79	C	-1.060096	-0.865488	-0.342312
C80	C	-0.560096	-0.365488	0.157688
C81	C	-0.950374	-0.865452	-0.342294
C82	C	-0.450374	-0.365452	0.157706
C83	C	-1.209842	-1.019620	-0.240011
C84	C	-0.709842	-0.519620	0.259989
C85	C	-1.264661	-1.059720	-0.199995
C86	C	-0.764661	-0.559720	0.300005
C87	C	-1.229086	-1.069357	-0.138866
C88	C	-0.729086	-0.569357	0.361134
C89	C	-1.138693	-1.038884	-0.117741
C90	C	-0.638693	-0.538884	0.382259
C91	C	-1.083879	-0.998779	-0.157754
C92	C	-0.583879	-0.498779	0.342246
C93	C	-1.119453	-0.989154	-0.218892
C94	C	-0.619453	-0.489154	0.281108
C95	C	-0.800543	-0.791497	-0.364551
C96	C	-0.300543	-0.291497	0.135449
C97	C	-0.745727	-0.751388	-0.404562
C98	C	-0.245727	-0.251388	0.095438
C99	C	-0.781300	-0.741745	-0.465692
C100	C	-0.281300	-0.241745	0.034308
C101	C	-0.871697	-0.772207	-0.486814
C102	C	-0.371697	-0.272207	0.013186
C103	C	-0.926513	-0.812316	-0.446804
C104	C	-0.426513	-0.312316	0.053196
C105	C	-0.890932	-0.821960	-0.385674
C106	C	-0.390932	-0.321960	0.114326
C107	C	-0.231696	-0.905573	-0.302289
C108	C	0.268304	-0.405573	0.197711
C109	C	-0.114919	-0.905596	-0.302301
C110	C	0.385081	-0.405596	0.197699
C111	C	-0.505708	-0.905569	-0.465684
C112	C	-0.005708	-0.405569	0.034316
C113	C	-0.505699	-0.905591	-0.535325
C114	C	-0.005699	-0.405591	-0.035325
C115	C	-0.505681	-0.068940	-0.302328
C116	C	-0.005681	0.431060	0.197672
C117	C	-0.505704	-0.138582	-0.302310
C118	C	-0.005704	0.361418	0.197690
C119	C	-0.438484	-0.945677	-0.568067
C120	C	0.061516	-0.445677	-0.068067
C121	C	-0.438438	-0.945676	-0.633503
C122	C	0.061562	-0.445676	-0.133503
C123	C	-0.505627	-0.905596	-0.666194
C124	C	-0.005627	-0.405596	-0.166194
C125	C	-0.572848	-0.865503	-0.633444
C126	C	-0.072848	-0.365503	-0.133444
C127	C	-0.572883	-0.865501	-0.568010
C128	C	-0.072883	-0.365501	-0.068010
C129	C	-0.600229	-0.900636	-0.769861
C130	C	-0.100229	-0.400636	-0.269861
C131	C	-0.600195	-0.900642	-0.835294
C132	C	-0.100195	-0.400642	-0.335294
C133	C	-0.505516	-0.905600	-0.868014
C134	C	-0.005516	-0.405600	-0.368014
C135	C	-0.410869	-0.910564	-0.835294
C136	C	0.089131	-0.410564	-0.335294
C137	C	-0.410905	-0.910561	-0.769859
C138	C	0.089095	-0.410561	-0.269859
C139	C	-0.505596	-0.905594	-0.737146
C140	C	-0.005596	-0.405594	-0.237146
C141	C	-0.438246	-0.945686	-0.971709
C142	C	0.061754	-0.445686	-0.471709
C143	C	-0.438199	-0.945681	-1.037146
C144	C	0.061801	-0.445681	-0.537146
C145	C	-0.572618	-0.865512	-1.037086
C146	C	-0.072618	-0.365512	-0.537086
C147	C	-0.572655	-0.865514	-0.971650
C148	C	-0.072655	-0.365514	-0.471650
C149	C	-0.505471	-0.905604	-0.938966
C150	C	-0.005471	-0.405604	-0.438966
C151	C	-0.505675	-0.905501	-0.139473
C152	C	-0.005675	-0.405501	0.360527
C153	C	-0.505388	-0.905600	-0.069832
C154	C	-0.005388	-0.405600	0.430168
H155	H	-0.490488	-0.346377	-0.199840
H156	H	0.009512	0.153623	0.300160
O157	O	-0.488296	-0.473718	-0.184886
O158	O	0.011704	0.026282	0.315114
H159	H	-0.413492	-0.461162	-0.161586
H160	H	0.086508	0.038838	0.338414
O161	O	-0.645359	-0.822251	-0.532689
O162	O	-0.145359	-0.322251	-0.032689
H163	H	-0.692067	-0.794374	-0.566411
H164	H	-0.192067	-0.294374	-0.066411
H165	H	-0.627786	-0.144691	-0.374882
H166	H	-0.127786	0.355309	0.125118
H167	H	-1.000116	-0.837122	-0.464008
H168	H	-0.500116	-0.337122	0.035992
H169	H	-0.383621	-0.144631	-0.229738
H170	H	0.116379	0.355369	0.270262
H171	H	-0.736660	-0.709083	-0.498267
H172	H	-0.236660	-0.209083	0.001733
H173	H	-0.383731	-0.548268	-0.229623
H174	H	0.116269	-0.048268	0.270377
H175	H	-1.238809	-1.011783	-0.289790
H176	H	-0.738809	-0.511783	0.210210
H177	H	-0.771565	-0.799351	-0.314775
H178	H	-0.271565	-0.299351	0.185225
O179	O	-0.910088	-0.761792	-0.552743
O180	O	-0.410088	-0.261792	-0.052743
H181	H	-0.982167	-0.789703	-0.560704
H182	H	-0.482167	-0.289703	-0.060704
O183	O	-0.365879	-0.271982	-0.219118
O184	O	0.134121	0.228018	0.280882
H185	H	-0.312490	-0.301846	-0.247202
H186	H	0.187510	0.198154	0.252798
H187	H	-0.627831	-0.263398	-0.374843
H188	H	-0.127831	0.236602	0.125157
O189	O	-0.523251	-0.337963	-0.419577
O190	O	-0.023251	0.162037	0.080423
H191	H	-0.598060	-0.350506	-0.442878
H192	H	-0.098060	0.149494	0.057122
O193	O	-1.119308	-0.822261	-0.385477
O194	O	-0.619308	-0.322261	0.114523
H195	H	-1.204814	-0.829016	-0.378762
H196	H	-0.704814	-0.329016	0.121238
O197	O	-0.702354	-0.895287	-0.734573
O198	O	-0.202354	-0.395287	-0.234573
H199	H	-0.700721	-0.852838	-0.704732
H200	H	-0.200721	-0.352838	-0.204732
H201	H	-0.672117	-0.726588	-0.387360
H202	H	-0.172117	-0.226588	0.112640
H203	H	-0.383776	-0.978321	-0.541459
H204	H	0.116224	-0.478321	-0.041459
H205	H	-1.338259	-1.084532	-0.217200
H206	H	-0.838259	-0.584532	0.282800
H207	H	-0.521091	-0.465299	-0.404616
H208	H	-0.021091	0.034701	0.095384
O209	O	-0.365949	-0.988917	-0.668830
O210	O	0.134051	-0.488917	-0.168830
H211	H	-0.319244	-1.016797	-0.635109
H212	H	0.180756	-0.516797	-0.135109
O213	O	-0.702271	-0.895282	-0.870585
O214	O	-0.202271	-0.395282	-0.370585
H215	H	-0.768110	-0.891819	-0.836842
H216	H	-0.268110	-0.391819	-0.336842
H217	H	-0.905592	-0.978253	-0.229658
H218	H	-0.405592	-0.478253	0.270342
O219	O	-0.645714	-0.675692	-0.385297
O220	O	-0.145714	-0.175692	0.114703
H221	H	-0.692489	-0.641958	-0.413124
H222	H	-0.192489	-0.141958	0.086876
H223	H	-0.627550	-0.832868	-0.660065
H224	H	-0.127550	-0.332868	-0.160065
H225	H	-1.010282	-0.973969	-0.140556
H226	H	-0.510282	-0.473969	0.359444
O227	O	-0.645723	-0.539676	-0.385307
O228	O	-0.145723	-0.039676	0.114693
H229	H	-0.692547	-0.573427	-0.413100
H230	H	-0.192547	-0.073427	0.086900
H231	H	-0.383746	-0.666981	-0.229589
H232	H	0.116254	-0.166981	0.270411
O233	O	-0.308831	-0.915912	-0.734565
O234	O	0.191169	-0.415912	-0.234565
H235	H	-0.242984	-0.919357	-0.768305
H236	H	0.257016	-0.419357	-0.268305
O237	O	-1.100322	-1.049276	-0.051806
O238	O	-0.600322	-0.549276	0.448194
H239	H	-1.153617	-1.082288	-0.027533
H240	H	-0.653617	-0.582288	0.472467
O241	O	-1.288197	-1.112617	-0.095705
O242	O	-0.788197	-0.612617	0.404295
H243	H	-1.357020	-1.132190	-0.120665
H244	H	-0.857020	-0.632190	0.379335
H245	H	-0.333773	-0.914602	-0.861933
H246	H	0.166227	-0.414602	-0.361933
O247	O	-0.365777	-0.988917	-0.936449
O248	O	0.134223	-0.488917	-0.436449
H249	H	-0.319015	-1.016784	-0.970213
H250	H	0.180985	-0.516784	-0.470213
H251	H	-0.383458	-0.978323	-1.063803
H252	H	0.116542	-0.478323	-0.563803
H253	H	-0.627314	-0.832872	-1.063702
H254	H	-0.127314	-0.332872	-0.563702
O255	O	-0.645124	-0.822262	-0.936329
O256	O	-0.145124	-0.322262	-0.436329
H257	H	-0.691831	-0.794386	-0.970052
H258	H	-0.191831	-0.294386	-0.470052
