data_functionalizedCrystal
_audit_creation_method	'MofGen! by Chris Wilmer'
_symmetry_space_group_name_H-M	'P1'
_symmetry_Int_Tables_number	1
_symmetry_cell_setting	triclinic
loop_
_symmetry_equiv_pos_as_xyz
  x,y,z
_cell_length_a	10.654550
_cell_length_b	14.044220
_cell_length_c	9.730223
_cell_angle_alpha	89.997406
_cell_angle_beta	89.996251
_cell_angle_gamma	88.836890
loop_
_atom_site_label
_atom_site_type_symbol
_atom_site_fract_x
_atom_site_fract_y
_atom_site_fract_z
O1	O	1.681222	0.133227	-0.114408
O2	O	1.317019	0.145921	-0.114387
O3	O	1.493654	0.001554	-0.114384
O4	O	1.504587	0.277595	-0.114411
O5	O	1.493652	0.001557	0.114196
O6	O	1.317017	0.145925	0.114193
O7	O	1.681220	0.133231	0.114172
Zn8	Zn	1.499118	0.139578	0.150474
Zn9	Zn	1.499121	0.139574	-0.150689
O10	O	1.504585	0.277598	0.114169
C11	C	1.270127	0.144991	-0.000094
C12	C	1.130403	0.142202	-0.000085
C13	C	1.059459	0.227203	-0.000114
C14	C	0.928175	0.224578	-0.000137
C15	C	0.938790	0.051942	-0.000109
C16	C	1.070072	0.054569	-0.000076
C17	C	1.119790	0.314837	-0.000123
C18	C	1.048846	0.399845	-0.000153
C19	C	0.917561	0.397219	-0.000177
C20	C	0.857221	0.309585	-0.000170
C21	C	1.488867	-0.033790	-0.000093
C22	C	1.474592	-0.139110	-0.000090
C23	C	1.448493	-0.331943	-0.000108
C24	C	1.549741	-0.388911	-0.000119
C25	C	1.535219	-0.496210	-0.000129
C26	C	1.463013	-0.224634	-0.000098
C27	C	1.728113	0.134161	-0.000124
C28	C	1.867836	0.136950	-0.000142
C29	C	1.509372	0.312942	-0.000125
C30	C	1.523648	0.418262	-0.000137
N31	N	1.499126	0.139581	0.356011
N32	N	1.499123	0.139563	-0.356226
C33	C	1.577364	0.075677	0.427938
C34	C	1.577359	0.075666	0.571821
C35	C	1.420876	0.203470	0.571837
C36	C	1.420875	0.203477	0.427956
C37	C	1.655615	0.011782	0.355993
C38	C	1.733861	-0.052127	0.427920
C39	C	1.733856	-0.052138	0.571803
C40	C	1.655606	0.011759	0.643759
H41	H	1.647328	-0.357098	-0.000217
C42	C	1.327694	-0.474407	-0.000090
C43	C	1.316759	-0.374882	-0.000088
H44	H	1.246366	-0.500921	-0.000064
H45	H	1.372042	-0.494895	-0.079806
H46	H	1.372072	-0.494900	0.079616
H47	H	1.272389	-0.354388	-0.079800
H48	H	1.272392	-0.354385	0.079636
C49	C	1.776177	0.031766	0.149887
C50	C	1.655625	0.011789	0.197836
H51	H	1.776183	0.031765	0.052248
H52	H	1.800138	0.092511	0.182436
H53	H	1.833962	-0.015442	0.182442
H54	H	1.597842	0.059001	0.165288
H55	H	1.631649	-0.048964	0.165273
C56	C	1.803327	-0.108910	0.792353
C57	C	1.819852	-0.122388	0.650870
H58	H	1.856418	-0.152284	0.841161
H59	H	1.824061	-0.045514	0.815931
H60	H	1.718296	-0.119808	0.815922
H61	H	1.904882	-0.111483	0.627300
H62	H	1.799127	-0.185799	0.627283
H63	H	1.357169	0.255494	0.630432
C64	C	0.962463	-0.118437	-0.000081
C65	C	0.872468	-0.044381	-0.000116
H66	H	0.921517	-0.177903	-0.000081
H67	H	1.013468	-0.113824	-0.079772
H68	H	1.013426	-0.113816	0.079650
H69	H	0.821511	-0.048998	-0.079852
H70	H	0.821441	-0.048997	0.079584
H71	H	1.797562	-0.104155	0.369327
H72	H	1.655600	0.011737	0.760918
H73	H	1.357165	0.255512	0.369392
H74	H	1.226688	0.316985	-0.000110
H75	H	1.127836	-0.014647	-0.000056
H76	H	1.097984	0.471193	-0.000147
H77	H	0.859801	0.466437	-0.000187
C78	C	0.666294	0.352808	-0.117717
C79	C	0.712910	0.306693	-0.000197
H80	H	0.577205	0.351016	-0.117740
H81	H	0.692065	0.417156	-0.117705
H82	H	0.697984	0.321515	-0.197408
H83	H	0.681227	0.337992	0.079495
H84	H	0.687127	0.242334	-0.000196
