data_functionalizedCrystal
_audit_creation_method	'MofGen! by Chris Wilmer'
_symmetry_space_group_name_H-M	'P1'
_symmetry_Int_Tables_number	1
_symmetry_cell_setting	triclinic
loop_
_symmetry_equiv_pos_as_xyz
  x,y,z
_cell_length_a	15.944499
_cell_length_b	15.944551
_cell_length_c	9.198806
_cell_angle_alpha	89.995864
_cell_angle_beta	89.993466
_cell_angle_gamma	83.488174
loop_
_atom_site_label
_atom_site_type_symbol
_atom_site_fract_x
_atom_site_fract_y
_atom_site_fract_z
O1	O	1.114551	0.108123	-0.120983
O2	O	0.869995	0.121525	-0.120967
O3	O	0.998951	-0.007452	-0.120962
O4	O	0.985595	0.237100	-0.120987
O5	O	0.998941	-0.007452	0.120823
O6	O	0.869985	0.121525	0.120818
O7	O	1.114541	0.108123	0.120802
Cu8	Cu	0.992262	0.114824	0.142887
Cu9	Cu	0.992274	0.114824	-0.143052
O10	O	0.985584	0.237100	0.120798
C11	C	0.838695	0.120976	-0.000072
C12	C	0.745447	0.119331	-0.000066
C13	C	0.453911	0.194263	-0.000095
C14	C	0.514945	0.155312	-0.119306
C15	C	0.409810	0.113355	-0.000099
C16	C	0.514921	0.155290	0.119075
C17	C	0.574719	0.116296	-0.000080
C18	C	0.469617	0.074381	-0.119408
C19	C	0.469586	0.074370	0.119080
C20	C	0.530603	0.035360	-0.000161
C21	C	0.314810	0.111663	-0.000111
C22	C	0.669718	0.117981	-0.000079
C23	C	0.998392	-0.038746	-0.000069
C24	C	0.996729	-0.131992	-0.000068
C25	C	0.912823	-0.346833	-0.000083
C26	C	0.951781	-0.407857	0.119129
C27	C	0.993722	-0.302717	-0.000079
C28	C	0.951810	-0.407841	-0.119252
C29	C	0.990811	-0.467629	-0.000096
C30	C	1.032702	-0.362513	0.119231
C31	C	1.032720	-0.362490	-0.119257
C32	C	1.071737	-0.423497	-0.000016
C33	C	0.995397	-0.207715	-0.000068
C34	C	0.989143	-0.562630	-0.000097
C35	C	1.145840	0.108672	-0.000096
C36	C	1.239089	0.110317	-0.000112
C37	C	0.986144	0.268394	-0.000098
C38	C	0.987806	0.361640	-0.000109
N39	N	0.992259	0.114823	0.344001
N40	N	0.992283	0.114818	-0.344166
C41	C	1.046406	0.060433	0.416200
C42	C	1.046419	0.060430	0.583612
H43	H	0.449642	0.040192	-0.220305
O44	O	0.911107	-0.431772	-0.239639
C45	C	0.953045	-0.407507	-0.365134
H46	H	1.021417	-0.399890	-0.337149
H47	H	0.951406	-0.458029	-0.452450
H48	H	0.920226	-0.344982	-0.407283
H49	H	0.449465	0.040177	0.219874
H50	H	0.845673	-0.313513	0.000040
H51	H	0.563780	-0.031846	-0.000217
O52	O	0.414006	0.274309	-0.000168
C53	C	0.325922	0.271648	0.001079
H54	H	0.311314	0.208650	0.047629
H55	H	0.294720	0.325309	0.071245
H56	H	0.300505	0.278834	-0.114623
H57	H	0.534992	0.189524	0.219854
H58	H	1.138946	-0.456668	0.000047
O59	O	0.910825	-0.431788	0.239261
C60	C	0.827079	-0.392353	0.238866
H61	H	0.807589	-0.374102	0.122857
H62	H	0.783253	-0.437794	0.283902
H63	H	0.822675	-0.333275	0.309518
H64	H	1.066886	-0.342529	0.220126
O65	O	1.101603	0.004878	0.341905
C66	C	1.056436	-0.046790	0.253869
H67	H	0.990752	-0.013209	0.231272
H68	H	1.091401	-0.060042	0.146749
H69	H	1.050631	-0.108895	0.312394
H70	H	0.535048	0.189536	-0.220091
O71	O	0.936859	0.170342	0.581943
C72	C	0.853629	0.156894	0.619034
H73	H	0.853587	0.124585	0.729586
H74	H	0.812426	0.220113	0.624097
H75	H	0.827571	0.115111	0.533414
O76	O	1.073398	-0.338358	-0.239537
C77	C	1.018153	-0.281250	-0.321233
H78	H	0.966343	-0.249982	-0.247335
H79	H	1.054884	-0.230878	-0.370450
H80	H	0.988559	-0.316709	-0.411973
H81	H	1.092780	0.013867	0.645700
O82	O	0.936882	0.170407	0.417880
C83	C	0.886548	0.220994	0.318245
H84	H	0.885436	0.186633	0.209709
H85	H	0.819512	0.233935	0.362361
H86	H	0.913994	0.283319	0.302098
