data_functionalizedCrystal
_audit_creation_method	'MofGen! by Chris Wilmer'
_symmetry_space_group_name_H-M	'P1'
_symmetry_Int_Tables_number	1
_symmetry_cell_setting	triclinic
loop_
_symmetry_equiv_pos_as_xyz
  x,y,z
_cell_length_a	13.897449
_cell_length_b	13.897448
_cell_length_c	17.077396
_cell_angle_alpha	89.972632
_cell_angle_beta	89.978898
_cell_angle_gamma	90.018519
loop_
_atom_site_label
_atom_site_type_symbol
_atom_site_fract_x
_atom_site_fract_y
_atom_site_fract_z
Zn1	Zn	1.474681	-0.383994	-0.443882
Zn2	Zn	1.974681	0.116006	0.056118
Zn3	Zn	1.474581	-0.545306	-0.312619
Zn4	Zn	1.974581	-0.045306	0.187381
Zn5	Zn	1.313376	-0.384029	-0.312627
Zn6	Zn	1.813376	0.115971	0.187373
Zn7	Zn	1.313352	-0.545251	-0.443839
Zn8	Zn	1.813352	-0.045251	0.056161
O9	O	1.393998	-0.464645	-0.378242
O10	O	1.893998	0.035355	0.121758
O11	O	1.609649	-0.405400	-0.426485
O12	O	2.109649	0.094600	0.073515
O13	O	1.453166	-0.523951	-0.202773
O14	O	1.953166	-0.023951	0.297227
O15	O	1.334826	-0.249043	-0.330059
O16	O	1.834826	0.250957	0.169941
O17	O	1.609576	-0.523916	-0.330046
O18	O	2.109576	-0.023916	0.169954
O19	O	1.453335	-0.249017	-0.426492
O20	O	1.953335	0.250983	0.073508
O21	O	1.334729	-0.405461	-0.202779
O22	O	1.834729	0.094539	0.297221
O23	O	1.178392	-0.405407	-0.330017
O24	O	1.678392	0.094593	0.169983
O25	O	1.334784	-0.523821	-0.553692
O26	O	1.834784	-0.023821	-0.053692
O27	O	1.178373	-0.523856	-0.426418
O28	O	1.678373	-0.023856	0.073582
O29	O	1.453311	-0.405347	-0.553724
O30	O	1.953311	0.094653	-0.053724
O31	O	1.453142	-0.680280	-0.330004
O32	O	1.953142	-0.180280	0.169996
O33	O	1.334687	-0.680240	-0.426411
O34	O	1.834687	-0.180240	0.073589
C35	C	1.143383	-0.464630	-0.378214
C36	C	1.643383	0.035370	0.121786
C37	C	1.036169	-0.464647	-0.378221
C38	C	1.536169	0.035353	0.121779
C39	C	1.393927	-0.715259	-0.378219
C40	C	1.893927	-0.215259	0.121781
C41	C	1.393985	-0.822473	-0.378235
C42	C	1.893985	-0.322473	0.121765
C43	C	0.949100	-0.464650	-0.378234
C44	C	1.449100	0.035350	0.121766
C45	C	0.839867	-0.464657	-0.378258
C46	C	1.339867	0.035343	0.121742
C47	C	1.394087	-1.018768	-0.378285
C48	C	1.894087	-0.518768	0.121715
C49	C	1.394028	-0.909536	-0.378260
C50	C	1.894028	-0.409536	0.121740
C51	C	1.645590	-0.464660	-0.378270
C52	C	2.145590	0.035340	0.121730
C53	C	1.752804	-0.464667	-0.378281
C54	C	2.252804	0.035333	0.121719
C55	C	1.394056	-0.464574	-0.582986
C56	C	1.894056	0.035426	-0.082986
C57	C	1.394081	-0.464544	-0.670236
C58	C	1.894081	0.035456	-0.170236
C59	C	1.394094	-0.213052	-0.378282
C60	C	1.894094	0.286948	0.121718
C61	C	1.394136	-0.105838	-0.378299
C62	C	1.894136	0.394162	0.121701
C63	C	1.455800	-0.402849	-0.711244
C64	C	1.955800	0.097151	-0.211244
C65	C	1.455812	-0.402816	-0.793224
C66	C	1.955812	0.097184	-0.293224
C67	C	1.394108	-0.464485	-0.834195
C68	C	1.894108	0.035515	-0.334195
C69	C	1.332382	-0.526183	-0.793182
C70	C	1.832382	-0.026183	-0.293182
C71	C	1.332366	-0.526209	-0.711203
C72	C	1.832366	-0.026209	-0.211203
C73	C	1.332420	-0.526125	-0.964052
C74	C	1.832420	-0.026125	-0.464052
C75	C	1.332437	-0.526100	-1.046036
C76	C	1.832437	-0.026100	-0.546036
C77	C	1.455867	-0.402732	-1.046074
C78	C	1.955867	0.097268	-0.546074
C79	C	1.455851	-0.402758	-0.964095
C80	C	1.955851	0.097242	-0.464095
C81	C	1.394125	-0.464458	-0.923086
C82	C	1.894125	0.035542	-0.423086
C83	C	1.393995	-0.464646	-0.174294
C84	C	1.893995	0.035354	0.325706
C85	C	1.394157	-0.464405	-0.087044
C86	C	1.894157	0.035595	0.412956
H87	H	1.506050	-0.352634	-0.677891
H88	H	2.006050	0.147366	-0.177891
H89	H	1.282138	-0.576391	-0.826547
H90	H	1.782138	-0.076391	-0.326547
O91	O	1.272542	-0.586127	-1.085756
O92	O	1.772542	-0.086127	-0.585756
C93	C	1.225674	-0.750184	-1.110864
C94	C	1.725674	-0.250184	-0.610864
C95	C	1.293551	-0.682315	-1.065816
C96	C	1.793551	-0.182315	-0.565816
H97	H	1.242649	-0.827967	-1.094771
H98	H	1.742649	-0.327967	-0.594771
H99	H	1.147883	-0.733314	-1.094726
H100	H	1.647883	-0.233314	-0.594726
H101	H	1.236284	-0.739509	-1.176494
H102	H	1.736284	-0.239509	-0.676494
H103	H	1.283027	-0.692952	-1.000175
H104	H	1.783027	-0.192952	-0.500175
H105	H	1.371317	-0.699202	-1.082018
H106	H	1.871317	-0.199202	-0.582018
O107	O	1.272393	-0.586243	-0.671486
O108	O	1.772393	-0.086243	-0.171486
C109	C	1.149953	-0.708587	-0.680096
C110	C	1.649953	-0.208587	-0.180096
C111	C	1.217837	-0.640659	-0.725170
C112	C	1.717837	-0.140659	-0.225170
H113	H	1.105812	-0.752585	-0.723480
H114	H	1.605812	-0.252585	-0.223480
H115	H	1.194177	-0.759099	-0.641741
H116	H	1.694177	-0.259099	-0.141741
H117	H	1.099563	-0.664306	-0.641688
H118	H	1.599563	-0.164306	-0.141688
H119	H	1.268241	-0.684862	-0.763621
H120	H	1.768241	-0.184862	-0.263621
H121	H	1.173553	-0.590145	-0.763476
H122	H	1.673553	-0.090145	-0.263476
H123	H	1.506073	-0.352580	-0.826610
H124	H	2.006073	0.147420	-0.326610
H125	H	1.506124	-0.352493	-1.079466
H126	H	2.006124	0.147507	-0.579466
O127	O	1.515821	-0.342766	-0.924415
O128	O	2.015821	0.157234	-0.424415
C129	C	1.638288	-0.220438	-0.933099
C130	C	2.138288	0.279562	-0.433099
C131	C	1.570407	-0.288317	-0.978132
C132	C	2.070407	0.211683	-0.478132
H133	H	1.682453	-0.176414	-0.976509
H134	H	2.182453	0.323586	-0.476509
H135	H	1.594059	-0.169949	-0.894740
H136	H	2.094059	0.330051	-0.394740
H137	H	1.688655	-0.264759	-0.894697
H138	H	2.188655	0.235241	-0.394697
H139	H	1.520027	-0.244074	-1.016576
H140	H	2.020027	0.255926	-0.516576
H141	H	1.614696	-0.338810	-1.016441
H142	H	2.114696	0.161190	-0.516441
H143	H	1.282142	-0.576352	-0.930665
H144	H	1.782142	-0.076352	-0.430665
