data_functionalizedCrystal
_audit_creation_method	'MofGen! by Chris Wilmer'
_symmetry_space_group_name_H-M	'P1'
_symmetry_Int_Tables_number	1
_symmetry_cell_setting	triclinic
loop_
_symmetry_equiv_pos_as_xyz
  x,y,z
_cell_length_a	12.759395
_cell_length_b	12.759394
_cell_length_c	14.908694
_cell_angle_alpha	93.271327
_cell_angle_beta	86.685010
_cell_angle_gamma	90.014617
loop_
_atom_site_label
_atom_site_type_symbol
_atom_site_fract_x
_atom_site_fract_y
_atom_site_fract_z
Zn1	Zn	1.640512	-0.452502	-0.510074
Zn2	Zn	1.630280	-0.618071	-0.359225
Zn3	Zn	1.454685	-0.442410	-0.359235
Zn4	Zn	1.464802	-0.628139	-0.510040
O5	O	1.547570	-0.535281	-0.434643
O6	O	1.786176	-0.474475	-0.490073
O7	O	1.598471	-0.586333	-0.232983
O8	O	1.479384	-0.296729	-0.379263
O9	O	1.778659	-0.596118	-0.379245
O10	O	1.615909	-0.304143	-0.490083
O11	O	1.469462	-0.457275	-0.232991
O12	O	1.309006	-0.467037	-0.379230
O13	O	1.496627	-0.613278	-0.636287
O14	O	1.316439	-0.603492	-0.490025
O15	O	1.625720	-0.484237	-0.636312
O16	O	1.608281	-0.766427	-0.379212
O17	O	1.486705	-0.773824	-0.490015
C18	C	1.274601	-0.535263	-0.434626
C19	C	1.157825	-0.535282	-0.434640
C20	C	0.946233	-0.408870	-0.550261
C21	C	1.005019	-0.345640	-0.608046
C22	C	1.114739	-0.345621	-0.608031
C23	C	1.165676	-0.408841	-0.550226
C24	C	1.106890	-0.472071	-0.492440
C25	C	0.997168	-0.472081	-0.492460
C26	C	1.099040	-0.598512	-0.376854
C27	C	0.989319	-0.598527	-0.376864
C28	C	1.149977	-0.661733	-0.319049
C29	C	1.091191	-0.724959	-0.261258
C30	C	0.981464	-0.724974	-0.261275
C31	C	0.930533	-0.661758	-0.319079
C32	C	1.547510	-0.808247	-0.434628
C33	C	1.547583	-0.925025	-0.434652
C34	C	1.689653	-0.932594	-0.550136
C35	C	1.760721	-0.991239	-0.607885
C36	C	1.760785	-1.100962	-0.607904
C37	C	1.689770	-1.152042	-0.550171
C38	C	1.618702	-1.093396	-0.492422
C39	C	1.618648	-0.983671	-0.492407
C40	C	1.476629	-1.085828	-0.376944
C41	C	1.476569	-0.976105	-0.376919
C42	C	1.405615	-1.136908	-0.319211
C43	C	1.334550	-1.078262	-0.261456
C44	C	1.334490	-0.968533	-0.261438
C45	C	1.405501	-0.917460	-0.319170
C46	C	1.821604	-0.535299	-0.434662
C47	C	1.938382	-0.535307	-0.434669
C48	C	1.563443	-0.551006	-0.669949
C49	C	1.570207	-0.557708	-0.770222
C50	C	1.547659	-0.261250	-0.434678
C51	C	1.547698	-0.144474	-0.434693
C52	C	1.448557	-0.435915	-0.958655
C53	C	1.454909	-0.442208	-1.052870
C54	C	1.589257	-0.576592	-1.052870
C55	C	1.582905	-0.570298	-0.958654
C56	C	1.512554	-0.499957	-0.911550
C57	C	1.506208	-0.493659	-0.817333
C58	C	1.640550	-0.628047	-0.817334
C59	C	1.646902	-0.634340	-0.911549
C60	C	1.531819	-0.519540	-0.200254
C61	C	1.525258	-0.512543	-0.099981
H62	H	1.255017	-0.408830	-0.550226
O63	O	1.257842	-0.905285	-0.199142
H64	H	1.176423	-0.927439	-0.214556
O65	O	1.722773	-0.710211	-0.962356
H66	H	1.804015	-0.690990	-0.944279
O67	O	1.709598	-0.697117	-0.766533
H68	H	1.692793	-0.780784	-0.784608
H69	H	0.933606	-0.776469	-0.214224
O70	O	1.268317	-0.661703	-0.319014
H71	H	1.300639	-0.607101	-0.368895
H72	H	1.391284	-0.378631	-0.920302
O73	O	1.837429	-1.164218	-0.670198
H74	H	1.825531	-1.249095	-0.660514
H75	H	0.856892	-0.408855	-0.550260
H76	H	1.132673	-0.776433	-0.214202
O77	O	1.430331	-0.417794	-0.766527
H78	H	1.474476	-0.361467	-0.723621
O79	O	1.837322	-0.936146	-0.670145
H80	H	1.793334	-0.889231	-0.716001
H81	H	0.841192	-0.661750	-0.319088
H82	H	1.402796	-0.390059	-1.091220
O83	O	1.665124	-0.652462	-1.103682
H84	H	1.721485	-0.608309	-1.146616
O85	O	0.950075	-0.277444	-0.670381
H86	H	0.903174	-0.327615	-0.716214
O87	O	1.689587	-0.814249	-0.550108
H88	H	1.750900	-0.788583	-0.599956
H89	H	1.162603	-0.294135	-0.655086
H90	H	1.689820	-1.241385	-0.550199
O91	O	1.405771	-1.255251	-0.319206
H92	H	1.389130	-1.288769	-0.387234
H93	H	1.276731	-1.119861	-0.214458
H94	H	1.405463	-0.828118	-0.319157
