data_functionalizedCrystal
_audit_creation_method	'MofGen! by Chris Wilmer'
_symmetry_space_group_name_H-M	'P1'
_symmetry_Int_Tables_number	1
_symmetry_cell_setting	triclinic
loop_
_symmetry_equiv_pos_as_xyz
  x,y,z
_cell_length_a	8.597213
_cell_length_b	15.625429
_cell_length_c	7.681481
_cell_angle_alpha	66.294962
_cell_angle_beta	88.167023
_cell_angle_gamma	82.361559
loop_
_atom_site_label
_atom_site_type_symbol
_atom_site_fract_x
_atom_site_fract_y
_atom_site_fract_z
O1	O	2.026056	0.166720	-0.560238
O2	O	1.575624	0.173363	-0.496149
O3	O	1.821515	0.034110	-0.444537
O4	O	1.780166	0.305973	-0.611850
O5	O	1.851783	0.016931	-0.145301
O6	O	1.605892	0.156184	-0.196913
O7	O	2.056324	0.149540	-0.261003
Zn8	Zn	1.835914	0.150134	-0.181448
Zn9	Zn	1.796035	0.172769	-0.575703
O10	O	1.810433	0.288793	-0.312615
C11	C	1.533274	0.163103	-0.336744
C12	C	1.361990	0.158115	-0.307575
C13	C	1.837779	-0.009345	-0.272833
C14	C	1.841128	-0.113231	-0.207019
C15	C	1.769610	-0.408085	-0.806060
C16	C	1.772756	-0.505705	-0.744162
C17	C	1.805752	-0.524419	-0.417956
C18	C	1.802617	-0.426799	-0.479828
C19	C	1.784544	-0.368639	-0.673882
C20	C	1.817550	-0.387354	-0.347650
C21	C	1.814407	-0.289741	-0.409517
C22	C	1.796331	-0.231575	-0.603562
C23	C	1.781401	-0.271027	-0.735749
C24	C	1.835612	-0.445515	-0.153596
C25	C	1.850546	-0.406069	-0.021418
C26	C	1.847414	-0.308456	-0.083285
C27	C	1.829337	-0.250289	-0.277330
C28	C	1.862344	-0.269004	0.048901
C29	C	1.859201	-0.171392	-0.012965
C30	C	1.826194	-0.152677	-0.339197
C31	C	2.098674	0.159800	-0.420411
C32	C	2.269957	0.164790	-0.449592
C33	C	1.794169	0.332248	-0.484323
C34	C	1.790819	0.436135	-0.550148
N35	N	1.863141	0.134686	0.087620
N36	N	1.768820	0.188210	-0.844768
H37	H	1.811492	-0.105320	-0.497217
C38	C	1.340535	0.177668	-0.643995
N39	N	1.393705	0.187366	-0.790422
H40	H	1.309736	0.148586	-0.163671
H41	H	1.793755	-0.152092	-0.653929
C42	C	1.761527	-0.207045	-0.949220
N43	N	1.746554	-0.158854	-1.109999
H44	H	1.754908	-0.360728	-0.964080
C45	C	1.993231	0.060879	0.216606
N46	N	2.091211	0.005288	0.313761
C47	C	1.756283	-0.549088	-0.889580
N48	N	1.743857	-0.581763	-0.999105
H49	H	1.820461	-0.571786	-0.259956
H50	H	1.865255	-0.453436	0.136582
H51	H	1.838154	-0.524995	-0.103228
C52	C	1.882203	-0.332991	0.262357
N53	N	1.897158	-0.381187	0.423135
C54	C	1.638736	0.262012	0.026255
N55	N	1.540753	0.317600	-0.070902
C56	C	1.875637	-0.127999	0.132436
N57	N	1.888015	-0.095316	0.241957
