data_functionalizedCrystal
_audit_creation_method	'MofGen! by Chris Wilmer'
_symmetry_space_group_name_H-M	'P1'
_symmetry_Int_Tables_number	1
_symmetry_cell_setting	triclinic
loop_
_symmetry_equiv_pos_as_xyz
  x,y,z
_cell_length_a	14.519709
_cell_length_b	23.532407
_cell_length_c	12.996460
_cell_angle_alpha	89.989202
_cell_angle_beta	90.000034
_cell_angle_gamma	83.264412
loop_
_atom_site_label
_atom_site_type_symbol
_atom_site_fract_x
_atom_site_fract_y
_atom_site_fract_z
O1	O	1.222985	0.074654	-0.085444
O2	O	1.722985	0.574654	0.414556
O3	O	0.954405	0.083445	-0.085477
O4	O	1.454405	0.583445	0.414523
O5	O	1.096794	-0.003845	-0.085440
O6	O	1.596794	0.496155	0.414560
O7	O	1.080596	0.161945	-0.085480
O8	O	1.580596	0.661945	0.414520
O9	O	1.096779	-0.003850	0.085693
O10	O	1.596779	0.496150	0.585693
O11	O	0.954390	0.083441	0.085657
O12	O	1.454390	0.583441	0.585657
O13	O	1.222971	0.074649	0.085690
O14	O	1.722971	0.574649	0.585690
Cu15	Cu	1.088679	0.079044	0.101299
Cu16	Cu	1.588679	0.579044	0.601299
Cu17	Cu	1.088696	0.079050	-0.101086
Cu18	Cu	1.588696	0.579050	0.398914
O19	O	1.080581	0.161940	0.085654
O20	O	1.580581	0.661940	0.585654
C21	C	0.920042	0.083033	0.000086
C22	C	1.420042	0.583033	0.500086
C23	C	0.817676	0.081805	0.000075
C24	C	1.317676	0.581805	0.500075
C25	C	0.442833	0.077286	0.000123
C26	C	0.942833	0.577286	0.500123
C27	C	0.547126	0.078541	0.000109
C28	C	1.047126	0.578541	0.500109
C29	C	0.630251	0.079545	0.000098
C30	C	1.130251	0.579545	0.500098
C31	C	0.734551	0.080801	0.000086
C32	C	1.234551	0.580801	0.500086
C33	C	1.096374	-0.025066	0.000129
C34	C	1.596374	0.474934	0.500129
C35	C	1.095134	-0.088288	0.000137
C36	C	1.595134	0.411712	0.500137
C37	C	1.171619	-0.487046	0.000090
C38	C	1.671619	0.012954	0.500090
C39	C	1.170467	-0.546452	0.000082
C40	C	1.670467	-0.046452	0.500082
O41	O	1.241369	-0.582876	0.000052
O42	O	1.741369	-0.082876	0.500052
N43	N	1.085816	-0.569460	0.000072
N44	N	1.585816	-0.069460	0.500072
C45	C	1.002312	-0.533059	0.000060
C46	C	1.502312	-0.033059	0.500060
O47	O	0.930205	-0.558084	0.000050
O48	O	1.430205	-0.058084	0.500050
C49	C	1.003465	-0.473655	0.000061
C50	C	1.503465	0.026345	0.500061
C51	C	1.088121	-0.450650	0.000081
C52	C	1.588121	0.049350	0.500081
C53	C	1.256268	-0.464041	0.000109
C54	C	1.756268	0.035959	0.500109
C55	C	1.257420	-0.404640	0.000119
C56	C	1.757420	0.095360	0.500119
C57	C	1.173922	-0.368244	0.000110
C58	C	1.673922	0.131756	0.500110
C59	C	1.089273	-0.391249	0.000091
C60	C	1.589273	0.108751	0.500091
C61	C	0.919962	-0.437255	0.000041
C62	C	1.419962	0.062745	0.500041
C63	C	0.921123	-0.377847	0.000041
C64	C	1.421123	0.122153	0.500041
C65	C	1.005779	-0.354843	0.000061
C66	C	1.505779	0.145157	0.500061
C67	C	1.006927	-0.295451	0.000091
C68	C	1.506927	0.204549	0.500091
N69	N	1.091578	-0.272443	0.000101
N70	N	1.591578	0.227557	0.500101
C71	C	1.175075	-0.308839	0.000110
C72	C	1.675075	0.191161	0.500110
C73	C	0.999897	-0.657813	0.000057
C74	C	1.499897	-0.157813	0.500057
C75	C	0.998743	-0.717216	0.000064
C76	C	1.498743	-0.217216	0.500064
C77	C	1.166898	-0.730604	0.000084
C78	C	1.666898	-0.230604	0.500084
C79	C	1.168051	-0.671200	0.000084
C80	C	1.668051	-0.171200	0.500084
C81	C	1.084548	-0.634804	0.000067
C82	C	1.584548	-0.134804	0.500067
C83	C	1.177487	-0.184092	0.000132
C84	C	1.677487	0.315908	0.500132
C85	C	1.178632	-0.124685	0.000146
C86	C	1.678632	0.375315	0.500146
C87	C	1.010477	-0.111301	0.000121
C88	C	1.510477	0.388699	0.500121
C89	C	1.009332	-0.170703	0.000112
C90	C	1.509332	0.329297	0.500112
C91	C	1.092845	-0.207098	0.000114
C92	C	1.592845	0.292902	0.500114
O93	O	0.936062	-0.258992	0.000117
O94	O	1.436062	0.241008	0.500117
O95	O	1.247171	-0.283806	0.000106
O96	O	1.747171	0.216194	0.500106
C97	C	1.257333	0.075061	0.000125
C98	C	1.757333	0.575061	0.500125
C99	C	1.359700	0.076289	0.000130
C100	C	1.859700	0.576289	0.500130
C101	C	1.081001	0.183160	0.000082
C102	C	1.581001	0.683160	0.500082
C103	C	1.082241	0.246383	0.000067
C104	C	1.582241	0.746383	0.500067
N105	N	1.088673	0.079040	0.243647
N106	N	1.588673	0.579040	0.743647
N107	N	1.088709	0.079050	-0.243433
N108	N	1.588709	0.579050	0.256567
C109	C	1.088695	0.079051	0.663461
C110	C	1.588695	0.579051	1.163461
C111	C	1.088686	0.079050	0.546656
C112	C	1.588686	0.579050	1.046656
C113	C	1.088685	0.079046	0.453557
C114	C	1.588685	0.579046	0.953557
C115	C	1.088675	0.079044	0.336745
C116	C	1.588675	0.579044	0.836745
H117	H	1.247572	-0.105958	0.000165
H118	H	1.747572	0.394042	0.500165
H119	H	1.234886	-0.760249	0.000087
H120	H	1.734886	-0.260249	0.500087
H121	H	1.324266	-0.493670	0.000112
H122	H	1.824266	0.006330	0.500112
H123	H	1.236985	-0.652474	0.000100
H124	H	1.736985	-0.152474	0.500100
C125	C	0.917491	-0.195764	-0.000061
C126	C	1.417491	0.304236	0.499939
C127	C	0.911937	-0.229471	-0.088104
C128	C	1.411937	0.270529	0.411896
C129	C	0.827351	-0.252568	-0.088302
C130	C	1.327351	0.247432	0.411698
H131	H	0.867847	-0.165638	-0.000114
H132	H	1.367847	0.334362	0.499886
H133	H	0.913532	-0.218703	0.059579
H134	H	1.413532	0.281297	0.559579
H135	H	0.915886	-0.206533	-0.147728
H136	H	1.415886	0.293467	0.352272
H137	H	0.961561	-0.259606	-0.088070
H138	H	1.461561	0.240394	0.411930
H139	H	0.823393	-0.275507	-0.028662
H140	H	1.323393	0.224493	0.471338
H141	H	0.777714	-0.222439	-0.088351
H142	H	1.277714	0.277561	0.411649
H143	H	0.823575	-0.275446	-0.148032
H144	H	1.323575	0.224554	0.351968
H145	H	0.851027	-0.455975	0.000019
H146	H	1.351027	0.044025	0.500019
C147	C	0.906735	-0.742078	0.000002
C148	C	1.406735	-0.242078	0.500002
C149	C	0.833865	-0.697482	-0.000029
C150	C	1.333865	-0.197482	0.499971
C151	C	0.749092	-0.720360	-0.000107
C152	C	1.249092	-0.220360	0.499893
H153	H	0.902648	-0.764973	0.059659
H154	H	1.402648	-0.264973	0.559659
H155	H	0.902741	-0.764947	-0.059705
H156	H	1.402741	-0.264947	0.440295
H157	H	0.837857	-0.674622	0.059671
H158	H	1.337857	-0.174622	0.559671
H159	H	0.837921	-0.674583	-0.059682
H160	H	1.337921	-0.174583	0.440318
H161	H	0.745098	-0.743230	-0.059814
H162	H	1.245098	-0.243230	0.440186
H163	H	0.745014	-0.743255	0.059551
H164	H	1.245014	-0.243255	0.559551
H165	H	0.699639	-0.690106	-0.000137
H166	H	1.199639	-0.190106	0.499863
H167	H	0.931894	-0.628182	0.000052
H168	H	1.431894	-0.128182	0.500052
C169	C	0.830359	-0.338428	0.000075
C170	C	1.330359	0.161572	0.500075
C171	C	0.755983	-0.371295	0.000082
C172	C	1.255983	0.128705	0.500082
C173	C	0.672360	-0.335003	0.000128
C174	C	1.172360	0.164997	0.500128
H175	H	0.827188	-0.314955	-0.059585
H176	H	1.327188	0.185045	0.440415
H177	H	0.827251	-0.314992	0.059779
H178	H	1.327251	0.185008	0.559779
H179	H	0.759090	-0.394721	-0.059617
H180	H	1.259090	0.105279	0.440383
H181	H	0.759124	-0.394766	0.059737
H182	H	1.259124	0.105234	0.559737
H183	H	0.669252	-0.311567	0.059833
H184	H	1.169252	0.188433	0.559833
H185	H	0.669198	-0.311532	-0.059532
H186	H	1.169198	0.188468	0.440468
H187	H	0.621886	-0.357297	0.000142
H188	H	1.121886	0.142703	0.500142
C189	C	0.919856	-0.071750	-0.000106
C190	C	1.419856	0.428250	0.499894
C191	C	0.915622	-0.037256	-0.088164
C192	C	1.415622	0.462744	0.411836
C193	C	0.832151	-0.000818	-0.088423
C194	C	1.332151	0.499182	0.411577
H195	H	0.916716	-0.048250	0.059502
H196	H	1.416716	0.451750	0.559502
H197	H	0.869242	-0.093934	-0.000175
H198	H	1.369242	0.406066	0.499825
H199	H	0.966222	-0.015074	-0.088086
H200	H	1.466222	0.484926	0.411914
H201	H	0.918746	-0.060741	-0.147786
H202	H	1.418746	0.439259	0.352214
H203	H	0.781536	-0.023002	-0.088492
H204	H	1.281536	0.476998	0.411508
H205	H	0.829017	0.022678	-0.028812
H206	H	1.329017	0.522678	0.471188
H207	H	0.829262	0.022586	-0.148174
H208	H	1.329262	0.522586	0.351826
H209	H	1.326355	-0.385915	0.000131
H210	H	1.826355	0.114085	0.500131
C211	C	1.268256	-0.223505	0.000192
C212	C	1.768256	0.276495	0.500192
C213	C	1.342625	-0.190633	0.000238
C214	C	1.842625	0.309367	0.500238
C215	C	1.426254	-0.226920	0.000314
C216	C	1.926254	0.273080	0.500314
H217	H	1.271450	-0.246963	-0.059472
H218	H	1.771450	0.253037	0.440528
H219	H	1.271350	-0.246956	0.059892
H220	H	1.771350	0.253044	0.559892
H221	H	1.339533	-0.167192	-0.059456
H222	H	1.839533	0.332808	0.440544
H223	H	1.339462	-0.167177	0.059897
H224	H	1.839462	0.332823	0.559897
H225	H	1.429348	-0.250371	0.060015
H226	H	1.929348	0.249629	0.560015
H227	H	1.429438	-0.250376	-0.059350
H228	H	1.929438	0.249624	0.440650
H229	H	1.476723	-0.204622	0.000355
H230	H	1.976723	0.295378	0.500355
