data_functionalizedCrystal
_audit_creation_method	'MofGen! by Chris Wilmer'
_symmetry_space_group_name_H-M	'P1'
_symmetry_Int_Tables_number	1
_symmetry_cell_setting	triclinic
loop_
_symmetry_equiv_pos_as_xyz
  x,y,z
_cell_length_a	6.817900
_cell_length_b	17.329402
_cell_length_c	13.212919
_cell_angle_alpha	85.945506
_cell_angle_beta	73.701710
_cell_angle_gamma	76.974027
loop_
_atom_site_label
_atom_site_type_symbol
_atom_site_fract_x
_atom_site_fract_y
_atom_site_fract_z
V1	V	4.036609	-0.086133	-0.318029
V2	V	4.536609	0.413867	0.181971
O3	O	4.031907	0.028090	-0.321775
O4	O	4.531907	0.528090	0.178225
O5	O	3.980391	-0.193823	-0.306428
O6	O	4.480391	0.306177	0.193572
O7	O	3.996001	-0.074299	-0.461032
O8	O	4.496001	0.425701	0.038968
O9	O	4.016189	-0.092261	-0.166101
O10	O	4.516189	0.407739	0.333899
V11	V	4.520240	-0.073713	-0.301002
V12	V	5.020240	0.426287	0.198998
O13	O	4.297630	-0.113379	-0.355379
O14	O	4.797630	0.386621	0.144621
O15	O	4.709416	-0.046467	-0.263652
O16	O	5.209416	0.453533	0.236348
O17	O	4.353251	0.033977	-0.312602
O18	O	4.853251	0.533977	0.187398
O19	O	4.642339	-0.187936	-0.297256
O20	O	5.142339	0.312064	0.202744
O21	O	4.658057	-0.067584	-0.452930
O22	O	5.158057	0.432416	0.047070
O23	O	4.337641	-0.085547	-0.157999
O24	O	4.837641	0.414453	0.342001
C25	C	3.823238	-0.220404	-0.298979
C26	C	4.323238	0.279596	0.201021
C27	C	3.858612	-0.308374	-0.290448
C28	C	4.358612	0.191626	0.209552
C29	C	3.919846	-0.354162	-0.381659
C30	C	4.419846	0.145838	0.118341
C31	C	3.953061	-0.436818	-0.373633
C32	C	4.453061	0.063182	0.126367
C33	C	3.925055	-0.473686	-0.274395
C34	C	4.425055	0.026314	0.225605
C35	C	3.863809	-0.427892	-0.183177
C36	C	4.363809	0.072108	0.316823
C37	C	3.830581	-0.345236	-0.191204
C38	C	4.330581	0.154764	0.308796
C39	C	4.023137	-0.723027	-0.245395
C40	C	4.523137	-0.223027	0.254605
C41	C	4.056376	-0.805689	-0.237375
C42	C	4.556376	-0.305689	0.262625
C43	C	4.145622	-0.814609	-0.427832
C44	C	4.645622	-0.314609	0.072168
C45	C	4.112402	-0.731953	-0.435850
C46	C	4.612402	-0.231953	0.064150
C47	C	4.051149	-0.686166	-0.344632
C48	C	4.551149	-0.186166	0.155368
C49	C	3.959011	-0.558174	-0.266189
C50	C	4.459011	-0.058174	0.233811
C51	C	4.017179	-0.601679	-0.352839
C52	C	4.517179	-0.101679	0.147161
C53	C	3.843149	-0.067938	-0.496191
C54	C	4.343149	0.432062	0.003809
C55	C	3.891179	-0.058975	-0.613035
C56	C	4.391179	0.441025	-0.113035
C57	C	4.053239	-0.184849	-0.850004
C58	C	4.553239	0.315151	-0.350004
C59	C	4.098369	-0.176431	-0.959790
C60	C	4.598369	0.323569	-0.459790
C61	C	4.026587	-0.033722	-0.942395
C62	C	4.526587	0.466278	-0.442395
C63	C	3.981456	-0.042140	-0.832609
C64	C	4.481456	0.457860	-0.332609
C65	C	3.994782	-0.117706	-0.786418
C66	C	4.494782	0.382294	-0.286418
C67	C	3.949636	-0.126123	-0.676629
C68	C	4.449636	0.373877	-0.176629
C69	C	3.877869	0.016585	-0.659237
C70	C	4.377869	0.516585	-0.159237
C71	C	3.923000	0.025003	-0.769023
C72	C	4.423000	0.525003	-0.269023
C73	C	4.153835	-0.091911	-0.122834
C74	C	4.653835	0.408089	0.377166
C75	C	4.085043	-0.100870	-0.005990
C76	C	4.585043	0.399130	0.494010
C77	C	4.173746	0.060554	-0.320048
C78	C	4.673746	0.560554	0.179952
C79	C	4.117610	0.148523	-0.328586
C80	C	4.617610	0.648523	0.171414
H81	H	4.195492	-0.851898	-0.502097
H82	H	4.695492	-0.351898	-0.002097
H83	H	3.780710	-0.307957	-0.116929
H84	H	4.280710	0.192043	0.383071
H85	H	3.912165	0.086526	-0.806647
H86	H	4.412165	0.586526	-0.306647
H87	H	4.039970	-0.571657	-0.433638
H88	H	4.539970	-0.071657	0.066362
H89	H	4.002921	-0.474095	-0.447907
H90	H	4.502921	0.025905	0.052093
H91	H	3.830244	0.071258	-0.607452
H92	H	4.330244	0.571258	-0.107452
C93	C	4.067883	-0.267970	-0.799191
C94	C	4.567883	0.232030	-0.299191
N95	N	4.078917	-0.330579	-0.760920
N96	N	4.578917	0.169421	-0.260920
H97	H	3.936220	-0.588201	-0.185389
H98	H	4.436220	-0.088201	0.314611
H99	H	3.840997	-0.457915	-0.102375
H100	H	4.340997	0.042085	0.397625
C101	C	3.955761	-0.672672	-0.145051
C102	C	4.455761	-0.172672	0.354949
N103	N	3.905007	-0.634742	-0.069467
N104	N	4.405007	-0.134742	0.430533
C105	C	3.964304	-0.209246	-0.625821
C106	C	4.464304	0.290754	-0.125821
N107	N	3.975364	-0.271857	-0.587555
N108	N	4.475364	0.228143	-0.087555
C109	C	4.162652	-0.250293	-1.029731
C110	C	4.662652	0.249707	-0.529731
N111	N	4.211066	-0.305930	-1.082411
N112	N	4.711066	0.194070	-0.582411
C113	C	4.025551	-0.846241	-0.128201
C114	C	4.525551	-0.346241	0.371799
N115	N	4.002335	-0.876785	-0.045975
N116	N	4.502335	-0.376785	0.454025
C117	C	4.143175	-0.691404	-0.545019
C118	C	4.643175	-0.191404	-0.045019
N119	N	4.166347	-0.660863	-0.627246
N120	N	4.666347	-0.160863	-0.127246
H121	H	4.015766	0.027800	-0.980024
H122	H	4.515766	0.527800	-0.480024
H123	H	3.942683	-0.324151	-0.462470
H124	H	4.442683	0.175849	0.037530
