data_functionalizedCrystal
_audit_creation_method	'MofGen! by Chris Wilmer'
_symmetry_space_group_name_H-M	'P1'
_symmetry_Int_Tables_number	1
_symmetry_cell_setting	triclinic
loop_
_symmetry_equiv_pos_as_xyz
  x,y,z
_cell_length_a	14.519709
_cell_length_b	14.519731
_cell_length_c	7.088929
_cell_angle_alpha	83.763267
_cell_angle_beta	96.220807
_cell_angle_gamma	83.684499
loop_
_atom_site_label
_atom_site_type_symbol
_atom_site_fract_x
_atom_site_fract_y
_atom_site_fract_z
O1	O	1.214440	0.130340	-0.158746
O2	O	1.464440	0.380340	0.091254
O3	O	1.714440	0.630340	0.341254
O4	O	1.964440	0.880340	0.591254
O5	O	0.945961	0.144580	-0.158805
O6	O	1.195961	0.394580	0.091195
O7	O	1.445961	0.644580	0.341195
O8	O	1.695961	0.894580	0.591195
O9	O	1.087310	0.003222	-0.158757
O10	O	1.337310	0.253222	0.091243
O11	O	1.587310	0.503222	0.341243
O12	O	1.837310	0.753222	0.591243
O13	O	1.073091	0.271698	-0.158795
O14	O	1.323091	0.521698	0.091205
O15	O	1.573091	0.771698	0.341205
O16	O	1.823091	1.021698	0.591205
O17	O	1.106200	-0.015712	0.159225
O18	O	1.356200	0.234288	0.409225
O19	O	1.606200	0.484288	0.659225
O20	O	1.856200	0.734288	0.909225
O21	O	0.964851	0.125646	0.159177
O22	O	1.214851	0.375646	0.409177
O23	O	1.464851	0.625646	0.659177
O24	O	1.714851	0.875646	0.909177
O25	O	1.233330	0.111406	0.159236
O26	O	1.483330	0.361406	0.409236
O27	O	1.733330	0.611406	0.659236
O28	O	1.983330	0.861406	0.909236
Cu29	Cu	1.100815	0.116797	0.188240
Cu30	Cu	1.350815	0.366797	0.438240
Cu31	Cu	1.600815	0.616797	0.688240
Cu32	Cu	1.850815	0.866797	0.938240
Cu33	Cu	1.078476	0.139189	-0.187810
Cu34	Cu	1.328476	0.389189	0.062190
Cu35	Cu	1.578476	0.639189	0.312190
Cu36	Cu	1.828476	0.889189	0.562190
O37	O	1.091981	0.252765	0.159187
O38	O	1.341981	0.502765	0.409187
O39	O	1.591981	0.752765	0.659187
O40	O	1.841981	1.002765	0.909187
C41	C	1.096089	-0.040605	0.000234
C42	C	1.346089	0.209395	0.250234
C43	C	1.596089	0.459395	0.500234
C44	C	1.846089	0.709395	0.750234
C45	C	1.094093	-0.142985	0.000235
C46	C	1.344093	0.107015	0.250235
C47	C	1.594093	0.357015	0.500235
C48	C	1.844093	0.607015	0.750235
C49	C	0.921046	0.134450	0.000178
C50	C	1.171046	0.384450	0.250178
C51	C	1.421046	0.634450	0.500178
C52	C	1.671046	0.884450	0.750178
C53	C	0.818663	0.132463	0.000156
C54	C	1.068663	0.382463	0.250156
C55	C	1.318663	0.632463	0.500156
C56	C	1.568663	0.882463	0.750156
C57	C	1.092470	-0.226129	0.000230
C58	C	1.342470	0.023871	0.250230
C59	C	1.592470	0.273871	0.500230
C60	C	1.842470	0.523871	0.750230
C61	C	1.090443	-0.330436	0.000215
C62	C	1.340443	-0.080436	0.250215
C63	C	1.590443	0.169564	0.500215
C64	C	1.840443	0.419564	0.750215
C65	C	1.088834	-0.413575	0.000203
C66	C	1.338834	-0.163575	0.250203
C67	C	1.588834	0.086425	0.500203
C68	C	1.838834	0.336425	0.750203
C69	C	1.086807	-0.517890	0.000191
C70	C	1.336807	-0.267890	0.250191
C71	C	1.586807	-0.017890	0.500191
C72	C	1.836807	0.232110	0.750191
C73	C	0.443772	0.125139	0.000244
C74	C	0.693772	0.375139	0.250244
C75	C	0.943772	0.625139	0.500244
C76	C	1.193772	0.875139	0.750244
C77	C	0.548078	0.127173	0.000219
C78	C	0.798078	0.377173	0.250219
C79	C	1.048078	0.627173	0.500219
C80	C	1.298078	0.877173	0.750219
C81	C	0.631214	0.128801	0.000199
C82	C	0.881214	0.378801	0.250199
C83	C	1.131214	0.628801	0.500199
C84	C	1.381214	0.878801	0.750199
C85	C	0.735527	0.130835	0.000177
C86	C	0.985527	0.380835	0.250177
C87	C	1.235527	0.630835	0.500177
C88	C	1.485527	0.880835	0.750177
C89	C	1.258245	0.121537	0.000248
C90	C	1.508245	0.371537	0.250248
C91	C	1.758245	0.621537	0.500248
C92	C	2.008245	0.871537	0.750248
C93	C	1.360627	0.123524	0.000257
C94	C	1.610627	0.373524	0.250257
C95	C	1.860627	0.623524	0.500257
C96	C	2.110627	0.873524	0.750257
C97	C	1.083202	0.296591	0.000192
C98	C	1.333202	0.546591	0.250192
C99	C	1.583202	0.796591	0.500192
C100	C	1.833202	1.046591	0.750192
C101	C	1.085197	0.398972	0.000179
C102	C	1.335197	0.648972	0.250179
C103	C	1.585197	0.898972	0.500179
C104	C	1.835197	1.148972	0.750179
N105	N	1.116534	0.101048	0.452734
N106	N	1.366534	0.351048	0.702734
N107	N	1.616534	0.601048	0.952734
N108	N	1.866534	0.851048	1.202734
N109	N	1.062764	0.154931	-0.452303
N110	N	1.312764	0.404931	-0.202303
N111	N	1.562764	0.654931	0.047697
N112	N	1.812764	0.904931	0.297697
H113	H	1.172271	0.045212	0.534409
H114	H	1.422271	0.295212	0.784409
H115	H	1.672271	0.545212	1.034409
H116	H	1.922271	0.795212	1.284409
H117	H	1.007038	0.210770	0.466031
H118	H	1.257038	0.460770	0.716031
H119	H	1.507038	0.710770	0.966031
H120	H	1.757038	0.960770	1.216031
