data_functionalizedCrystal
_audit_creation_method	'MofGen! by Chris Wilmer'
_symmetry_space_group_name_H-M	'P1'
_symmetry_Int_Tables_number	1
_symmetry_cell_setting	triclinic
loop_
_symmetry_equiv_pos_as_xyz
  x,y,z
_cell_length_a	12.594517
_cell_length_b	12.594516
_cell_length_c	19.805399
_cell_angle_alpha	89.979203
_cell_angle_beta	89.980173
_cell_angle_gamma	90.015485
loop_
_atom_site_label
_atom_site_type_symbol
_atom_site_fract_x
_atom_site_fract_y
_atom_site_fract_z
Zn1	Zn	1.627242	-0.423783	-0.382756
Zn2	Zn	2.127242	0.076217	0.117244
Zn3	Zn	1.627140	-0.601776	-0.269581
Zn4	Zn	2.127140	-0.101776	0.230419
Zn5	Zn	1.449253	-0.423810	-0.269580
Zn6	Zn	1.949253	0.076190	0.230420
Zn7	Zn	1.449228	-0.601718	-0.382728
Zn8	Zn	1.949228	-0.101718	0.117272
O9	O	1.538216	-0.512772	-0.326161
O10	O	2.038216	-0.012772	0.173839
O11	O	1.776174	-0.447407	-0.367756
O12	O	2.276174	0.052593	0.132244
O13	O	1.603511	-0.578205	-0.174865
O14	O	2.103511	-0.078205	0.325135
O15	O	1.472917	-0.274861	-0.284605
O16	O	1.972917	0.225139	0.215395
O17	O	1.776099	-0.578178	-0.284607
O18	O	2.276099	-0.078178	0.215393
O19	O	1.603684	-0.274841	-0.367755
O20	O	2.103684	0.225159	0.132245
O21	O	1.472818	-0.447454	-0.174864
O22	O	1.972818	0.052546	0.325136
O23	O	1.300304	-0.447397	-0.284577
O24	O	1.800304	0.052603	0.215423
O25	O	1.472874	-0.578079	-0.477448
O26	O	1.972874	-0.078079	0.022552
O27	O	1.300286	-0.578105	-0.367706
O28	O	1.800286	-0.078105	0.132294
O29	O	1.603660	-0.447350	-0.477469
O30	O	2.103660	0.052650	0.022531
O31	O	1.603487	-0.750714	-0.284579
O32	O	2.103487	-0.250714	0.215421
O33	O	1.472775	-0.750672	-0.367707
O34	O	1.972775	-0.250672	0.132293
C35	C	1.261675	-0.512749	-0.326139
C36	C	1.761675	-0.012749	0.173861
C37	C	1.143369	-0.512765	-0.326145
C38	C	1.643369	-0.012765	0.173855
C39	C	1.003332	-0.441595	-0.281035
C40	C	1.503332	0.058405	0.218965
C41	C	1.074186	-0.415670	-0.342798
C42	C	1.574186	0.084330	0.157202
C43	C	1.074086	-0.538641	-0.264389
C44	C	1.574086	-0.038641	0.235611
C45	C	1.003438	-0.486832	-0.387990
C46	C	1.503438	0.013168	0.112010
C47	C	1.003332	-0.609848	-0.309540
C48	C	1.503332	-0.109848	0.190460
C49	C	1.074155	-0.583960	-0.371345
C50	C	1.574155	-0.083960	0.128655
C51	C	1.538146	-0.789313	-0.326155
C52	C	2.038146	-0.289313	0.173845
C53	C	1.538214	-0.907618	-0.326174
C54	C	2.038214	-0.407618	0.173826
C55	C	1.467113	-0.976887	-0.371356
C56	C	1.967113	-0.476887	0.128644
C57	C	1.441183	-1.047743	-0.309594
C58	C	1.941183	-0.547743	0.190406
C59	C	1.564240	-1.047561	-0.387947
C60	C	2.064240	-0.547561	0.112053
C61	C	1.512233	-0.976916	-0.264380
C62	C	2.012233	-0.476916	0.235620
C63	C	1.635334	-0.976728	-0.342775
C64	C	2.135334	-0.476728	0.157225
C65	C	1.609442	-1.047552	-0.280970
C66	C	2.109442	-0.547552	0.219030
C67	C	1.815837	-0.512796	-0.326184
C68	C	2.315837	-0.012796	0.173816
C69	C	1.934142	-0.512806	-0.326194
C70	C	2.434142	-0.012806	0.173806
C71	C	1.538275	-0.512705	-0.502704
C72	C	2.038275	-0.012705	-0.002704
C73	C	1.538301	-0.512676	-0.577936
C74	C	2.038301	-0.012676	-0.077936
C75	C	1.538315	-0.235151	-0.326183
C76	C	2.038315	0.264849	0.173817
C77	C	1.538357	-0.116846	-0.326192
C78	C	2.038357	0.383154	0.173808
C79	C	1.606403	-0.444603	-0.613292
C80	C	2.106403	0.055397	-0.113292
C81	C	1.606414	-0.444572	-0.683981
C82	C	2.106414	0.055428	-0.183981
C83	C	1.538327	-0.512621	-0.719312
C84	C	2.038327	-0.012621	-0.219312
C85	C	1.470218	-0.580697	-0.683951
C86	C	1.970218	-0.080697	-0.183951
C87	C	1.470203	-0.580722	-0.613263
C88	C	1.970203	-0.080722	-0.113263
C89	C	1.470278	-0.580598	-0.969024
C90	C	1.970278	-0.080598	-0.469024
C91	C	1.470301	-0.580570	-1.039716
C92	C	1.970301	-0.080570	-0.539716
C93	C	1.606489	-0.444448	-1.039741
C94	C	2.106489	0.055552	-0.539741
C95	C	1.606474	-0.444473	-0.969054
C96	C	2.106474	0.055527	-0.469054
C97	C	1.538361	-0.512545	-0.933699
C98	C	2.038361	-0.012545	-0.433699
C99	C	1.538348	-0.512576	-0.857051
C100	C	2.038348	-0.012576	-0.357051
C101	C	1.538344	-0.512596	-0.795959
C102	C	2.038344	-0.012596	-0.295959
C103	C	1.538218	-0.512762	-0.150305
C104	C	2.038218	-0.012762	0.349695
C105	C	1.538398	-0.512491	-0.075074
C106	C	2.038398	-0.012491	0.424926
H107	H	0.972534	-0.464868	-0.440253
H108	H	1.472534	0.035132	0.059747
H109	H	1.669631	-1.078385	-0.242725
H110	H	2.169631	-0.578385	0.257275
H111	H	1.661946	-0.389017	-1.068536
H112	H	2.161946	0.110983	-0.568536
H113	H	1.661850	-0.389193	-0.584531
H114	H	2.161850	0.110807	-0.084531
H115	H	1.661872	-0.389142	-0.712765
H116	H	2.161872	0.110858	-0.212765
H117	H	1.105054	-0.644165	-0.409558
H118	H	1.605054	-0.144165	0.090442
H119	H	0.972187	-0.691908	-0.295451
H120	H	1.472187	-0.191908	0.204549
H121	H	1.586195	-1.078593	-0.440181
H122	H	2.086195	-0.578593	0.059819
H123	H	1.359117	-1.078959	-0.295568
H124	H	1.859117	-0.578959	0.204432
H125	H	1.717382	-0.945515	-0.356830
H126	H	2.217382	-0.445515	0.143170
H127	H	1.490183	-0.946013	-0.212132
H128	H	1.990183	-0.446013	0.287868
H129	H	1.105123	-0.560509	-0.212141
H130	H	1.605123	-0.060509	0.287859
H131	H	1.661920	-0.389064	-0.940291
H132	H	2.161920	0.110936	-0.440291
H133	H	1.406878	-0.945857	-0.409509
H134	H	1.906878	-0.445857	0.090491
H135	H	1.414777	-0.636100	-0.712723
H136	H	1.914777	-0.136100	-0.212723
H137	H	1.105290	-0.333583	-0.356876
H138	H	1.605290	0.166417	0.143124
H139	H	1.414832	-0.636042	-0.940247
H140	H	1.914832	-0.136042	-0.440247
H141	H	1.414852	-0.635986	-1.068481
H142	H	1.914852	-0.135986	-0.568481
H143	H	0.972238	-0.381345	-0.242913
H144	H	1.472238	0.118655	0.257087
H145	H	1.414736	-0.636144	-0.584477
H146	H	1.914736	-0.136144	-0.084477
