data_functionalizedCrystal
_audit_creation_method	'MofGen! by Chris Wilmer'
_symmetry_space_group_name_H-M	'P1'
_symmetry_Int_Tables_number	1
_symmetry_cell_setting	triclinic
loop_
_symmetry_equiv_pos_as_xyz
  x,y,z
_cell_length_a	19.188930
_cell_length_b	10.489741
_cell_length_c	9.565339
_cell_angle_alpha	90.000900
_cell_angle_beta	89.995116
_cell_angle_gamma	96.158022
loop_
_atom_site_label
_atom_site_type_symbol
_atom_site_fract_x
_atom_site_fract_y
_atom_site_fract_z
O1	O	0.098497	-1.691850	-0.116191
O2	O	0.107743	-1.320448	-0.116215
O3	O	0.001537	-1.516867	-0.116175
O4	O	0.204704	-1.495431	-0.116231
O5	O	0.001543	-1.516852	0.116345
O6	O	0.107750	-1.320432	0.116305
O7	O	0.098504	-1.691835	0.116329
Zn8	Zn	0.103128	-1.506131	0.153235
Zn9	Zn	0.103119	-1.506152	-0.153121
O10	O	0.204711	-1.495416	0.116289
C11	C	0.107048	-1.272924	0.000043
C12	C	0.104959	-1.131341	0.000035
C13	C	-0.024476	-1.516165	0.000089
C14	C	-0.101994	-1.514081	0.000101
C15	C	0.099199	-1.739359	0.000068
C16	C	0.101288	-1.880941	0.000067
C17	C	-0.146146	-1.629334	0.000115
C18	C	-0.218983	-1.627376	0.000092
C19	C	-0.247665	-1.510159	0.000084
C20	C	-0.203503	-1.394892	0.000062
C21	C	-0.130668	-1.396853	0.000071
N22	N	-0.356268	-1.420556	0.079209
N23	N	-0.425459	-1.418701	0.079204
C24	C	-0.467113	-1.504244	0.000055
N25	N	-0.436964	-1.591732	-0.079071
N26	N	-0.367767	-1.593590	-0.079059
C27	C	-0.326642	-1.508020	0.000074
C28	C	-0.590244	-1.617382	0.000043
C29	C	-0.663081	-1.615419	0.000012
C30	C	-0.647600	-1.382932	-0.000004
C31	C	-0.574764	-1.384898	0.000013
C32	C	-0.546090	-1.502126	0.000043
C33	C	0.230723	-1.496118	0.000022
C34	C	0.308242	-1.498202	0.000001
N35	N	0.103134	-1.506127	0.362314
C36	C	0.037383	-1.064712	0.000067
C37	C	0.069302	-0.971879	-0.114584
C38	C	0.069325	-0.971898	0.114663
C39	C	0.136906	-1.040373	-0.114710
C40	C	0.136919	-1.040401	0.114640
C41	C	0.168887	-0.947595	-0.000039
N42	N	0.103108	-1.506166	-0.362200
C43	C	0.152234	-1.415262	0.453499
C44	C	0.166361	-1.530443	0.546681
C45	C	0.089012	-1.390995	0.546688
C46	C	0.117292	-1.621366	0.453444
C47	C	0.039916	-1.481842	0.453443
C48	C	0.054016	-1.597107	0.546583
H49	H	-0.122805	-1.724790	0.000135
H50	H	-0.699030	-1.709275	0.000015
C51	C	0.133503	-1.752951	0.398349
N52	N	0.145717	-1.852056	0.356848
C53	C	-0.679146	-1.253992	-0.000019
N54	N	-0.702910	-1.156870	-0.000033
H55	H	-0.538814	-1.291047	0.000009
C56	C	-0.002090	-1.701051	0.601475
N57	N	-0.044345	-1.779346	0.642829
H58	H	-0.013519	-1.461239	0.412456
C59	C	0.072887	-1.259437	0.602014
N60	N	0.060747	-1.160344	0.643680
H61	H	-0.254938	-1.721231	0.000098
C62	C	-0.037676	-1.133471	-0.000067
N63	N	-0.094209	-1.185263	-0.000175
H64	H	0.040706	-0.941511	-0.211499
C65	C	-0.235055	-1.265953	0.000063
N66	N	-0.258819	-1.168833	0.000063
C67	C	0.208381	-1.311554	0.398267
N68	N	0.250672	-1.233449	0.356662
C69	C	-0.558700	-1.746334	0.000055
N70	N	-0.534944	-1.843462	0.000060
C71	C	0.175494	-1.081163	-0.245812
N72	N	0.204555	-1.111890	-0.344560
C73	C	0.244013	-0.879133	-0.000145
N74	N	0.300596	-0.827564	-0.000233
H75	H	-0.094719	-1.302998	0.000060
H76	H	0.165492	-1.070802	0.211559
C77	C	0.030685	-0.930906	0.245612
N78	N	0.001577	-0.900036	0.344237
C79	C	0.238569	-1.558221	0.602024
N80	N	0.292958	-1.579133	0.643708
