data_functionalizedCrystal
_audit_creation_method	'MofGen! by Chris Wilmer'
_symmetry_space_group_name_H-M	'P1'
_symmetry_Int_Tables_number	1
_symmetry_cell_setting	triclinic
loop_
_symmetry_equiv_pos_as_xyz
  x,y,z
_cell_length_a	12.759401
_cell_length_b	17.640280
_cell_length_c	17.637815
_cell_angle_alpha	87.852258
_cell_angle_beta	78.802612
_cell_angle_gamma	78.801088
loop_
_atom_site_label
_atom_site_type_symbol
_atom_site_fract_x
_atom_site_fract_y
_atom_site_fract_z
Zn1	Zn	1.611794	-0.389103	0.368265
Zn2	Zn	2.111794	0.110897	0.868265
Zn3	Zn	1.679969	-0.490430	0.215636
Zn4	Zn	2.179969	0.009570	0.715636
Zn5	Zn	1.463352	-0.363464	0.241294
Zn6	Zn	1.963352	0.136536	0.741294
Zn7	Zn	1.477107	-0.516047	0.342597
Zn8	Zn	1.977107	-0.016047	0.842597
O9	O	1.558056	-0.439761	0.291948
O10	O	2.058056	0.060239	0.791948
O11	O	1.767860	-0.402553	0.348022
O12	O	2.267860	0.097447	0.848022
O13	O	1.674010	-0.452137	0.112768
O14	O	2.174010	0.047863	0.612768
O15	O	1.448756	-0.260602	0.279617
O16	O	1.948756	0.239398	0.779617
O17	O	1.817948	-0.476998	0.235886
O18	O	2.317948	0.023002	0.735886
O19	O	1.557816	-0.279439	0.372902
O20	O	2.057816	0.220561	0.872902
O21	O	1.514862	-0.358855	0.131619
O22	O	2.014862	0.141145	0.631619
O23	O	1.318155	-0.383695	0.254727
O24	O	1.818155	0.116305	0.754727
O25	O	1.472198	-0.520659	0.452273
O26	O	1.972198	-0.020659	0.952273
O27	O	1.328260	-0.495798	0.329154
O28	O	1.828260	0.004202	0.829154
O29	O	1.571152	-0.427393	0.471131
O30	O	2.071152	0.072607	0.971131
O31	O	1.687347	-0.600091	0.210997
O32	O	2.187347	-0.100091	0.710997
O33	O	1.538304	-0.618912	0.304275
O34	O	2.038304	-0.118912	0.804275
C35	C	1.285086	-0.439745	0.291940
C36	C	1.785086	0.060255	0.791940
C37	C	1.168310	-0.439760	0.291951
C38	C	1.668310	0.060240	0.791951
C39	C	1.118780	-0.498193	0.330609
C40	C	1.618780	0.001807	0.830609
C41	C	1.009057	-0.498204	0.330616
C42	C	1.509057	0.001796	0.830616
C43	C	0.998406	-0.381346	0.253300
C44	C	1.498406	0.118654	0.753300
C45	C	1.108125	-0.381332	0.253298
C46	C	1.608125	0.118668	0.753298
C47	C	1.178966	-0.556621	0.369262
C48	C	1.678966	-0.056621	0.869262
C49	C	1.129436	-0.615059	0.407923
C50	C	1.629436	-0.115059	0.907923
C51	C	1.019713	-0.615071	0.407929
C52	C	1.519713	-0.115071	0.907929
C53	C	0.959520	-0.556643	0.369275
C54	C	1.459520	-0.056643	0.869275
C55	C	1.621741	-0.637057	0.252083
C56	C	2.121741	-0.137057	0.752083
C57	C	1.649077	-0.721466	0.235054
C58	C	2.149077	-0.221466	0.735054
C59	C	1.350762	-1.048154	0.421590
C60	C	1.850762	-0.548154	0.921590
C61	C	1.376456	-1.127464	0.405565
C62	C	1.876456	-0.627464	0.905565
C63	C	1.531716	-1.107820	0.308533
C64	C	2.031716	-0.607820	0.808533
C65	C	1.506039	-1.028507	0.324552
C66	C	2.006039	-0.528507	0.824552
C67	C	1.415560	-0.998680	0.381081
C68	C	1.915560	-0.498680	0.881081
C69	C	1.570836	-0.979034	0.284044
C70	C	2.070836	-0.479034	0.784044
C71	C	1.545158	-0.899727	0.300060
C72	C	2.045158	-0.399727	0.800060
C73	C	1.454681	-0.869893	0.356584
C74	C	1.954681	-0.369893	0.856584
C75	C	1.389881	-0.919373	0.397097
C76	C	1.889881	-0.419373	0.897097
C77	C	1.661310	-1.008861	0.227512
C78	C	2.161310	-0.508861	0.727512
C79	C	1.726108	-0.959388	0.187003
C80	C	2.226108	-0.459388	0.687003
C81	C	1.700434	-0.880080	0.203022
C82	C	2.200434	-0.380080	0.703022
C83	C	1.609958	-0.850247	0.259547
C84	C	2.109958	-0.350247	0.759547
C85	C	1.765234	-0.830600	0.162510
C86	C	2.265234	-0.330600	0.662510
C87	C	1.739555	-0.751293	0.178526
C88	C	2.239555	-0.251293	0.678526
C89	C	1.584279	-0.770940	0.275563
C90	C	2.084279	-0.270940	0.775563
C91	C	1.832091	-0.439778	0.291956
C92	C	2.332091	0.060222	0.791956
C93	C	1.948869	-0.439785	0.291959
C94	C	2.448869	0.060215	0.791959
C95	C	1.515605	-0.479743	0.490028
C96	C	2.015605	0.020257	0.990028
C97	C	1.497515	-0.496781	0.574438
C98	C	1.997515	0.003219	1.074438
C99	C	1.494147	-0.241698	0.331985
C100	C	1.994147	0.258302	0.831985
C101	C	1.466912	-0.157295	0.349046
C102	C	1.966912	0.342705	0.849046
C103	C	1.600384	-0.399879	0.094649
C104	C	2.100384	0.100121	0.594649
C105	C	1.618609	-0.382627	0.010283
C106	C	2.118609	0.117373	0.510283
C107	C	1.695623	-0.310045	0.901139
C108	C	2.195623	0.189955	1.401139
C109	C	1.678618	-0.326072	0.980452
C110	C	2.178618	0.173928	1.480452
C111	C	1.575585	-0.423181	0.960806
C112	C	2.075585	0.076819	1.460806
C113	C	1.592586	-0.407165	0.881490
C114	C	2.092586	0.092835	1.381490
C115	C	1.652604	-0.350595	0.851663
C116	C	2.152604	0.149405	1.351663
C117	C	1.549567	-0.447715	0.832014
C118	C	2.049567	0.052285	1.332014
C119	C	1.566562	-0.431697	0.752705
C120	C	2.066562	0.068303	1.252705
C121	C	1.626575	-0.375129	0.722872
C122	C	2.126575	0.124871	1.222872
C123	C	1.669599	-0.334577	0.772354
C124	C	2.169599	0.165423	1.272354
C125	C	1.489543	-0.504281	0.861843
C126	C	1.989543	-0.004281	1.361843
C127	C	1.446524	-0.544831	0.812366
C128	C	1.946524	-0.044831	1.312366
C129	C	1.463525	-0.528817	0.733055
C130	C	1.963525	-0.028817	1.233055
C131	C	1.523538	-0.472249	0.703223
C132	C	2.023538	0.027751	1.203223
C133	C	1.420501	-0.569369	0.683573
C134	C	1.920501	-0.069369	1.183573
C135	C	1.437496	-0.553351	0.604264
C136	C	1.937496	-0.053351	1.104264
C137	C	1.540533	-0.456231	0.623914
C138	C	2.040533	0.043769	1.123914
H139	H	1.178450	-0.662625	0.439399
H140	H	1.678450	-0.162625	0.939399
Cl141	Cl	1.470541	-0.733439	0.346636
Cl142	Cl	1.970541	-0.233439	0.846636
H143	H	1.433769	-0.805315	0.369618
H144	H	1.933769	-0.305315	0.869618
Cl145	Cl	1.371074	-0.615944	0.849871
Cl146	Cl	1.871074	-0.115944	1.349871
H147	H	1.640411	-0.362088	0.658293
H148	H	2.140411	0.137912	1.158293
H149	H	1.799773	-0.983684	0.140975
H150	H	2.299773	-0.483684	0.640975
Cl151	Cl	0.922735	-0.307902	0.204707
Cl152	Cl	1.422735	0.192098	0.704707
Cl153	Cl	1.732659	-0.275060	1.042655
Cl154	Cl	2.232659	0.224940	1.542655
Cl155	Cl	0.957447	-0.688529	0.456537
Cl156	Cl	1.457447	-0.188529	0.956537
H157	H	0.870174	-0.556652	0.369291
H158	H	1.370174	-0.056652	0.869291
Cl159	Cl	1.170397	-0.307872	0.204699
Cl160	Cl	1.670397	0.192128	0.704699
H161	H	1.316211	-0.895089	0.443134
H162	H	1.816211	-0.395089	0.943134
Cl163	Cl	1.237024	-1.010652	0.492663
Cl164	Cl	1.737024	-0.510652	0.992663
H165	H	1.371626	-0.615423	0.707871
H166	H	1.871626	-0.115423	1.207871
Cl167	Cl	1.294974	-1.189657	0.456488
Cl168	Cl	1.794974	-0.689657	0.956488
Cl169	Cl	1.383414	-0.604328	0.542062
Cl170	Cl	1.883414	-0.104328	1.042062
Cl171	Cl	1.645458	-1.145325	0.237473
Cl172	Cl	2.145458	-0.645325	0.737473
H173	H	1.268309	-0.556619	0.369260
H174	H	1.768309	-0.056619	0.869260
Cl175	Cl	1.693624	-1.108568	0.207405
Cl176	Cl	2.193624	-0.608568	0.707405
Cl177	Cl	1.878968	-0.868106	0.091443
Cl178	Cl	2.378968	-0.368106	0.591443
Cl179	Cl	1.821007	-0.689093	0.127593
Cl180	Cl	2.321007	-0.189093	0.627593
H181	H	1.589412	-0.410170	0.599627
H182	H	2.089412	0.089830	1.099627
H183	H	1.744501	-0.263984	0.876853
H184	H	2.244501	0.236016	1.376853
Cl185	Cl	1.745067	-0.263468	0.734850
Cl186	Cl	2.245067	0.236532	1.234850
H187	H	1.526716	-0.469239	0.985102
H188	H	2.026716	0.030761	1.485102
Cl189	Cl	1.468162	-0.524408	0.961548
Cl190	Cl	1.968162	-0.024408	1.461548
