data_functionalizedCrystal
_audit_creation_method	'MofGen! by Chris Wilmer'
_symmetry_space_group_name_H-M	'P1'
_symmetry_Int_Tables_number	1
_symmetry_cell_setting	triclinic
loop_
_symmetry_equiv_pos_as_xyz
  x,y,z
_cell_length_a	23.196402
_cell_length_b	14.560438
_cell_length_c	23.196401
_cell_angle_alpha	60.008046
_cell_angle_beta	90.011299
_cell_angle_gamma	59.997804
loop_
_atom_site_label
_atom_site_type_symbol
_atom_site_fract_x
_atom_site_fract_y
_atom_site_fract_z
Zr1	Zr	0.555356	1.005254	-0.075655
O2	O	0.463282	1.196861	-0.167702
O3	O	0.583582	0.813651	-0.047439
O4	O	0.583553	1.005255	-0.167707
O5	O	0.463334	1.005255	0.047438
O6	O	0.678425	1.005251	-0.167709
O7	O	0.463311	1.005257	-0.047434
O8	O	0.678476	0.662507	0.047429
O9	O	0.463283	1.347999	-0.167700
O10	O	0.666422	0.892456	-0.035404
O11	O	0.595637	0.892457	0.035398
O12	O	0.595603	1.118046	-0.106202
O13	O	0.524818	1.118047	-0.035399
Zr14	Zr	0.706702	1.005244	0.075651
Zr15	Zr	0.706666	1.005248	-0.075658
Zr16	Zr	0.555393	1.005250	0.075654
Zr17	Zr	0.555357	1.246302	-0.075652
Zr18	Zr	0.706702	0.764196	0.075648
O19	O	0.678477	1.196847	0.047435
O20	O	0.678425	1.196852	-0.167707
O21	O	0.463334	1.196855	0.047440
O22	O	0.798776	0.813637	0.167699
O23	O	0.798725	0.813643	-0.047443
O24	O	0.583633	0.813646	0.167703
O25	O	0.798725	1.005243	-0.047441
O26	O	0.678505	1.005243	0.167703
O27	O	0.583633	1.005247	0.167705
O28	O	0.798748	1.005241	0.047430
O29	O	0.583554	1.347994	-0.167703
O30	O	0.678505	0.662504	0.167699
O31	O	0.798776	0.662499	0.167697
O32	O	0.798747	0.662502	0.047426
O33	O	0.463311	1.347996	-0.047430
O34	O	0.583582	1.347991	-0.047432
O35	O	0.666455	0.892452	0.106198
O36	O	0.737240	0.892451	0.035395
O37	O	0.666422	1.118041	-0.035402
O38	O	0.595637	1.118042	0.035401
C39	C	0.631029	0.703735	-0.000005
C40	C	0.631029	0.601404	-0.000006
C41	C	0.667976	0.553327	-0.036965
C42	C	0.667979	0.457168	-0.036958
C43	C	0.594081	0.457174	0.036966
C44	C	0.594083	0.553325	0.036963
C45	C	0.441764	1.005257	0.000002
C46	C	0.377529	1.005259	0.000004
C47	C	0.347344	1.005270	-0.052265
C48	C	0.286993	1.005259	-0.052265
C49	C	0.256821	1.005262	-0.000001
C50	C	0.287015	1.005244	0.052277
C51	C	0.347369	1.005243	0.052279
C52	C	0.137450	1.080945	0.016286
C53	C	0.077094	1.080955	0.016278
C54	C	0.070671	1.005261	-0.000005
C55	C	0.124604	0.929574	-0.016296
C56	C	0.184958	0.929572	-0.016294
C57	C	0.191377	1.005263	0.000002
C58	C	-0.024953	1.005257	-0.052277
C59	C	-0.085303	1.005237	-0.052272
C60	C	-0.085284	1.005236	0.052267
C61	C	-0.024931	1.005242	0.052265
C62	C	0.005229	1.005259	-0.000011
C63	C	0.820295	1.005241	-0.000006
C64	C	0.884530	1.005239	-0.000007
C65	C	0.630984	1.005254	-0.189266
C66	C	0.630969	1.005255	-0.253501
C67	C	0.631030	1.306763	0.000002
C68	C	0.631030	1.409094	0.000003
C69	C	0.594006	1.123007	-0.320629
C70	C	0.594024	1.123009	-0.380984
C71	C	0.630995	1.005252	-0.374207
C72	C	0.667966	0.887484	-0.307066
C73	C	0.667953	0.887486	-0.246713
C74	C	0.625745	0.915035	-0.441525
C75	C	0.625753	0.915039	-0.501879
C76	C	0.631040	1.005242	-0.560355
C77	C	0.636304	1.095464	-0.558477
C78	C	0.636291	1.095466	-0.498123
C79	C	0.631014	1.005237	-0.439646
C80	C	0.594094	1.123004	-0.692930
C81	C	0.594117	1.123001	-0.753285
C82	C	0.668055	0.887473	-0.679364
C83	C	0.668037	0.887480	-0.619012
C84	C	0.631053	1.005249	-0.625799
C85	C	0.631075	1.005244	0.189263
C86	C	0.631090	1.005243	0.253497
C87	C	0.820294	0.703727	-0.000009
C88	C	0.884529	0.601394	-0.000012
C89	C	0.631074	0.703731	0.189259
C90	C	0.631089	0.601398	0.253493
C91	C	0.820340	0.703723	0.189255
C92	C	0.884590	0.601388	0.253487
C93	C	0.441719	1.306775	-0.189258
C94	C	0.377469	1.409110	-0.253490
C95	C	0.441764	1.306771	0.000006
C96	C	0.377530	1.409104	0.000009
C97	C	0.630984	1.306767	-0.189263
C98	C	0.630969	1.409100	-0.253496
C99	C	0.877728	0.553339	-0.036976
C100	C	0.938077	0.457199	-0.036993
C101	C	1.005228	0.409109	-0.000040
C102	C	1.012028	0.457173	0.036925
C103	C	0.951679	0.553318	0.036937
C104	C	0.668063	0.553339	0.320620
C105	C	0.668075	0.457200	0.380980
C106	C	0.631116	0.409115	0.374211
C107	C	0.594138	0.457184	0.307076
C108	C	0.594123	0.553327	0.246717
C109	C	0.951718	0.553329	0.246693
C110	C	1.012093	0.457188	0.307040
C111	C	1.005339	0.409100	0.374180
C112	C	0.938205	0.457168	0.380973
C113	C	0.877830	0.553314	0.320627
C114	C	0.310341	1.457180	-0.246696
C115	C	0.249965	1.553352	-0.307043
C116	C	0.256719	1.601445	-0.374184
C117	C	0.323854	1.553371	-0.380977
C118	C	0.384228	1.457208	-0.320631
C119	C	0.384331	1.457169	0.036967
C120	C	0.323981	1.553335	0.036967
C121	C	0.256831	1.601429	0.000012
C122	C	0.250031	1.553360	-0.036951
C123	C	0.310380	1.457202	-0.036954
C124	C	0.667935	1.457154	-0.246704
C125	C	0.667934	1.553294	-0.307052
C126	C	0.630964	1.601384	-0.374192
C127	C	0.593997	1.553320	-0.380983
C128	C	0.594002	1.457176	-0.320635
H129	H	0.262412	1.005267	-0.094830
H130	H	0.329532	1.592457	0.067069
C131	C	0.253826	1.005254	0.109763
H132	H	0.213554	1.005271	0.102271
H133	H	0.287368	0.929921	0.154882
H134	H	0.240071	1.080597	0.107593
C135	C	0.553436	0.404298	0.077621
H136	H	0.558720	0.340158	0.072324
H137	H	0.571697	0.366788	0.126243
H138	H	0.504806	0.473337	0.059365
H139	H	0.698066	0.418025	-0.067052
H140	H	0.563995	0.592468	0.067062
C141	C	0.708590	1.606162	-0.299570
H142	H	0.730596	1.563764	-0.250940
H143	H	0.743568	1.590398	-0.321567
H144	H	0.676679	1.696945	-0.321577
C145	C	0.553496	0.404267	0.299639
H146	H	0.558814	0.340113	0.345203
H147	H	0.504865	0.473274	0.274564
H148	H	0.571754	0.366735	0.274570
H149	H	0.329345	1.592541	-0.435650
C150	C	0.144513	1.164211	0.034199
H151	H	0.188184	1.153362	0.031874
H152	H	0.106741	1.253022	0.001287
H153	H	0.142984	1.137593	0.080498
H154	H	0.631135	0.330829	0.423364
C155	C	0.959165	0.606171	0.077600
H156	H	0.913610	0.670328	0.072315
H157	H	0.984261	0.537134	0.126219
H158	H	0.984238	0.643683	0.059340
C159	C	0.380522	1.005272	-0.109760
H160	H	0.353901	1.005266	-0.140887
H161	H	0.380419	1.080602	-0.135575
H162	H	0.427716	0.929926	-0.088287
H163	H	0.564017	0.592444	0.192061
H164	H	0.207553	1.679746	-0.423316
H165	H	0.033183	1.142589	0.029540
C166	C	1.071755	0.303331	0.440555
H167	H	1.112699	0.281593	0.426886
H168	H	1.071775	0.334830	0.467865
H169	H	1.071771	0.228299	0.467856
H170	H	1.066752	0.418061	0.301496
H171	H	0.371946	1.005233	0.094844
H172	H	0.640605	1.168921	-0.606090
H173	H	0.564020	1.218893	-0.807945
C174	C	0.930589	0.404331	-0.077649
H175	H	0.976144	0.340193	-0.072374
H176	H	0.905518	0.366820	-0.059389
H177	H	0.905491	0.473372	-0.126271
H178	H	0.563893	1.218904	-0.326162
C179	C	0.458065	1.404325	-0.328113
H180	H	0.453434	1.446736	-0.376744
H181	H	0.483166	1.420064	-0.306108
H182	H	0.483143	1.313546	-0.306116
C183	C	0.930785	0.404250	0.454830
H184	H	0.976359	0.340096	0.489791
H185	H	0.905709	0.473257	0.460141
H186	H	0.905717	0.366719	0.460127
H187	H	0.439003	1.418018	0.067064
H188	H	0.195349	1.592533	-0.067038
C189	C	0.803869	0.606229	-0.077628
H190	H	0.768894	0.670368	-0.072328
H191	H	0.798564	0.643745	-0.126250
H192	H	0.798580	0.537197	-0.059377
C193	C	0.803994	0.606153	0.328110
H194	H	0.808625	0.563727	0.376740
H195	H	0.778894	0.696931	0.306107
H196	H	0.778914	0.590371	0.306110
H197	H	0.207697	1.679727	0.000021
C198	C	0.302898	1.404309	-0.172849
H199	H	0.254268	1.446736	-0.177456
H200	H	0.324905	1.313533	-0.147763
H201	H	0.324916	1.420076	-0.147775
H202	H	0.630965	1.679671	-0.423325
H203	H	0.304832	1.418071	-0.067048
C204	C	0.959161	0.606213	0.172846
H205	H	1.007791	0.563820	0.177452
H206	H	0.937152	0.590453	0.147763
H207	H	0.937144	0.696996	0.147769
C208	C	0.708609	1.404268	-0.172858
H209	H	0.730627	1.446658	-0.177466
H210	H	0.676718	1.420030	-0.147773
H211	H	0.743589	1.313484	-0.147782
C212	C	0.244286	0.846309	-0.034202
H213	H	0.231824	0.801218	-0.043895
H214	H	0.250702	0.900866	-0.074479
H215	H	0.286936	0.785450	0.004735
H216	H	1.066709	0.418004	0.067010
C217	C	0.553326	1.606239	-0.454838
H218	H	0.558614	1.670392	-0.489801
H219	H	0.571564	1.537233	-0.460149
H220	H	0.504697	1.643773	-0.460133
C221	C	0.553428	1.252541	-0.700391
H222	H	0.531427	1.322673	-0.749018
H223	H	0.518446	1.257452	-0.678400
H224	H	0.585332	1.257423	-0.678367
H225	H	0.563897	1.418061	-0.326175
C226	C	0.708631	0.757956	-0.299610
H227	H	0.703339	0.774818	-0.345168
H228	H	0.757256	0.709566	-0.274520
H229	H	0.690376	0.709576	-0.274547
C230	C	0.708608	0.757954	-0.172869
H231	H	0.730628	0.687819	-0.177473
H232	H	0.743574	0.753056	-0.147771
H233	H	0.676695	0.753065	-0.147808
C234	C	0.117554	0.846287	-0.034196
H235	H	0.073891	0.857107	-0.031854
H236	H	0.119084	0.872883	-0.080489
H237	H	0.155333	0.757476	-0.001274
C238	C	0.008234	1.005247	-0.109767
H239	H	-0.018382	1.005229	-0.140891
H240	H	0.008129	1.080578	-0.135585
H241	H	0.055429	0.929903	-0.088289
C242	C	-0.118501	1.005224	-0.109761
H243	H	-0.158759	1.005200	-0.102270
H244	H	-0.132268	1.080555	-0.154882
H245	H	-0.084955	0.929880	-0.107586
C246	C	-0.118461	1.005233	0.109760
H247	H	-0.091835	1.005221	0.140893
H248	H	-0.165655	1.080562	0.088294
H249	H	-0.118348	0.929886	0.135576
C250	C	0.008268	1.005250	0.109755
H251	H	-0.018347	1.005261	0.140879
H252	H	0.055462	0.929919	0.135571
H253	H	0.008157	1.080595	0.088281
H254	H	0.563922	1.218900	-0.435651
H255	H	0.195307	1.592477	-0.301498
C256	C	0.708723	0.757942	-0.671902
H257	H	0.703434	0.774804	-0.717461
H258	H	0.757346	0.709553	-0.646810
H259	H	0.690466	0.709564	-0.646842
C260	C	0.642085	1.194693	-0.496051
H261	H	0.641314	1.181776	-0.451734
H262	H	0.685070	1.183340	-0.502361
H263	H	0.603434	1.280186	-0.532777
C264	C	0.708760	0.404331	0.454819
H265	H	0.730777	0.446727	0.450201
H266	H	0.676873	0.420097	0.479907
H267	H	0.743742	0.313547	0.479899
H268	H	0.698133	0.791593	-0.564351
C269	C	0.619960	0.815806	-0.503945
H270	H	0.620716	0.828734	-0.548267
H271	H	0.658608	0.730319	-0.467222
H272	H	0.576972	0.827165	-0.497633
H273	H	0.698159	0.592479	0.326146
H274	H	0.698061	0.592469	-0.067067
H275	H	0.621435	0.841581	-0.393916
H276	H	1.054362	0.330821	-0.000055
