data_functionalizedCrystal
_audit_creation_method	'MofGen! by Chris Wilmer'
_symmetry_space_group_name_H-M	'P1'
_symmetry_Int_Tables_number	1
_symmetry_cell_setting	triclinic
loop_
_symmetry_equiv_pos_as_xyz
  x,y,z
_cell_length_a	11.792241
_cell_length_b	19.288865
_cell_length_c	17.766277
_cell_angle_alpha	90.011603
_cell_angle_beta	89.991519
_cell_angle_gamma	96.335169
loop_
_atom_site_label
_atom_site_type_symbol
_atom_site_fract_x
_atom_site_fract_y
_atom_site_fract_z
O1	O	1.505473	-0.095201	-0.062589
O2	O	1.174983	-0.105012	-0.062594
O3	O	1.349777	0.000970	-0.062577
O4	O	1.330678	-0.201183	-0.062607
O5	O	1.349747	0.000975	0.062612
O6	O	1.174952	-0.105007	0.062594
O7	O	1.505442	-0.095195	0.062600
Cu8	Cu	1.340194	-0.100100	0.074028
Cu9	Cu	1.340230	-0.100107	-0.074022
O10	O	1.330647	-0.201177	0.062582
C11	C	1.132686	-0.104393	-0.000001
C12	C	1.006700	-0.102548	-0.000002
C13	C	1.349147	0.026852	0.000020
C14	C	1.347303	0.103966	0.000027
C15	C	1.547739	-0.095814	0.000004
C16	C	1.673725	-0.097659	0.000001
C17	C	1.904385	-0.101051	0.000001
C18	C	1.776029	-0.099166	0.000001
C19	C	1.331277	-0.227060	-0.000016
C20	C	1.333122	-0.304174	-0.000028
N21	N	1.340177	-0.100095	0.178158
C22	C	1.449864	0.148080	0.000032
C23	C	1.448131	0.220537	0.000020
C24	C	1.343830	0.248877	0.000018
C25	C	1.241255	0.204754	0.000008
C26	C	1.242992	0.132298	0.000012
C27	C	1.261827	0.357632	0.043867
C28	C	1.260096	0.430086	0.043867
C29	C	1.338472	0.472353	0.000001
C30	C	1.418599	0.442158	-0.043856
C31	C	1.420335	0.369703	-0.043852
C32	C	1.341936	0.327442	0.000013
C33	C	1.439161	0.595033	-0.000008
C34	C	1.437423	0.667491	-0.000024
C35	C	1.230545	0.651706	-0.000029
C36	C	1.232285	0.579250	-0.000020
C37	C	1.336596	0.550918	-0.000006
N38	N	1.340257	-0.100107	-0.178153
C39	C	1.417601	-0.053190	0.217553
C40	C	1.417608	-0.053187	0.296355
C41	C	1.340201	-0.100101	0.335758
C42	C	1.262763	-0.147010	0.296354
C43	C	1.262751	-0.147007	0.217554
C44	C	1.325007	-0.163302	0.460587
C45	C	1.325027	-0.163306	0.539386
C46	C	1.340231	-0.100110	0.578805
C47	C	1.355440	-0.036907	0.539415
C48	C	1.355428	-0.036904	0.460615
C49	C	1.340205	-0.100109	0.421204
C50	C	1.417667	-0.053197	0.703646
C51	C	1.417665	-0.053193	0.782449
C52	C	1.262826	-0.147022	0.782447
C53	C	1.262822	-0.147020	0.703645
C54	C	1.340248	-0.100108	0.664249
H55	H	1.534802	0.125017	0.000041
H56	H	1.482420	0.476570	-0.079577
H57	H	1.367820	0.014554	0.571509
H58	H	1.480643	-0.014990	0.185479
N59	N	1.496740	-0.005241	0.663438
N60	N	1.567134	-0.027499	0.619451
H61	H	1.622980	0.006386	0.591075
N62	N	1.183747	-0.194931	0.663386
N63	N	1.113414	-0.172601	0.619429
H64	H	1.057563	-0.206439	0.590994
N65	N	1.183752	-0.194933	0.822699
N66	N	1.183766	-0.194927	0.893055
H67	H	1.127914	-0.228763	0.921488
H68	H	1.199735	-0.185207	0.328441
H69	H	1.145622	0.674780	-0.000034
N70	N	1.545696	0.566076	-0.000013
N71	N	1.547233	0.501383	-0.000008
H72	H	1.622474	0.480932	-0.000013
H73	H	1.520945	0.703409	-0.000024
N74	N	1.552910	0.265599	0.000025
N75	N	1.646033	0.240293	0.000035
H76	H	1.720035	0.272116	0.000040
N77	N	1.127509	0.534195	-0.000023
N78	N	1.034389	0.559504	-0.000028
H79	H	0.960385	0.527684	-0.000032
N80	N	1.370962	0.027657	0.420391
N81	N	1.384540	0.084081	0.455587
H82	H	1.395508	0.129679	0.427180
H83	H	1.199701	-0.185204	0.185478
N84	N	1.178237	0.460914	0.088662
N85	N	1.108174	0.496066	0.058029
H86	H	1.050356	0.517833	0.089668
N87	N	1.309507	-0.227869	0.579605
N88	N	1.295921	-0.284290	0.544404
H89	H	1.284961	-0.329890	0.572807
H90	H	1.485575	0.345121	-0.079563
H91	H	1.198001	0.323224	0.079593
H92	H	1.156333	0.227833	0.000005
H93	H	1.480710	-0.014993	0.814525
N94	N	1.138212	0.087243	0.000003
N95	N	1.045091	0.112551	-0.000007
H96	H	0.971087	0.080730	-0.000013
N97	N	1.496702	-0.005265	0.336595
N98	N	1.565820	0.036618	0.301411
H99	H	1.621681	0.070463	0.329828
N100	N	1.309487	-0.227868	0.420337
N101	N	1.295935	-0.284291	0.455512
H102	H	1.284980	-0.329890	0.427087
