data_functionalizedCrystal
_audit_creation_method	'MofGen! by Chris Wilmer'
_symmetry_space_group_name_H-M	'P1'
_symmetry_Int_Tables_number	1
_symmetry_cell_setting	triclinic
loop_
_symmetry_equiv_pos_as_xyz
  x,y,z
_cell_length_a	19.077312
_cell_length_b	14.909042
_cell_length_c	19.076919
_cell_angle_alpha	90.890210
_cell_angle_beta	85.331053
_cell_angle_gamma	84.564347
loop_
_atom_site_label
_atom_site_type_symbol
_atom_site_fract_x
_atom_site_fract_y
_atom_site_fract_z
Zn1	Zn	1.081956	-0.432047	0.335033
Zn2	Zn	1.093427	-0.577079	0.210359
Zn3	Zn	0.968268	-0.420430	0.222445
Zn4	Zn	0.970857	-0.577041	0.332943
O5	O	1.028627	-0.501649	0.275195
O6	O	1.182353	-0.456163	0.314311
O7	O	1.080542	-0.551452	0.113541
O8	O	0.977465	-0.295732	0.243312
O9	O	1.190781	-0.562717	0.222714
O10	O	1.060991	-0.304267	0.326030
O11	O	0.988588	-0.436363	0.122421
O12	O	0.869736	-0.436327	0.241286
O13	O	0.981877	-0.562654	0.431641
O14	O	0.871638	-0.551389	0.322469
O15	O	1.063502	-0.456127	0.433176
O16	O	1.083052	-0.703313	0.220688
O17	O	0.993000	-0.703285	0.310750
C18	C	0.845050	-0.492594	0.282963
C19	C	0.766515	-0.488743	0.286301
C20	C	0.323974	-0.461049	0.310258
C21	C	0.397766	-0.464684	0.307116
C22	C	0.439040	-0.521880	0.257787
C23	C	0.406517	-0.575452	0.211601
C24	C	0.332726	-0.571820	0.214747
C25	C	0.660202	-0.538683	0.243261
C26	C	0.733998	-0.542308	0.240118
C27	C	0.725242	-0.431541	0.335634
C28	C	0.651449	-0.427911	0.338772
C29	C	0.618933	-0.481486	0.292589
N30	N	0.514468	-0.525595	0.254573
N31	N	0.543507	-0.477775	0.295807
C32	C	1.039571	-0.736033	0.264195
C33	C	1.044316	-0.836308	0.259510
C34	C	0.959378	-1.024763	0.344414
C35	C	0.963835	-1.118980	0.340015
C36	C	1.057682	-1.118960	0.246309
C37	C	1.053225	-1.024743	0.250708
C38	C	1.004073	-0.977648	0.299763
C39	C	0.999620	-0.883429	0.304166
C40	C	1.093463	-0.883411	0.210457
C41	C	1.097919	-0.977628	0.206057
C42	C	1.212921	-0.510740	0.267397
C43	C	1.291456	-0.514614	0.264074
C44	C	1.021699	-0.510682	0.458642
C45	C	1.018746	-0.514531	0.536816
C46	C	1.017659	-0.266352	0.286252
C47	C	1.012986	-0.166082	0.290964
C48	C	1.035566	-0.492588	0.092463
C49	C	1.038643	-0.488491	0.014296
C50	C	1.059854	-0.460879	0.574343
C51	C	1.057071	-0.464492	0.647796
C52	C	1.013184	-0.521763	0.683721
C53	C	0.972071	-0.575417	0.646189
C54	C	0.974851	-0.571798	0.572737
C55	C	1.000310	-0.538527	0.903312
C56	C	0.997535	-0.542143	0.976769
C57	C	1.082535	-0.431217	0.978371
C58	C	1.085314	-0.427608	0.904917
C59	C	1.044198	-0.481259	0.867392
N60	N	1.010340	-0.525459	0.758802
N61	N	1.047039	-0.477557	0.792313
H62	H	0.633736	-0.582305	0.205654
H63	H	0.919361	-0.986417	0.384361
H64	H	1.129858	-0.845040	0.174101
H65	H	1.121054	-0.380975	0.875672
H66	H	1.095595	-0.414247	0.545098
H67	H	0.927442	-1.157337	0.376376
H68	H	0.424239	-0.421069	0.344726
H69	H	0.290374	-0.414468	0.350423
H70	H	1.137936	-1.015986	0.166116
H71	H	1.090548	-0.420806	0.678347
H72	H	0.941368	-0.615478	0.542185
H73	H	1.097693	-1.157321	0.206364
H74	H	0.959599	-0.845085	0.344110
H75	H	1.116008	-0.387537	1.008932
H76	H	0.961795	-0.588782	1.006017
H77	H	0.966842	-0.582227	0.872767
H78	H	0.751724	-0.387925	0.373234
H79	H	0.936334	-0.622044	0.675445
H80	H	0.306251	-0.615441	0.177141
H81	H	0.617849	-0.381340	0.378944
H82	H	0.440128	-0.622026	0.171439
H83	H	0.767601	-0.588887	0.199946
