data_functionalizedCrystal
_audit_creation_method	'MofGen! by Chris Wilmer'
_symmetry_space_group_name_H-M	'P1'
_symmetry_Int_Tables_number	1
_symmetry_cell_setting	triclinic
loop_
_symmetry_equiv_pos_as_xyz
  x,y,z
_cell_length_a	11.792241
_cell_length_b	17.038272
_cell_length_c	10.868271
_cell_angle_alpha	89.994627
_cell_angle_beta	89.999893
_cell_angle_gamma	87.652486
loop_
_atom_site_label
_atom_site_type_symbol
_atom_site_fract_x
_atom_site_fract_y
_atom_site_fract_z
O1	O	1.516303	0.107207	-0.102203
O2	O	2.016303	0.607207	0.397797
O3	O	1.186930	0.118256	-0.102232
O4	O	1.686930	0.618256	0.397768
O5	O	1.349659	-0.001093	-0.102208
O6	O	1.849659	0.498907	0.397792
O7	O	1.353574	0.226555	-0.102227
O8	O	1.853574	0.726555	0.397773
O9	O	1.349644	-0.001097	0.102436
O10	O	1.849644	0.498903	0.602436
O11	O	1.186915	0.118251	0.102412
O12	O	1.686915	0.618251	0.602412
O13	O	1.516288	0.107202	0.102441
O14	O	2.016288	0.607202	0.602441
Zn15	Zn	1.351599	0.112726	0.134919
Zn16	Zn	1.851599	0.612726	0.634919
Zn17	Zn	1.351618	0.112732	-0.134710
Zn18	Zn	1.851618	0.612732	0.365290
O19	O	1.353559	0.226551	0.102417
O20	O	1.853559	0.726551	0.602417
C21	C	1.144571	0.117559	0.000086
C22	C	1.644571	0.617559	0.500086
C23	C	1.018375	0.115482	0.000076
C24	C	1.518375	0.615482	0.500076
C25	C	0.787328	0.111662	0.000111
C26	C	1.287328	0.611662	0.500111
C27	C	0.915899	0.113785	0.000092
C28	C	1.415899	0.613785	0.500092
C29	C	1.346090	-0.030239	0.000114
C30	C	1.846090	0.469761	0.500114
C31	C	1.335466	-0.117079	0.000112
C32	C	1.835466	0.382921	0.500112
C33	C	1.433006	-0.166762	0.000122
C34	C	1.933006	0.333238	0.500122
C35	C	1.423017	-0.248357	0.000110
C36	C	1.923017	0.251643	0.500110
C37	C	1.315487	-0.280267	0.000096
C38	C	1.815487	0.219733	0.500096
C39	C	1.217940	-0.230577	0.000083
C40	C	1.717940	0.269423	0.500083
C41	C	1.227930	-0.148984	0.000086
C42	C	1.727930	0.351016	0.500086
C43	C	1.280194	-0.526181	0.000076
C44	C	1.780194	-0.026181	0.500076
C45	C	1.270211	-0.607780	0.000076
C46	C	1.770211	-0.107780	0.500076
C47	C	1.475289	-0.625554	0.000101
C48	C	1.975289	-0.125554	0.500101
C49	C	1.485270	-0.543958	0.000112
C50	C	1.985270	-0.043958	0.500112
C51	C	1.387723	-0.494276	0.000092
C52	C	1.887723	0.005724	0.500092
C53	C	1.305274	-0.363669	0.000087
C54	C	1.805274	0.136331	0.500087
C55	C	1.397937	-0.410875	0.000092
C56	C	1.897937	0.089125	0.500092
C57	C	1.558647	0.107899	0.000120
C58	C	2.058647	0.607899	0.500120
C59	C	1.684843	0.109976	0.000122
C60	C	2.184843	0.609976	0.500122
C61	C	1.357127	0.255697	0.000093
C62	C	1.857127	0.755697	0.500093
C63	C	1.367751	0.342537	0.000086
C64	C	1.867751	0.842537	0.500086
N65	N	1.351594	0.112721	0.318933
N66	N	1.851594	0.612721	0.818933
N67	N	1.351632	0.112731	-0.318724
N68	N	1.851632	0.612731	0.181276
C69	C	1.351612	0.112730	0.569939
C70	C	1.851612	0.612730	1.069939
C71	C	1.351599	0.112728	0.430261
C72	C	1.851599	0.612728	0.930261
H73	H	1.502445	-0.288806	0.000120
H74	H	2.002445	0.211194	0.500120
O75	O	1.537376	-0.135639	0.000189
O76	O	2.037376	0.364361	0.500189
C77	C	1.525283	-0.052968	0.000160
C78	C	2.025283	0.447032	0.500160
H79	H	1.438525	-0.034186	0.038899
H80	H	1.938525	0.465814	0.538899
H81	H	1.532984	-0.030228	-0.098018
H82	H	2.032984	0.469772	0.401982
C83	C	1.725426	-0.041823	0.032841
C84	C	2.225426	0.458177	0.532841
C85	C	1.618871	-0.018754	0.080430
C86	C	2.118871	0.481246	0.580430
H87	H	1.783158	-0.020717	0.082350
H88	H	2.283158	0.479283	0.582350
H89	H	1.733575	-0.097520	0.032855
H90	H	2.233575	0.402480	0.532855
H91	H	1.731827	-0.022872	-0.048973
H92	H	2.231827	0.477128	0.451027
H93	H	1.612466	-0.037713	0.162236
H94	H	2.112466	0.462287	0.662236
H95	H	1.610724	0.036941	0.080431
H96	H	2.110724	0.536941	0.580431
O97	O	1.589812	-0.513093	0.000075
O98	O	2.089812	-0.013093	0.500075
C99	C	1.673764	-0.574443	0.000117
C100	C	2.173764	-0.074443	0.500117
H101	H	1.636593	-0.629996	-0.038642
H102	H	2.136593	-0.129996	0.461358
H103	H	1.704211	-0.585863	0.098301
H104	H	2.204211	-0.085863	0.598301
C105	C	1.820206	-0.482755	-0.032506
C106	C	2.320206	0.017245	0.467494
C107	C	1.774554	-0.550985	-0.080121
C108	C	2.274554	-0.050985	0.419879
H109	H	1.882381	-0.468285	-0.081995
H110	H	2.382381	0.031715	0.418005
H111	H	1.763647	-0.441422	-0.032530
H112	H	2.263647	0.058578	0.467470
H113	H	1.845569	-0.492282	0.049313
H114	H	2.345569	0.007718	0.549313
H115	H	1.749179	-0.541455	-0.161932
H116	H	2.249179	-0.041455	0.338068
H117	H	1.831112	-0.592316	-0.080112
H118	H	2.331112	-0.092316	0.419888
H119	H	1.485487	-0.384890	0.000076
H120	H	1.985487	0.115110	0.500076
H121	H	1.554706	-0.666014	0.000115
H122	H	2.054706	-0.166014	0.500115
H123	H	1.148503	-0.108532	0.000078
H124	H	1.648503	0.391468	0.500078
O125	O	1.200885	-0.394763	-0.000079
O126	O	1.700885	0.105237	0.499921
C127	C	1.188972	-0.441404	-0.106085
C128	C	1.688972	0.058596	0.393915
H129	H	1.276506	-0.461332	-0.141421
H130	H	1.776506	0.038668	0.358579
H131	H	1.142214	-0.405570	-0.180300
H132	H	1.642214	0.094430	0.319700
C133	C	1.013366	-0.489361	-0.030497
C134	C	1.513366	0.010639	0.469503
C135	C	1.120877	-0.513843	-0.073891
C136	C	1.620877	-0.013843	0.426109
H137	H	0.971358	-0.534044	-0.010641
H138	H	1.471358	-0.034044	0.489359
H139	H	1.021389	-0.457936	0.040920
H140	H	1.521389	0.042064	0.540920
H141	H	0.974416	-0.459499	-0.092350
H142	H	1.474416	0.040501	0.407650
H143	H	1.159831	-0.543696	-0.012033
H144	H	1.659831	-0.043696	0.487967
H145	H	1.112859	-0.545275	-0.145297
H146	H	1.612859	-0.045275	0.354703
O147	O	1.165727	-0.638744	-0.000166
O148	O	1.665727	-0.138744	0.499834
C149	C	1.105795	-0.613384	-0.106152
C150	C	1.605795	-0.113384	0.393848
H151	H	1.168546	-0.596145	-0.180217
H152	H	1.668546	-0.096145	0.319783
H153	H	1.047643	-0.560486	-0.082204
H154	H	1.547643	-0.060486	0.417796
C155	C	0.957041	-0.701596	-0.063256
C156	C	1.457041	-0.201596	0.436744
C157	C	1.034114	-0.680430	-0.154229
C158	C	1.534114	-0.180430	0.345771
H159	H	0.912821	-0.742952	-0.092910
H160	H	1.412821	-0.242952	0.407090
H161	H	0.997416	-0.718680	0.008151
H162	H	1.497416	-0.218680	0.508151
H163	H	0.908593	-0.657509	-0.043308
H164	H	1.408593	-0.157509	0.456692
H165	H	1.082570	-0.724514	-0.174164
H166	H	1.582570	-0.224514	0.325836
H167	H	0.993746	-0.663355	-0.225641
H168	H	1.493746	-0.163355	0.274359
H169	H	1.200764	-0.485738	0.000060
H170	H	1.700764	0.014262	0.500060
H171	H	1.130387	-0.256565	0.000064
H172	H	1.630387	0.243435	0.500064
