data_functionalizedCrystal
_audit_creation_method	'MofGen! by Chris Wilmer'
_symmetry_space_group_name_H-M	'P1'
_symmetry_Int_Tables_number	1
_symmetry_cell_setting	triclinic
loop_
_symmetry_equiv_pos_as_xyz
  x,y,z
_cell_length_a	8.597187
_cell_length_b	23.532357
_cell_length_c	7.088929
_cell_angle_alpha	83.811313
_cell_angle_beta	88.663715
_cell_angle_gamma	84.088408
loop_
_atom_site_label
_atom_site_type_symbol
_atom_site_fract_x
_atom_site_fract_y
_atom_site_fract_z
O1	O	2.030808	0.102897	-0.493543
O2	O	1.581307	0.106731	-0.419505
O3	O	1.819656	0.022065	-0.458724
O4	O	1.792458	0.187562	-0.454323
O5	O	1.851509	0.010724	-0.145990
O6	O	1.613160	0.095390	-0.106771
O7	O	2.062661	0.091555	-0.180809
Cu8	Cu	1.840819	0.092437	-0.115235
Cu9	Cu	1.803149	0.105849	-0.485079
O10	O	1.824312	0.176221	-0.141589
C11	C	1.539737	0.100017	-0.253667
C12	C	1.368417	0.096900	-0.225447
C13	C	1.834903	-0.004831	-0.302239
C14	C	1.832860	-0.068079	-0.301885
C15	C	1.802650	-0.454080	-0.470343
C16	C	1.800705	-0.513506	-0.470034
O17	O	1.784881	-0.538979	-0.614839
N18	N	1.817104	-0.549413	-0.299406
C19	C	1.835434	-0.525890	-0.129074
O20	O	1.849202	-0.561888	0.016086
C21	C	1.837367	-0.466465	-0.129384
C22	C	1.820983	-0.430562	-0.300025
C23	C	1.786265	-0.418178	-0.640970
C24	C	1.788213	-0.358756	-0.641280
C25	C	1.806545	-0.335237	-0.470962
C26	C	1.822930	-0.371140	-0.300334
C27	C	1.855685	-0.442943	0.040948
C28	C	1.857616	-0.383513	0.040624
C29	C	1.841232	-0.347610	-0.130018
C30	C	1.843211	-0.288200	-0.130326
N31	N	1.826811	-0.252294	-0.300953
C32	C	1.808479	-0.275812	-0.471271
C33	C	1.831369	-0.650686	-0.128437
C34	C	1.829447	-0.710111	-0.128127
C35	C	1.794715	-0.697723	-0.469087
C36	C	1.796649	-0.638297	-0.469396
C37	C	1.814970	-0.614780	-0.299064
C38	C	1.812572	-0.151023	-0.471908
C39	C	1.814528	-0.091597	-0.472203
C40	C	1.849251	-0.103990	-0.131243
C41	C	1.847303	-0.163411	-0.130948
C42	C	1.828957	-0.186926	-0.301295
O43	O	1.859022	-0.262686	0.014406
O44	O	1.794692	-0.239807	-0.616404
C45	C	2.104230	0.098270	-0.346651
C46	C	2.275549	0.101387	-0.374883
C47	C	1.809064	0.203118	-0.298078
C48	C	1.811106	0.266366	-0.298445
N49	N	1.867326	0.083003	0.144892
N50	N	1.776654	0.115279	-0.745207
H51	H	1.316856	0.090679	-0.075929
H52	H	1.961313	0.049559	0.211082
C53	C	1.637272	-0.279952	-0.817490
C54	C	1.769988	-0.319319	-0.828883
H55	H	1.625966	-0.255613	-0.933322
H56	H	1.547320	-0.300129	-0.795243
H57	H	1.648538	-0.257409	-0.716194
H58	H	1.758716	-0.341864	-0.930171
H59	H	1.859961	-0.299140	-0.851152
H60	H	1.779783	-0.716882	-0.607768
H61	H	1.327114	0.107615	-0.524411
C62	C	1.502861	0.147880	0.237949
C63	C	1.649787	0.160430	0.165464
H64	H	1.424541	0.175758	0.182798
H65	H	1.483314	0.110854	0.208467
H66	H	1.501078	0.148526	0.371741
H67	H	1.651573	0.159779	0.031672
H68	H	1.669338	0.197466	0.194931
H69	H	1.801188	-0.062367	-0.611166
H70	H	1.797625	-0.170161	-0.610619
H71	H	1.771330	-0.437319	-0.779671
H72	H	1.846294	-0.631543	0.010276
C73	C	1.645924	-0.559440	-0.645687
C74	C	1.778585	-0.598839	-0.656970
H75	H	1.634765	-0.535082	-0.761492
H76	H	1.555911	-0.579592	-0.623616
H77	H	1.657141	-0.536921	-0.544316
H78	H	1.767362	-0.621361	-0.758333
H79	H	1.868619	-0.578685	-0.679064
C80	C	1.863970	-0.716372	0.208860
C81	C	1.847471	-0.749572	0.059445
H82	H	1.875081	-0.740733	0.324663
H83	H	1.954017	-0.696238	0.186816
H84	H	1.773982	-0.689633	0.216448
H85	H	1.937464	-0.776307	0.051848
H86	H	1.757414	-0.769715	0.081494
C87	C	2.006253	-0.521826	0.217344
C88	C	1.873631	-0.482403	0.228519
H89	H	2.017315	-0.546186	0.333154
H90	H	1.995071	-0.544337	0.115961
H91	H	2.096319	-0.501690	0.195368
H92	H	1.783563	-0.502539	0.250481
H93	H	1.884802	-0.459891	0.329932
H94	H	1.872513	-0.364368	0.179336
C95	C	1.997996	-0.242285	0.045353
C96	C	1.865355	-0.202876	0.056624
H97	H	2.009139	-0.266641	0.161163
H98	H	1.986774	-0.264800	-0.056006
H99	H	2.088034	-0.222137	0.023290
H100	H	1.775315	-0.223024	0.078673
H101	H	1.876565	-0.180359	0.158013
C102	C	1.867622	-0.018389	0.019641
C103	C	1.869391	-0.078130	0.055967
H104	H	1.880037	-0.002424	0.135223
H105	H	1.950826	-0.009411	-0.065257
H106	H	1.770788	-0.002817	-0.035652
H107	H	1.966230	-0.093703	0.111247
H108	H	1.786180	-0.087113	0.140896
