data_functionalizedCrystal
_audit_creation_method	'MofGen! by Chris Wilmer'
_symmetry_space_group_name_H-M	'P1'
_symmetry_Int_Tables_number	1
_symmetry_cell_setting	triclinic
loop_
_symmetry_equiv_pos_as_xyz
  x,y,z
_cell_length_a	6.817900
_cell_length_b	9.109307
_cell_length_c	17.329378
_cell_angle_alpha	96.585138
_cell_angle_beta	103.025558
_cell_angle_gamma	111.764999
loop_
_atom_site_label
_atom_site_type_symbol
_atom_site_fract_x
_atom_site_fract_y
_atom_site_fract_z
V1	V	-4.056312	-0.190321	-0.257866
O2	O	-3.987680	0.043093	-0.237458
O3	O	-4.061083	-0.410024	-0.271010
O4	O	-3.996410	-0.172498	-0.363530
O5	O	-4.052801	-0.196077	-0.144297
V6	V	-4.534540	-0.164162	-0.242472
O7	O	-4.329184	-0.247703	-0.291636
O8	O	-4.711865	-0.106780	-0.208702
O9	O	-4.306562	0.055541	-0.229328
O10	O	-4.720568	-0.397576	-0.262880
O11	O	-4.655447	-0.158406	-0.356041
O12	O	-4.371235	-0.181985	-0.136808
C13	C	-3.919391	-0.464048	-0.270788
C14	C	-4.004503	-0.643562	-0.282239
C15	C	-3.836893	-0.161058	-0.388806
C16	C	-3.869552	-0.147940	-0.475284
C17	C	-3.959721	-0.288072	-0.537002
C18	C	-3.990416	-0.275743	-0.618258
C19	C	-3.930925	-0.123280	-0.637793
C20	C	-3.840754	0.016862	-0.576067
C21	C	-3.810076	0.004531	-0.494814
C22	C	-4.019824	-0.078730	-0.882070
C23	C	-4.050504	-0.066409	-0.963331
C24	C	-4.200167	-0.359016	-1.005515
C25	C	-4.169469	-0.371333	-0.924258
C26	C	-4.079312	-0.231191	-0.862541
C27	C	-3.962291	-0.110674	-0.720848
C28	C	-4.047962	-0.243799	-0.779487
C29	C	-4.111598	0.109556	-0.229548
C30	C	-4.005725	0.289069	-0.218103
C31	C	-4.194096	-0.193430	-0.111529
C32	C	-4.140673	-0.206541	-0.025049
H33	H	-4.068547	-0.723228	-0.345929
H34	H	-4.008154	-0.412223	-0.521105
O35	O	-4.105692	-0.392016	-0.760651
C36	C	-4.256604	-0.680911	-0.811039
C37	C	-4.191559	-0.513169	-0.832499
H38	H	-4.325999	-0.778906	-0.869113
H39	H	-4.387050	-0.700082	-0.777525
H40	H	-4.104747	-0.687913	-0.770576
H41	H	-4.343281	-0.506049	-0.872986
H42	H	-4.061036	-0.494070	-0.865972
H43	H	-3.941703	-0.631274	-0.154417
H44	H	-3.946414	0.035384	-0.831828
H45	H	-4.063847	-0.389854	-0.668507
H46	H	-4.217924	-0.495484	-0.908361
O47	O	-4.287821	-0.494982	-1.065569
C48	C	-4.401309	-0.605672	-1.209439
C49	C	-4.302053	-0.451555	-1.141509
H50	H	-4.412804	-0.570615	-1.270851
H51	H	-4.573252	-0.686023	-1.207388
H52	H	-4.291193	-0.674483	-1.200356
H53	H	-4.411997	-0.382614	-1.150547
H54	H	-4.130079	-0.371322	-1.143579
H55	H	-4.002098	0.057749	-0.979232
H56	H	-3.792331	0.141000	-0.591979
O57	O	-3.722363	0.140822	-0.434956
C58	C	-3.577283	0.432342	-0.401688
C59	C	-3.676534	0.278123	-0.469554
H60	H	-3.540244	0.543387	-0.429636
H61	H	-3.418091	0.439775	-0.359131
H62	H	-3.700196	0.428017	-0.366049
H63	H	-3.553787	0.282342	-0.505253
H64	H	-3.835766	0.270747	-0.512054
O65	O	-3.904830	0.037444	-0.739799
C66	C	-3.960781	0.284188	-0.732865
C67	C	-4.026076	0.116477	-0.711364
H68	H	-4.058742	0.348148	-0.709870
H69	H	-3.998305	0.268996	-0.801541
H70	H	-3.776811	0.359628	-0.703051
H71	H	-4.210038	0.040947	-0.741124
H72	H	-3.988392	0.131788	-0.642680
