data_functionalizedCrystal
_audit_creation_method	'MofGen! by Chris Wilmer'
_symmetry_space_group_name_H-M	'P1'
_symmetry_Int_Tables_number	1
_symmetry_cell_setting	triclinic
loop_
_symmetry_equiv_pos_as_xyz
  x,y,z
_cell_length_a	10.654550
_cell_length_b	12.503552
_cell_length_c	14.044220
_cell_angle_alpha	93.839943
_cell_angle_beta	91.163096
_cell_angle_gamma	93.554123
loop_
_atom_site_label
_atom_site_type_symbol
_atom_site_fract_x
_atom_site_fract_y
_atom_site_fract_z
O1	O	1.687865	0.089243	-0.127801
O2	O	1.937865	0.339243	0.122199
O3	O	2.187865	0.589243	0.372199
O4	O	2.437865	0.839243	0.622199
O5	O	1.323664	0.089263	-0.140493
O6	O	1.573664	0.339263	0.109507
O7	O	1.823664	0.589263	0.359507
O8	O	2.073664	0.839263	0.609507
O9	O	1.500297	0.089243	0.003873
O10	O	1.750297	0.339243	0.253873
O11	O	2.000297	0.589243	0.503873
O12	O	2.250297	0.839243	0.753873
O13	O	1.511232	0.089263	-0.272167
O14	O	1.761232	0.339263	-0.022167
O15	O	2.011232	0.589263	0.227833
O16	O	2.261232	0.839263	0.477833
O17	O	1.486997	-0.089398	-0.006994
O18	O	1.736997	0.160602	0.243006
O19	O	1.986997	0.410602	0.493006
O20	O	2.236997	0.660602	0.743006
O21	O	1.310364	-0.089378	-0.151360
O22	O	1.560364	0.160622	0.098640
O23	O	1.810364	0.410622	0.348640
O24	O	2.060364	0.660622	0.598640
O25	O	1.674566	-0.089398	-0.138668
O26	O	1.924566	0.160602	0.111332
O27	O	2.174566	0.410602	0.361332
O28	O	2.424566	0.660602	0.611332
Cu29	Cu	1.491251	-0.105699	-0.146006
Cu30	Cu	1.741251	0.144301	0.103994
Cu31	Cu	1.991251	0.394301	0.353994
Cu32	Cu	2.241251	0.644301	0.603994
Cu33	Cu	1.506979	0.105564	-0.133155
Cu34	Cu	1.756979	0.355564	0.116845
Cu35	Cu	2.006979	0.605564	0.366845
Cu36	Cu	2.256979	0.855564	0.616845
O37	O	1.497932	-0.089378	-0.283034
O38	O	1.747932	0.160622	-0.033034
O39	O	1.997932	0.410622	0.216966
O40	O	2.247932	0.660622	0.466966
C41	C	1.270122	-0.000055	-0.144994
C42	C	1.520122	0.249945	0.105006
C43	C	1.770122	0.499945	0.355006
C44	C	2.020122	0.749945	0.605006
C45	C	1.130400	-0.000048	-0.142205
C46	C	1.380400	0.249952	0.107795
C47	C	1.630400	0.499952	0.357795
C48	C	1.880400	0.749952	0.607795
C49	C	1.059456	-0.000044	-0.227206
C50	C	1.309456	0.249956	0.022794
C51	C	1.559456	0.499956	0.272794
C52	C	1.809456	0.749956	0.522794
C53	C	0.928170	-0.000063	-0.224582
C54	C	1.178170	0.249937	0.025418
C55	C	1.428170	0.499937	0.275418
C56	C	1.678170	0.749937	0.525418
C57	C	0.938783	-0.000084	-0.051948
C58	C	1.188783	0.249916	0.198052
C59	C	1.438783	0.499916	0.448052
C60	C	1.688783	0.749916	0.698052
C61	C	1.070066	-0.000073	-0.054574
C62	C	1.320066	0.249927	0.195426
C63	C	1.570066	0.499927	0.445426
C64	C	1.820066	0.749927	0.695426
N65	N	1.480197	-0.254291	-0.155044
N66	N	1.730197	-0.004291	0.094956
N67	N	1.980197	0.245709	0.344956
N68	N	2.230197	0.495709	0.594956
C69	C	1.534294	-0.526730	-0.110810
C70	C	1.784294	-0.276730	0.139190
C71	C	2.034294	-0.026730	0.389190
C72	C	2.284294	0.223270	0.639190
C73	C	1.463948	-0.473398	-0.168340
C74	C	1.713948	-0.223398	0.081660
C75	C	1.963948	0.026602	0.331660
C76	C	2.213948	0.276602	0.581660
C77	C	1.472991	-0.351475	-0.160940
C78	C	1.722991	-0.101475	0.089060
C79	C	1.972991	0.148525	0.339060
C80	C	2.222991	0.398525	0.589060
C81	C	1.525252	-0.648664	-0.118209
C82	C	1.775252	-0.398664	0.131791
C83	C	2.025252	-0.148664	0.381791
C84	C	2.275252	0.101336	0.631791
C85	C	1.728107	-0.000078	-0.134166
C86	C	1.978107	0.249922	0.115834
C87	C	2.228107	0.499922	0.365834
C88	C	2.478107	0.749922	0.615834
C89	C	1.867830	-0.000078	-0.136955
C90	C	2.117830	0.249922	0.113045
C91	C	2.367830	0.499922	0.363045
C92	C	2.617830	0.749922	0.613045
C93	C	1.488861	-0.000078	0.033785
C94	C	1.738861	0.249922	0.283785
C95	C	1.988861	0.499922	0.533785
C96	C	2.238861	0.749922	0.783785
C97	C	1.474586	-0.000079	0.139105
C98	C	1.724586	0.249921	0.389105
C99	C	1.974586	0.499921	0.639105
C100	C	2.224586	0.749921	0.889105
N101	N	1.518041	0.254156	-0.124109
N102	N	1.768041	0.504156	0.125891
N103	N	2.018041	0.754156	0.375891
N104	N	2.268041	1.004156	0.625891
C105	C	1.509368	-0.000055	-0.312946
C106	C	1.759368	0.249945	-0.062946
C107	C	2.009368	0.499945	0.187054
C108	C	2.259368	0.749945	0.437054
C109	C	1.523644	-0.000047	-0.418265
C110	C	1.773644	0.249953	-0.168265
C111	C	2.023644	0.499953	0.081735
C112	C	2.273644	0.749953	0.331735
C113	C	1.448488	-0.000062	0.331939
C114	C	1.698488	0.249938	0.581939
C115	C	1.948488	0.499938	0.831939
C116	C	2.198488	0.749938	1.081939
C117	C	1.549736	-0.000064	0.388906
C118	C	1.799736	0.249936	0.638906
C119	C	2.049736	0.499936	0.888906
C120	C	2.299736	0.749936	1.138906
C121	C	1.535215	-0.000055	0.496206
C122	C	1.785215	0.249945	0.746206
C123	C	2.035215	0.499945	0.996206
C124	C	2.285215	0.749945	1.246206
C125	C	1.463007	-0.000071	0.224630
C126	C	1.713007	0.249929	0.474630
C127	C	1.963007	0.499929	0.724630
C128	C	2.213007	0.749929	0.974630
H129	H	0.889643	-0.000112	0.019399
H130	H	1.139643	0.249888	0.269399
H131	H	1.389643	0.499888	0.519399
H132	H	1.639643	0.749888	0.769399
H133	H	1.350909	-0.000054	0.363750
H134	H	1.600909	0.249946	0.613750
H135	H	1.850909	0.499946	0.863750
H136	H	2.100909	0.749946	1.113750
H137	H	1.647328	0.000003	0.357098
H138	H	1.897328	0.250003	0.607098
H139	H	2.147328	0.500003	0.857098
H140	H	2.397328	0.750003	1.107098
H141	H	0.870413	-0.000063	-0.293798
H142	H	1.120413	0.249937	-0.043798
H143	H	1.370413	0.499937	0.206202
H144	H	1.620413	0.749937	0.456202
N145	N	1.623078	-0.465928	-0.038225
N146	N	1.873078	-0.215928	0.211775
N147	N	2.123078	0.034072	0.461775
N148	N	2.373078	0.284072	0.711775
H149	H	1.668775	-0.518505	-0.000861
H150	H	1.918775	-0.268505	0.249139
H151	H	2.168775	-0.018505	0.499139
H152	H	2.418775	0.231495	0.749139
H153	H	1.573650	-0.419267	0.006813
H154	H	1.823650	-0.169267	0.256813
H155	H	2.073650	0.080733	0.506813
H156	H	2.323650	0.330733	0.756813
H157	H	1.396932	-0.519306	-0.223150
H158	H	1.646932	-0.269306	0.026850
H159	H	1.896932	-0.019306	0.276850
H160	H	2.146932	0.230694	0.526850
H161	H	1.108574	-0.000032	-0.298562
H162	H	1.358574	0.249968	-0.048562
H163	H	1.608574	0.499968	0.201438
H164	H	1.858574	0.749968	0.451438
H165	H	1.127831	-0.000079	0.014649
H166	H	1.377831	0.249921	0.264649
H167	H	1.627831	0.499921	0.514649
H168	H	1.877831	0.749921	0.764649
