data_functionalizedCrystal
_audit_creation_method	'MofGen! by Chris Wilmer'
_symmetry_space_group_name_H-M	'P1'
_symmetry_Int_Tables_number	1
_symmetry_cell_setting	triclinic
loop_
_symmetry_equiv_pos_as_xyz
  x,y,z
_cell_length_a	18.050591
_cell_length_b	18.050590
_cell_length_c	18.050582
_cell_angle_alpha	90.023337
_cell_angle_beta	90.019760
_cell_angle_gamma	90.015000
loop_
_atom_site_label
_atom_site_type_symbol
_atom_site_fract_x
_atom_site_fract_y
_atom_site_fract_z
Zn1	Zn	1.135342	-0.295777	0.420004
Zn2	Zn	1.468676	0.037556	0.753338
Zn3	Zn	1.802009	0.370890	1.086671
Zn4	Zn	1.135274	-0.419960	0.295813
Zn5	Zn	1.468607	-0.086627	0.629146
Zn6	Zn	1.801941	0.246706	0.962479
Zn7	Zn	1.011162	-0.295781	0.295818
Zn8	Zn	1.344495	0.037552	0.629151
Zn9	Zn	1.677828	0.370886	0.962485
Zn10	Zn	1.011131	-0.419922	0.419951
Zn11	Zn	1.344464	-0.086589	0.753284
Zn12	Zn	1.677797	0.246745	1.086617
O13	O	1.073227	-0.357860	0.357897
O14	O	1.406561	-0.024527	0.691230
O15	O	1.739894	0.308807	1.024563
O16	O	1.239258	-0.312265	0.403550
O17	O	1.572591	0.021069	0.736884
O18	O	1.905925	0.354402	1.070217
O19	O	1.118795	-0.403505	0.191889
O20	O	1.452128	-0.070172	0.525222
O21	O	1.785461	0.263161	0.858556
O22	O	1.027676	-0.191856	0.312316
O23	O	1.361009	0.141478	0.645650
O24	O	1.694343	0.474811	0.978983
O25	O	1.239208	-0.403501	0.312307
O26	O	1.572541	-0.070168	0.645641
O27	O	1.905874	0.263165	0.978974
O28	O	1.118911	-0.191853	0.403556
O29	O	1.452245	0.141480	0.736889
O30	O	1.785578	0.474814	1.070222
O31	O	1.027610	-0.312271	0.191893
O32	O	1.360943	0.021062	0.525226
O33	O	1.694276	0.354395	0.858559
O34	O	0.907233	-0.312234	0.312264
O35	O	1.240566	0.021099	0.645598
O36	O	1.573900	0.354433	0.978931
O37	O	1.027623	-0.403436	0.523883
O38	O	1.360956	-0.070103	0.857216
O39	O	1.694290	0.263230	1.190549
O40	O	0.907210	-0.403440	0.403464
O41	O	1.240543	-0.070107	0.736797
O42	O	1.573877	0.263227	1.070131
O43	O	1.118881	-0.312227	0.523922
O44	O	1.452214	0.021106	0.857255
O45	O	1.785548	0.354439	1.190589
O46	O	1.118765	-0.523880	0.312255
O47	O	1.452098	-0.190546	0.645589
O48	O	1.785431	0.142787	0.978922
O49	O	1.027557	-0.523852	0.403459
O50	O	1.360890	-0.190518	0.736792
O51	O	1.694224	0.142815	1.070126
C52	C	0.880275	-0.357834	0.357859
C53	C	1.213608	-0.024501	0.691193
C54	C	1.546942	0.308833	1.024526
C55	C	0.797729	-0.357841	0.357861
C56	C	1.131063	-0.024507	0.691194
C57	C	1.464396	0.308826	1.024528
C58	C	0.548895	-0.308191	0.308384
C59	C	0.882228	0.025142	0.641717
C60	C	1.215561	0.358475	0.975051
C61	C	0.598323	-0.290110	0.376160
C62	C	0.931657	0.043223	0.709494
C63	C	1.264990	0.376556	1.042827
C64	C	0.500609	-0.357879	0.357922
C65	C	0.833942	-0.024545	0.691255
C66	C	1.167276	0.308788	1.024589
C67	C	0.598262	-0.375906	0.290119
C68	C	0.931595	-0.042572	0.623453
C69	C	1.264928	0.290761	0.956786
C70	C	0.646594	-0.357858	0.357888
C71	C	0.979927	-0.024525	0.691222
C72	C	1.313261	0.308809	1.024555
C73	C	0.548951	-0.339762	0.425734
C74	C	0.882284	-0.006429	0.759068
C75	C	1.215617	0.326904	1.092401
C76	C	0.548884	-0.425589	0.339648
C77	C	0.882218	-0.092256	0.672981
C78	C	1.215551	0.241077	1.006314
C79	C	0.598291	-0.407534	0.407471
C80	C	0.931624	-0.074201	0.740804
C81	C	1.264958	0.259133	1.074137
C82	C	0.416511	-0.357888	0.357940
C83	C	0.749844	-0.024555	0.691273
C84	C	1.083177	0.308778	1.024607
C85	C	0.730690	-0.357848	0.357878
C86	C	1.064024	-0.024515	0.691211
C87	C	1.397357	0.308818	1.024544
C88	C	1.073170	-0.550812	0.357867
C89	C	1.406503	-0.217479	0.691200
C90	C	1.739837	0.115854	1.024534
C91	C	1.073214	-0.633358	0.357879
C92	C	1.406547	-0.300025	0.691212
C93	C	1.739880	0.033309	1.024546
C94	C	1.122916	-0.832797	0.308352
C95	C	1.456249	-0.499464	0.641685
C96	C	1.789582	-0.166130	0.975018
C97	C	1.141051	-0.882137	0.376133
C98	C	1.474384	-0.548803	0.709467
C99	C	1.807718	-0.215470	1.042800
C100	C	1.073256	-0.784488	0.357909
C101	C	1.406589	-0.451155	0.691242
C102	C	1.739922	-0.117822	1.024575
C103	C	1.055196	-0.882230	0.290158
C104	C	1.388529	-0.548897	0.623491
C105	C	1.721863	-0.215564	0.956824
C106	C	1.073298	-0.930473	0.357931
C107	C	1.406631	-0.597140	0.691265
C108	C	1.739965	-0.263807	1.024598
C109	C	1.091426	-0.832741	0.425726
C110	C	1.424759	-0.499407	0.759059
C111	C	1.758093	-0.166074	1.092393
C112	C	1.005539	-0.832830	0.339704
C113	C	1.338873	-0.499497	0.673038
C114	C	1.672206	-0.166163	1.006371
C115	C	1.023649	-0.882147	0.407533
C116	C	1.356982	-0.548814	0.740866
C117	C	1.690316	-0.215481	1.074199
C118	C	1.073233	-0.700390	0.357895
C119	C	1.406567	-0.367057	0.691228
C120	C	1.739900	-0.033723	1.024561
C121	C	1.073320	-1.014570	0.357953
C122	C	1.406653	-0.681237	0.691286
C123	C	1.739987	-0.347903	1.024620
C124	C	1.266933	-0.357887	0.357934
C125	C	1.600266	-0.024554	0.691268
C126	C	1.933599	0.308780	1.024601
C127	C	1.349479	-0.357898	0.357950
C128	C	1.682812	-0.024565	0.691284
C129	C	2.016145	0.308768	1.024617
C130	C	1.073256	-0.357827	0.551602
C131	C	1.406590	-0.024494	0.884936
C132	C	1.739923	0.308840	1.218269
C133	C	1.073269	-0.357813	0.634148
C134	C	1.406602	-0.024480	0.967481
C135	C	1.739935	0.308854	1.300815
C136	C	1.073305	-0.164154	0.357943
C137	C	1.406638	0.169179	0.691276
C138	C	1.739971	0.502512	1.024609
C139	C	1.073338	-0.081609	0.357962
C140	C	1.406671	0.251725	0.691295
C141	C	1.740004	0.585058	1.024629
C142	C	1.073241	-0.357839	0.164944
C143	C	1.406574	-0.024506	0.498278
C144	C	1.739908	0.308827	0.831611
C145	C	1.073372	-0.357644	0.082399
C146	C	1.406706	-0.024311	0.415732
C147	C	1.740039	0.309023	0.749066
C148	C	1.023681	-0.407345	0.833577
C149	C	1.357014	-0.074011	1.166911
C150	C	1.690347	0.259322	1.500244
C151	C	1.091439	-0.425502	0.882974
C152	C	1.424772	-0.092169	1.216308
C153	C	1.758106	0.241164	1.549641
C154	C	1.073305	-0.357756	0.785278
C155	C	1.406639	-0.024423	1.118612
C156	C	1.739972	0.308910	1.451945
C157	C	1.005584	-0.339578	0.882963
C158	C	1.338918	-0.006245	1.216297
C159	C	1.672251	0.327089	1.549630
C160	C	1.073335	-0.357703	0.931264
C161	C	1.406668	-0.024370	1.264597
C162	C	1.740001	0.308964	1.597930
C163	C	1.141099	-0.375950	0.833588
C164	C	1.474432	-0.042616	1.166921
C165	C	1.807766	0.290717	1.500255
C166	C	1.055199	-0.289994	0.833573
C167	C	1.388532	0.043340	1.166906
C168	C	1.721865	0.376673	1.500240
C169	C	1.123004	-0.308126	0.882948
C170	C	1.456337	0.025208	1.216281
C171	C	1.789671	0.358541	1.549614
C172	C	1.073287	-0.357789	0.701180
C173	C	1.406621	-0.024456	1.034513
C174	C	1.739954	0.308878	1.367847
C175	C	1.073360	-0.357670	1.015360
C176	C	1.406694	-0.024337	1.348694
C177	C	1.740027	0.308996	1.682027
H178	H	0.527153	-0.482843	0.324181
H179	H	0.860486	-0.149510	0.657514
H180	H	1.193819	0.183823	0.990847
H181	H	0.948301	-0.324225	0.904653
H182	H	1.281634	0.009108	1.237986
H183	H	1.614968	0.342442	1.571319
O184	O	1.111743	-0.804072	0.501664
O185	O	1.445077	-0.470739	0.834998
O186	O	1.778410	-0.137405	1.168331
H187	H	1.121832	-0.851543	0.539406
H188	H	1.455165	-0.518209	0.872739
H189	H	1.788498	-0.184876	1.206072
O190	O	0.626955	-0.396125	0.214189
O191	O	0.960289	-0.062791	0.547522
O192	O	1.293622	0.270542	0.880855
H193	H	0.607162	-0.354807	0.173189
H194	H	0.940496	-0.021474	0.506522
H195	H	1.273829	0.311860	0.839856
H196	H	1.164925	-0.811127	0.266486
H197	H	1.498259	-0.477794	0.599820
H198	H	1.831592	-0.144461	0.933153
H199	H	0.981672	-0.903680	0.449500
H200	H	1.315005	-0.570346	0.782833
H201	H	1.648338	-0.237013	1.116166
H202	H	1.039903	-0.903968	0.232852
H203	H	1.373237	-0.570635	0.566185
H204	H	1.706570	-0.237302	0.899518
H205	H	0.527380	-0.324440	0.483076
H206	H	0.860713	0.008894	0.816410
H207	H	1.194047	0.342227	1.149743
H208	H	0.619842	-0.449544	0.449397
H209	H	0.953175	-0.116211	0.782731
H210	H	1.286509	0.217122	1.116064
H211	H	0.948271	-0.811154	0.324272
H212	H	1.281605	-0.477821	0.657606
H213	H	1.614938	-0.144487	0.990939
H214	H	1.198335	-0.903797	0.391545
H215	H	1.531669	-0.570463	0.724879
H216	H	1.865002	-0.237130	1.058212
H217	H	1.106771	-0.482785	0.904674
H218	H	1.440105	-0.149452	1.238007
H219	H	1.773438	0.183882	1.571340
H220	H	1.165031	-0.266168	0.904488
H221	H	1.498364	0.067166	1.237821
H222	H	1.831698	0.400499	1.571155
H223	H	0.527208	-0.266150	0.266557
H224	H	0.860541	0.067184	0.599891
H225	H	1.193874	0.400517	0.933224
O226	O	1.034859	-0.214149	0.804779
O227	O	1.368193	0.119184	1.138112
O228	O	1.701526	0.452517	1.471445
H229	H	0.978578	-0.199209	0.824510
H230	H	1.311911	0.134124	1.157843
H231	H	1.645244	0.467458	1.491176
H232	H	0.981754	-0.449335	0.811901
H233	H	1.315087	-0.116001	1.145234
H234	H	1.648421	0.217332	1.478567
H235	H	0.620026	-0.232837	0.391616
H236	H	0.953360	0.100496	0.724950
H237	H	1.286693	0.433829	1.058283
O238	O	1.217102	-0.396000	0.804990
O239	O	1.550435	-0.062667	1.138324
O240	O	1.883768	0.270666	1.471657
H241	H	1.216522	-0.395752	0.743503
H242	H	1.549855	-0.062419	1.076836
H243	H	1.883189	0.270914	1.410169
