data_functionalizedCrystal
_audit_creation_method	'MofGen! by Chris Wilmer'
_symmetry_space_group_name_H-M	'P1'
_symmetry_Int_Tables_number	1
_symmetry_cell_setting	triclinic
loop_
_symmetry_equiv_pos_as_xyz
  x,y,z
_cell_length_a	19.288864
_cell_length_b	11.295483
_cell_length_c	19.288865
_cell_angle_alpha	94.075585
_cell_angle_beta	96.863755
_cell_angle_gamma	94.104860
loop_
_atom_site_label
_atom_site_type_symbol
_atom_site_fract_x
_atom_site_fract_y
_atom_site_fract_z
O1	O	0.926060	0.099422	-0.081937
O2	O	1.426060	0.599422	0.418063
O3	O	0.723796	0.099342	-0.093629
O4	O	1.223796	0.599342	0.406371
O5	O	0.830772	0.099360	0.013346
O6	O	1.330772	0.599360	0.513346
O7	O	0.819085	0.099403	-0.188912
O8	O	1.319085	0.599403	0.311088
O9	O	0.821376	-0.098692	0.003965
O10	O	1.321376	0.401308	0.503965
O11	O	0.714400	-0.098710	-0.103011
O12	O	1.214400	0.401290	0.396989
O13	O	0.916665	-0.098631	-0.091318
O14	O	1.416665	0.401369	0.408682
Cu15	Cu	0.814674	-0.116754	-0.098021
Cu16	Cu	1.314674	0.383246	0.401979
Cu17	Cu	0.825786	0.117466	-0.086926
Cu18	Cu	1.325786	0.617466	0.413074
O19	O	0.809689	-0.098649	-0.198294
O20	O	1.309689	0.401351	0.301706
C21	C	0.693221	0.000305	-0.097944
C22	C	1.193221	0.500305	0.402056
C23	C	0.616116	0.000274	-0.096817
C24	C	1.116116	0.500274	0.403183
C25	C	0.571421	0.000306	-0.159583
C26	C	1.071421	0.500306	0.340417
C27	C	0.498975	0.000319	-0.158522
C28	C	0.998975	0.500319	0.341478
C29	C	0.471227	0.000324	-0.094689
C30	C	0.971227	0.500324	0.405311
C31	C	0.515932	0.000285	-0.031915
C32	C	1.015932	0.500285	0.468085
C33	C	0.588376	0.000260	-0.032979
C34	C	1.088376	0.500260	0.467021
C35	C	0.366259	0.069740	-0.041222
C36	C	0.866259	0.569740	0.458778
C37	C	0.293816	0.069772	-0.040161
C38	C	0.793816	0.569772	0.459839
C39	C	0.247785	0.000395	-0.091406
C40	C	0.747785	0.500395	0.408594
C41	C	0.274206	-0.068999	-0.143724
C42	C	0.774206	0.431001	0.356276
C43	C	0.346650	-0.069024	-0.144788
C44	C	0.846650	0.430976	0.355212
C45	C	0.392675	0.000350	-0.093529
C46	C	0.892675	0.500350	0.406471
C47	C	0.124535	0.000439	-0.153026
C48	C	0.624535	0.500439	0.346974
C49	C	0.052087	0.000445	-0.151963
C50	C	0.552087	0.500445	0.348037
C51	C	0.069046	0.000423	-0.025354
C52	C	0.569046	0.500423	0.474646
C53	C	0.141492	0.000405	-0.026420
C54	C	0.641492	0.500405	0.473580
C55	C	0.169232	0.000419	-0.090258
C56	C	0.669232	0.500419	0.409742
N57	N	0.806864	-0.281492	-0.105824
N58	N	1.306864	0.218508	0.394176
C59	C	0.889825	-0.530767	-0.022909
C60	C	1.389825	-0.030767	0.477091
C61	C	0.883927	-0.655432	-0.028811
C62	C	1.383927	-0.155432	0.471189
C63	C	0.789169	-0.655488	-0.123525
C64	C	1.289169	-0.155488	0.376475
C65	C	0.795066	-0.530824	-0.117623
C66	C	1.295066	-0.030824	0.382377
C67	C	0.845397	-0.468467	-0.067314
C68	C	1.345397	0.031533	0.432686
C69	C	0.851297	-0.343801	-0.061417
C70	C	1.351297	0.156199	0.438583
C71	C	0.756536	-0.343859	-0.156127
C72	C	1.256536	0.156141	0.343873
C73	C	0.750638	-0.468524	-0.162029
C74	C	1.250638	0.031476	0.337971
C75	C	0.947240	0.000409	-0.087003
C76	C	1.447240	0.500409	0.412997
C77	C	1.024345	0.000448	-0.088130
C78	C	1.524345	0.500448	0.411870
N79	N	0.833602	0.282203	-0.079118
N80	N	1.333602	0.782203	0.420882
C81	C	0.825697	0.000331	0.034532
C82	C	1.325697	0.500331	0.534532
C83	C	0.824568	0.000320	0.111635
C84	C	1.324568	0.500320	0.611635
C85	C	0.814763	0.000383	-0.219479
C86	C	1.314763	0.500383	0.280521
C87	C	0.815893	0.000402	-0.296582
C88	C	1.315893	0.500402	0.203418
C89	C	0.887337	0.000339	0.156332
C90	C	1.387337	0.500339	0.656332
C91	C	0.886277	0.000357	0.228780
C92	C	1.386277	0.500357	0.728780
C93	C	0.822443	0.000333	0.256527
C94	C	1.322443	0.500333	0.756527
C95	C	0.759667	0.000320	0.211820
C96	C	1.259667	0.500320	0.711820
C97	C	0.760729	0.000314	0.139374
C98	C	1.260729	0.500314	0.639374
C99	C	0.768972	-0.069061	0.361527
C100	C	1.268972	0.430939	0.861527
C101	C	0.767912	-0.069062	0.433971
C102	C	1.267912	0.430938	0.933971
C103	C	0.819165	0.000358	0.479973
C104	C	1.319165	0.500358	0.979973
C105	C	0.871489	0.069763	0.453523
C106	C	1.371489	0.569763	0.953523
C107	C	0.872551	0.069756	0.381077
C108	C	1.372551	0.569756	0.881077
C109	C	0.821285	0.000340	0.335081
C110	C	1.321285	0.500340	0.835081
C111	C	0.880789	0.000398	0.603228
C112	C	1.380789	0.500398	1.103228
C113	C	0.879727	0.000424	0.675677
C114	C	1.379727	0.500424	1.175677
C115	C	0.753115	0.000376	0.658714
C116	C	1.253115	0.500376	1.158714
C117	C	0.754179	0.000362	0.586267
C118	C	1.254179	0.500362	1.086267
C119	C	0.818018	0.000368	0.558528
C120	C	1.318018	0.500368	1.058528
H121	H	0.272310	0.126281	0.002437
H122	H	0.772310	0.626281	0.502437
C123	C	0.227943	-0.101438	0.041011
C124	C	0.727943	0.398562	0.541011
C125	C	0.190627	0.000387	0.042577
C126	C	0.690627	0.500387	0.542577
H127	H	0.258273	-0.101453	0.083611
H128	H	0.758273	0.398547	0.583611
H129	H	0.254831	-0.101434	0.002847
H130	H	0.754831	0.398566	0.502847
H131	H	0.196029	-0.170486	0.035525
H132	H	0.696029	0.329514	0.535525
H133	H	0.222541	0.069436	0.048057
H134	H	0.722541	0.569436	0.548057
H135	H	0.163737	0.000394	0.080752
H136	H	0.663737	0.500394	0.580752
H137	H	0.727233	-0.125597	0.324076
H138	H	1.227233	0.374403	0.824076
H139	H	0.892280	-0.293031	-0.020454
H140	H	1.392280	0.206969	0.479546
C141	C	0.696079	-0.643038	-0.216539
C142	C	1.196079	-0.143038	0.283461
C143	C	0.733838	-0.724043	-0.178810
C144	C	1.233838	-0.224043	0.321190
H145	H	0.661915	-0.685363	-0.250664
H146	H	1.161915	-0.185363	0.249336
H147	H	0.727208	-0.594403	-0.239159
H148	H	1.227208	-0.094403	0.260841
H149	H	0.673497	-0.594423	-0.185381
H150	H	1.173497	-0.094423	0.314619
H151	H	0.756425	-0.772653	-0.209968
H152	H	1.256425	-0.272653	0.290032
H153	H	0.702704	-0.772698	-0.156190
H154	H	1.202704	-0.272698	0.343810
H155	H	0.913224	0.126291	0.490977
H156	H	1.413224	0.626291	0.990977
H157	H	0.403732	0.126242	0.000510
H158	H	0.903732	0.626242	0.500510
H159	H	0.932771	0.000409	0.580642
H160	H	1.432771	0.500409	1.080642
H161	H	0.725304	-0.125568	0.455501
H162	H	1.225304	0.374432	0.955501
H163	H	0.701140	0.000362	0.681305
H164	H	1.201140	0.500362	1.181305
C165	C	0.512942	0.102088	0.081148
C166	C	1.012942	0.602088	0.581148
C167	C	0.485437	0.000294	0.038252
C168	C	0.985437	0.500294	0.538252
H169	H	0.494119	0.102084	0.124469
H170	H	0.994119	0.602084	0.624469
H171	H	0.500877	0.171150	0.058585
H172	H	1.000877	0.671150	0.558585
H173	H	0.562484	0.102052	0.089492
H174	H	1.062484	0.602052	0.589492
H175	H	0.435895	0.000334	0.029905
H176	H	0.935895	0.500334	0.529905
H177	H	0.497497	-0.068786	0.060821
H178	H	0.997497	0.431214	0.560821
C179	C	0.932822	-0.492326	0.099258
C180	C	1.432822	0.007674	0.599258
C181	C	0.945148	-0.462197	0.032378
C182	C	1.445148	0.037803	0.532378
H183	H	0.966976	-0.449983	0.133387
H184	H	1.466976	0.050017	0.633387
H185	H	0.935680	-0.575474	0.102104
H186	H	1.435680	-0.075474	0.602104
H187	H	0.887454	-0.471934	0.107643
H188	H	1.387454	0.028066	0.607643
H189	H	0.990514	-0.482598	0.023991
H190	H	1.490514	0.017402	0.523991
H191	H	0.942297	-0.379031	0.029530
H192	H	1.442297	0.120969	0.529530
C193	C	0.689858	0.102100	0.288270
C194	C	1.189858	0.602100	0.788270
C195	C	0.689501	0.000292	0.242318
C196	C	1.189501	0.500292	0.742318
H197	H	0.646540	0.102080	0.307100
H198	H	1.146540	0.602080	0.807100
H199	H	0.696177	0.171152	0.263625
H200	H	1.196177	0.671152	0.763625
H201	H	0.727094	0.102100	0.325258
H202	H	1.227094	0.602100	0.825258
H203	H	0.652267	0.000296	0.205327
H204	H	1.152267	0.500296	0.705327
H205	H	0.683174	-0.068778	0.266964
H206	H	1.183174	0.431222	0.766964
C207	C	1.004981	0.000439	0.685160
C208	C	1.504981	0.500439	1.185160
C209	C	0.948728	0.000442	0.724812
C210	C	1.448728	0.500442	1.224812
H211	H	1.047579	0.000441	0.715496
H212	H	1.547579	0.500441	1.215496
H213	H	1.006044	0.069495	0.659816
H214	H	1.506044	0.569495	1.159816
H215	H	0.999474	-0.068637	0.653286
H216	H	1.499474	0.431363	1.153286
H217	H	0.954232	0.069522	0.756683
H218	H	1.454232	0.569522	1.256683
H219	H	0.947666	-0.068621	0.750168
H220	H	1.447666	0.431379	1.250168
C221	C	0.717192	-0.305499	-0.274667
C222	C	1.217192	0.194501	0.225333
C223	C	0.707696	-0.275380	-0.204945
C224	C	1.207696	0.224620	0.295055
H225	H	0.687046	-0.263217	-0.304805
H226	H	1.187046	0.236783	0.195195
H227	H	0.706475	-0.388660	-0.285372
H228	H	1.206475	0.111340	0.214628
H229	H	0.764495	-0.285026	-0.281110
H230	H	1.264495	0.214974	0.218890
H231	H	0.660395	-0.295861	-0.198501
H232	H	1.160395	0.204139	0.301499
H233	H	0.718408	-0.192201	-0.194237
H234	H	1.218408	0.307799	0.305763
C235	C	0.002280	0.102258	0.054116
C236	C	0.502280	0.602258	0.554116
C237	C	0.038559	0.000432	0.044815
C238	C	0.538559	0.500432	0.544815
H239	H	-0.016539	0.102263	0.097440
H240	H	0.483461	0.602263	0.597440
H241	H	-0.034708	0.102264	0.016892
H242	H	0.465292	0.602264	0.516892
H243	H	0.033490	0.171306	0.054338
H244	H	0.533490	0.671306	0.554338
H245	H	0.007348	-0.068616	0.044589
H246	H	0.507348	0.431384	0.544589
H247	H	0.075552	0.000416	0.082050
H248	H	0.575552	0.500416	0.582050
H249	H	0.709613	0.000298	0.102981
H250	H	1.209613	0.500298	0.602981
C251	C	1.000412	0.102186	0.153303
C252	C	1.500412	0.602186	0.653303
C253	C	0.957508	0.000360	0.125844
C254	C	1.457508	0.500360	0.625844
H255	H	1.043731	0.102201	0.134476
H256	H	1.543731	0.602201	0.634476
H257	H	1.008758	0.102182	0.202840
H258	H	1.508758	0.602182	0.702840
H259	H	0.977846	0.171233	0.141204
H260	H	1.477846	0.671233	0.641204
H261	H	0.980072	-0.068688	0.137947
H262	H	1.480072	0.431312	0.637947
H263	H	0.949164	0.000353	0.076296
H264	H	1.449164	0.500353	0.576296
C265	C	0.684537	0.102035	0.044092
C266	C	1.184537	0.602035	0.544092
C267	C	0.637512	0.000236	0.036019
C268	C	1.137512	0.500236	0.536019
H269	H	0.714874	0.102016	0.086687
H270	H	1.214874	0.602016	0.586687
H271	H	0.659213	0.171093	0.045150
H272	H	1.159213	0.671093	0.545150
H273	H	0.711423	0.102021	0.005918
H274	H	1.211423	0.602021	0.505918
H275	H	0.610622	0.000254	0.074190
H276	H	1.110622	0.500254	0.574190
H277	H	0.662838	-0.068841	0.034966
H278	H	1.162838	0.431159	0.534966
H279	H	0.709658	-0.519309	-0.202988
H280	H	1.209658	-0.019309	0.297012
H281	H	0.937392	0.000377	0.265180
H282	H	1.437392	0.500377	0.765180
C283	C	0.547375	0.000326	-0.284623
C284	C	1.047375	0.500326	0.215377
C285	C	0.601911	0.000301	-0.229754
C286	C	1.101911	0.500301	0.270246
H287	H	0.566201	0.000313	-0.327943
H288	H	1.066201	0.500313	0.172057
H289	H	0.522770	0.069399	-0.278304
H290	H	1.022770	0.569399	0.221696
H291	H	0.516175	-0.068732	-0.284839
H292	H	1.016175	0.431268	0.215161
H293	H	0.633109	0.069364	-0.229535
H294	H	1.133109	0.569364	0.270465
H295	H	0.626528	-0.068779	-0.236075
H296	H	1.126528	0.431221	0.263925
H297	H	0.915154	0.126271	0.359544
H298	H	1.415154	0.626271	0.859544
H299	H	0.368159	-0.125530	-0.187385
H300	H	0.868159	0.374470	0.312615
C301	C	0.651419	0.102119	0.554321
C302	C	1.151419	0.602119	1.054321
C303	C	0.685178	0.000324	0.537132
C304	C	1.185178	0.500324	1.037132
H305	H	0.608816	0.102091	0.523990
H306	H	1.108816	0.602091	1.023990
H307	H	0.680877	0.171180	0.549190
H308	H	1.180877	0.671180	1.049190
H309	H	0.641657	0.102108	0.601440
H310	H	1.141657	0.602108	1.101440
H311	H	0.694945	0.000339	0.490015
H312	H	1.194945	0.500339	0.990015
H313	H	0.655713	-0.068755	0.542257
H314	H	1.155713	0.431245	1.042257
C315	C	0.412518	0.102190	-0.225935
C316	C	0.912518	0.602190	0.274065
C317	C	0.449832	0.000362	-0.227517
C318	C	0.949832	0.500362	0.272483
H319	H	0.382178	0.102212	-0.268527
H320	H	0.882178	0.602212	0.231473
H321	H	0.444428	0.171229	-0.220449
H322	H	0.944428	0.671229	0.279551
H323	H	0.385634	0.102174	-0.187760
H324	H	0.885634	0.602174	0.312240
H325	H	0.476720	0.000382	-0.265689
H326	H	0.976720	0.500382	0.234311
H327	H	0.417918	-0.068695	-0.233010
H328	H	0.917918	0.431305	0.266990
H329	H	0.236729	-0.125493	-0.185453
H330	H	0.736729	0.374507	0.314547
H331	H	0.920104	-0.706153	0.007350
H332	H	1.420104	-0.206153	0.507350
C333	C	0.201022	0.102235	-0.222855
C334	C	0.701022	0.602235	0.277145
C335	C	0.155033	0.000435	-0.223195
C336	C	0.655033	0.500435	0.276805
H337	H	0.219845	0.102231	-0.266176
H338	H	0.719845	0.602231	0.233824
H339	H	0.238006	0.102216	-0.185628
H340	H	0.738006	0.602216	0.314372
H341	H	0.176397	0.171300	-0.216542
H342	H	0.676397	0.671300	0.283458
H343	H	0.179659	-0.068631	-0.229503
H344	H	0.679659	0.431369	0.270497
H345	H	0.118043	0.000443	-0.260433
H346	H	0.618043	0.500443	0.239567
C347	C	-0.066492	0.000492	-0.206549
C348	C	0.433508	0.500492	0.293451
C349	C	0.002954	0.000482	-0.220961
C350	C	0.502954	0.500482	0.279039
H351	H	-0.096824	0.000510	-0.249147
H352	H	0.403176	0.500510	0.250853
H353	H	-0.071585	0.069546	-0.177094
H354	H	0.428415	0.569546	0.322906
H355	H	-0.078168	-0.068586	-0.183642
H356	H	0.421832	0.431414	0.316358
H357	H	0.014631	0.069565	-0.243863
H358	H	0.514631	0.569565	0.256137
H359	H	0.008050	-0.068578	-0.250428
H360	H	0.508050	0.431422	0.249572
