data_functionalizedCrystal
_audit_creation_method	'MofGen! by Chris Wilmer'
_symmetry_space_group_name_H-M	'P1'
_symmetry_Int_Tables_number	1
_symmetry_cell_setting	triclinic
loop_
_symmetry_equiv_pos_as_xyz
  x,y,z
_cell_length_a	16.992695
_cell_length_b	16.109302
_cell_length_c	15.186229
_cell_angle_alpha	89.994701
_cell_angle_beta	89.995943
_cell_angle_gamma	87.065002
loop_
_atom_site_label
_atom_site_type_symbol
_atom_site_fract_x
_atom_site_fract_y
_atom_site_fract_z
O1	O	0.100786	1.109856	-0.073269
O2	O	0.600786	1.609856	0.426731
O3	O	0.113328	0.868631	-0.073263
O4	O	0.613328	1.368631	0.426737
O5	O	-0.007085	0.988276	-0.073259
O6	O	0.492915	1.488276	0.426741
O7	O	0.221200	0.990210	-0.073273
O8	O	0.721200	1.490210	0.426727
O9	O	-0.007087	0.988268	0.073198
O10	O	0.492913	1.488268	0.573198
O11	O	0.113327	0.868622	0.073195
O12	O	0.613327	1.368622	0.573195
O13	O	0.100785	1.109847	0.073188
O14	O	0.600785	1.609847	0.573188
Zn15	Zn	0.107055	0.989233	0.096445
Zn16	Zn	0.607055	1.489233	0.596445
Zn17	Zn	0.107058	0.989245	-0.096519
Zn18	Zn	0.607058	1.489245	0.403481
O19	O	0.221198	0.990202	0.073184
O20	O	0.721198	1.490202	0.573184
C21	C	0.112819	0.837618	-0.000033
C22	C	0.612819	1.337618	0.499967
C23	C	0.111296	0.745221	-0.000030
C24	C	0.611296	1.245221	0.499970
C25	C	0.107772	0.532640	0.079795
C26	C	0.607772	1.032640	0.579795
C27	C	0.106332	0.445824	0.079792
C28	C	0.606332	0.945824	0.579792
C29	C	0.106338	0.445844	-0.079884
C30	C	0.606338	0.945844	0.420116
C31	C	0.107773	0.532659	-0.079880
C32	C	0.607773	1.032659	0.420120
C33	C	0.108493	0.576054	-0.000038
C34	C	0.608493	1.076054	0.499962
C35	C	0.105619	0.402423	-0.000045
C36	C	0.605619	0.902423	0.499955
C37	C	0.104058	0.308293	-0.000048
C38	C	0.604058	0.808293	0.499952
C39	C	0.110053	0.670190	-0.000034
C40	C	0.610053	1.170190	0.499966
C41	C	-0.036298	0.985784	-0.000030
C42	C	0.463702	1.485784	0.499970
C43	C	-0.123340	0.978360	-0.000030
C44	C	0.376660	1.478360	0.499970
C45	C	-0.173599	1.049986	-0.000031
C46	C	0.326401	1.549986	0.499969
C47	C	-0.255384	1.043006	-0.000040
C48	C	0.244616	1.543006	0.499960
C49	C	-0.286908	0.964400	-0.000040
C50	C	0.213092	1.464400	0.499960
C51	C	-0.236643	0.892768	-0.000042
C52	C	0.263357	1.392768	0.499958
C53	C	-0.154860	0.899749	-0.000040
C54	C	0.345140	1.399749	0.499960
C55	C	-0.530499	0.935467	-0.000052
C56	C	-0.030499	1.435467	0.499948
C57	C	-0.612288	0.928491	-0.000051
C58	C	-0.112288	1.428491	0.499949
C59	C	-0.631023	1.078730	-0.000050
C60	C	-0.131023	1.578730	0.499950
C61	C	-0.549237	1.085704	-0.000043
C62	C	-0.049237	1.585704	0.499957
C63	C	-0.498980	1.014073	-0.000049
C64	C	0.001020	1.514073	0.499951
N65	N	-0.370505	0.957263	-0.000046
N66	N	0.129495	1.457263	0.499954
N67	N	-0.415384	1.021210	-0.000050
N68	N	0.084616	1.521210	0.499950
C69	C	0.250411	0.992694	-0.000046
C70	C	0.750411	1.492694	0.499954
C71	C	0.337453	1.000117	-0.000052
C72	C	0.837453	1.500117	0.499948
C73	C	0.101294	1.140860	-0.000044
C74	C	0.601294	1.640860	0.499956
C75	C	0.102817	1.233257	-0.000052
C76	C	0.602817	1.733257	0.499948
N77	N	0.107053	0.989231	0.228137
N78	N	0.607053	1.489231	0.728137
N79	N	0.107053	0.989252	-0.228212
N80	N	0.607053	1.489252	0.271788
C81	C	0.053752	1.042231	0.453862
C82	C	0.553752	1.542231	0.953862
C83	C	0.053750	1.042233	0.546051
C84	C	0.553750	1.542233	1.046051
C85	C	0.160357	0.936247	0.546057
C86	C	0.660357	1.436247	1.046057
C87	C	0.160354	0.936241	0.453869
C88	C	0.660354	1.436241	0.953869
C89	C	0.107053	0.989238	0.407774
C90	C	0.607053	1.489238	0.907774
C91	C	0.107054	0.989246	0.592151
C92	C	0.607054	1.489246	1.092151
C93	C	0.107052	0.989249	0.692108
C94	C	0.607052	1.489249	1.192108
C95	C	0.107053	0.989234	0.307811
C96	C	0.607053	1.489234	0.807811
H97	H	-0.147938	1.113997	-0.000025
H98	H	0.352062	1.613997	0.499975
F99	F	-0.002978	1.098632	0.404807
F100	F	0.497022	1.598632	0.904807
H101	H	-0.296301	1.101332	-0.000039
H102	H	0.203699	1.601332	0.499961
H103	H	-0.489588	0.877139	-0.000057
H104	H	0.010412	1.377139	0.499943
F105	F	-0.515693	1.169368	-0.000065
F106	F	-0.015693	1.669368	0.499935
H107	H	0.108358	0.568008	-0.144893
H108	H	0.608358	1.068008	0.355107
F109	F	-0.002981	1.098634	0.595098
F110	F	0.497019	1.598634	1.095098
F111	F	-0.684516	1.154960	-0.000045
F112	F	-0.184516	1.654960	0.499955
F113	F	0.217084	0.879849	0.595121
F114	F	0.717084	1.379849	1.095121
H115	H	0.203759	0.893084	0.416342
H116	H	0.703759	1.393084	0.916342
F117	F	0.108536	0.578822	0.164770
F118	F	0.608536	1.078822	0.664770
F119	F	0.105566	0.399623	0.164761
F120	F	0.605566	0.899623	0.664761
F121	F	-0.270196	0.809108	-0.000053
F122	F	0.229804	1.309108	0.499947
H123	H	-0.637952	0.864477	-0.000037
H124	H	-0.137952	1.364477	0.499963
H125	H	0.105752	0.410501	-0.144888
H126	H	0.605752	0.910501	0.355112
H127	H	-0.113939	0.841423	-0.000039
H128	H	0.386061	1.341423	0.499961
