data_functionalizedCrystal
_audit_creation_method	'MofGen! by Chris Wilmer'
_symmetry_space_group_name_H-M	'P1'
_symmetry_Int_Tables_number	1
_symmetry_cell_setting	triclinic
loop_
_symmetry_equiv_pos_as_xyz
  x,y,z
_cell_length_a	29.839134
_cell_length_b	29.839131
_cell_length_c	18.101389
_cell_angle_alpha	89.971836
_cell_angle_beta	90.031063
_cell_angle_gamma	89.966655
loop_
_atom_site_label
_atom_site_type_symbol
_atom_site_fract_x
_atom_site_fract_y
_atom_site_fract_z
Zn1	Zn	0.686752	0.178987	0.418922
Zn2	Zn	0.936752	0.428987	0.668922
Zn3	Zn	1.186752	0.678987	0.918922
Zn4	Zn	1.436752	0.928987	1.168922
Zn5	Zn	0.686676	0.254104	0.295059
Zn6	Zn	0.936676	0.504104	0.545059
Zn7	Zn	1.186676	0.754104	0.795059
Zn8	Zn	1.436676	1.004104	1.045059
Zn9	Zn	0.611626	0.178979	0.295068
Zn10	Zn	0.861626	0.428979	0.545068
Zn11	Zn	1.111626	0.678979	0.795068
Zn12	Zn	1.361626	0.928979	1.045068
Zn13	Zn	0.611584	0.254082	0.418833
Zn14	Zn	0.861584	0.504082	0.668833
Zn15	Zn	1.111584	0.754082	0.918833
Zn16	Zn	1.361584	1.004082	1.168833
O17	O	0.649160	0.216538	0.356970
O18	O	0.899160	0.466538	0.606970
O19	O	1.149160	0.716538	0.856970
O20	O	1.399160	0.966538	1.106970
O21	O	0.749609	0.188965	0.402524
O22	O	0.999609	0.438965	0.652524
O23	O	1.249609	0.688965	0.902524
O24	O	1.499609	0.938965	1.152524
O25	O	0.676707	0.244145	0.191427
O26	O	0.926707	0.494145	0.441427
O27	O	1.176707	0.744145	0.691427
O28	O	1.426707	0.994145	0.941427
O29	O	0.621641	0.116113	0.311539
O30	O	0.871641	0.366113	0.561539
O31	O	1.121641	0.616113	0.811539
O32	O	1.371641	0.866113	1.061539
O33	O	0.749554	0.244152	0.311523
O34	O	0.999554	0.494152	0.561523
O35	O	1.249554	0.744152	0.811523
O36	O	1.499554	0.994152	1.061523
O37	O	0.676836	0.116119	0.402533
O38	O	0.926836	0.366119	0.652533
O39	O	1.176836	0.616119	0.902533
O40	O	1.426836	0.866119	1.152533
O41	O	0.621568	0.188951	0.191434
O42	O	0.871568	0.438951	0.441434
O43	O	1.121568	0.688951	0.691434
O44	O	1.371568	0.938951	0.941434
O45	O	0.548753	0.188929	0.311453
O46	O	0.798753	0.438929	0.561453
O47	O	1.048753	0.688929	0.811453
O48	O	1.298753	0.938929	1.061453
O49	O	0.621569	0.244114	0.522478
O50	O	0.871569	0.494114	0.772478
O51	O	1.121569	0.744114	1.022478
O52	O	1.371569	0.994114	1.272478
O53	O	0.548722	0.244106	0.402382
O54	O	0.798722	0.494106	0.652382
O55	O	1.048722	0.744106	0.902382
O56	O	1.298722	0.994106	1.152382
O57	O	0.676795	0.188943	0.522543
O58	O	0.926795	0.438943	0.772543
O59	O	1.176795	0.688943	1.022543
O60	O	1.426795	0.938943	1.272543
O61	O	0.676666	0.316968	0.311437
O62	O	0.926666	0.566968	0.561437
O63	O	1.176666	0.816968	0.811437
O64	O	1.426666	1.066968	1.061437
O65	O	0.621496	0.316952	0.402373
O66	O	0.871496	0.566952	0.652373
O67	O	1.121496	0.816952	0.902373
O68	O	1.371496	1.066952	1.152373
C69	C	0.532437	0.216515	0.356909
C70	C	0.782437	0.466515	0.606909
C71	C	1.032437	0.716515	0.856909
C72	C	1.282437	0.966515	1.106909
C73	C	0.482503	0.216516	0.356901
C74	C	0.732503	0.466516	0.606901
C75	C	0.982503	0.716516	0.856901
C76	C	1.232503	0.966516	1.106901
C77	C	0.125919	0.187765	0.309720
C78	C	0.375919	0.437765	0.559720
C79	C	0.625919	0.687765	0.809720
C80	C	0.875919	0.937765	1.059720
C81	C	0.313592	0.187752	0.309675
C82	C	0.563592	0.437752	0.559675
C83	C	0.813592	0.687752	0.809675
C84	C	1.063592	0.937752	1.059675
O85	O	0.337860	0.163269	0.269492
O86	O	0.587860	0.413269	0.519492
O87	O	0.837860	0.663269	0.769492
O88	O	1.087860	0.913269	1.019492
N89	N	0.337057	0.216523	0.356938
N90	N	0.587057	0.466523	0.606938
N91	N	0.837057	0.716523	0.856938
N92	N	1.087057	0.966523	1.106938
C93	C	0.313602	0.245297	0.404218
C94	C	0.563602	0.495297	0.654218
C95	C	0.813602	0.745297	0.904218
C96	C	1.063602	0.995297	1.154218
O97	O	0.337866	0.269764	0.444423
O98	O	0.587866	0.519764	0.694423
O99	O	0.837866	0.769764	0.944423
O100	O	1.087866	1.019764	1.194423
C101	C	0.125929	0.245307	0.404267
C102	C	0.375929	0.495307	0.654267
C103	C	0.625929	0.745307	0.904267
C104	C	0.875929	0.995307	1.154267
C105	C	0.102467	0.216537	0.356996
C106	C	0.352467	0.466537	0.606996
C107	C	0.602467	0.716537	0.856996
C108	C	0.852467	0.966537	1.106996
C109	C	0.102456	0.158998	0.262454
C110	C	0.352456	0.408998	0.512454
C111	C	0.602456	0.658998	0.762454
C112	C	0.852456	0.908998	1.012454
C113	C	0.055541	0.159003	0.262462
C114	C	0.305541	0.409003	0.512462
C115	C	0.555541	0.659003	0.762462
C116	C	0.805541	0.909003	1.012462
C117	C	0.032088	0.187775	0.309738
C118	C	0.282088	0.437775	0.559738
C119	C	0.532088	0.687775	0.809738
C120	C	0.782088	0.937775	1.059738
C121	C	0.055551	0.216543	0.357004
C122	C	0.305551	0.466543	0.607004
C123	C	0.555551	0.716543	0.857004
C124	C	0.805551	0.966543	1.107004
C125	C	0.102474	0.274078	0.451550
C126	C	0.352474	0.524078	0.701550
C127	C	0.602474	0.774078	0.951550
C128	C	0.852474	1.024078	1.201550
C129	C	0.055553	0.274077	0.451560
C130	C	0.305553	0.524077	0.701560
C131	C	0.555553	0.774077	0.951560
C132	C	0.805553	1.024077	1.201560
C133	C	0.032090	0.245308	0.404289
C134	C	0.282090	0.495308	0.654289
C135	C	0.532090	0.745308	0.904289
C136	C	0.782090	0.995308	1.154289
C137	C	-0.014817	0.245320	0.404289
C138	C	0.235183	0.495320	0.654289
C139	C	0.485183	0.745320	0.904289
C140	C	0.735183	0.995320	1.154289
N141	N	-0.038282	0.216550	0.357026
N142	N	0.211718	0.466550	0.607026
N143	N	0.461718	0.716550	0.857026
N144	N	0.711718	0.966550	1.107026
C145	C	-0.014830	0.187777	0.309751
C146	C	0.235170	0.437777	0.559751
C147	C	0.485170	0.687777	0.809751
C148	C	0.735170	0.937777	1.059751
C149	C	0.412132	0.245290	0.404189
C150	C	0.662132	0.495290	0.654189
C151	C	0.912132	0.745290	0.904189
C152	C	1.162132	0.995290	1.154189
C153	C	0.459050	0.245288	0.404176
C154	C	0.709050	0.495288	0.654176
C155	C	0.959050	0.745288	0.904176
C156	C	1.209050	0.995288	1.154176
C157	C	0.459037	0.187743	0.309634
C158	C	0.709037	0.437743	0.559634
C159	C	0.959037	0.687743	0.809634
C160	C	1.209037	0.937743	1.059634
C161	C	0.412119	0.187747	0.309643
C162	C	0.662119	0.437747	0.559643
C163	C	0.912119	0.687747	0.809643
C164	C	1.162119	0.937747	1.059643
C165	C	0.388667	0.216519	0.356926
C166	C	0.638667	0.466519	0.606926
C167	C	0.888667	0.716519	0.856926
C168	C	1.138667	0.966519	1.106926
C169	C	-0.113355	0.187790	0.309772
C170	C	0.136645	0.437790	0.559772
C171	C	0.386645	0.687790	0.809772
C172	C	0.636645	0.937790	1.059772
C173	C	-0.160275	0.187799	0.309783
C174	C	0.089725	0.437799	0.559783
C175	C	0.339725	0.687799	0.809783
C176	C	0.589725	0.937799	1.059783
C177	C	-0.160258	0.245343	0.404328
C178	C	0.089742	0.495343	0.654328
C179	C	0.339742	0.745343	0.904328
C180	C	0.589742	0.995343	1.154328
C181	C	-0.113343	0.245336	0.404315
C182	C	0.136657	0.495336	0.654315
C183	C	0.386657	0.745336	0.904315
C184	C	0.636657	0.995336	1.154315
C185	C	-0.089893	0.216556	0.357035
C186	C	0.160107	0.466556	0.607035
C187	C	0.410107	0.716556	0.857035
C188	C	0.660107	0.966556	1.107035
O189	O	-0.039114	0.269787	0.444457
O190	O	0.210886	0.519787	0.694457
O191	O	0.460886	0.769787	0.944457
O192	O	0.710886	1.019787	1.194457
O193	O	-0.039103	0.163306	0.269564
O194	O	0.210897	0.413306	0.519564
O195	O	0.460897	0.663306	0.769564
O196	O	0.710897	0.913306	1.019564
C197	C	0.172835	0.187760	0.309711
C198	C	0.422835	0.437760	0.559711
C199	C	0.672835	0.687760	0.809711
C200	C	0.922835	0.937760	1.059711
C201	C	0.196297	0.216527	0.356978
C202	C	0.446297	0.466527	0.606978
C203	C	0.696297	0.716527	0.856978
C204	C	0.946297	0.966527	1.106978
C205	C	0.172845	0.245300	0.404253
C206	C	0.422845	0.495300	0.654253
C207	C	0.672845	0.745300	0.904253
C208	C	0.922845	0.995300	1.154253
C209	C	0.243215	0.216525	0.356965
C210	C	0.493215	0.466525	0.606965
C211	C	0.743215	0.716525	0.856965
C212	C	0.993215	0.966525	1.106965
C213	C	0.266668	0.187753	0.309690
C214	C	0.516668	0.437753	0.559690
C215	C	0.766668	0.687753	0.809690
C216	C	1.016668	0.937753	1.059690
C217	C	0.243203	0.158982	0.262427
C218	C	0.493203	0.408982	0.512427
C219	C	0.743203	0.658982	0.762427
C220	C	0.993203	0.908982	1.012427
C221	C	0.196287	0.158987	0.262436
C222	C	0.446287	0.408987	0.512436
C223	C	0.696287	0.658987	0.762436
C224	C	0.946287	0.908987	1.012436
C225	C	0.196310	0.274070	0.451516
C226	C	0.446310	0.524070	0.701516
C227	C	0.696310	0.774070	0.951516
C228	C	0.946310	1.024070	1.201516
C229	C	0.243226	0.274063	0.451503
C230	C	0.493226	0.524063	0.701503
C231	C	0.743226	0.774063	0.951503
C232	C	0.993226	1.024063	1.201503
C233	C	0.266678	0.245291	0.404227
C234	C	0.516678	0.495291	0.654227
C235	C	0.766678	0.745291	0.904227
C236	C	1.016678	0.995291	1.154227
C237	C	0.649080	0.333261	0.356911
C238	C	0.899080	0.583261	0.606911
C239	C	1.149080	0.833261	0.856911
C240	C	1.399080	1.083261	1.106911
C241	C	0.649087	0.383195	0.356910
C242	C	0.899087	0.633195	0.606910
C243	C	1.149087	0.883195	0.856910
C244	C	1.399087	1.133195	1.106910
C245	C	0.677849	0.692807	0.404429
C246	C	0.927849	0.942807	0.654429
C247	C	1.177849	1.192807	0.904429
C248	C	1.427849	1.442807	1.154429
C249	C	0.677880	0.880480	0.404478
C250	C	0.927880	1.130480	0.654478
C251	C	1.177880	1.380480	0.904478
C252	C	1.427880	1.630480	1.154478
O253	O	0.702289	0.904717	0.444829
O254	O	0.952289	1.154717	0.694829
O255	O	1.202289	1.404717	0.944829
O256	O	1.452289	1.654717	1.194829
N257	N	0.649171	0.903980	0.357068
N258	N	0.899171	1.153980	0.607068
N259	N	1.149171	1.403980	0.857068
N260	N	1.399171	1.653980	1.107068
C261	C	0.620451	0.880560	0.309646
C262	C	0.870451	1.130560	0.559646
C263	C	1.120451	1.380560	0.809646
C264	C	1.370451	1.630560	1.059646
O265	O	0.596030	0.904854	0.269327
O266	O	0.846030	1.154854	0.519327
O267	O	1.096030	1.404854	0.769327
O268	O	1.346030	1.654854	1.019327
C269	C	0.620418	0.692887	0.309601
C270	C	0.870418	0.942887	0.559601
C271	C	1.120418	1.192887	0.809601
C272	C	1.370418	1.442887	1.059601
C273	C	0.649131	0.669389	0.357009
C274	C	0.899131	0.919389	0.607009
C275	C	1.149131	1.169389	0.857009
C276	C	1.399131	1.419389	1.107009
C277	C	0.706559	0.669309	0.451834
C278	C	0.956559	0.919309	0.701834
C279	C	1.206559	1.169309	0.951834
C280	C	1.456559	1.419309	1.201834
C281	C	0.706553	0.622393	0.451819
C282	C	0.956553	0.872393	0.701819
C283	C	1.206553	1.122393	0.951819
C284	C	1.456553	1.372393	1.201819
C285	C	0.677836	0.598976	0.404398
C286	C	0.927836	0.848976	0.654398
C287	C	1.177836	1.098976	0.904398
C288	C	1.427836	1.348976	1.154398
C289	C	0.649125	0.622474	0.356994
C290	C	0.899125	0.872474	0.606994
C291	C	1.149125	1.122474	0.856994
C292	C	1.399125	1.372474	1.106994
C293	C	0.591696	0.669468	0.262183
C294	C	0.841696	0.919468	0.512183
C295	C	1.091696	1.169468	0.762183
C296	C	1.341696	1.419468	1.012183
C297	C	0.591689	0.622547	0.262178
C298	C	0.841689	0.872547	0.512178
C299	C	1.091689	1.122547	0.762178
C300	C	1.341689	1.372547	1.012178
C301	C	0.620403	0.599048	0.309586
C302	C	0.870403	0.849048	0.559586
C303	C	1.120403	1.099048	0.809586
C304	C	1.370403	1.349048	1.059586
C305	C	0.620402	0.552141	0.309558
C306	C	0.870402	0.802141	0.559558
C307	C	1.120402	1.052141	0.809558
C308	C	1.370402	1.302141	1.059558
N309	N	0.649110	0.528641	0.356968
N310	N	0.899110	0.778641	0.606968
N311	N	1.149110	1.028641	0.856968
N312	N	1.399110	1.278641	1.106968
C313	C	0.677827	0.552058	0.404388
C314	C	0.927827	0.802058	0.654388
C315	C	1.177827	1.052058	0.904388
C316	C	1.427827	1.302058	1.154388
C317	C	0.620471	0.979090	0.309671
C318	C	0.870471	1.229090	0.559671
C319	C	1.120471	1.479090	0.809671
C320	C	1.370471	1.729090	1.059671
C321	C	0.620480	1.026008	0.309681
C322	C	0.870480	1.276008	0.559681
C323	C	1.120480	1.526008	0.809681
C324	C	1.370480	1.776008	1.059681
C325	C	0.677908	1.025925	0.404515
C326	C	0.927908	1.275925	0.654515
C327	C	1.177908	1.525925	0.904515
C328	C	1.427908	1.775925	1.154515
C329	C	0.677901	0.979006	0.404501
C330	C	0.927901	1.229006	0.654501
C331	C	1.177901	1.479006	0.904501
C332	C	1.427901	1.729006	1.154501
C333	C	0.649180	0.955590	0.357081
C334	C	0.899180	1.205590	0.607081
C335	C	1.149180	1.455590	0.857081
C336	C	1.399180	1.705590	1.107081
C337	C	0.677812	0.453532	0.404352
C338	C	0.927812	0.703532	0.654352
C339	C	1.177812	0.953532	0.904352
C340	C	1.427812	1.203532	1.154352
C341	C	0.677804	0.406612	0.404330
C342	C	0.927804	0.656612	0.654330
C343	C	1.177804	0.906612	0.904330
C344	C	1.427804	1.156612	1.154330
C345	C	0.620375	0.406700	0.309499
C346	C	0.870375	0.656700	0.559499
C347	C	1.120375	0.906700	0.809499
C348	C	1.370375	1.156700	1.059499
C349	C	0.620384	0.453615	0.309518
C350	C	0.870384	0.703615	0.559518
C351	C	1.120384	0.953615	0.809518
C352	C	1.370384	1.203615	1.059518
C353	C	0.649104	0.477030	0.356950
C354	C	0.899104	0.727030	0.606950
C355	C	1.149104	0.977030	0.856950
C356	C	1.399104	1.227030	1.106950
O357	O	0.596002	0.527874	0.269234
O358	O	0.846002	0.777874	0.519234
O359	O	1.096002	1.027874	0.769234
O360	O	1.346002	1.277874	1.019234
O361	O	0.702237	0.527755	0.444713
O362	O	0.952237	0.777755	0.694713
O363	O	1.202237	1.027755	0.944713
O364	O	1.452237	1.277755	1.194713
C365	C	0.677855	0.739722	0.404445
C366	C	0.927855	0.989722	0.654445
C367	C	1.177855	1.239722	0.904445
C368	C	1.427855	1.489722	1.154445
C369	C	0.649144	0.763220	0.357040
C370	C	0.899144	1.013220	0.607040
C371	C	1.149144	1.263220	0.857040
C372	C	1.399144	1.513220	1.107040
C373	C	0.620427	0.739803	0.309620
C374	C	0.870427	0.989803	0.559620
C375	C	1.120427	1.239803	0.809620
C376	C	1.370427	1.489803	1.059620
C377	C	0.649153	0.810138	0.357050
C378	C	0.899153	1.060138	0.607050
C379	C	1.149153	1.310138	0.857050
C380	C	1.399153	1.560138	1.107050
C381	C	0.677870	0.833555	0.404470
C382	C	0.927870	1.083555	0.654470
C383	C	1.177870	1.333555	0.904470
C384	C	1.427870	1.583555	1.154470
C385	C	0.706578	0.810055	0.451881
C386	C	0.956578	1.060055	0.701881
C387	C	1.206578	1.310055	0.951881
C388	C	1.456578	1.560055	1.201881
C389	C	0.706572	0.763139	0.451865
C390	C	0.956572	1.013139	0.701865
C391	C	1.206572	1.263139	0.951865
C392	C	1.456572	1.513139	1.201865
C393	C	0.591719	0.763303	0.262210
C394	C	0.841719	1.013303	0.512210
C395	C	1.091719	1.263303	0.762210
C396	C	1.341719	1.513303	1.012210
C397	C	0.591728	0.810219	0.262229
C398	C	0.841728	1.060219	0.512229
C399	C	1.091728	1.310219	0.762229
C400	C	1.341728	1.560219	1.012229
C401	C	0.620445	0.833636	0.309649
C402	C	0.870445	1.083636	0.559649
C403	C	1.120445	1.333636	0.809649
C404	C	1.370445	1.583636	1.059649
C405	C	0.766338	0.216562	0.357032
C406	C	1.016338	0.466562	0.607032
C407	C	1.266338	0.716562	0.857032
C408	C	1.516338	0.966562	1.107032
C409	C	0.816272	0.216572	0.357059
C410	C	1.066272	0.466572	0.607059
C411	C	1.316272	0.716572	0.857059
C412	C	1.566272	0.966572	1.107059
C413	C	0.649186	0.216527	0.550132
C414	C	0.899186	0.466527	0.800132
C415	C	1.149186	0.716527	1.050132
C416	C	1.399186	0.966527	1.300132
C417	C	0.649197	0.216522	0.632447
C418	C	0.899197	0.466522	0.882447
C419	C	1.149197	0.716522	1.132447
C420	C	1.399197	0.966522	1.382447
C421	C	0.649228	1.099360	0.357052
C422	C	0.899228	1.349360	0.607052
C423	C	1.149228	1.599360	0.857052
C424	C	1.399228	1.849360	1.107052
C425	C	0.649197	1.049425	0.357102
C426	C	0.899197	1.299425	0.607102
C427	C	1.149197	1.549425	0.857102
C428	C	1.399197	1.799425	1.107102
C429	C	0.649160	0.216517	0.164560
C430	C	0.899160	0.466517	0.414560
C431	C	1.149160	0.716517	0.664560
C432	C	1.399160	0.966517	0.914560
C433	C	0.649236	0.216395	0.082246
C434	C	0.899236	0.466395	0.332246
C435	C	1.149236	0.716395	0.582246
C436	C	1.399236	0.966395	0.832246
C437	C	0.649223	0.216438	0.931538
C438	C	0.899223	0.466438	1.181538
C439	C	1.149223	0.716438	1.431538
C440	C	1.399223	0.966438	1.681538
C441	C	0.614357	0.251040	0.900172
C442	C	0.864357	0.501040	1.150172
C443	C	1.114357	0.751040	1.400172
C444	C	1.364357	1.001040	1.650172
C445	C	0.614451	0.251200	0.814553
C446	C	0.864451	0.501200	1.064553
C447	C	1.114451	0.751200	1.314553
C448	C	1.364451	1.001200	1.564553
C449	C	0.649209	0.216479	0.783155
C450	C	0.899209	0.466479	1.033155
C451	C	1.149209	0.716479	1.283155
C452	C	1.399209	0.966479	1.533155
C453	C	0.696540	0.229336	0.814266
C454	C	0.946540	0.479336	1.064266
C455	C	1.196540	0.729336	1.314266
C456	C	1.446540	0.979336	1.564266
C457	C	0.696346	0.229564	0.899911
C458	C	0.946346	0.479564	1.149911
C459	C	1.196346	0.729564	1.399911
C460	C	1.446346	0.979564	1.649911
C461	C	0.637170	0.168902	0.899973
C462	C	0.887170	0.418902	1.149973
C463	C	1.137170	0.668902	1.399973
C464	C	1.387170	0.918902	1.649973
C465	C	0.636117	0.169176	0.814322
C466	C	0.886117	0.419176	1.064322
C467	C	1.136117	0.669176	1.314322
C468	C	1.386117	0.919176	1.564322
C469	C	0.649205	0.216502	0.699296
C470	C	0.899205	0.466502	0.949296
C471	C	1.149205	0.716502	1.199296
C472	C	1.399205	0.966502	1.449296
C473	C	0.649231	0.216416	1.015397
C474	C	0.899231	0.466416	1.265397
C475	C	1.149231	0.716416	1.515397
C476	C	1.399231	0.966416	1.765397
H477	H	0.393042	0.268721	0.442694
H478	H	0.643042	0.518721	0.692694
H479	H	0.893042	0.768721	0.942694
H480	H	1.143042	1.018721	1.192694
H481	H	0.701195	0.472591	0.442981
H482	H	0.951195	0.722591	0.692981
H483	H	1.201195	0.972591	0.942981
H484	H	1.451195	1.222591	1.192981
H485	H	0.701188	0.387482	0.442935
H486	H	0.951188	0.637482	0.692935
H487	H	1.201188	0.887482	0.942935
H488	H	1.451188	1.137482	1.192935
H489	H	0.568333	0.744241	0.223596
H490	H	0.818333	0.994241	0.473596
H491	H	1.068333	1.244241	0.723596
H492	H	1.318333	1.494241	0.973596
F493	F	0.666892	0.133690	0.786396
F494	F	0.916892	0.383690	1.036396
F495	F	1.166892	0.633690	1.286396
F496	F	1.416892	0.883690	1.536396
F497	F	0.484016	0.275914	0.454478
F498	F	0.734016	0.525914	0.704478
F499	F	0.984016	0.775914	0.954478
F500	F	1.234016	1.025914	1.204478
H501	H	0.393018	0.164319	0.271154
H502	H	0.643018	0.414319	0.521154
H503	H	0.893018	0.664319	0.771154
H504	H	1.143018	0.914319	1.021154
H505	H	0.701282	0.959877	0.443105
H506	H	0.951282	1.209877	0.693105
H507	H	1.201282	1.459877	0.943105
H508	H	1.451282	1.709877	1.193105
H509	H	0.729933	0.603264	0.490424
H510	H	0.979933	0.853264	0.740424
H511	H	1.229933	1.103264	0.990424
H512	H	1.479933	1.353264	1.240424
F513	F	0.171356	0.304696	0.501836
F514	F	0.421356	0.554696	0.751836
F515	F	0.671356	0.804696	1.001836
F516	F	0.921356	1.054696	1.251836
F517	F	0.127435	0.304698	0.501864
F518	F	0.377435	0.554698	0.751864
F519	F	0.627435	0.804698	1.001864
F520	F	0.877435	1.054698	1.251864
H521	H	0.601286	0.159481	0.793986
H522	H	0.851286	0.409481	1.043986
H523	H	1.101286	0.659481	1.293986
H524	H	1.351286	0.909481	1.543986
H525	H	0.729944	0.688370	0.490454
H526	H	0.979944	0.938370	0.740454
H527	H	1.229944	1.188370	0.990454
H528	H	1.479944	1.438370	1.240454
H529	H	0.568347	0.829347	0.223616
H530	H	0.818347	1.079347	0.473616
H531	H	1.068347	1.329347	0.723616
H532	H	1.318347	1.579347	0.973616
H533	H	0.706936	0.263717	0.792817
H534	H	0.956936	0.513717	1.042817
H535	H	1.206936	0.763717	1.292817
H536	H	1.456936	1.013717	1.542817
H537	H	0.579353	0.243154	0.793516
H538	H	0.829353	0.493154	1.043516
H539	H	1.079353	0.743154	1.293516
H540	H	1.329353	0.993154	1.543516
H541	H	-0.179376	0.164371	0.271287
H542	H	0.070624	0.414371	0.521287
H543	H	0.320624	0.664371	0.771287
H544	H	0.570624	0.914371	1.021287
H545	H	-0.094268	0.164353	0.271276
H546	H	0.155732	0.414353	0.521276
H547	H	0.405732	0.664353	0.771276
H548	H	0.655732	0.914353	1.021276
F549	F	0.708471	1.050855	0.454983
F550	F	0.958471	1.300855	0.704983
F551	F	1.208471	1.550855	0.954983
F552	F	1.458471	1.800855	1.204983
F553	F	0.568341	0.240629	0.927065
F554	F	0.818341	0.490629	1.177065
F555	F	1.068341	0.740629	1.427065
F556	F	1.318341	0.990629	1.677065
F557	F	0.484005	0.157121	0.259319
F558	F	0.734005	0.407121	0.509319
F559	F	0.984005	0.657121	0.759319
F560	F	1.234005	0.907121	1.009319
F561	F	0.589830	0.478624	0.259053
F562	F	0.839830	0.728624	0.509053
F563	F	1.089830	0.978624	0.759053
F564	F	1.339830	1.228624	1.009053
F565	F	0.670363	0.135205	0.926490
F566	F	0.920363	0.385205	1.176490
F567	F	1.170363	0.635205	1.426490
F568	F	1.420363	0.885205	1.676490
H569	H	-0.179362	0.268770	0.442816
H570	H	0.070638	0.518770	0.692816
H571	H	0.320638	0.768770	0.942816
H572	H	0.570638	1.018770	1.192816
F573	F	0.624632	0.296808	0.928339
F574	F	0.874632	0.546808	1.178339
F575	F	1.124632	0.796808	1.428339
F576	F	1.374632	1.046808	1.678339
H577	H	0.036461	0.297506	0.490067
H578	H	0.286461	0.547506	0.740067
H579	H	0.536461	0.797506	0.990067
H580	H	0.786461	1.047506	1.240067
F581	F	0.709702	0.274983	0.926023
F582	F	0.959702	0.524983	1.176023
F583	F	1.209702	0.774983	1.426023
F584	F	1.459702	1.024983	1.676023
H585	H	-0.094238	0.268765	0.442801
H586	H	0.155762	0.518765	0.692801
H587	H	0.405762	0.768765	0.942801
H588	H	0.655762	1.018765	1.192801
F589	F	0.731432	0.198033	0.927039
F590	F	0.981432	0.448033	1.177039
F591	F	1.231432	0.698033	1.427039
F592	F	1.481432	0.948033	1.677039
F593	F	0.171322	0.128366	0.212125
F594	F	0.421322	0.378366	0.462125
F595	F	0.671322	0.628366	0.712125
F596	F	0.921322	0.878366	0.962125
H597	H	0.597103	1.045136	0.271069
H598	H	0.847103	1.295136	0.521069
H599	H	1.097103	1.545136	0.771069
H600	H	1.347103	1.795136	1.021069
F601	F	0.624872	0.297250	0.787767
F602	F	0.874872	0.547250	1.037767
F603	F	1.124872	0.797250	1.287767
F604	F	1.374872	1.047250	1.537767
F605	F	0.268191	0.304688	0.501815
F606	F	0.518191	0.554688	0.751815
F607	F	0.768191	0.804688	1.001815
F608	F	1.018191	1.054688	1.251815
H609	H	0.597082	0.960028	0.271055
H610	H	0.847082	1.210028	0.521055
H611	H	1.097082	1.460028	0.771055
H612	H	1.347082	1.710028	1.021055
F613	F	0.561133	0.694466	0.211726
F614	F	0.811133	0.944466	0.461726
F615	F	1.061133	1.194466	0.711726
F616	F	1.311133	1.444466	0.961726
H617	H	0.603257	0.157189	0.921556
H618	H	0.853257	0.407189	1.171556
H619	H	1.103257	0.657189	1.421556
H620	H	1.353257	0.907189	1.671556
H621	H	0.036442	0.135576	0.223970
H622	H	0.286442	0.385576	0.473970
H623	H	0.536442	0.635576	0.723970
H624	H	0.786442	0.885576	0.973970
F625	F	0.731408	0.197431	0.787691
F626	F	0.981408	0.447431	1.037691
F627	F	1.231408	0.697431	1.287691
F628	F	1.481408	0.947431	1.537691
H629	H	0.596995	0.387626	0.270888
H630	H	0.846995	0.637626	0.520888
H631	H	1.096995	0.887626	0.770888
H632	H	1.346995	1.137626	1.020888
H633	H	0.262306	0.135556	0.223931
H634	H	0.512306	0.385556	0.473931
H635	H	0.762306	0.635556	0.723931
H636	H	1.012306	0.885556	0.973931
F637	F	0.127409	0.128370	0.212134
F638	F	0.377409	0.378370	0.462134
F639	F	0.627409	0.628370	0.712134
F640	F	0.877409	0.878370	0.962134
F641	F	0.561119	0.597628	0.211707
F642	F	0.811119	0.847628	0.461707
F643	F	1.061119	1.097628	0.711707
F644	F	1.311119	1.347628	0.961707
F645	F	0.737133	0.738137	0.502324
F646	F	0.987133	0.988137	0.752324
F647	F	1.237133	1.238137	1.002324
F648	F	1.487133	1.488137	1.252324
F649	F	0.737143	0.834986	0.502346
F650	F	0.987143	1.084986	0.752346
F651	F	1.237143	1.334986	1.002346
F652	F	1.487143	1.584986	1.252346
