data_functionalizedCrystal
_audit_creation_method	'MofGen! by Chris Wilmer'
_symmetry_space_group_name_H-M	'P1'
_symmetry_Int_Tables_number	1
_symmetry_cell_setting	triclinic
loop_
_symmetry_equiv_pos_as_xyz
  x,y,z
_cell_length_a	18.050591
_cell_length_b	18.050588
_cell_length_c	18.050582
_cell_angle_alpha	89.978848
_cell_angle_beta	89.979078
_cell_angle_gamma	90.025567
loop_
_atom_site_label
_atom_site_type_symbol
_atom_site_fract_x
_atom_site_fract_y
_atom_site_fract_z
Zn1	Zn	1.135286	-0.295786	-0.420039
Zn2	Zn	1.468619	0.037548	-0.086705
Zn3	Zn	1.801952	0.370881	0.246628
Zn4	Zn	1.135193	-0.419969	-0.295852
Zn5	Zn	1.468527	-0.086636	0.037482
Zn6	Zn	1.801860	0.246698	0.370815
Zn7	Zn	1.011105	-0.295789	-0.295850
Zn8	Zn	1.344438	0.037545	0.037483
Zn9	Zn	1.677771	0.370878	0.370817
Zn10	Zn	1.011050	-0.419930	-0.419987
Zn11	Zn	1.344383	-0.086596	-0.086654
Zn12	Zn	1.677717	0.246737	0.246679
O13	O	1.073158	-0.357868	-0.357932
O14	O	1.406492	-0.024535	-0.024599
O15	O	1.739825	0.308798	0.308735
O16	O	1.239198	-0.312274	-0.403587
O17	O	1.572531	0.021059	-0.070254
O18	O	1.905865	0.354393	0.263079
O19	O	1.118717	-0.403514	-0.191927
O20	O	1.452050	-0.070181	0.141406
O21	O	1.785384	0.263153	0.474740
O22	O	1.027639	-0.191864	-0.312344
O23	O	1.360973	0.141470	0.020989
O24	O	1.694306	0.474803	0.354322
O25	O	1.239130	-0.403511	-0.312348
O26	O	1.572464	-0.070178	0.020986
O27	O	1.905797	0.263156	0.354319
O28	O	1.118874	-0.191862	-0.403586
O29	O	1.452208	0.141472	-0.070252
O30	O	1.785541	0.474805	0.263081
O31	O	1.027550	-0.312279	-0.191925
O32	O	1.360883	0.021054	0.141408
O33	O	1.694216	0.354387	0.474741
O34	O	0.907173	-0.312241	-0.312295
O35	O	1.240506	0.021092	0.021039
O36	O	1.573840	0.354426	0.354372
O37	O	1.027546	-0.403444	-0.523919
O38	O	1.360879	-0.070111	-0.190585
O39	O	1.694212	0.263223	0.142748
O40	O	0.907133	-0.403447	-0.403498
O41	O	1.240466	-0.070114	-0.070165
O42	O	1.573799	0.263220	0.263169
O43	O	1.118821	-0.312236	-0.523957
O44	O	1.452154	0.021097	-0.190623
O45	O	1.785488	0.354431	0.142710
O46	O	1.118664	-0.523888	-0.312298
O47	O	1.451997	-0.190555	0.021035
O48	O	1.785331	0.142778	0.354369
O49	O	1.027456	-0.523860	-0.403500
O50	O	1.360790	-0.190526	-0.070166
O51	O	1.694123	0.142807	0.263167
C52	C	0.880206	-0.357841	-0.357891
C53	C	1.213540	-0.024507	-0.024558
C54	C	1.546873	0.308826	0.308776
C55	C	0.797661	-0.357847	-0.357891
C56	C	1.130994	-0.024513	-0.024558
C57	C	1.464327	0.308820	0.308776
C58	C	1.073064	-0.550821	-0.357910
C59	C	1.406398	-0.217487	-0.024576
C60	C	1.739731	0.115846	0.308757
C61	C	1.073092	-0.633366	-0.357925
C62	C	1.406425	-0.300033	-0.024592
C63	C	1.739759	0.033300	0.308742
C64	C	1.023571	-0.882203	-0.407521
C65	C	1.356905	-0.548870	-0.074188
C66	C	1.690238	-0.215536	0.259146
C67	C	1.091288	-0.832739	-0.425752
C68	C	1.424621	-0.499406	-0.092419
C69	C	1.757954	-0.166073	0.240914
C70	C	1.073246	-0.930487	-0.357966
C71	C	1.406579	-0.597153	-0.024633
C72	C	1.739913	-0.263820	0.308700
C73	C	1.005457	-0.832869	-0.339750
C74	C	1.338791	-0.499535	-0.006416
C75	C	1.672124	-0.166202	0.326917
C76	C	1.073167	-0.784502	-0.357948
C77	C	1.406500	-0.451168	-0.024615
C78	C	1.739833	-0.117835	0.308719
C79	C	1.140999	-0.882110	-0.376233
C80	C	1.474332	-0.548777	-0.042900
C81	C	1.807665	-0.215443	0.290434
C82	C	1.055123	-0.882244	-0.290199
C83	C	1.388456	-0.548911	0.043135
C84	C	1.721790	-0.215577	0.376468
C85	C	1.122886	-0.832802	-0.308404
C86	C	1.456219	-0.499469	0.024929
C87	C	1.789553	-0.166136	0.358262
C88	C	1.073291	-1.014585	-0.357979
C89	C	1.406624	-0.681252	-0.024646
C90	C	1.739958	-0.347918	0.308688
C91	C	1.073130	-0.700405	-0.357935
C92	C	1.406463	-0.367072	-0.024602
C93	C	1.739796	-0.033738	0.308731
C94	C	0.598210	-0.308191	-0.308409
C95	C	0.931544	0.025142	0.024925
C96	C	1.264877	0.358475	0.358258
C97	C	0.548789	-0.375927	-0.290134
C98	C	0.882122	-0.042594	0.043199
C99	C	1.215456	0.290739	0.376532
C100	C	0.646530	-0.357869	-0.357924
C101	C	0.979863	-0.024536	-0.024591
C102	C	1.313197	0.308797	0.308742
C103	C	0.548870	-0.290157	-0.376197
C104	C	0.882203	0.043176	-0.042864
C105	C	1.215536	0.376510	0.290470
C106	C	0.500545	-0.357885	-0.357955
C107	C	0.833878	-0.024552	-0.024622
C108	C	1.167212	0.308782	0.308711
C109	C	0.598196	-0.425641	-0.339615
C110	C	0.931529	-0.092307	-0.006281
C111	C	1.264863	0.241026	0.327052
C112	C	0.598281	-0.339825	-0.425709
C113	C	0.931615	-0.006491	-0.092375
C114	C	1.264948	0.326842	0.240958
C115	C	0.548882	-0.407607	-0.407460
C116	C	0.882216	-0.074274	-0.074127
C117	C	1.215549	0.259059	0.259207
C118	C	0.730628	-0.357859	-0.357905
C119	C	1.063962	-0.024526	-0.024571
C120	C	1.397295	0.308807	0.308762
C121	C	0.416449	-0.357903	-0.357975
C122	C	0.749782	-0.024569	-0.024642
C123	C	1.083115	0.308764	0.308691
C124	C	1.266864	-0.357897	-0.357974
C125	C	1.600197	-0.024563	-0.024640
C126	C	1.933531	0.308770	0.308693
C127	C	1.349410	-0.357909	-0.357991
C128	C	1.682743	-0.024575	-0.024658
C129	C	2.016076	0.308758	0.308675
C130	C	1.073188	-0.357835	-0.551638
C131	C	1.406521	-0.024502	-0.218304
C132	C	1.739854	0.308831	0.115029
C133	C	1.073200	-0.357821	-0.634183
C134	C	1.406533	-0.024488	-0.300850
C135	C	1.739867	0.308845	0.032483
C136	C	1.073273	-0.164163	-0.357971
C137	C	1.406607	0.169171	-0.024637
C138	C	1.739940	0.502504	0.308696
C139	C	1.073322	-0.081617	-0.357987
C140	C	1.406655	0.251716	-0.024654
C141	C	1.739989	0.585050	0.308680
C142	C	1.023602	-0.407353	-0.833614
C143	C	1.356936	-0.074019	-0.500280
C144	C	1.690269	0.259314	-0.166947
C145	C	1.091357	-0.425511	-0.883013
C146	C	1.424690	-0.092177	-0.549679
C147	C	1.758024	0.241156	-0.216346
C148	C	1.073237	-0.357765	-0.785314
C149	C	1.406570	-0.024431	-0.451981
C150	C	1.739903	0.308902	-0.118647
C151	C	1.005519	-0.339586	-0.882997
C152	C	1.338852	-0.006253	-0.549663
C153	C	1.672186	0.327081	-0.216330
C154	C	1.073266	-0.357711	-0.931299
C155	C	1.406599	-0.024378	-0.597966
C156	C	1.739933	0.308955	-0.264632
C157	C	1.141027	-0.375958	-0.833626
C158	C	1.474360	-0.042625	-0.500292
C159	C	1.807694	0.290708	-0.166959
C160	C	1.055143	-0.290002	-0.833605
C161	C	1.388476	0.043331	-0.500272
C162	C	1.721810	0.376665	-0.166939
C163	C	1.122945	-0.308134	-0.882982
C164	C	1.456278	0.025199	-0.549649
C165	C	1.789611	0.358532	-0.216315
C166	C	1.073219	-0.357797	-0.701216
C167	C	1.406552	-0.024464	-0.367882
C168	C	1.739885	0.308869	-0.034549
C169	C	1.073292	-0.357679	-1.015396
C170	C	1.406625	-0.024345	-0.682062
C171	C	1.739958	0.308988	-0.348729
C172	C	1.073172	-0.357848	-0.164980
C173	C	1.406506	-0.024514	0.168354
C174	C	1.739839	0.308819	0.501687
C175	C	1.073304	-0.357652	-0.082434
C176	C	1.406637	-0.024319	0.250899
C177	C	1.739970	0.309014	0.584232
H178	H	0.981648	-0.903892	-0.449467
H179	H	1.314982	-0.570558	-0.116134
H180	H	1.648315	-0.237225	0.217199
Cl181	Cl	0.958859	-0.472178	-0.800143
Cl182	Cl	1.292192	-0.138844	-0.466810
Cl183	Cl	1.625525	0.194489	-0.133476
Cl184	Cl	1.115013	-0.513949	-0.916521
Cl185	Cl	1.448347	-0.180616	-0.583188
Cl186	Cl	1.781680	0.152717	-0.249854
H187	H	1.198324	-0.391377	-0.812029
H188	H	1.531657	-0.058043	-0.478696
H189	H	1.864990	0.275290	-0.145363
H190	H	0.620037	-0.324530	-0.483002
H191	H	0.953370	0.008804	-0.149669
H192	H	1.286704	0.342137	0.183665
Cl193	Cl	1.187841	-0.243356	-0.916244
Cl194	Cl	1.521174	0.089977	-0.582911
Cl195	Cl	1.854507	0.423311	-0.249577
H196	H	1.039803	-0.904004	-0.232914
H197	H	1.373136	-0.570671	0.100420
H198	H	1.706470	-0.237337	0.433753
Cl199	Cl	0.917000	-0.799469	-0.315972
Cl200	Cl	1.250333	-0.466135	0.017361
Cl201	Cl	1.583667	-0.132802	0.350695
Cl202	Cl	0.515411	-0.201738	-0.400037
Cl203	Cl	0.848744	0.131595	-0.066704
Cl204	Cl	1.182077	0.464928	0.266630
Cl205	Cl	0.917084	-0.315880	-0.916481
Cl206	Cl	1.250417	0.017454	-0.583148
Cl207	Cl	1.583751	0.350787	-0.249814
Cl208	Cl	1.114911	-0.799168	-0.514220
Cl209	Cl	1.448245	-0.465835	-0.180887
Cl210	Cl	1.781578	-0.132502	0.152446
Cl211	Cl	1.229484	-0.915363	-0.400112
Cl212	Cl	1.562817	-0.582029	-0.066779
Cl213	Cl	1.896151	-0.248696	0.266555
Cl214	Cl	1.187763	-0.799520	-0.243692
Cl215	Cl	1.521096	-0.466187	0.089642
Cl216	Cl	1.854430	-0.132853	0.422975
H217	H	1.039802	-0.232736	-0.811887
H218	H	1.373135	0.100598	-0.478554
H219	H	1.706468	0.433931	-0.145220
Cl220	Cl	0.631654	-0.243399	-0.243693
Cl221	Cl	0.964987	0.089934	0.089641
Cl222	Cl	1.298320	0.423267	0.422974
H223	H	0.527051	-0.391202	-0.232824
H224	H	0.860384	-0.057868	0.100510
H225	H	1.193718	0.275465	0.433843
Cl226	Cl	0.631505	-0.514087	-0.315670
Cl227	Cl	0.964838	-0.180754	0.017664
Cl228	Cl	1.298171	0.152579	0.350997
H229	H	0.527360	-0.449673	-0.449347
H230	H	0.860693	-0.116340	-0.116014
H231	H	1.194026	0.216993	0.217320
