data_functionalizedCrystal
_audit_creation_method	'MofGen! by Chris Wilmer'
_symmetry_space_group_name_H-M	'P1'
_symmetry_Int_Tables_number	1
_symmetry_cell_setting	triclinic
loop_
_symmetry_equiv_pos_as_xyz
  x,y,z
_cell_length_a	12.594517
_cell_length_b	18.050589
_cell_length_c	12.594517
_cell_angle_alpha	89.983934
_cell_angle_beta	90.010336
_cell_angle_gamma	89.964653
loop_
_atom_site_label
_atom_site_type_symbol
_atom_site_fract_x
_atom_site_fract_y
_atom_site_fract_z
Zn1	Zn	1.626995	0.295753	0.601869
Zn2	Zn	1.960329	0.629086	0.935203
Zn3	Zn	2.293662	0.962420	1.268536
Zn4	Zn	1.626861	0.419926	0.423884
Zn5	Zn	1.960195	0.753259	0.757218
Zn6	Zn	2.293528	1.086592	1.090551
Zn7	Zn	1.449036	0.295753	0.423895
Zn8	Zn	1.782369	0.629086	0.757229
Zn9	Zn	2.115703	0.962420	1.090562
Zn10	Zn	1.448920	0.419904	0.601811
Zn11	Zn	1.782253	0.753238	0.935145
Zn12	Zn	2.115586	1.086571	1.268478
O13	O	1.537953	0.357834	0.512865
O14	O	1.871286	0.691167	0.846198
O15	O	2.204620	1.024501	1.179532
O16	O	1.775923	0.312234	0.578279
O17	O	2.109257	0.645567	0.911612
O18	O	2.442590	0.978900	1.244945
O19	O	1.603265	0.403463	0.274940
O20	O	1.936598	0.736796	0.608273
O21	O	2.269932	1.070130	0.941607
O22	O	1.472747	0.191828	0.447533
O23	O	1.806081	0.525162	0.780866
O24	O	2.139414	0.858495	1.114200
O25	O	1.775825	0.403463	0.447514
O26	O	2.109158	0.736796	0.780847
O27	O	2.442491	1.070130	1.114181
O28	O	1.603493	0.191828	0.578290
O29	O	1.936827	0.525162	0.911623
O30	O	2.270160	0.858495	1.244956
O31	O	1.472618	0.312234	0.274948
O32	O	1.805951	0.645567	0.608282
O33	O	2.139284	0.978900	0.941615
O34	O	1.300075	0.312213	0.447477
O35	O	1.633408	0.645546	0.780810
O36	O	1.966741	0.978880	1.114144
O37	O	1.472549	0.403426	0.750765
O38	O	1.805882	0.736760	1.084098
O39	O	2.139216	1.070093	1.417432
O40	O	1.299989	0.403426	0.578191
O41	O	1.633323	0.736760	0.911524
O42	O	1.966656	1.070093	1.244858
O43	O	1.603380	0.312213	0.750807
O44	O	1.936714	0.645546	1.084141
O45	O	2.270047	0.978879	1.417474
O46	O	1.603152	0.523848	0.447458
O47	O	1.936486	0.857181	0.780791
O48	O	2.269819	1.190514	1.114125
O49	O	1.472419	0.523832	0.578180
O50	O	1.805753	0.857165	0.911514
O51	O	2.139086	1.190498	1.244847
C52	C	1.261412	0.357818	0.512830
C53	C	1.594745	0.691151	0.846163
C54	C	1.928079	1.024485	1.179496
C55	C	1.143107	0.357829	0.512840
C56	C	1.476440	0.691162	0.846173
C57	C	1.809773	1.024495	1.179506
C58	C	1.003106	0.308163	0.441907
C59	C	1.336439	0.641497	0.775240
C60	C	1.669772	0.974830	1.108573
C61	C	1.073953	0.290086	0.539034
C62	C	1.407286	0.623419	0.872367
C63	C	1.740620	0.956752	1.205700
C64	C	1.073831	0.375873	0.415723
C65	C	1.407164	0.709206	0.749056
C66	C	1.740497	1.042540	1.082390
C67	C	1.003169	0.339745	0.610096
C68	C	1.336502	0.673079	0.943429
C69	C	1.669835	1.006412	1.276762
C70	C	1.003040	0.425564	0.486720
C71	C	1.336373	0.758898	0.820053
C72	C	1.669707	1.092231	1.153386
C73	C	1.073856	0.407512	0.583914
C74	C	1.407189	0.740846	0.917247
C75	C	1.740522	1.074179	1.250580
C76	C	1.537787	0.550786	0.512835
C77	C	1.871121	0.884119	0.846168
C78	C	2.204454	1.217453	1.179501
C79	C	1.537814	0.633332	0.512857
C80	C	1.871147	0.966665	0.846191
C81	C	2.204481	1.299999	1.179524
C82	C	1.466794	0.882176	0.583947
C83	C	1.800127	1.215509	0.917280
C84	C	2.133460	1.548843	1.250613
C85	C	1.563851	0.832709	0.610067
C86	C	1.897184	1.166043	0.943401
C87	C	2.230517	1.499376	1.276734
C88	C	1.537988	0.930452	0.512919
C89	C	1.871321	1.263786	0.846252
C90	C	2.204654	1.597119	1.179586
C91	C	1.440850	0.832837	0.486818
C92	C	1.774184	1.166170	0.820151
C93	C	2.107517	1.499504	1.153485
C94	C	1.537897	0.784467	0.512891
C95	C	1.871231	1.117801	0.846225
C96	C	2.204564	1.451134	1.179558
C97	C	1.635097	0.882073	0.539090
C98	C	1.968430	1.215406	0.872424
C99	C	2.301763	1.548740	1.205757
C100	C	1.512031	0.882205	0.415796
C101	C	1.845364	1.215538	0.749129
C102	C	2.178698	1.548872	1.082462
C103	C	1.609155	0.832761	0.441880
C104	C	1.942488	1.166094	0.775213
C105	C	2.275822	1.499427	1.108546
C106	C	1.538038	1.014551	0.512938
C107	C	1.871372	1.347884	0.846271
C108	C	2.204705	1.681217	1.179604
C109	C	1.537857	0.700371	0.512873
C110	C	1.871191	1.033704	0.846206
C111	C	2.204524	1.367037	1.179539
C112	C	1.815574	0.357851	0.512902
C113	C	2.148907	0.691184	0.846235
C114	C	2.482240	1.024517	1.179568
C115	C	1.933879	0.357858	0.512917
C116	C	2.267213	0.691191	0.846250
C117	C	2.600546	1.024524	1.179584
C118	C	1.537967	0.357817	0.790486
C119	C	1.871300	0.691150	1.123819
C120	C	2.204633	1.024484	1.457153
C121	C	1.537973	0.357810	0.908791
C122	C	1.871306	0.691143	1.242125
C123	C	2.204639	1.024477	1.575458
C124	C	1.538108	1.164128	0.512921
C125	C	1.871442	1.497462	0.846254
C126	C	2.204775	1.830795	1.179588
C127	C	1.538073	1.081583	0.512950
C128	C	1.871406	1.414916	0.846283
C129	C	2.204739	1.748249	1.179617
C130	C	1.609124	0.308218	1.048831
C131	C	1.942458	0.641551	1.382165
C132	C	2.275791	0.974885	1.715498
C133	C	1.635095	0.375966	0.978007
C134	C	1.968428	0.709299	1.311341
C135	C	2.301761	1.042632	1.644674
C136	C	1.512050	0.290070	0.978044
C137	C	1.845383	0.623403	1.311377
C138	C	2.178716	0.956737	1.644710
C139	C	1.563989	0.425622	1.048753
C140	C	1.897322	0.758955	1.382086
C141	C	2.230655	1.092288	1.715420
C142	C	1.440899	0.339680	1.048796
C143	C	1.774232	0.673014	1.382129
C144	C	2.107565	1.006347	1.715462
C145	C	1.466832	0.407475	0.978004
C146	C	1.800165	0.740808	1.311337
C147	C	2.133499	1.074141	1.644670
C148	C	1.537942	0.357858	1.236324
C149	C	1.871275	0.691192	1.569658
C150	C	2.204609	1.024525	1.902991
C151	C	1.537968	0.357838	1.118019
C152	C	1.871301	0.691172	1.451352
C153	C	2.204635	1.024505	1.784685
H154	H	1.104873	0.391122	0.333560
H155	H	1.438206	0.724456	0.666893
H156	H	1.771540	1.057789	1.000227
H157	H	1.585774	0.810970	0.692191
H158	H	1.919107	1.144303	1.025524
H159	H	2.252441	1.477637	1.358858
H160	H	1.490127	0.232771	0.946980
H161	H	1.823461	0.566104	1.280313
H162	H	2.156794	0.899438	1.613647
H163	H	1.717230	0.903612	0.561250
H164	H	2.050563	1.236945	0.894583
H165	H	2.383897	1.570279	1.227917
H166	H	1.669392	0.811202	0.381802
H167	H	2.002725	1.144535	0.715135
H168	H	2.336059	1.477868	1.048469
H169	H	0.972043	0.266119	0.381963
H170	H	1.305376	0.599452	0.715296
H171	H	1.638710	0.932786	1.048629
H172	H	1.717186	0.391315	0.946910
H173	H	2.050519	0.724649	1.280243
H174	H	2.383853	1.057982	1.613577
H175	H	0.971870	0.482818	0.464560
H176	H	1.305203	0.816151	0.797893
H177	H	1.638537	1.149485	1.131226
H178	H	1.406700	0.903870	0.644070
H179	H	1.740033	1.237204	0.977403
H180	H	2.073366	1.570537	1.310737
H181	H	1.490079	0.903961	0.333696
H182	H	1.823412	1.237294	0.667029
H183	H	2.156746	1.570628	1.000363
H184	H	0.972258	0.324429	0.692283
H185	H	1.305591	0.657762	1.025616
H186	H	1.638925	0.991096	1.358949
H187	H	1.358741	0.811206	0.464754
H188	H	1.692074	1.144539	0.798088
H189	H	2.025407	1.477872	1.131421
H190	H	1.105082	0.232813	0.561178
H191	H	1.438415	0.566146	0.894511
H192	H	1.771748	0.899479	1.227845
H193	H	1.669343	0.266320	1.079928
H194	H	2.002676	0.599654	1.413262
H195	H	2.336010	0.932987	1.746595
H196	H	1.586031	0.482933	1.079684
H197	H	1.919364	0.816266	1.413017
H198	H	2.252697	1.149599	1.746350
H199	H	1.406659	0.449473	0.947102
H200	H	1.739993	0.782806	1.280436
H201	H	2.073326	1.116140	1.613769
H202	H	1.104723	0.449525	0.644001
H203	H	1.438057	0.782859	0.977334
H204	H	1.771390	1.116192	1.310668
H205	H	1.358831	0.324309	1.079915
H206	H	1.692164	0.657642	1.413248
H207	H	2.025498	0.990976	1.746581
