data_functionalizedCrystal
_audit_creation_method	'MofGen! by Chris Wilmer'
_symmetry_space_group_name_H-M	'P1'
_symmetry_Int_Tables_number	1
_symmetry_cell_setting	triclinic
loop_
_symmetry_equiv_pos_as_xyz
  x,y,z
_cell_length_a	8.497374
_cell_length_b	8.497374
_cell_length_c	21.295418
_cell_angle_alpha	89.983088
_cell_angle_beta	90.023166
_cell_angle_gamma	90.004389
loop_
_atom_site_label
_atom_site_type_symbol
_atom_site_fract_x
_atom_site_fract_y
_atom_site_fract_z
Zn1	Zn	0.892992	0.627650	0.962356
Zn2	Zn	0.629257	0.891400	0.962351
Zn3	Zn	0.629122	0.627701	0.857117
Zn4	Zn	0.892892	0.891455	0.857103
O5	O	0.761066	0.759552	0.909732
O6	O	0.858105	0.662593	1.050445
O7	O	0.408477	0.856418	0.948395
O8	O	0.664110	0.406932	0.871086
O9	O	0.664340	0.856369	1.050441
O10	O	0.857974	0.406895	0.948405
O11	O	0.408378	0.662679	0.871080
O12	O	0.664013	0.662732	0.769026
O13	O	1.113667	0.856463	0.871062
O14	O	0.857804	0.856512	0.769016
O15	O	1.113741	0.662647	0.948391
O16	O	0.664244	1.112170	0.948381
O17	O	0.857935	1.112210	0.871056
C18	C	0.760884	0.759635	0.746180
C19	C	0.760844	0.759708	0.676212
C20	C	1.351186	0.759577	0.909736
C21	C	1.172542	0.759570	0.909729
C22	C	0.761088	1.169431	0.909724
C23	C	0.761063	1.348075	0.909741
C24	C	0.861600	0.860742	0.643357
C25	C	0.861671	0.860704	0.577614
C26	C	0.760957	0.759647	0.544730
C27	C	0.660194	0.658593	0.577593
C28	C	0.660138	0.658623	0.643334
N29	N	0.622972	0.747287	0.441471
N30	N	0.623030	0.747267	0.379019
C31	C	0.761125	0.759546	0.346655
N32	N	0.899161	0.771877	0.379101
N33	N	0.899101	0.771905	0.441558
C34	C	0.761008	0.759602	0.473444
C35	C	0.861966	0.860544	0.242514
C36	C	0.862039	0.860494	0.176770
C37	C	0.660549	0.658392	0.176751
C38	C	0.660490	0.658433	0.242493
C39	C	0.761196	0.759518	0.275371
C40	C	0.761249	0.759469	1.073922
C41	C	0.761327	0.759434	1.143890
H42	H	0.943605	0.943051	0.670121
H43	H	0.578196	0.576309	0.550815
F44	F	0.969292	0.968026	0.141803
F45	F	0.968914	0.968242	0.542639
H46	H	0.578435	0.576168	0.269244
F47	F	0.553369	0.550830	0.141757
H48	H	0.578090	0.576344	0.670085
H49	H	0.943975	0.942845	0.269284
