data_functionalizedCrystal
_audit_creation_method	'MofGen! by Chris Wilmer'
_symmetry_space_group_name_H-M	'P1'
_symmetry_Int_Tables_number	1
_symmetry_cell_setting	triclinic
loop_
_symmetry_equiv_pos_as_xyz
  x,y,z
_cell_length_a	10.654550
_cell_length_b	19.188930
_cell_length_c	9.130313
_cell_angle_alpha	89.993647
_cell_angle_beta	89.996220
_cell_angle_gamma	83.814841
loop_
_atom_site_label
_atom_site_type_symbol
_atom_site_fract_x
_atom_site_fract_y
_atom_site_fract_z
O1	O	1.665759	0.098059	-0.121938
O2	O	1.300083	0.107401	-0.121916
O3	O	1.493474	0.001143	-0.121899
O4	O	1.472368	0.204317	-0.121955
O5	O	1.493471	0.001146	0.121700
O6	O	1.300081	0.107404	0.121682
O7	O	1.665757	0.098062	0.121661
Cu8	Cu	1.482918	0.102733	0.143914
Cu9	Cu	1.482921	0.102730	-0.144170
O10	O	1.472366	0.204320	0.121644
C11	C	1.253298	0.106717	-0.000114
C12	C	1.113898	0.104664	-0.000104
C13	C	1.033089	0.167227	-0.000143
C14	C	0.902109	0.165295	-0.000168
C15	C	0.932761	0.038231	-0.000121
C16	C	1.063738	0.040164	-0.000086
C17	C	1.015391	0.240587	-0.000176
C18	C	0.884411	0.238654	-0.000201
C19	C	1.492789	-0.024871	-0.000096
C20	C	1.490737	-0.102389	-0.000083
C21	C	1.604213	-0.146570	-0.000083
C22	C	1.602285	-0.219407	-0.000106
C23	C	1.486876	-0.248058	-0.000100
C24	C	1.373386	-0.203867	-0.000109
C25	C	1.375316	-0.131032	-0.000100
N26	N	1.398658	-0.356639	0.082806
N27	N	1.396832	-0.425830	0.082801
C28	C	1.481052	-0.467505	-0.000129
N29	N	1.567186	-0.437377	-0.083037
N30	N	1.569016	-0.368180	-0.083025
C31	C	1.484770	-0.327034	-0.000110
C32	C	1.592445	-0.590665	-0.000157
C33	C	1.590513	-0.663502	-0.000189
C34	C	1.361610	-0.647960	-0.000177
C35	C	1.363545	-0.575125	-0.000159
C36	C	1.478966	-0.546481	-0.000142
C37	C	1.712541	0.098746	-0.000145
C38	C	1.851941	0.100798	-0.000164
C39	C	1.473051	0.230334	-0.000163
C40	C	1.475102	0.307852	-0.000186
N41	N	1.482926	0.102735	0.346537
N42	N	1.482924	0.102722	-0.346792
C43	C	1.568581	0.055700	0.423196
C44	C	1.568577	0.055692	0.576533
C45	C	1.397260	0.149759	0.576537
C46	C	1.397258	0.149764	0.423203
C47	C	1.667493	0.001393	0.423195
C48	C	1.667490	0.001385	0.576532
H49	H	1.050553	0.263945	-0.105354
C50	C	1.304315	0.200931	0.659589
C51	C	1.324266	0.269647	0.622260
C52	C	1.238656	0.316806	0.698718
H53	H	1.316486	0.194289	0.761912
H54	H	1.220529	0.192954	0.634428
H55	H	1.408033	0.277621	0.647431
H56	H	1.312085	0.276311	0.519950
H57	H	1.154869	0.308829	0.673557
H58	H	1.250834	0.310158	0.801038
H59	H	1.252173	0.363435	0.673392
H60	H	1.698197	-0.123254	-0.000074
H61	H	1.694693	-0.255386	-0.000112
H62	H	1.282908	-0.095058	-0.000100
C63	C	0.822850	0.268068	0.140122
C64	C	0.761476	0.216153	0.209410
C65	C	0.704771	0.243213	0.338692
H66	H	0.763176	0.306984	0.117485
H67	H	0.885702	0.282712	0.203473
H68	H	0.698631	0.201519	0.146072
H69	H	0.821122	0.177233	0.232083
H70	H	0.767623	0.257857	0.402043
H71	H	0.645103	0.282129	0.316041
H72	H	0.663133	0.207991	0.385727
C73	C	1.640328	-0.070192	0.367993
C74	C	1.623714	-0.113986	0.487521
C75	C	1.598671	-0.179929	0.436726
H76	H	1.709191	-0.090120	0.310223
H77	H	1.565726	-0.065289	0.310242
H78	H	1.698308	-0.118891	0.545248
H79	H	1.554849	-0.094080	0.545303
H80	H	1.524069	-0.175026	0.378975
H81	H	1.667537	-0.199851	0.378956
H82	H	1.587384	-0.209649	0.517817
C83	C	1.788712	0.024046	0.360033
C84	C	1.869014	0.039055	0.474491
C85	C	1.980696	0.059917	0.416361
H86	H	1.769506	0.064721	0.301491
H87	H	1.829220	-0.012670	0.301518
H88	H	1.828513	0.075767	0.532982
H89	H	1.888255	-0.001611	0.533043
H90	H	2.021205	0.023202	0.357846
H91	H	1.961477	0.100591	0.357820
H92	H	2.035199	0.070098	0.494011
C93	C	1.717882	-0.559695	-0.000243
C94	C	1.816850	-0.613982	-0.000307
C95	C	1.932419	-0.585481	-0.000413
H96	H	1.723581	-0.531622	0.084685
H97	H	1.723452	-0.531617	-0.085223
H98	H	1.811283	-0.642047	0.084664
H99	H	1.811193	-0.642059	-0.085228
H100	H	1.937990	-0.557404	-0.085393
H101	H	1.938105	-0.557409	0.084516
H102	H	1.999583	-0.622310	-0.000470
H103	H	1.279418	-0.227199	-0.000107
H104	H	1.638050	-0.049327	0.624095
C105	C	1.240243	-0.527235	-0.000367
C106	C	1.170712	-0.540266	-0.125672
C107	C	1.057106	-0.496171	-0.125908
H108	H	1.257740	-0.479731	-0.000437
H109	H	1.192834	-0.535997	0.084539
H110	H	1.218110	-0.531498	-0.210556
H111	H	1.153181	-0.587762	-0.125629
H112	H	1.009697	-0.504933	-0.041002
H113	H	1.074615	-0.448669	-0.125974
H114	H	1.009910	-0.505011	-0.210918
H115	H	1.129530	-0.010781	-0.000034
H116	H	0.891904	-0.014283	-0.000129
H117	H	1.327501	0.188057	0.360788
H118	H	1.044114	0.269279	0.101768
H119	H	0.842095	0.266294	-0.102162
H120	H	1.682922	-0.699475	-0.000197
H121	H	1.267641	-0.671287	-0.000180
H122	H	1.763748	0.013347	0.618139
