data_functionalizedCrystal
_audit_creation_method	'MofGen! by Chris Wilmer'
_symmetry_space_group_name_H-M	'P1'
_symmetry_Int_Tables_number	1
_symmetry_cell_setting	triclinic
loop_
_symmetry_equiv_pos_as_xyz
  x,y,z
_cell_length_a	18.050591
_cell_length_b	13.897448
_cell_length_c	13.897441
_cell_angle_alpha	90.030599
_cell_angle_beta	90.027901
_cell_angle_gamma	90.013698
loop_
_atom_site_label
_atom_site_type_symbol
_atom_site_fract_x
_atom_site_fract_y
_atom_site_fract_z
Zn1	Zn	1.135398	-0.384087	0.545566
Zn2	Zn	1.135316	-0.545409	0.384267
Zn3	Zn	1.011202	-0.384118	0.384264
Zn4	Zn	1.011188	-0.545330	0.545499
O5	O	1.073276	-0.464736	0.464899
O6	O	1.239312	-0.405506	0.524198
O7	O	1.118824	-0.524059	0.249285
O8	O	1.027717	-0.249132	0.405687
O9	O	1.239252	-0.524029	0.405693
O10	O	1.118963	-0.249109	0.524195
O11	O	1.027638	-0.405559	0.249282
O12	O	0.907276	-0.405483	0.405623
O13	O	1.027693	-0.523895	0.680490
O14	O	0.907265	-0.523925	0.524082
O15	O	1.118950	-0.405430	0.680539
O16	O	1.118810	-0.680380	0.405628
O17	O	1.027614	-0.680322	0.524085
C18	C	0.880324	-0.464700	0.464846
C19	C	0.797778	-0.464708	0.464846
C20	C	1.073222	-0.715350	0.464871
C21	C	1.073267	-0.822564	0.464891
C22	C	1.073345	-1.018859	0.464952
C23	C	1.073299	-0.909627	0.464921
C24	C	0.598312	-0.400224	0.400576
C25	C	0.548902	-0.488207	0.376841
C26	C	0.646648	-0.464737	0.464889
C27	C	0.548976	-0.376785	0.488622
C28	C	0.500663	-0.464758	0.464930
C29	C	0.598326	-0.552766	0.441108
C30	C	0.598403	-0.441285	0.552930
C31	C	0.549016	-0.529328	0.529228
C32	C	0.730746	-0.464724	0.464864
C33	C	0.416566	-0.464781	0.464955
C34	C	1.266982	-0.464773	0.464953
C35	C	1.349528	-0.464788	0.464976
C36	C	1.073329	-0.464651	0.716492
C37	C	1.073351	-0.464614	0.823706
C38	C	1.073351	-0.213143	0.464948
C39	C	1.073383	-0.105929	0.464969
C40	C	1.073266	-0.464751	0.214285
C41	C	1.073388	-0.464516	0.107071
C42	C	1.073371	-0.464549	1.020001
C43	C	1.073358	-0.464588	0.910769
H44	H	0.527160	-0.508058	0.302403
H45	H	0.619957	-0.345727	0.346129
C46	C	0.627572	-0.414845	0.652097
C47	C	0.705127	-0.416075	0.650946
C48	C	0.732025	-0.391722	0.742282
H49	H	0.610786	-0.352295	0.668948
H50	H	0.610004	-0.460057	0.697986
H51	H	0.722688	-0.370865	0.605071
H52	H	0.721933	-0.478617	0.634112
H53	H	0.714457	-0.436934	0.788172
H54	H	0.715234	-0.329173	0.759126
H55	H	0.784648	-0.392562	0.741516
H56	H	0.527508	-0.583956	0.583633
H57	H	0.527259	-0.302407	0.508645
H58	H	0.619913	-0.627176	0.420969
