data_functionalizedCrystal
_audit_creation_method	'MofGen! by Chris Wilmer'
_symmetry_space_group_name_H-M	'P1'
_symmetry_Int_Tables_number	1
_symmetry_cell_setting	triclinic
loop_
_symmetry_equiv_pos_as_xyz
  x,y,z
_cell_length_a	8.559649
_cell_length_b	14.044220
_cell_length_c	7.681481
_cell_angle_alpha	83.732834
_cell_angle_beta	94.913240
_cell_angle_gamma	81.483771
loop_
_atom_site_label
_atom_site_type_symbol
_atom_site_fract_x
_atom_site_fract_y
_atom_site_fract_z
O1	O	2.101908	-0.021858	-0.146399
O2	O	1.643608	0.026593	-0.146411
O3	O	1.865881	-0.135117	-0.146388
O4	O	1.879635	0.139853	-0.146422
O5	O	1.893233	-0.155061	0.146473
O6	O	1.670961	0.006649	0.146449
O7	O	2.129260	-0.041802	0.146461
Zn8	Zn	1.904453	-0.020743	0.192953
Zn9	Zn	1.868415	0.005534	-0.192903
O10	O	1.906988	0.119909	0.146438
C11	C	1.598278	0.020293	0.000018
C12	C	1.422455	0.031222	0.000014
C13	C	1.873534	-0.179966	0.000043
C14	C	1.855571	-0.283884	0.000045
C15	C	1.822727	-0.474153	0.000018
C16	C	1.950133	-0.541060	0.000016
C17	C	1.931858	-0.646933	0.000002
C18	C	1.840999	-0.368270	0.000033
C19	C	2.174590	-0.035501	0.000029
C20	C	2.350412	-0.046430	0.000021
C21	C	1.899334	0.164757	0.000003
C22	C	1.917296	0.268676	-0.000010
N23	N	1.929059	-0.038678	0.456290
N24	N	1.843820	0.023461	-0.456240
H25	H	1.349615	0.106070	-0.000005
O26	O	1.740188	0.099238	0.454132
C27	C	1.783484	0.187160	0.499072
H28	H	1.914880	0.174910	0.549846
H29	H	1.760855	0.243757	0.377746
H30	H	1.709730	0.213910	0.605958
H31	H	2.072922	-0.518821	-0.000099
O32	O	2.032998	-0.114378	0.545734
C33	C	2.108528	-0.169483	0.425019
H34	H	2.103691	-0.122282	0.293550
H35	H	2.237706	-0.196659	0.478402
H36	H	2.045265	-0.234067	0.405493
O37	O	1.437531	-0.135655	0.000110
C38	C	1.599571	-0.127070	0.000065
H39	H	1.621424	-0.057592	0.055501
H40	H	1.674670	-0.192181	0.085096
H41	H	1.633649	-0.124496	-0.140435
O42	O	1.676110	-0.500495	-0.000060
C43	C	1.561234	-0.417442	-0.000002
H44	H	1.609664	-0.350343	-0.055443
H45	H	1.448827	-0.424811	-0.085023
H46	H	1.532317	-0.410012	0.140502
