data_functionalizedCrystal
_audit_creation_method	'MofGen! by Chris Wilmer'
_symmetry_space_group_name_H-M	'P1'
_symmetry_Int_Tables_number	1
_symmetry_cell_setting	triclinic
loop_
_symmetry_equiv_pos_as_xyz
  x,y,z
_cell_length_a	16.992694
_cell_length_b	10.654550
_cell_length_c	9.730223
_cell_angle_alpha	90.001755
_cell_angle_beta	90.002517
_cell_angle_gamma	87.576563
loop_
_atom_site_label
_atom_site_type_symbol
_atom_site_fract_x
_atom_site_fract_y
_atom_site_fract_z
O1	O	-1.041839	-0.266422	0.114112
O2	O	-0.813538	-0.263499	0.114153
O3	O	-0.932937	-0.082675	0.114126
O4	O	-0.922439	-0.447246	0.114138
O5	O	-0.932929	-0.082687	-0.114454
O6	O	-0.813530	-0.263511	-0.114427
O7	O	-1.041831	-0.266434	-0.114468
Zn8	Zn	-0.927679	-0.264975	-0.150740
Zn9	Zn	-0.927690	-0.264959	0.150424
O10	O	-0.922431	-0.447258	-0.114442
C11	C	-0.932163	-0.035816	-0.000162
C12	C	-0.929856	0.103826	-0.000157
C13	C	-0.784301	-0.259745	-0.000132
C14	C	-0.697196	-0.248526	-0.000117
C15	C	-1.071068	-0.270188	-0.000180
C16	C	-1.158173	-0.281408	-0.000187
C17	C	-0.647544	-0.356776	-0.000114
C18	C	-0.565700	-0.346227	-0.000134
C19	C	-0.533509	-0.227426	-0.000146
C20	C	-0.583167	-0.119167	-0.000152
C21	C	-0.665010	-0.129718	-0.000143
C22	C	-0.289674	-0.183699	-0.000184
C23	C	-0.207825	-0.173157	-0.000189
C24	C	-0.190363	-0.400218	-0.000173
C25	C	-0.272208	-0.410758	-0.000155
C26	C	-0.321859	-0.302499	-0.000169
N27	N	-0.449852	-0.216640	-0.000161
N28	N	-0.405515	-0.313286	-0.000164
C29	C	-0.923206	-0.494117	-0.000150
C30	C	-0.925512	-0.633759	-0.000147
N31	N	-0.927678	-0.264985	-0.356276
C32	C	-1.000157	0.177237	-0.000173
C33	C	-0.997985	0.308445	-0.000163
C34	C	-0.855206	0.292820	-0.000126
C35	C	-0.857379	0.161614	-0.000126
C36	C	-1.082589	0.186259	-0.000201
C37	C	-1.080418	0.317467	-0.000191
C38	C	-0.879700	-0.183925	-0.572091
C39	C	-0.879692	-0.183945	-0.428208
C40	C	-0.975680	-0.346003	-0.428235
C41	C	-0.975692	-0.345976	-0.572115
C42	C	-0.824279	-0.090366	-0.572074
C43	C	-0.824271	-0.090385	-0.428191
N44	N	-0.927697	-0.264938	0.355961
H45	H	-0.525276	-0.434377	-0.000130
H46	H	-0.298411	-0.507498	-0.000130
H47	H	-1.105333	0.360963	0.098499
H48	H	-0.762396	-0.115934	-0.389157
O49	O	-0.173104	-0.045013	-0.000224
H50	H	-0.136235	-0.034757	0.092942
H51	H	-0.149929	-0.488356	-0.000165
H52	H	-0.800133	0.101848	-0.000093
H53	H	-0.330090	-0.095546	-0.000196
O54	O	-0.746027	-0.135874	-0.631230
H55	H	-0.749270	-0.133983	-0.745147
H56	H	-0.556951	-0.022437	-0.000182
H57	H	-0.673746	-0.453517	-0.000103
O58	O	-1.117362	0.136054	-0.130936
H59	H	-1.073139	0.072582	-0.182620
H60	H	-0.843599	0.007013	-0.611092
O61	O	-0.777040	0.355160	-0.000110
H62	H	-0.743230	0.326242	0.093067
O63	O	-0.718569	-0.012964	-0.000141
H64	H	-0.682437	0.071420	-0.000139
O65	O	-1.027469	-0.433339	-0.649724
H66	H	-1.010944	-0.532049	-0.622149
O67	O	-0.856961	0.032042	-0.369025
H68	H	-0.874296	0.096969	-0.454015
O69	O	-1.125290	0.143666	0.126498
H70	H	-1.144466	0.226868	0.188536
H71	H	-1.111474	0.356538	-0.095855
H72	H	-1.014756	-0.411980	-0.369656
