data_functionalizedCrystal
_audit_creation_method	'MofGen! by Chris Wilmer'
_symmetry_space_group_name_H-M	'P1'
_symmetry_Int_Tables_number	1
_symmetry_cell_setting	triclinic
loop_
_symmetry_equiv_pos_as_xyz
  x,y,z
_cell_length_a	16.120490
_cell_length_b	18.215404
_cell_length_c	18.215399
_cell_angle_alpha	89.972485
_cell_angle_beta	92.915256
_cell_angle_gamma	92.883826
loop_
_atom_site_label
_atom_site_type_symbol
_atom_site_fract_x
_atom_site_fract_y
_atom_site_fract_z
Zn1	Zn	1.274549	0.350181	0.473068
Zn2	Zn	1.607883	0.683515	0.806402
Zn3	Zn	1.941216	1.016848	1.139735
Zn4	Zn	1.274448	0.473248	0.349998
Zn5	Zn	1.607781	0.806581	0.683332
Zn6	Zn	1.941115	1.139915	1.016665
Zn7	Zn	1.135132	0.343949	0.343786
Zn8	Zn	1.468465	0.677282	0.677119
Zn9	Zn	1.801798	1.010615	1.010453
Zn10	Zn	1.135096	0.466953	0.466797
Zn11	Zn	1.468429	0.800287	0.800130
Zn12	Zn	1.801762	1.133620	1.133463
O13	O	1.204806	0.408583	0.408412
O14	O	1.538139	0.741916	0.741746
O15	O	1.871473	1.075250	1.075079
O16	O	1.391202	0.371749	0.461967
O17	O	1.724535	0.705083	0.795301
O18	O	2.057869	1.038416	1.128634
O19	O	1.255940	0.456122	0.246189
O20	O	1.589274	0.789456	0.579522
O21	O	1.922607	1.122789	0.912855
O22	O	1.153683	0.241794	0.360960
O23	O	1.487017	0.575127	0.694294
O24	O	1.820350	0.908461	1.027627
O25	O	1.391128	0.462166	0.371548
O26	O	1.724461	0.795499	0.704882
O27	O	2.057794	1.128832	1.038215
O28	O	1.256113	0.246373	0.455944
O29	O	1.589446	0.579706	0.789277
O30	O	1.922779	0.913040	1.122610
O31	O	1.153585	0.361127	0.241625
O32	O	1.486918	0.694460	0.574958
O33	O	1.820252	1.027793	0.908291
O34	O	1.018461	0.355023	0.354879
O35	O	1.351794	0.688356	0.688212
O36	O	1.685127	1.021690	1.021546
O37	O	1.153622	0.451437	0.570614
O38	O	1.486955	0.784771	0.903947
O39	O	1.820288	1.118104	1.237281
O40	O	1.018434	0.445394	0.445255
O41	O	1.351768	0.778727	0.778588
O42	O	1.685101	1.112060	1.111921
O43	O	1.256078	0.365645	0.575222
O44	O	1.589411	0.698979	0.908555
O45	O	1.922744	1.032312	1.241889
O46	O	1.255905	0.575395	0.365467
O47	O	1.589239	0.908728	0.698800
O48	O	1.922572	1.242061	1.032134
O49	O	1.153524	0.570770	0.451278
O50	O	1.486857	0.904103	0.784612
O51	O	1.820190	1.237437	1.117945
C52	C	1.204722	0.599785	0.408383
C53	C	1.538055	0.933119	0.741717
C54	C	1.871389	1.266452	1.075050
C55	C	1.204762	0.681586	0.408399
C56	C	1.538096	1.014919	0.741732
C57	C	1.871429	1.348253	1.075066
C58	C	0.988197	0.398849	0.398713
C59	C	1.321531	0.732183	0.732046
C60	C	1.654864	1.065516	1.065379
C61	C	0.895531	0.394703	0.394580
C62	C	1.228864	0.728037	0.727914
C63	C	1.562198	1.061370	1.061247
C64	C	1.258202	0.872169	0.363819
C65	C	1.591535	1.205503	0.697153
C66	C	1.924868	1.538836	1.030486
C67	C	1.258241	0.949030	0.363843
C68	C	1.591574	1.282363	0.697176
C69	C	1.924907	1.615697	1.030510
C70	C	1.151538	0.944250	0.453117
C71	C	1.484872	1.277583	0.786450
C72	C	1.818205	1.610917	1.119784
C73	C	1.151504	0.867391	0.453097
C74	C	1.484838	1.200725	0.786430
C75	C	1.818171	1.534058	1.119763
C76	C	1.204835	0.831353	0.408444
C77	C	1.538168	1.164686	0.741777
C78	C	1.871501	1.498019	1.075110
C79	C	1.204908	0.985072	0.408488
C80	C	1.538241	1.318405	0.741821
C81	C	1.871574	1.651739	1.075154
C82	C	1.204949	1.068408	0.408513
C83	C	1.538283	1.401741	0.741847
C84	C	1.871616	1.735074	1.075180
C85	C	1.204794	0.748012	0.408419
C86	C	1.538128	1.081345	0.741752
C87	C	1.871461	1.414679	1.075085
C88	C	0.684589	0.430085	0.429848
C89	C	1.017923	0.763418	0.763181
C90	C	1.351256	1.096751	1.096514
C91	C	0.725874	0.387140	0.387035
C92	C	1.059207	0.720473	0.720369
C93	C	1.392541	1.053807	1.053702
C94	C	0.820280	0.391349	0.391235
C95	C	1.153613	0.724683	0.724568
C96	C	1.486947	1.058016	1.057901
C97	C	0.590175	0.425876	0.425649
C98	C	0.923508	0.759209	0.758983
C99	C	1.256842	1.092543	1.092316
C100	C	1.422261	0.418355	0.418150
C101	C	1.755594	0.751688	0.751484
C102	C	2.088928	1.085022	1.084817
C103	C	1.514927	0.422519	0.422300
C104	C	1.848260	0.755852	0.755634
C105	C	2.181594	1.089186	1.088967
C106	C	1.204857	0.408534	0.600368
C107	C	1.538190	0.741868	0.933701
C108	C	1.871524	1.075201	1.267034
C109	C	1.204879	0.408514	0.682168
C110	C	1.538212	0.741847	1.015501
C111	C	1.871545	1.075180	1.348834
C112	C	1.204919	1.216635	0.408472
C113	C	1.538252	1.549968	0.741806
C114	C	1.871585	1.883302	1.075139
C115	C	1.204980	1.134839	0.408532
C116	C	1.538313	1.468172	0.741866
C117	C	1.871647	1.801506	1.075199
C118	C	1.204804	0.408580	0.217206
C119	C	1.538137	0.741914	0.550539
C120	C	1.871470	1.075247	0.883873
C121	C	1.204943	0.408401	0.135414
C122	C	1.538277	0.741734	0.468747
C123	C	1.871610	1.075067	0.802080
C124	C	1.258247	0.363799	0.872763
C125	C	1.591580	0.697132	1.206096
C126	C	1.924913	1.030465	1.539430
C127	C	1.258257	0.363778	0.949622
C128	C	1.591590	0.697111	1.282955
C129	C	1.924923	1.030444	1.616289
C130	C	1.151570	0.453118	0.944813
C131	C	1.484903	0.786451	1.278146
C132	C	1.818236	1.119784	1.611479
C133	C	1.151556	0.453134	0.867955
C134	C	1.484889	0.786468	1.201288
C135	C	1.818223	1.119801	1.534621
C136	C	1.204899	0.408476	0.831932
C137	C	1.538233	0.741809	1.165265
C138	C	1.871566	1.075143	1.498599
C139	C	1.204923	0.408439	0.985649
C140	C	1.538256	0.741772	1.318983
C141	C	1.871589	1.075105	1.652316
C142	C	1.204933	0.408416	1.068983
C143	C	1.538266	0.741749	1.402317
C144	C	1.871600	1.075083	1.735650
C145	C	1.204888	0.408497	0.748593
C146	C	1.538221	0.741831	1.081926
C147	C	1.871555	1.075164	1.415259
H148	H	1.301628	0.842829	0.327461
H149	H	1.634961	1.176162	0.660795
H150	H	1.968294	1.509496	0.994128
H151	H	1.108141	0.489478	0.974152
H152	H	1.441475	0.822812	1.307485
H153	H	1.774808	1.156145	1.640819
H154	H	1.301699	0.982260	0.327507
H155	H	1.635032	1.315593	0.660840
H156	H	1.968365	1.648926	0.994173
H157	H	1.108108	0.489515	0.834709
H158	H	1.441442	0.822848	1.168042
H159	H	1.774775	1.156182	1.501376
H160	H	1.108117	0.973602	0.489471
H161	H	1.441451	1.306935	0.822804
H162	H	1.774784	1.640269	1.156137
Cl163	Cl	1.084413	0.816075	0.509205
Cl164	Cl	1.417746	1.149408	0.842538
Cl165	Cl	1.751080	1.482742	1.175871
Cl166	Cl	0.739483	0.491735	0.491294
Cl167	Cl	1.072816	0.825068	0.824628
Cl168	Cl	1.406149	1.158401	1.157961
H169	H	0.690318	0.347212	0.347228
H170	H	1.023651	0.680546	0.680562
H171	H	1.356984	1.013879	1.013895
H172	H	1.301680	0.327433	0.843435
H173	H	1.635013	0.660767	1.176769
H174	H	1.968346	0.994100	1.510102
Cl175	Cl	1.325332	0.307616	1.000950
Cl176	Cl	1.658666	0.640950	1.334283
Cl177	Cl	1.991999	0.974283	1.667616
