data_functionalizedCrystal
_audit_creation_method	'MofGen! by Chris Wilmer'
_symmetry_space_group_name_H-M	'P1'
_symmetry_Int_Tables_number	1
_symmetry_cell_setting	triclinic
loop_
_symmetry_equiv_pos_as_xyz
  x,y,z
_cell_length_a	21.395364
_cell_length_b	18.215405
_cell_length_c	21.395355
_cell_angle_alpha	90.015775
_cell_angle_beta	90.024727
_cell_angle_gamma	90.020354
loop_
_atom_site_label
_atom_site_type_symbol
_atom_site_fract_x
_atom_site_fract_y
_atom_site_fract_z
Zn1	Zn	0.957897	-0.293102	0.354276
Zn2	Zn	1.291230	0.040231	0.687610
Zn3	Zn	1.624564	0.373564	1.020943
Zn4	Zn	0.957815	-0.416151	0.249504
Zn5	Zn	1.291149	-0.082817	0.582837
Zn6	Zn	1.624482	0.250516	0.916170
Zn7	Zn	0.853112	-0.293099	0.249513
Zn8	Zn	1.186445	0.040235	0.582846
Zn9	Zn	1.519779	0.373568	0.916179
Zn10	Zn	0.853097	-0.416128	0.354244
Zn11	Zn	1.186430	-0.082795	0.687577
Zn12	Zn	1.519764	0.250539	1.020910
O13	O	0.905480	-0.354620	0.301884
O14	O	1.238814	-0.021287	0.635217
O15	O	1.572147	0.312047	0.968551
O16	O	1.045564	-0.309436	0.340388
O17	O	1.378897	0.023898	0.673721
O18	O	1.712231	0.357231	1.007055
O19	O	0.943898	-0.399835	0.161827
O20	O	1.277232	-0.066502	0.495160
O21	O	1.610565	0.266831	0.828494
O22	O	0.867052	-0.190115	0.263427
O23	O	1.200386	0.143218	0.596760
O24	O	1.533719	0.476552	0.930094
O25	O	1.045504	-0.399839	0.263412
O26	O	1.378837	-0.066505	0.596745
O27	O	1.712171	0.266828	0.930079
O28	O	0.944037	-0.190118	0.340397
O29	O	1.277371	0.143216	0.673730
O30	O	1.610704	0.476549	1.007063
O31	O	0.866973	-0.309430	0.161834
O32	O	1.200306	0.023903	0.495167
O33	O	1.533640	0.357237	0.828500
O34	O	0.765432	-0.309408	0.263396
O35	O	1.098765	0.023925	0.596729
O36	O	1.432099	0.357259	0.930062
O37	O	0.867027	-0.399800	0.441926
O38	O	1.200360	-0.066467	0.775259
O39	O	1.533693	0.266866	1.108593
O40	O	0.765421	-0.399797	0.340341
O41	O	1.098754	-0.066464	0.673674
O42	O	1.432088	0.266870	1.007008
O43	O	0.944023	-0.309414	0.441950
O44	O	1.277356	0.023919	0.775283
O45	O	1.610689	0.357253	1.108617
O46	O	0.943884	-0.519132	0.263380
O47	O	1.277217	-0.185798	0.596714
O48	O	1.610550	0.147535	0.930047
O49	O	0.866948	-0.519115	0.340332
O50	O	1.200281	-0.185782	0.673666
O51	O	1.533614	0.147551	1.006999
C52	C	0.742693	-0.354600	0.301866
C53	C	1.076026	-0.021267	0.635199
C54	C	1.409359	0.312066	0.968533
C55	C	0.673051	-0.354610	0.301873
C56	C	1.006385	-0.021276	0.635206
C57	C	1.339718	0.312057	0.968540
C58	C	0.171266	-0.401772	0.341911
C59	C	0.504599	-0.068438	0.675244
C60	C	0.837933	0.264895	1.008578
C61	C	0.236701	-0.401772	0.341904
C62	C	0.570035	-0.068438	0.675238
C63	C	0.903368	0.264895	1.008571
C64	C	0.269413	-0.354636	0.301904
C65	C	0.602746	-0.021303	0.635237
C66	C	0.936080	0.312031	0.968571
C67	C	0.236684	-0.307510	0.261896
C68	C	0.570017	0.025824	0.595229
C69	C	0.903351	0.359157	0.928563
C70	C	0.171250	-0.307516	0.261899
C71	C	0.504583	0.025817	0.595232
C72	C	0.837916	0.359150	0.928566
C73	C	0.373093	-0.288313	0.297050
C74	C	0.706427	0.045020	0.630383
C75	C	1.039760	0.378353	0.963717
C76	C	0.438526	-0.288306	0.297051
C77	C	0.771860	0.045028	0.630384
C78	C	1.105193	0.378361	0.963718
C79	C	0.471234	-0.354617	0.301890
C80	C	0.804567	-0.021283	0.635224
C81	C	1.137900	0.312050	0.968557
C82	C	0.438500	-0.420937	0.306741
C83	C	0.771834	-0.087604	0.640075
C84	C	1.105167	0.245729	0.973408
C85	C	0.373066	-0.420944	0.306745
C86	C	0.706399	-0.087610	0.640078
C87	C	1.039733	0.245723	0.973411
C88	C	0.340365	-0.354624	0.301896
C89	C	0.673699	-0.021291	0.635229
C90	C	1.007032	0.312043	0.968562
C91	C	0.574908	-0.401744	0.341886
C92	C	0.908241	-0.068410	0.675219
C93	C	1.241574	0.264923	1.008552
C94	C	0.640344	-0.401745	0.341875
C95	C	0.973677	-0.068412	0.675208
C96	C	1.307011	0.264922	1.008541
C97	C	0.640326	-0.307476	0.261869
C98	C	0.973659	0.025857	0.595203
C99	C	1.306992	0.359190	0.928536
C100	C	0.574890	-0.307482	0.261877
C101	C	0.908224	0.025852	0.595210
C102	C	1.241557	0.359185	0.928544
C103	C	0.542185	-0.354614	0.301889
C104	C	0.875518	-0.021281	0.635222
C105	C	1.208852	0.312052	0.968555
C106	C	0.905422	-0.545826	0.301866
C107	C	1.238756	-0.212493	0.635199
C108	C	1.572089	0.120840	0.968532
C109	C	0.905455	-0.627625	0.301879
C110	C	1.238788	-0.294292	0.635212
C111	C	1.572121	0.039042	0.968545
C112	C	0.945578	-0.892626	0.342018
C113	C	1.278912	-0.559293	0.675351
C114	C	1.612245	-0.225960	1.008684
C115	C	0.945557	-0.815768	0.342008
C116	C	1.278891	-0.482434	0.675342
C117	C	1.612224	-0.149101	1.008675
C118	C	0.865462	-0.815872	0.261787
C119	C	1.198796	-0.482539	0.595120
C120	C	1.532129	-0.149206	0.928453
C121	C	0.865487	-0.892730	0.261793
C122	C	1.198820	-0.559396	0.595127
C123	C	1.532154	-0.226063	0.928460
C124	C	0.905544	-0.931105	0.301913
C125	C	1.238877	-0.597771	0.635246
C126	C	1.572211	-0.264438	0.968579
C127	C	0.905498	-0.777389	0.301896
C128	C	1.238832	-0.444055	0.635230
C129	C	1.572165	-0.110722	0.968563
C130	C	0.905475	-0.694055	0.301886
C131	C	1.238809	-0.360722	0.635219
C132	C	1.572142	-0.027388	0.968552
C133	C	0.905568	-1.014444	0.301923
C134	C	1.238901	-0.681110	0.635256
C135	C	1.572235	-0.347777	0.968589
C136	C	1.068903	-0.354640	0.301903
C137	C	1.402237	-0.021307	0.635236
C138	C	1.735570	0.312027	0.968569
C139	C	1.138545	-0.354649	0.301911
C140	C	1.471878	-0.021315	0.635244
C141	C	1.805211	0.312018	0.968577
C142	C	0.905532	-0.354605	0.465307
C143	C	1.238866	-0.021272	0.798641
C144	C	1.572199	0.312062	1.131974
C145	C	0.905554	-0.354599	0.534949
C146	C	1.238888	-0.021265	0.868282
C147	C	1.572221	0.312068	1.201615
C148	C	0.905556	-0.162667	0.301916
C149	C	1.238889	0.170666	0.635250
C150	C	1.572222	0.504000	0.968583
C151	C	0.905588	-0.080868	0.301930
C152	C	1.238921	0.252465	0.635264
C153	C	1.572254	0.585799	0.968597
C154	C	0.905464	-0.354582	0.139097
C155	C	1.238798	-0.021248	0.472430
C156	C	1.572131	0.312085	0.805763
C157	C	0.905564	-0.354381	0.069456
C158	C	1.238897	-0.021047	0.402789
C159	C	1.572230	0.312286	0.736122
C160	C	0.945645	-0.307532	0.567675
C161	C	1.278978	0.025801	0.901009
C162	C	1.612311	0.359134	1.234342
C163	C	0.945644	-0.307501	0.633111
C164	C	1.278977	0.025833	0.966444
C165	C	1.612310	0.359166	1.299777
C166	C	0.905559	-0.354548	0.665817
C167	C	1.238893	-0.021215	0.999150
C168	C	1.572226	0.312118	1.332484
C169	C	0.865461	-0.401618	0.633083
C170	C	1.198795	-0.068285	0.966416
C171	C	1.532128	0.265049	1.299749
C172	C	0.865459	-0.401643	0.567648
C173	C	1.198792	-0.068310	0.900982
C174	C	1.532126	0.265024	1.234315
C175	C	0.900592	-0.420812	0.769485
C176	C	1.233925	-0.087479	1.102819
C177	C	1.567259	0.245854	1.436152
C178	C	0.900599	-0.420789	0.834918
C179	C	1.233932	-0.087455	1.168252
C180	C	1.567265	0.245878	1.501585
C181	C	0.905563	-0.354471	0.867638
C182	C	1.238896	-0.021137	1.200971
C183	C	1.572230	0.312196	1.534305
C184	C	0.910534	-0.288175	0.834917
C185	C	1.243867	0.045159	1.168250
C186	C	1.577201	0.378492	1.501583
C187	C	0.910531	-0.288200	0.769482
C188	C	1.243865	0.045134	1.102816
C189	C	1.577198	0.378467	1.436149
C190	C	0.905557	-0.354526	0.736770
C191	C	1.238890	-0.021193	1.070103
C192	C	1.572224	0.312140	1.403436
C193	C	0.945654	-0.307366	0.971317
C194	C	1.278988	0.025967	1.304650
C195	C	1.612321	0.359300	1.637984
C196	C	0.945649	-0.307333	1.036754
C197	C	1.278983	0.026000	1.370087
C198	C	1.612316	0.359333	1.703420
C199	C	0.865470	-0.401457	1.036724
C200	C	1.198804	-0.068124	1.370058
C201	C	1.532137	0.265210	1.703391
C202	C	0.865472	-0.401483	0.971289
C203	C	1.198805	-0.068150	1.304622
C204	C	1.532139	0.265183	1.637956
C205	C	0.905568	-0.354439	0.938589
C206	C	1.238901	-0.021106	1.271923
C207	C	1.572234	0.312228	1.605256
H208	H	0.346417	-0.474944	0.310693
H209	H	0.679751	-0.141611	0.644026
H210	H	1.013084	0.191723	0.977360
O211	O	0.988747	-0.774269	0.385258
O212	O	1.322080	-0.440936	0.718591
O213	O	1.655414	-0.107602	1.051925
H214	H	0.977981	-0.788999	0.434425
H215	H	1.311314	-0.455665	0.767759
H216	H	1.644647	-0.122332	1.101092
O217	O	0.271965	-0.256677	0.218748
O218	O	0.605299	0.076656	0.552081
O219	O	0.938632	0.409989	0.885414
H220	H	0.238216	-0.223915	0.190927
H221	H	0.571549	0.109418	0.524260
H222	H	0.904883	0.442751	0.857593
O223	O	0.822254	-0.774483	0.218521
O224	O	1.155588	-0.441150	0.551854
O225	O	1.488921	-0.107817	0.885187
H226	H	0.828957	-0.714575	0.225257
H227	H	1.162291	-0.381241	0.558591
H228	H	1.495624	-0.047908	0.891924
H229	H	0.914577	-0.234172	0.861555
H230	H	1.247911	0.099161	1.194889
H231	H	1.581244	0.432494	1.528222
O232	O	0.822304	-0.934232	0.218532
O233	O	1.155637	-0.600898	0.551865
O234	O	1.488970	-0.267565	0.885198
H235	H	0.850380	-0.969230	0.186683
H236	H	1.183713	-0.635897	0.520016
H237	H	1.517047	-0.302563	0.853349
H238	H	0.978293	-0.269224	0.541055
H239	H	1.311626	0.064109	0.874389
H240	H	1.644959	0.397442	1.207722
O241	O	0.988885	-0.256560	1.072057
O242	O	1.322219	0.076774	1.405390
O243	O	1.655552	0.410107	1.738724
H244	H	1.020743	-0.289490	1.101892
H245	H	1.354077	0.043844	1.435225
H246	H	1.687410	0.377177	1.768558
O247	O	0.337822	-0.216786	0.291818
O248	O	0.671155	0.116547	0.625152
O249	O	1.004489	0.449881	0.958485
H250	H	0.286823	-0.227932	0.292625
H251	H	0.620156	0.105402	0.625958
H252	H	0.953490	0.438735	0.959291
O253	O	0.539618	-0.452580	0.385027
O254	O	0.872951	-0.119247	0.718361
O255	O	1.206285	0.214086	1.051694
H256	H	0.509779	-0.489964	0.356923
H257	H	0.843112	-0.156631	0.690256
H258	H	1.176446	0.176703	1.023590
H259	H	0.896555	-0.474771	0.861555
H260	H	1.229888	-0.141437	1.194888
H261	H	1.563222	0.191896	1.528222
H262	H	0.978289	-0.269170	0.659762
H263	H	1.311622	0.064164	0.993095
H264	H	1.644955	0.397497	1.326429
H265	H	0.832826	-0.439757	1.063353
H266	H	1.166160	-0.106424	1.396687
H267	H	1.499493	0.226910	1.730020
O268	O	0.473771	-0.492464	0.311960
O269	O	0.807104	-0.159130	0.645294
O270	O	1.140438	0.174203	0.978627
H271	H	0.440017	-0.538577	0.315338
H272	H	0.773350	-0.205244	0.648671
H273	H	1.106684	0.128089	0.982005
O274	O	0.675642	-0.452570	0.385022
O275	O	1.008975	-0.119236	0.718355
O276	O	1.342308	0.214097	1.051689
H277	H	0.641904	-0.485336	0.412848
H278	H	0.975237	-0.152003	0.746181
H279	H	1.308570	0.181330	1.079515
H280	H	0.896382	-0.474802	0.742851
H281	H	1.229715	-0.141469	1.076184
H282	H	1.563048	0.191864	1.409517
O283	O	0.822204	-0.452393	0.532344
O284	O	1.155537	-0.119060	0.865677
O285	O	1.488870	0.214274	1.199011
H286	H	0.794324	-0.485099	0.566077
H287	H	1.127658	-0.151766	0.899410
H288	H	1.460991	0.181568	1.232744
O289	O	0.675597	-0.256633	0.218725
O290	O	1.008930	0.076700	0.552058
O291	O	1.342263	0.410033	0.885392
H292	H	0.726595	-0.264542	0.225445
H293	H	1.059928	0.068792	0.558778
H294	H	1.393262	0.402125	0.892111
O295	O	0.473821	-0.216773	0.291816
O296	O	0.807155	0.116560	0.625149
O297	O	1.140488	0.449894	0.958483
H298	H	0.503650	-0.209315	0.333800
H299	H	0.836983	0.124018	0.667133
H300	H	1.170316	0.457352	1.000466
O301	O	0.822223	-0.452360	0.668354
O302	O	1.155556	-0.119026	1.001687
O303	O	1.488889	0.214307	1.335021
H304	H	0.850249	-0.489801	0.698175
H305	H	1.183582	-0.156468	1.031508
H306	H	1.516916	0.176865	1.364841
H307	H	0.548248	-0.269107	0.229307
H308	H	0.881582	0.064227	0.562640
H309	H	1.214915	0.397560	0.895973
H310	H	0.914577	-0.234219	0.742843
H311	H	1.247910	0.099114	1.076177
H312	H	1.581244	0.432447	1.409510
H313	H	0.978299	-0.269056	0.944692
H314	H	1.311632	0.064278	1.278025
H315	H	1.644966	0.397611	1.611358
H316	H	0.978193	-0.923869	0.374688
H317	H	1.311526	-0.590536	0.708021
H318	H	1.644859	-0.257202	1.041355
H319	H	0.144641	-0.440153	0.374489
H320	H	0.477975	-0.106820	0.707822
H321	H	0.811308	0.226513	1.041156
H322	H	0.263348	-0.440145	0.374479
H323	H	0.596681	-0.106811	0.707813
H324	H	0.930015	0.226522	1.041146
H325	H	0.144609	-0.269141	0.229326
H326	H	0.477942	0.064192	0.562659
H327	H	0.811275	0.397526	0.895992
H328	H	0.832830	-0.439814	0.944643
H329	H	1.166163	-0.106481	1.277976
H330	H	1.499497	0.226852	1.611309
