data_functionalizedCrystal
_audit_creation_method	'MofGen! by Chris Wilmer'
_symmetry_space_group_name_H-M	'P1'
_symmetry_Int_Tables_number	1
_symmetry_cell_setting	triclinic
loop_
_symmetry_equiv_pos_as_xyz
  x,y,z
_cell_length_a	19.805407
_cell_length_b	19.121063
_cell_length_c	19.805399
_cell_angle_alpha	92.411105
_cell_angle_beta	89.980427
_cell_angle_gamma	92.469032
loop_
_atom_site_label
_atom_site_type_symbol
_atom_site_fract_x
_atom_site_fract_y
_atom_site_fract_z
Zn1	Zn	1.023234	-0.279631	-0.394203
Zn2	Zn	1.356567	0.053703	-0.060869
Zn3	Zn	1.689900	0.387036	0.272464
Zn4	Zn	1.018317	-0.397083	-0.285838
Zn5	Zn	1.351651	-0.063750	0.047496
Zn6	Zn	1.684984	0.269584	0.380829
Zn7	Zn	0.910048	-0.279650	-0.281028
Zn8	Zn	1.243381	0.053683	0.052305
Zn9	Zn	1.576714	0.387017	0.385638
Zn10	Zn	0.905182	-0.397046	-0.398983
Zn11	Zn	1.238516	-0.063712	-0.065650
Zn12	Zn	1.571849	0.269621	0.267684
O13	O	0.964195	-0.338352	-0.340013
O14	O	1.297529	-0.005019	-0.006680
O15	O	1.630862	0.328314	0.326654
O16	O	1.117298	-0.295218	-0.379840
O17	O	1.450631	0.038115	-0.046507
O18	O	1.783964	0.371448	0.286826
O19	O	1.003934	-0.381529	-0.190484
O20	O	1.337267	-0.048196	0.142849
O21	O	1.670601	0.285138	0.476182
O22	O	0.929156	-0.181363	-0.292028
O23	O	1.262489	0.151971	0.041306
O24	O	1.595822	0.485304	0.374639
O25	O	1.113686	-0.381510	-0.300225
O26	O	1.447019	-0.048177	0.033108
O27	O	1.780353	0.285156	0.366442
O28	O	1.012313	-0.181348	-0.375177
O29	O	1.345646	0.151985	-0.041843
O30	O	1.678980	0.485318	0.291490
O31	O	0.924388	-0.295251	-0.186951
O32	O	1.257722	0.038082	0.146383
O33	O	1.591055	0.371415	0.479716
O34	O	0.814686	-0.295215	-0.296663
O35	O	1.148019	0.038118	0.036670
O36	O	1.481353	0.371451	0.370004
O37	O	0.920863	-0.381447	-0.493065
O38	O	1.254197	-0.048113	-0.159731
O39	O	1.587530	0.285220	0.173602
O40	O	0.811111	-0.381465	-0.383324
O41	O	1.144445	-0.048132	-0.049990
O42	O	1.477778	0.285201	0.283343
O43	O	1.007595	-0.295182	-0.489553
O44	O	1.340929	0.038151	-0.156219
O45	O	1.674262	0.371484	0.177114
O46	O	0.999216	-0.495363	-0.304860
O47	O	1.332550	-0.162029	0.028473
O48	O	1.665883	0.171304	0.361807
O49	O	0.916096	-0.495335	-0.387987
O50	O	1.249430	-0.162002	-0.054654
O51	O	1.582763	0.171331	0.278679
C52	C	0.788340	-0.338339	-0.339991
C53	C	1.121673	-0.005006	-0.006657
C54	C	1.455006	0.328328	0.326676
C55	C	0.713107	-0.338350	-0.339998
C56	C	1.046441	-0.005017	-0.006664
C57	C	1.379774	0.328317	0.326669
C58	C	0.675917	-0.383328	-0.385055
C59	C	1.009250	-0.049995	-0.051721
C60	C	1.342584	0.283339	0.281612
C61	C	0.605228	-0.383329	-0.385064
C62	C	0.938562	-0.049996	-0.051731
C63	C	1.271895	0.283337	0.281602
C64	C	0.571732	-0.338356	-0.340013
C65	C	0.905065	-0.005022	-0.006680
C66	C	1.238398	0.328311	0.326654
C67	C	0.608927	-0.293373	-0.294954
C68	C	0.942261	0.039961	0.038379
C69	C	1.275594	0.373294	0.371713
C70	C	0.679614	-0.293368	-0.294948
C71	C	1.012948	0.039965	0.038385
C72	C	1.346281	0.373298	0.371719
C73	C	0.323853	-0.293388	-0.294977
C74	C	0.657187	0.039945	0.038356
C75	C	0.990520	0.373279	0.371690
C76	C	0.253161	-0.293397	-0.294985
C77	C	0.586494	0.039936	0.038348
C78	C	0.919827	0.373269	0.371682
C79	C	0.249467	-0.383349	-0.385093
C80	C	0.582800	-0.050016	-0.051760
C81	C	0.916134	0.283318	0.281574
C82	C	0.320154	-0.383345	-0.385087
C83	C	0.653488	-0.050012	-0.051754
C84	C	0.986821	0.283322	0.281579
C85	C	0.357344	-0.338360	-0.340031
C86	C	0.690677	-0.005026	-0.006698
C87	C	1.024011	0.328307	0.326636
C88	C	0.433992	-0.338358	-0.340022
C89	C	0.767326	-0.005025	-0.006689
C90	C	1.100659	0.328309	0.326645
C91	C	0.495084	-0.338360	-0.340018
C92	C	0.828418	-0.005027	-0.006685
C93	C	1.161751	0.328306	0.326648
C94	C	0.956613	-0.520833	-0.347479
C95	C	1.289947	-0.187500	-0.014146
C96	C	1.623280	0.145833	0.319187
C97	C	0.953431	-0.598899	-0.350696
C98	C	1.286765	-0.265566	-0.017363
C99	C	1.620098	0.067767	0.315971
C100	C	0.995246	-0.635566	-0.308963
C101	C	1.328580	-0.302233	0.024370
C102	C	1.661913	0.031101	0.357704
C103	C	0.992258	-0.708917	-0.311992
C104	C	1.325591	-0.375584	0.021341
C105	C	1.658925	-0.042251	0.354674
C106	C	0.947451	-0.745601	-0.356752
C107	C	1.280784	-0.412267	-0.023418
C108	C	1.614117	-0.078934	0.309915
C109	C	0.905634	-0.708929	-0.398489
C110	C	1.238968	-0.375596	-0.065156
C111	C	1.572301	-0.042262	0.268178
C112	C	0.908626	-0.635579	-0.395463
C113	C	1.241960	-0.302246	-0.062129
C114	C	1.575293	0.031088	0.271204
C115	C	0.936252	-0.967071	-0.368056
C116	C	1.269586	-0.633738	-0.034722
C117	C	1.602919	-0.300404	0.298611
C118	C	0.933262	-1.040426	-0.371078
C119	C	1.266595	-0.707093	-0.037744
C120	C	1.599929	-0.373759	0.295589
C121	C	1.019887	-1.040409	-0.284581
C122	C	1.353220	-0.707076	0.048752
C123	C	1.686554	-0.373743	0.382085
C124	C	1.022872	-0.967058	-0.281556
C125	C	1.356206	-0.633725	0.051777
C126	C	1.689539	-0.300391	0.385110
C127	C	0.981058	-0.930393	-0.323296
C128	C	1.314392	-0.597059	0.010037
C129	C	1.647725	-0.263726	0.343371
C130	C	0.944394	-0.820578	-0.359848
C131	C	1.277727	-0.487244	-0.026514
C132	C	1.611060	-0.153911	0.306819
C133	C	0.984119	-0.855417	-0.320203
C134	C	1.317453	-0.522084	0.013130
C135	C	1.650786	-0.188750	0.346464
C136	C	1.140737	-0.338366	-0.340036
C137	C	1.474071	-0.005033	-0.006703
C138	C	1.807404	0.328300	0.326631
C139	C	1.215969	-0.338372	-0.340046
C140	C	1.549302	-0.005039	-0.006712
C141	C	1.882636	0.328294	0.326621
C142	C	0.964235	-0.338308	-0.516554
C143	C	1.297568	-0.004975	-0.183221
C144	C	1.630902	0.328359	0.150113
C145	C	0.964252	-0.338289	-0.591785
C146	C	1.297585	-0.004956	-0.258452
C147	C	1.630919	0.328377	0.074881
C148	C	0.971825	-0.155159	-0.332532
C149	C	1.305159	0.178174	0.000801
C150	C	1.638492	0.511508	0.334134
C151	C	0.975077	-0.077093	-0.329345
C152	C	1.308410	0.256241	0.003989
C153	C	1.641744	0.589574	0.337322
C154	C	1.009414	-0.293369	-0.625302
C155	C	1.342748	0.039964	-0.291968
C156	C	1.676081	0.373297	0.041365
C157	C	1.009422	-0.293349	-0.695989
C158	C	1.342755	0.039985	-0.362656
C159	C	1.676089	0.373318	-0.029323
C160	C	0.964270	-0.338253	-0.733159
C161	C	1.297604	-0.004919	-0.399826
C162	C	1.630937	0.328414	-0.066493
C163	C	0.919103	-0.383175	-0.699638
C164	C	1.252436	-0.049841	-0.366305
C165	C	1.585770	0.283492	-0.032971
C166	C	0.919093	-0.383191	-0.628952
C167	C	1.252426	-0.049858	-0.295618
C168	C	1.585759	0.283476	0.037715
C169	C	0.919144	-0.383109	-0.984709
C170	C	1.252477	-0.049776	-0.651375
C171	C	1.585811	0.283557	-0.318042
C172	C	0.919159	-0.383091	-1.055400
C173	C	1.252493	-0.049758	-0.722067
C174	C	1.585826	0.283576	-0.388734
C175	C	1.009474	-0.293267	-1.051747
C176	C	1.342807	0.040066	-0.718413
C177	C	1.676140	0.373400	-0.385080
C178	C	1.009463	-0.293283	-0.981060
C179	C	1.342796	0.040050	-0.647727
C180	C	1.676130	0.373383	-0.314393
C181	C	0.964294	-0.338202	-0.947545
C182	C	1.297627	-0.004869	-0.614211
C183	C	1.630960	0.328464	-0.280878
C184	C	0.964285	-0.338223	-0.870897
C185	C	1.297618	-0.004890	-0.537564
C186	C	1.630952	0.328444	-0.204231
C187	C	0.964282	-0.338236	-0.809806
C188	C	1.297615	-0.004903	-0.476473
C189	C	1.630949	0.328431	-0.143139
C190	C	0.964197	-0.338346	-0.164157
C191	C	1.297530	-0.005012	0.169177
C192	C	1.630863	0.328321	0.502510
C193	C	0.964319	-0.338167	-0.088918
C194	C	1.297652	-0.004833	0.244416
C195	C	1.630986	0.328500	0.577749
H196	H	0.581649	-0.256751	-0.258275
H197	H	0.914982	0.076582	0.075058
H198	H	1.248315	0.409916	0.408391
Br199	Br	0.554758	-0.444372	-0.446218
Br200	Br	0.888091	-0.111039	-0.112884
Br201	Br	1.221425	0.222295	0.220449
H202	H	0.869154	-0.738803	-0.434936
H203	H	1.202487	-0.405469	-0.101602
H204	H	1.535821	-0.072136	0.231731
H205	H	0.874577	-0.605726	-0.429447
H206	H	1.207910	-0.272392	-0.096113
H207	H	1.541244	0.060941	0.237220
Br208	Br	0.198992	-0.444403	-0.446241
Br209	Br	0.532325	-0.111070	-0.112908
Br210	Br	0.865659	0.222263	0.220425
H211	H	0.347424	-0.419970	-0.421771
H212	H	0.680757	-0.086636	-0.088437
H213	H	1.014090	0.246697	0.244896
H214	H	0.882337	-0.419734	-0.729907
H215	H	1.215671	-0.086400	-0.396574
H216	H	1.549004	0.246933	-0.063241
H217	H	0.709894	-0.256739	-0.258261
H218	H	1.043228	0.076594	0.075072
H219	H	1.376561	0.409928	0.408405
H220	H	0.882374	-0.419695	-0.957430
H221	H	1.215707	-0.086362	-0.624096
H222	H	1.549041	0.246971	-0.290763
Br223	Br	1.070747	-0.232416	-0.741475
Br224	Br	1.404080	0.100917	-0.408142
Br225	Br	1.737413	0.434251	-0.074808
Br226	Br	0.207701	-0.232358	-0.233839
Br227	Br	0.541034	0.100976	0.099494
Br228	Br	0.874367	0.434309	0.432827
Br229	Br	1.070700	-0.232430	-0.574863
Br230	Br	1.404034	0.100903	-0.241530
Br231	Br	1.737367	0.434236	0.091803
Br232	Br	1.070746	-0.232344	-0.930618
Br233	Br	1.404079	0.100989	-0.597285
Br234	Br	1.737413	0.434322	-0.263952
Br235	Br	1.070775	-0.232303	-1.097235
Br236	Br	1.404109	0.101030	-0.763902
Br237	Br	1.737442	0.434364	-0.430568
Br238	Br	1.076635	-1.090173	-0.227941
Br239	Br	1.409968	-0.756840	0.105392
Br240	Br	1.743302	-0.423506	0.438726
H241	H	0.354124	-0.256764	-0.258284
H242	H	0.687458	0.076570	0.075049
H243	H	1.020791	0.409903	0.408382
Br244	Br	1.056053	-0.585788	-0.248209
Br245	Br	1.389386	-0.252455	0.085124
Br246	Br	1.722720	0.080878	0.418458
H247	H	0.882310	-0.419762	-0.601663
H248	H	1.215644	-0.086429	-0.268330
H249	H	1.548977	0.246904	0.065003
H250	H	1.026308	-0.738768	-0.278008
H251	H	1.359641	-0.405435	0.055325
H252	H	1.692974	-0.072101	0.388658
H253	H	0.896783	-1.070292	-0.407538
H254	H	1.230116	-0.736958	-0.074204
H255	H	1.563449	-0.403625	0.259129
H256	H	1.059358	-0.937192	-0.245110
H257	H	1.392691	-0.603858	0.088224
H258	H	1.726025	-0.270525	0.421557
H259	H	0.703185	-0.419953	-0.421739
H260	H	1.036518	-0.086620	-0.088405
H261	H	1.369851	0.246713	0.244928
Br262	Br	1.044932	-0.805632	-0.259465
Br263	Br	1.378265	-0.472298	0.073869
Br264	Br	1.711598	-0.138965	0.407202
Br265	Br	0.857879	-0.444037	-1.105846
Br266	Br	1.191212	-0.110704	-0.772512
Br267	Br	1.524545	0.222630	-0.439179
Br268	Br	0.879505	-0.917320	-0.424703
Br269	Br	1.212838	-0.583987	-0.091370
Br270	Br	1.546171	-0.250653	0.241963
H271	H	0.907910	-0.850454	-0.396289
H272	H	1.241243	-0.517120	-0.062956
H273	H	1.574577	-0.183787	0.270377
