data_functionalizedCrystal
_audit_creation_method	'MofGen! by Chris Wilmer'
_symmetry_space_group_name_H-M	'P1'
_symmetry_Int_Tables_number	1
_symmetry_cell_setting	triclinic
loop_
_symmetry_equiv_pos_as_xyz
  x,y,z
_cell_length_a	17.019383
_cell_length_b	19.188930
_cell_length_c	16.098538
_cell_angle_alpha	92.708456
_cell_angle_beta	83.394151
_cell_angle_gamma	83.272360
loop_
_atom_site_label
_atom_site_type_symbol
_atom_site_fract_x
_atom_site_fract_y
_atom_site_fract_z
O1	O	1.053765	0.082473	-0.144764
O2	O	1.553765	0.582473	0.355236
O3	O	0.823219	0.094549	-0.128249
O4	O	1.323219	0.594549	0.371751
O5	O	0.945144	-0.013153	-0.136967
O6	O	1.445144	0.486847	0.363033
O7	O	0.931839	0.190176	-0.136046
O8	O	1.431839	0.690176	0.363954
O9	O	0.938022	-0.006887	0.002055
O10	O	1.438022	0.493113	0.502055
O11	O	0.816096	0.100816	0.010773
O12	O	1.316096	0.600816	0.510773
O13	O	1.046642	0.088740	-0.005742
O14	O	1.546642	0.588740	0.494258
Zn15	Zn	0.930239	0.095773	0.024588
Zn16	Zn	1.430239	0.595773	0.524588
Zn17	Zn	0.939622	0.087516	-0.158579
Zn18	Zn	1.439622	0.587516	0.341421
O19	O	0.924717	0.196443	0.002976
O20	O	1.424717	0.696443	0.502976
C21	C	0.790162	0.097347	-0.056625
C22	C	1.290162	0.597347	0.443375
C23	C	0.702275	0.096336	-0.050328
C24	C	1.202275	0.596336	0.449672
C25	C	0.941152	-0.036030	-0.067422
C26	C	1.441152	0.463970	0.432578
C27	C	0.939858	-0.113533	-0.067323
C28	C	1.439858	0.386467	0.432677
C29	C	0.664861	0.092448	-0.123145
C30	C	1.164861	0.592448	0.376855
C31	C	0.582279	0.091510	-0.117217
C32	C	1.082279	0.591510	0.382783
C33	C	0.537115	0.094457	-0.038471
C34	C	1.037115	0.594457	0.461529
C35	C	0.574535	0.098348	0.034351
C36	C	1.074535	0.598348	0.534351
C37	C	0.657114	0.099290	0.028422
C38	C	1.157114	0.599290	0.528422
C39	C	0.287585	0.091786	-0.016777
C40	C	0.787585	0.591786	0.483223
C41	C	0.205001	0.090842	-0.010853
C42	C	0.705001	0.590842	0.489147
C43	C	0.212751	0.084005	-0.162422
C44	C	0.712751	0.584005	0.337578
C45	C	0.295332	0.084944	-0.168344
C46	C	0.795332	0.584944	0.331656
C47	C	0.332744	0.088839	-0.095522
C48	C	0.832744	0.588839	0.404478
C49	C	0.452704	0.093496	-0.032409
C50	C	0.952704	0.593496	0.467591
C51	C	0.417153	0.089804	-0.101585
C52	C	0.917153	0.589804	0.398415
C53	C	1.011400	-0.158562	-0.072443
C54	C	1.511400	0.341438	0.427557
C55	C	1.010185	-0.231385	-0.072370
C56	C	1.510185	0.268615	0.427630
C57	C	0.937424	-0.259174	-0.067158
C58	C	1.437424	0.240826	0.432842
C59	C	0.865873	-0.214134	-0.062041
C60	C	1.365873	0.285866	0.437959
C61	C	0.867090	-0.141314	-0.062124
C62	C	1.367090	0.358686	0.437876
N63	N	0.879382	-0.364963	-0.015862
N64	N	1.379382	0.135037	0.484138
N65	N	0.878231	-0.434140	-0.015783
N66	N	1.378231	0.065860	0.484217
C67	C	0.933753	-0.478578	-0.066912
C68	C	1.433753	0.021422	0.433088
N69	N	0.990481	-0.451225	-0.118114
N70	N	1.490481	0.048775	0.381886
N71	N	0.991634	-0.382042	-0.118190
N72	N	1.491634	0.117958	0.381810
C73	C	0.936096	-0.338135	-0.067069
C74	C	1.436096	0.161865	0.432931
C75	C	1.003983	-0.602571	-0.071955
C76	C	1.503983	-0.102571	0.428045
C77	C	1.002766	-0.675395	-0.071886
C78	C	1.502766	-0.175395	0.428114
C79	C	0.858450	-0.658142	-0.061549
C80	C	1.358450	-0.158142	0.438451
C81	C	0.859670	-0.585320	-0.061626
C82	C	1.359670	-0.085320	0.438374
C83	C	0.932438	-0.557539	-0.066825
C84	C	1.432438	-0.057539	0.433175
C85	C	1.079699	0.085943	-0.077368
C86	C	1.579699	0.585943	0.422632
C87	C	1.167586	0.086953	-0.083670
C88	C	1.667586	0.586953	0.416330
C89	C	0.928709	0.219320	-0.066570
C90	C	1.428709	0.719320	0.433430
C91	C	0.930004	0.296822	-0.066676
C92	C	1.430004	0.796822	0.433324
N93	N	0.923840	0.101408	0.149595
N94	N	1.423840	0.601408	0.649595
N95	N	0.946027	0.081876	-0.283586
N96	N	1.446027	0.581876	0.216414
C97	C	0.975609	0.055711	0.189479
C98	C	1.475609	0.555711	0.689479
C99	C	0.971140	0.059659	0.276987
C100	C	1.471140	0.559659	0.776987
C101	C	0.914906	0.109308	0.324610
C102	C	1.414906	0.609308	0.824610
C103	C	0.863132	0.155008	0.284721
C104	C	1.363132	0.655008	0.784721
C105	C	0.867597	0.151056	0.197214
C106	C	1.367597	0.651056	0.697214
C107	C	0.898718	0.123623	0.589018
C108	C	1.398718	0.623623	1.089018
C109	C	0.894258	0.127573	0.676530
C110	C	1.394258	0.627573	1.176530
C111	C	1.002266	0.032223	0.668790
C112	C	1.502266	0.532223	1.168790
C113	C	1.006730	0.028278	0.581282
C114	C	1.506730	0.528278	1.081282
C115	C	0.954953	0.073975	0.541401
C116	C	1.454953	0.573975	1.041401
C117	C	0.910339	0.113347	0.414058
C118	C	1.410339	0.613347	0.914058
C119	C	0.959517	0.069933	0.451955
C120	C	1.459517	0.569933	0.951955
H121	H	0.701628	0.090046	-0.187269
H122	H	1.201628	0.590046	0.312731
H123	H	0.453928	0.087409	-0.165699
H124	H	0.953928	0.587409	0.334301
C125	C	1.021366	0.015314	0.399567
C126	C	1.521366	0.515314	0.899567
N127	N	1.067952	-0.025825	0.360101
N128	N	1.567952	0.474175	0.860101
H129	H	0.551820	0.088344	-0.176512
H130	H	1.051820	0.588344	0.323488
C131	C	0.788384	-0.091778	-0.056488
C132	C	1.288384	0.408222	0.443512
N133	N	0.729102	-0.054467	-0.052241
N134	N	1.229102	0.445533	0.447759
H135	H	1.013294	0.022448	0.309460
H136	H	1.513294	0.522448	0.809460
C137	C	0.801266	0.209617	0.337110
C138	C	1.301266	0.709617	0.837110
N139	N	0.754667	0.250749	0.376569
N140	N	1.254667	0.750749	0.876569
C141	C	0.810654	0.201332	0.153343
C142	C	1.310654	0.701332	0.653343
N143	N	0.767762	0.239203	0.120300
N144	N	1.267762	0.739203	0.620300
H145	H	0.801413	-0.548655	-0.057452
H146	H	1.301413	-0.048655	0.442548
C147	C	1.068588	-0.026344	0.528903
C148	C	1.568588	0.473656	1.028903
N149	N	1.115181	-0.067485	0.489451
N150	N	1.615181	0.432515	0.989451
H151	H	1.044420	-0.004982	0.701270
H152	H	1.544420	0.495018	1.201270
H153	H	0.799207	-0.680766	-0.057310
H154	H	1.299207	-0.180766	0.442690
H155	H	0.848463	0.168007	0.715301
H156	H	1.348463	0.668007	1.215301
H157	H	1.021404	0.015284	0.150709
H158	H	1.521404	0.515284	0.650709
H159	H	0.856561	0.160833	0.556553
H160	H	1.356561	0.660833	1.056553
C161	C	0.848477	0.167956	0.466452
C162	C	1.348477	0.667956	0.966452
N163	N	0.801880	0.209084	0.505919
N164	N	1.301880	0.709084	1.005919
H165	H	1.063235	-0.579951	-0.076192
H166	H	1.563235	-0.079951	0.423808
H167	H	0.687575	0.102460	0.087718
H168	H	1.187575	0.602460	0.587718
H169	H	0.332100	0.082540	-0.232468
H170	H	0.832100	0.582540	0.267532
H171	H	0.168227	0.093261	0.053275
H172	H	0.668227	0.593261	0.553275
C173	C	0.171590	0.079728	-0.242521
C174	C	0.671590	0.579728	0.257479
N175	N	0.140586	0.076508	-0.302854
N176	N	0.640586	0.576508	0.197146
C177	C	1.091448	-0.128008	-0.078170
C178	C	1.591448	0.371992	0.421830
N179	N	1.151740	-0.104994	-0.082485
N180	N	1.651740	0.395006	0.417515
C181	C	0.524851	0.101589	0.120973
C182	C	1.024851	0.601589	0.620973
N183	N	0.487430	0.104028	0.186219
N184	N	0.987430	0.604028	0.686219
C185	C	0.328729	0.096063	0.063331
C186	C	0.828729	0.596063	0.563331
N187	N	0.359721	0.099282	0.123671
N188	N	0.859721	0.599282	0.623671
H189	H	1.068446	-0.268056	-0.076543
H190	H	1.568446	0.231944	0.423457
H191	H	0.415922	0.095893	0.031706
H192	H	0.915922	0.595893	0.531706
H193	H	0.806630	-0.236764	-0.057800
H194	H	1.306630	0.263236	0.442200
C195	C	1.081472	-0.724928	-0.077515
C196	C	1.581472	-0.224928	0.422485
N197	N	1.140755	-0.762238	-0.081751
N198	N	1.640755	-0.262238	0.418249
