data_functionalizedCrystal
_audit_creation_method	'MofGen! by Chris Wilmer'
_symmetry_space_group_name_H-M	'P1'
_symmetry_Int_Tables_number	1
_symmetry_cell_setting	triclinic
loop_
_symmetry_equiv_pos_as_xyz
  x,y,z
_cell_length_a	14.971487
_cell_length_b	6.394989
_cell_length_c	14.048226
_cell_angle_alpha	90.003392
_cell_angle_beta	90.000286
_cell_angle_gamma	85.056057
loop_
_atom_site_label
_atom_site_type_symbol
_atom_site_fract_x
_atom_site_fract_y
_atom_site_fract_z
O1	O	-1.189891	-0.272219	-0.079018
O2	O	-0.929843	-0.304815	-0.079049
O3	O	-1.063558	0.015538	-0.079033
O4	O	-1.056176	-0.592572	-0.079033
O5	O	-1.063541	0.015557	0.079288
O6	O	-0.929826	-0.304796	0.079273
O7	O	-1.189874	-0.272200	0.079304
Zn8	Zn	-1.059847	-0.288495	0.104425
Zn9	Zn	-1.059869	-0.288520	-0.104170
O10	O	-1.056159	-0.592553	0.079288
C11	C	-0.896494	-0.303348	0.000108
C12	C	-0.797150	-0.298979	0.000096
C13	C	-0.741960	-0.487178	0.000096
C14	C	-0.648616	-0.483060	0.000108
C15	C	-0.610464	-0.290741	0.000113
C16	C	-0.665661	-0.102527	0.000116
C17	C	-0.759003	-0.106647	0.000110
C18	C	-0.471106	-0.093953	0.000124
C19	C	-0.377757	-0.089832	0.000128
C20	C	-0.360719	-0.470366	0.000122
C21	C	-0.454061	-0.474486	0.000117
C22	C	-0.509252	-0.286271	0.000118
C23	C	-0.223223	-0.273666	0.000139
C24	C	-0.322567	-0.278031	0.000128
C25	C	-1.062090	0.093372	0.000123
C26	C	-1.057629	0.329618	0.000122
N27	N	-1.059839	-0.288477	0.246786
N28	N	-1.059885	-0.288522	-0.246531
C29	C	-1.119068	-0.146683	0.296611
C30	C	-1.119074	-0.146682	0.396268
C31	C	-1.059855	-0.288486	0.446099
C32	C	-1.000620	-0.430287	0.396267
C33	C	-1.000610	-0.430276	0.296612
C34	C	-1.000646	-0.430302	0.603982
C35	C	-1.000656	-0.430316	0.703644
C36	C	-1.119109	-0.146708	0.703638
C37	C	-1.119100	-0.146697	0.603982
C38	C	-1.059865	-0.288501	0.554157
H39	H	-0.634590	0.054062	0.000133
H40	H	-0.952379	-0.545736	0.256045
H41	H	-0.773016	-0.643786	0.000091
C42	C	-1.184238	0.009285	0.549170
H43	H	-1.219511	0.093750	0.593115
H44	H	-1.222310	-0.065997	0.510283
H45	H	-1.151071	0.096369	0.510305
H46	H	-0.485121	-0.631088	0.000104
H47	H	-0.346697	0.066771	0.000133
C48	C	-0.819716	0.100365	0.000109
H49	H	-0.880771	0.070369	0.000115
H50	H	-0.807920	0.179219	-0.055098
H51	H	-0.807921	0.179211	0.055329
C52	C	-1.184259	0.009290	0.758441
H53	H	-1.175777	-0.011002	0.824929
H54	H	-1.244208	-0.013624	0.742105
H55	H	-1.172969	0.148743	0.742112
C56	C	-1.184208	0.009307	0.241805
H57	H	-1.219477	0.093767	0.285756
H58	H	-1.222284	-0.065966	0.202919
H59	H	-1.151044	0.096396	0.202941
C60	C	-0.935459	-0.586163	0.758457
H61	H	-0.900155	-0.670558	0.714512
H62	H	-0.968561	-0.673301	0.797355
H63	H	-0.897409	-0.510727	0.797311
H64	H	-1.167301	-0.031222	0.436835
H65	H	-0.315778	-0.623617	0.000126
H66	H	-0.952408	-0.545767	0.563417
H67	H	-0.952398	-0.545740	0.436846
H68	H	-0.603684	-0.636311	0.000107
H69	H	-0.516040	0.059311	0.000126
