data_functionalizedCrystal
_audit_creation_method	'MofGen! by Chris Wilmer'
_symmetry_space_group_name_H-M	'P1'
_symmetry_Int_Tables_number	1
_symmetry_cell_setting	triclinic
loop_
_symmetry_equiv_pos_as_xyz
  x,y,z
_cell_length_a	11.026607
_cell_length_b	15.944551
_cell_length_c	9.482900
_cell_angle_alpha	99.334197
_cell_angle_beta	78.636152
_cell_angle_gamma	96.042377
loop_
_atom_site_label
_atom_site_type_symbol
_atom_site_fract_x
_atom_site_fract_y
_atom_site_fract_z
O1	O	1.629108	0.341447	-0.120915
O2	O	1.275798	0.301394	-0.120914
O3	O	1.462099	0.200605	-0.120901
O4	O	1.442807	0.442235	-0.120927
O5	O	1.424257	0.221183	0.120889
O6	O	1.237956	0.321972	0.120876
O7	O	1.591266	0.362024	0.120875
Cu8	Cu	1.411156	0.343877	0.142953
Cu9	Cu	1.455908	0.319541	-0.142992
O10	O	1.404965	0.462813	0.120862
C11	C	1.211666	0.304294	-0.000019
C12	C	1.076950	0.282267	-0.000019
C13	C	1.003151	0.343086	-0.000026
C14	C	0.863914	0.320322	-0.000026
C15	C	1.442377	0.179479	-0.000006
C16	C	1.439975	0.085870	-0.000005
C17	C	1.318759	-0.147313	-0.000025
C18	C	1.356391	-0.189675	0.119192
C19	C	1.435632	-0.085514	-0.000016
C20	C	1.393728	-0.209942	-0.119194
C21	C	1.431430	-0.251064	-0.000034
C22	C	1.473281	-0.126634	0.119299
C23	C	1.510618	-0.146907	-0.119194
C24	C	1.548331	-0.189236	0.000052
C25	C	1.438050	0.009855	-0.000005
C26	C	1.429020	-0.346429	-0.000034
C27	C	1.655399	0.359124	-0.000023
C28	C	1.790116	0.381150	-0.000033
C29	C	1.424688	0.483939	-0.000036
C30	C	1.427091	0.577547	-0.000046
N31	N	1.379688	0.360994	0.344071
N32	N	1.487386	0.302419	-0.344110
C33	C	1.446618	0.324584	0.416275
C34	C	1.420446	0.338834	0.583690
H35	H	0.824028	0.251392	-0.000055
H36	H	1.523292	0.282860	0.354152
H37	H	1.303006	0.402711	0.406195
H38	H	1.043047	0.412009	-0.000025
H39	H	1.645417	-0.207711	0.000119
C40	C	1.316850	0.395201	0.667597
C41	C	1.348262	0.475420	0.772256
C42	C	1.244669	0.531786	0.856164
C43	C	1.109665	0.507932	0.835413
C44	C	1.078247	0.427708	0.730749
C45	C	1.181840	0.371343	0.646841
H46	H	1.448206	0.493082	0.787621
H47	H	1.267927	0.591173	0.933643
H48	H	1.032979	0.549657	0.897526
H49	H	0.978303	0.410046	0.715384
H50	H	1.158582	0.311956	0.569362
C51	C	1.187684	-0.122107	0.000127
C52	C	1.119382	-0.161371	-0.124673
C53	C	0.988310	-0.136163	-0.124513
C54	C	0.925542	-0.071690	0.000446
C55	C	0.993845	-0.032423	0.125255
C56	C	1.124916	-0.057631	0.125095
H57	H	1.165846	-0.209101	-0.217183
H58	H	0.937748	-0.165232	-0.216905
H59	H	0.828515	-0.053030	0.000565
H60	H	0.947380	0.015307	0.217766
H61	H	1.175478	-0.028562	0.217488
H62	H	1.564064	0.260692	0.593771
C63	C	1.598655	-0.121204	-0.255354
C64	C	1.617887	-0.027165	-0.279557
C65	C	1.705915	-0.001462	-0.415730
C66	C	1.774712	-0.069798	-0.527700
C67	C	1.755482	-0.163843	-0.503500
C68	C	1.667454	-0.189546	-0.367327
H69	H	1.566958	0.023427	-0.196667
H70	H	1.720150	0.068157	-0.433643
H71	H	1.839876	-0.050771	-0.628504
H72	H	1.806411	-0.214435	-0.586390
H73	H	1.653219	-0.259165	-0.349414
H74	H	1.506881	-0.090590	0.220198
H75	H	1.037058	0.213341	-0.000048
C76	C	0.843986	0.474271	-0.000032
C77	C	0.907424	0.519557	0.125528
C78	C	0.961291	0.612677	0.125534
C79	C	0.951720	0.660509	-0.000020
C80	C	0.888280	0.615223	-0.125590
C81	C	0.834413	0.522103	-0.125595
H82	H	0.914512	0.484149	0.218479
H83	H	1.008254	0.646201	0.218489
H84	H	0.991596	0.729442	-0.000016
H85	H	0.881192	0.650632	-0.218540
H86	H	0.787450	0.488579	-0.218551
H87	H	1.291183	-0.208678	0.219980
H88	H	1.360054	-0.246072	-0.219990
