data_functionalizedCrystal
_audit_creation_method	'MofGen! by Chris Wilmer'
_symmetry_space_group_name_H-M	'P1'
_symmetry_Int_Tables_number	1
_symmetry_cell_setting	triclinic
loop_
_symmetry_equiv_pos_as_xyz
  x,y,z
_cell_length_a	12.784890
_cell_length_b	14.519731
_cell_length_c	11.295483
_cell_angle_alpha	94.102025
_cell_angle_beta	86.328828
_cell_angle_gamma	78.397706
loop_
_atom_site_label
_atom_site_type_symbol
_atom_site_fract_x
_atom_site_fract_y
_atom_site_fract_z
O1	O	1.417473	-0.001013	-0.098988
O2	O	1.917473	0.498987	0.401012
O3	O	1.108097	0.038477	-0.098999
O4	O	1.608097	0.538477	0.401001
O5	O	1.270975	-0.116173	-0.098983
O6	O	1.770975	0.383827	0.401017
O7	O	1.254595	0.153637	-0.099005
O8	O	1.754595	0.653637	0.400995
O9	O	1.256669	-0.102609	0.099067
O10	O	1.756669	0.397391	0.599067
O11	O	1.093791	0.052041	0.099050
O12	O	1.593791	0.552041	0.599050
O13	O	1.403167	0.012552	0.099061
O14	O	1.903167	0.512552	0.599061
Cu15	Cu	1.247173	0.033535	0.117139
Cu16	Cu	1.747173	0.533535	0.617139
Cu17	Cu	1.264091	0.017494	-0.117077
Cu18	Cu	1.764091	0.517494	0.382923
O19	O	1.240289	0.167201	0.099044
O20	O	1.740289	0.667201	0.599044
C21	C	1.061350	0.047827	0.000024
C22	C	1.561350	0.547827	0.500024
C23	C	0.943371	0.055469	0.000020
C24	C	1.443371	0.555469	0.500020
C25	C	0.764586	0.151245	0.000010
C26	C	1.264586	0.651245	0.500010
C27	C	0.875436	0.144070	0.000011
C28	C	1.375436	0.644070	0.500011
C29	C	0.900448	-0.025964	0.000025
C30	C	1.400448	0.474036	0.500025
C31	C	0.789598	-0.018790	0.000024
C32	C	1.289598	0.481210	0.500024
C33	C	0.721670	0.069818	0.000019
C34	C	1.221670	0.569818	0.500019
C35	C	0.610816	0.076992	0.000027
C36	C	1.110816	0.576992	0.500027
C37	C	0.635831	-0.093042	0.000032
C38	C	1.135831	0.406958	0.500032
C39	C	0.746682	-0.100217	0.000032
C40	C	1.246682	0.399783	0.500032
C41	C	1.263054	-0.143688	0.000042
C42	C	1.763054	0.356312	0.500042
C43	C	1.260754	-0.245880	0.000043
C44	C	1.760754	0.254120	0.500043
C45	C	1.258886	-0.328872	0.000040
C46	C	1.758886	0.171128	0.500040
C47	C	1.256551	-0.432991	0.000031
C48	C	1.756551	0.067009	0.500031
C49	C	1.254698	-0.515979	0.000023
C50	C	1.754698	-0.015979	0.500023
C51	C	1.252363	-0.620104	0.000016
C52	C	1.752363	-0.120104	0.500016
C53	C	1.449915	0.003201	0.000035
C54	C	1.949915	0.503201	0.500035
C55	C	1.567894	-0.004441	0.000031
C56	C	2.067894	0.495559	0.500031
C57	C	1.248210	0.194716	0.000017
C58	C	1.748210	0.694716	0.500017
C59	C	1.250510	0.296908	0.000008
C60	C	1.750510	0.796908	0.500008
N61	N	1.235281	0.044816	0.281874
N62	N	1.735281	0.544816	0.781874
N63	N	1.275991	0.006204	-0.281812
N64	N	1.775991	0.506204	0.218188
C65	C	1.361595	-0.075056	0.531177
C66	C	1.861595	0.424944	1.031177
C67	C	1.352616	-0.066525	0.655839
C68	C	1.852616	0.433475	1.155839
C69	C	1.208339	0.070405	0.655865
C70	C	1.708339	0.570405	1.155865
C71	C	1.217318	0.061874	0.531202
C72	C	1.717318	0.561874	1.031202
C73	C	1.293950	-0.010858	0.468862
C74	C	1.793950	0.489142	0.968862
C75	C	1.302933	-0.019385	0.344197
C76	C	1.802933	0.480615	0.844197
C77	C	1.158652	0.117540	0.344225
C78	C	1.658652	0.617540	0.844225
C79	C	1.149673	0.126071	0.468887
C80	C	1.649673	0.626071	0.968887
H81	H	0.709276	0.223393	0.000020
H82	H	1.209276	0.723393	0.500020
N83	N	1.071385	0.200358	0.532555
N84	N	1.571385	0.700358	1.032555
N85	N	0.974161	0.205974	0.518648
N86	N	1.474161	0.705974	1.018648
H87	H	0.918868	0.258441	0.563611
H88	H	1.418868	0.758441	1.063611
N89	N	1.381142	-0.093714	0.280494
N90	N	1.881142	0.406286	0.780494
N91	N	1.378431	-0.177857	0.294428
N92	N	1.878431	0.322143	0.794428
H93	H	1.433643	-0.230367	0.249427
H94	H	1.933643	0.269633	0.749427
H95	H	1.423999	-0.134271	0.480419
H96	H	1.923999	0.365729	0.980419
H97	H	1.407698	-0.118802	0.706572
H98	H	1.907698	0.381198	1.206572
H99	H	1.145940	0.129616	0.706638
H100	H	1.645940	0.629616	1.206638
H101	H	1.103574	0.169816	0.293474
H102	H	1.603574	0.669816	0.793474
H103	H	0.910373	0.210377	0.000006
H104	H	1.410373	0.710377	0.500006
N105	N	0.541442	0.167506	0.000032
N106	N	1.041442	0.667506	0.500032
N107	N	0.579780	0.240200	0.000024
N108	N	1.079780	0.740200	0.500024
H109	H	0.530787	0.304129	0.000027
H110	H	1.030787	0.804129	0.500027
H111	H	0.600885	-0.159353	-0.000056
H112	H	1.100885	0.340647	0.499944
H113	H	0.955774	-0.098104	0.000020
H114	H	1.455774	0.401896	0.500020
H115	H	0.802003	-0.172359	0.000033
H116	H	1.302003	0.327641	0.500033
