data_functionalizedCrystal
_audit_creation_method	'MofGen! by Chris Wilmer'
_symmetry_space_group_name_H-M	'P1'
_symmetry_Int_Tables_number	1
_symmetry_cell_setting	triclinic
loop_
_symmetry_equiv_pos_as_xyz
  x,y,z
_cell_length_a	25.639242
_cell_length_b	25.639240
_cell_length_c	25.639234
_cell_angle_alpha	89.976826
_cell_angle_beta	90.011947
_cell_angle_gamma	89.964534
loop_
_atom_site_label
_atom_site_type_symbol
_atom_site_fract_x
_atom_site_fract_y
_atom_site_fract_z
Zn1	Zn	0.799196	0.208310	0.295626
Zn2	Zn	1.299196	0.708310	0.795626
Zn3	Zn	0.799117	0.295732	0.208187
Zn4	Zn	1.299117	0.795732	0.708187
Zn5	Zn	0.711776	0.208301	0.208202
Zn6	Zn	1.211776	0.708301	0.708202
Zn7	Zn	0.711711	0.295704	0.295589
Zn8	Zn	1.211711	0.795704	0.795589
O9	O	0.755450	0.252012	0.251901
O10	O	1.255450	0.752012	0.751901
O11	O	0.872351	0.219922	0.284036
O12	O	1.372351	0.719922	0.784036
O13	O	0.787525	0.284142	0.135024
O14	O	1.287525	0.784142	0.635024
O15	O	0.723433	0.135137	0.219820
O16	O	1.223433	0.635137	0.719820
O17	O	0.872292	0.284151	0.219795
O18	O	1.372292	0.784151	0.719795
O19	O	0.787661	0.135143	0.284050
O20	O	1.287661	0.635143	0.784050
O21	O	0.723356	0.219907	0.135034
O22	O	1.223356	0.719907	0.635034
O23	O	0.638602	0.219879	0.219784
O24	O	1.138602	0.719879	0.719784
O25	O	0.723322	0.284103	0.368759
O26	O	1.223322	0.784103	0.868759
O27	O	0.638554	0.284094	0.283987
O28	O	1.138554	0.784094	0.783987
O29	O	0.787597	0.219895	0.368786
O30	O	1.287597	0.719895	0.868786
O31	O	0.787461	0.368894	0.219759
O32	O	1.287461	0.868894	0.719759
O33	O	0.723245	0.368873	0.283973
O34	O	1.223245	0.868873	0.783973
C35	C	0.619608	0.251983	0.251884
C36	C	1.119608	0.751983	0.751884
C37	C	0.561493	0.251984	0.251889
C38	C	1.061493	0.751984	0.751889
C39	C	0.310339	0.218627	0.285412
C40	C	0.810339	0.718627	0.785412
C41	C	0.364943	0.218622	0.285409
C42	C	0.864943	0.718622	0.785409
O43	O	0.393212	0.190238	0.313908
O44	O	0.893212	0.690238	0.813908
N45	N	0.392220	0.252006	0.251907
N46	N	0.892220	0.752006	0.751907
C47	C	0.364889	0.285400	0.218409
C48	C	0.864889	0.785400	0.718409
O49	O	0.393104	0.313796	0.189913
O50	O	0.893104	0.813796	0.689913
C51	C	0.310286	0.285408	0.218415
C52	C	0.810286	0.785408	0.718415
C53	C	0.283012	0.252018	0.251916
C54	C	0.783012	0.752018	0.751916
C55	C	0.283065	0.185241	0.318910
C56	C	0.783065	0.685241	0.818910
C57	C	0.228464	0.185245	0.318913
C58	C	0.728464	0.685245	0.818913
C59	C	0.201137	0.218636	0.285416
C60	C	0.701137	0.718636	0.785416
C61	C	0.228411	0.252023	0.251918
C62	C	0.728411	0.752023	0.751918
C63	C	0.282956	0.318805	0.184920
C64	C	0.782956	0.818805	0.684920
C65	C	0.228349	0.318809	0.184929
C66	C	0.728349	0.818809	0.684929
C67	C	0.201075	0.285420	0.218430
C68	C	0.701075	0.785420	0.718430
C69	C	0.146484	0.285418	0.218424
C70	C	0.646484	0.785418	0.718424
N71	N	0.119208	0.252035	0.251926
N72	N	0.619208	0.752035	0.751926
C73	C	0.146534	0.218644	0.285422
C74	C	0.646534	0.718644	0.785422
C75	C	0.479560	0.285383	0.218400
C76	C	0.979560	0.785383	0.718400
C77	C	0.534162	0.285373	0.218390
C78	C	1.034162	0.785373	0.718390
C79	C	0.534212	0.218595	0.285391
C80	C	1.034212	0.718595	0.785391
C81	C	0.479609	0.218603	0.285397
C82	C	0.979609	0.718603	0.785397
C83	C	0.452283	0.251999	0.251902
C84	C	0.952283	0.751999	0.751902
C85	C	0.031869	0.218655	0.285424
C86	C	0.531869	0.718655	0.785424
C87	C	-0.022736	0.218662	0.285422
C88	C	0.477264	0.718662	0.785422
C89	C	-0.022782	0.285441	0.218423
C90	C	0.477218	0.785441	0.718423
C91	C	0.031819	0.285433	0.218423
C92	C	0.531819	0.785433	0.718423
C93	C	0.059143	0.252039	0.251928
C94	C	0.559143	0.752039	0.751928
O95	O	0.118180	0.313789	0.189941
O96	O	0.618180	0.813789	0.689941
O97	O	0.118312	0.190258	0.313919
O98	O	0.618312	0.690258	0.813919
C99	C	0.755351	0.387854	0.251872
C100	C	1.255351	0.887854	0.751872
C101	C	0.755357	0.445968	0.251877
C102	C	1.255357	0.945968	0.751877
C103	C	0.788932	0.806329	0.218502
C104	C	1.288932	1.306329	0.718502
C105	C	0.788948	0.860934	0.218507
C106	C	1.288948	1.360934	0.718507
O107	O	0.817424	0.889169	0.190113
O108	O	1.317424	1.389169	0.690113
N109	N	0.755492	0.888251	0.251912
N110	N	1.255492	1.388251	0.751912
C111	C	0.722022	0.860961	0.285319
C112	C	1.222022	1.360961	0.785319
O113	O	0.693568	0.889210	0.313734
O114	O	1.193568	1.389210	0.813734
C115	C	0.722009	0.806357	0.285316
C116	C	1.222009	1.306357	0.785316
C117	C	0.755463	0.779043	0.251905
C118	C	1.255463	1.279043	0.751905
C119	C	0.822383	0.779015	0.185093
C120	C	1.322383	1.279015	0.685093
C121	C	0.822366	0.724415	0.185087
C122	C	1.322366	1.224415	0.685087
C123	C	0.788898	0.697128	0.218490
C124	C	1.288898	1.197128	0.718490
C125	C	0.755446	0.724442	0.251899
C126	C	1.255446	1.224442	0.751899
C127	C	0.688543	0.779068	0.318725
C128	C	1.188543	1.279068	0.818725
C129	C	0.688533	0.724461	0.318720
C130	C	1.188533	1.224461	0.818720
C131	C	0.721987	0.697147	0.285308
C132	C	1.221987	1.197147	0.785308
C133	C	0.721961	0.642556	0.285296
C134	C	1.221961	1.142556	0.785296
N135	N	0.755417	0.615239	0.251891
N136	N	1.255417	1.115239	0.751891
C137	C	0.788885	0.642525	0.218488
C138	C	1.288885	1.142525	0.718488
C139	C	0.722053	0.975631	0.285323
C140	C	1.222053	1.475631	0.785323
C141	C	0.722063	1.030233	0.285324
C142	C	1.222063	1.530233	0.785324
C143	C	0.788989	1.030203	0.218512
C144	C	1.288989	1.530203	0.718512
C145	C	0.788976	0.975600	0.218509
C146	C	1.288976	1.475600	0.718509
C147	C	0.755508	0.948314	0.251917
C148	C	1.255508	1.448314	0.751917
C149	C	0.788847	0.527860	0.218478
C150	C	1.288847	1.027860	0.718478
C151	C	0.788825	0.473255	0.218474
C152	C	1.288825	0.973255	0.718474
C153	C	0.721902	0.473290	0.285288
C154	C	1.221902	0.973290	0.785288
C155	C	0.721921	0.527891	0.285290
C156	C	1.221921	1.027891	0.785290
C157	C	0.755398	0.555174	0.251884
C158	C	1.255398	1.055174	0.751884
O159	O	0.693501	0.614286	0.313677
O160	O	1.193501	1.114286	0.813677
O161	O	0.817340	0.614269	0.190082
O162	O	1.317340	1.114269	0.690082
C163	C	0.891823	0.252040	0.251918
C164	C	1.391823	0.752040	0.751918
C165	C	0.949937	0.252053	0.251925
C166	C	1.449937	0.752053	0.751925
C167	C	0.755461	0.251997	0.388274
C168	C	1.255461	0.751997	0.888274
C169	C	0.755466	0.251991	0.446388
C170	C	1.255466	0.751991	0.946388
C171	C	0.755544	1.115639	0.251932
C172	C	1.255544	1.615639	0.751932
C173	C	0.755533	1.057525	0.251922
C174	C	1.255533	1.557525	0.751922
C175	C	0.755469	0.251989	0.116058
C176	C	1.255469	0.751989	0.616058
C177	C	0.755566	0.251848	0.057944
C178	C	1.255566	0.751848	0.557944
C179	C	0.722033	0.285358	0.697562
C180	C	1.222033	0.785358	1.197562
C181	C	0.722024	0.285370	0.642957
C182	C	1.222024	0.785370	1.142957
O183	O	0.693547	0.313792	0.614704
O184	O	1.193547	0.813792	1.114704
N185	N	0.755486	0.251948	0.615662
N186	N	1.255486	0.751948	1.115662
C187	C	0.788956	0.218509	0.642974
C188	C	1.288956	0.718509	1.142974
O189	O	0.817417	0.190082	0.614743
O190	O	1.317417	0.690082	1.114743
C191	C	0.788962	0.218495	0.697577
C192	C	1.288962	0.718495	1.197577
C193	C	0.755501	0.251922	0.724869
C194	C	1.255501	0.751922	1.224869
C195	C	0.688574	0.318782	0.724854
C196	C	1.188574	0.818782	1.224854
C197	C	0.688584	0.318771	0.779455
C198	C	1.188584	0.818771	1.279455
C199	C	0.722053	0.285336	0.806763
C200	C	1.222053	0.785336	1.306763
C201	C	0.755511	0.251911	0.779470
C202	C	1.255511	0.751911	1.279470
C203	C	0.822429	0.185054	0.724888
C204	C	1.322429	0.685054	1.224888
C205	C	0.822432	0.185042	0.779495
C206	C	1.322432	0.685042	1.279495
C207	C	0.788971	0.218470	0.806787
C208	C	1.288971	0.718470	1.306787
C209	C	0.788990	0.218465	0.861379
C210	C	1.288990	0.718465	1.361379
N211	N	0.755527	0.251886	0.888674
N212	N	1.255527	0.751886	1.388674
C213	C	0.722059	0.285322	0.861366
C214	C	1.222059	0.785322	1.361366
C215	C	0.788940	0.218540	0.528303
C216	C	1.288940	0.718540	1.028303
C217	C	0.788937	0.218557	0.473701
C218	C	1.288937	0.718557	0.973701
C219	C	0.722004	0.285417	0.473688
C220	C	1.222004	0.785417	0.973688
C221	C	0.722010	0.285403	0.528291
C222	C	1.222010	0.785403	1.028291
C223	C	0.755477	0.251962	0.555598
C224	C	1.255477	0.751962	1.055598
C225	C	0.722083	0.285296	0.976031
C226	C	1.222083	0.785296	1.476031
C227	C	0.722097	0.285283	1.030637
C228	C	1.222097	0.785283	1.530637
C229	C	0.789028	0.218421	1.030644
C230	C	1.289028	0.718421	1.530644
C231	C	0.789016	0.218436	0.976044
C232	C	1.289016	0.718436	1.476044
C233	C	0.755539	0.251875	0.948738
C234	C	1.255539	0.751875	1.448738
O235	O	0.817450	0.190055	0.889667
O236	O	1.317450	0.690055	1.389667
O237	O	0.693598	0.313739	0.889603
O238	O	1.193598	0.813739	1.389603
H239	H	0.305308	0.158049	0.346190
H240	H	0.805308	0.658049	0.846190
O241	O	0.854851	0.152540	0.698334
O242	O	1.354851	0.652540	1.198334
C243	C	0.861905	0.081910	0.636759
C244	C	1.361905	0.581910	1.136759
C245	C	0.825132	0.118719	0.666783
C246	C	1.325132	0.618719	1.166783
H247	H	0.837892	0.054549	0.611251
H248	H	1.337892	0.554549	1.111251
H249	H	0.889228	0.105870	0.611149
H250	H	1.389228	0.605870	1.111149
H251	H	0.885823	0.058036	0.665683
H252	H	1.385823	0.558036	1.165683
H253	H	0.801181	0.142600	0.637897
H254	H	1.301181	0.642600	1.137897
H255	H	0.797844	0.094728	0.692401
H256	H	1.297844	0.594728	1.192401
H257	H	0.457406	0.191413	0.312676
H258	H	0.957406	0.691413	0.812676
H259	H	0.849609	0.702179	0.157882
H260	H	1.349609	1.202179	0.657882
H261	H	0.694818	0.312520	0.953806
H262	H	1.194818	0.812520	1.453806
H263	H	0.661336	0.345990	0.801671
H264	H	1.161336	0.845990	1.301671
H265	H	0.206262	0.158058	0.346195
H266	H	0.706262	0.658058	0.846195
H267	H	0.694849	0.312506	1.052856
H268	H	1.194849	0.812506	1.552856
H269	H	0.556471	0.191407	0.312666
H270	H	1.056471	0.691407	0.812666
O271	O	0.821449	0.949126	0.185983
O272	O	1.321449	1.449126	0.685983
C273	C	0.846869	0.932420	0.097066
C274	C	1.346869	1.432420	0.597066
C275	C	0.810067	0.962440	0.133844
C276	C	1.310067	1.462440	0.633844
H277	H	0.837672	0.943165	0.054904
H278	H	1.337672	1.443165	0.554904
H279	H	0.889031	0.943130	0.106245
H280	H	1.389031	1.443130	0.606245
H281	H	0.841124	0.888708	0.102826
H282	H	1.341124	1.388708	0.602826
H283	H	0.815765	1.006158	0.128105
H284	H	1.315765	1.506158	0.628105
H285	H	0.767917	0.951687	0.124657
H286	H	1.267917	1.451687	0.624657
H287	H	0.661317	0.346009	0.702626
H288	H	1.161317	0.846009	1.202626
H289	H	0.816266	0.191220	0.953821
H290	H	1.316266	0.691220	1.453821
H291	H	0.694763	0.312622	0.550509
H292	H	1.194763	0.812622	1.050509
H293	H	0.694795	0.953418	0.312527
H294	H	1.194795	1.453418	0.812527
H295	H	0.694751	0.312641	0.451444
H296	H	1.194751	0.812641	0.951444
H297	H	0.816189	0.191342	0.451484
H298	H	1.316189	0.691342	0.951484
O299	O	0.560572	0.317853	0.185827
O300	O	1.060572	0.817853	0.685827
C301	C	0.554744	0.384066	0.119351
C302	C	1.054744	0.884066	0.619351
C303	C	0.524773	0.347314	0.156209
C304	C	1.024773	0.847314	0.656209
H305	H	0.525814	0.407887	0.095387
H306	H	1.025814	0.907887	0.595387
H307	H	0.580285	0.411475	0.143276
H308	H	1.080285	0.911475	0.643276
H309	H	0.580328	0.360013	0.092076
H310	H	1.080328	0.860013	0.592076
H311	H	0.499161	0.371324	0.183491
H312	H	0.999161	0.871324	0.683491
H313	H	0.499265	0.319903	0.132252
H314	H	0.999265	0.819903	0.632252
O315	O	-0.049253	0.186172	0.317893
O316	O	0.450747	0.686172	0.817893
C317	C	-0.110884	0.115617	0.325069
C318	C	0.389116	0.615617	0.825069
C319	C	-0.080879	0.152367	0.288236
C320	C	0.419121	0.652367	0.788236
H321	H	-0.136469	0.088284	0.301107
H322	H	0.363531	0.588284	0.801107
H323	H	-0.081993	0.091715	0.349001
H324	H	0.418007	0.591715	0.849001
H325	H	-0.136429	0.139674	0.352375
H326	H	0.363571	0.639674	0.852375
H327	H	-0.055333	0.128350	0.260899
H328	H	0.444667	0.628350	0.760899
H329	H	-0.109798	0.176271	0.264341
H330	H	0.390202	0.676271	0.764341
H331	H	0.305153	0.345994	0.157640
H332	H	0.805153	0.845994	0.657640
H333	H	0.816197	0.191310	0.550533
H334	H	1.316197	0.691310	1.050533
O335	O	0.058326	0.186167	0.317986
O336	O	0.558326	0.686167	0.817986
C337	C	0.052598	0.119953	0.384460
C338	C	0.552598	0.619953	0.884460
C339	C	0.022571	0.156713	0.347605
C340	C	0.522571	0.656713	0.847605
H341	H	0.023703	0.096137	0.408424
H342	H	0.523703	0.596137	0.908424
H343	H	0.078155	0.092539	0.360532
H344	H	0.578155	0.592539	0.860532
H345	H	0.078170	0.143999	0.411734
H346	H	0.578170	0.643999	0.911734
H347	H	-0.003029	0.132709	0.320323
H348	H	0.496971	0.632709	0.820323
H349	H	-0.002953	0.184127	0.371565
H350	H	0.497047	0.684127	0.871565
H351	H	0.457315	0.312577	0.191119
H352	H	0.957315	0.812577	0.691119
H353	H	0.206104	0.346007	0.157654
H354	H	0.706104	0.846007	0.657654
H355	H	0.694682	0.550131	0.312498
H356	H	1.194682	1.050131	0.812498
O357	O	0.058235	0.317916	0.185864
O358	O	0.558235	0.817916	0.685864
C359	C	0.052416	0.384135	0.119394
C360	C	0.552416	0.884135	0.619394
C361	C	0.022440	0.347378	0.156243
C362	C	0.522440	0.847378	0.656243
H363	H	0.023489	0.407958	0.095428
H364	H	0.523489	0.907958	0.595428
H365	H	0.077952	0.411543	0.143326
H366	H	0.577952	0.911543	0.643326
H367	H	0.078006	0.360087	0.092121
H368	H	0.578006	0.860087	0.592121
H369	H	-0.003177	0.371384	0.183524
H370	H	0.496823	0.871384	0.683524
H371	H	-0.003062	0.319969	0.132279
H372	H	0.496938	0.819969	0.632279
O373	O	0.689442	0.446698	0.317718
O374	O	1.189442	0.946698	0.817718
C375	C	0.659750	0.362585	0.347297
C376	C	1.159750	0.862585	0.847297
C377	C	0.696541	0.392637	0.310548
C378	C	1.196541	0.892637	0.810548
H379	H	0.665468	0.318871	0.341505
H380	H	1.165468	0.818871	0.841505
H381	H	0.668907	0.373251	0.389477
H382	H	1.168907	0.873251	0.889477
H383	H	0.617604	0.373390	0.338088
H384	H	1.117604	0.873390	0.838088
H385	H	0.738700	0.381848	0.319710
H386	H	1.238700	0.881848	0.819710
H387	H	0.687338	0.381968	0.268379
H388	H	1.187338	0.881968	0.768379
O389	O	-0.049413	0.317859	0.185936
O390	O	0.450587	0.817859	0.685936
C391	C	-0.133561	0.347438	0.156238
C392	C	0.366439	0.847438	0.656238
C393	C	-0.103465	0.310703	0.193061
C394	C	0.396535	0.810703	0.693061
H395	H	-0.177268	0.341657	0.161979
H396	H	0.322732	0.841657	0.661979
H397	H	-0.122886	0.389621	0.165345
H398	H	0.377114	0.889621	0.665345
H399	H	-0.122805	0.338205	0.114099
H400	H	0.377195	0.838205	0.614099
H401	H	-0.114205	0.319889	0.235213
H402	H	0.385795	0.819889	0.735213
H403	H	-0.114143	0.268531	0.183910
H404	H	0.385857	0.768531	0.683910
H405	H	0.849684	0.157807	0.801725
H406	H	1.349684	0.657807	1.301725
O407	O	0.854912	0.805435	0.152592
O408	O	1.354912	1.305435	0.652592
C409	C	0.921306	0.799624	0.086339
C410	C	1.421306	1.299624	0.586339
C411	C	0.884486	0.769644	0.123118
C412	C	1.384486	1.269644	0.623118
H413	H	0.945234	0.770699	0.062508
H414	H	1.445234	1.270699	0.562508
H415	H	0.897354	0.825204	0.058942
H416	H	1.397354	1.325204	0.558942
H417	H	0.948616	0.825169	0.110372
H418	H	1.448616	1.325169	0.610372
H419	H	0.857169	0.744070	0.099128
H420	H	1.357169	1.244070	0.599128
H421	H	0.908471	0.744096	0.150517
H422	H	1.408471	1.244096	0.650517
O423	O	0.821374	0.446803	0.186000
O424	O	1.321374	0.946803	0.686000
C425	C	0.887734	0.452546	0.119710
C426	C	1.387734	0.952546	0.619710
C427	C	0.850909	0.482564	0.156466
C428	C	1.350909	0.982564	0.656466
H429	H	0.911615	0.481445	0.095814
H430	H	1.411615	0.981445	0.595814
H431	H	0.915083	0.426959	0.143711
H432	H	1.415083	0.926959	0.643711
H433	H	0.863734	0.427004	0.092367
H434	H	1.363734	0.927004	0.592367
H435	H	0.874866	0.508134	0.183816
H436	H	1.374866	1.008134	0.683816
H437	H	0.823558	0.508118	0.132432
H438	H	1.323558	1.008118	0.632432
H439	H	0.661280	0.702248	0.345927
H440	H	1.161280	1.202248	0.845927
O441	O	0.821427	0.554377	0.186105
O442	O	1.321427	1.054377	0.686105
C443	C	0.892039	0.615966	0.179142
C444	C	1.392039	1.115966	0.679142
C445	C	0.855182	0.585962	0.215864
C446	C	1.355182	1.085962	0.715864
H447	H	0.919332	0.641517	0.203186
H448	H	1.419332	1.141517	0.703186
H449	H	0.915979	0.587075	0.155280
H450	H	1.415979	1.087075	0.655280
H451	H	0.868063	0.641545	0.151765
H452	H	1.368063	1.141545	0.651765
H453	H	0.879118	0.560382	0.243272
H454	H	1.379118	1.060382	0.743272
H455	H	0.831240	0.614881	0.239689
H456	H	1.331240	1.114881	0.739689
H457	H	0.816242	1.052429	0.191315
H458	H	1.316242	1.552429	0.691315
O459	O	0.821462	0.185888	1.057201
O460	O	1.321462	0.685888	1.557201
C461	C	0.828551	0.115312	1.118895
C462	C	1.328551	0.615312	1.618895
C463	C	0.791764	0.152118	1.088841
C464	C	1.291764	0.652118	1.588841
H465	H	0.804555	0.088008	1.144491
H466	H	1.304555	0.588008	1.644491
H467	H	0.852458	0.091382	1.090037
H468	H	1.352458	0.591382	1.590037
H469	H	0.855883	0.139328	1.144434
H470	H	1.355883	0.639328	1.644434
H471	H	0.764400	0.128143	1.063301
H472	H	1.264400	0.628143	1.563301
H473	H	0.767893	0.176050	1.117727
H474	H	1.267893	0.676050	1.617727
O475	O	0.689618	1.056739	0.317851
O476	O	1.189618	1.556739	0.817851
C477	C	0.664155	1.073389	0.406765
C478	C	1.164155	1.573389	0.906765
C479	C	0.700938	1.043351	0.369984
C480	C	1.200938	1.543351	0.869984
H481	H	0.673287	1.062568	0.448922
H482	H	1.173287	1.562568	0.948922
H483	H	0.669913	1.117110	0.401082
H484	H	1.169913	1.617110	0.901082
H485	H	0.622004	1.062700	0.397515
H486	H	1.122004	1.562700	0.897515
H487	H	0.743103	1.053997	0.379212
H488	H	1.243103	1.553997	0.879212
H489	H	0.695135	0.999638	0.375674
H490	H	1.195135	1.499638	0.875674
O491	O	0.656030	0.805512	0.351233
O492	O	1.156030	1.305512	0.851233
C493	C	0.589636	0.799755	0.417487
C494	C	1.089636	1.299755	0.917487
C495	C	0.626439	0.769745	0.380704
C496	C	1.126439	1.269745	0.880704
H497	H	0.565694	0.770851	0.441316
H498	H	1.065694	1.270851	0.941316
H499	H	0.613602	0.825268	0.444887
H500	H	1.113602	1.325268	0.944887
H501	H	0.562338	0.825370	0.393458
H502	H	1.062338	1.325370	0.893458
H503	H	0.653745	0.744101	0.404690
H504	H	1.153745	1.244101	0.904690
H505	H	0.602441	0.744264	0.353303
H506	H	1.102441	1.244264	0.853303
