data_functionalizedCrystal
_audit_creation_method	'MofGen! by Chris Wilmer'
_symmetry_space_group_name_H-M	'P1'
_symmetry_Int_Tables_number	1
_symmetry_cell_setting	triclinic
loop_
_symmetry_equiv_pos_as_xyz
  x,y,z
_cell_length_a	31.640172
_cell_length_b	18.878441
_cell_length_c	31.640172
_cell_angle_alpha	119.999984
_cell_angle_beta	89.990838
_cell_angle_gamma	59.997147
loop_
_atom_site_label
_atom_site_type_symbol
_atom_site_fract_x
_atom_site_fract_y
_atom_site_fract_z
Zr1	Zr	0.407168	0.775272	0.055403
Zr2	Zr	0.907168	1.275272	0.555403
O3	O	0.339666	0.923078	0.122900
O4	O	0.839666	1.423078	0.622900
O5	O	0.427861	0.627486	0.034713
O6	O	0.927861	1.127486	0.534713
O7	O	0.427846	0.775282	0.122890
O8	O	0.927846	1.275282	0.622890
O9	O	0.339692	0.775266	-0.034835
O10	O	0.839692	1.275266	0.465165
O11	O	0.497403	0.775267	0.122881
O12	O	0.997403	1.275267	0.622881
O13	O	0.339681	0.775281	0.034723
O14	O	0.839681	1.275281	0.534723
O15	O	0.497430	0.510886	-0.034852
O16	O	0.997430	1.010886	0.465148
O17	O	0.339665	1.039647	0.122898
O18	O	0.839665	1.539647	0.622898
O19	O	0.488595	0.688254	0.025880
O20	O	0.988595	1.188254	0.525880
O21	O	0.436694	0.688253	-0.026023
O22	O	0.936694	1.188253	0.473977
O23	O	0.436676	0.862265	0.077795
O24	O	0.936676	1.362265	0.577795
O25	O	0.384775	0.862264	0.025892
O26	O	0.884775	1.362264	0.525892
Zr27	Zr	0.518120	0.775224	-0.055548
Zr28	Zr	1.018120	1.275224	0.444452
Zr29	Zr	0.518103	0.775248	0.055388
Zr30	Zr	1.018103	1.275248	0.555388
Zr31	Zr	0.407185	0.775248	-0.055533
Zr32	Zr	0.907185	1.275248	0.444467
Zr33	Zr	0.407166	0.961186	0.055400
Zr34	Zr	0.907166	1.461186	0.555400
Zr35	Zr	0.518122	0.589310	-0.055545
Zr36	Zr	1.018122	1.089310	0.444455
O37	O	0.497427	0.923010	-0.034858
O38	O	0.997427	1.423010	0.465142
O39	O	0.497402	0.923045	0.122879
O40	O	0.997402	1.423045	0.622879
O41	O	0.339691	0.923044	-0.034837
O42	O	0.839691	1.423044	0.465163
O43	O	0.585621	0.627418	-0.123044
O44	O	1.085621	1.127418	0.376956
O45	O	0.585597	0.627452	0.034692
O46	O	1.085597	1.127452	0.534692
O47	O	0.427885	0.627451	-0.123023
O48	O	0.927885	1.127451	0.376977
O49	O	0.585596	0.775229	0.034690
O50	O	1.085596	1.275229	0.534690
O51	O	0.497441	0.775214	-0.123035
O52	O	0.997441	1.275214	0.376965
O53	O	0.427884	0.775228	-0.123025
O54	O	0.927884	1.275228	0.376975
O55	O	0.585607	0.775214	-0.034867
O56	O	1.085607	1.275214	0.465133
O57	O	0.427844	1.039629	0.122886
O58	O	0.927844	1.539629	0.622886
O59	O	0.497443	0.510867	-0.123031
O60	O	0.997443	1.010867	0.376969
O61	O	0.585622	0.510849	-0.123043
O62	O	1.085622	1.010849	0.376957
O63	O	0.585609	0.510868	-0.034864
O64	O	1.085609	1.010868	0.465136
O65	O	0.339679	1.039628	0.034719
O66	O	0.839679	1.539628	0.534719
O67	O	0.427858	1.039609	0.034707
O68	O	0.927858	1.539609	0.534707
O69	O	0.488611	0.688231	-0.077939
O70	O	0.988611	1.188231	0.422061
O71	O	0.540513	0.688231	-0.026036
O72	O	1.040513	1.188231	0.473964
O73	O	0.488594	0.862242	0.025878
O74	O	0.988594	1.362242	0.525878
O75	O	0.436692	0.862242	-0.026025
O76	O	0.936692	1.362242	0.473975
C77	C	0.462646	0.542697	-0.000069
C78	C	0.962646	1.042697	0.499931
C79	C	0.462646	0.463772	-0.000068
C80	C	0.962646	0.963772	0.499932
C81	C	0.489737	0.426692	0.027025
C82	C	0.989737	0.926692	0.527025
C83	C	0.489739	0.352528	0.027021
C84	C	0.989739	0.852528	0.527021
C85	C	0.462647	0.315449	-0.000073
C86	C	0.962647	0.815449	0.499927
C87	C	0.435555	0.352532	-0.027170
C88	C	0.935555	0.852532	0.472830
C89	C	0.435556	0.426690	-0.027169
C90	C	0.935556	0.926690	0.472831
C91	C	0.435553	0.197965	-0.027169
C92	C	0.935553	0.697965	0.472831
C93	C	0.435551	0.123803	-0.027170
C94	C	0.935551	0.623803	0.472830
C95	C	0.489736	0.123804	0.027021
C96	C	0.989736	0.623804	0.527021
C97	C	0.489737	0.197961	0.027022
C98	C	0.989737	0.697961	0.527022
C99	C	0.462644	0.235040	-0.000074
C100	C	0.962644	0.735040	0.499926
C101	C	0.323881	0.775277	-0.000054
C102	C	0.823881	1.275277	0.499946
C103	C	0.276786	0.775287	-0.000048
C104	C	0.776786	1.275287	0.499952
C105	C	0.011881	0.684407	-0.027181
C106	C	0.511881	1.184407	0.472819
C107	C	-0.165104	0.684389	-0.027192
C108	C	0.334896	1.184389	0.472808
O109	O	-0.164942	0.607139	-0.050257
O110	O	0.335058	1.107139	0.449743
N111	N	-0.214335	0.775220	-0.000092
N112	N	0.285665	1.275220	0.499908
C113	C	-0.219319	0.866062	0.027009
C114	C	0.280681	1.366062	0.527009
O115	O	-0.265254	0.943320	0.050054
O116	O	0.234746	1.443320	0.550054
C117	C	-0.042335	0.866079	0.027016
C118	C	0.457665	1.366079	0.527016
C119	C	0.006896	0.775242	-0.000081
C120	C	0.506896	1.275242	0.499919
C121	C	0.061109	0.593577	-0.054277
C122	C	0.561109	1.093577	0.445723
C123	C	0.105352	0.593582	-0.054271
C124	C	0.605352	1.093582	0.445729
C125	C	0.100367	0.684417	-0.027171
C126	C	0.600367	1.184417	0.472829
C127	C	0.051139	0.775247	-0.000076
C128	C	0.551139	1.275247	0.499924
C129	C	-0.047319	0.956920	0.054113
C130	C	0.452681	1.456920	0.554113
C131	C	-0.003068	0.956916	0.054112
C132	C	0.496932	1.456916	0.554112
C133	C	0.046163	0.866079	0.027015
C134	C	0.546163	1.366079	0.527015
C135	C	0.090398	0.866087	0.027029
C136	C	0.590398	1.366087	0.527029
N137	N	0.139629	0.775256	-0.000070
N138	N	0.639629	1.275256	0.499930
C139	C	0.144613	0.684421	-0.027170
C140	C	0.644613	1.184421	0.472830
C141	C	-0.312237	0.866047	0.027004
C142	C	0.187763	1.366047	0.527004
C143	C	-0.356483	0.866044	0.027003
C144	C	0.143517	1.366044	0.527003
C145	C	-0.302265	0.684370	-0.027198
C146	C	0.197735	1.184370	0.472802
C147	C	-0.258018	0.684375	-0.027194
C148	C	0.241982	1.184375	0.472806
C149	C	-0.263006	0.775216	-0.000095
C150	C	0.236994	1.275216	0.499905
C151	C	0.237526	0.684439	-0.027157
C152	C	0.737526	1.184439	0.472843
C153	C	0.281770	0.684452	-0.027148
C154	C	0.781770	1.184452	0.472852
C155	C	0.227549	0.866125	0.027051
C156	C	0.727549	1.366125	0.527051
C157	C	0.183308	0.866112	0.027044
C158	C	0.683308	1.366112	0.527044
C159	C	0.188300	0.775261	-0.000064
C160	C	0.688300	1.275261	0.499936
O161	O	0.090274	0.943296	0.050078
O162	O	0.590274	1.443296	0.550078
O163	O	0.190552	0.607175	-0.050221
O164	O	0.690552	1.107175	0.449779
C165	C	-0.032363	0.684401	-0.027187
C166	C	0.467637	1.184401	0.472813
C167	C	-0.081591	0.775231	-0.000091
C168	C	0.418409	1.275231	0.499909
C169	C	-0.086576	0.866066	0.027009
C170	C	0.413424	1.366066	0.527009
C171	C	-0.125837	0.775227	-0.000092
C172	C	0.374163	1.275227	0.499908
C173	C	-0.120852	0.684392	-0.027193
C174	C	0.379148	1.184392	0.472807
C175	C	-0.071621	0.593561	-0.054292
C176	C	0.428379	1.093561	0.445708
C177	C	-0.027378	0.593566	-0.054287
C178	C	0.472622	1.093566	0.445713
C179	C	-0.135807	0.956897	0.054108
C180	C	0.364193	1.456897	0.554108
C181	C	-0.180048	0.956885	0.054101
C182	C	0.319952	1.456885	0.554101
C183	C	-0.175063	0.866050	0.027001
C184	C	0.324937	1.366050	0.527001
C185	C	0.601407	0.775219	-0.000091
C186	C	1.101407	1.275219	0.499909
C187	C	0.648502	0.775209	-0.000097
C188	C	1.148502	1.275209	0.499903
C189	C	0.462622	0.775278	0.138691
C190	C	0.962622	1.275278	0.638691
C191	C	0.462615	0.775288	0.185786
C192	C	0.962615	1.275288	0.685786
C193	C	0.462642	1.007799	-0.000075
C194	C	0.962642	1.507799	0.499925
C195	C	0.462642	1.086724	-0.000077
C196	C	0.962642	1.586724	0.499923
C197	C	0.500968	0.775241	0.477790
C198	C	1.000968	1.275241	0.977790
C199	C	0.500978	0.775235	0.654778
C200	C	1.000978	1.275235	1.154778
O201	O	0.533581	0.775184	0.677647
O202	O	1.033581	1.275184	1.177647
N203	N	0.462657	0.775246	0.676914
N204	N	0.962657	1.275246	1.176914
C205	C	0.424334	0.775251	0.654799
C206	C	0.924334	1.275251	1.154799
O207	O	0.391743	0.775250	0.677685
O208	O	0.891743	1.275250	1.177685
C209	C	0.424327	0.775250	0.477809
C210	C	0.924327	1.275250	0.977809
C211	C	0.462647	0.775250	0.455678
C212	C	0.962647	1.275250	0.955678
C213	C	0.539285	0.775239	0.455659
C214	C	1.039285	1.275239	0.955659
C215	C	0.539281	0.775246	0.411416
C216	C	1.039281	1.275246	0.911416
C217	C	0.500959	0.775255	0.389304
C218	C	1.000959	1.275255	0.889304
C219	C	0.462642	0.775257	0.411435
C220	C	0.962642	1.275257	0.911435
C221	C	0.386006	0.775249	0.455692
C222	C	0.886006	1.275249	0.955692
C223	C	0.386008	0.775246	0.411441
C224	C	0.886008	1.275246	0.911441
C225	C	0.424328	0.775246	0.389310
C226	C	0.924328	1.275246	0.889310
C227	C	0.424316	0.775273	0.345081
C228	C	0.924316	1.275273	0.845081
N229	N	0.462637	0.775262	0.322945
N230	N	0.962637	1.275262	0.822945
C231	C	0.500958	0.775253	0.345057
C232	C	1.000958	1.275253	0.845057
C233	C	0.424339	0.775254	0.747721
C234	C	0.924339	1.275254	1.247721
C235	C	0.424341	0.775256	0.791969
C236	C	0.924341	1.275256	1.291969
C237	C	0.500985	0.775237	0.791945
C238	C	1.000985	1.275237	1.291945
C239	C	0.500982	0.775242	0.747699
C240	C	1.000982	1.275242	1.247699
C241	C	0.462660	0.775243	0.725585
C242	C	0.962660	1.275243	1.225585
C243	C	0.500946	0.775268	0.252144
C244	C	1.000946	1.275268	0.752144
C245	C	0.500937	0.775280	0.207898
C246	C	1.000937	1.275280	0.707898
C247	C	0.424294	0.775293	0.207924
C248	C	0.924294	1.275293	0.707924
C249	C	0.424301	0.775287	0.252167
C250	C	0.924301	1.275287	0.752167
C251	C	0.462631	0.775271	0.274275
C252	C	0.962631	1.275271	0.774275
O253	O	0.391734	0.775312	0.322182
O254	O	0.891734	1.275312	0.822182
O255	O	0.533551	0.775232	0.322156
O256	O	1.033551	1.275232	0.822156
C257	C	0.500973	0.775234	0.522033
C258	C	1.000973	1.275234	1.022033
C259	C	0.462655	0.775236	0.544164
C260	C	0.962655	1.275236	1.044164
C261	C	0.424334	0.775245	0.522052
C262	C	0.924334	1.275245	1.022052
C263	C	0.462657	0.775238	0.588412
C264	C	0.962657	1.275238	1.088412
C265	C	0.500978	0.775229	0.610523
C266	C	1.000978	1.275229	1.110523
C267	C	0.539299	0.775218	0.588387
C268	C	1.039299	1.275218	1.088387
C269	C	0.539294	0.775225	0.544145
C270	C	1.039294	1.275225	1.044145
C271	C	0.386013	0.775255	0.544188
C272	C	0.886013	1.275255	1.044188
C273	C	0.386021	0.775250	0.588431
C274	C	0.886021	1.275250	1.088431
C275	C	0.424342	0.775241	0.610543
C276	C	0.924342	1.275241	1.110543
C277	C	0.462663	0.775228	0.861167
C278	C	0.962663	1.275228	1.361167
C279	C	0.462662	0.775247	0.814081
C280	C	0.962662	1.275247	1.314081
C281	C	0.601409	0.542668	-0.000088
C282	C	1.101409	1.042668	0.499912
C283	C	0.648505	0.463732	-0.000093
C284	C	1.148505	0.963732	0.499907
C285	C	0.462667	0.542667	-0.138833
C286	C	0.962667	1.042667	0.361167
C287	C	0.462675	0.463731	-0.185927
C288	C	0.962675	0.963731	0.314073
C289	C	0.601430	0.542638	-0.138851
C290	C	1.101430	1.042638	0.361149
C291	C	0.648533	0.463692	-0.185951
C292	C	1.148533	0.963692	0.314049
C293	C	0.323857	1.007858	0.138707
C294	C	0.823857	1.507858	0.638707
C295	C	0.276754	1.086804	0.185807
C296	C	0.776754	1.586804	0.685807
C297	C	0.323879	1.007828	-0.000057
C298	C	0.823879	1.507828	0.499943
C299	C	0.276783	1.086763	-0.000052
C300	C	0.776783	1.586763	0.499948
C301	C	0.462621	1.007829	0.138688
C302	C	0.962621	1.507829	0.638688
C303	C	0.462613	1.086765	0.185782
C304	C	0.962613	1.586765	0.685782
C305	C	0.643521	0.426675	0.027009
C306	C	1.143521	0.926675	0.527009
C307	C	0.687768	0.352517	0.027015
C308	C	1.187768	0.852517	0.527015
C309	C	0.736998	0.315412	-0.000085
C310	C	1.236998	0.815412	0.499915
C311	C	0.741981	0.352477	-0.027188
C312	C	1.241981	0.852477	0.472812
C313	C	0.697734	0.426639	-0.027190
C314	C	1.197734	0.926639	0.472810
C315	C	0.489779	0.426650	-0.235147
C316	C	0.989779	0.926650	0.264853
C317	C	0.489785	0.352492	-0.279401
C318	C	0.989785	0.852492	0.220599
C319	C	0.462689	0.315411	-0.274434
C320	C	0.962689	0.815411	0.225566
C321	C	0.435581	0.352499	-0.225208
C322	C	0.935581	0.852499	0.274792
C323	C	0.435573	0.426661	-0.180955
C324	C	0.935573	0.926661	0.319045
C325	C	0.697750	0.426618	-0.180978
C326	C	1.197750	0.926618	0.319022
C327	C	0.742012	0.352450	-0.225229
C328	C	1.242012	0.852450	0.274771
C329	C	0.737057	0.315353	-0.274454
C330	C	1.237057	0.815353	0.225546
C331	C	0.687835	0.352434	-0.279427
C332	C	1.187835	0.852434	0.220573
C333	C	0.643574	0.426605	-0.235176
C334	C	1.143574	0.926605	0.264824
C335	C	0.227538	1.123887	0.180833
C336	C	0.727538	1.623887	0.680833
C337	C	0.183275	1.198077	0.225084
C338	C	0.683275	1.698077	0.725084
C339	C	0.188231	1.235179	0.274309
C340	C	0.688231	1.735179	0.774309
C341	C	0.237453	1.198093	0.279282
C342	C	0.737453	1.698093	0.779282
C343	C	0.281714	1.123909	0.235031
C344	C	0.781714	1.623909	0.735031
C345	C	0.281767	1.123829	-0.027149
C346	C	0.781767	1.623829	0.472851
C347	C	0.237520	1.198007	-0.027143
C348	C	0.737520	1.698007	0.472857
C349	C	0.188290	1.235114	-0.000041
C350	C	0.688290	1.735114	0.499959
C351	C	0.183307	1.198046	0.027060
C352	C	0.683307	1.698046	0.527060
C353	C	0.227553	1.123874	0.027056
C354	C	0.727553	1.623874	0.527056
C355	C	0.489714	1.123822	0.180798
C356	C	0.989714	1.623822	0.680798
C357	C	0.489717	1.197981	0.225044
C358	C	0.989717	1.697981	0.725044
C359	C	0.462615	1.235086	0.274273
C360	C	0.962615	1.735086	0.774273
C361	C	0.435513	1.198021	0.279256
C362	C	0.935513	1.698021	0.779256
C363	C	0.435513	1.123858	0.235011
C364	C	0.935513	1.623858	0.735011
H365	H	0.413495	0.456881	-0.049229
H366	H	0.913495	0.956881	0.450771
Cl367	Cl	0.803885	0.305845	-0.218965
Cl368	Cl	1.303885	0.805845	0.281035
Cl369	Cl	0.523867	0.305879	-0.341278
Cl370	Cl	1.023867	0.805879	0.158722
H371	H	0.321856	0.610478	-0.049215
H372	H	0.821856	1.110478	0.450785
H373	H	0.321849	1.093622	-0.049222
H374	H	0.821849	1.593622	0.450778
Cl375	Cl	0.523790	1.077191	0.118915
Cl376	Cl	1.023790	1.577191	0.618915
Cl377	Cl	0.523786	0.305937	0.061095
Cl378	Cl	1.023786	0.805937	0.561095
H379	H	0.241481	1.228311	0.319366
H380	H	0.741481	1.728311	0.819366
H381	H	0.143221	0.940079	0.049116
H382	H	0.643221	1.440079	0.549116
Cl383	Cl	-0.241936	1.071092	0.088171
Cl384	Cl	0.258064	1.571092	0.588171
H385	H	0.701800	0.456801	-0.049263
H386	H	1.201800	0.956801	0.450737
H387	H	0.511795	0.228156	0.049087
H388	H	1.011795	0.728156	0.549087
Cl389	Cl	0.401499	0.473262	-0.119080
Cl390	Cl	0.901499	0.973262	0.380920
Cl391	Cl	0.523848	0.473249	-0.241406
Cl392	Cl	1.023848	0.973249	0.258594
H393	H	0.511795	0.093610	0.049083
H394	H	1.011795	0.593610	0.549083
Cl395	Cl	0.587473	0.775210	0.616195
Cl396	Cl	1.087473	1.275210	1.116195
Cl397	Cl	0.121403	1.244680	0.218821
Cl398	Cl	0.621403	1.744680	0.718821
H399	H	0.143217	1.228270	0.049125
H400	H	0.643217	1.728270	0.549125
H401	H	0.152186	1.295584	0.310337
H402	H	0.652186	1.795584	0.810337
H403	H	0.773022	0.255024	-0.000080
H404	H	1.273022	0.755024	0.499920
Cl405	Cl	0.703994	0.473247	-0.119100
Cl406	Cl	1.203994	0.973247	0.380900
Cl407	Cl	0.792706	0.222105	-0.330080
Cl408	Cl	1.292706	0.722105	0.169920
Cl409	Cl	0.376120	0.775305	0.180120
Cl410	Cl	0.876120	1.275305	0.680120
Cl411	Cl	0.549161	0.775224	0.819751
Cl412	Cl	1.049161	1.275224	1.319751
Cl413	Cl	0.523787	1.244568	0.218767
Cl414	Cl	1.023787	1.744568	0.718767
H415	H	0.683700	0.322348	0.049085
H416	H	1.183700	0.822348	0.549085
H417	H	0.462618	1.295474	0.310296
H418	H	0.962618	1.795474	0.810296
H419	H	0.241587	1.228176	-0.049213
H420	H	0.741587	1.728176	0.450787
H421	H	0.413447	1.228243	0.319344
H422	H	0.913447	1.728243	0.819344
H423	H	0.413520	0.322296	-0.221171
H424	H	0.913520	0.822296	0.278829
Cl425	Cl	0.401434	1.077290	0.241286
Cl426	Cl	0.901434	1.577290	0.741286
Cl427	Cl	0.401493	0.244577	-0.061233
Cl428	Cl	0.901493	0.744577	0.438767
H429	H	0.511796	0.456881	0.049091
H430	H	1.011796	0.956881	0.549091
H431	H	0.413489	0.093617	-0.049232
H432	H	0.913489	0.593617	0.450768
Cl433	Cl	0.462705	0.222176	-0.330072
Cl434	Cl	0.962705	0.722176	0.169928
Cl435	Cl	0.132670	1.328358	-0.000043
Cl436	Cl	0.632670	1.828358	0.499957
H437	H	0.241598	0.610459	-0.049231
H438	H	0.741598	1.110459	0.450769
H439	H	-0.139873	1.030868	0.076178
H440	H	0.360127	1.530868	0.576178
H441	H	0.145435	0.519613	-0.076334
H442	H	0.645435	1.019613	0.423666
Cl443	Cl	0.401504	0.305905	-0.061240
Cl444	Cl	0.901504	0.805905	0.438760
Cl445	Cl	0.067388	0.479368	-0.088351
Cl446	Cl	0.567388	0.979368	0.411649
Cl447	Cl	-0.196132	0.570176	-0.061261
Cl448	Cl	0.303868	1.070176	0.438739
H449	H	-0.316306	0.940026	0.049075
H450	H	0.183694	1.440026	0.549075
H451	H	0.393093	0.775302	0.270191
H452	H	0.893093	1.275302	0.770191
Cl453	Cl	0.221279	1.077280	0.061121
Cl454	Cl	0.721279	1.577280	0.561121
H455	H	0.393132	0.775272	0.809989
H456	H	0.893132	1.275272	1.309989
Cl457	Cl	-0.296006	0.570178	-0.061267
Cl458	Cl	0.203994	1.070178	0.438733
Cl459	Cl	0.681614	0.305784	-0.341314
Cl460	Cl	1.181614	0.805784	0.158686
H461	H	0.223493	1.093682	0.140756
H462	H	0.723493	1.593682	0.640756
Cl463	Cl	-0.418368	0.980244	0.061077
Cl464	Cl	0.081632	1.480244	0.561077
H465	H	-0.007134	1.030892	0.076172
H466	H	0.492866	1.530892	0.576172
Cl467	Cl	-0.109200	1.071123	0.088175
Cl468	Cl	0.390800	1.571123	0.588175
H469	H	0.321787	1.093717	0.239087
H470	H	0.821787	1.593717	0.739087
Cl471	Cl	0.221292	0.980312	0.061110
Cl472	Cl	0.721292	1.480312	0.561110
H473	H	0.603501	0.456781	-0.239233
H474	H	1.103501	0.956781	0.260767
Cl475	Cl	0.549113	0.775281	0.180080
Cl476	Cl	1.049113	1.275281	0.680080
H477	H	-0.067569	0.519600	-0.076355
H478	H	0.432431	1.019600	0.423645
Cl479	Cl	0.034507	0.479364	-0.088355
Cl480	Cl	0.534507	0.979364	0.411645
Cl481	Cl	0.549133	0.775251	0.279930
Cl482	Cl	1.049133	1.275251	0.779930
Cl483	Cl	0.587459	0.775235	0.383597
Cl484	Cl	1.087459	1.275235	0.883597
H485	H	0.570494	0.775228	0.473657
H486	H	1.070494	1.275228	0.973657
Cl487	Cl	0.803875	0.305816	-0.061257
Cl488	Cl	1.303875	0.805816	0.438743
Cl489	Cl	0.549158	0.775238	0.719881
Cl490	Cl	1.049158	1.275238	1.219881
Cl491	Cl	0.376158	0.775260	0.719928
Cl492	Cl	0.876158	1.275260	1.219928
Cl493	Cl	0.337829	0.775245	0.383643
Cl494	Cl	0.837829	1.275245	0.883643
Cl495	Cl	0.337831	0.775246	0.483503
Cl496	Cl	0.837831	1.275246	0.983503
H497	H	0.354812	0.775258	0.606449
H498	H	0.854812	1.275258	1.106449
Cl499	Cl	0.587471	0.775222	0.516328
Cl500	Cl	1.087471	1.275222	1.016328
H501	H	0.354808	0.775261	0.526187
H502	H	0.854808	1.275261	1.026187
H503	H	0.603439	0.456885	0.049084
H504	H	1.103439	0.956885	0.549084
