data_functionalizedCrystal
_audit_creation_method	'MofGen! by Chris Wilmer'
_symmetry_space_group_name_H-M	'P1'
_symmetry_Int_Tables_number	1
_symmetry_cell_setting	triclinic
loop_
_symmetry_equiv_pos_as_xyz
  x,y,z
_cell_length_a	21.395362
_cell_length_b	21.395356
_cell_length_c	21.395361
_cell_angle_alpha	89.969319
_cell_angle_beta	90.046585
_cell_angle_gamma	89.957023
loop_
_atom_site_label
_atom_site_type_symbol
_atom_site_fract_x
_atom_site_fract_y
_atom_site_fract_z
Zn1	Zn	0.957854	-0.354573	-0.249189
Zn2	Zn	1.457854	0.145427	0.250811
Zn3	Zn	0.957758	-0.249790	-0.353965
Zn4	Zn	1.457758	0.250210	0.146035
Zn5	Zn	0.853070	-0.249774	-0.249235
Zn6	Zn	1.353070	0.250226	0.250765
Zn7	Zn	0.853038	-0.354494	-0.353962
Zn8	Zn	1.353038	0.145506	0.146038
O9	O	0.905430	-0.302158	-0.301588
O10	O	1.405430	0.197842	0.198412
O11	O	1.045519	-0.340712	-0.263070
O12	O	1.545519	0.159288	0.236930
O13	O	0.943844	-0.162110	-0.340094
O14	O	1.443844	0.337890	0.159906
O15	O	0.867024	-0.263702	-0.161551
O16	O	1.367024	0.236298	0.338449
O17	O	1.045448	-0.263729	-0.340049
O18	O	1.545448	0.236271	0.159951
O19	O	0.944008	-0.340697	-0.161517
O20	O	1.444008	0.159303	0.338483
O21	O	0.866931	-0.162098	-0.263148
O22	O	1.366931	0.337902	0.236852
O23	O	0.765388	-0.263626	-0.263145
O24	O	1.265388	0.236374	0.236855
O25	O	0.866968	-0.442183	-0.340042
O26	O	1.366968	0.057817	0.159958
O27	O	0.765364	-0.340564	-0.340087
O28	O	1.265364	0.159436	0.159913
O29	O	0.943976	-0.442240	-0.263066
O30	O	1.443976	0.057760	0.236934
O31	O	0.943813	-0.263653	-0.441643
O32	O	1.443813	0.236347	0.058357
O33	O	0.866875	-0.340579	-0.441640
O34	O	1.366875	0.159421	0.058360
C35	C	0.742642	-0.302085	-0.301621
C36	C	1.242642	0.197915	0.198379
C37	C	0.673001	-0.302069	-0.301650
C38	C	1.173001	0.197931	0.198350
C39	C	0.640292	-0.342070	-0.341767
C40	C	1.140292	0.157930	0.158233
C41	C	0.574856	-0.342098	-0.341752
C42	C	1.074856	0.157902	0.158248
C43	C	0.542133	-0.302113	-0.301626
C44	C	1.042133	0.197887	0.198374
C45	C	0.574850	-0.262109	-0.261501
C46	C	1.074850	0.237891	0.238499
C47	C	0.640284	-0.262087	-0.261513
C48	C	1.140284	0.237913	0.238487
C49	C	0.438409	-0.245708	-0.296587
C50	C	0.938409	0.254292	0.203413
C51	C	0.372976	-0.245730	-0.296580
C52	C	0.872976	0.254270	0.203420
C53	C	0.340312	-0.302182	-0.301585
C54	C	0.840312	0.197818	0.198415
C55	C	0.373089	-0.358616	-0.306611
C56	C	0.873089	0.141384	0.193389
C57	C	0.438523	-0.358594	-0.306623
C58	C	0.938523	0.141406	0.193377
C59	C	0.471180	-0.302133	-0.301608
C60	C	0.971180	0.197867	0.198392
C61	C	0.236650	-0.342218	-0.341687
C62	C	0.736650	0.157782	0.158313
C63	C	0.171214	-0.342247	-0.341668
C64	C	0.671214	0.157753	0.158332
C65	C	0.171208	-0.262252	-0.261421
C66	C	0.671208	0.237748	0.238579
C67	C	0.236644	-0.262229	-0.261437
C68	C	0.736644	0.237771	0.238563
C69	C	0.269361	-0.302211	-0.301574
C70	C	0.769361	0.197789	0.198426
C71	C	0.905479	-0.465581	-0.301549
C72	C	1.405479	0.034419	0.198451
C73	C	0.905500	-0.535222	-0.301532
C74	C	1.405500	-0.035222	0.198468
C75	C	0.865462	-0.567919	-0.261462
C76	C	1.365462	-0.067919	0.238538
C77	C	0.865460	-0.633355	-0.261451
C78	C	1.365460	-0.133355	0.238549
C79	C	0.905507	-0.666091	-0.301502
C80	C	1.405507	-0.166091	0.198498
C81	C	0.945548	-0.633385	-0.341580
C82	C	1.445548	-0.133385	0.158420
C83	C	0.945545	-0.567951	-0.341595
C84	C	1.445545	-0.067951	0.158405
C85	C	0.961959	-0.769796	-0.306413
C86	C	1.461959	-0.269796	0.193587
C87	C	0.961964	-0.835229	-0.306393
C88	C	1.461964	-0.335229	0.193607
C89	C	0.905517	-0.867911	-0.301460
C90	C	1.405517	-0.367911	0.198540
C91	C	0.849065	-0.835153	-0.296533
C92	C	1.349065	-0.335153	0.203467
C93	C	0.849061	-0.769719	-0.296548
C94	C	1.349061	-0.269719	0.203452
C95	C	0.905515	-0.737043	-0.301491
C96	C	1.405515	-0.237043	0.198509
C97	C	0.865474	-0.971561	-0.261376
C98	C	1.365474	-0.471561	0.238624
C99	C	0.865470	-1.036998	-0.261368
C100	C	1.365470	-0.536998	0.238632
C101	C	0.945564	-1.037027	-0.341494
C102	C	1.445564	-0.537027	0.158506
C103	C	0.945562	-0.971592	-0.341505
C104	C	1.445562	-0.471592	0.158495
C105	C	0.905517	-0.938863	-0.301442
C106	C	1.405517	-0.438863	0.198558
C107	C	1.068853	-0.302231	-0.301555
C108	C	1.568853	0.197769	0.198445
C109	C	1.138494	-0.302262	-0.301541
C110	C	1.638494	0.197738	0.198459
C111	C	0.905347	-0.302123	-0.464375
C112	C	1.405347	0.197877	0.035625
C113	C	0.905369	-0.302129	-0.534017
C114	C	1.405369	0.197871	-0.034017
C115	C	0.905417	-0.139370	-0.301581
C116	C	1.405417	0.360630	0.198419
C117	C	0.905517	-0.069729	-0.301421
C118	C	1.405517	0.430271	0.198579
C119	C	0.945466	-0.262114	-0.566710
C120	C	1.445466	0.237886	-0.066710
C121	C	0.945495	-0.262128	-0.632146
C122	C	1.445495	0.237872	-0.132146
C123	C	0.905416	-0.302150	-0.664885
C124	C	1.405416	0.197850	-0.164885
C125	C	0.865317	-0.342172	-0.632183
C126	C	1.365317	0.157828	-0.132183
C127	C	0.865293	-0.342162	-0.566749
C128	C	1.365293	0.157838	-0.066749
C129	C	0.849001	-0.307041	-0.768615
C130	C	1.349001	0.192959	-0.268615
C131	C	0.849024	-0.307047	-0.834048
C132	C	1.349024	0.192953	-0.334048
C133	C	0.905489	-0.302187	-0.866706
C134	C	1.405489	0.197813	-0.366706
C135	C	0.961934	-0.297307	-0.833922
C136	C	1.461934	0.202693	-0.333922
C137	C	0.961910	-0.297296	-0.768488
C138	C	1.461910	0.202704	-0.268488
C139	C	0.905438	-0.302167	-0.735837
C140	C	1.405438	0.197833	-0.235837
C141	C	0.945621	-0.262186	-0.970352
C142	C	1.445621	0.237814	-0.470352
C143	C	0.945651	-0.262204	-1.035788
C144	C	1.445651	0.237796	-0.535788
C145	C	0.865467	-0.342245	-1.035825
C146	C	1.365467	0.157755	-0.535825
C147	C	0.865442	-0.342230	-0.970389
C148	C	1.365442	0.157770	-0.470389
C149	C	0.905519	-0.302197	-0.937657
C150	C	1.405519	0.197803	-0.437657
C151	C	0.905530	-0.302206	-0.138164
C152	C	1.405530	0.197794	0.361836
C153	C	0.905573	-0.302227	-0.068523
C154	C	1.405573	0.197773	0.431477
H155	H	0.465207	-0.404543	-0.310714
H156	H	0.965207	0.095457	0.189286
H157	H	1.007913	-0.293349	-0.860511
H158	H	1.507913	0.206651	-0.360511
H159	H	0.548219	-0.374674	-0.374419
H160	H	1.048219	0.125326	0.125581
O161	O	0.470038	-0.190807	-0.291755
O162	O	0.970038	0.309193	0.208245
C163	C	0.463020	-0.078843	-0.281789
C164	C	0.963020	0.421157	0.218211
C165	C	0.427123	-0.140969	-0.287269
C166	C	0.927123	0.359031	0.212731
H167	H	0.428339	-0.038534	-0.278147
H168	H	0.928339	0.461466	0.221853
H169	H	0.493583	-0.072102	-0.324888
H170	H	0.993583	0.427898	0.175112
H171	H	0.493720	-0.079909	-0.238225
H172	H	0.993720	0.420091	0.261775
H173	H	0.396389	-0.139948	-0.330806
H174	H	0.896389	0.360052	0.169194
H175	H	0.396600	-0.147687	-0.244139
H176	H	0.896600	0.352313	0.255861
H177	H	0.978167	-0.944969	-0.374133
H178	H	1.478167	-0.444969	0.125867
O179	O	0.826658	-1.068834	-0.222418
O180	O	1.326658	-0.568834	0.277582
C181	C	0.818282	-1.142716	-0.137798
C182	C	1.318282	-0.642716	0.362202
C183	C	0.862308	-1.106709	-0.181876
C184	C	1.362308	-0.606709	0.318124
H185	H	0.847087	-1.173337	-0.105000
H186	H	1.347087	-0.673337	0.395000
H187	H	0.785514	-1.173356	-0.166535
H188	H	1.285514	-0.673356	0.333465
H189	H	0.789645	-1.108073	-0.109196
H190	H	1.289645	-0.608073	0.390804
H191	H	0.890985	-1.141307	-0.210487
H192	H	1.390985	-0.641307	0.289513
H193	H	0.895035	-1.076060	-0.153103
H194	H	1.395035	-0.576060	0.346897
O195	O	0.826601	-0.381214	-1.067590
O196	O	1.326601	0.118786	-0.567590
C197	C	0.796115	-0.487756	-1.087538
C198	C	1.296115	0.012244	-0.587538
C199	C	0.840179	-0.443691	-1.051533
C200	C	1.340179	0.056309	-0.551533
H201	H	0.807069	-0.538277	-1.074559
H202	H	1.307069	-0.038277	-0.574559
H203	H	0.803022	-0.480948	-1.139930
H204	H	1.303022	0.019052	-0.639930
H205	H	0.745599	-0.476654	-1.074747
H206	H	1.245599	0.023346	-0.574747
H207	H	0.890712	-0.454765	-1.064271
H208	H	1.390712	0.045235	-0.564271
H209	H	0.833218	-0.450507	-0.999150
H210	H	1.333218	0.049493	-0.499150
O211	O	0.268339	-0.381119	-0.380688
O212	O	0.768339	0.118881	0.119312
C213	C	0.261440	-0.460443	-0.460300
C214	C	0.761440	0.039557	0.039700
C215	C	0.225477	-0.416428	-0.416156
C216	C	0.725477	0.083572	0.083844
H217	H	0.226802	-0.488992	-0.488997
H218	H	0.726802	0.011008	0.011003
H219	H	0.292123	-0.493286	-0.431612
H220	H	0.792123	0.006714	0.068388
H221	H	0.292026	-0.431597	-0.493005
H222	H	0.792026	0.068403	0.006995
H223	H	0.194857	-0.445223	-0.383442
H224	H	0.694857	0.054777	0.116558
H225	H	0.194833	-0.383583	-0.444883
H226	H	0.694833	0.116417	0.055117
H227	H	0.832857	-0.659982	-0.228818
H228	H	1.332857	-0.159982	0.271182
H229	H	0.346495	-0.404585	-0.310686
H230	H	0.846495	0.095415	0.189314
O231	O	0.794231	-0.866915	-0.291863
O232	O	1.294231	-0.366915	0.208137
C233	C	0.723999	-0.940736	-0.339786
C234	C	1.223999	-0.440736	0.160214
C235	C	0.786106	-0.904794	-0.345157
C236	C	1.286106	-0.404794	0.154843
H237	H	0.717417	-0.971379	-0.382861
H238	H	1.217417	-0.471379	0.117139
H239	H	0.683630	-0.906106	-0.336310
H240	H	1.183630	-0.406106	0.163690
H241	H	0.724994	-0.971365	-0.296179
H242	H	1.224994	-0.471365	0.203821
H243	H	0.785173	-0.874164	-0.388762
H244	H	1.285173	-0.374164	0.111238
H245	H	0.826448	-0.939457	-0.348598
H246	H	1.326448	-0.439457	0.151402
H247	H	0.832867	-0.944912	-0.228755
H248	H	1.332867	-0.444912	0.271245
O249	O	0.984610	-0.223283	-0.938648
O250	O	1.484610	0.276717	-0.438648
C251	C	1.064112	-0.143866	-0.945516
C252	C	1.564112	0.356134	-0.445516
C253	C	1.020001	-0.187903	-0.981496
C254	C	1.520001	0.312097	-0.481496
H255	H	1.092728	-0.115240	-0.980144
H256	H	1.592728	0.384760	-0.480144
H257	H	1.096889	-0.172634	-0.914836
H258	H	1.596889	0.327366	-0.414836
H259	H	1.035338	-0.111089	-0.914926
H260	H	1.535338	0.388911	-0.414926
H261	H	1.048725	-0.220688	-1.012121
H262	H	1.548725	0.279312	-0.512121
H263	H	0.987223	-0.159095	-1.012137
H264	H	1.487223	0.340905	-0.512137
O265	O	0.984539	-1.068843	-0.380309
O266	O	1.484539	-0.568843	0.119691
C267	C	1.069113	-1.142796	-0.388699
C268	C	1.569113	-0.642796	0.111301
C269	C	1.025021	-1.106791	-0.344668
C270	C	1.525021	-0.606791	0.155332
H271	H	1.101845	-1.173496	-0.359902
H272	H	1.601845	-0.673496	0.140098
H273	H	1.097778	-1.108207	-0.417324
H274	H	1.597778	-0.608207	0.082676
H275	H	1.040322	-1.173375	-0.421476
H276	H	1.540322	-0.673375	0.078524
H277	H	1.053763	-1.076212	-0.311853
H278	H	1.553763	-0.576212	0.188147
H279	H	0.996354	-1.141414	-0.316087
H280	H	1.496354	-0.641414	0.183913
H281	H	0.263276	-0.229652	-0.228772
H282	H	0.763276	0.270348	0.271228
O283	O	1.016852	-0.866950	-0.311211
O284	O	1.516852	-0.366950	0.188789
C285	C	1.128833	-0.860118	-0.320966
C286	C	1.628833	-0.360118	0.179034
C287	C	1.066716	-0.824118	-0.315528
C288	C	1.566716	-0.324118	0.184472
H289	H	1.169166	-0.825504	-0.324444
H290	H	1.669166	-0.325504	0.175556
H291	H	1.127876	-0.890723	-0.364558
H292	H	1.627876	-0.390723	0.135442
H293	H	1.135447	-0.890786	-0.277873
H294	H	1.635447	-0.390786	0.222127
H295	H	1.060063	-0.793416	-0.358588
H296	H	1.560063	-0.293416	0.141412
H297	H	1.067702	-0.793553	-0.271910
H298	H	1.567702	-0.293553	0.228090
O299	O	1.016764	-0.737984	-0.311117
O300	O	1.516764	-0.237984	0.188883
C301	C	1.087028	-0.664204	-0.263180
C302	C	1.587028	-0.164204	0.236820
C303	C	1.024943	-0.700178	-0.257779
C304	C	1.524943	-0.200178	0.242221
H305	H	1.093667	-0.633639	-0.220057
H306	H	1.593667	-0.133639	0.279943
H307	H	1.086046	-0.633512	-0.306744
H308	H	1.586046	-0.133512	0.193256
H309	H	1.127361	-0.698869	-0.266721
H310	H	1.627361	-0.198869	0.233279
H311	H	0.984577	-0.665558	-0.254213
H312	H	1.484577	-0.165558	0.245787
H313	H	1.025979	-0.730879	-0.214224
H314	H	1.525979	-0.230879	0.285776
O315	O	0.984471	-0.665085	-0.380544
O316	O	1.484471	-0.165085	0.119456
C317	C	1.063937	-0.658210	-0.459992
C318	C	1.563937	-0.158210	0.040008
C319	C	1.019879	-0.622234	-0.415904
C320	C	1.519879	-0.122234	0.084096
H321	H	1.092585	-0.623580	-0.488583
H322	H	1.592585	-0.123580	0.011417
H323	H	1.035184	-0.688799	-0.492793
H324	H	1.535184	-0.188799	0.007207
H325	H	1.096692	-0.688891	-0.431202
H326	H	1.596692	-0.188891	0.068798
H327	H	0.987115	-0.591518	-0.444644
H328	H	1.487115	-0.091518	0.055356
H329	H	1.048671	-0.591684	-0.383102
H330	H	1.548671	-0.091684	0.116898
O331	O	0.826576	-0.381162	-0.938600
O332	O	1.326576	0.118838	-0.438600
C333	C	0.818071	-0.465705	-0.864645
C334	C	1.318071	0.034295	-0.364645
C335	C	0.862160	-0.421660	-0.900617
C336	C	1.362160	0.078340	-0.400617
H337	H	0.846823	-0.498450	-0.833917
H338	H	1.346823	0.001550	-0.333917
H339	H	0.789441	-0.494358	-0.899255
H340	H	1.289441	0.005642	-0.399255
H341	H	0.785301	-0.436879	-0.834097
H342	H	1.285301	0.063121	-0.334097
H343	H	0.894968	-0.450438	-0.931166
H344	H	1.394968	0.049562	-0.431166
H345	H	0.890746	-0.393004	-0.865974
H346	H	1.390746	0.106996	-0.365974
H347	H	0.803096	-0.743050	-0.292537
H348	H	1.303096	-0.243050	0.207463
O349	O	0.984352	-0.536158	-0.380585
O350	O	1.484352	-0.036158	0.119415
C351	C	0.992728	-0.462227	-0.465162
C352	C	1.492728	0.037773	0.034838
C353	C	0.948705	-0.498206	-0.421056
C354	C	1.448705	0.001794	0.078944
H355	H	0.963925	-0.431524	-0.497885
H356	H	1.463925	0.068476	0.002115
H357	H	1.021339	-0.496832	-0.493835
H358	H	1.521339	0.003168	0.006165
H359	H	1.025518	-0.431654	-0.436382
H360	H	1.525518	0.068346	0.063618
H361	H	0.915876	-0.528779	-0.449788
H362	H	1.415876	-0.028779	0.050212
H363	H	0.920138	-0.463567	-0.392381
H364	H	1.420138	0.036433	0.107619
H365	H	0.832641	-0.374747	-0.540129
H366	H	1.332641	0.125253	-0.040129
O367	O	0.672033	-0.223134	-0.222612
O368	O	1.172033	0.276866	0.277388
C369	C	0.691939	-0.116607	-0.192039
C370	C	1.191939	0.383393	0.307961
C371	C	0.655954	-0.160651	-0.236141
C372	C	1.155954	0.339349	0.263859
H373	H	0.678942	-0.066081	-0.202952
H374	H	1.178942	0.433919	0.297048
H375	H	0.744334	-0.123403	-0.198945
H376	H	1.244334	0.376597	0.301055
H377	H	0.679147	-0.127740	-0.141532
H378	H	1.179147	0.372260	0.358468
H379	H	0.668693	-0.149545	-0.286664
H380	H	1.168693	0.350455	0.213336
H381	H	0.603568	-0.153847	-0.229180
H382	H	1.103568	0.346153	0.270820
H383	H	0.978149	-0.229544	-0.658770
H384	H	1.478149	0.270456	-0.158770
H385	H	0.144583	-0.374824	-0.374335
H386	H	0.644583	0.125176	0.125665
O387	O	0.794117	-0.311854	-0.736960
O388	O	1.294117	0.188146	-0.236960
C389	C	0.702298	-0.373855	-0.716968
C390	C	1.202298	0.126145	-0.216968
C391	C	0.764427	-0.368473	-0.752868
C392	C	1.264427	0.131527	-0.252868
H393	H	0.678283	-0.419634	-0.729806
H394	H	1.178283	0.080366	-0.229806
H395	H	0.670648	-0.332949	-0.729906
H396	H	1.170648	0.167051	-0.229906
H397	H	0.711994	-0.372981	-0.664574
H398	H	1.211994	0.127019	-0.164574
H399	H	0.754790	-0.369364	-0.805270
H400	H	1.254790	0.130636	-0.305270
H401	H	0.796058	-0.409377	-0.739878
H402	H	1.296058	0.090623	-0.239878
H403	H	0.144565	-0.229699	-0.228746
H404	H	0.644565	0.270301	0.271254
O405	O	0.543092	-0.223333	-0.222436
O406	O	1.043092	0.276667	0.277564
C407	C	0.523165	-0.193097	-0.115819
C408	C	1.023165	0.306903	0.384181
C409	C	0.559159	-0.237058	-0.159991
C410	C	1.059159	0.262942	0.340009
H411	H	0.536152	-0.204168	-0.065323
H412	H	1.036152	0.295832	0.434677
H413	H	0.470771	-0.199985	-0.122650
H414	H	0.970771	0.300015	0.377350
H415	H	0.535958	-0.142554	-0.126789
H416	H	1.035958	0.357446	0.373211
H417	H	0.546418	-0.287616	-0.149048
H418	H	1.046418	0.212384	0.350952
H419	H	0.611543	-0.230115	-0.153152
H420	H	1.111543	0.269885	0.346848
H421	H	0.346294	-0.199778	-0.292491
H422	H	0.846294	0.300222	0.207509
H423	H	0.666926	-0.374627	-0.374449
H424	H	1.166926	0.125373	0.125551
H425	H	0.978100	-0.229519	-0.540061
H426	H	1.478100	0.270481	-0.040061
H427	H	1.007868	-0.293325	-0.741798
H428	H	1.507868	0.206675	-0.241798
H429	H	0.803063	-0.311015	-0.860735
H430	H	1.303063	0.188985	-0.360735
O431	O	0.826450	-0.381139	-0.663955
O432	O	1.326450	0.118861	-0.163955
C433	C	0.795967	-0.487680	-0.683911
C434	C	1.295967	0.012320	-0.183911
C435	C	0.840030	-0.443618	-0.647903
C436	C	1.340030	0.056382	-0.147903
H437	H	0.806921	-0.538202	-0.670937
H438	H	1.306921	-0.038202	-0.170937
H439	H	0.802872	-0.480867	-0.736303
H440	H	1.302872	0.019133	-0.236303
H441	H	0.745450	-0.476581	-0.671119
H442	H	1.245450	0.023419	-0.171119
H443	H	0.890563	-0.454689	-0.660643
H444	H	1.390563	0.045311	-0.160643
H445	H	0.833070	-0.450438	-0.595520
H446	H	1.333070	0.049562	-0.095520
H447	H	0.978307	-0.229621	-1.062407
H448	H	1.478307	0.270379	-0.562407
H449	H	0.832852	-0.541276	-0.228842
H450	H	1.332852	-0.041276	0.271158
