data_functionalizedCrystal
_audit_creation_method	'MofGen! by Chris Wilmer'
_symmetry_space_group_name_H-M	'P1'
_symmetry_Int_Tables_number	1
_symmetry_cell_setting	triclinic
loop_
_symmetry_equiv_pos_as_xyz
  x,y,z
_cell_length_a	10.654550
_cell_length_b	15.944551
_cell_length_c	9.130313
_cell_angle_alpha	89.997799
_cell_angle_beta	89.996220
_cell_angle_gamma	83.991820
loop_
_atom_site_label
_atom_site_type_symbol
_atom_site_fract_x
_atom_site_fract_y
_atom_site_fract_z
O1	O	1.666308	0.117973	-0.121923
O2	O	1.300684	0.129213	-0.121900
O3	O	1.493480	0.001376	-0.121899
O4	O	1.473511	0.245810	-0.121924
O5	O	1.493478	0.001379	0.121700
O6	O	1.300681	0.129216	0.121699
O7	O	1.666305	0.117976	0.121676
Cu8	Cu	1.483493	0.123596	0.143930
Cu9	Cu	1.483496	0.123592	-0.144154
O10	O	1.473509	0.245813	0.121675
C11	C	1.253895	0.128389	-0.000098
C12	C	1.114484	0.125920	-0.000088
C13	C	1.034024	0.201188	-0.000117
C14	C	0.903034	0.198863	-0.000142
C15	C	0.932975	0.045995	-0.000116
C16	C	1.063963	0.048321	-0.000080
C17	C	1.084545	0.278788	-0.000126
C18	C	1.004084	0.354062	-0.000156
C19	C	0.873094	0.351737	-0.000182
C20	C	0.822564	0.274137	-0.000176
C21	C	1.492650	-0.029921	-0.000099
C22	C	1.490165	-0.123182	-0.000098
C23	C	1.364720	-0.338765	-0.000111
C24	C	1.422971	-0.399443	0.119995
C25	C	1.485668	-0.293934	-0.000109
C26	C	1.423002	-0.399430	-0.120175
C27	C	1.481317	-0.458872	-0.000126
C28	C	1.543953	-0.353384	0.120095
C29	C	1.543967	-0.353364	-0.120182
C30	C	1.602306	-0.414024	-0.000048
C31	C	1.488172	-0.198917	-0.000098
C32	C	1.478822	-0.553887	-0.000127
C33	C	1.713094	0.118800	-0.000130
C34	C	1.852505	0.121269	-0.000149
C35	C	1.474339	0.277110	-0.000128
C36	C	1.476824	0.370371	-0.000139
N37	N	1.483500	0.123599	0.346552
N38	N	1.483499	0.123583	-0.346777
C39	C	1.568892	0.067012	0.423205
C40	C	1.568889	0.067002	0.576542
C41	C	1.398098	0.180173	0.576560
C42	C	1.398096	0.180178	0.423226
C43	C	1.654296	0.010433	0.346531
C44	C	1.739696	-0.046158	0.423184
C45	C	1.739693	-0.046168	0.576520
C46	C	1.654290	0.010412	0.653205
H47	H	0.807585	0.413029	-0.000192
H48	H	1.328567	0.226239	0.639006
H49	H	0.891822	-0.017184	-0.000135
C50	C	1.151387	-0.033373	0.000247
C51	C	1.227405	-0.036510	0.125614
C52	C	1.307942	-0.111760	0.125980
H53	H	1.203249	-0.035725	-0.084587
H54	H	1.102581	-0.079944	0.000315
H55	H	1.276207	0.010048	0.125532
H56	H	1.175577	-0.034172	0.210467
H57	H	1.259137	-0.158331	0.126048
H58	H	1.359796	-0.114105	0.041141
H59	H	1.359522	-0.113902	0.211046
C60	C	1.230836	-0.295165	0.000351
C61	C	1.168089	-0.318380	0.126409
C62	C	1.044764	-0.278223	0.126901
H63	H	1.187286	-0.311558	-0.084006
H64	H	1.233297	-0.235776	-0.000443
H65	H	1.165621	-0.377756	0.127190
H66	H	1.211601	-0.301986	0.210786
H67	H	1.047225	-0.218834	0.126107
H68	H	1.001225	-0.294619	0.042539
H69	H	1.002178	-0.293963	0.212436
C70	C	1.736306	-0.457427	0.000330
C71	C	1.799028	-0.434077	0.126304
C72	C	1.922462	-0.474053	0.126718
H73	H	1.779743	-0.440985	-0.084086
H74	H	1.734050	-0.516834	-0.000400
H75	H	1.801291	-0.374683	0.127020
H76	H	1.755630	-0.450520	0.210740
H77	H	1.920206	-0.533460	0.125989
H78	H	1.965886	-0.457608	0.042297
H79	H	1.965030	-0.458222	0.212196
C80	C	1.611908	-0.326149	-0.255761
C81	C	1.548154	-0.349210	-0.381181
C82	C	1.610683	-0.324140	-0.506114
H83	H	1.695839	-0.352940	-0.256835
H84	H	1.613618	-0.266700	-0.254367
H85	H	1.546458	-0.408648	-0.382575
H86	H	1.464226	-0.322422	-0.380156
H87	H	1.612393	-0.264691	-0.504721
H88	H	1.694613	-0.350933	-0.507173
H89	H	1.567430	-0.339777	-0.591226
H90	H	1.371814	-0.419846	0.221540
H91	H	1.328561	0.226256	0.360815
C92	C	1.059008	0.438286	-0.000462
C93	C	1.133331	0.444092	-0.125796
C94	C	1.183929	0.521673	-0.126137
H95	H	1.109555	0.442459	0.084394
H96	H	0.992359	0.482804	-0.000559
H97	H	1.199971	0.399586	-0.125685
H98	H	1.082813	0.439934	-0.210672
H99	H	1.117279	0.566192	-0.126234
H100	H	1.234470	0.525839	-0.041275
H101	H	1.234353	0.525626	-0.211180
H102	H	0.715901	0.272250	-0.000174
H103	H	1.191203	0.280689	-0.000112
C104	C	1.832587	-0.107547	0.340088
C105	C	1.956000	-0.093190	0.377373
C106	C	2.041593	-0.149735	0.300859
H107	H	1.820512	-0.099484	0.237773
H108	H	1.819019	-0.163710	0.365233
H109	H	1.969563	-0.037040	0.352219
H110	H	1.968115	-0.101259	0.479675
H111	H	2.028024	-0.205898	0.326003
H112	H	2.029506	-0.141668	0.198548
H113	H	2.125337	-0.140007	0.326156
C114	C	1.354574	-0.426478	-0.255516
C115	C	1.230269	-0.388005	-0.254942
C116	C	1.167192	-0.412889	-0.379597
H117	H	1.354019	-0.486012	-0.255143
H118	H	1.396658	-0.409905	-0.340847
H119	H	1.188196	-0.404583	-0.169633
H120	H	1.230787	-0.328472	-0.255337
H121	H	1.209276	-0.396316	-0.464928
H122	H	1.166646	-0.472423	-0.379213
H123	H	1.082848	-0.386783	-0.379231
H124	H	1.595065	-0.333096	0.221746
C125	C	1.832202	-0.107707	0.659823
C126	C	1.765316	-0.159567	0.747821
C127	C	1.850499	-0.216273	0.824561
H128	H	1.884506	-0.077266	0.719760
H129	H	1.883043	-0.141450	0.592240
H130	H	1.714497	-0.125829	0.815396
H131	H	1.713017	-0.190027	0.687921
H132	H	1.901340	-0.250015	0.756978
H133	H	1.902798	-0.185825	0.884489
H134	H	1.805130	-0.251471	0.884266
H135	H	1.654309	0.010437	0.221677
H136	H	1.654286	0.010394	0.778062
