data_functionalizedCrystal
_audit_creation_method	'MofGen! by Chris Wilmer'
_symmetry_space_group_name_H-M	'P1'
_symmetry_Int_Tables_number	1
_symmetry_cell_setting	triclinic
loop_
_symmetry_equiv_pos_as_xyz
  x,y,z
_cell_length_a	14.560438
_cell_length_b	19.902436
_cell_length_c	14.560438
_cell_angle_alpha	60.003434
_cell_angle_beta	60.000378
_cell_angle_gamma	60.003985
loop_
_atom_site_label
_atom_site_type_symbol
_atom_site_fract_x
_atom_site_fract_y
_atom_site_fract_z
Zr1	Zr	0.884787	0.088162	0.884758
O2	O	0.929754	0.195441	0.738116
O3	O	0.738134	0.055278	0.929711
O4	O	0.738151	0.195444	0.929717
O5	O	1.080864	-0.055294	0.738106
O6	O	0.738153	0.195445	1.080855
O7	O	0.929737	0.055274	0.738111
O8	O	0.738122	-0.055287	1.080845
O9	O	1.080895	0.195439	0.738116
O10	O	0.836117	0.041251	1.061676
O11	O	0.948900	-0.041265	0.948881
O12	O	0.948920	0.123763	0.948887
O13	O	1.061704	0.041247	0.836091
Zr14	Zr	1.125820	-0.088179	1.125799
Zr15	Zr	0.884789	0.088164	1.125806
Zr16	Zr	1.125817	-0.088181	0.884751
Zr17	Zr	1.125839	0.088159	0.884758
Zr18	Zr	0.884768	-0.088176	1.125799
O19	O	1.272472	-0.055295	1.080846
O20	O	0.929757	0.195442	1.080855
O21	O	1.272469	-0.055296	0.738107
O22	O	1.080852	-0.195457	1.272441
O23	O	0.738138	0.055280	1.272451
O24	O	1.080849	-0.195459	0.929702
O25	O	0.929742	0.055277	1.272451
O26	O	1.272455	-0.195461	1.080841
O27	O	1.272453	-0.195462	0.929702
O28	O	1.080869	-0.055291	1.272447
O29	O	1.080897	0.195440	0.929717
O30	O	0.929710	-0.195456	1.080840
O31	O	0.929712	-0.195455	1.272441
O32	O	0.738124	-0.055286	1.272446
O33	O	1.272482	0.055269	0.738111
O34	O	1.272484	0.055270	0.929712
O35	O	1.061686	-0.123780	1.061670
O36	O	0.948902	-0.041264	1.174466
O37	O	1.061706	0.041248	1.061677
O38	O	1.174490	-0.041268	0.948881
C39	C	0.703784	-0.000004	1.005278
C40	C	0.601451	-0.000003	1.005278
C41	C	1.005276	-0.220582	1.005270
C42	C	1.005267	-0.295443	1.005267
C43	C	0.494503	0.043070	1.064154
C44	C	0.398354	0.043062	1.064158
C45	C	0.516115	-0.043092	0.946402
C46	C	0.612261	-0.043089	0.946405
C47	C	1.005315	-0.567492	1.005283
C48	C	0.934508	-0.486949	0.933793
C49	C	0.934114	-0.409046	0.934098
C50	C	1.005291	-0.432525	1.005274
C51	C	0.953400	-0.486639	1.127833
C52	C	0.952877	-0.564201	1.127446
C53	C	1.128046	-0.565353	0.955201
C54	C	1.127856	-0.486475	0.952717
C55	C	1.005279	-0.356250	1.005276
C56	C	1.005323	-0.643768	1.005290
C57	C	1.306823	-0.000013	1.005279
C58	C	1.409156	-0.000014	1.005279
C59	C	1.005300	-0.000010	0.703764
C60	C	1.005299	-0.000011	0.601433
C61	C	1.005330	0.220566	1.005287
C62	C	1.005339	0.295426	1.005290
C63	C	0.946415	-0.043078	0.612230
C64	C	0.946422	-0.043078	0.516075
C65	C	1.064199	0.043062	0.398330
C66	C	1.064198	0.043058	0.494484
C67	C	1.005306	-0.000007	1.306793
C68	C	1.005307	-0.000006	1.409124
C69	C	0.703810	0.220570	1.005287
C70	C	0.601487	0.295432	1.005290
C71	C	0.703787	-0.000003	1.306793
C72	C	0.601455	-0.000001	1.409124
C73	C	1.005279	-0.220581	1.306784
C74	C	1.005271	-0.295441	1.409113
C75	C	1.005327	0.220564	0.703773
C76	C	1.005335	0.295424	0.601445
C77	C	1.306820	-0.000014	0.703765
C78	C	1.409152	-0.000016	0.601434
C79	C	1.306796	-0.220587	1.005271
C80	C	1.409120	-0.295449	1.005268
C81	C	0.612317	0.373666	0.946416
C82	C	0.516182	0.444014	0.946424
C83	C	0.409218	0.436126	1.005298
C84	C	0.398390	0.357884	1.064179
C85	C	0.494524	0.287538	1.064177
C86	C	0.946396	-0.287524	1.516055
C87	C	0.946392	-0.357856	1.612213
C88	C	1.005258	-0.436105	1.601425
C89	C	1.064141	-0.444021	1.494471
C90	C	1.064151	-0.373689	1.398316
C91	C	1.064223	0.287507	0.494502
C92	C	1.064256	0.357839	0.398345
C93	C	1.005395	0.436088	0.409132
C94	C	0.946505	0.444004	0.516086
C95	C	0.946479	0.373672	0.612241
C96	C	1.516065	-0.287535	0.946381
C97	C	1.612218	-0.357869	0.946356
C98	C	1.601424	-0.436116	1.005224
C99	C	1.494468	-0.444029	1.064112
C100	C	1.398317	-0.373696	1.064130
C101	C	0.494506	0.043070	1.398327
C102	C	0.398358	0.043075	1.494481
C103	C	0.516121	-0.043069	1.612227
C104	C	0.612267	-0.043068	1.516073
H105	H	0.485695	0.078151	1.112094
H106	H	0.524903	-0.078170	0.898468
H107	H	1.679725	-0.493380	1.005199
N108	N	0.283019	0.349382	1.127677
H109	H	0.223771	0.405822	1.118733
H110	H	0.274099	0.318287	1.096756
N111	N	1.127702	0.089525	0.282978
H112	H	1.165006	0.116807	0.290732
H113	H	1.186889	0.049980	0.240511
N114	N	1.005416	0.511946	0.305422
H115	H	1.085162	0.511969	0.259148
H116	H	0.971860	0.511924	0.259236
H117	H	0.898520	0.380129	0.699317
N118	N	1.016744	-0.639753	1.201862
H119	H	1.016896	-0.690678	1.202197
H120	H	1.096715	-0.641137	1.172184
N121	N	1.282971	-0.382239	1.127671
H122	H	1.273953	-0.413316	1.096800
H123	H	1.274072	-0.413294	1.210013
H124	H	0.311274	0.078135	1.112102
N125	N	1.527736	-0.203148	0.882883
H126	H	1.570205	-0.196562	0.800518
H127	H	1.450569	-0.159833	0.891908
H128	H	0.898456	-0.223816	1.524860
H129	H	0.699350	-0.078167	0.898460
N130	N	0.482850	0.089520	1.282976
H131	H	0.400505	0.116807	1.290731
H132	H	0.520182	0.132822	1.240514
H133	H	1.112157	0.078126	0.485685
N134	N	0.482830	0.203159	1.127663
H135	H	0.559954	0.159785	1.118735
H136	H	0.440308	0.196647	1.210000
N137	N	0.727677	0.382185	0.882911
H138	H	0.719933	0.442426	0.845625
H139	H	0.770131	0.354873	0.936974
N140	N	0.882892	-0.089527	0.727581
H141	H	0.845591	-0.116810	0.719825
H142	H	0.936945	-0.132832	0.770041
H143	H	0.311279	0.078149	1.485681
N144	N	0.305595	0.512046	1.005375
H145	H	0.259415	0.512044	1.085142
H146	H	0.328888	0.562715	0.959117
H147	H	1.112069	-0.507741	1.485704
N148	N	0.527770	-0.089519	1.727581
H149	H	0.490501	-0.132864	1.770098
H150	H	0.610133	-0.116750	1.719737
N151	N	0.882878	-0.349308	1.727560
H152	H	0.845581	-0.289064	1.719795
H153	H	0.823684	-0.376616	1.770024
H154	H	1.112149	0.223799	0.485697
N155	N	0.834908	-0.437028	1.181325
H156	H	0.814650	-0.379513	1.126376
H157	H	0.781042	-0.464162	1.202213
N158	N	1.185469	-0.569317	0.837465
H159	H	1.132500	-0.572542	0.815399
H160	H	1.207088	-0.518376	0.783387
N161	N	1.727568	-0.349324	0.882846
H162	H	1.719806	-0.289081	0.845572
H163	H	1.770026	-0.376634	0.936905
H164	H	0.525020	0.507715	0.898472
N165	N	1.005244	-0.511959	1.705140
H166	H	0.959008	-0.495063	1.774522
H167	H	0.971753	-0.545784	1.705093
H168	H	1.485696	-0.507748	1.112041
N169	N	1.127650	-0.382235	1.282972
H170	H	1.164933	-0.442479	1.290740
H171	H	1.073589	-0.354935	1.240520
N172	N	0.883016	0.528402	0.527718
H173	H	0.937024	0.559502	0.490447
H174	H	0.823783	0.559431	0.490451
N175	N	1.127771	0.349291	0.282997
H176	H	1.165042	0.289047	0.290763
H177	H	1.073718	0.376602	0.240532
N178	N	1.179201	-0.437057	0.833101
H179	H	1.123315	-0.379958	0.813031
H180	H	1.249280	-0.433161	0.825733
N181	N	0.727630	-0.089520	1.527712
H182	H	0.719892	-0.116808	1.610053
H183	H	0.770085	-0.132821	1.490380
N184	N	1.198261	-0.640547	1.023842
H185	H	1.150864	-0.675846	1.087067
H186	H	1.264339	-0.673148	0.974106
H187	H	0.968921	-0.369657	0.843850
H188	H	1.185053	-0.505000	0.999376
H189	H	0.969136	-0.485255	0.843312
H190	H	0.843581	-0.370006	0.968839
N191	N	0.815301	-0.485940	0.979377
H192	H	0.806965	-0.537429	1.046135
H193	H	0.761670	-0.435994	1.003504
N194	N	0.833257	-0.563952	1.180537
H195	H	0.802125	-0.564678	1.260383
H196	H	0.785849	-0.512772	1.135905
H197	H	0.898474	-0.078149	0.524875
H198	H	1.002491	-0.506404	1.183410
