data_functionalizedCrystal
_audit_creation_method	'MofGen! by Chris Wilmer'
_symmetry_space_group_name_H-M	'P1'
_symmetry_Int_Tables_number	1
_symmetry_cell_setting	triclinic
loop_
_symmetry_equiv_pos_as_xyz
  x,y,z
_cell_length_a	14.044191
_cell_length_b	12.503552
_cell_length_c	14.044190
_cell_angle_alpha	93.836179
_cell_angle_beta	86.808223
_cell_angle_gamma	93.842477
loop_
_atom_site_label
_atom_site_type_symbol
_atom_site_fract_x
_atom_site_fract_y
_atom_site_fract_z
O1	O	1.282222	0.089291	-0.225150
O2	O	1.615555	0.422624	0.108184
O3	O	1.948888	0.755957	0.441517
O4	O	1.005550	0.089303	-0.216836
O5	O	1.338883	0.422637	0.116497
O6	O	1.672216	0.755970	0.449830
O7	O	1.139728	0.089276	-0.082658
O8	O	1.473061	0.422609	0.250675
O9	O	1.806395	0.755943	0.584009
O10	O	1.148043	0.089318	-0.359328
O11	O	1.481376	0.422651	-0.025995
O12	O	1.814710	0.755985	0.307338
O13	O	1.129625	-0.089364	-0.092758
O14	O	1.462958	0.243969	0.240576
O15	O	1.796292	0.577302	0.573909
O16	O	0.995447	-0.089337	-0.226936
O17	O	1.328780	0.243996	0.106397
O18	O	1.662113	0.577330	0.439731
O19	O	1.272119	-0.089350	-0.235249
O20	O	1.605452	0.243983	0.098084
O21	O	1.938785	0.577317	0.431417
Cu22	Cu	1.132860	-0.105655	-0.232015
Cu23	Cu	1.466194	0.227679	0.101319
Cu24	Cu	1.799527	0.561012	0.434652
Cu25	Cu	1.144808	0.105608	-0.220071
Cu26	Cu	1.478141	0.438942	0.113262
Cu27	Cu	1.811475	0.772275	0.446596
O28	O	1.137940	-0.089323	-0.369428
O29	O	1.471274	0.244011	-0.036094
O30	O	1.804607	0.577344	0.297239
C31	C	0.964876	-0.000016	-0.218249
C32	C	1.298210	0.333318	0.115084
C33	C	1.631543	0.666651	0.448417
C34	C	0.858733	-0.000012	-0.207402
C35	C	1.192066	0.333322	0.125931
C36	C	1.525400	0.666655	0.459265
C37	C	0.613276	-0.000014	-0.264503
C38	C	0.946609	0.333320	0.068831
C39	C	1.279943	0.666653	0.402164
C40	C	0.664399	-0.000023	-0.187587
C41	C	0.997732	0.333310	0.145747
C42	C	1.331066	0.666643	0.479080
C43	C	0.772536	-0.000017	-0.198615
C44	C	1.105870	0.333316	0.134719
C45	C	1.439203	0.666650	0.468052
C46	C	0.505129	-0.000020	-0.253476
C47	C	0.838462	0.333313	0.079857
C48	C	1.171795	0.666646	0.413190
N49	N	1.124464	-0.254246	-0.240416
N50	N	1.457797	0.079087	0.092918
N51	N	1.791130	0.412421	0.426251
C52	C	1.165558	-0.526687	-0.199302
C53	C	1.498891	-0.193354	0.134031
C54	C	1.832225	0.139979	0.467365
C55	C	1.112120	-0.473352	-0.252774
C56	C	1.445453	-0.140019	0.080559
C57	C	1.778787	0.193314	0.413893
C58	C	1.118990	-0.351430	-0.245896
C59	C	1.452323	-0.018097	0.087437
C60	C	1.785656	0.315237	0.420771
C61	C	1.158689	-0.648621	-0.206179
C62	C	1.492023	-0.315287	0.127155
C63	C	1.825356	0.018046	0.460488
C64	C	1.312792	-0.000029	-0.233836
C65	C	1.646126	0.333305	0.099497
C66	C	1.979459	0.666638	0.432831
C67	C	1.418936	-0.000026	-0.244683
C68	C	1.752269	0.333308	0.088650
C69	C	2.085602	0.666641	0.421983
C70	C	1.131040	-0.000047	-0.052086
C71	C	1.464373	0.333286	0.281248
C72	C	1.797707	0.666619	0.614581
C73	C	1.120192	-0.000056	0.054057
C74	C	1.453525	0.333277	0.387390
C75	C	1.786859	0.666611	0.720724
N76	N	1.153212	0.254199	-0.211663
N77	N	1.486545	0.587533	0.121670
N78	N	1.819878	0.920866	0.455003
C79	C	1.146629	0.000003	-0.400000
C80	C	1.479962	0.333336	-0.066666
C81	C	1.813295	0.666670	0.266667
C82	C	1.157477	0.000019	-0.506142
C83	C	1.490810	0.333352	-0.172809
C84	C	1.824143	0.666686	0.160524
C85	C	1.177295	-0.000017	0.299516
C86	C	1.510628	0.333317	0.632850
C87	C	1.843962	0.666650	0.966183
C88	C	1.100378	-0.000021	0.248393
C89	C	1.433712	0.333313	0.581726
C90	C	1.767045	0.666646	0.915059
C91	C	1.111405	-0.000040	0.140254
C92	C	1.444739	0.333293	0.473588
C93	C	1.778072	0.666626	0.806921
C94	C	1.166269	0.000003	0.407664
C95	C	1.499603	0.333336	0.740998
C96	C	1.832936	0.666670	1.074331
H97	H	0.650720	0.000001	-0.338629
H98	H	0.984053	0.333334	-0.005295
H99	H	1.317386	0.666667	0.328038
C100	C	1.277437	-0.000048	0.248930
C101	C	1.610770	0.333285	0.582263
C102	C	1.944104	0.666618	0.915596
N103	N	1.352863	-0.000080	0.210816
N104	N	1.686196	0.333253	0.544150
N105	N	2.019529	0.666587	0.877483
C106	C	1.043354	-0.535366	-0.321608
C107	C	1.376687	-0.202032	0.011725
C108	C	1.710020	0.131301	0.345059
N109	N	0.991566	-0.582079	-0.373457
N110	N	1.324899	-0.248746	-0.040123
N111	N	1.658232	0.084588	0.293210
C112	C	1.234322	-0.464674	-0.130475
C113	C	1.567655	-0.131341	0.202859
C114	C	1.900988	0.201992	0.536192
N115	N	1.286112	-0.417954	-0.078633
N116	N	1.619445	-0.084620	0.254701
N117	N	1.952778	0.248713	0.588034
H118	H	1.026246	-0.000011	0.285838
H119	H	1.359579	0.333322	0.619172
H120	H	1.692913	0.666656	0.952505
H121	H	0.626957	0.000041	-0.113450
H122	H	0.960291	0.333374	0.219883
H123	H	1.293624	0.666708	0.553216
