data_functionalizedCrystal
_audit_creation_method	'MofGen! by Chris Wilmer'
_symmetry_space_group_name_H-M	'P1'
_symmetry_Int_Tables_number	1
_symmetry_cell_setting	triclinic
loop_
_symmetry_equiv_pos_as_xyz
  x,y,z
_cell_length_a	18.050591
_cell_length_b	18.050589
_cell_length_c	18.050582
_cell_angle_alpha	89.981795
_cell_angle_beta	90.020922
_cell_angle_gamma	89.975773
loop_
_atom_site_label
_atom_site_type_symbol
_atom_site_fract_x
_atom_site_fract_y
_atom_site_fract_z
Zn1	Zn	1.135293	0.295786	0.420054
Zn2	Zn	1.385293	0.545786	0.670054
Zn3	Zn	1.635293	0.795786	0.920054
Zn4	Zn	1.885293	1.045786	1.170054
Zn5	Zn	1.135203	0.419969	0.295873
Zn6	Zn	1.385203	0.669969	0.545873
Zn7	Zn	1.635203	0.919969	0.795873
Zn8	Zn	1.885203	1.169969	1.045873
Zn9	Zn	1.011112	0.295789	0.295865
Zn10	Zn	1.261112	0.545789	0.545865
Zn11	Zn	1.511112	0.795789	0.795865
Zn12	Zn	1.761112	1.045789	1.045865
Zn13	Zn	1.011060	0.419930	0.420009
Zn14	Zn	1.261060	0.669930	0.670009
Zn15	Zn	1.511060	0.919930	0.920009
Zn16	Zn	1.761060	1.169930	1.170009
O17	O	1.073167	0.357868	0.357950
O18	O	1.323167	0.607868	0.607950
O19	O	1.573167	0.857868	0.857950
O20	O	1.823167	1.107868	1.107950
O21	O	1.239205	0.312274	0.403603
O22	O	1.489205	0.562274	0.653603
O23	O	1.739205	0.812274	0.903603
O24	O	1.989205	1.062274	1.153603
O25	O	1.118727	0.403514	0.191948
O26	O	1.368727	0.653514	0.441948
O27	O	1.618727	0.903514	0.691948
O28	O	1.868727	1.153514	0.941948
O29	O	1.027644	0.191864	0.312354
O30	O	1.277644	0.441864	0.562354
O31	O	1.527644	0.691864	0.812354
O32	O	1.777644	0.941864	1.062354
O33	O	1.239140	0.403511	0.312369
O34	O	1.489140	0.653511	0.562369
O35	O	1.739140	0.903511	0.812369
O36	O	1.989140	1.153511	1.062369
O37	O	1.118879	0.191862	0.403595
O38	O	1.368879	0.441862	0.653595
O39	O	1.618879	0.691862	0.903595
O40	O	1.868879	0.941862	1.153595
O41	O	1.027557	0.312279	0.191942
O42	O	1.277557	0.562279	0.441942
O43	O	1.527557	0.812279	0.691942
O44	O	1.777557	1.062279	0.941942
O45	O	0.907180	0.312241	0.312311
O46	O	1.157180	0.562241	0.562311
O47	O	1.407180	0.812241	0.812311
O48	O	1.657180	1.062241	1.062311
O49	O	1.027555	0.403444	0.523940
O50	O	1.277555	0.653444	0.773940
O51	O	1.527555	0.903444	1.023940
O52	O	1.777555	1.153444	1.273940
O53	O	0.907142	0.403447	0.403519
O54	O	1.157142	0.653447	0.653519
O55	O	1.407142	0.903447	0.903519
O56	O	1.657142	1.153447	1.153519
O57	O	1.118828	0.312236	0.523973
O58	O	1.368828	0.562236	0.773973
O59	O	1.618828	0.812236	1.023973
O60	O	1.868828	1.062236	1.273973
O61	O	1.118676	0.523888	0.312325
O62	O	1.368676	0.773888	0.562325
O63	O	1.618676	1.023888	0.812325
O64	O	1.868676	1.273888	1.062325
O65	O	1.027468	0.523860	0.403527
O66	O	1.277468	0.773860	0.653527
O67	O	1.527468	1.023860	0.903527
O68	O	1.777468	1.273860	1.153527
C69	C	0.880215	0.357841	0.357909
C70	C	1.130215	0.607841	0.607909
C71	C	1.380215	0.857841	0.857909
C72	C	1.630215	1.107841	1.107909
C73	C	0.797669	0.357847	0.357909
C74	C	1.047669	0.607847	0.607909
C75	C	1.297669	0.857847	0.857909
C76	C	1.547669	1.107847	1.107909
C77	C	1.073077	0.550820	0.357938
C78	C	1.323077	0.800820	0.607938
C79	C	1.573077	1.050820	0.857938
C80	C	1.823077	1.300820	1.107938
C81	C	1.073107	0.633366	0.357958
C82	C	1.323107	0.883366	0.607958
C83	C	1.573107	1.133366	0.857958
C84	C	1.823107	1.383366	1.107958
C85	C	0.598217	0.308191	0.308425
C86	C	0.848217	0.558191	0.558425
C87	C	1.098217	0.808191	0.808425
C88	C	1.348217	1.058191	1.058425
C89	C	0.548798	0.375927	0.290154
C90	C	0.798798	0.625927	0.540154
C91	C	1.048798	0.875927	0.790154
C92	C	1.298798	1.125927	1.040154
C93	C	0.646539	0.357869	0.357943
C94	C	0.896539	0.607869	0.607943
C95	C	1.146539	0.857869	0.857943
C96	C	1.396539	1.107869	1.107943
C97	C	0.548877	0.290157	0.376212
C98	C	0.798877	0.540157	0.626212
C99	C	1.048877	0.790157	0.876212
C100	C	1.298877	1.040157	1.126212
C101	C	0.500553	0.357885	0.357974
C102	C	0.750553	0.607885	0.607974
C103	C	1.000553	0.857885	0.857974
C104	C	1.250553	1.107885	1.107974
C105	C	0.598206	0.425641	0.339637
C106	C	0.848206	0.675641	0.589637
C107	C	1.098206	0.925641	0.839637
C108	C	1.348206	1.175641	1.089637
C109	C	0.598289	0.339825	0.425726
C110	C	0.848289	0.589825	0.675726
C111	C	1.098289	0.839825	0.925726
C112	C	1.348289	1.089825	1.175726
C113	C	0.548892	0.407607	0.407481
C114	C	0.798892	0.657607	0.657481
C115	C	1.048892	0.907607	0.907481
C116	C	1.298892	1.157607	1.157481
C117	C	0.730637	0.357859	0.357923
C118	C	0.980637	0.607859	0.607923
C119	C	1.230637	0.857859	0.857923
C120	C	1.480637	1.107859	1.107923
C121	C	0.416457	0.357903	0.357994
C122	C	0.666457	0.607903	0.607994
C123	C	0.916457	0.857903	0.857994
C124	C	1.166457	1.107903	1.107994
C125	C	1.073196	0.357835	0.551656
C126	C	1.323196	0.607835	0.801656
C127	C	1.573196	0.857835	1.051656
C128	C	1.823196	1.107835	1.301656
C129	C	1.073208	0.357821	0.634202
C130	C	1.323208	0.607821	0.884202
C131	C	1.573208	0.857821	1.134202
C132	C	1.823208	1.107821	1.384202
C133	C	1.266872	0.357897	0.357992
C134	C	1.516872	0.607897	0.607992
C135	C	1.766872	0.857897	0.857992
C136	C	2.016872	1.107897	1.107992
C137	C	1.349418	0.357909	0.358010
C138	C	1.599418	0.607909	0.608010
C139	C	1.849418	0.857909	0.858010
C140	C	2.099418	1.107909	1.108010
C141	C	1.073277	0.164163	0.357979
C142	C	1.323277	0.414163	0.607979
C143	C	1.573277	0.664163	0.857979
C144	C	1.823277	0.914163	1.107979
C145	C	1.073324	0.081617	0.357991
C146	C	1.323324	0.331617	0.607991
C147	C	1.573324	0.581617	0.857991
C148	C	1.823324	0.831617	1.107991
C149	C	1.023557	0.832828	0.407536
C150	C	1.273557	1.082828	0.657536
C151	C	1.523557	1.332828	0.907536
C152	C	1.773557	1.582828	1.157536
C153	C	1.005459	0.882261	0.339767
C154	C	1.255459	1.132261	0.589767
C155	C	1.505459	1.382261	0.839767
C156	C	1.755459	1.632261	1.089767
C157	C	1.073180	0.784497	0.357967
C158	C	1.323180	1.034497	0.607967
C159	C	1.573180	1.284497	0.857967
C160	C	1.823180	1.534497	1.107967
C161	C	1.091314	0.882146	0.425744
C162	C	1.341314	1.132146	0.675744
C163	C	1.591314	1.382146	0.925744
C164	C	1.841314	1.632146	1.175744
C165	C	1.073249	0.930482	0.357983
C166	C	1.323249	1.180482	0.607983
C167	C	1.573249	1.430482	0.857983
C168	C	1.823249	1.680482	1.107983
C169	C	1.055046	0.832842	0.290162
C170	C	1.305046	1.082842	0.540162
C171	C	1.555046	1.332842	0.790162
C172	C	1.805046	1.582842	1.040162
C173	C	1.140933	0.832722	0.376186
C174	C	1.390933	1.082722	0.626186
C175	C	1.640933	1.332722	0.876186
C176	C	1.890933	1.582722	1.126186
C177	C	1.122861	0.882133	0.308370
C178	C	1.372861	1.132133	0.558370
C179	C	1.622861	1.382133	0.808370
C180	C	1.872861	1.632133	1.058370
C181	C	1.073138	0.700398	0.357959
C182	C	1.323138	0.950398	0.607959
C183	C	1.573138	1.200398	0.857959
C184	C	1.823138	1.450398	1.107959
C185	C	1.073291	1.014578	0.357983
C186	C	1.323291	1.264578	0.607983
C187	C	1.573291	1.514578	0.857983
C188	C	1.823291	1.764578	1.107983
C189	C	1.073181	0.357848	0.164998
C190	C	1.323181	0.607848	0.414998
C191	C	1.573181	0.857848	0.664998
C192	C	1.823181	1.107848	0.914998
C193	C	1.073312	0.357652	0.082453
C194	C	1.323312	0.607652	0.332453
C195	C	1.573312	0.857652	0.582453
C196	C	1.823312	1.107652	0.832453
C197	C	1.023612	0.407353	0.833635
C198	C	1.273612	0.657353	1.083635
C199	C	1.523612	0.907353	1.333635
C200	C	1.773612	1.157353	1.583635
C201	C	1.091367	0.425511	0.883034
C202	C	1.341367	0.675511	1.133034
C203	C	1.591367	0.925511	1.383034
C204	C	1.841367	1.175511	1.633034
C205	C	1.073245	0.357765	0.785332
C206	C	1.323245	0.607765	1.035332
C207	C	1.573245	0.857765	1.285332
C208	C	1.823245	1.107765	1.535332
C209	C	1.005527	0.339586	0.883014
C210	C	1.255527	0.589586	1.133014
C211	C	1.505527	0.839586	1.383014
C212	C	1.755527	1.089586	1.633014
C213	C	1.073274	0.357711	0.931317
C214	C	1.323274	0.607711	1.181317
C215	C	1.573274	0.857711	1.431317
C216	C	1.823274	1.107711	1.681317
C217	C	1.141036	0.375958	0.833645
C218	C	1.391036	0.625958	1.083645
C219	C	1.641036	0.875958	1.333645
C220	C	1.891036	1.125958	1.583645
C221	C	1.055150	0.290002	0.833620
C222	C	1.305150	0.540002	1.083620
C223	C	1.555150	0.790002	1.333620
C224	C	1.805150	1.040002	1.583620
C225	C	1.122952	0.308134	0.882998
C226	C	1.372952	0.558134	1.132998
C227	C	1.622952	0.808134	1.382998
C228	C	1.872952	1.058134	1.632998
C229	C	1.073227	0.357797	0.701234
C230	C	1.323227	0.607797	0.951234
C231	C	1.573227	0.857797	1.201234
C232	C	1.823227	1.107797	1.451234
C233	C	1.073300	0.357679	1.015414
C234	C	1.323300	0.607679	1.265414
C235	C	1.573300	0.857679	1.515414
C236	C	1.823300	1.107679	1.765414
H237	H	0.619875	0.266226	0.266503
H238	H	0.869875	0.516226	0.516503
H239	H	1.119875	0.766226	0.766503
H240	H	1.369875	1.016226	1.016503
H241	H	1.198333	0.391377	0.812050
H242	H	1.448333	0.641377	1.062050
H243	H	1.698333	0.891377	1.312050
H244	H	1.948333	1.141377	1.562050
C245	C	0.928099	0.911660	0.318952
C246	C	1.178099	1.161660	0.568952
C247	C	1.428099	1.411660	0.818952
C248	C	1.678099	1.661660	1.068952
H249	H	0.892873	0.894783	0.354213
H250	H	1.142873	1.144783	0.604213
H251	H	1.392873	1.394783	0.854213
H252	H	1.642873	1.644783	1.104213
H253	H	0.914899	0.894054	0.271151
H254	H	1.164899	1.144054	0.521151
H255	H	1.414899	1.394054	0.771151
H256	H	1.664899	1.644054	1.021151
H257	H	0.928798	0.964284	0.318670
H258	H	1.178798	1.214284	0.568670
H259	H	1.428798	1.464284	0.818670
H260	H	1.678798	1.714284	1.068670
C261	C	0.519425	0.396560	0.212738
C262	C	0.769425	0.646560	0.462738
C263	C	1.019425	0.896560	0.712738
C264	C	1.269425	1.146560	0.962738
H265	H	0.536308	0.361211	0.177599
H266	H	0.786308	0.611211	0.427599
H267	H	1.036308	0.861211	0.677599
H268	H	1.286308	1.111211	0.927599
H269	H	0.537040	0.444327	0.199429
H270	H	0.787040	0.694327	0.449429
H271	H	1.037040	0.944327	0.699429
H272	H	1.287040	1.194327	0.949429
H273	H	0.466800	0.396856	0.213423
H274	H	0.716800	0.646856	0.463423
H275	H	0.966800	0.896856	0.713423
H276	H	1.216800	1.146856	0.963423
C277	C	0.627350	0.503029	0.318687
C278	C	0.877350	0.753029	0.568687
C279	C	1.127350	1.003029	0.818687
C280	C	1.377350	1.253029	1.068687
H281	H	0.679980	0.502544	0.318778
H282	H	0.929980	0.752544	0.568778
H283	H	1.179980	1.002544	0.818778
H284	H	1.429980	1.252544	1.068778
H285	H	0.610067	0.538349	0.353652
H286	H	0.860067	0.788349	0.603652
H287	H	1.110067	1.038349	0.853652
H288	H	1.360067	1.288349	1.103652
H289	H	0.609994	0.515929	0.270693
H290	H	0.859994	0.765929	0.520693
H291	H	1.109994	1.015929	0.770693
H292	H	1.359994	1.265929	1.020693
C293	C	0.519809	0.464431	0.464066
C294	C	0.769809	0.714431	0.714066
C295	C	1.019809	0.964431	0.964066
C296	C	1.269809	1.214431	1.214066
H297	H	0.536790	0.512493	0.450978
H298	H	0.786790	0.762493	0.700978
H299	H	1.036790	1.012493	0.950978
H300	H	1.286790	1.262493	1.200978
H301	H	0.537503	0.452018	0.512061
H302	H	0.787503	0.702018	0.762061
H303	H	1.037503	0.952018	1.012061
H304	H	1.287503	1.202018	1.262061
H305	H	0.467182	0.463847	0.464055
H306	H	0.717182	0.713847	0.714055
H307	H	0.967182	0.963847	0.964055
H308	H	1.217182	1.213847	1.214055
C309	C	0.519605	0.212794	0.397078
C310	C	0.769605	0.462794	0.647078
C311	C	1.019605	0.712794	0.897078
C312	C	1.269605	0.962794	1.147078
H313	H	0.490670	0.216217	0.440899
H314	H	0.740670	0.466217	0.690899
H315	H	0.990670	0.716217	0.940899
H316	H	1.240670	0.966217	1.190899
H317	H	0.560186	0.180302	0.405351
H318	H	0.810186	0.430302	0.655351
H319	H	1.060186	0.680302	0.905351
H320	H	1.310186	0.930302	1.155351
H321	H	0.489886	0.194139	0.357853
H322	H	0.739886	0.444139	0.607853
H323	H	0.989886	0.694139	0.857853
H324	H	1.239886	0.944139	1.107853
C325	C	1.112030	0.911366	0.503171
C326	C	1.362030	1.161366	0.753171
C327	C	1.612030	1.411366	1.003171
C328	C	1.862030	1.661366	1.253171
H329	H	1.155874	0.940275	0.499862
H330	H	1.405874	1.190275	0.749862
H331	H	1.655874	1.440275	0.999862
H332	H	1.905874	1.690275	1.249862
H333	H	1.120215	0.870755	0.535645
H334	H	1.370215	1.120755	0.785645
H335	H	1.620215	1.370755	1.035645
H336	H	1.870215	1.620755	1.285645
H337	H	1.072784	0.941095	0.521771
H338	H	1.322784	1.191095	0.771771
H339	H	1.572784	1.441095	1.021771
H340	H	1.822784	1.691095	1.271771
C341	C	1.218287	0.803330	0.397012
C342	C	1.468287	1.053330	0.647012
C343	C	1.718287	1.303330	0.897012
C344	C	1.968287	1.553330	1.147012
H345	H	1.231079	0.820188	0.445199
H346	H	1.481079	1.070188	0.695199
H347	H	1.731079	1.320188	0.945199
H348	H	1.981079	1.570188	1.195199
H349	H	1.253666	0.820963	0.362287
H350	H	1.503666	1.070963	0.612287
H351	H	1.753666	1.320963	0.862287
H352	H	2.003666	1.570963	1.112287
H353	H	1.217835	0.750705	0.396413
H354	H	1.467835	1.000705	0.646413
H355	H	1.717835	1.250705	0.896413
H356	H	1.967835	1.500705	1.146413
C357	C	0.627686	0.319164	0.503121
C358	C	0.877686	0.569164	0.753121
C359	C	1.127686	0.819164	1.003121
C360	C	1.377686	1.069164	1.253121
H361	H	0.610828	0.271006	0.516018
H362	H	0.860828	0.521006	0.766018
H363	H	1.110828	0.771006	1.016018
H364	H	1.360828	1.021006	1.266018
H365	H	0.610064	0.353966	0.538434
H366	H	0.860064	0.603966	0.788434
H367	H	1.110064	0.853966	1.038434
H368	H	1.360064	1.103966	1.288434
H369	H	0.680310	0.319753	0.502651
H370	H	0.930310	0.569753	0.752651
H371	H	1.180310	0.819753	1.002651
H372	H	1.430310	1.069753	1.252651
H373	H	0.981678	0.449342	0.811961
H374	H	1.231678	0.699342	1.061961
H375	H	1.481678	0.949342	1.311961
H376	H	1.731678	1.199342	1.561961
C377	C	0.966788	0.803573	0.464081
C378	C	1.216788	1.053573	0.714081
C379	C	1.466788	1.303573	0.964081
C380	C	1.716788	1.553573	1.214081
H381	H	0.918695	0.820538	0.451018
H382	H	1.168695	1.070538	0.701018
H383	H	1.418695	1.320538	0.951018
H384	H	1.668695	1.570538	1.201018
H385	H	0.979173	0.821179	0.512101
H386	H	1.229173	1.071179	0.762101
H387	H	1.479173	1.321179	1.012101
H388	H	1.729173	1.571179	1.262101
H389	H	0.967464	0.750948	0.463996
H390	H	1.217464	1.000948	0.713996
H391	H	1.467464	1.250948	0.963996
H392	H	1.717464	1.500948	1.213996
C393	C	1.179732	0.251456	0.912102
C394	C	1.429732	0.501456	1.162102
C395	C	1.679732	0.751456	1.412102
C396	C	1.929732	1.001456	1.662102
H397	H	1.227803	0.264472	0.895106
H398	H	1.477803	0.514472	1.145106
H399	H	1.727803	0.764472	1.395106
H400	H	1.977803	1.014472	1.645106
H401	H	1.167278	0.203484	0.894434
H402	H	1.417278	0.453484	1.144434
H403	H	1.667278	0.703484	1.394434
H404	H	1.917278	0.953484	1.644434
H405	H	1.179153	0.251460	0.964729
H406	H	1.429153	0.501460	1.214729
H407	H	1.679153	0.751460	1.464729
H408	H	1.929153	1.001460	1.714729
H409	H	1.106690	0.482794	0.904739
H410	H	1.356690	0.732794	1.154739
H411	H	1.606690	0.982794	1.404739
H412	H	1.856690	1.232794	1.654739
C413	C	1.034266	0.803713	0.212719
C414	C	1.284266	1.053713	0.462719
C415	C	1.534266	1.303713	0.712719
C416	C	1.784266	1.553713	0.962719
H417	H	1.034341	0.751083	0.213193
H418	H	1.284341	1.001083	0.463193
H419	H	1.534341	1.251083	0.713193
H420	H	1.784341	1.501083	0.963193
H421	H	1.069316	0.820987	0.177484
H422	H	1.319316	1.070987	0.427484
H423	H	1.569316	1.320987	0.677484
H424	H	1.819316	1.570987	0.927484
H425	H	0.986306	0.821088	0.199711
H426	H	1.236306	1.071088	0.449711
H427	H	1.486306	1.321088	0.699711
H428	H	1.736306	1.571088	0.949711
C429	C	1.179588	0.911203	0.251689
C430	C	1.429588	1.161203	0.501689
C431	C	1.679588	1.411203	0.751689
C432	C	1.929588	1.661203	1.001689
H433	H	1.166609	0.894231	0.203592
H434	H	1.416609	1.144231	0.453592
H435	H	1.666609	1.394231	0.703592
H436	H	1.916609	1.644231	0.953592
H437	H	1.227549	0.893492	0.264214
H438	H	1.477549	1.143492	0.514214
H439	H	1.727549	1.393492	0.764214
H440	H	1.977549	1.643492	1.014214
H441	H	1.179590	0.963830	0.252284
H442	H	1.429590	1.213830	0.502284
H443	H	1.679590	1.463830	0.752284
H444	H	1.929590	1.713830	1.002284
H445	H	1.039807	0.232736	0.811899
H446	H	1.289807	0.482736	1.061899
H447	H	1.539807	0.732736	1.311899
H448	H	1.789807	0.982736	1.561899
H449	H	0.948246	0.324232	0.904701
H450	H	1.198246	0.574232	1.154701
H451	H	1.448246	0.824232	1.404701
H452	H	1.698246	1.074232	1.654701
