data_functionalizedCrystal
_audit_creation_method	'MofGen! by Chris Wilmer'
_symmetry_space_group_name_H-M	'P1'
_symmetry_Int_Tables_number	1
_symmetry_cell_setting	triclinic
loop_
_symmetry_equiv_pos_as_xyz
  x,y,z
_cell_length_a	8.497374
_cell_length_b	19.805407
_cell_length_c	19.805405
_cell_angle_alpha	89.973590
_cell_angle_beta	89.985911
_cell_angle_gamma	90.004504
loop_
_atom_site_label
_atom_site_type_symbol
_atom_site_fract_x
_atom_site_fract_y
_atom_site_fract_z
Zn1	Zn	0.892011	1.034635	0.269581
Zn2	Zn	0.628188	1.034580	0.382739
Zn3	Zn	0.628226	0.921479	0.269569
Zn4	Zn	0.891907	0.921413	0.382733
O5	O	0.760083	0.978027	0.326155
O6	O	0.857043	1.129344	0.284598
O7	O	0.407431	1.019581	0.367724
O8	O	0.663277	0.936541	0.174854
O9	O	0.663213	1.129303	0.367735
O10	O	0.857079	1.019676	0.174862
O11	O	0.407458	0.936487	0.284579
O12	O	0.663176	0.826754	0.284573
O13	O	1.112683	0.936428	0.367725
O14	O	0.856901	0.826705	0.367714
O15	O	1.112760	1.019611	0.284593
O16	O	0.663111	1.019517	0.477455
O17	O	0.856864	0.936374	0.477450
C18	C	0.760032	0.802171	0.326142
C19	C	0.760048	0.726939	0.326153
C20	C	0.860757	0.691587	0.369510
C21	C	0.860779	0.620899	0.369511
C22	C	0.760083	0.585563	0.326158
C23	C	0.659369	0.620920	0.282797
C24	C	0.659356	0.691607	0.282793
C25	C	0.659421	0.335847	0.282812
C26	C	0.659439	0.265155	0.282821
C27	C	0.860844	0.265138	0.369530
C28	C	0.860831	0.335825	0.369526
C29	C	0.760124	0.371176	0.326162
C30	C	0.760103	0.447824	0.326161
C31	C	0.760095	0.508916	0.326163
C32	C	0.760007	0.977951	0.502011
C33	C	0.760027	0.977980	0.577243
C34	C	1.171563	0.978022	0.326156
C35	C	1.350207	0.978023	0.326164
C36	C	0.760135	1.154569	0.326169
C37	C	0.760157	1.229801	0.326175
C38	C	0.760194	0.978122	0.149613
C39	C	0.760241	0.978162	0.074381
C40	C	0.659245	1.021314	0.612567
C41	C	0.659280	1.021343	0.683256
C42	C	0.760090	0.978034	0.718619
C43	C	0.860882	0.934697	0.683290
C44	C	0.860854	0.934672	0.612603
C45	C	0.860999	0.934797	0.968363
C46	C	0.861016	0.934824	1.039055
C47	C	0.659425	1.021468	1.039016
C48	C	0.659397	1.021443	0.968329
C49	C	0.760195	0.978109	0.933006
C50	C	0.760158	0.978080	0.856358
C51	C	0.760120	0.978059	0.795266
H52	H	0.942751	0.720352	0.404815
C53	C	1.059817	0.627982	0.455240
C54	C	0.971457	0.582040	0.417181
H55	H	1.128135	0.603991	0.484676
H56	H	1.120299	0.655564	0.425795
H57	H	0.990936	0.655542	0.481071
H58	H	1.040337	0.554483	0.391346
H59	H	0.910970	0.554447	0.446630
H60	H	0.942823	0.364592	0.404830
C61	C	1.128104	0.901777	1.060811
C62	C	0.971847	0.887220	1.077930
H63	H	1.196518	0.872392	1.084814
H64	H	1.142510	0.895556	1.013663
H65	H	1.151258	0.947253	1.072357
H66	H	0.948689	0.841745	1.066379
H67	H	0.957433	0.893436	1.125088
C68	C	0.569961	0.444206	0.244297
C69	C	0.548713	0.374699	0.235153
H70	H	0.501614	0.468192	0.214871
H71	H	0.546678	0.455769	0.289752
H72	H	0.676000	0.455796	0.234458
H73	H	0.442676	0.363108	0.244998
H74	H	0.571984	0.363131	0.189688
C75	C	0.950329	0.156772	0.408039
C76	C	0.971564	0.226278	0.417190
H77	H	1.018687	0.132785	0.437460
H78	H	0.844307	0.145177	0.417874
H79	H	0.973620	0.145215	0.362576
H80	H	0.948262	0.237836	0.462652
H81	H	1.077611	0.237878	0.407360
C82	C	0.460367	0.272267	0.197092
C83	C	0.548757	0.226312	0.235159
H84	H	0.392049	0.248286	0.167668
H85	H	0.399883	0.299821	0.226534
H86	H	0.529228	0.299853	0.171250
H87	H	0.479896	0.198729	0.261005
H88	H	0.609246	0.198747	0.205713
C89	C	0.882677	0.843721	0.888941
C90	C	0.971775	0.887162	0.929536
H91	H	0.951070	0.814315	0.864965
H92	H	0.813911	0.817868	0.916550
H93	H	0.822645	0.869522	0.857769
H94	H	1.031799	0.861362	0.960712
H95	H	1.040569	0.913018	0.901925
C96	C	1.060165	0.849054	0.676223
C97	C	0.971704	0.887092	0.722159
H98	H	1.128587	0.819667	0.700220
H99	H	0.991367	0.823179	0.648688
H100	H	1.120556	0.878521	0.648617
H101	H	0.911304	0.857625	0.749762
H102	H	1.040511	0.912969	0.749706
H103	H	0.577387	0.592144	0.247496
H104	H	0.942923	0.899386	0.583843
H105	H	0.577356	0.720390	0.247484
C106	C	0.392326	1.054510	0.946586
C107	C	0.548585	1.069052	0.929460
H108	H	0.323921	1.083908	0.922594
H109	H	0.369141	1.009044	0.935038
H110	H	0.377939	1.060728	0.993742
H111	H	0.562975	1.062829	0.882305
H112	H	0.571778	1.114529	0.941004
H113	H	0.577148	1.056579	0.583779
C114	C	0.582806	1.136011	0.704798
C115	C	0.548498	1.069029	0.722021
H116	H	0.514405	1.165466	0.728709
H117	H	0.688809	1.145865	0.716377
H118	H	0.568441	1.142128	0.657625
H119	H	0.562874	1.062910	0.769193
H120	H	0.442469	1.059172	0.710446
C121	C	0.569998	1.060013	1.147358
C122	C	0.548670	1.069123	1.077845
H123	H	0.501637	1.089438	1.171326
H124	H	0.546784	1.014559	1.158989
H125	H	0.676036	1.069874	1.158901
H126	H	0.442635	1.059257	1.066301
H127	H	0.571873	1.114587	1.066209
