data_functionalizedCrystal
_audit_creation_method	'MofGen! by Chris Wilmer'
_symmetry_space_group_name_H-M	'P1'
_symmetry_Int_Tables_number	1
_symmetry_cell_setting	triclinic
loop_
_symmetry_equiv_pos_as_xyz
  x,y,z
_cell_length_a	12.837943
_cell_length_b	12.996460
_cell_length_c	14.519731
_cell_angle_alpha	89.992872
_cell_angle_beta	90.741103
_cell_angle_gamma	90.004257
loop_
_atom_site_label
_atom_site_type_symbol
_atom_site_fract_x
_atom_site_fract_y
_atom_site_fract_z
O1	O	1.375920	0.085554	-0.239787
O2	O	1.074092	0.085559	-0.227942
O3	O	1.232997	0.085547	-0.100318
O4	O	1.217015	0.085566	-0.367411
O5	O	1.232981	-0.085587	-0.100308
O6	O	1.074075	-0.085575	-0.227933
O7	O	1.375904	-0.085580	-0.239777
Cu8	Cu	1.224988	-0.101203	-0.233854
Cu9	Cu	1.225008	0.101182	-0.233865
O10	O	1.216998	-0.085568	-0.367402
C11	C	1.035455	-0.000007	-0.223936
C12	C	0.920355	-0.000005	-0.212002
N13	N	1.224982	-0.243550	-0.233847
C14	C	0.679675	-0.000010	-0.355472
C15	C	0.571527	-0.000009	-0.344263
C16	C	0.595910	-0.000009	-0.178376
C17	C	0.704058	-0.000010	-0.189585
C18	C	0.745936	-0.000009	-0.278135
C19	C	0.854085	-0.000003	-0.289344
C20	C	0.878466	-0.000011	-0.123457
C21	C	0.770319	-0.000010	-0.112248
C22	C	1.225006	-0.663365	-0.233866
C23	C	1.224996	-0.546560	-0.233863
C24	C	1.224994	-0.453461	-0.233857
C25	C	1.224984	-0.336649	-0.233853
C26	C	1.414540	-0.000012	-0.243784
C27	C	1.529641	-0.000007	-0.255718
C28	C	1.232240	-0.000020	-0.065889
C29	C	1.229996	-0.000021	0.036685
N30	N	1.225022	0.243529	-0.233866
C31	C	1.217756	0.000001	-0.401830
C32	C	1.220000	0.000009	-0.504405
C33	C	1.228173	-0.000018	0.119987
C34	C	1.225894	-0.000010	0.224493
C35	C	1.224086	-0.000004	0.307788
C36	C	1.221808	0.000002	0.412300
H37	H	0.888180	-0.000003	-0.361446
H38	H	0.713772	-0.000007	-0.427573
H39	H	0.517580	-0.000012	-0.407238
H40	H	0.561793	-0.000095	-0.106282
H41	H	0.736206	-0.000023	-0.040153
C42	C	0.950529	0.000153	-0.039564
C43	C	1.013348	0.088188	-0.041176
C44	C	1.079753	0.088373	0.036082
H45	H	0.910223	0.000206	0.014839
H46	H	0.993285	-0.059492	-0.040477
H47	H	0.970596	0.147817	-0.040256
H48	H	1.053676	0.088153	-0.095562
H49	H	1.122509	0.028728	0.035169
H50	H	1.039438	0.088423	0.090479
H51	H	1.122389	0.148098	0.034994
