data_functionalizedCrystal
_audit_creation_method	'MofGen! by Chris Wilmer'
_symmetry_space_group_name_H-M	'P1'
_symmetry_Int_Tables_number	1
_symmetry_cell_setting	triclinic
loop_
_symmetry_equiv_pos_as_xyz
  x,y,z
_cell_length_a	8.634740
_cell_length_b	10.654545
_cell_length_c	7.088929
_cell_angle_alpha	83.718243
_cell_angle_beta	97.174675
_cell_angle_gamma	92.527867
loop_
_atom_site_label
_atom_site_type_symbol
_atom_site_fract_x
_atom_site_fract_y
_atom_site_fract_z
O1	O	2.034737	0.420983	-0.158973
O2	O	1.585417	0.386605	-0.158977
O3	O	1.820407	0.222231	-0.158974
O4	O	1.799747	0.585357	-0.158976
O5	O	1.851810	0.200206	0.159002
O6	O	1.616820	0.364580	0.158999
O7	O	2.066141	0.398958	0.159002
Cu8	Cu	1.844348	0.379758	0.188034
Cu9	Cu	1.807210	0.405805	-0.188009
O10	O	1.831151	0.563331	0.158999
C11	C	1.543585	0.367805	0.000010
C12	C	1.372153	0.344584	0.000009
C13	C	1.834591	0.164248	0.000010
C14	C	1.830050	0.024289	-0.000001
C15	C	1.795832	0.048295	-0.346667
C16	C	1.776596	-0.005454	-0.520000
C17	C	1.772331	-0.136959	-0.520002
C18	C	1.787299	-0.214718	-0.346653
C19	C	1.806535	-0.160969	-0.173321
C20	C	1.810803	-0.029460	-0.173337
C21	C	1.840742	-0.184975	0.173342
C22	C	1.845018	-0.053471	0.173348
C23	C	1.855710	-0.262735	0.346691
C24	C	1.874957	-0.208986	0.520028
C25	C	1.879224	-0.077473	0.520023
C26	C	1.864254	0.000278	0.346681
C27	C	2.107972	0.417759	0.000011
C28	C	2.279403	0.440980	0.000000
C29	C	1.816966	0.621315	0.000011
C30	C	1.821506	0.761275	0.000009
N31	N	1.870480	0.361438	0.452523
N32	N	1.781090	0.424116	-0.452497
H33	H	1.331148	0.541271	0.000017
C34	C	2.035292	-0.268036	0.815532
C35	C	1.891405	-0.294455	0.710558
H36	H	2.045439	-0.320801	0.933164
H37	H	2.117425	-0.283370	0.744324
H38	H	2.040579	-0.182022	0.840328
H39	H	1.886122	-0.380467	0.685750
H40	H	1.809250	-0.279132	0.781782
H41	H	1.852227	-0.369812	0.346677
H42	H	1.894864	-0.033720	0.661172
H43	H	1.320398	0.244289	-0.000045
H44	H	1.867734	0.107358	0.346660
H45	H	1.688447	0.489068	0.465855
C46	C	1.678778	0.228233	-0.252307
C47	C	1.800536	0.192847	-0.346660
H48	H	1.681693	0.317474	-0.252297
H49	H	1.581630	0.201633	-0.316350
H50	H	1.690455	0.189605	-0.124272
H51	H	1.788853	0.231467	-0.474700
H52	H	1.897708	0.219460	-0.282620
C53	C	2.142974	0.315493	0.514463
C54	C	1.995562	0.273752	0.562740
H55	H	2.220189	0.261362	0.582517
H56	H	2.144736	0.314232	0.380983
H57	H	2.163978	0.399190	0.547182
H58	H	1.974553	0.190058	0.530008
H59	H	1.993796	0.275000	0.696249
C60	C	1.768028	0.206800	-0.673948
C61	C	1.760194	0.080022	-0.710540
H62	H	1.757922	0.259563	-0.791581
H63	H	1.685859	0.222132	-0.602794
H64	H	1.865630	0.224687	-0.602676
H65	H	1.662586	0.062132	-0.781800
H66	H	1.842369	0.064683	-0.781724
H67	H	1.756653	-0.180720	-0.661145
H68	H	1.783806	-0.321796	-0.346671
