data_functionalizedCrystal
_audit_creation_method	'MofGen! by Chris Wilmer'
_symmetry_space_group_name_H-M	'P1'
_symmetry_Int_Tables_number	1
_symmetry_cell_setting	triclinic
loop_
_symmetry_equiv_pos_as_xyz
  x,y,z
_cell_length_a	14.044191
_cell_length_b	12.503572
_cell_length_c	14.044220
_cell_angle_alpha	93.843168
_cell_angle_beta	86.809673
_cell_angle_gamma	93.837835
loop_
_atom_site_label
_atom_site_type_symbol
_atom_site_fract_x
_atom_site_fract_y
_atom_site_fract_z
O1	O	1.282208	0.089273	-0.225145
O2	O	1.005536	0.089287	-0.216832
O3	O	1.139719	0.089269	-0.082653
O4	O	1.148026	0.089290	-0.359324
O5	O	1.129629	-0.089371	-0.092762
O6	O	0.995447	-0.089354	-0.226941
O7	O	1.272118	-0.089368	-0.235254
Cu8	Cu	1.132861	-0.105672	-0.232021
Cu9	Cu	1.144794	0.105591	-0.220065
O10	O	1.137936	-0.089350	-0.369433
C11	C	0.964870	-0.000032	-0.218250
C12	C	0.858727	-0.000027	-0.207402
C13	C	0.613268	-0.000034	-0.264503
C14	C	0.664393	-0.000038	-0.187587
C15	C	0.772531	-0.000032	-0.198615
C16	C	0.505121	-0.000040	-0.253477
N17	N	1.124476	-0.254263	-0.240429
C18	C	1.112141	-0.473377	-0.252807
C19	C	1.165518	-0.526711	-0.199275
C20	C	1.158655	-0.648633	-0.206162
C21	C	1.119003	-0.351444	-0.245921
C22	C	1.312785	-0.000046	-0.233836
C23	C	1.418929	-0.000044	-0.244683
C24	C	1.131038	-0.000051	-0.052086
C25	C	1.120194	-0.000052	0.054057
N26	N	1.153186	0.254182	-0.211650
C27	C	1.146617	-0.000027	-0.400000
C28	C	1.157462	-0.000020	-0.506143
C29	C	1.100368	-0.000036	0.248396
C30	C	1.177283	-0.000036	0.299524
C31	C	1.166252	-0.000027	0.407661
C32	C	1.111398	-0.000045	0.140249
H33	H	0.626954	0.000032	-0.113450
C34	C	1.277435	-0.000058	0.248951
C35	C	1.288475	-0.000077	0.139242
C36	C	1.388622	-0.000105	0.088663
C37	C	1.477728	-0.000115	0.147794
C38	C	1.466690	-0.000097	0.257509
C39	C	1.366543	-0.000068	0.308087
H40	H	1.222511	-0.000070	0.095465
H41	H	1.396793	-0.000119	0.007445
H42	H	1.551863	-0.000136	0.110352
H43	H	1.532655	-0.000104	0.301286
H44	H	1.358373	-0.000055	0.389306
H45	H	1.026241	-0.000029	0.285835
H46	H	1.216371	-0.480805	-0.148273
C47	C	0.663845	-0.000004	-0.364645
C48	C	0.773555	0.000016	-0.375673
C49	C	0.824146	0.000055	-0.475813
C50	C	0.765028	0.000074	-0.564927
C51	C	0.655312	0.000054	-0.553902
C52	C	0.604720	0.000015	-0.453762
H53	H	0.817324	0.000002	-0.309703
H54	H	0.905365	0.000070	-0.483974
H55	H	0.802478	0.000103	-0.639057
H56	H	0.611543	0.000068	-0.619872
H57	H	0.523501	-0.000000	-0.445601
C58	C	1.043451	-0.535382	-0.321714
C59	C	1.035918	-0.659063	-0.327918
C60	C	0.967233	-0.721082	-0.396827
C61	C	0.906081	-0.659420	-0.459532
C62	C	0.913613	-0.535731	-0.453330
C63	C	0.982298	-0.473712	-0.384421
H64	H	1.081187	-0.704716	-0.281498
H65	H	0.961658	-0.812645	-0.401418
H66	H	0.855237	-0.705330	-0.510543
H67	H	0.868344	-0.490078	-0.499750
H68	H	0.987873	-0.382149	-0.379830
