data_functionalizedCrystal
_audit_creation_method	'MofGen! by Chris Wilmer'
_symmetry_space_group_name_H-M	'P1'
_symmetry_Int_Tables_number	1
_symmetry_cell_setting	triclinic
loop_
_symmetry_equiv_pos_as_xyz
  x,y,z
_cell_length_a	13.635800
_cell_length_b	17.110486
_cell_length_c	10.992421
_cell_angle_alpha	84.852548
_cell_angle_beta	71.235237
_cell_angle_gamma	99.060439
loop_
_atom_site_label
_atom_site_type_symbol
_atom_site_fract_x
_atom_site_fract_y
_atom_site_fract_z
V1	V	-2.001898	-0.246709	0.177378
O2	O	-1.982011	-0.242024	-0.008917
O3	O	-1.991067	-0.245011	0.352090
O4	O	-1.966607	-0.354313	0.174477
O5	O	-2.006641	-0.131966	0.169925
V6	V	-2.243417	-0.232986	0.155115
O7	O	-2.133060	-0.276811	0.226213
O8	O	-2.337354	-0.202884	0.106280
O9	O	-2.142644	-0.234684	-0.019596
O10	O	-2.322002	-0.237671	0.341411
O11	O	-2.297372	-0.347729	0.162569
O12	O	-2.167104	-0.125383	0.158017
V13	V	-1.501898	-0.246709	0.177378
O14	O	-1.482011	-0.242024	-0.008917
O15	O	-1.491067	-0.245011	0.352090
O16	O	-1.466607	-0.354313	0.174477
O17	O	-1.506641	-0.131966	0.169925
V18	V	-1.743417	-0.232986	0.155115
O19	O	-1.633060	-0.276811	0.226213
O20	O	-1.837354	-0.202884	0.106280
O21	O	-1.642644	-0.234684	-0.019596
O22	O	-1.822002	-0.237671	0.341411
O23	O	-1.797372	-0.347729	0.162569
O24	O	-1.667104	-0.125383	0.158017
C25	C	-1.885977	-0.380540	0.168122
C26	C	-1.897853	-0.468506	0.166906
C27	C	-1.994566	-0.513864	0.172747
C28	C	-2.005719	-0.596517	0.171603
C29	C	-1.920159	-0.633812	0.164628
C30	C	-1.823437	-0.588448	0.158783
C31	C	-1.812283	-0.505796	0.159917
C32	C	-1.949274	-0.883168	0.160874
C33	C	-1.960436	-0.965827	0.159745
C34	C	-2.142717	-0.973889	0.172563
C35	C	-2.131557	-0.891236	0.173704
C36	C	-2.034835	-0.845878	0.167852
C37	C	-1.931557	-0.718298	0.163463
C38	C	-2.023435	-0.761394	0.169008
C39	C	-1.917179	-0.241116	0.394686
C40	C	-1.948893	-0.240445	0.537514
C41	C	-2.048204	-0.238577	-0.062186
C42	C	-2.006108	-0.239253	-0.205012
C43	C	-2.079406	-0.099151	0.164376
C44	C	-2.057149	-0.011184	0.165586
C45	C	-1.417179	-0.241116	0.394686
C46	C	-1.448893	-0.240445	0.537514
C47	C	-1.385977	-0.380540	0.168122
C48	C	-1.397853	-0.468506	0.166906
C49	C	-1.883937	-0.235034	0.732809
C50	C	-1.850810	-0.235418	0.584164
C51	C	-2.000717	-0.166652	0.576264
C52	C	-2.033009	-0.165870	0.724808
C53	C	-2.064900	-0.317142	0.763155
C54	C	-2.030014	-0.318743	0.614639
C55	C	-1.548204	-0.238577	-0.062186
C56	C	-1.506108	-0.239253	-0.205012
C57	C	-1.579406	-0.099151	0.164376
C58	C	-1.557149	-0.011184	0.165586
C59	C	-1.494571	-0.513849	0.172734
C60	C	-1.505740	-0.596502	0.171575
C61	C	-1.420191	-0.633811	0.164596
C62	C	-1.323464	-0.588461	0.158763
C63	C	-1.312294	-0.505810	0.159913
C64	C	-1.460465	0.026104	0.172550
C65	C	-1.439533	0.108760	0.173671
C66	C	-1.515291	0.154124	0.167837
C67	C	-1.611982	0.116830	0.160869
C68	C	-1.632909	0.034177	0.159738
C69	C	-1.383937	-0.235034	0.732809
C70	C	-1.350810	-0.235418	0.584164
C71	C	-1.500717	-0.166652	0.576264
C72	C	-1.533009	-0.165870	0.724808
C73	C	-1.564900	-0.317142	0.763155
C74	C	-1.530014	-0.318743	0.614639
H75	H	-2.064243	-0.483505	0.178435
N76	N	-1.477005	-0.088263	0.748141
H77	H	-1.431986	-0.054726	0.662015
H78	H	-1.430652	-0.100153	0.800160
H79	H	-1.621141	-0.165754	0.765691
N80	N	-1.707969	-0.456869	0.153608
H81	H	-1.655458	-0.493036	0.149018
H82	H	-1.718322	-0.430076	0.233801
H83	H	-1.653959	-0.321010	0.804266
H84	H	-1.861897	-0.748673	0.157789
H85	H	-1.673657	0.153779	0.156116
N86	N	-1.737194	-0.006036	0.152225
H87	H	-1.782003	0.035249	0.148702
H88	H	-1.775208	-0.047830	0.231482
N89	N	-1.610071	-0.645411	0.177886
H90	H	-1.599824	-0.672197	0.097692
H91	H	-1.662520	-0.609187	0.182543
H92	H	-2.084470	-0.633443	0.176352
H93	H	-1.859295	-0.287435	0.779149
H94	H	-1.359295	-0.287435	0.779149
H95	H	-1.838614	-0.178863	0.753456
H96	H	-2.073342	-0.167503	0.546027
H97	H	-1.310445	-0.288146	0.558318
H98	H	-1.493293	-0.373339	0.590658
N99	N	-1.323891	-0.160628	0.760139
H100	H	-1.375484	-0.129642	0.812624
H101	H	-1.277836	-0.126150	0.675294
H102	H	-1.573342	-0.167503	0.546027
N103	N	-1.268988	-0.160959	0.514827
H104	H	-1.299830	-0.112027	0.537309
H105	H	-1.247112	-0.160965	0.417887
N106	N	-1.231201	-0.628707	0.151252
H107	H	-1.170448	-0.604891	0.068652
H108	H	-1.253058	-0.687941	0.151471
N109	N	-2.115710	-0.721165	0.176533
H110	H	-2.176450	-0.744985	0.259143
H111	H	-2.138458	-0.729639	0.099080
H112	H	-1.233534	-0.468897	0.155170
N113	N	-1.424797	-0.089867	0.504540
H114	H	-1.358401	-0.085840	0.527623
H115	H	-1.458951	-0.042774	0.530158
H116	H	-1.498242	0.221423	0.168774
H117	H	-1.549231	-0.372979	0.812585
N118	N	-2.044158	-0.391109	0.828634
H119	H	-1.996437	-0.374874	0.879605
H120	H	-2.008923	-0.423306	0.760583
N121	N	-1.626776	-0.329668	0.574617
H122	H	-1.619368	-0.283810	0.505619
H123	H	-1.691491	-0.330763	0.652671
H124	H	-1.810445	-0.288146	0.558318
H125	H	-1.993293	-0.373339	0.590658
N126	N	-1.378749	-0.022815	0.178850
H127	H	-1.314327	0.013360	0.183428
H128	H	-1.358102	-0.049607	0.098656
H129	H	-1.789054	-0.179201	0.531809
N130	N	-2.223838	-0.851011	0.181222
H131	H	-2.286799	-0.892287	0.184745
H132	H	-2.204219	-0.809216	0.101965
N133	N	-2.247033	-1.022809	0.178870
H134	H	-2.241120	-1.080828	0.177092
H135	H	-2.265922	-1.002443	0.101859
H136	H	-1.890756	-0.996189	0.154060
H137	H	-1.870529	-0.846252	0.156155
N138	N	-1.731146	-0.628664	0.151256
H139	H	-1.712755	-0.655101	0.070500
H140	H	-1.750730	-0.670415	0.230563
N141	N	-1.924793	-0.089868	0.504545
H142	H	-1.909421	-0.055851	0.569233
H143	H	-1.957332	-0.059663	0.449429
H144	H	-1.990725	-0.107280	0.742413
N145	N	-2.149747	-0.165717	0.778976
H146	H	-2.180020	-0.166153	0.706342
H147	H	-2.160671	-0.116089	0.820759
N148	N	-2.126776	-0.329668	0.574617
H149	H	-2.119368	-0.283810	0.505619
H150	H	-2.191491	-0.330763	0.652671
H151	H	-2.153959	-0.321010	0.804266
N152	N	-1.586846	-0.473620	0.180234
H153	H	-1.565107	-0.414378	0.180076
H154	H	-1.647562	-0.497508	0.262826
H155	H	-1.360797	0.139112	0.179345
N156	N	-1.432262	-0.722956	0.163329
H157	H	-1.489699	-0.752127	0.245563
H158	H	-1.363353	-0.739659	0.157966
