data_functionalizedCrystal
_audit_creation_method	'MofGen! by Chris Wilmer'
_symmetry_space_group_name_H-M	'P1'
_symmetry_Int_Tables_number	1
_symmetry_cell_setting	triclinic
loop_
_symmetry_equiv_pos_as_xyz
  x,y,z
_cell_length_a	19.121102
_cell_length_b	29.839131
_cell_length_c	19.120904
_cell_angle_alpha	87.598232
_cell_angle_beta	89.911827
_cell_angle_gamma	87.589066
loop_
_atom_site_label
_atom_site_type_symbol
_atom_site_fract_x
_atom_site_fract_y
_atom_site_fract_z
Zn1	Zn	1.054788	-0.219753	0.441992
Zn2	Zn	1.059688	-0.291815	0.324733
Zn3	Zn	0.942558	-0.213364	0.319778
Zn4	Zn	0.937500	-0.291513	0.436935
O5	O	0.998633	-0.254111	0.380859
O6	O	1.153542	-0.232113	0.430627
O7	O	1.048319	-0.278861	0.225971
O8	O	0.957512	-0.151347	0.336033
O9	O	1.157143	-0.285057	0.344477
O10	O	1.039966	-0.156042	0.425823
O11	O	0.962264	-0.221223	0.222331
O12	O	0.843783	-0.220930	0.331129
O13	O	0.948890	-0.284542	0.535710
O14	O	0.840066	-0.278346	0.417204
O15	O	1.035061	-0.231820	0.539425
O16	O	1.043414	-0.354639	0.339574
O17	O	0.953642	-0.354418	0.422008
C18	C	0.816487	-0.248912	0.373081
C19	C	0.738563	-0.246699	0.369769
C20	C	0.700041	-0.275595	0.412958
C21	C	0.626823	-0.273509	0.409850
C22	C	0.592129	-0.242531	0.363550
C23	C	0.630656	-0.213632	0.320360
C24	C	0.703873	-0.215715	0.323471
C25	C	0.371158	-0.234741	0.351919
C26	C	0.297937	-0.232660	0.348809
C27	C	0.294108	-0.292537	0.438300
C28	C	0.367326	-0.294620	0.441405
C29	C	0.405847	-0.265720	0.398218
C30	C	0.517289	-0.240399	0.360370
C31	C	0.480686	-0.267849	0.401401
C32	C	0.998529	-0.370829	0.380796
C33	C	0.998548	-0.420764	0.380795
C34	C	1.041555	-0.732823	0.427677
C35	C	1.041629	-0.920499	0.427722
O36	O	1.078093	-0.946813	0.467534
N37	N	0.998749	-0.941559	0.380942
C38	C	0.955844	-0.915697	0.334151
O39	O	0.919368	-0.937916	0.294368
C40	C	0.955767	-0.728021	0.334110
C41	C	0.998655	-0.706964	0.380888
C42	C	1.084439	-0.711765	0.474451
C43	C	1.084423	-0.664849	0.474437
C44	C	1.041523	-0.638990	0.427648
C45	C	0.998639	-0.660048	0.380873
C46	C	0.912858	-0.702160	0.287322
C47	C	0.912841	-0.655238	0.287317
C48	C	0.955730	-0.634181	0.334095
C49	C	0.955722	-0.587273	0.334070
N50	N	0.998602	-0.566213	0.380849
C51	C	1.041502	-0.592071	0.427639
C52	C	0.955889	-1.014229	0.334175
C53	C	0.955909	-1.061148	0.334185
C54	C	1.041693	-1.065947	0.427757
C55	C	1.041676	-1.019027	0.427743
C56	C	0.998769	-0.993169	0.380955
C57	C	1.041466	-0.493544	0.427604
C58	C	1.041448	-0.446623	0.427584
C59	C	0.955661	-0.441828	0.334015
C60	C	0.955681	-0.488745	0.334032
C61	C	0.998586	-0.514601	0.380833
O62	O	0.919272	-0.560931	0.294284
O63	O	1.077961	-0.569844	0.467426
C64	C	1.041571	-0.779739	0.427691
C65	C	0.998687	-0.800796	0.380916
C66	C	0.955787	-0.774938	0.334127
C67	C	0.998707	-0.847715	0.380926
C68	C	1.041608	-0.873574	0.427715
C69	C	1.084488	-0.852514	0.474495
C70	C	1.084471	-0.805598	0.474480
C71	C	0.912907	-0.795997	0.287348
C72	C	0.912927	-0.842914	0.287365
C73	C	0.955827	-0.868773	0.334154
C74	C	1.181491	-0.259331	0.388669
C75	C	1.259414	-0.261556	0.391997
C76	C	0.990865	-0.258860	0.563716
C77	C	0.987554	-0.260884	0.641639
C78	C	0.998757	-0.136939	0.380940
C79	C	0.998809	-0.087006	0.380974
C80	C	1.006412	-0.249350	0.198716
C81	C	1.009859	-0.247203	0.120799
C82	C	1.030861	-0.234386	0.680183
C83	C	1.027742	-0.236286	0.753399
C84	C	0.981319	-0.264685	0.788070
C85	C	0.938007	-0.291184	0.749521
C86	C	0.941123	-0.289282	0.676306
C87	C	0.969663	-0.271800	1.009035
C88	C	0.966552	-0.273701	1.082256
C89	C	1.056286	-0.218802	1.086128
C90	C	1.059401	-0.216904	1.012912
C91	C	1.016086	-0.243401	0.974369
C92	C	0.978131	-0.266629	0.862909
C93	C	1.019271	-0.241455	0.899532
H94	H	0.262736	-0.316065	0.473462
H95	H	1.076375	-0.429480	0.465676
H96	H	1.119395	-0.788457	0.512571
Cl97	Cl	1.089228	-0.198684	0.636603
H98	H	0.728283	-0.300822	0.450658
H99	H	0.877899	-0.634186	0.249217
Cl100	Cl	0.587041	-0.174684	0.262158
Cl101	Cl	1.095406	-0.526042	0.486438
Cl102	Cl	0.902000	-1.087614	0.275366
H103	H	0.905851	-0.310854	0.644924
H104	H	1.063009	-0.214710	0.784778
Cl105	Cl	0.908183	-0.309403	1.125841
H106	H	0.900206	-0.314306	0.777756
Cl107	Cl	1.117764	-0.181201	0.969330
Cl108	Cl	0.858966	-0.763496	0.228524
Cl109	Cl	1.138421	-0.885031	0.533313
Cl110	Cl	1.077622	-0.205749	0.855943
Cl111	Cl	0.410936	-0.333567	0.499612
Cl112	Cl	1.138376	-0.744265	0.533282
Cl113	Cl	0.473667	-0.201456	0.302166
Cl114	Cl	0.901940	-0.981728	0.275351
H115	H	0.878004	-0.860054	0.249266
Cl116	Cl	1.138336	-0.638384	0.533253
H117	H	0.940337	-0.289754	0.891147
H118	H	0.920764	-0.505890	0.295937
H119	H	0.508937	-0.293070	0.439101
H120	H	1.076625	-1.087009	0.465853
Cl121	Cl	0.901732	-0.409311	0.275197
Cl122	Cl	0.419575	-0.198407	0.297627
H123	H	0.934404	-0.293382	0.977663
Cl124	Cl	0.578398	-0.309837	0.464147
Cl125	Cl	0.858935	-0.728620	0.228514
Cl126	Cl	0.254323	-0.193716	0.290593
Cl127	Cl	0.752301	-0.179387	0.269177
Cl128	Cl	1.095593	-0.992560	0.486553
H129	H	1.091549	-0.197229	1.117518
