data_functionalizedCrystal
_audit_creation_method	'MofGen! by Chris Wilmer'
_symmetry_space_group_name_H-M	'P1'
_symmetry_Int_Tables_number	1
_symmetry_cell_setting	triclinic
loop_
_symmetry_equiv_pos_as_xyz
  x,y,z
_cell_length_a	10.723024
_cell_length_b	13.339070
_cell_length_c	9.198806
_cell_angle_alpha	89.999439
_cell_angle_beta	89.996352
_cell_angle_gamma	100.048582
loop_
_atom_site_label
_atom_site_type_symbol
_atom_site_fract_x
_atom_site_fract_y
_atom_site_fract_z
O1	O	1.704931	0.142225	-0.120877
O2	O	1.346349	0.155839	-0.120882
O3	O	1.484486	0.001483	-0.120876
O4	O	1.566793	0.296581	-0.120883
O5	O	1.484471	0.001483	0.120909
O6	O	1.346333	0.155839	0.120903
O7	O	1.704916	0.142225	0.120908
Cu8	Cu	1.525623	0.149032	0.142982
Cu9	Cu	1.525641	0.149032	-0.142957
O10	O	1.566778	0.296581	0.120902
C11	C	1.299509	0.154848	0.000010
C12	C	1.159959	0.151884	0.000008
C13	C	1.113970	0.238253	0.000005
C14	C	0.969739	0.235192	0.000003
C15	C	1.470575	-0.036303	0.000015
C16	C	1.429133	-0.148892	0.000008
C17	C	1.751368	-0.511449	0.000013
C18	C	1.790309	-0.405666	0.000027
C19	C	1.700018	-0.341468	0.000022
C20	C	1.570779	-0.383062	0.000003
C21	C	1.531834	-0.488855	0.000001
C22	C	1.480485	-0.318874	0.000010
C23	C	1.351246	-0.360469	-0.000009
C24	C	1.312308	-0.466252	-0.000013
C25	C	1.402598	-0.530450	-0.000007
C26	C	1.519430	-0.213081	0.000012
C27	C	1.299897	-0.190487	0.000000
C28	C	1.260956	-0.296270	-0.000014
C29	C	1.751755	0.143216	0.000013
C30	C	1.891305	0.146180	0.000005
C31	C	1.580689	0.334367	0.000008
C32	C	1.622132	0.446956	0.000005
N33	N	1.525619	0.149031	0.344096
N34	N	1.525652	0.149025	-0.344070
C35	C	1.583523	0.083935	0.416296
C36	C	1.583541	0.083932	0.583708
H37	H	1.092554	0.075673	-0.000027
H38	H	1.370899	-0.616589	-0.000024
H39	H	1.624656	-0.179225	0.000028
H40	H	1.226374	-0.138216	0.000003
C41	C	1.932458	-0.359918	0.000031
H42	H	1.980654	-0.413301	0.000018
H43	H	1.952210	-0.319121	0.084346
H44	H	1.952213	-0.319120	-0.084296
H45	H	0.930127	0.309131	-0.000005
H46	H	1.207074	-0.500114	-0.000017
C47	C	1.850675	-0.582061	0.000023
H48	H	1.933222	-0.542142	0.000039
H49	H	1.840053	-0.623800	-0.084289
H50	H	1.840032	-0.623795	0.084353
C51	C	1.205012	0.341214	-0.000001
H52	H	1.157455	0.395004	0.000005
H53	H	1.256874	0.346081	-0.084315
H54	H	1.256859	0.346084	0.084327
C55	C	1.118801	-0.342032	-0.000020
H56	H	1.108546	-0.414229	-0.000011
H57	H	1.080085	-0.320053	-0.084335
H58	H	1.080077	-0.320059	0.084307
H59	H	1.633079	0.028203	0.354172
C60	C	1.742851	-0.225109	0.000019
H61	H	1.832751	-0.209531	0.000015
H62	H	1.711112	-0.196998	0.084325
H63	H	1.711135	-0.197011	-0.084318
C64	C	1.650510	0.008639	0.667575
H65	H	1.641728	0.018509	0.769092
H66	H	1.737821	0.020057	0.642683
H67	H	1.613275	-0.059108	0.642706
C68	C	1.458678	0.224322	0.572079
H69	H	1.422370	0.265165	0.639108
H70	H	1.393910	0.187551	0.512709
H71	H	1.518452	0.266720	0.512697
C72	C	0.944792	0.046283	0.000001
H73	H	0.876872	-0.009958	-0.000010
H74	H	0.995246	0.043582	0.084313
H75	H	0.995246	0.043590	-0.084330
H76	H	1.476053	0.204755	0.406222
