data_functionalizedCrystal
_audit_creation_method	'MofGen! by Chris Wilmer'
_symmetry_space_group_name_H-M	'P1'
_symmetry_Int_Tables_number	1
_symmetry_cell_setting	triclinic
loop_
_symmetry_equiv_pos_as_xyz
  x,y,z
_cell_length_a	10.540539
_cell_length_b	10.540539
_cell_length_c	9.016244
_cell_angle_alpha	89.994699
_cell_angle_beta	90.000067
_cell_angle_gamma	95.474508
loop_
_atom_site_label
_atom_site_type_symbol
_atom_site_fract_x
_atom_site_fract_y
_atom_site_fract_z
O1	O	0.178895	-1.685893	0.123263
O2	O	0.195751	-1.316480	0.123280
O3	O	0.002617	-1.509614	0.123269
O4	O	0.372030	-1.492759	0.123274
O5	O	0.002621	-1.509586	-0.123411
O6	O	0.195755	-1.316452	-0.123400
O7	O	0.178900	-1.685865	-0.123418
Cu8	Cu	0.187328	-1.501156	-0.145933
Cu9	Cu	0.187323	-1.501189	0.145795
O10	O	0.372034	-1.492730	-0.123407
C11	C	0.194489	-1.269163	-0.000058
C12	C	0.190707	-1.128215	-0.000051
C13	C	-0.044684	-1.508336	-0.000068
C14	C	-0.185632	-1.504554	-0.000060
N15	N	0.187331	-1.501141	-0.351119
C16	C	-0.369059	-1.359637	0.000500
C17	C	-0.222441	-1.363471	-0.000055
C18	C	-0.247287	-1.572434	-0.140930
C19	C	-0.393832	-1.567619	-0.141049
C20	C	-0.394355	-1.570520	0.139473
C21	C	-0.247373	-1.571820	0.141336
C22	C	0.419335	-1.494008	-0.000066
C23	C	0.560283	-1.497790	-0.000064
C24	C	0.180161	-1.733182	-0.000077
C25	C	0.183943	-1.874130	-0.000074
C26	C	0.045790	-0.944788	-0.000628
C27	C	0.049624	-1.091406	-0.000057
C28	C	0.258600	-1.066558	0.140811
C29	C	0.253785	-0.920014	0.140914
C30	C	0.256660	-0.919493	-0.139608
C31	C	0.257960	-1.066475	-0.141455
C32	C	0.290298	-1.397510	-0.586146
C33	C	0.290684	-1.397739	-0.414255
C34	C	0.217464	-1.633864	-0.413464
C35	C	0.218193	-1.633298	-0.585409
C36	C	0.053892	-1.473367	-0.585663
C37	C	0.054757	-1.470322	-0.413709
N38	N	0.187310	-1.501213	0.350982
H39	H	-0.179839	-1.310059	0.100926
Cl40	Cl	0.185781	-1.132323	0.302668
Cl41	Cl	-0.413214	-1.273602	0.156470
Cl42	Cl	-0.467270	-1.727850	0.140934
H43	H	-0.399265	-1.304121	-0.099949
H44	H	-0.003797	-1.134008	-0.101034
Cl45	Cl	0.181256	-1.129540	-0.302346
Cl46	Cl	-0.039911	-0.898164	0.154458
Cl47	Cl	-0.033078	-1.155840	0.156376
H48	H	0.360819	-1.090700	-0.149959
H49	H	-0.022762	-1.548979	-0.626319
Cl50	Cl	-0.467897	-1.724266	-0.150944
Cl51	Cl	-0.443053	-1.500029	0.304320
H52	H	0.388722	-1.415177	-0.629339
H53	H	0.315531	-1.657653	-0.625498
H54	H	0.203602	-0.891816	0.246209
Cl55	Cl	-0.157960	-1.280388	-0.156212
Cl56	Cl	0.413990	-0.846580	-0.141078
Cl57	Cl	0.262774	-1.245460	-0.349174
H58	H	-0.009944	-0.916191	-0.101649
H59	H	-0.224933	-1.676041	-0.146173
H60	H	0.272446	-1.298584	-0.627535
Cl61	Cl	-0.181522	-1.499599	-0.302779
Cl62	Cl	0.443522	-1.425324	-0.350716
H63	H	-0.422030	-1.517429	-0.246347
H64	H	0.355250	-0.872045	0.147309
Cl65	Cl	0.106759	-1.755998	-0.649624
H66	H	0.031916	-1.372684	-0.372962
Cl67	Cl	0.418550	-1.101107	0.148944
H68	H	0.025213	-1.378630	-0.629106
H69	H	0.211004	-0.887935	-0.246381
Cl70	Cl	0.104815	-1.755925	-0.350327
H71	H	-0.206517	-1.522153	0.245547
H72	H	0.313702	-1.658762	-0.370386
Cl73	Cl	-0.069256	-1.579223	-0.347387
Cl74	Cl	-0.209973	-1.730631	0.154473
