data_functionalizedCrystal
_audit_creation_method	'MofGen! by Chris Wilmer'
_symmetry_space_group_name_H-M	'P1'
_symmetry_Int_Tables_number	1
_symmetry_cell_setting	triclinic
loop_
_symmetry_equiv_pos_as_xyz
  x,y,z
_cell_length_a	19.121269
_cell_length_b	11.169417
_cell_length_c	11.169409
_cell_angle_alpha	89.980176
_cell_angle_beta	92.467430
_cell_angle_gamma	92.435405
loop_
_atom_site_label
_atom_site_type_symbol
_atom_site_fract_x
_atom_site_fract_y
_atom_site_fract_z
Zn1	Zn	-0.279543	-1.855384	0.658217
Zn2	Zn	0.220457	-1.355384	1.158217
Zn3	Zn	-0.397017	-1.863856	0.448992
Zn4	Zn	0.102983	-1.363856	0.948992
Zn5	Zn	-0.279585	-1.654673	0.457548
Zn6	Zn	0.220415	-1.154673	0.957548
Zn7	Zn	-0.396960	-1.663255	0.649641
Zn8	Zn	0.103040	-1.163255	1.149641
O9	O	-0.338276	-1.759292	0.553599
O10	O	0.161724	-1.259292	1.053599
O11	O	-0.295132	-2.024458	0.630471
O12	O	0.204868	-1.524458	1.130471
O13	O	-0.381482	-1.836061	0.282174
O14	O	0.118518	-1.336061	0.782174
O15	O	-0.181294	-1.674161	0.491337
O16	O	0.318706	-1.174161	0.991337
O17	O	-0.381440	-2.030682	0.476754
O18	O	0.118560	-1.530682	0.976754
O19	O	-0.181263	-1.821622	0.638767
O20	O	0.318737	-1.321622	1.138767
O21	O	-0.295205	-1.682375	0.288460
O22	O	0.204795	-1.182375	0.788460
O23	O	-0.295149	-1.487862	0.483021
O24	O	0.204851	-0.987862	0.983021
O25	O	-0.381343	-1.688788	0.818731
O26	O	0.118657	-1.188788	1.318731
O27	O	-0.381384	-1.494167	0.624151
O28	O	0.118616	-0.994167	1.124151
O29	O	-0.295077	-1.829944	0.825032
O30	O	0.204923	-1.329944	1.325032
O31	O	-0.495295	-1.844383	0.468439
O32	O	0.004705	-1.344383	0.968439
O33	O	-0.495253	-1.697003	0.615855
O34	O	0.004747	-1.197003	1.115855
C35	C	-0.338266	-1.447467	0.553585
C36	C	0.161734	-0.947467	1.053585
C37	C	-0.338278	-1.314068	0.553606
C38	C	0.161722	-0.814068	1.053606
C39	C	-0.155082	-1.745989	0.566963
C40	C	0.344918	-1.245989	1.066963
C41	C	-0.077015	-1.740321	0.572658
C42	C	0.422985	-1.240321	1.072658
C43	C	-0.520758	-1.772576	0.540314
C44	C	-0.020758	-1.272576	1.040314
C45	C	-0.598825	-1.778368	0.534670
C46	C	-0.098825	-1.278368	1.034670
C47	C	0.364515	-1.704307	0.608739
C48	C	0.864515	-1.204307	1.108739
C49	C	0.291163	-1.709648	0.603378
C50	C	0.791163	-1.209648	1.103378
C51	C	0.254473	-1.789057	0.523953
C52	C	0.754473	-1.289057	1.023953
C53	C	0.291138	-1.863121	0.449876
C54	C	0.791138	-1.363121	0.949876
C55	C	0.364489	-1.857773	0.455232
C56	C	0.864489	-1.357773	0.955232
C57	C	0.033001	-1.809037	0.503937
C58	C	0.533001	-1.309037	1.003937
C59	C	-0.040355	-1.814382	0.498589
C60	C	0.459645	-1.314382	0.998589
C61	C	-0.040325	-1.660906	0.652090
C62	C	0.459675	-1.160906	1.152090
C63	C	0.033027	-1.655571	0.657444
C64	C	0.533027	-1.155571	1.157444
C65	C	0.069686	-1.729630	0.583363
C66	C	0.569686	-1.229630	1.083363
C67	C	0.179495	-1.794521	0.518474
C68	C	0.679495	-1.294521	1.018474
C69	C	0.144662	-1.724160	0.588837
C70	C	0.644662	-1.224160	1.088837
C71	C	-0.338198	-1.759379	0.866648
C72	C	0.161802	-1.259379	1.366648
C73	C	-0.338165	-1.759415	1.000050
C74	C	0.161835	-1.259415	1.500050
C75	C	-0.338288	-2.072335	0.553615
C76	C	0.161712	-1.572335	1.053615
C77	C	-0.338292	-2.205736	0.553621
C78	C	0.161708	-1.705736	1.053621
C79	C	-0.338303	-1.759271	0.241773
C80	C	0.161697	-1.259271	0.741773
C81	C	-0.338139	-1.759453	0.108385
C82	C	0.161861	-1.259453	0.608385
H83	H	0.394383	-1.639649	0.673421
H84	H	0.894383	-1.139649	1.173421
H85	H	0.261259	-1.927772	0.385201
H86	H	0.761259	-1.427772	0.885201
C87	C	0.404815	-1.939248	0.373751
C88	C	0.904815	-1.439248	0.873751
N89	N	0.435187	-2.000615	0.312374
N90	N	0.935187	-1.500615	0.812374
H91	H	-0.070181	-1.600610	0.712402
H92	H	0.429819	-1.100610	1.212402
C93	C	0.185023	-1.636814	0.676204
C94	C	0.685023	-1.136814	1.176204
N95	N	0.215430	-1.571030	0.742014
N96	N	0.715430	-1.071030	1.242014
H97	H	-0.070226	-1.879053	0.433912
H98	H	0.429774	-1.379053	0.933912
H99	H	0.149614	-1.859177	0.453807
H100	H	0.649614	-1.359177	0.953807
H101	H	0.261317	-1.649328	0.663682
H102	H	0.761317	-1.149328	1.163682
H103	H	0.062898	-1.590910	0.722118
H104	H	0.562898	-1.090910	1.222118
C105	C	0.073316	-1.890484	0.422422
C106	C	0.573316	-1.390484	0.922422
N107	N	0.103684	-1.951826	0.361013
N108	N	0.603684	-1.451826	0.861013
