data_functionalizedCrystal
_audit_creation_method	'MofGen! by Chris Wilmer'
_symmetry_space_group_name_H-M	'P1'
_symmetry_Int_Tables_number	1
_symmetry_cell_setting	triclinic
loop_
_symmetry_equiv_pos_as_xyz
  x,y,z
_cell_length_a	12.594517
_cell_length_b	18.101395
_cell_length_c	18.101389
_cell_angle_alpha	90.016841
_cell_angle_beta	89.987706
_cell_angle_gamma	89.968938
loop_
_atom_site_label
_atom_site_type_symbol
_atom_site_fract_x
_atom_site_fract_y
_atom_site_fract_z
Zn1	Zn	1.627134	0.294908	-0.418609
Zn2	Zn	1.626985	0.418734	-0.294771
Zn3	Zn	1.449145	0.294911	-0.294796
Zn4	Zn	1.449074	0.418712	-0.418586
O5	O	1.538084	0.356816	-0.356690
O6	O	1.776060	0.311342	-0.402181
O7	O	1.603361	0.402318	-0.191141
O8	O	1.472848	0.191277	-0.311241
O9	O	1.775950	0.402316	-0.311198
O10	O	1.603616	0.191276	-0.402205
O11	O	1.472702	0.311346	-0.191160
O12	O	1.300189	0.311325	-0.311218
O13	O	1.472727	0.402279	-0.522222
O14	O	1.300137	0.402282	-0.402165
O15	O	1.603547	0.311321	-0.522239
O16	O	1.603292	0.522364	-0.311175
O17	O	1.472582	0.522348	-0.402141
C18	C	1.261543	0.356802	-0.356692
C19	C	1.143238	0.356814	-0.356711
C20	C	1.003224	0.406374	-0.406085
C21	C	1.073991	0.424384	-0.338496
C22	C	1.074042	0.338837	-0.424293
C23	C	1.003219	0.374882	-0.289063
C24	C	1.003265	0.289303	-0.374906
C25	C	1.074000	0.307288	-0.307270
C26	C	1.537942	0.549227	-0.356669
C27	C	1.537978	0.631541	-0.356684
C28	C	1.538146	0.356797	-0.549852
C29	C	1.538172	0.356790	-0.632167
C30	C	1.815705	0.356831	-0.356689
C31	C	1.934011	0.356837	-0.356689
C32	C	1.538256	0.163654	-0.356729
C33	C	1.538330	0.081340	-0.356745
C34	C	1.538212	0.930632	-0.356724
C35	C	1.456163	0.899327	-0.414099
C36	C	1.455773	0.813710	-0.413920
C37	C	1.538096	0.782249	-0.356705
C38	C	1.507728	0.813386	-0.278658
C39	C	1.507199	0.899032	-0.279001
C40	C	1.650808	0.898979	-0.376709
C41	C	1.650146	0.813328	-0.378420
C42	C	1.538032	0.698390	-0.356689
C43	C	1.538273	1.014491	-0.356734
C44	C	1.538234	0.356651	-0.931258
C45	C	1.455642	0.413697	-0.899922
C46	C	1.455865	0.413962	-0.814303
C47	C	1.538202	0.356720	-0.782875
C48	C	1.650344	0.377904	-0.813965
C49	C	1.649884	0.378278	-0.899610
C50	C	1.509660	0.278293	-0.899684
C51	C	1.507164	0.278746	-0.814033
C52	C	1.538191	0.356757	-0.699016
C53	C	1.538253	0.356615	-1.015117
C54	C	1.538084	0.356781	-0.164280
C55	C	1.538264	0.356581	-0.081966
H56	H	1.105058	0.481486	-0.323091
O57	O	0.966223	0.393243	-0.220895
C58	C	0.903882	0.457760	-0.225988
H59	H	0.927400	0.490012	-0.277535
H60	H	0.917412	0.493492	-0.174984
H61	H	0.816427	0.441947	-0.229563
O62	O	1.110721	0.257207	-0.257439
C63	C	1.073113	0.186279	-0.276147
H64	H	0.998192	0.191692	-0.311061
H65	H	1.054162	0.154241	-0.223564
H66	H	1.136570	0.155548	-0.308942
O67	O	1.677662	0.789047	-0.446905
C68	C	1.772409	0.747774	-0.442386
H69	H	1.818027	0.764553	-0.390651
H70	H	1.823219	0.759003	-0.493282
H71	H	1.752600	0.686392	-0.439570
O72	O	1.111210	0.320808	-0.492505
C73	C	1.174341	0.379014	-0.519825
H74	H	1.151262	0.432705	-0.491055
H75	H	1.161207	0.384883	-0.581857
H76	H	1.261603	0.366523	-0.508655
H77	H	1.714510	0.791909	-0.339676
O78	O	0.966211	0.221225	-0.393433
C79	C	1.002255	0.202464	-0.464764
H80	H	1.022112	0.254986	-0.496625
H81	H	0.937481	0.170715	-0.495188
H82	H	1.076315	0.166520	-0.460161
H83	H	1.678495	0.920537	-0.432650
O84	O	1.478282	0.788495	-0.482949
C85	C	1.392841	0.745446	-0.508969
H86	H	1.345346	0.723560	-0.460036
H87	H	1.424839	0.697066	-0.542621
H88	H	1.339248	0.780901	-0.545291
H89	H	0.972148	0.448308	-0.447796
O90	O	1.723615	0.923225	-0.326818
C91	C	1.673113	0.968541	-0.274067
H92	H	1.596796	0.991968	-0.298527
H93	H	1.728287	1.015829	-0.258107
H94	H	1.653420	0.934472	-0.222911
H95	H	1.372234	0.400577	-0.920519
O96	O	1.725729	0.329956	-0.789556
C97	C	1.729458	0.331767	-0.711729
H98	H	1.696165	0.386637	-0.691206
H99	H	1.815241	0.325677	-0.692580
H100	H	1.679986	0.284453	-0.688468
H101	H	1.426293	0.791998	-0.261424
H102	H	1.372314	0.793284	-0.400683
O103	O	1.356601	0.398268	-0.789259
C104	C	1.284783	0.451995	-0.815432
H105	H	1.329822	0.504815	-0.829297
H106	H	1.223015	0.464147	-0.771010
H107	H	1.243438	0.430469	-0.867153
O108	O	1.478711	0.923950	-0.483313
C109	C	1.569075	0.969831	-0.480906
H110	H	1.578799	0.993123	-0.422782
H111	H	1.558998	1.017196	-0.521806
H112	H	1.642497	0.936275	-0.496183
O113	O	1.408781	0.259554	-0.789761
C114	C	1.415442	0.193638	-0.748539
H115	H	1.489854	0.161934	-0.765360
H116	H	1.342359	0.158248	-0.759777
H117	H	1.419496	0.207429	-0.687148
O118	O	1.357260	0.925110	-0.398387
C119	C	1.361897	0.971360	-0.335785
H120	H	1.435182	0.957013	-0.301725
H121	H	1.287624	0.962984	-0.300774
H122	H	1.366632	1.031482	-0.354233
H123	H	1.424892	0.919071	-0.262071
O124	O	1.478098	0.482525	-0.925633
C125	C	1.568098	0.479345	-0.971862
H126	H	1.617146	0.428374	-0.957551
H127	H	1.618311	0.531043	-0.963422
H128	H	1.541617	0.476047	-1.031993
H129	H	1.564368	0.919741	-0.234795
O130	O	1.478236	0.483261	-0.789831
C131	C	1.393070	0.509504	-0.746582
H132	H	1.317452	0.478611	-0.762131
H133	H	1.381600	0.571099	-0.757016
H134	H	1.411291	0.500025	-0.685627
O135	O	1.679876	0.445455	-0.788307
C136	C	1.774959	0.438784	-0.747749
H137	H	1.783722	0.379607	-0.727092
H138	H	1.772841	0.478145	-0.698594
H139	H	1.845198	0.453207	-0.784761
H140	H	1.565609	0.793008	-0.234744
H141	H	1.674108	0.435558	-0.919591
O142	O	1.725728	0.330777	-0.924261
C143	C	1.703634	0.259036	-0.898148
H144	H	1.651968	0.262756	-0.846562
H145	H	1.781214	0.229780	-0.884082
H146	H	1.659855	0.226562	-0.942684
H147	H	1.429307	0.258993	-0.921281
H148	H	1.562931	0.233987	-0.792640
O149	O	1.581336	0.227587	-0.923985
C150	C	1.579468	0.225104	-1.001826
H151	H	1.499661	0.246395	-1.022563
H152	H	1.591344	0.165707	-1.021097
H153	H	1.645889	0.261200	-1.024763
