data_functionalizedCrystal
_audit_creation_method	'MofGen! by Chris Wilmer'
_symmetry_space_group_name_H-M	'P1'
_symmetry_Int_Tables_number	1
_symmetry_cell_setting	triclinic
loop_
_symmetry_equiv_pos_as_xyz
  x,y,z
_cell_length_a	18.050583
_cell_length_b	12.759401
_cell_length_c	18.050590
_cell_angle_alpha	89.992770
_cell_angle_beta	89.976372
_cell_angle_gamma	90.016417
loop_
_atom_site_label
_atom_site_type_symbol
_atom_site_fract_x
_atom_site_fract_y
_atom_site_fract_z
Zn1	Zn	-0.419922	-1.606285	-0.295604
Zn2	Zn	-0.295751	-1.606218	-0.419809
Zn3	Zn	-0.295750	-1.430598	-0.295640
Zn4	Zn	-0.419904	-1.430603	-0.419760
O5	O	-0.357832	-1.518426	-0.357703
O6	O	-0.403459	-1.753297	-0.312085
O7	O	-0.191827	-1.582891	-0.403373
O8	O	-0.312229	-1.453929	-0.191711
O9	O	-0.312231	-1.753248	-0.403338
O10	O	-0.403458	-1.583006	-0.191684
O11	O	-0.191826	-1.453864	-0.312147
O12	O	-0.312211	-1.283577	-0.312100
O13	O	-0.523831	-1.453938	-0.403255
O14	O	-0.403426	-1.283582	-0.403290
O15	O	-0.523844	-1.583011	-0.312038
O16	O	-0.312213	-1.582896	-0.523727
O17	O	-0.403427	-1.453873	-0.523691
C18	C	-0.357817	-1.245459	-0.357694
C19	C	-0.357828	-1.128682	-0.357708
C20	C	-0.357835	-1.518406	-0.550655
C21	C	-0.357861	-1.518494	-0.633201
C22	C	-0.551538	-1.518483	-0.357637
C23	C	-0.634083	-1.518507	-0.357609
C24	C	-0.882916	-1.588763	-0.307955
C25	C	-0.833512	-1.614437	-0.375718
C26	C	-0.931204	-1.518575	-0.357561
C27	C	-0.833526	-1.492917	-0.289826
C28	C	-0.785219	-1.518544	-0.357581
C29	C	-0.882887	-1.544299	-0.425360
C30	C	-0.882905	-1.422734	-0.339422
C31	C	-0.833523	-1.448372	-0.407232
C32	C	-1.015302	-1.518595	-0.357549
C33	C	-0.701122	-1.518524	-0.357601
C34	C	-0.164880	-1.518430	-0.357716
C35	C	-0.082334	-1.518609	-0.357535
C36	C	-0.357847	-1.792459	-0.357713
C37	C	-0.357854	-1.909236	-0.357717
C38	C	-0.405249	-1.073850	-0.405263
C39	C	-0.405264	-0.964126	-0.405266
C40	C	-0.310431	-0.964076	-0.310157
C41	C	-0.310420	-1.073798	-0.310151
C42	C	-0.492820	-0.814226	-0.431916
C43	C	-0.540234	-0.759390	-0.479483
C44	C	-0.551514	-0.795002	-0.551959
C45	C	-0.515369	-0.885449	-0.576883
C46	C	-0.467949	-0.940280	-0.529320
C47	C	-0.456683	-0.904669	-0.456834
C48	C	-0.222863	-1.223700	-0.283508
C49	C	-0.175439	-1.278532	-0.235949
C50	C	-0.164152	-1.242922	-0.163471
C51	C	-0.200284	-1.152471	-0.138550
C52	C	-0.247708	-1.097639	-0.186109
C53	C	-0.258997	-1.133257	-0.258586
C54	C	-0.357845	-1.518474	-0.163998
C55	C	-0.357851	-1.518495	-0.081452
C56	C	-0.407473	-1.588699	0.167388
C57	C	-0.425635	-1.492854	0.117997
C58	C	-0.357858	-1.518492	0.215669
C59	C	-0.339728	-1.614333	0.117978
C60	C	-0.357856	-1.518498	0.069684
C61	C	-0.376055	-1.422596	0.167365
C62	C	-0.290116	-1.544140	0.167350
C63	C	-0.308252	-1.448228	0.117981
C64	C	-0.357860	-1.518490	0.299767
C65	C	-0.357853	-1.518490	-0.014413
H66	H	-0.904603	-1.648176	-0.266048
O67	O	-0.501517	-1.464112	0.089279
H68	H	-0.497530	-1.391674	0.055455
O69	O	-0.463092	-1.667241	0.196128
H70	H	-0.434096	-1.727186	0.229948
O71	O	-0.804800	-1.464173	-0.213942
H72	H	-0.852241	-1.450598	-0.176001
O73	O	-0.456388	-1.133052	-0.456545
H74	H	-0.489371	-1.076485	-0.489607
H75	H	-0.811814	-1.695474	-0.391072
O76	O	-0.911477	-1.573163	-0.501272
H77	H	-0.972965	-1.572991	-0.500659
H78	H	-0.391475	-1.341532	0.188967
H79	H	-0.811973	-1.389004	-0.449239
O80	O	-0.911666	-1.315422	-0.319053
H81	H	-0.891011	-1.257004	-0.359684
H82	H	-0.438519	-1.013919	-0.549614
O83	O	-0.252669	-1.369508	0.089421
H84	H	-0.267892	-1.290067	0.109309
H85	H	-0.524550	-0.914431	-0.635904
H86	H	-0.232845	-1.565866	0.189046
H87	H	-0.590121	-0.750347	-0.590687
H88	H	-0.569664	-0.685748	-0.459182
O89	O	-0.480632	-0.775796	-0.353750
H90	H	-0.513714	-0.703676	-0.344421
H91	H	-0.271831	-0.919376	-0.271438
H92	H	-0.277134	-1.023995	-0.165810
O93	O	-0.319404	-1.721687	0.089245
H94	H	-0.360670	-1.779811	0.109043
H95	H	-0.146018	-1.352181	-0.256247
O96	O	-0.188104	-1.114025	-0.060385
H97	H	-0.241798	-1.112824	-0.030408
H98	H	-0.125528	-1.287571	-0.124752
O99	O	-0.235038	-1.262104	-0.361686
H100	H	-0.201935	-1.334200	-0.371029
