data_functionalizedCrystal
_audit_creation_method	'MofGen! by Chris Wilmer'
_symmetry_space_group_name_H-M	'P1'
_symmetry_Int_Tables_number	1
_symmetry_cell_setting	triclinic
loop_
_symmetry_equiv_pos_as_xyz
  x,y,z
_cell_length_a	12.759395
_cell_length_b	15.297327
_cell_length_c	12.759387
_cell_angle_alpha	99.642565
_cell_angle_beta	89.979491
_cell_angle_gamma	99.708038
loop_
_atom_site_label
_atom_site_type_symbol
_atom_site_fract_x
_atom_site_fract_y
_atom_site_fract_z
Zn1	Zn	1.533819	-0.359077	-0.666313
Zn2	Zn	1.503266	-0.509964	-0.521018
Zn3	Zn	1.358107	-0.359126	-0.490660
Zn4	Zn	1.327678	-0.509900	-0.696644
O5	O	1.430717	-0.434517	-0.593659
O6	O	1.676786	-0.379099	-0.647051
O7	O	1.483958	-0.490002	-0.369979
O8	O	1.406937	-0.232874	-0.488562
O9	O	1.654338	-0.489955	-0.540303
O10	O	1.536031	-0.232838	-0.617614
O11	O	1.377311	-0.379183	-0.347675
O12	O	1.207051	-0.379120	-0.517973
O13	O	1.355076	-0.489845	-0.839632
O14	O	1.184695	-0.489893	-0.669309
O15	O	1.506526	-0.379037	-0.817348
O16	O	1.454452	-0.636201	-0.569714
O17	O	1.325449	-0.636154	-0.698746
C18	C	1.157752	-0.434506	-0.593639
C19	C	1.040972	-0.434523	-0.593659
C20	C	1.017694	-0.550057	-0.751065
C21	C	0.951193	-0.607831	-0.829773
C22	C	0.841469	-0.607842	-0.829788
C23	C	0.798245	-0.550070	-0.751089
C24	C	0.864747	-0.492296	-0.672381
C25	C	0.974471	-0.492294	-0.672373
C26	C	0.888026	-0.376759	-0.514982
C27	C	0.997749	-0.376751	-0.514960
C28	C	0.844802	-0.318988	-0.436283
C29	C	0.911303	-0.261217	-0.357569
C30	C	1.021033	-0.261209	-0.357556
C31	C	1.064250	-0.318977	-0.436253
C32	C	1.383362	-0.668911	-0.640838
C33	C	1.363199	-0.769187	-0.661057
C34	C	1.575257	-1.051818	-0.449512
C35	C	1.594200	-0.957605	-0.430510
C36	C	1.536452	-0.910495	-0.488145
C37	C	1.459756	-0.957609	-0.564785
C38	C	1.440805	-1.051832	-0.583783
C39	C	1.402000	-0.910509	-0.622416
C40	C	1.325305	-0.957623	-0.699056
C41	C	1.306358	-1.051836	-0.718051
C42	C	1.364106	-1.098945	-0.660416
C43	C	1.420952	-0.816286	-0.603419
C44	C	1.286500	-0.816300	-0.737690
C45	C	1.267557	-0.910513	-0.756692
C46	C	1.704749	-0.434528	-0.593680
C47	C	1.821524	-0.434533	-0.593689
C48	C	1.430815	-0.434428	-0.867675
C49	C	1.430856	-0.434391	-0.984444
C50	C	1.478287	-0.199207	-0.546318
C51	C	1.498558	-0.098932	-0.526145
C52	C	1.588569	-0.319013	-0.961261
C53	C	1.667443	-0.261311	-1.004527
C54	C	1.667475	-0.261278	-1.114242
C55	C	1.588623	-0.318952	-1.180694
C56	C	1.509749	-0.376654	-1.137428
C57	C	1.509727	-0.376682	-1.027709
C58	C	1.352034	-0.492025	-1.160610
C59	C	1.352004	-0.492064	-1.050896
C60	C	1.273182	-0.549699	-1.227062
C61	C	1.194310	-0.607407	-1.183796
C62	C	1.194282	-0.607438	-1.074074
C63	C	1.273130	-0.549766	-1.007629
C64	C	1.430694	-0.434540	-0.320696
C65	C	1.430908	-0.434323	-0.203876
H66	H	0.876102	-0.214180	-0.293503
O67	O	1.588802	-0.318994	-1.287286
C68	C	1.684827	-0.342135	-1.328621
H69	H	1.720293	-0.381492	-1.273319
H70	H	1.668574	-0.385367	-1.410724
H71	H	1.743262	-0.278262	-1.335246
H72	H	1.075174	-0.214156	-0.293469
O73	O	1.117826	-0.663396	-1.248501
C74	C	1.134746	-0.650970	-1.354610
H75	H	1.221803	-0.621426	-1.363665
H76	H	1.113965	-0.718529	-1.409906
H77	H	1.082153	-0.602909	-1.376063
H78	H	1.153591	-0.318979	-0.436248
O79	O	0.691661	-0.550078	-0.750913
C80	C	0.650289	-0.573163	-0.654834
H81	H	0.716617	-0.557684	-0.591224
H82	H	0.585101	-0.532452	-0.628055
H83	H	0.615694	-0.648016	-0.667529
H84	H	1.130044	-0.654417	-1.038852
O85	O	1.743960	-0.205131	-1.156305
C86	C	1.695942	-0.146857	-1.208065
H87	H	1.614318	-0.141281	-1.173861
H88	H	1.747983	-0.077433	-1.195361
H89	H	1.686698	-0.174732	-1.296824
O90	O	1.231861	-1.097743	-0.792426
C91	C	1.227539	-1.191002	-0.796854
H92	H	1.259389	-1.203898	-0.718401
H93	H	1.141629	-1.226864	-0.811150
H94	H	1.278102	-1.217656	-0.864590
O95	O	1.273304	-0.549798	-0.901053
C96	C	1.369290	-0.573012	-0.869090
H97	H	1.432930	-0.557595	-0.929238
H98	H	1.396188	-0.532337	-0.787513
H99	H	1.356370	-0.647871	-0.864670
O100	O	1.495380	-0.770625	-0.528854
C101	C	1.467807	-0.793718	-0.428778
H102	H	1.413653	-0.862155	-0.440368
H103	H	1.543009	-0.796921	-0.382378
H104	H	1.424464	-0.740752	-0.382665
H105	H	1.205110	-0.948887	-0.819092
H106	H	1.107034	-0.550060	-0.751055
O107	O	0.993348	-0.663920	-0.906111
C108	C	1.104456	-0.651512	-0.889241
H109	H	1.125392	-0.621874	-0.802254
H110	H	1.132507	-0.719094	-0.909826
H111	H	1.145313	-0.603538	-0.941998
H112	H	1.239474	-0.777944	-0.784620
H113	H	1.273210	-0.549665	-1.316396
H114	H	0.787323	-0.654882	-0.893883
H115	H	0.755459	-0.318997	-0.436304
H116	H	1.656644	-0.919248	-0.368109
O117	O	1.555022	-0.818977	-0.469595
C118	C	1.635080	-0.787495	-0.389576
H119	H	1.685553	-0.841758	-0.385849
H120	H	1.687623	-0.724416	-0.408594
H121	H	1.596802	-0.770853	-0.309580
H122	H	1.622261	-1.090183	-0.402587
H123	H	1.588559	-0.319043	-0.871926
O124	O	1.743991	-0.205379	-0.939832
C125	C	1.727043	-0.217764	-0.833713
H126	H	1.678541	-0.287384	-0.832725
H127	H	1.806965	-0.211675	-0.790804
H128	H	1.681920	-0.164250	-0.791799
H129	H	1.348689	-1.175661	-0.675886
