data_functionalizedCrystal
_audit_creation_method	'MofGen! by Chris Wilmer'
_symmetry_space_group_name_H-M	'P1'
_symmetry_Int_Tables_number	1
_symmetry_cell_setting	triclinic
loop_
_symmetry_equiv_pos_as_xyz
  x,y,z
_cell_length_a	13.596369
_cell_length_b	14.519709
_cell_length_c	14.519709
_cell_angle_alpha	83.680145
_cell_angle_beta	89.998664
_cell_angle_gamma	89.999684
loop_
_atom_site_label
_atom_site_type_symbol
_atom_site_fract_x
_atom_site_fract_y
_atom_site_fract_z
O1	O	0.081665	-1.223870	-0.120885
O2	O	0.081696	-0.955393	-0.135122
O3	O	0.081671	-1.096750	0.006235
O4	O	0.081690	-1.082513	-0.262242
O5	O	-0.081912	-1.096732	0.006227
O6	O	-0.081887	-0.955376	-0.135129
O7	O	-0.081917	-1.223853	-0.120893
Zn8	Zn	-0.107875	-1.089611	-0.128012
Zn9	Zn	0.107653	-1.089634	-0.128002
O10	O	-0.081893	-1.082496	-0.262250
C11	C	-0.000092	-0.921025	-0.134462
C12	C	-0.000081	-0.818643	-0.132474
N13	N	-0.254966	-1.089603	-0.128019
C14	C	-0.000121	-1.096078	0.040591
C15	C	-0.000121	-1.094090	0.142972
C16	C	-0.343964	-1.089607	-0.128021
C17	C	-0.455616	-1.089616	-0.128015
C18	C	-0.544606	-1.089628	-0.128004
C19	C	-0.656265	-1.089639	-0.127999
N20	N	0.254745	-1.089651	-0.127988
C21	C	-0.000128	-1.258221	-0.121553
C22	C	-0.000132	-1.360602	-0.123541
C23	C	-0.000126	-0.443748	-0.125154
C24	C	-0.000113	-0.548056	-0.127187
C25	C	-0.000102	-0.631192	-0.128814
C26	C	-0.000091	-0.735507	-0.130847
C27	C	-0.000099	-1.083168	-0.296606
C28	C	-0.000092	-1.085156	-0.398987
C29	C	-0.000095	-1.086770	0.517868
C30	C	-0.000102	-1.088803	0.413560
C31	C	-0.000109	-1.090430	0.330423
C32	C	-0.000114	-1.092463	0.226109
