data_functionalizedCrystal
_audit_creation_method	'MofGen! by Chris Wilmer'
_symmetry_space_group_name_H-M	'P1'
_symmetry_Int_Tables_number	1
_symmetry_cell_setting	triclinic
loop_
_symmetry_equiv_pos_as_xyz
  x,y,z
_cell_length_a	23.532407
_cell_length_b	19.288864
_cell_length_c	17.766277
_cell_angle_alpha	90.023209
_cell_angle_beta	89.988964
_cell_angle_gamma	97.007539
loop_
_atom_site_label
_atom_site_type_symbol
_atom_site_fract_x
_atom_site_fract_y
_atom_site_fract_z
O1	O	0.071045	-0.921134	-0.062843
O2	O	0.571045	-0.421134	0.437157
O3	O	0.080629	-0.718844	-0.062793
O4	O	0.580629	-0.218844	0.437207
O5	O	-0.007082	-0.826089	-0.062806
O6	O	0.492918	-0.326089	0.437194
O7	O	0.158756	-0.813889	-0.062830
O8	O	0.658756	-0.313889	0.437170
O9	O	-0.007086	-0.826070	0.062383
O10	O	0.492914	-0.326070	0.562383
O11	O	0.080625	-0.718825	0.062396
O12	O	0.580625	-0.218825	0.562396
O13	O	0.071041	-0.921115	0.062345
O14	O	0.571041	-0.421115	0.562345
Cu15	Cu	0.075832	-0.819968	0.073801
Cu16	Cu	0.575832	-0.319968	0.573801
Cu17	Cu	0.075838	-0.819991	-0.074249
Cu18	Cu	0.575838	-0.319991	0.425751
O19	O	0.158752	-0.813870	0.062358
O20	O	0.658752	-0.313870	0.562358
C21	C	0.080319	-0.692959	-0.000192
C22	C	0.580319	-0.192959	0.499808
C23	C	0.079393	-0.615858	-0.000172
C24	C	0.579393	-0.115858	0.499828
C25	C	-0.028301	-0.825769	-0.000209
C26	C	0.471699	-0.325769	0.499791
C27	C	-0.091520	-0.824835	-0.000203
C28	C	0.408480	-0.324835	0.499797
C29	C	0.071351	-0.947000	-0.000257
C30	C	0.571351	-0.447000	0.499743
C31	C	0.072277	-1.024101	-0.000282
C32	C	0.572277	-0.524101	0.499718
C33	C	-0.490503	-0.882442	-0.000259
C34	C	0.009497	-0.382442	0.499741
C35	C	-0.549905	-0.881574	-0.000264
C36	C	-0.049905	-0.381574	0.499736
O37	O	-0.586539	-0.934976	-0.000306
O38	O	-0.086539	-0.434976	0.499694
N39	N	-0.572664	-0.817817	-0.000248
N40	N	-0.072664	-0.317817	0.499752
C41	C	-0.536017	-0.754923	-0.000234
C42	C	-0.036017	-0.254923	0.499766
O43	O	-0.560829	-0.700613	-0.000221
O44	O	-0.060829	-0.200613	0.499779
C45	C	-0.476616	-0.755792	-0.000234
C46	C	0.023384	-0.255792	0.499766
C47	C	-0.453861	-0.819553	-0.000242
C48	C	0.046139	-0.319553	0.499758
C49	C	-0.467748	-0.946198	-0.000269
C50	C	0.032252	-0.446198	0.499731
C51	C	-0.408350	-0.947065	-0.000262
C52	C	0.091650	-0.447065	0.499738
C53	C	-0.371707	-0.884177	-0.000245
C54	C	0.128293	-0.384177	0.499755
C55	C	-0.394463	-0.820420	-0.000236
C56	C	0.105537	-0.320420	0.499764
C57	C	-0.439970	-0.692899	-0.000225
C58	C	0.060030	-0.192899	0.499775
C59	C	-0.380565	-0.693773	-0.000225
C60	C	0.119435	-0.193773	0.499775
C61	C	-0.357810	-0.757534	-0.000234
C62	C	0.142190	-0.257534	0.499766
C63	C	-0.298422	-0.758399	-0.000212
C64	C	0.201578	-0.258399	0.499788
N65	N	-0.275664	-0.822156	-0.000229
N66	N	0.224336	-0.322156	0.499771
C67	C	-0.312307	-0.885045	-0.000245
C68	C	0.187693	-0.385045	0.499755
C69	C	-0.660763	-0.753104	-0.000235
C70	C	-0.160763	-0.253104	0.499765
C71	C	-0.720163	-0.752235	-0.000230
C72	C	-0.220163	-0.252235	0.499770
C73	C	-0.734047	-0.878886	-0.000262
C74	C	-0.234047	-0.378886	0.499738
C75	C	-0.674647	-0.879755	-0.000262
C76	C	-0.174647	-0.379755	0.499738
C77	C	-0.638005	-0.816861	-0.000252
C78	C	-0.138005	-0.316861	0.499748
C79	C	-0.187566	-0.886862	-0.000230
C80	C	0.312434	-0.386862	0.499770
C81	C	-0.128162	-0.887724	-0.000220
C82	C	0.371838	-0.387724	0.499780
C83	C	-0.114283	-0.761073	-0.000192
C84	C	0.385717	-0.261073	0.499808
C85	C	-0.173681	-0.760211	-0.000198
C86	C	0.326319	-0.260211	0.499802
C87	C	-0.210322	-0.823111	-0.000219
C88	C	0.289678	-0.323111	0.499781
O89	O	-0.261754	-0.705025	-0.000174
O90	O	0.238246	-0.205025	0.499826
O91	O	-0.287486	-0.939346	-0.000268
O92	O	0.212514	-0.439346	0.499732
C93	C	0.179971	-0.814190	-0.000240
C94	C	0.679971	-0.314190	0.499760
C95	C	0.243190	-0.815124	-0.000251
C96	C	0.743190	-0.315124	0.499749
N97	N	0.075828	-0.819958	0.177932
N98	N	0.575828	-0.319958	0.677932
C99	C	0.130858	-0.571003	-0.000191
C100	C	0.630858	-0.071003	0.499809
C101	C	0.129988	-0.498559	-0.000200
C102	C	0.629988	0.001441	0.499800
C103	C	0.077651	-0.470973	-0.000203
C104	C	0.577651	0.029027	0.499797
C105	C	0.026179	-0.515838	-0.000180
C106	C	0.526179	-0.015838	0.499820
C107	C	0.027050	-0.588280	-0.000164
C108	C	0.527050	-0.088280	0.499836
C109	C	0.036509	-0.362844	-0.044082
C110	C	0.536509	0.137156	0.455918
C111	C	0.035640	-0.290402	-0.044102
C112	C	0.535640	0.209598	0.455898
C113	C	0.074961	-0.247535	-0.000249
C114	C	0.574961	0.252465	0.499751
C115	C	0.115162	-0.277118	0.043616
C116	C	0.615162	0.222882	0.543616
C117	C	0.116033	-0.349560	0.043631
C118	C	0.616033	0.150440	0.543631
C119	C	0.076700	-0.392422	-0.000220
C120	C	0.576700	0.107578	0.499780
C121	C	0.125487	-0.124127	-0.000276
C122	C	0.625487	0.375873	0.499724
C123	C	0.124615	-0.051682	-0.000279
C124	C	0.624615	0.448318	0.499721
C125	C	0.020805	-0.068962	-0.000267
C126	C	0.520805	0.431038	0.499733
C127	C	0.021678	-0.141406	-0.000256
C128	C	0.521678	0.358594	0.499744
C129	C	0.074021	-0.168984	-0.000264
C130	C	0.574021	0.331016	0.499736
N131	N	0.075837	-0.820007	-0.178379
N132	N	0.575837	-0.320007	0.321621
C133	C	0.037009	-0.867461	0.217313
C134	C	0.537009	-0.367461	0.717313
C135	C	0.037006	-0.867465	0.296115
C136	C	0.537006	-0.367465	0.796115
C137	C	0.075833	-0.819973	0.335532
C138	C	0.575833	-0.319973	0.835532
C139	C	0.114655	-0.772460	0.296142
C140	C	0.614655	-0.272460	0.796142
C141	C	0.114653	-0.772453	0.217341
C142	C	0.614653	-0.272453	0.717341
C143	C	0.127724	-0.810514	0.460364
C144	C	0.627724	-0.310514	0.960364
C145	C	0.127727	-0.810526	0.539163
C146	C	0.627727	-0.310526	1.039163
C147	C	0.075840	-0.819991	0.578579
C148	C	0.575840	-0.319991	1.078579
C149	C	0.023947	-0.829459	0.539186
C150	C	0.523947	-0.329459	1.039186
C151	C	0.023945	-0.829452	0.460385
C152	C	0.523945	-0.329452	0.960385
C153	C	0.075839	-0.819975	0.420978
C154	C	0.575839	-0.319975	0.920978
C155	C	0.037014	-0.867501	0.703406
C156	C	0.537014	-0.367501	1.203406
C157	C	0.037011	-0.867501	0.782209
C158	C	0.537011	-0.367501	1.282209
C159	C	0.114665	-0.772499	0.782234
C160	C	0.614665	-0.272499	1.282234
C161	C	0.114663	-0.772496	0.703433
C162	C	0.614663	-0.272496	1.203433
C163	C	0.075839	-0.820001	0.664023
C164	C	0.575839	-0.320001	1.164023
H165	H	-0.109639	-0.939648	-0.000225
H166	H	0.390361	-0.439648	0.499775
N167	N	0.154333	-0.723996	0.822490
N168	N	0.654333	-0.223996	1.322490
N169	N	0.206972	-0.724583	0.813675
N170	N	0.706972	-0.224583	1.313675
H171	H	0.234989	-0.690325	0.842109
H172	H	0.734989	-0.190325	1.342109
H173	H	0.146276	-0.733817	0.671366
H174	H	0.646276	-0.233817	1.171366
N175	N	-0.005414	-0.260173	-0.088904
N176	N	0.494586	0.239827	0.411096
N177	N	0.011025	-0.216959	-0.139128
N178	N	0.511025	0.283041	0.360872
H179	H	-0.017970	-0.195609	-0.170769
H180	H	0.482030	0.304391	0.329231
H181	H	-0.458486	-0.640978	-0.000222
H182	H	0.041514	-0.140978	0.499778
N183	N	-0.076857	-0.696829	-0.000174
N184	N	0.423143	-0.196829	0.499826
N185	N	-0.078846	-0.654314	0.052598
N186	N	0.421154	-0.154314	0.552598
H187	H	-0.052414	-0.608939	0.052605
H188	H	0.447586	-0.108939	0.552605
N189	N	-0.002653	-0.915969	0.177047
N190	N	0.497347	-0.415969	0.677047
N191	N	-0.002655	-0.915955	0.106690
N192	N	0.497345	-0.415955	0.606690
H193	H	-0.030667	-0.950212	0.078249
H194	H	0.469333	-0.450212	0.578249
N195	N	-0.002652	-0.915984	0.336357
N196	N	0.497348	-0.415984	0.836357
N197	N	-0.055293	-0.915408	0.327585
N198	N	0.444707	-0.415408	0.827585
H199	H	-0.083301	-0.949674	0.356006
H200	H	0.416699	-0.449674	0.856006
N201	N	-0.029062	-0.839108	0.579431
N202	N	0.470938	-0.339108	1.079431
N203	N	-0.064912	-0.797019	0.570652
N204	N	0.435088	-0.297019	1.070652
H205	H	-0.102350	-0.803833	0.599076
H206	H	0.397650	-0.303833	1.099076
N207	N	0.182559	-0.452728	-0.000209
N208	N	0.682559	0.047272	0.499791
N209	N	0.217412	-0.454997	0.052555
N210	N	0.717412	0.045003	0.552555
H211	H	0.254541	-0.422629	0.052548
H212	H	0.754541	0.077371	0.552548
N213	N	-0.505180	-1.010437	-0.000271
N214	N	-0.005180	-0.510437	0.499729
N215	N	-0.558217	-1.009669	-0.000263
N216	N	-0.058217	-0.509669	0.499737
H217	H	-0.584651	-1.055041	-0.000258
H218	H	-0.084651	-0.555041	0.499742
H219	H	-0.763893	-0.930094	-0.000279
H220	H	-0.263893	-0.430094	0.499721
N221	N	0.184324	-0.599169	-0.000173
N222	N	0.684324	-0.099169	0.499827
N223	N	0.196390	-0.637630	0.052610
N224	N	0.696390	-0.137630	0.552610
H225	H	0.234151	-0.657523	0.052627
H226	H	0.734151	-0.157523	0.552627
N227	N	-0.343145	-0.629520	-0.000224
N228	N	0.156855	-0.129520	0.499776
N229	N	-0.363475	-0.572601	-0.000220
N230	N	0.136525	-0.072601	0.499780
H231	H	-0.337049	-0.527222	-0.000220
H232	H	0.162951	-0.027222	0.499780
H233	H	0.148763	-0.373643	0.079350
H234	H	0.648763	0.126357	0.579350
H235	H	-0.014860	-0.624802	-0.000149
H236	H	0.485140	-0.124802	0.499851
N237	N	-0.002647	-0.916008	0.663132
N238	N	0.497353	-0.416008	1.163132
N239	N	-0.002644	-0.915996	0.592776
N240	N	0.497356	-0.415996	1.092776
H241	H	-0.030655	-0.950253	0.564333
H242	H	0.469345	-0.450253	1.064333
N243	N	0.155341	-0.233328	0.088389
N244	N	0.655341	0.266672	0.588389
N245	N	0.154565	-0.168647	0.088362
N246	N	0.654565	0.331353	0.588362
H247	H	0.182946	-0.137716	0.119973
H248	H	0.682946	0.362284	0.619973
H249	H	-0.738684	-0.700314	-0.000210
H250	H	-0.238684	-0.200314	0.499790
H251	H	-0.018307	-0.837159	0.428315
H252	H	0.481693	-0.337159	0.928315
N253	N	0.180736	-0.800864	0.579386
N254	N	0.680736	-0.300864	1.079386
N255	N	0.227060	-0.792407	0.544187
N256	N	0.727060	-0.292407	1.044187
H257	H	0.264500	-0.785584	0.572593
H258	H	0.764500	-0.285584	1.072593
H259	H	-0.656124	-0.931675	-0.000270
H260	H	-0.156124	-0.431675	0.499730
N261	N	-0.623344	-0.688849	-0.000222
N262	N	-0.123344	-0.188849	0.499778
N263	N	-0.643677	-0.631932	-0.000209
N264	N	-0.143677	-0.131932	0.499791
H265	H	-0.617253	-0.586551	-0.000201
H266	H	-0.117253	-0.086551	0.499799
N267	N	-0.002653	-0.916026	0.822427
N268	N	0.497347	-0.416026	1.322427
N269	N	-0.037313	-0.958433	0.787227
N270	N	0.462687	-0.458433	1.287227
H271	H	-0.065328	-0.992705	0.815630
H272	H	0.434672	-0.492705	1.315630
H273	H	-0.192209	-0.708291	-0.000170
H274	H	0.307791	-0.208291	0.499830
H275	H	-0.021810	-0.046503	-0.000317
H276	H	0.478190	0.453497	0.499683
N277	N	-0.003669	-0.406619	-0.088877
N278	N	0.496331	0.093381	0.411123
N279	N	-0.039555	-0.380200	-0.128039
N280	N	0.460445	0.119800	0.371961
H281	H	-0.067931	-0.411115	-0.159673
H282	H	0.432069	0.088885	0.340327
N283	N	0.178956	-0.152292	-0.000279
N284	N	0.678956	0.347708	0.499721
N285	N	0.224905	-0.112230	-0.000287
N286	N	0.724905	0.387770	0.499713
H287	H	0.262668	-0.132119	-0.000289
H288	H	0.762668	0.367881	0.499711
N289	N	0.177193	-0.005870	-0.000290
N290	N	0.677193	0.494130	0.499710
N291	N	0.223920	-0.030507	-0.000295
N292	N	0.723920	0.469493	0.499705
H293	H	0.261056	0.001848	-0.000302
H294	H	0.761056	0.501848	0.499698
H295	H	-0.020230	-0.177928	-0.000244
H296	H	0.479770	0.322072	0.499756
H297	H	0.169979	-0.802794	0.428278
H298	H	0.669979	-0.302794	0.928278
N299	N	-0.027278	-0.487651	-0.000176
N300	N	0.472722	0.012349	0.499824
N301	N	-0.028049	-0.422970	-0.000190
N302	N	0.471951	0.077030	0.499810
H303	H	-0.065804	-0.403062	-0.000184
H304	H	0.434196	0.096938	0.499816
N305	N	0.154308	-0.723948	0.336413
N306	N	0.654308	-0.223948	0.836413
N307	N	0.154306	-0.723961	0.406770
N308	N	0.654306	-0.223961	0.906770
H309	H	0.182310	-0.689695	0.435213
H310	H	0.682310	-0.189695	0.935213
H311	H	0.146265	-0.733769	0.185276
H312	H	0.646265	-0.233769	0.685276
H313	H	-0.217393	-0.938081	-0.000250
H314	H	0.282607	-0.438081	0.499750
H315	H	-0.389829	-0.998986	-0.000272
H316	H	0.110171	-0.498986	0.499728
