data_functionalizedCrystal
_audit_creation_method	'MofGen! by Chris Wilmer'
_symmetry_space_group_name_H-M	'P1'
_symmetry_Int_Tables_number	1
_symmetry_cell_setting	triclinic
loop_
_symmetry_equiv_pos_as_xyz
  x,y,z
_cell_length_a	11.026607
_cell_length_b	10.654550
_cell_length_c	10.065875
_cell_angle_alpha	98.875770
_cell_angle_beta	79.302338
_cell_angle_gamma	96.535460
loop_
_atom_site_label
_atom_site_type_symbol
_atom_site_fract_x
_atom_site_fract_y
_atom_site_fract_z
O1	O	1.632231	0.512406	-0.113491
O2	O	1.278420	0.452411	-0.113493
O3	O	1.463459	0.301436	-0.113487
O4	O	1.447191	0.663381	-0.113497
O5	O	1.428176	0.330372	0.113500
O6	O	1.243137	0.481347	0.113494
O7	O	1.596947	0.541343	0.113496
Zn8	Zn	1.414440	0.515940	0.149534
Zn9	Zn	1.460927	0.477814	-0.149531
O10	O	1.411908	0.692318	0.113490
C11	C	1.215474	0.455811	0.000000
C12	C	1.080483	0.422816	-0.000001
C13	C	1.007444	0.513919	-0.000004
C14	C	0.867923	0.479820	-0.000005
C15	C	1.444623	0.268847	0.000005
C16	C	1.441050	0.128627	0.000000
C17	C	1.549998	0.072791	0.000005
C18	C	1.546634	-0.058961	-0.000005
C19	C	1.325363	-0.079031	-0.000018
C20	C	1.328730	0.052718	-0.000018
C21	C	1.662318	0.148700	0.000023
C22	C	1.771275	0.092866	0.000030
C23	C	1.767911	-0.038887	0.000020
C24	C	1.655590	-0.114805	0.000004
C25	C	1.659894	0.537943	-0.000000
C26	C	1.794886	0.570936	-0.000008
C27	C	1.430744	0.724907	-0.000005
C28	C	1.434319	0.865125	-0.000009
N29	N	1.382723	0.541960	0.353639
N30	N	1.492654	0.451786	-0.353636
C31	C	1.449884	0.486858	0.421420
C32	C	1.425483	0.506896	0.578586
H33	H	0.827174	0.376568	-0.000037
C34	C	0.977465	0.717121	-0.000059
C35	C	0.849895	0.710316	-0.000044
H36	H	1.011424	0.803165	-0.000098
H37	H	0.991448	0.686531	0.079104
H38	H	1.016039	0.666295	-0.079208
H39	H	0.811319	0.761135	0.079110
H40	H	0.835902	0.740923	-0.079215
H41	H	1.048204	0.617161	0.000001
H42	H	1.525445	0.424842	0.363098
H43	H	1.039727	0.319571	-0.000033
C44	C	1.568292	0.244230	0.602463
C45	C	1.594641	0.367949	0.567817
H46	H	1.631241	0.192441	0.554014
H47	H	1.565183	0.246849	0.697776
H48	H	1.490586	0.209490	0.579073
H49	H	1.672343	0.402693	0.591216
H50	H	1.597762	0.365335	0.472483
C51	C	1.921559	0.237816	-0.116638
C52	C	1.894732	0.176312	0.000040
H53	H	1.997774	0.289335	-0.116625
H54	H	1.927957	0.175918	-0.195782
H55	H	1.857144	0.289922	-0.116620
H56	H	1.959143	0.124197	0.000018
H57	H	1.888342	0.238217	0.079204
C58	C	1.266023	0.637724	0.564578
C59	C	1.323460	0.590609	0.657302
H60	H	1.203034	0.689395	0.613177
H61	H	1.325751	0.687259	0.508839
H62	H	1.230310	0.568466	0.508848
H63	H	1.359181	0.659867	0.713026
H64	H	1.263721	0.541072	0.713064
C65	C	1.986961	-0.005808	0.000044
C66	C	1.887672	-0.100263	0.000025
H67	H	2.060896	-0.043698	0.000060
H68	H	1.995982	0.035073	-0.079106
H69	H	1.971350	0.055251	0.079206
H70	H	1.903279	-0.161317	-0.079143
H71	H	1.878652	-0.141164	0.079183
H72	H	1.307154	0.603965	0.411963
H73	H	1.665069	0.255982	0.000035
H74	H	1.652862	-0.222088	-0.000018
C75	C	1.211357	-0.253722	-0.116702
C76	C	1.201906	-0.162479	-0.000022
H77	H	1.135139	-0.305242	-0.116694
H78	H	1.229562	-0.211997	-0.195844
H79	H	1.275768	-0.305823	-0.116685
H80	H	1.137501	-0.110372	-0.000044
H81	H	1.183686	-0.204207	0.079141
C82	C	1.159311	0.061309	-0.116709
C83	C	1.208974	0.114103	-0.000022
H84	H	1.085375	0.099203	-0.116710
H85	H	1.217628	0.076938	-0.195847
H86	H	1.141232	-0.028018	-0.116692
H87	H	1.227063	0.203430	-0.000044
H88	H	1.150646	0.098485	0.079136
