data_functionalizedCrystal
_audit_creation_method	'MofGen! by Chris Wilmer'
_symmetry_space_group_name_H-M	'P1'
_symmetry_Int_Tables_number	1
_symmetry_cell_setting	triclinic
loop_
_symmetry_equiv_pos_as_xyz
  x,y,z
_cell_length_a	12.837943
_cell_length_b	12.837942
_cell_length_c	15.186229
_cell_angle_alpha	89.996774
_cell_angle_beta	89.997745
_cell_angle_gamma	94.828940
loop_
_atom_site_label
_atom_site_type_symbol
_atom_site_fract_x
_atom_site_fract_y
_atom_site_fract_z
O1	O	1.402334	0.272139	-0.073212
O2	O	1.902334	0.772139	0.426788
O3	O	1.099201	0.258696	-0.073217
O4	O	1.599201	0.758696	0.426783
O5	O	1.244046	0.113850	-0.073209
O6	O	1.744046	0.613850	0.426791
O7	O	1.257489	0.416984	-0.073220
O8	O	1.757489	0.916984	0.426780
O9	O	1.244035	0.113847	0.073248
O10	O	1.744035	0.613847	0.573248
O11	O	1.099190	0.258692	0.073240
O12	O	1.599190	0.758692	0.573240
O13	O	1.402323	0.272136	0.073245
O14	O	1.902323	0.772136	0.573245
Zn15	Zn	1.250755	0.265413	0.096496
Zn16	Zn	1.750755	0.765413	0.596496
Zn17	Zn	1.250769	0.265418	-0.096468
Zn18	Zn	1.750769	0.765418	0.403532
O19	O	1.257478	0.416981	0.073237
O20	O	1.757478	0.916981	0.573237
C21	C	1.060126	0.254153	0.000011
C22	C	1.560126	0.754153	0.500011
C23	C	0.943711	0.240608	0.000009
C24	C	1.443711	0.740608	0.500009
C25	C	0.718837	0.403437	0.000016
C26	C	1.218837	0.903437	0.500016
C27	C	0.609454	0.390716	0.000015
C28	C	1.109454	0.890716	0.500015
C29	C	0.615562	0.202445	0.000012
C30	C	1.115562	0.702445	0.500012
C31	C	0.724944	0.215166	0.000013
C32	C	1.224944	0.715166	0.500013
C33	C	0.776578	0.315666	0.000014
C34	C	1.276578	0.815666	0.500014
C35	C	0.885962	0.328386	0.000008
C36	C	1.385962	0.828386	0.500008
C37	C	0.892067	0.140116	0.000012
C38	C	1.392067	0.640116	0.500012
C39	C	0.782685	0.127395	0.000011
C40	C	1.282685	0.627395	0.500011
C41	C	1.239499	0.074780	0.000019
C42	C	1.739499	0.574780	0.500019
C43	C	1.225954	-0.041635	0.000017
C44	C	1.725954	0.458365	0.500017
C45	C	1.388784	-0.266510	0.000001
C46	C	1.888784	0.233490	0.500001
C47	C	1.376062	-0.375892	-0.000000
C48	C	1.876062	0.124108	0.500000
C49	C	1.187791	-0.369785	0.000006
C50	C	1.687791	0.130215	0.500006
C51	C	1.200513	-0.260402	0.000007
C52	C	1.700513	0.239598	0.500007
C53	C	1.301012	-0.208769	0.000007
C54	C	1.801012	0.291231	0.500007
C55	C	1.313732	-0.099384	0.000015
C56	C	1.813732	0.400616	0.500015
C57	C	1.125462	-0.093279	0.000014
C58	C	1.625462	0.406721	0.500014
C59	C	1.112741	-0.202661	0.000012
C60	C	1.612741	0.297339	0.500012
C61	C	1.441398	0.276679	0.000015
C62	C	1.941398	0.776679	0.500015
C63	C	1.557813	0.290223	0.000011
C64	C	2.057813	0.790223	0.500011
C65	C	1.262025	0.456052	0.000007
C66	C	1.762025	0.956052	0.500007
C67	C	1.275569	0.572467	0.000003
C68	C	1.775569	1.072467	0.500003
N69	N	1.250752	0.265410	0.228188
N70	N	1.750752	0.765410	0.728188
N71	N	1.250779	0.265413	-0.228161
N72	N	1.750779	0.765413	0.271839
C73	C	1.314916	0.201299	0.453915
C74	C	1.814916	0.701299	0.953915
C75	C	1.314919	0.201297	0.546105
C76	C	1.814919	0.701297	1.046105
C77	C	1.186608	0.329527	0.546107
C78	C	1.686608	0.829527	1.046107
C79	C	1.186600	0.329523	0.453919
C80	C	1.686600	0.829523	0.953919
C81	C	1.250760	0.265411	0.407825
C82	C	1.750760	0.765411	0.907825
C83	C	1.250771	0.265413	0.592203
C84	C	1.750771	0.765413	1.092203
C85	C	1.250774	0.265411	0.692159
C86	C	1.750774	0.765411	1.192159
C87	C	1.250756	0.265411	0.307863
C88	C	1.750756	0.765411	0.807863
H89	H	0.939092	0.068646	0.000004
H90	H	1.439092	0.568646	0.500004
H91	H	1.134371	0.381727	0.583645
H92	H	1.634371	0.881727	1.083645
H93	H	0.928000	0.410218	0.000010
H94	H	1.428000	0.910218	0.500010
Cl95	Cl	1.395571	0.120697	0.395973
Cl96	Cl	1.895571	0.620697	0.895973
Cl97	Cl	1.105935	0.410121	0.395971
Cl98	Cl	1.605935	0.910121	0.895971
Cl99	Cl	1.515122	-0.201595	0.000022
Cl100	Cl	2.015122	0.298405	0.500022
Cl101	Cl	1.440073	-0.034474	0.000019
Cl102	Cl	1.940073	0.465526	0.500019
H103	H	0.573502	0.120623	0.000084
H104	H	1.073502	0.620623	0.500084
Cl105	Cl	1.061460	-0.434714	-0.000019
Cl106	Cl	1.561460	0.065286	0.499981
Cl107	Cl	0.717764	0.001059	0.000012
Cl108	Cl	1.217764	0.501059	0.500012
Cl109	Cl	1.395574	0.120694	0.604043
Cl110	Cl	1.895574	0.620694	1.104043
Cl111	Cl	1.486409	-0.448478	-0.000009
Cl112	Cl	1.986409	0.051522	0.499991
Cl113	Cl	0.783751	0.529775	0.000004
Cl114	Cl	1.283751	1.029775	0.500004
Cl115	Cl	0.986406	-0.267582	0.000006
Cl116	Cl	1.486406	0.232418	0.500006
H117	H	0.562446	0.462189	0.000019
H118	H	1.062446	0.962189	0.500019
Cl119	Cl	1.015114	-0.020684	0.000032
Cl120	Cl	1.515114	0.479316	0.500032
