data_functionalizedCrystal
_audit_creation_method	'MofGen! by Chris Wilmer'
_symmetry_space_group_name_H-M	'P1'
_symmetry_Int_Tables_number	1
_symmetry_cell_setting	triclinic
loop_
_symmetry_equiv_pos_as_xyz
  x,y,z
_cell_length_a	11.792241
_cell_length_b	10.654550
_cell_length_c	10.268362
_cell_angle_alpha	89.999831
_cell_angle_beta	90.000220
_cell_angle_gamma	84.339159
loop_
_atom_site_label
_atom_site_type_symbol
_atom_site_fract_x
_atom_site_fract_y
_atom_site_fract_z
O1	O	-1.507307	-0.172129	0.108151
O2	O	-1.177007	-0.189869	0.108185
O3	O	-1.349751	0.001761	0.108162
O4	O	-1.334563	-0.363760	0.108173
O5	O	-1.349735	0.001755	-0.108438
O6	O	-1.176990	-0.189876	-0.108416
O7	O	-1.507291	-0.172136	-0.108450
Cu8	Cu	-1.342139	-0.181006	-0.128210
Cu9	Cu	-1.342159	-0.180999	0.127945
O10	O	-1.334546	-0.363767	-0.108427
C11	C	-1.134705	-0.188758	-0.000111
C12	C	-1.008684	-0.185423	-0.000098
N13	N	-1.342133	-0.181011	-0.308376
C14	C	-1.348628	0.048553	-0.000136
C15	C	-1.345291	0.187987	-0.000132
C16	C	-0.777957	-0.179290	-0.000133
C17	C	-0.906351	-0.182697	-0.000114
C18	C	-0.549592	-0.173247	-0.000148
C19	C	-0.675614	-0.176582	-0.000143
C20	C	-1.335670	-0.410558	-0.000126
C21	C	-1.339006	-0.549992	-0.000122
C22	C	-1.447000	0.267760	-0.000146
C23	C	-1.443858	0.398772	-0.000137
C24	C	-1.237290	0.370224	-0.000104
C25	C	-1.240433	0.239215	-0.000104
C26	C	-1.551859	0.216532	-0.000174
C27	C	-1.653577	0.296307	-0.000190
C28	C	-1.650435	0.427319	-0.000180
C29	C	-1.545575	0.478556	-0.000155
C30	C	-1.342142	-0.181012	-0.426218
C31	C	-1.342156	-0.181000	-0.574056
N32	N	-1.342173	-0.180984	0.308111
H33	H	-1.738949	0.254580	-0.000178
O34	O	-1.555243	0.075227	-0.000189
H35	H	-1.600662	0.046832	0.088085
O36	O	-1.124197	0.425482	-0.000087
H37	H	-1.075266	0.393480	-0.088359
O38	O	-1.130736	0.153159	-0.000101
H39	H	-1.057293	0.210789	-0.000105
O40	O	-1.760135	0.513367	-0.000203
H41	H	-1.833572	0.455730	-0.000235
H42	H	-1.543025	0.585236	-0.000133
