data_functionalizedCrystal
_audit_creation_method	'MofGen! by Chris Wilmer'
_symmetry_space_group_name_H-M	'P1'
_symmetry_Int_Tables_number	1
_symmetry_cell_setting	triclinic
loop_
_symmetry_equiv_pos_as_xyz
  x,y,z
_cell_length_a	17.038272
_cell_length_b	9.065218
_cell_length_c	8.140239
_cell_angle_alpha	89.996101
_cell_angle_beta	89.996147
_cell_angle_gamma	88.063721
loop_
_atom_site_label
_atom_site_type_symbol
_atom_site_fract_x
_atom_site_fract_y
_atom_site_fract_z
O1	O	0.114742	1.971908	-0.136662
O2	O	0.124153	1.543567	-0.136655
O3	O	0.005614	1.755192	-0.136646
O4	O	0.233281	1.760283	-0.136672
O5	O	0.005612	1.755179	0.136581
O6	O	0.124152	1.543555	0.136572
O7	O	0.114740	1.971895	0.136565
Zn8	Zn	0.119446	1.757723	0.179949
Zn9	Zn	0.119448	1.757740	-0.180039
O10	O	0.233280	1.760271	0.136555
C11	C	0.123248	1.488484	-0.000041
C12	C	0.120544	1.324369	-0.000038
C13	C	-0.023549	1.750555	-0.000032
C14	C	-0.110441	1.736739	-0.000033
C15	C	0.115646	2.026979	-0.000053
C16	C	0.118350	2.191093	-0.000067
C17	C	-0.159639	1.863587	-0.000033
C18	C	-0.241284	1.850596	-0.000048
C19	C	-0.273728	1.710756	-0.000052
C20	C	-0.224524	1.583899	-0.000056
C21	C	-0.142881	1.596891	-0.000053
C22	C	-0.519818	1.664859	-0.000073
C23	C	-0.601467	1.651876	-0.000072
C24	C	-0.618221	1.918575	-0.000067
C25	C	-0.536576	1.931554	-0.000054
C26	C	-0.487379	1.804697	-0.000067
C27	C	-0.357182	1.697475	-0.000062
C28	C	-0.403927	1.817980	-0.000068
C29	C	0.262442	1.764908	-0.000062
C30	C	0.349335	1.778724	-0.000072
N31	N	0.119444	1.757722	0.425632
N32	N	0.119443	1.757751	-0.425722
H33	H	-0.133230	1.977459	-0.000020
O34	O	-0.632855	1.515915	-0.000166
C35	C	-0.571926	1.406731	-0.000144
H36	H	-0.516181	1.455085	-0.051863
H37	H	-0.589657	1.309734	-0.079485
H38	H	-0.560672	1.367085	0.130931
O39	O	-0.095167	1.473564	-0.000269
C40	C	-0.110001	1.389299	-0.141799
H41	H	-0.171661	1.417784	-0.188973
H42	H	-0.105128	1.266864	-0.109979
H43	H	-0.065211	1.415108	-0.240888
O44	O	-0.666045	2.041752	-0.000361
C45	C	-0.713778	2.042203	-0.141851
H46	H	-0.684415	1.970448	-0.240750
H47	H	-0.722112	2.159995	-0.189356
H48	H	-0.773405	1.996535	-0.109861
O49	O	-0.472005	1.541674	-0.000367
C50	C	-0.424261	1.541221	-0.141855
H51	H	-0.453613	1.612990	-0.240759
H52	H	-0.415932	1.423432	-0.189353
H53	H	-0.364634	1.586873	-0.109865
H54	H	-0.250946	1.470038	-0.000069
H55	H	-0.281338	1.953890	-0.000045
O56	O	-0.504974	2.067319	-0.000280
C57	C	-0.458261	2.082839	-0.141806
H58	H	-0.438749	1.969013	-0.188980
H59	H	-0.404399	2.148416	-0.109979
H60	H	-0.493859	2.143637	-0.240897
O61	O	-0.372321	1.953735	-0.000284
C62	C	-0.325608	1.969249	-0.141810
H63	H	-0.306108	1.855421	-0.188996
H64	H	-0.271739	2.034803	-0.109979
H65	H	-0.361200	2.030069	-0.240893
O66	O	-0.388606	1.561555	0.000162
C67	C	-0.363586	1.483613	0.141695
H68	H	-0.306692	1.530951	0.188881
H69	H	-0.353130	1.362069	0.109874
H70	H	-0.410704	1.494789	0.240776
