data_functionalizedCrystal
_audit_creation_method	'MofGen! by Chris Wilmer'
_symmetry_space_group_name_H-M	'P1'
_symmetry_Int_Tables_number	1
_symmetry_cell_setting	triclinic
loop_
_symmetry_equiv_pos_as_xyz
  x,y,z
_cell_length_a	19.121321
_cell_length_b	19.121063
_cell_length_c	12.759387
_cell_angle_alpha	87.596398
_cell_angle_beta	87.581907
_cell_angle_gamma	89.929715
loop_
_atom_site_label
_atom_site_type_symbol
_atom_site_fract_x
_atom_site_fract_y
_atom_site_fract_z
Zn1	Zn	1.059833	-0.324721	0.547052
Zn2	Zn	1.054732	-0.441971	0.379158
Zn3	Zn	0.942592	-0.319762	0.378553
Zn4	Zn	0.937563	-0.436927	0.561952
O5	O	0.998680	-0.380845	0.466679
O6	O	1.157257	-0.344461	0.518798
O7	O	1.039826	-0.425795	0.232061
O8	O	0.962384	-0.222316	0.394416
O9	O	1.153509	-0.430604	0.395448
O10	O	1.048520	-0.225959	0.518211
O11	O	0.957438	-0.336009	0.231616
O12	O	0.843824	-0.331118	0.408863
O13	O	0.953812	-0.422007	0.706992
O14	O	0.840129	-0.417198	0.543606
O15	O	1.043643	-0.339569	0.696046
O16	O	1.034949	-0.539405	0.409895
O17	O	0.948866	-0.535700	0.544193
C18	C	0.816540	-0.373073	0.477786
C19	C	0.738619	-0.369765	0.482564
C20	C	0.298014	-0.348754	0.512859
C21	C	0.371229	-0.351875	0.508365
C22	C	0.405879	-0.398212	0.441782
C23	C	0.367310	-0.441436	0.379697
C24	C	0.294097	-0.438318	0.384198
C25	C	0.626838	-0.409871	0.424980
C26	C	0.700056	-0.412984	0.420482
C27	C	0.703969	-0.323424	0.549152
C28	C	0.630755	-0.320307	0.553642
C29	C	0.592192	-0.363533	0.491561
C30	C	0.480716	-0.401402	0.437184
C31	C	0.517357	-0.360346	0.496165
C32	C	0.990828	-0.562991	0.478748
C33	C	0.987532	-0.640916	0.483943
C34	C	1.030838	-0.679433	0.416515
C35	C	1.027743	-0.752652	0.421407
C36	C	0.981339	-0.787353	0.493721
C37	C	0.938031	-0.748830	0.561156
C38	C	0.941130	-0.675613	0.556269
C39	C	0.969741	-1.008327	0.511977
C40	C	0.966644	-1.081550	0.516857
C41	C	1.056357	-1.085367	0.377109
C42	C	1.059449	-1.012147	0.372224
C43	C	1.016144	-0.973632	0.439662
C44	C	0.978172	-0.862194	0.498721
C45	C	1.019315	-0.898792	0.434667
C46	C	1.181531	-0.388648	0.455529
C47	C	1.259451	-0.391973	0.450777
C48	C	0.998736	-0.380779	0.740705
C49	C	0.998760	-0.380750	0.857478
C50	C	1.006582	-0.197989	0.454584
C51	C	1.009950	-0.120067	0.449430
C52	C	0.998667	-0.380862	0.193713
C53	C	0.998787	-0.380699	0.076919
C54	C	1.092307	-0.294914	0.846099
C55	C	1.139090	-0.251986	0.895269
C56	C	1.139108	-0.251962	1.004988
C57	C	1.092336	-0.294868	1.065540
C58	C	1.045553	-0.337796	1.016370
C59	C	1.045541	-0.337818	0.906648
C60	C	0.952004	-0.423627	1.027749
C61	C	0.951988	-0.423657	0.918030
C62	C	0.905232	-0.466533	1.088301
C63	C	0.858450	-0.509466	1.039131
C64	C	0.858435	-0.509490	0.929405
C65	C	0.905204	-0.466585	0.868860
H66	H	0.395528	-0.479167	0.325488
H67	H	0.402624	-0.316684	0.558923
H68	H	1.092303	-0.294937	0.756760
H69	H	0.595449	-0.445067	0.374426
H70	H	0.905247	-0.466507	1.177640
H71	H	0.900250	-0.777089	0.620041
H72	H	0.820369	-0.544393	1.088441
H73	H	1.177170	-0.217052	0.845956
H74	H	0.820330	-0.544439	0.889378
H75	H	1.068623	-0.651185	0.357625
H76	H	1.177199	-0.217001	1.045022
H77	H	0.905867	-0.644253	0.611177
H78	H	0.940388	-0.890455	0.557598
H79	H	0.905199	-0.466603	0.779520
H80	H	1.092350	-0.294838	1.154878
H81	H	0.269808	-0.311017	0.567072
H82	H	0.262700	-0.473513	0.333646
H83	H	0.602548	-0.282577	0.607864
H84	H	0.735374	-0.288232	0.599695
H85	H	0.728266	-0.450720	0.366260
H86	H	1.091615	-1.116734	0.322206
H87	H	1.063007	-0.784010	0.366499
H88	H	1.057100	-0.870536	0.375792
H89	H	0.489141	-0.322621	0.550380
H90	H	1.097236	-0.983896	0.313340
H91	H	0.508936	-0.439128	0.382968
H92	H	0.928864	-1.109801	0.575762
H93	H	0.934479	-0.976973	0.566887
