data_functionalizedCrystal
_audit_creation_method	'MofGen! by Chris Wilmer'
_symmetry_space_group_name_H-M	'P1'
_symmetry_Int_Tables_number	1
_symmetry_cell_setting	triclinic
loop_
_symmetry_equiv_pos_as_xyz
  x,y,z
_cell_length_a	12.594516
_cell_length_b	12.759401
_cell_length_c	12.759393
_cell_angle_alpha	89.982620
_cell_angle_beta	89.970672
_cell_angle_gamma	90.016214
loop_
_atom_site_label
_atom_site_type_symbol
_atom_site_fract_x
_atom_site_fract_y
_atom_site_fract_z
Zn1	Zn	-0.423673	1.606234	-0.593999
Zn2	Zn	-0.601693	1.606128	-0.418327
Zn3	Zn	-0.423729	1.430539	-0.418339
Zn4	Zn	-0.601610	1.430520	-0.593968
O5	O	-0.512676	1.518355	-0.506158
O6	O	-0.447298	1.753241	-0.570704
O7	O	-0.578143	1.582799	-0.271307
O8	O	-0.274776	1.453898	-0.441658
O9	O	-0.578089	1.753163	-0.441638
O10	O	-0.274734	1.582980	-0.570715
O11	O	-0.447394	1.453795	-0.271316
O12	O	-0.447314	1.283516	-0.441628
O13	O	-0.577948	1.453866	-0.740993
O14	O	-0.578003	1.283502	-0.570663
O15	O	-0.447218	1.582962	-0.741016
O16	O	-0.750627	1.582780	-0.441608
O17	O	-0.750567	1.453763	-0.570651
C18	C	-0.512656	1.245388	-0.506144
C19	C	-0.512674	1.128611	-0.506163
C20	C	-0.580832	1.073770	-0.573240
C21	C	-0.580846	0.964045	-0.573251
C22	C	-0.444539	0.964015	-0.439099
C23	C	-0.444521	1.073737	-0.439094
C24	C	-0.659531	1.073786	-0.650688
C25	C	-0.659544	0.964062	-0.650700
C26	C	-0.789217	1.518286	-0.506148
C27	C	-0.907522	1.518353	-0.506179
C28	C	-0.976781	1.448174	-0.576316
C29	C	-1.047652	1.422576	-0.480449
C30	C	-1.047451	1.544046	-0.602062
C31	C	-0.976835	1.492705	-0.410261
C32	C	-0.976627	1.614220	-0.531938
C33	C	-1.047466	1.588659	-0.436006
C34	C	-0.235055	1.518453	-0.506192
C35	C	-0.116750	1.518495	-0.506206
C36	C	-0.512568	1.518424	-0.780192
C37	C	-0.512521	1.518453	-0.896968
C38	C	-0.512696	1.792389	-0.506173
C39	C	-0.512705	1.909165	-0.506179
C40	C	-0.444428	1.451309	-0.951841
C41	C	-0.444396	1.451341	-1.061565
C42	C	-0.580555	1.585669	-1.061534
C43	C	-0.580591	1.585631	-0.951812
C44	C	-0.365814	1.373758	-0.951860
C45	C	-0.365783	1.373790	-1.061584
C46	C	-0.512707	1.518348	-0.233191
C47	C	-0.512454	1.518522	-0.116415
H48	H	-0.741959	0.934265	-0.628771
Cl49	Cl	-1.095816	1.297502	-0.446816
H50	H	-0.945744	1.388719	-0.635542
H51	H	-0.737794	1.107799	-0.621407
H52	H	-0.636055	1.640291	-0.907139
H53	H	-0.287524	1.402924	-0.917840
Cl54	Cl	-1.095347	1.577509	-0.727234
Cl55	Cl	-0.929149	1.459099	-0.285049
H56	H	-0.635974	1.640364	-1.106202
Cl57	Cl	-0.399900	1.248104	-0.905878
H58	H	-0.389013	1.118385	-0.384480
H59	H	-0.395290	1.296492	-1.095611
H60	H	-0.283335	1.395609	-1.091378
H61	H	-0.389051	0.919322	-0.384496
H62	H	-0.637547	1.103594	-0.732094
H63	H	-0.630120	0.930064	-0.728050
H64	H	-1.078307	1.648068	-0.376636
Cl65	Cl	-0.928424	1.739261	-0.565614
