data_functionalizedCrystal
_audit_creation_method	'MofGen! by Chris Wilmer'
_symmetry_space_group_name_H-M	'P1'
_symmetry_Int_Tables_number	1
_symmetry_cell_setting	triclinic
loop_
_symmetry_equiv_pos_as_xyz
  x,y,z
_cell_length_a	16.625548
_cell_length_b	11.169416
_cell_length_c	11.169409
_cell_angle_alpha	90.027647
_cell_angle_beta	89.976108
_cell_angle_gamma	89.986850
loop_
_atom_site_label
_atom_site_type_symbol
_atom_site_fract_x
_atom_site_fract_y
_atom_site_fract_z
Zn1	Zn	1.232765	0.477676	-0.678688
Zn2	Zn	1.732765	0.977676	-0.178688
Zn3	Zn	1.232685	0.678417	-0.478021
Zn4	Zn	1.732685	1.178417	0.021979
Zn5	Zn	1.097919	0.477750	-0.478011
Zn6	Zn	1.597919	0.977750	0.021989
Zn7	Zn	1.097922	0.678320	-0.678654
Zn8	Zn	1.597922	1.178320	-0.178654
O9	O	1.165323	0.578041	-0.578344
O10	O	1.665323	1.078041	-0.078344
O11	O	1.345587	0.504315	-0.652088
O12	O	1.845587	1.004315	-0.152088
O13	O	1.214773	0.651869	-0.310070
O14	O	1.714773	1.151869	0.189930
O15	O	1.115839	0.309791	-0.504641
O16	O	1.615839	0.809791	-0.004641
O17	O	1.345528	0.651798	-0.504658
O18	O	1.845528	1.151798	-0.004658
O19	O	1.214910	0.309736	-0.652077
O20	O	1.714910	0.809736	-0.152077
O21	O	1.115761	0.504440	-0.310062
O22	O	1.615761	1.004440	0.189938
O23	O	0.985087	0.504346	-0.504608
O24	O	1.485087	1.004346	-0.004608
O25	O	1.115844	0.651633	-0.846609
O26	O	1.615844	1.151633	-0.346609
O27	O	0.985089	0.651704	-0.652020
O28	O	1.485089	1.151704	-0.152020
O29	O	1.214913	0.504221	-0.846633
O30	O	1.714913	1.004221	-0.346633
O31	O	1.214776	0.846354	-0.504626
O32	O	1.714776	1.346354	-0.004626
O33	O	1.115766	0.846282	-0.652030
O34	O	1.615766	1.346282	-0.152030
C35	C	0.955832	0.578024	-0.578310
C36	C	1.455832	1.078024	-0.078310
C37	C	0.866211	0.578045	-0.578324
C38	C	1.366211	1.078045	-0.078324
C39	C	0.538035	0.578053	-0.578375
C40	C	1.038035	1.078053	-0.078375
C41	C	0.629344	0.578048	-0.578357
C42	C	1.129344	1.078048	-0.078357
C43	C	0.702120	0.578050	-0.578349
C44	C	1.202120	1.078050	-0.078349
C45	C	0.793434	0.578043	-0.578333
C46	C	1.293434	1.078043	-0.078333
C47	C	1.165284	0.889865	-0.578352
C48	C	1.665284	1.389865	-0.078352
C49	C	1.165342	1.023265	-0.578395
C50	C	1.665342	1.523265	-0.078395
C51	C	1.375632	0.578059	-0.578378
C52	C	1.875632	1.078059	-0.078378
C53	C	1.465253	0.578067	-0.578393
C54	C	1.965253	1.078067	-0.078393
C55	C	1.165377	1.264998	-0.578378
C56	C	1.665377	1.764998	-0.078378
C57	C	1.165386	1.131598	-0.578433
C58	C	1.665386	1.631598	-0.078433
C59	C	1.165387	0.577908	-0.891386
C60	C	1.665387	1.077908	-0.391386
C61	C	1.165415	0.577851	-1.024786
C62	C	1.665415	1.077851	-0.524786
C63	C	1.165305	0.578087	-0.266519
C64	C	1.665305	1.078087	0.233481
C65	C	1.165433	0.577805	-0.133119
C66	C	1.665433	1.077805	0.366881
