data_functionalizedCrystal
_audit_creation_method	'MofGen! by Chris Wilmer'
_symmetry_space_group_name_H-M	'P1'
_symmetry_Int_Tables_number	1
_symmetry_cell_setting	triclinic
loop_
_symmetry_equiv_pos_as_xyz
  x,y,z
_cell_length_a	15.298068
_cell_length_b	16.120444
_cell_length_c	15.296720
_cell_angle_alpha	78.012939
_cell_angle_beta	91.645182
_cell_angle_gamma	103.030534
loop_
_atom_site_label
_atom_site_type_symbol
_atom_site_fract_x
_atom_site_fract_y
_atom_site_fract_z
Zn1	Zn	1.237592	-0.252309	0.738455
Zn2	Zn	1.255727	-0.366217	0.596994
Zn3	Zn	1.116987	-0.244068	0.566260
Zn4	Zn	1.080981	-0.413764	0.720107
O5	O	1.172822	-0.319089	0.655454
O6	O	1.363602	-0.250969	0.740231
O7	O	1.259981	-0.326666	0.469329
O8	O	1.140465	-0.126471	0.583918
O9	O	1.376926	-0.334657	0.636300
O10	O	1.229073	-0.132526	0.710430
O11	O	1.158050	-0.236923	0.446749
O12	O	0.988606	-0.283028	0.566127
O13	O	1.079097	-0.415695	0.846129
O14	O	0.962152	-0.407704	0.679158
O15	O	1.194159	-0.297074	0.859609
O16	O	1.225067	-0.491214	0.618508
O17	O	1.096682	-0.526147	0.708959
C18	C	0.943329	-0.349632	0.617317
C19	C	0.845147	-0.362722	0.601024
C20	C	0.540553	-0.225743	0.771916
C21	C	0.632800	-0.213447	0.787229
C22	C	0.685891	-0.250764	0.740679
C23	C	0.646727	-0.300380	0.678813
C24	C	0.554470	-0.312683	0.663503
C25	C	0.699808	-0.337705	0.632266
C26	C	0.660643	-0.387321	0.570400
C27	C	0.568395	-0.399621	0.555093
C28	C	0.515304	-0.362303	0.601643
C29	C	0.792064	-0.325402	0.647576
C30	C	0.805981	-0.412342	0.539164
C31	C	0.713734	-0.424638	0.523850
C32	C	1.158956	-0.539456	0.665101
C33	C	1.153099	-0.633724	0.669271
C34	C	1.203384	-0.831001	0.634048
C35	C	1.142421	-0.806306	0.676897
C36	C	1.148364	-0.710272	0.672653
C37	C	1.197442	-0.927043	0.638291
C38	C	1.403210	-0.288429	0.693740
C39	C	1.501388	-0.275363	0.710056
C40	C	1.130589	-0.362607	0.885810
C41	C	1.112591	-0.381152	0.983974
C42	C	1.186762	-0.097863	0.645793
C43	C	1.192703	-0.003589	0.641675
C44	C	1.214945	-0.275673	0.426000
C45	C	1.233128	-0.256866	0.327854
C46	C	1.301493	-0.186394	1.288758
C47	C	1.318407	-0.168971	1.196529
C48	C	1.266955	-0.222015	1.143386
C49	C	1.198585	-0.292485	1.182481
C50	C	1.181673	-0.309913	1.274720
C51	C	1.147135	-0.345534	1.129348
C52	C	1.078765	-0.416004	1.168442
C53	C	1.061856	-0.433429	1.260673
C54	C	1.113309	-0.380386	1.313816
C55	C	1.164047	-0.328105	1.037108
C56	C	1.044227	-0.451624	1.023070
C57	C	1.027312	-0.469047	1.115299
H58	H	0.761003	-0.240747	0.753148
H59	H	0.823943	-0.285003	0.697947
O60	O	1.283224	-0.205138	1.053770
C61	C	1.224220	-0.169614	0.906369
C62	C	1.205664	-0.188718	1.007839
H63	H	1.161531	-0.156315	0.869204
H64	H	1.242940	-0.228150	0.887222
H65	H	1.281958	-0.110169	0.887561
H66	H	1.147913	-0.248135	1.026719
H67	H	1.186995	-0.130135	1.026930
O68	O	0.995566	-0.501975	1.298712
C69	C	0.957385	-0.637728	1.405893
C70	C	1.032543	-0.560156	1.362879
H71	H	0.987250	-0.684779	1.457795
H72	H	0.923527	-0.672711	1.352111
H73	H	0.905720	-0.613084	1.439663
H74	H	1.084266	-0.584728	1.329114
H75	H	1.066331	-0.525188	1.416699
H76	H	1.085765	-0.857288	0.716768
O77	O	0.961018	-0.537585	1.153346
C78	C	0.922821	-0.673322	1.260551
C79	C	0.997987	-0.595765	1.217522
H80	H	0.952679	-0.720372	1.312459
H81	H	0.888952	-0.708312	1.206777
H82	H	0.871166	-0.648660	1.294314
H83	H	1.049700	-0.620354	1.183763
H84	H	1.031785	-0.560789	1.271333
O85	O	1.096738	-0.397259	1.403383
C86	C	0.989138	-0.411802	1.520713
C87	C	1.007789	-0.392659	1.419257
H88	H	0.917219	-0.408108	1.533580
H89	H	1.037593	-0.361772	1.552018
H90	H	0.998785	-0.479766	1.551653
H91	H	0.998132	-0.324719	1.388240
H92	H	0.959339	-0.442743	1.388017
H93	H	1.260035	-0.780025	0.594178
O94	O	1.230542	-0.259751	0.999115
C95	C	1.369576	-0.212776	0.914249
C96	C	1.294341	-0.290275	0.957254
H97	H	1.421167	-0.237424	0.880378
H98	H	1.403515	-0.177855	0.968043
H99	H	1.339705	-0.165660	0.862431
H100	H	1.324141	-0.337452	1.009064
H101	H	1.260412	-0.325128	0.903409
O102	O	1.384822	-0.100462	1.158692
C103	C	1.501916	0.020181	1.182363
C104	C	1.426713	-0.057370	1.225326
H105	H	1.535819	0.055031	1.236219
H106	H	1.472120	0.067351	1.130534
H107	H	1.553530	-0.004471	1.148528
H108	H	1.375074	-0.032798	1.259210
H109	H	1.456574	-0.104525	1.277109
H110	H	1.343383	-0.143218	1.332036
H111	H	0.664680	-0.173052	0.837604
O112	O	0.994298	-0.503046	0.971321
C113	C	0.967287	-0.530968	0.823013
C114	C	1.023876	-0.472656	0.881516
H115	H	0.991192	-0.506431	0.750396
H116	H	0.893669	-0.528968	0.828591
H117	H	0.975144	-0.600724	0.846759
H118	H	1.016094	-0.402875	0.857810
H119	H	1.097471	-0.474730	0.875933
O120	O	0.530197	-0.447833	0.495065
C121	C	0.394254	-0.505279	0.423404
C122	C	0.437392	-0.450675	0.491422
H123	H	0.319218	-0.507580	0.420422
H124	H	0.405213	-0.574208	0.444796
H125	H	0.426418	-0.474420	0.354583
H126	H	0.405257	-0.481458	0.560265
H127	H	0.426442	-0.381750	0.469953
H128	H	0.440187	-0.372319	0.589184
O129	O	0.675534	-0.472846	0.463819
C130	C	0.539588	-0.530277	0.392154
C131	C	0.582730	-0.475681	0.460177
H132	H	0.464553	-0.532572	0.389173
H133	H	0.550541	-0.599209	0.413541
H134	H	0.571753	-0.499415	0.323334
H135	H	0.550594	-0.506466	0.529019
H136	H	0.571786	-0.406753	0.438714
O137	O	0.489095	-0.189362	0.817101
C138	C	0.461978	-0.057070	0.849192
C139	C	0.520338	-0.098160	0.797978
H140	H	0.487203	0.016674	0.833735
H141	H	0.466160	-0.083034	0.924063
H142	H	0.389315	-0.074435	0.827644
H143	H	0.593025	-0.080811	0.819451
H144	H	0.516079	-0.072195	0.723117
H145	H	0.849207	-0.442734	0.501263
