data_functionalizedCrystal
_audit_creation_method	'MofGen! by Chris Wilmer'
_symmetry_space_group_name_H-M	'P1'
_symmetry_Int_Tables_number	1
_symmetry_cell_setting	triclinic
loop_
_symmetry_equiv_pos_as_xyz
  x,y,z
_cell_length_a	21.395361
_cell_length_b	21.395364
_cell_length_c	21.395355
_cell_angle_alpha	89.974400
_cell_angle_beta	90.021511
_cell_angle_gamma	89.971791
loop_
_atom_site_label
_atom_site_type_symbol
_atom_site_fract_x
_atom_site_fract_y
_atom_site_fract_z
Zn1	Zn	-0.249553	-0.957859	0.354266
Zn2	Zn	-0.354313	-0.957762	0.249483
Zn3	Zn	-0.249548	-0.853074	0.249501
Zn4	Zn	-0.354292	-0.853043	0.354221
O5	O	-0.301926	-0.905434	0.301868
O6	O	-0.263460	-1.045524	0.340377
O7	O	-0.340422	-0.943847	0.161807
O8	O	-0.161871	-0.867028	0.263424
O9	O	-0.340427	-1.045452	0.263394
O10	O	-0.161874	-0.944013	0.340395
O11	O	-0.263452	-0.866933	0.161820
O12	O	-0.263432	-0.765392	0.263381
O13	O	-0.340391	-0.866975	0.441905
O14	O	-0.340387	-0.765369	0.340319
O15	O	-0.263440	-0.943983	0.441938
O16	O	-0.441988	-0.943817	0.263351
O17	O	-0.441973	-0.866881	0.340301
C18	C	-0.301907	-0.742647	0.301847
C19	C	-0.301914	-0.673006	0.301853
C20	C	-0.342060	-0.171214	0.341879
C21	C	-0.342061	-0.236649	0.341874
C22	C	-0.301931	-0.269367	0.301878
C23	C	-0.261809	-0.236644	0.261873
C24	C	-0.261813	-0.171210	0.261876
C25	C	-0.245467	-0.373056	0.297031
C26	C	-0.245462	-0.438489	0.297033
C27	C	-0.301917	-0.471188	0.301867
C28	C	-0.358380	-0.438446	0.306712
C29	C	-0.358385	-0.373012	0.306714
C30	C	-0.301922	-0.340320	0.301871
C31	C	-0.342041	-0.574856	0.341860
C32	C	-0.342044	-0.640292	0.341850
C33	C	-0.261786	-0.640286	0.261853
C34	C	-0.261790	-0.574850	0.261860
C35	C	-0.301916	-0.542139	0.301867
C36	C	-0.464714	-0.905352	0.301833
C37	C	-0.534355	-0.905374	0.301839
C38	C	-0.567056	-0.945470	0.261812
C39	C	-0.632491	-0.945499	0.261826
C40	C	-0.665224	-0.905421	0.301860
C41	C	-0.632516	-0.865322	0.341895
C42	C	-0.567081	-0.865298	0.341885
C43	C	-0.768936	-0.849006	0.306769
C44	C	-0.834369	-0.849029	0.306776
C45	C	-0.867044	-0.905494	0.301897
C46	C	-0.834278	-0.961938	0.296999
C47	C	-0.768844	-0.961915	0.296988
C48	C	-0.736176	-0.905442	0.301877
C49	C	-0.970697	-0.945625	0.261883
C50	C	-1.036134	-0.945655	0.261901
C51	C	-1.036157	-0.865472	0.341968
C52	C	-0.970722	-0.865448	0.341953
C53	C	-0.937996	-0.905523	0.301907
C54	C	-0.138503	-0.905535	0.301916
C55	C	-0.068862	-0.905577	0.301937
C56	C	-0.301914	-0.905486	0.465291
C57	C	-0.301908	-0.905509	0.534932
C58	C	-0.301942	-0.068858	0.301885
C59	C	-0.301940	-0.138499	0.301882
C60	C	-0.301894	-0.905419	0.139080
C61	C	-0.301723	-0.905518	0.069439
C62	C	-0.261838	-0.945605	0.567664
C63	C	-0.261811	-0.945604	0.633099
C64	C	-0.301866	-0.905513	0.665801
C65	C	-0.341939	-0.865409	0.633062
C66	C	-0.341960	-0.865407	0.567627
C67	C	-0.358281	-0.900538	0.769463
C68	C	-0.358261	-0.900544	0.834896
C69	C	-0.301800	-0.905517	0.867622
C70	C	-0.245357	-0.910497	0.834906
C71	C	-0.245378	-0.910494	0.769472
C72	C	-0.301847	-0.905511	0.736753
C73	C	-0.261697	-0.945615	0.971305
C74	C	-0.261669	-0.945610	1.036742
C75	C	-0.341802	-0.865418	1.036703
C76	C	-0.341824	-0.865420	0.971268
C77	C	-0.301773	-0.905522	0.938573
H78	H	-0.374736	-0.144585	0.374454
H79	H	-0.199381	-0.914547	0.861549
N80	N	-0.667778	-0.988741	0.218651
H81	H	-0.656352	-1.033502	0.228414
H82	H	-0.656411	-0.978969	0.173891
H83	H	-0.404359	-0.346356	0.310658
H84	H	-0.374409	-0.832770	1.063328
H85	H	-0.374716	-0.548221	0.374435
N86	N	-0.869510	-1.022846	0.291738
H87	H	-0.858129	-1.044179	0.251205
H88	H	-0.915923	-1.014248	0.292518
H89	H	-0.742168	-1.007873	0.293002
N90	N	-0.935394	-0.988847	0.218695
H91	H	-0.966041	-1.014257	0.193342
H92	H	-0.908203	-1.017819	0.244220
H93	H	-0.374549	-0.832766	0.659691
H94	H	-0.742339	-0.803022	0.310744
H95	H	-1.062807	-0.832843	0.374568
H96	H	-1.062757	-0.978310	0.229308
H97	H	-0.659171	-0.832691	0.374493
H98	H	-0.229081	-0.978264	0.944684
N99	N	-0.935447	-0.822196	0.385121
H100	H	-0.966110	-0.796810	0.410484
H101	H	-0.908338	-0.793205	0.359582
N102	N	-0.869700	-0.788149	0.312052
H103	H	-0.858310	-0.766808	0.352581
H104	H	-0.916100	-0.796775	0.311286
H105	H	-0.404352	-0.465068	0.310653
N106	N	-0.531807	-0.822049	0.385057
H107	H	-0.562470	-0.796664	0.410424
H108	H	-0.504699	-0.793056	0.359519
H109	H	-0.374458	-0.832773	0.944618
H110	H	-0.229224	-0.978258	0.541047
N111	N	-0.419135	-0.895173	0.870178
H112	H	-0.410556	-0.895934	0.916595
H113	H	-0.447157	-0.931386	0.858751
H114	H	-0.229178	-0.978254	0.659754
H115	H	-0.199492	-0.346438	0.293084
N116	N	-0.385323	-0.675581	0.384986
H117	H	-0.410742	-0.644927	0.410329
H118	H	-0.359859	-0.702759	0.414024
H119	H	-0.199421	-0.914547	0.742837
H120	H	-0.229035	-0.978260	1.063391
N121	N	-0.419183	-0.895182	0.734169
H122	H	-0.454934	-0.892038	0.764822
H123	H	-0.425005	-0.933357	0.707040
N124	N	-0.218537	-0.135920	0.218737
H125	H	-0.243962	-0.108746	0.189659
H126	H	-0.193125	-0.166613	0.193438
N127	N	-0.385172	-0.822150	0.532320
H128	H	-0.410539	-0.796747	0.562962
H129	H	-0.414183	-0.847627	0.505177
H130	H	-0.229118	-0.548214	0.229292
N131	N	-0.385335	-0.271944	0.385015
H132	H	-0.375666	-0.260584	0.429799
H133	H	-0.379222	-0.318348	0.378888
N134	N	-0.218507	-0.675565	0.218708
H135	H	-0.224593	-0.721982	0.224774
H136	H	-0.173773	-0.664152	0.228540
N137	N	-0.184566	-0.473801	0.291811
H138	H	-0.148803	-0.443159	0.288741
H139	H	-0.185415	-0.500932	0.253204
N140	N	-0.218528	-0.271928	0.218732
H141	H	-0.224611	-0.318345	0.224800
H142	H	-0.173795	-0.260513	0.228563
H143	H	-0.540412	-0.978103	0.229206
