data_functionalizedCrystal
_audit_creation_method	'MofGen! by Chris Wilmer'
_symmetry_space_group_name_H-M	'P1'
_symmetry_Int_Tables_number	1
_symmetry_cell_setting	triclinic
loop_
_symmetry_equiv_pos_as_xyz
  x,y,z
_cell_length_a	12.759401
_cell_length_b	12.645329
_cell_length_c	12.759393
_cell_angle_alpha	90.031426
_cell_angle_beta	90.018567
_cell_angle_gamma	90.017022
loop_
_atom_site_label
_atom_site_type_symbol
_atom_site_fract_x
_atom_site_fract_y
_atom_site_fract_z
Zn1	Zn	1.606231	-0.422004	0.593984
Zn2	Zn	1.606116	-0.599308	0.418305
Zn3	Zn	1.430533	-0.422056	0.418324
Zn4	Zn	1.430512	-0.599223	0.593946
O5	O	1.518348	-0.510648	0.506140
O6	O	1.753237	-0.445537	0.570688
O7	O	1.582785	-0.575852	0.271286
O8	O	1.453898	-0.273702	0.441649
O9	O	1.753152	-0.575802	0.441617
O10	O	1.582982	-0.273664	0.570706
O11	O	1.453785	-0.445626	0.271300
O12	O	1.283510	-0.445544	0.441612
O13	O	1.453861	-0.575657	0.740972
O14	O	1.283494	-0.575707	0.570641
O15	O	1.582961	-0.445455	0.741000
O16	O	1.582764	-0.747644	0.441580
O17	O	1.453749	-0.747581	0.570623
C18	C	1.245381	-0.510623	0.506125
C19	C	1.128604	-0.510638	0.506144
C20	C	1.073779	-0.442937	0.573455
C21	C	0.964055	-0.442957	0.573462
C22	C	0.963990	-0.578388	0.438843
C23	C	1.073712	-0.578362	0.438832
C24	C	1.073816	-0.364750	0.651180
C25	C	0.964092	-0.364770	0.651186
C26	C	1.518270	-0.786077	0.506118
C27	C	1.518333	-0.903907	0.506144
C28	C	1.437131	-0.948795	0.587278
C29	C	1.437468	-1.071354	0.587630
C30	C	1.629255	-1.071673	0.535976
C31	C	1.628688	-0.949075	0.536531
C32	C	1.489784	-0.949207	0.395046
C33	C	1.487438	-1.071816	0.395672
C34	C	1.792381	-0.510673	0.506155
C35	C	1.909158	-0.510684	0.506161
C36	C	1.518422	-0.510541	0.780173
C37	C	1.518453	-0.510495	0.896950
C38	C	1.518455	-0.234142	0.506184
C39	C	1.518501	-0.116312	0.506203
C40	C	1.518335	-0.510678	0.233172
C41	C	1.518508	-0.510425	0.116396
C42	C	1.585685	-0.442692	0.951828
C43	C	1.585710	-0.442654	1.061552
C44	C	1.451268	-0.578230	1.061510
C45	C	1.451239	-0.578262	0.951788
C46	C	1.663307	-0.364422	0.951854
C47	C	1.663332	-0.364383	1.061578
H48	H	1.118347	-0.633480	0.384010
Br49	Br	1.670316	-1.122702	0.669863
Br50	Br	1.123448	-0.227853	0.615096
Br51	Br	1.359971	-0.670262	0.877312
H52	H	1.396543	-0.633402	1.106173
Br53	Br	1.578870	-1.122824	0.289584
H54	H	1.548921	-0.920167	0.334598
H55	H	1.634223	-0.286377	1.095625
H56	H	1.740577	-0.393855	0.917818
H57	H	1.405929	-1.101006	0.373214
Br58	Br	0.889488	-0.670292	0.347492
H59	H	1.355350	-1.101542	0.569022
H60	H	1.691271	-0.919374	0.479993
H61	H	0.930055	-0.286745	0.622187
H62	H	1.641543	-0.282323	0.922097
Br63	Br	1.798952	-0.401015	1.111221
H64	H	0.934346	-0.386863	0.732522
H65	H	1.107880	-0.394246	0.728418
H66	H	1.456469	-1.100601	0.669959
Br67	Br	1.299749	-0.899817	0.556626
H68	H	1.455822	-0.917909	0.669131
H69	H	1.652854	-0.920394	0.617736
H70	H	1.691458	-1.100787	0.478715
Br71	Br	1.357382	-0.897850	0.349763
