data_functionalizedCrystal
_audit_creation_method	'MofGen! by Chris Wilmer'
_symmetry_space_group_name_H-M	'P1'
_symmetry_Int_Tables_number	1
_symmetry_cell_setting	triclinic
loop_
_symmetry_equiv_pos_as_xyz
  x,y,z
_cell_length_a	12.837943
_cell_length_b	10.654550
_cell_length_c	9.130313
_cell_angle_alpha	90.004369
_cell_angle_beta	89.997654
_cell_angle_gamma	90.343065
loop_
_atom_site_label
_atom_site_type_symbol
_atom_site_fract_x
_atom_site_fract_y
_atom_site_fract_z
O1	O	1.377802	-0.326751	-0.121773
O2	O	1.075880	-0.310610	-0.121782
O3	O	1.233782	-0.136698	-0.121768
O4	O	1.219899	-0.500662	-0.121787
O5	O	1.233772	-0.136691	0.121831
O6	O	1.075869	-0.310603	0.121817
O7	O	1.377791	-0.326744	0.121826
Cu8	Cu	1.226829	-0.318673	0.144064
Cu9	Cu	1.226842	-0.318681	-0.144020
O10	O	1.219888	-0.500655	0.121812
C11	C	1.037215	-0.305153	0.000017
C12	C	0.922021	-0.288891	0.000014
C13	C	1.232758	-0.089786	0.000031
C14	C	1.229708	0.049990	0.000028
N15	N	1.226827	-0.318667	0.346687
C16	C	0.682468	-0.484395	0.000025
C17	C	0.574232	-0.469121	0.000023
C18	C	0.597312	-0.243070	0.000019
C19	C	0.705547	-0.258344	0.000021
C20	C	0.748121	-0.379010	0.000021
C21	C	0.856359	-0.394284	0.000013
C22	C	0.879436	-0.168233	0.000019
C23	C	0.771201	-0.152959	0.000017
C24	C	1.416456	-0.332200	0.000024
C25	C	1.531650	-0.348462	0.000018
C26	C	1.220913	-0.547568	0.000010
C27	C	1.223963	-0.687344	0.000003
C28	C	1.322678	0.119331	0.000031
C29	C	1.319806	0.250665	0.000013
C30	C	1.130985	0.243307	-0.000003
C31	C	1.133858	0.111975	0.000004
N32	N	1.226851	-0.318677	-0.346642
C33	C	1.296770	-0.241698	0.423345
C34	C	1.296780	-0.241699	0.576682
C35	C	1.156901	-0.395650	0.576689
C36	C	1.156887	-0.395641	0.423355
H37	H	0.891020	-0.492536	0.000016
H38	H	1.099926	-0.458319	0.360936
O39	O	0.723659	-0.601692	0.000080
C40	C	0.642501	-0.691436	0.000033
H41	H	0.568726	-0.647417	0.046155
H42	H	0.665702	-0.774897	0.070748
H43	H	0.627447	-0.724563	-0.116838
H44	H	1.058146	0.055516	-0.000002
O45	O	1.364825	-0.166898	0.650919
C46	C	1.426529	-0.098937	0.550363
H47	H	1.428058	-0.150610	0.441055
H48	H	1.509249	-0.089742	0.594649
H49	H	1.392179	-0.001507	0.534074
H50	H	0.520780	-0.554937	0.000030
H51	H	1.353719	-0.179019	0.360925
O52	O	1.410021	0.318212	-0.000049
C53	C	1.386938	0.447422	-0.000031
H54	H	1.305413	0.462193	-0.046158
H55	H	1.446147	0.499671	-0.070756
H56	H	1.390591	0.484884	0.116831
O57	O	0.729789	-0.035776	-0.000246
C58	C	0.667852	-0.020206	-0.126389
H59	H	0.693924	-0.088958	-0.214564
H60	H	0.676829	0.079925	-0.168746
H61	H	0.582722	-0.038993	-0.097862
O62	O	1.088927	-0.470248	0.651333
C63	C	1.024437	-0.395230	0.740032
H64	H	1.065058	-0.301851	0.763005
H65	H	1.008412	-0.445723	0.847853
H66	H	0.947693	-0.377456	0.680964
O67	O	1.037857	0.303466	-0.000276
C68	C	0.981122	0.269102	-0.126423
H69	H	1.037157	0.235142	-0.214597
H70	H	0.936413	0.353800	-0.168777
H71	H	0.923919	0.190580	-0.097901
O72	O	0.555999	-0.125836	0.000281
C73	C	0.589488	-0.060788	0.126421
H74	H	0.612492	-0.131111	0.214601
H75	H	0.523542	0.000527	0.168773
H76	H	0.659509	0.000819	0.097891
O77	O	1.415807	0.059173	-0.000223
C78	C	1.472551	0.093516	-0.126369
H79	H	1.416523	0.127458	-0.214549
H80	H	1.517266	0.008812	-0.168715
H81	H	1.529750	0.172046	-0.097851
O82	O	0.943362	-0.065988	0.000076
C83	C	1.048025	-0.105338	0.000030
H84	H	1.052893	-0.204552	0.046158
H85	H	1.096532	-0.038950	0.070740
H86	H	1.079282	-0.104332	-0.116841
