data_functionalizedCrystal
_audit_creation_method	'MofGen! by Chris Wilmer'
_symmetry_space_group_name_H-M	'P1'
_symmetry_Int_Tables_number	1
_symmetry_cell_setting	triclinic
loop_
_symmetry_equiv_pos_as_xyz
  x,y,z
_cell_length_a	9.065215
_cell_length_b	11.792241
_cell_length_c	8.140239
_cell_angle_alpha	89.996328
_cell_angle_beta	89.997810
_cell_angle_gamma	84.604057
loop_
_atom_site_label
_atom_site_type_symbol
_atom_site_fract_x
_atom_site_fract_y
_atom_site_fract_z
O1	O	1.958841	0.166414	-0.136595
O2	O	2.292174	0.499747	0.196738
O3	O	2.625507	0.833081	0.530071
O4	O	1.529427	0.180069	-0.136603
O5	O	1.862761	0.513402	0.196731
O6	O	2.196094	0.846736	0.530064
O7	O	1.754555	0.008129	-0.136587
O8	O	2.087888	0.341462	0.196746
O9	O	2.421221	0.674795	0.530079
O10	O	1.733713	0.338354	-0.136611
O11	O	2.067047	0.671688	0.196723
O12	O	2.400380	1.005021	0.530056
O13	O	1.754542	0.008127	0.136640
O14	O	2.087876	0.341460	0.469973
O15	O	2.421209	0.674793	0.803306
O16	O	1.529415	0.180067	0.136624
O17	O	1.862748	0.513400	0.469958
O18	O	2.196082	0.846734	0.803291
O19	O	1.958828	0.166412	0.136632
O20	O	2.292162	0.499745	0.469965
O21	O	2.625495	0.833079	0.803298
Zn22	Zn	1.744120	0.173239	0.180009
Zn23	Zn	2.077453	0.506572	0.513342
Zn24	Zn	2.410786	0.839906	0.846675
Zn25	Zn	1.744136	0.173242	-0.179980
Zn26	Zn	2.077469	0.506575	0.153354
Zn27	Zn	2.410803	0.839909	0.486687
O28	O	1.733701	0.338352	0.136616
O29	O	2.067034	0.671686	0.469950
O30	O	2.400368	1.005019	0.803283
C31	C	1.474447	0.178756	0.000010
C32	C	1.807780	0.512090	0.333343
C33	C	2.141113	0.845423	0.666677
C34	C	1.310640	0.174835	0.000007
C35	C	1.643974	0.508168	0.333341
C36	C	1.977307	0.841501	0.666674
C37	C	1.753239	-0.034171	0.000026
C38	C	2.086573	0.299163	0.333359
C39	C	2.419906	0.632496	0.666692
C40	C	1.749321	-0.160206	0.000024
C41	C	2.082654	0.173127	0.333357
C42	C	2.415988	0.506461	0.666691
C43	C	1.742116	-0.390958	-0.000004
C44	C	2.075449	-0.057625	0.333330
C45	C	2.408782	0.275709	0.666663
C46	C	1.746119	-0.262551	0.000011
C47	C	2.079452	0.070783	0.333345
C48	C	2.412786	0.404116	0.666678
C49	C	2.013809	0.167725	0.000015
C50	C	2.347142	0.501058	0.333349
C51	C	2.680476	0.834391	0.666682
C52	C	2.177615	0.171646	0.000007
C53	C	2.510949	0.504980	0.333341
C54	C	2.844282	0.838313	0.666674
C55	C	1.735016	0.380652	-0.000000
C56	C	2.068350	0.713985	0.333333
C57	C	2.401683	1.047318	0.666666
C58	C	1.738935	0.506687	-0.000009
C59	C	2.072268	0.840020	0.333324
C60	C	2.405601	1.173354	0.666657
N61	N	1.744119	0.173237	0.425691
N62	N	2.077452	0.506570	0.759025
N63	N	2.410786	0.839903	1.092358
N64	N	1.744148	0.173235	-0.425662
N65	N	2.077481	0.506569	-0.092329
N66	N	2.410815	0.839902	0.241004
