data_functionalizedCrystal
_audit_creation_method	'MofGen! by Chris Wilmer'
_symmetry_space_group_name_H-M	'P1'
_symmetry_Int_Tables_number	1
_symmetry_cell_setting	triclinic
loop_
_symmetry_equiv_pos_as_xyz
  x,y,z
_cell_length_a	19.805407
_cell_length_b	15.297327
_cell_length_c	19.805399
_cell_angle_alpha	99.649417
_cell_angle_beta	89.975799
_cell_angle_gamma	99.707138
loop_
_atom_site_label
_atom_site_type_symbol
_atom_site_fract_x
_atom_site_fract_y
_atom_site_fract_z
Zn1	Zn	0.988096	-0.359207	-0.429418
Zn2	Zn	0.968421	-0.510075	-0.335809
Zn3	Zn	0.874907	-0.359229	-0.316237
Zn4	Zn	0.855291	-0.510025	-0.448940
O5	O	0.921679	-0.434634	-0.382601
O6	O	1.080201	-0.379231	-0.417022
O7	O	0.955992	-0.490096	-0.238500
O8	O	0.906365	-0.232979	-0.314890
O9	O	1.065746	-0.490074	-0.348247
O10	O	0.989524	-0.232962	-0.398044
O11	O	0.887288	-0.379270	-0.224120
O12	O	0.777590	-0.379222	-0.333819
O13	O	0.872932	-0.489988	-0.541063
O14	O	0.763178	-0.490011	-0.431315
O15	O	0.970503	-0.379182	-0.526720
O16	O	0.936971	-0.636316	-0.367176
O17	O	0.853855	-0.636280	-0.450293
C18	C	0.745825	-0.434614	-0.382562
C19	C	0.670592	-0.434627	-0.382564
C20	C	0.201299	-0.492431	-0.433357
C21	C	0.271988	-0.492429	-0.433342
C22	C	0.314826	-0.434656	-0.382630
C23	C	0.286972	-0.376887	-0.331925
C24	C	0.216284	-0.376894	-0.331938
C25	C	0.572049	-0.376860	-0.331874
C26	C	0.642742	-0.376855	-0.331867
C27	C	0.627753	-0.492395	-0.433279
C28	C	0.557065	-0.492401	-0.433291
C29	C	0.529216	-0.434636	-0.382584
C30	C	0.452567	-0.434640	-0.382600
C31	C	0.391474	-0.434647	-0.382617
C32	C	0.891168	-0.669033	-0.412992
C33	C	0.878177	-0.769309	-0.426016
C34	C	1.014805	-1.051924	-0.289747
C35	C	1.027010	-0.957709	-0.277507
C36	C	0.989803	-0.910604	-0.314633
C37	C	0.940388	-0.957724	-0.364001
C38	C	0.928178	-1.051948	-0.376239
C39	C	0.903176	-0.910629	-0.401125
C40	C	0.853762	-0.957749	-0.450494
C41	C	0.841554	-1.051963	-0.462729
C42	C	0.878761	-1.099068	-0.425603
C43	C	0.915387	-0.816405	-0.388888
C44	C	0.828760	-0.816429	-0.475380
C45	C	0.816555	-0.910644	-0.487620
C46	C	1.098219	-0.434655	-0.382640
C47	C	1.173450	-0.434664	-0.382657
C48	C	0.921724	-0.434577	-0.559136
C49	C	0.921743	-0.434553	-0.634365
C50	C	0.952327	-0.199320	-0.352106
C51	C	0.965388	-0.099044	-0.339111
C52	C	0.972550	-0.376854	-0.662242
C53	C	0.972560	-0.376827	-0.732927
C54	C	0.921766	-0.434506	-0.775735
C55	C	0.870955	-0.492208	-0.747853
C56	C	0.870942	-0.492229	-0.677169
C57	C	0.871004	-0.492124	-1.032916
C58	C	0.871022	-0.492101	-1.103605
C59	C	0.972622	-0.376722	-1.088674
C60	C	0.972609	-0.376743	-1.017990
C61	C	0.921796	-0.434442	-0.990114
C62	C	0.921785	-0.434468	-0.913469
C63	C	0.921780	-0.434485	-0.852379
C64	C	0.921681	-0.434626	-0.206744
C65	C	0.921826	-0.434396	-0.131482
H66	H	0.549383	-0.329827	-0.290584
Br67	Br	0.801984	-0.570533	-0.639335
Br68	Br	0.178487	-0.298501	-0.263124
Br69	Br	0.802083	-0.570385	-1.161702
Br70	Br	0.802042	-0.570427	-0.995093
H71	H	0.798461	-0.778077	-0.505610
H72	H	1.013973	-0.329779	-0.983139
H73	H	0.868828	-1.175786	-0.435568
Br74	Br	1.041493	-0.298578	-0.604153
H75	H	0.677620	-0.329806	-0.290569
H76	H	0.955620	-0.778048	-0.348691
H77	H	0.650435	-0.539432	-0.474565
H78	H	1.067242	-0.919347	-0.237311
H79	H	0.166425	-0.539471	-0.474655
Br80	Br	0.309780	-0.570834	-0.502149
Br81	Br	0.345109	-0.298485	-0.263098
H82	H	0.829595	-0.539168	-0.782713
H83	H	1.045089	-1.090285	-0.259520
Br84	Br	1.006572	-0.782739	-0.298226
Br85	Br	0.498930	-0.570806	-0.502120
Br86	Br	1.041541	-0.298559	-0.770763
H87	H	0.801310	-1.090326	-0.502920
Br88	Br	0.749495	-0.974603	-0.554619
H89	H	1.013995	-0.329738	-1.111378
