data_functionalizedCrystal
_audit_creation_method	'MofGen! by Chris Wilmer'
_symmetry_space_group_name_H-M	'P1'
_symmetry_Int_Tables_number	1
_symmetry_cell_setting	triclinic
loop_
_symmetry_equiv_pos_as_xyz
  x,y,z
_cell_length_a	16.959455
_cell_length_b	16.959453
_cell_length_c	19.077174
_cell_angle_alpha	92.272048
_cell_angle_beta	87.685273
_cell_angle_gamma	90.019416
loop_
_atom_site_label
_atom_site_type_symbol
_atom_site_fract_x
_atom_site_fract_y
_atom_site_fract_z
Zn1	Zn	1.226343	-0.332660	-0.397939
Zn2	Zn	1.726343	0.167340	0.102061
Zn3	Zn	1.220954	-0.459534	-0.280243
Zn4	Zn	1.720954	0.040466	0.219757
Zn5	Zn	1.088860	-0.327373	-0.280258
Zn6	Zn	1.588860	0.172627	0.219742
Zn7	Zn	1.094134	-0.464798	-0.397901
Zn8	Zn	1.594134	0.035202	0.102099
O9	O	1.157573	-0.396091	-0.339085
O10	O	1.657573	0.103909	0.160915
O11	O	1.336239	-0.349500	-0.382336
O12	O	1.836239	0.150500	0.117664
O13	O	1.198969	-0.437587	-0.181755
O14	O	1.698969	0.062413	0.318245
O15	O	1.107146	-0.217464	-0.295891
O16	O	1.607146	0.282536	0.204109
O17	O	1.332280	-0.442714	-0.295865
O18	O	1.832280	0.057286	0.204135
O19	O	1.208153	-0.221349	-0.382351
O20	O	1.708153	0.278651	0.117649
O21	O	1.101920	-0.340489	-0.181766
O22	O	1.601920	0.159511	0.318234
O23	O	0.978949	-0.345593	-0.295854
O24	O	1.478949	0.154407	0.204146
O25	O	1.116134	-0.451685	-0.496396
O26	O	1.616134	0.048315	0.003604
O27	O	0.982823	-0.446558	-0.382286
O28	O	1.482823	0.053442	0.117714
O29	O	1.213267	-0.354604	-0.496424
O30	O	1.713267	0.145396	0.003576
O31	O	1.204083	-0.570842	-0.295829
O32	O	1.704083	-0.070842	0.204171
O33	O	1.110909	-0.574709	-0.382271
O34	O	1.610909	-0.074709	0.117729
C35	C	0.952206	-0.396073	-0.339068
C36	C	1.452206	0.103927	0.160932
C37	C	0.864350	-0.396085	-0.339077
C38	C	1.364350	0.103915	0.160923
C39	C	0.821010	-0.444543	-0.293992
C40	C	1.321010	0.055457	0.206008
C41	C	0.825136	-0.347635	-0.384168
C42	C	1.325136	0.152365	0.115832
C43	C	0.742591	-0.347641	-0.384177
C44	C	1.242591	0.152359	0.115823
C45	C	0.699251	-0.396098	-0.339091
C46	C	1.199251	0.103902	0.160909
C47	C	0.738456	-0.444549	-0.293998
C48	C	1.238456	0.055451	0.206002
C49	C	0.703379	-0.299186	-0.429264
C50	C	1.203379	0.200814	0.070736
C51	C	0.620828	-0.299190	-0.429274
C52	C	1.120828	0.200810	0.070726
C53	C	0.577487	-0.347652	-0.384192
C54	C	1.077487	0.152348	0.115808
C55	C	0.616697	-0.396105	-0.339097
C56	C	1.116697	0.103895	0.160903
C57	C	0.573357	-0.444562	-0.294012
C58	C	1.073357	0.055438	0.205988
C59	C	0.612567	-0.493020	-0.248920
C60	C	1.112567	0.006980	0.251080
C61	C	0.695115	-0.493011	-0.248915
C62	C	1.195115	0.006989	0.251085
C63	C	0.494939	-0.347661	-0.384196
C64	C	0.994939	0.152339	0.115804
C65	C	0.490804	-0.444568	-0.294017
C66	C	0.990804	0.055432	0.205983
C67	C	1.157506	-0.601456	-0.339060
C68	C	1.657506	-0.101456	0.160940
C69	C	1.157550	-0.689314	-0.339072
C70	C	1.657550	-0.189314	0.160928
C71	C	1.210236	-1.062758	-0.384190
C72	C	1.710236	-0.562758	0.115810
C73	C	1.105135	-1.058826	-0.294086
C74	C	1.605135	-0.558826	0.205914
C75	C	1.105105	-0.976280	-0.294069
C76	C	1.605105	-0.476280	0.205931
C77	C	1.157640	-0.936968	-0.339115
C78	C	1.657640	-0.436968	0.160885
C79	C	1.210206	-0.980204	-0.384177
C80	C	1.710206	-0.480204	0.115823
C81	C	1.052535	-0.933039	-0.249014
C82	C	1.552535	-0.433039	0.250986
C83	C	1.052502	-0.850487	-0.248996
C84	C	1.552502	-0.350487	0.251004
C85	C	1.105042	-0.811174	-0.294039
C86	C	1.605042	-0.311174	0.205961
C87	C	1.157610	-0.854414	-0.339102
C88	C	1.657610	-0.354414	0.160898
C89	C	1.210146	-0.815103	-0.384147
C90	C	1.710146	-0.315103	0.115853
C91	C	1.262719	-0.858342	-0.429207
C92	C	1.762719	-0.358342	0.070793
C93	C	1.262746	-0.940891	-0.429219
C94	C	1.762746	-0.440891	0.070781
C95	C	1.105015	-0.728625	-0.294027
C96	C	1.605015	-0.228625	0.205973
C97	C	1.210116	-0.732549	-0.384134
C98	C	1.710116	-0.232549	0.115866
C99	C	1.363742	-0.396110	-0.339103
C100	C	1.863742	0.103890	0.160897
C101	C	1.451599	-0.396118	-0.339111
C102	C	1.951599	0.103882	0.160889
C103	C	1.165890	-0.404321	-0.522661
C104	C	1.665890	0.095679	-0.022661
C105	C	1.169435	-0.407828	-0.600891
C106	C	1.669435	0.092172	-0.100891
C107	C	1.157662	-0.189925	-0.339127
C108	C	1.657662	0.310075	0.160873
C109	C	1.157701	-0.102069	-0.339144
C110	C	1.657701	0.397931	0.160856
C111	C	1.120574	-0.358923	-0.637648
C112	C	1.620574	0.141077	-0.137648
C113	C	1.123901	-0.362225	-0.711153
C114	C	1.623901	0.137775	-0.211153
C115	C	1.176094	-0.414429	-0.747898
C116	C	1.676094	0.085571	-0.247898
C117	C	1.224956	-0.463339	-0.711136
C118	C	1.724956	0.036661	-0.211136
C119	C	1.221624	-0.460041	-0.637633
C120	C	1.721624	0.039959	-0.137633
C121	C	1.191473	-0.429718	-0.967729
C122	C	1.691473	0.070282	-0.467729
C123	C	1.194803	-0.433012	-1.041238
C124	C	1.694803	0.066988	-0.541238
C125	C	1.093746	-0.331898	-1.041249
C126	C	1.593746	0.168102	-0.541249
C127	C	1.090422	-0.328601	-0.967745
C128	C	1.590422	0.171399	-0.467745
C129	C	1.139282	-0.377514	-0.930988
C130	C	1.639282	0.122486	-0.430988
N131	N	1.179498	-0.417803	-0.823032
N132	N	1.679498	0.082197	-0.323032
N133	N	1.135873	-0.374143	-0.855856
N134	N	1.635873	0.125857	-0.355856
C135	C	1.149333	-0.387836	-0.156224
C136	C	1.649333	0.112164	0.343776
C137	C	1.145942	-0.384106	-0.077995
C138	C	1.645942	0.115894	0.422005
H139	H	1.252900	-0.700546	-0.420813
H140	H	1.752900	-0.200546	0.079187
C141	C	1.245228	-0.483509	-0.927306
C142	C	1.745228	0.016491	-0.427306
H143	H	1.276796	-0.515062	-0.959720
H144	H	1.776796	-0.015062	-0.459720
H145	H	1.213686	-0.516664	-0.898620
H146	H	1.713686	-0.016664	-0.398620
H147	H	1.278384	-0.451980	-0.898646
H148	H	1.778384	0.048020	-0.398646
C149	C	0.451812	-0.294368	-0.433793
C150	C	0.951812	0.205632	0.066207
H151	H	0.489447	-0.265510	-0.460645
H152	H	0.989447	0.234490	0.039355
H153	H	0.418391	-0.258683	-0.406928
H154	H	0.918391	0.241317	0.093072
H155	H	0.421001	-0.326038	-0.464420
H156	H	0.921001	0.173962	0.035580
H157	H	1.062360	-1.090839	-0.257415
H158	H	1.562360	-0.590839	0.242585
C159	C	1.320494	-0.815098	-0.478766
C160	C	1.820494	-0.315098	0.021234
H161	H	1.351803	-0.852667	-0.505610
H162	H	1.851803	-0.352667	-0.005610
H163	H	1.353727	-0.781667	-0.451874
H164	H	1.853727	-0.281667	0.048126
H165	H	1.291587	-0.784287	-0.509401
H166	H	1.791587	-0.284287	-0.009401
H167	H	1.267449	-0.505849	-0.741060
H168	H	1.767449	-0.005849	-0.241060
H169	H	1.053967	-0.292076	-1.071184
H170	H	1.553967	0.207924	-0.571184
C171	C	1.252223	-0.490432	-1.081657
C172	C	1.752223	0.009568	-0.581657
H173	H	1.280843	-0.519093	-1.049240
H174	H	1.780843	-0.019093	-0.549240
H175	H	1.287974	-0.461477	-1.110335
H176	H	1.787974	0.038523	-0.610335
H177	H	1.223271	-0.526157	-1.110326
H178	H	1.723271	-0.026157	-0.610326
H179	H	1.305547	-0.976103	-0.465905
H180	H	1.805547	-0.476103	0.034095
H181	H	1.062207	-0.693424	-0.257343
H182	H	1.562207	-0.193424	0.242657
H183	H	1.009761	-0.965052	-0.212342
H184	H	1.509761	-0.465052	0.287658
H185	H	1.253042	-1.097966	-0.420875
H186	H	1.753042	-0.597966	0.079125
H187	H	1.078078	-0.316409	-0.607735
H188	H	1.578078	0.183591	-0.107735
C189	C	0.564887	-0.546321	-0.199330
C190	C	1.064887	-0.046321	0.300670
H191	H	0.510110	-0.539383	-0.205796
H192	H	1.010110	-0.039383	0.294204
H193	H	0.576267	-0.532560	-0.152057
H194	H	1.076267	-0.032560	0.347943
H195	H	0.578860	-0.599908	-0.209556
H196	H	1.078860	-0.099908	0.290444
H197	H	1.261418	-0.499859	-0.607706
H198	H	1.761418	0.000141	-0.107706
H199	H	1.009696	-0.815287	-0.212306
H200	H	1.509696	-0.315287	0.287694
C201	C	1.070159	-0.308425	-0.751583
C202	C	1.570159	0.191575	-0.251583
H203	H	1.038606	-0.276854	-0.719171
H204	H	1.538606	0.223146	-0.219171
H205	H	1.037002	-0.339939	-0.780247
H206	H	1.537002	0.160061	-0.280247
H207	H	1.101719	-0.275274	-0.780266
H208	H	1.601719	0.224726	-0.280266
H209	H	0.727046	-0.532461	-0.212202
H210	H	1.227046	-0.032461	0.287798
H211	H	1.047919	-0.286093	-0.937831
H212	H	1.547919	0.213907	-0.437831
H213	H	0.455522	-0.484032	-0.257306
H214	H	0.955522	0.015968	0.242694
C215	C	0.864131	-0.497848	-0.244398
C216	C	1.364131	0.002152	0.255602
H217	H	0.826494	-0.526712	-0.217553
H218	H	1.326494	-0.026712	0.282447
H219	H	0.894954	-0.466194	-0.213774
H220	H	1.394954	0.033806	0.286226
H221	H	0.897540	-0.533540	-0.271276
H222	H	1.397540	-0.033540	0.228724
C223	C	0.872804	-0.294336	-0.433759
C224	C	1.372804	0.205664	0.066241
H225	H	0.837630	-0.265479	-0.460613
H226	H	1.337630	0.234521	0.039387
H227	H	0.906394	-0.325994	-0.464374
H228	H	1.406394	0.174006	0.035626
H229	H	0.903789	-0.258638	-0.406882
H230	H	1.403789	0.241362	0.093118
C231	C	0.751048	-0.245889	-0.478856
C232	C	1.251048	0.254111	0.021144
H233	H	0.715876	-0.217027	-0.505707
H234	H	1.215876	0.282973	-0.005707
H235	H	0.784633	-0.277550	-0.509473
H236	H	1.284633	0.222450	-0.009473
H237	H	0.782040	-0.210196	-0.451980
H238	H	1.282040	0.289804	0.048020
C239	C	0.577706	-0.245897	-0.478878
C240	C	1.077706	0.254103	0.021122
H241	H	0.615341	-0.217041	-0.505731
H242	H	1.115341	0.282959	-0.005731
H243	H	0.544285	-0.210210	-0.452015
H244	H	1.044285	0.289790	0.047985
H245	H	0.546895	-0.277569	-0.509504
H246	H	1.046895	0.222431	-0.009504
