data_functionalizedCrystal
_audit_creation_method	'MofGen! by Chris Wilmer'
_symmetry_space_group_name_H-M	'P1'
_symmetry_Int_Tables_number	1
_symmetry_cell_setting	triclinic
loop_
_symmetry_equiv_pos_as_xyz
  x,y,z
_cell_length_a	10.686285
_cell_length_b	16.120530
_cell_length_c	10.685314
_cell_angle_alpha	91.675659
_cell_angle_beta	90.303498
_cell_angle_gamma	82.519283
loop_
_atom_site_label
_atom_site_type_symbol
_atom_site_fract_x
_atom_site_fract_y
_atom_site_fract_z
Zn1	Zn	-0.658092	1.269519	-0.760424
Zn2	Zn	-0.853577	1.290724	-0.536090
Zn3	Zn	-0.631421	1.139829	-0.541541
Zn4	Zn	-0.857274	1.141472	-0.735302
O5	O	-0.750091	1.210386	-0.643339
O6	O	-0.693638	1.389070	-0.738897
O7	O	-0.811398	1.278895	-0.361839
O8	O	-0.458628	1.147471	-0.583372
O9	O	-0.837260	1.404649	-0.574080
O10	O	-0.478223	1.242753	-0.744183
O11	O	-0.648182	1.168033	-0.365844
O12	O	-0.651767	1.023309	-0.559012
O13	O	-0.843561	1.150271	-0.913608
O14	O	-0.817700	1.024516	-0.701367
O15	O	-0.697223	1.244346	-0.932065
O16	O	-1.030399	1.280488	-0.549721
O17	O	-1.033115	1.170833	-0.696081
C18	C	-1.077481	1.228161	-0.619612
C19	C	-1.217549	1.235840	-0.609509
C20	C	-0.732241	0.993644	-0.628056
C21	C	-0.724637	0.900921	-0.621545
C22	C	-0.710726	0.731153	-0.609670
C23	C	-0.789556	0.690461	-0.677093
C24	C	-0.781815	0.595996	-0.670486
C25	C	-0.718465	0.825626	-0.616276
C26	C	-0.421426	1.192563	-0.667188
C27	C	-0.281369	1.184968	-0.677351
C28	C	-0.773780	1.195126	-0.969474
C29	C	-0.783874	1.188623	-1.108453
C30	C	-0.768012	1.427975	-0.658683
C31	C	-0.775649	1.520698	-0.665222
C32	C	-0.726408	1.225630	-0.318483
C33	C	-0.715971	1.232275	-0.179542
H34	H	-1.270072	1.285265	-0.543682
H35	H	-0.650097	1.274616	-1.134076
H36	H	-0.862856	0.726568	-0.739778
N37	N	-1.215480	1.122975	-0.759929
N38	N	-1.150148	1.144575	-0.846952
H39	H	-1.103605	1.100793	-0.905276
H40	H	-0.637431	0.695047	-0.546991
H41	H	-0.849730	1.146275	-1.153914
