data_functionalizedCrystal
_audit_creation_method	'MofGen! by Chris Wilmer'
_symmetry_space_group_name_H-M	'P1'
_symmetry_Int_Tables_number	1
_symmetry_cell_setting	triclinic
loop_
_symmetry_equiv_pos_as_xyz
  x,y,z
_cell_length_a	11.792254
_cell_length_b	23.532357
_cell_length_c	10.268362
_cell_angle_alpha	89.989189
_cell_angle_beta	89.995475
_cell_angle_gamma	83.513444
loop_
_atom_site_label
_atom_site_type_symbol
_atom_site_fract_x
_atom_site_fract_y
_atom_site_fract_z
O1	O	1.505034	0.078091	-0.108316
O2	O	1.174503	0.086128	-0.108321
O3	O	1.349765	-0.000765	-0.108292
O4	O	1.329772	0.164984	-0.108346
O5	O	1.349750	-0.000768	0.108309
O6	O	1.174488	0.086124	0.108280
O7	O	1.505019	0.078087	0.108284
Cu8	Cu	1.339752	0.082106	0.128059
Cu9	Cu	1.339770	0.082110	-0.128096
O10	O	1.329757	0.164980	0.108255
C11	C	1.132217	0.085620	-0.000021
C12	C	1.006240	0.084105	-0.000021
C13	C	0.903933	0.082873	-0.000027
C14	C	0.775583	0.081334	-0.000027
C15	C	1.349258	-0.021986	0.000013
C16	C	1.347754	-0.085214	0.000025
C17	C	1.338323	-0.477279	-0.118115
C18	C	1.336894	-0.536687	-0.118122
O19	O	1.336123	-0.567406	-0.218535
N20	N	1.336177	-0.566404	-0.000055
C21	C	1.336878	-0.536710	0.118028
O22	O	1.336135	-0.567442	0.218453
C23	C	1.338299	-0.477303	0.118034
C24	C	1.339027	-0.447589	-0.000041
C25	C	1.339050	-0.447565	-0.236180
C26	C	1.340482	-0.388162	-0.236172
C27	C	1.341186	-0.358472	-0.118099
C28	C	1.340459	-0.388185	-0.000033
C29	C	1.338991	-0.447609	0.236115
C30	C	1.340412	-0.388197	0.236111
C31	C	1.341140	-0.358484	0.118036
C32	C	1.342594	-0.299092	0.118048
N33	N	1.343311	-0.269374	-0.000019
C34	C	1.342607	-0.299064	-0.118093
C35	C	1.333891	-0.661469	0.118006
C36	C	1.332478	-0.720876	0.118001
C37	C	1.332492	-0.720849	-0.118149
C38	C	1.333914	-0.661442	-0.118143
C39	C	1.334608	-0.631752	-0.000061
C40	C	1.345614	-0.174312	-0.118067
C41	C	1.347050	-0.114904	-0.118049
C42	C	1.347030	-0.114936	0.118101
C43	C	1.345600	-0.174339	0.118083
C44	C	1.344888	-0.204026	-0.000011
O45	O	1.343361	-0.268334	0.218410
O46	O	1.343334	-0.268324	-0.218501
C47	C	1.547305	0.078596	-0.000019
C48	C	1.673282	0.080111	-0.000027
C49	C	1.330264	0.186202	-0.000052
C50	C	1.331768	0.249429	-0.000073
N51	N	1.339748	0.082102	0.308225
N52	N	1.339783	0.082109	-0.308262
C53	C	1.339764	0.082109	0.573896
C54	C	1.339751	0.082107	0.426058
H55	H	1.347646	-0.090714	-0.214204
O56	O	1.347503	-0.086046	0.232752
C57	C	1.250032	-0.045526	0.239762
H58	H	1.180910	-0.059135	0.172752
H59	H	1.217026	-0.042785	0.344182
H60	H	1.273339	-0.001893	0.208021
H61	H	1.340960	-0.364026	0.332270
O62	O	1.344956	-0.203058	-0.232899
C63	C	1.345864	-0.164081	-0.337091
H64	H	1.382835	-0.123992	-0.302462
H65	H	1.400544	-0.184681	-0.419692
H66	H	1.254952	-0.152052	-0.373372
O67	O	1.344853	-0.203116	0.232895
C68	C	1.345818	-0.164171	0.337109
H69	H	1.310914	-0.119571	0.302495
H70	H	1.290287	-0.177892	0.419686
H71	H	1.437031	-0.163559	0.373419
O72	O	1.341266	-0.359253	-0.350801
C73	C	1.440317	-0.330980	-0.357951
H74	H	1.508706	-0.353187	-0.291090
H75	H	1.473206	-0.332306	-0.462432
H76	H	1.419134	-0.284586	-0.326116
H77	H	1.338473	-0.471732	-0.332335
H78	H	1.334505	-0.637253	-0.214290
O79	O	1.331970	-0.749778	0.232661
C80	C	1.429424	-0.790307	0.239732
H81	H	1.498583	-0.776702	0.172746
H82	H	1.462381	-0.793057	0.344168
H83	H	1.406112	-0.833935	0.208001
O84	O	1.331853	-0.749610	-0.232967
C85	C	1.332764	-0.710648	-0.337188
H86	H	1.369716	-0.670550	-0.302583
H87	H	1.387461	-0.731256	-0.419765
H88	H	1.241855	-0.698632	-0.373491
H89	H	1.334460	-0.637300	0.214168
H90	H	1.338400	-0.471792	0.332265
