data_functionalizedCrystal
_audit_creation_method	'MofGen! by Chris Wilmer'
_symmetry_space_group_name_H-M	'P1'
_symmetry_Int_Tables_number	1
_symmetry_cell_setting	triclinic
loop_
_symmetry_equiv_pos_as_xyz
  x,y,z
_cell_length_a	17.038278
_cell_length_b	16.098538
_cell_length_c	17.038272
_cell_angle_alpha	87.079695
_cell_angle_beta	88.888972
_cell_angle_gamma	87.064023
loop_
_atom_site_label
_atom_site_type_symbol
_atom_site_fract_x
_atom_site_fract_y
_atom_site_fract_z
O1	O	1.052037	-0.069264	-0.167251
O2	O	1.552037	0.430736	0.332749
O3	O	0.824226	-0.069265	-0.164545
O4	O	1.324226	0.430735	0.335455
O5	O	0.936777	-0.069258	-0.051993
O6	O	1.436777	0.430742	0.448007
O7	O	0.939486	-0.069271	-0.279803
O8	O	1.439486	0.430729	0.220197
O9	O	0.930201	0.069255	-0.058540
O10	O	1.430201	0.569255	0.441460
O11	O	0.817649	0.069248	-0.171092
O12	O	1.317649	0.569248	0.328908
O13	O	1.045461	0.069248	-0.173798
O14	O	1.545461	0.569248	0.326202
Zn15	Zn	0.930511	0.091240	-0.173485
Zn16	Zn	1.430511	0.591240	0.326515
Zn17	Zn	0.939176	-0.091256	-0.164859
Zn18	Zn	1.439176	0.408744	0.335141
O19	O	0.932909	0.069241	-0.286351
O20	O	1.432909	0.569241	0.213649
C21	C	0.791645	-0.000008	-0.165356
C22	C	1.291645	0.499992	0.334644
C23	C	0.704361	-0.000008	-0.158009
C24	C	1.204361	0.499992	0.341991
C25	C	0.210936	-0.000009	-0.112871
C26	C	0.710936	0.499991	0.387129
C27	C	0.292947	-0.000004	-0.119781
C28	C	0.792947	0.499996	0.380219
C29	C	0.329347	-0.000012	-0.194154
C30	C	0.829347	0.499988	0.305846
C31	C	0.283731	-0.000016	-0.261622
C32	C	0.783731	0.499984	0.238378
C33	C	0.201721	-0.000015	-0.254712
C34	C	0.701721	0.499985	0.245288
C35	C	0.576735	-0.000011	-0.218567
C36	C	1.076735	0.499989	0.281433
C37	C	0.658751	-0.000015	-0.225472
C38	C	1.158751	0.499985	0.274528
C39	C	0.667962	-0.000001	-0.083630
C40	C	1.167962	0.499999	0.416370
C41	C	0.585950	-0.000005	-0.076726
C42	C	1.085950	0.499995	0.423274
C43	C	0.540340	-0.000005	-0.144194
C44	C	1.040340	0.499995	0.355806
C45	C	0.413176	-0.000010	-0.201219
C46	C	0.913176	0.499990	0.298781
C47	C	0.456513	-0.000001	-0.137129
C48	C	0.956513	0.499999	0.362871
C49	C	0.931026	-0.000002	-0.025973
C50	C	1.431026	0.499998	0.474027
C51	C	0.923678	-0.000002	0.061310
C52	C	1.423678	0.499998	0.561310
C53	C	1.078042	-0.000010	-0.172987
C54	C	1.578042	0.499990	0.327013
C55	C	1.165326	-0.000015	-0.180334
C56	C	1.665326	0.499985	0.319666
N57	N	0.924603	0.215789	-0.179372
N58	N	1.424603	0.715789	0.320628
N59	N	0.945089	-0.215805	-0.158966
N60	N	1.445089	0.284195	0.341034
C61	C	0.972394	0.259377	-0.131619
C62	C	1.472394	0.759377	0.368381
C63	C	0.968269	0.346565	-0.135745
C64	C	1.468269	0.846565	0.364255
C65	C	0.916356	0.390165	-0.187629
C66	C	1.416356	0.890165	0.312371
C67	C	0.868560	0.346571	-0.235383
C68	C	1.368560	0.846571	0.264617
C69	C	0.872681	0.259383	-0.231252
C70	C	1.372681	0.759383	0.268748
C71	C	0.901414	0.653414	-0.202589
C72	C	1.401414	1.153414	0.297411
C73	C	0.897298	0.740607	-0.206718
C74	C	1.397298	1.240607	0.293282
C75	C	0.997007	0.740596	-0.107079
C76	C	1.497007	1.240596	0.392921
C77	C	1.001127	0.653407	-0.102956
C78	C	1.501127	1.153407	0.397044
C79	C	0.953328	0.609821	-0.150708
C80	C	1.453328	1.109821	0.349292
C81	C	0.912141	0.479286	-0.191849
C82	C	1.412141	0.979286	0.308151
C83	C	0.957540	0.520701	-0.146483
C84	C	1.457540	1.020701	0.353517
C85	C	0.938661	-0.000017	-0.312370
C86	C	1.438661	0.499983	0.187630
C87	C	0.946009	-0.000022	-0.399653
C88	C	1.446009	0.499978	0.100347
C89	C	0.991142	-0.000001	0.106920
C90	C	1.491142	0.499999	0.606920
C91	C	0.984233	-0.000009	0.188932
C92	C	1.484233	0.499991	0.688932
C93	C	0.909860	-0.000012	0.225333
C94	C	1.409860	0.499988	0.725333
C95	C	0.842392	-0.000015	0.179717
C96	C	1.342392	0.499985	0.679717
C97	C	0.849301	-0.000013	0.097706
C98	C	1.349301	0.499987	0.597706
C99	C	0.885450	-0.000023	0.472721
C100	C	1.385450	0.499977	0.972721
C101	C	0.878545	-0.000023	0.554737
C102	C	1.378545	0.499977	1.054737
C103	C	1.020388	-0.000018	0.563947
C104	C	1.520388	0.499982	1.063947
C105	C	1.027291	-0.000011	0.481934
C106	C	1.527291	0.499989	0.981934
C107	C	0.959822	-0.000019	0.436326
C108	C	1.459822	0.499981	0.936326
C109	C	0.902796	-0.000017	0.309162
C110	C	1.402796	0.499983	0.809162
C111	C	0.966887	-0.000019	0.352498
C112	C	1.466887	0.499981	0.852498
H113	H	0.426872	-0.000004	-0.076574
H114	H	0.926872	0.499996	0.423426
H115	H	0.164586	-0.000018	-0.309648
H116	H	0.664586	0.499982	0.190352
H117	H	0.442823	-0.000019	-0.261774
H118	H	0.942823	0.499981	0.238226
H119	H	0.817978	-0.000012	0.584371
H120	H	1.317978	0.499988	1.084371
C121	C	0.986917	0.161390	-0.021207
C122	C	1.486917	0.661390	0.478793
C123	C	1.029436	0.211477	-0.074550
C124	C	1.529436	0.711477	0.425450
H125	H	1.022127	0.131824	0.014035
H126	H	1.522127	0.631824	0.514035
H127	H	0.950730	0.195432	0.007583
H128	H	1.450730	0.695432	0.507583
H129	H	0.959070	0.122935	-0.049063
H130	H	1.459070	0.622935	0.450937
H131	H	1.057279	0.249936	-0.046694
H132	H	1.557279	0.749936	0.453306
H133	H	1.065637	0.177432	-0.103342
H134	H	1.565637	0.677432	0.396658
C135	C	1.067262	0.337797	-0.036866
C136	C	1.567262	0.837797	0.463134
C137	C	1.020816	0.394477	-0.083267
C138	C	1.520816	0.894477	0.416733
H139	H	1.099708	0.367377	-0.004473
H140	H	1.599708	0.867377	0.495527
H141	H	1.034308	0.303810	-0.004805
H142	H	1.534308	0.803810	0.495195
H143	H	1.099278	0.303772	-0.069855
H144	H	1.599278	0.803772	0.430145
H145	H	0.988795	0.428498	-0.050278
H146	H	1.488795	0.928498	0.449722
H147	H	1.053774	0.428478	-0.115332
H148	H	1.553774	0.928478	0.384668
C149	C	1.062142	-0.071221	0.289850
C150	C	1.562142	0.428779	0.789850
C151	C	1.058395	-0.000011	0.239062
C152	C	1.558395	0.499989	0.739062
H153	H	1.107933	-0.071225	0.320793
H154	H	1.607933	0.428775	0.820793
H155	H	1.016869	-0.071219	0.323267
H156	H	1.516869	0.428781	0.823267
H157	H	1.064179	-0.119514	0.259933
H158	H	1.564179	0.380486	0.759933
H159	H	1.056352	0.048282	0.268980
H160	H	1.556352	0.548282	0.768980
H161	H	1.103680	-0.000005	0.205642
H162	H	1.603680	0.499995	0.705642
C163	C	0.773718	0.268146	-0.330163
C164	C	1.273718	0.768146	0.169837
C165	C	0.820152	0.211468	-0.283747
C166	C	1.320152	0.711468	0.216253
H167	H	0.741291	0.238564	-0.362573
H168	H	1.241291	0.738564	0.137427
H169	H	0.741691	0.302164	-0.297189
H170	H	1.241691	0.802164	0.202811
H171	H	0.806687	0.302141	-0.362214
H172	H	1.306687	0.802141	0.137786
H173	H	0.787183	0.177478	-0.251691
H174	H	1.287183	0.677478	0.248309
H175	H	0.852182	0.177437	-0.316724
H176	H	1.352182	0.677437	0.183276
H177	H	1.043399	0.617910	-0.060709
H178	H	1.543399	1.117910	0.439291
H179	H	0.862496	0.617933	-0.241472
H180	H	1.362496	1.117933	0.258528
H181	H	0.794365	-0.000014	0.060572
H182	H	1.294365	0.499986	0.560572
H183	H	0.855022	0.776101	-0.248971
H184	H	1.355022	1.276101	0.251029
C185	C	1.002304	0.838654	-0.005987
C186	C	1.502304	1.338654	0.494013
C187	C	1.049536	0.788509	-0.054585
C188	C	1.549536	1.288509	0.445415
H189	H	1.034734	0.868230	0.026427
H190	H	1.534734	1.368230	0.526427
H191	H	0.970807	0.877093	-0.037480
H192	H	1.470807	1.377093	0.462520
H193	H	0.969346	0.804644	0.026061
H194	H	1.469346	1.304644	0.526061
H195	H	1.082490	0.822520	-0.086637
H196	H	1.582490	1.322520	0.413363
H197	H	1.081047	0.750066	-0.023088
H198	H	1.581047	1.250066	0.476912
H199	H	0.826287	0.382074	-0.277625
H200	H	1.326287	0.882074	0.222375
H201	H	0.330080	0.000005	-0.064845
H202	H	0.830080	0.500005	0.435155
C203	C	0.127440	-0.071207	-0.019439
C204	C	0.627440	0.428793	0.480561
C205	C	0.170929	-0.000003	-0.031116
C206	C	0.670929	0.499997	0.468884
H207	H	0.102749	-0.071202	0.031036
H208	H	0.602749	0.428798	0.531036
H209	H	0.088540	-0.071206	-0.058623
H210	H	0.588540	0.428794	0.441377
H211	H	0.161544	-0.119504	-0.022800
H212	H	0.661544	0.380496	0.477200
H213	H	0.136825	0.048295	-0.027761
H214	H	0.636825	0.548295	0.472239
H215	H	0.209834	0.000004	0.008078
H216	H	0.709834	0.500004	0.508078
C217	C	0.475791	0.071180	-0.296461
C218	C	0.975791	0.571180	0.203539
C219	C	0.526606	-0.000024	-0.292725
C220	C	1.026606	0.499976	0.207275
H221	H	0.444844	0.071170	-0.342248
H222	H	0.944844	0.571170	0.157752
H223	H	0.442379	0.071183	-0.251185
H224	H	0.942379	0.571183	0.248815
H225	H	0.505690	0.119477	-0.298499
H226	H	1.005690	0.619477	0.201501
H227	H	0.496706	-0.048321	-0.290681
H228	H	0.996706	0.451679	0.209319
H229	H	0.560021	-0.000035	-0.338013
H230	H	1.060021	0.499965	0.161987
H231	H	0.781835	-0.000023	0.209361
H232	H	1.281835	0.499977	0.709361
C233	C	0.297750	0.071178	-0.388016
C234	C	0.797750	0.571178	0.111984
C235	C	0.323740	-0.000023	-0.343376
C236	C	0.823740	0.499977	0.156624
H237	H	0.322453	0.071173	-0.438486
H238	H	0.822453	0.571173	0.061514
H239	H	0.242387	0.071173	-0.393553
H240	H	0.742387	0.571173	0.106447
H241	H	0.310798	0.119477	-0.362286
H242	H	0.810798	0.619477	0.137714
H243	H	0.310687	-0.048323	-0.369103
H244	H	0.810687	0.451677	0.130897
H245	H	0.379115	-0.000026	-0.337842
H246	H	0.879115	0.499974	0.162158
C247	C	0.801773	0.577370	-0.206365
C248	C	1.301773	1.077370	0.293635
C249	C	0.855085	0.527219	-0.248882
C250	C	1.355085	1.027219	0.251118
H251	H	0.766553	0.606968	-0.241575
H252	H	1.266553	1.106968	0.258425
H253	H	0.772955	0.543368	-0.170183
H254	H	1.272955	1.043368	0.329817
H255	H	0.829657	0.615797	-0.178511
H256	H	1.329657	1.115797	0.321489
H257	H	0.827201	0.488788	-0.276732
H258	H	1.327201	0.988788	0.223268
H259	H	0.883905	0.561224	-0.285077
H260	H	1.383905	1.061224	0.214923
H261	H	1.087853	-0.000008	0.452303
H262	H	1.587853	0.499992	0.952303
H263	H	0.999805	0.485200	-0.104236
H264	H	1.499805	0.985200	0.395764
H265	H	0.556319	0.000002	-0.016164
H266	H	1.056319	0.500002	0.483836
H267	H	1.051704	0.000006	0.077289
H268	H	1.551704	0.500006	0.577289
H269	H	0.688385	-0.000009	-0.286039
H270	H	1.188385	0.499991	0.213961
H271	H	0.705105	-0.000000	-0.028701
H272	H	1.205105	0.500000	0.471299
C273	C	0.807554	0.071174	0.371788
C274	C	1.307554	0.571174	0.871788
C275	C	0.811293	-0.000027	0.422589
C276	C	1.311293	0.499973	0.922589
H277	H	0.761773	0.071167	0.340832
H278	H	1.261773	0.571167	0.840832
H279	H	0.805509	0.119468	0.401691
H280	H	1.305509	0.619468	0.901691
H281	H	0.852841	0.071165	0.338377
H282	H	1.352841	0.571165	0.838377
H283	H	0.766009	-0.000014	0.456003
H284	H	1.266009	0.499986	0.956003
H285	H	0.813332	-0.048333	0.392683
H286	H	1.313332	0.451667	0.892683
C287	C	1.098286	-0.071229	0.664873
C288	C	1.598286	0.428771	1.164873
C289	C	1.094547	-0.000021	0.614081
C290	C	1.594547	0.499979	1.114081
H291	H	1.144075	-0.071234	0.695819
H292	H	1.644075	0.428766	1.195819
H293	H	1.053010	-0.071222	0.698285
H294	H	1.553010	0.428778	1.198285
H295	H	1.100324	-0.119523	0.634957
H296	H	1.600324	0.380477	1.134957
H297	H	1.092504	0.048274	0.643996
H298	H	1.592504	0.548274	1.143996
H299	H	1.139835	-0.000020	0.580664
H300	H	1.639835	0.499980	1.080664
H301	H	1.027442	-0.000035	0.322858
H302	H	1.527442	0.499965	0.822858
H303	H	0.842241	-0.000018	0.338808
H304	H	1.342241	0.499982	0.838808
