data_functionalizedCrystal
_audit_creation_method	'MofGen! by Chris Wilmer'
_symmetry_space_group_name_H-M	'P1'
_symmetry_Int_Tables_number	1
_symmetry_cell_setting	triclinic
loop_
_symmetry_equiv_pos_as_xyz
  x,y,z
_cell_length_a	21.295417
_cell_length_b	21.295418
_cell_length_c	16.625539
_cell_angle_alpha	89.963731
_cell_angle_beta	89.968491
_cell_angle_gamma	90.046319
loop_
_atom_site_label
_atom_site_type_symbol
_atom_site_fract_x
_atom_site_fract_y
_atom_site_fract_z
Zn1	Zn	-0.250354	0.962309	-0.456294
Zn2	Zn	-0.355624	0.962226	-0.321450
Zn3	Zn	-0.250402	0.857046	-0.321430
Zn4	Zn	-0.355618	0.857002	-0.456194
O5	O	-0.302999	0.909646	-0.388842
O6	O	-0.264301	1.050388	-0.438457
O7	O	-0.341688	0.948257	-0.208615
O8	O	-0.162306	0.871063	-0.339353
O9	O	-0.341642	1.050326	-0.339387
O10	O	-0.162271	0.948400	-0.438438
O11	O	-0.264382	0.870982	-0.208600
O12	O	-0.264376	0.768951	-0.339256
O13	O	-0.341632	0.870988	-0.569040
O14	O	-0.341679	0.768918	-0.438267
O15	O	-0.264295	0.948357	-0.569114
O16	O	-0.443713	0.948214	-0.339290
O17	O	-0.443708	0.870906	-0.438287
C18	C	-0.303033	0.746094	-0.388749
C19	C	-0.303062	0.676126	-0.388729
C20	C	-0.343366	0.643259	-0.440207
C21	C	-0.343351	0.577516	-0.440243
C22	C	-0.303037	0.544644	-0.388787
C23	C	-0.262725	0.577519	-0.337305
C24	C	-0.262737	0.643260	-0.337276
N25	N	-0.298120	0.441375	-0.318264
N26	N	-0.298112	0.378923	-0.318294
C27	C	-0.302997	0.346569	-0.388872
N28	N	-0.307903	0.379025	-0.459421
N29	N	-0.307914	0.441482	-0.459390
C30	C	-0.303019	0.473358	-0.388813
C31	C	-0.343287	0.242416	-0.440394
C32	C	-0.343267	0.176673	-0.440431
C33	C	-0.262645	0.176676	-0.337486
C34	C	-0.262661	0.242418	-0.337456
C35	C	-0.302986	0.275285	-0.388909
C36	C	-0.466551	0.909563	-0.388797
C37	C	-0.536519	0.909586	-0.388805
C38	C	-0.569367	0.949875	-0.337311
C39	C	-0.635110	0.949905	-0.337329
C40	C	-0.668002	0.909633	-0.388833
C41	C	-0.635146	0.869341	-0.440338
C42	C	-0.569405	0.869317	-0.440324
N43	N	-0.771283	0.854566	-0.394949
N44	N	-0.833734	0.854590	-0.394957
C45	C	-0.866076	0.909704	-0.388879
N46	N	-0.833608	0.964793	-0.382777
N47	N	-0.771151	0.964768	-0.382764
C48	C	-0.739287	0.909655	-0.388854
C49	C	-0.970210	0.950029	-0.337402
C50	C	-1.035953	0.950059	-0.337426
C51	C	-1.035988	0.869490	-0.440430
C52	C	-0.970246	0.869465	-0.440410
C53	C	-0.937361	0.909734	-0.388892
C54	C	-0.138809	0.909746	-0.388905
C55	C	-0.068841	0.909788	-0.388931
C56	C	-0.302958	0.909677	-0.599151
C57	C	-0.302940	0.909690	-0.688772
C58	C	-0.302967	1.073836	-0.388936
C59	C	-0.302953	1.143804	-0.388976
C60	C	-0.302926	0.909700	-0.761555
C61	C	-0.302903	0.909715	-0.852863
C62	C	-0.302881	0.909730	-0.925640
C63	C	-0.302858	0.909745	-1.016954
C64	C	-0.302995	0.909651	-0.179351
C65	C	-0.302836	0.909760	-0.089731
H66	H	-0.229914	0.670020	-0.295356
N67	N	-0.219158	0.141230	-0.281992
H68	H	-0.225264	0.094595	-0.289822
H69	H	-0.228898	0.152666	-0.224377
N70	N	-0.934730	0.993461	-0.281848
H71	H	-0.946216	0.983719	-0.224224
H72	H	-0.946120	1.038420	-0.294516
N73	N	-0.219186	0.277873	-0.281938
H74	H	-0.193642	0.247075	-0.249348
H75	H	-0.244770	0.305099	-0.244549
N76	N	-0.533977	0.825852	-0.495862
H77	H	-0.506756	0.796687	-0.463038
H78	H	-0.506683	0.851448	-0.533252
N79	N	-1.071451	0.826048	-0.495980
H80	H	-1.059966	0.835791	-0.553603
H81	H	-1.118072	0.832193	-0.488111
N82	N	-0.670623	0.825904	-0.495882
H83	H	-0.659240	0.780929	-0.483285
H84	H	-0.659129	0.835701	-0.553486
N85	N	-0.386776	0.277869	-0.495888
H86	H	-0.377055	0.266486	-0.553528
H87	H	-0.380652	0.324492	-0.487985
H88	H	-0.376172	0.550751	-0.482165
N89	N	-0.219251	0.542068	-0.281795
H90	H	-0.225364	0.495433	-0.289618
H91	H	-0.229001	0.553512	-0.224186
H92	H	-1.062697	0.982872	-0.295494
N93	N	-0.533898	0.993315	-0.281759
H94	H	-0.564687	1.018846	-0.249143
H95	H	-0.506574	1.022419	-0.314630
N96	N	-0.934810	0.826004	-0.495941
H97	H	-0.946206	0.835753	-0.553571
H98	H	-0.946325	0.781055	-0.483277
H99	H	-0.376087	0.149913	-0.482356
H100	H	-0.661860	0.982716	-0.295396
H101	H	-0.376201	0.670014	-0.482104
