data_functionalizedCrystal
_audit_creation_method	'MofGen! by Chris Wilmer'
_symmetry_space_group_name_H-M	'P1'
_symmetry_Int_Tables_number	1
_symmetry_cell_setting	triclinic
loop_
_symmetry_equiv_pos_as_xyz
  x,y,z
_cell_length_a	11.026607
_cell_length_b	12.837942
_cell_length_c	10.065875
_cell_angle_alpha	99.723749
_cell_angle_beta	79.302338
_cell_angle_gamma	101.707478
loop_
_atom_site_label
_atom_site_type_symbol
_atom_site_fract_x
_atom_site_fract_y
_atom_site_fract_z
O1	O	1.677813	0.431471	-0.113501
O2	O	1.318665	0.380952	-0.113502
O3	O	1.490274	0.253824	-0.113493
O4	O	1.506204	0.558600	-0.113509
O5	O	1.457565	0.278190	0.113494
O6	O	1.285956	0.405318	0.113485
O7	O	1.645104	0.455838	0.113486
Zn8	Zn	1.460337	0.434446	0.149525
Zn9	Zn	1.503433	0.402343	-0.149540
O10	O	1.473495	0.582966	0.113478
C11	C	1.256022	0.383815	-0.000008
C12	C	1.118096	0.356032	-0.000008
C13	C	1.053161	0.432745	-0.000013
C14	C	0.910607	0.404032	-0.000014
C15	C	1.468539	0.226382	0.000000
C16	C	1.452492	0.108310	-0.000002
C17	C	1.645414	-0.096651	-0.000030
C18	C	1.630342	-0.207590	-0.000032
C19	C	1.407280	-0.224509	-0.000019
C20	C	1.422351	-0.113570	-0.000017
C21	C	1.541422	-0.049645	-0.000020
C22	C	1.556491	0.061297	-0.000008
C23	C	1.333431	0.044375	-0.000004
C24	C	1.318359	-0.066563	-0.000007
C25	C	1.707748	0.452974	-0.000010
C26	C	1.845676	0.480756	-0.000019
C27	C	1.495231	0.610407	-0.000018
C28	C	1.511279	0.728478	-0.000025
N29	N	1.430934	0.456357	0.353629
N30	N	1.532844	0.380426	-0.353644
C31	C	1.493194	0.409958	0.421411
C32	C	1.470575	0.426831	0.578577
H33	H	1.068156	0.269094	-0.000039
H34	H	1.715025	-0.245858	-0.000045
O35	O	0.844473	0.288866	-0.000007
H36	H	0.742885	0.284385	-0.000016
O37	O	1.684916	0.130244	-0.000032
H38	H	1.722192	0.122928	0.092468
O39	O	1.377785	0.496008	0.655808
H40	H	1.374588	0.498414	0.767132
O41	O	1.278868	-0.293473	-0.000034
H42	H	1.209083	-0.242153	-0.000040
H43	H	1.360881	0.508568	0.411952
H44	H	1.221416	-0.118627	-0.000009
O45	O	1.221256	0.095070	0.000001
H46	H	1.251736	0.182952	-0.000005
H47	H	1.563237	0.357738	0.363091
H48	H	1.602892	0.328202	0.588039
H49	H	1.103105	0.519680	-0.000010
O50	O	1.773831	-0.027695	-0.000023
H51	H	1.799359	0.013332	-0.092533
H52	H	0.895613	0.567697	-0.000014
