data_functionalizedCrystal
_audit_creation_method	'MofGen! by Chris Wilmer'
_symmetry_space_group_name_H-M	'P1'
_symmetry_Int_Tables_number	1
_symmetry_cell_setting	triclinic
loop_
_symmetry_equiv_pos_as_xyz
  x,y,z
_cell_length_a	6.817900
_cell_length_b	9.514072
_cell_length_c	10.943624
_cell_angle_alpha	88.513180
_cell_angle_beta	108.838799
_cell_angle_gamma	118.843421
loop_
_atom_site_label
_atom_site_type_symbol
_atom_site_fract_x
_atom_site_fract_y
_atom_site_fract_z
V1	V	-4.173025	-0.222162	-0.403562
O2	O	-4.070428	0.010719	-0.394839
O3	O	-4.207528	-0.440552	-0.401803
O4	O	-4.150098	-0.218726	-0.579113
O5	O	-4.128256	-0.212643	-0.216302
V6	V	-4.642610	-0.194309	-0.381043
O7	O	-4.464858	-0.283260	-0.452961
O8	O	-4.800974	-0.133211	-0.331645
O9	O	-4.384900	0.024081	-0.382802
O10	O	-4.862603	-0.427190	-0.389766
O11	O	-4.804775	-0.203829	-0.568303
O12	O	-4.442331	-0.197745	-0.205492
C13	C	-4.071873	-0.493791	-0.395695
C14	C	-4.181540	-0.672327	-0.395427
C15	C	-3.998612	-0.210828	-0.621870
C16	C	-4.061699	-0.209463	-0.765390
C17	C	-3.904149	-0.200275	-0.842496
C18	C	-4.128826	-0.336665	-0.949107
C19	C	-3.949461	-0.070657	-0.914509
C20	C	-4.285620	-0.345982	-0.870125
C21	C	-4.106143	-0.079853	-0.835503
C22	C	-4.330967	-0.216283	-0.942085
C23	C	-4.183900	0.077311	-0.388907
C24	C	-4.053473	0.255846	-0.389183
C25	C	-4.257159	-0.205648	-0.162729
C26	C	-4.173308	-0.207005	-0.019207
H27	H	-3.859895	-0.669050	-0.383978
C28	C	-4.439809	-0.772309	-0.402567
C29	C	-4.590449	-0.758082	-0.518197
C30	C	-4.828372	-0.850145	-0.524809
H31	H	-4.482060	-0.883081	-0.401587
H32	H	-4.456774	-0.733612	-0.329597
H33	H	-4.573496	-0.796787	-0.591148
H34	H	-4.548275	-0.647331	-0.519202
H35	H	-4.845337	-0.811448	-0.451839
H36	H	-4.870598	-0.960912	-0.523825
H37	H	-4.930609	-0.840493	-0.603257
H38	H	-4.139079	-0.445235	-0.998550
H39	H	-3.723243	-0.193689	-0.799017
H40	H	-4.095805	0.028722	-0.786025
C41	C	-4.474036	-0.501436	-0.843384
C42	C	-4.366435	-0.587650	-0.775458
C43	C	-4.539922	-0.730872	-0.750815
H44	H	-4.544508	-0.475271	-0.792247
H45	H	-4.594226	-0.566289	-0.923895
H46	H	-4.246287	-0.522810	-0.694960
H47	H	-4.295975	-0.613856	-0.826573
H48	H	-4.660112	-0.795725	-0.831326
H49	H	-4.610384	-0.704691	-0.699681
H50	H	-4.466944	-0.789393	-0.704736
H51	H	-4.512043	-0.223083	-0.985360
H52	H	-3.807988	0.045674	-0.934742
