data_functionalizedCrystal
_audit_creation_method	'MofGen! by Chris Wilmer'
_symmetry_space_group_name_H-M	'P1'
_symmetry_Int_Tables_number	1
_symmetry_cell_setting	triclinic
loop_
_symmetry_equiv_pos_as_xyz
  x,y,z
_cell_length_a	10.540539
_cell_length_b	19.188930
_cell_length_c	9.616153
_cell_angle_alpha	89.992615
_cell_angle_beta	89.995174
_cell_angle_gamma	83.835137
loop_
_atom_site_label
_atom_site_type_symbol
_atom_site_fract_x
_atom_site_fract_y
_atom_site_fract_z
O1	O	1.683724	0.098389	-0.115598
O2	O	1.314107	0.107659	-0.115617
O3	O	1.509582	0.001439	-0.115579
O4	O	1.488249	0.204608	-0.115635
O5	O	1.509555	0.001441	0.115712
O6	O	1.314080	0.107661	0.115675
O7	O	1.683697	0.098391	0.115694
Zn8	Zn	1.498885	0.103026	0.152407
Zn9	Zn	1.498920	0.103023	-0.152330
O10	O	1.488222	0.204610	0.115657
C11	C	1.266806	0.106965	0.000027
C12	C	1.125904	0.104885	0.000021
C13	C	0.944233	0.025184	0.000583
C14	C	1.090805	0.027292	0.000047
C15	C	1.063423	0.142224	-0.132063
C16	C	0.916937	0.139576	-0.132158
C17	C	0.916384	0.141157	0.130863
C18	C	1.063350	0.141872	0.132594
C19	C	1.508878	-0.024575	0.000070
C20	C	1.506804	-0.102094	0.000082
C21	C	1.621502	-0.146253	0.000095
C22	C	1.619554	-0.219090	0.000072
C23	C	1.502901	-0.247764	0.000065
C24	C	1.388187	-0.203595	0.000045
C25	C	1.390139	-0.130760	0.000053
N26	N	1.413724	-0.356363	0.078774
N27	N	1.411878	-0.425554	0.078769
C28	C	1.497014	-0.467212	0.000037
N29	N	1.584085	-0.437067	-0.078672
N30	N	1.585935	-0.367870	-0.078661
C31	C	1.500772	-0.326741	0.000055
C32	C	1.609608	-0.590350	0.000023
C33	C	1.607655	-0.663188	-0.000008
C34	C	1.376285	-0.647691	-0.000021
C35	C	1.378241	-0.574855	-0.000004
C36	C	1.494906	-0.546189	0.000025
C37	C	1.730998	0.099085	0.000047
C38	C	1.871901	0.101165	0.000044
C39	C	1.488927	0.230625	0.000004
C40	C	1.491000	0.308143	-0.000017
N41	N	1.498870	0.103028	0.360381
N42	N	1.498945	0.103016	-0.360304
C43	C	1.393992	0.159658	0.580731
C44	C	1.394216	0.159870	0.419564
C45	C	1.631228	0.119601	0.418832
C46	C	1.630655	0.120002	0.580050
C47	C	1.472715	0.029640	0.580311
C48	C	1.469658	0.030115	0.419084
H49	H	1.104902	0.114594	0.230309
H50	H	0.916312	-0.005469	0.095309
H51	H	1.541158	-0.014059	0.378804
N52	N	0.907209	-0.013121	-0.117556
N53	N	0.989076	-0.036471	-0.204569
H54	H	0.962925	-0.063525	-0.288003
H55	H	0.889346	0.111977	-0.230877
N56	N	1.089891	0.213708	-0.138235
N57	N	1.155257	0.237987	-0.045133
H58	H	1.173952	0.288473	-0.049488
N59	N	1.724835	-0.708288	-0.000014
N60	N	1.828983	-0.682680	0.000006
H61	H	1.911745	-0.714533	0.000000
N62	N	1.740659	-0.116963	0.000126
N63	N	1.767546	-0.078056	0.097628
H64	H	1.851701	-0.057368	0.097651
H65	H	1.133213	-0.002297	-0.094785
N66	N	0.855229	0.209582	-0.139696
N67	N	0.920391	0.260237	-0.144879
H68	H	0.876816	0.309679	-0.150208
H69	H	1.106595	0.116284	-0.230348
N70	N	0.877479	0.109654	0.256452
N71	N	0.816486	0.057338	0.251061
H72	H	0.789007	0.035082	0.339752
H73	H	1.086329	0.198442	0.140553
H74	H	1.711167	0.079472	0.380494
H75	H	0.867922	0.197202	0.131740
N76	N	1.270169	0.147359	0.629468
N77	N	1.205415	0.193115	0.699560
H78	H	1.117964	0.184430	0.734000
N79	N	1.736732	-0.264198	0.000083
N80	N	1.840884	-0.238594	0.000105
H81	H	1.923643	-0.270450	0.000116
N82	N	1.269040	-0.232893	0.000026
N83	N	1.267312	-0.297924	0.000019
H84	H	1.183160	-0.318617	-0.000002
N85	N	1.731541	0.070257	0.628967
N86	N	1.802154	0.035358	0.544036
H87	H	1.873409	0.000229	0.578577
H88	H	1.654959	0.172529	0.378429
H89	H	1.296735	-0.094804	0.000044
N90	N	1.354272	0.009875	0.631367
N91	N	1.287748	0.049634	0.712155
H92	H	1.204089	0.035685	0.748209
H93	H	1.704603	-0.567009	0.000040
N94	N	1.145066	-0.009563	0.118828
N95	N	1.111795	0.010287	0.238441
H96	H	1.150111	-0.015748	0.322332
H97	H	1.372296	0.017553	0.380883
H98	H	1.281303	-0.671037	-0.000034
H99	H	1.284841	-0.538899	-0.000006
H100	H	1.295819	0.149898	0.380047
N101	N	1.414665	0.227561	0.631529
N102	N	1.506357	0.234421	0.710968
H103	H	1.520962	0.282377	0.746846
N104	N	1.415095	0.228176	0.371158
N105	N	1.429559	0.275837	0.456443
H106	H	1.444285	0.324085	0.422259
N107	N	1.659733	0.187159	0.627175
N108	N	1.680306	0.233408	0.540999
H109	H	1.700843	0.280840	0.574273
N110	N	1.568737	-0.023243	0.628155
N111	N	1.656155	-0.007058	0.705649
H112	H	1.723975	-0.044400	0.739447
