data_functionalizedCrystal
_audit_creation_method	'MofGen! by Chris Wilmer'
_symmetry_space_group_name_H-M	'P1'
_symmetry_Int_Tables_number	1
_symmetry_cell_setting	triclinic
loop_
_symmetry_equiv_pos_as_xyz
  x,y,z
_cell_length_a	21.395364
_cell_length_b	13.031981
_cell_length_c	21.395355
_cell_angle_alpha	97.199817
_cell_angle_beta	90.024516
_cell_angle_gamma	97.187380
loop_
_atom_site_label
_atom_site_type_symbol
_atom_site_fract_x
_atom_site_fract_y
_atom_site_fract_z
Zn1	Zn	0.926233	-0.416336	0.322545
Zn2	Zn	0.912860	-0.591090	0.204455
Zn3	Zn	0.821449	-0.416324	0.217783
Zn4	Zn	0.808145	-0.591050	0.309199
O5	O	0.867172	-0.503700	0.263496
O6	O	1.012135	-0.439540	0.306888
O7	O	0.900706	-0.567918	0.118545
O8	O	0.846512	-0.270067	0.242843
O9	O	1.002310	-0.567930	0.220128
O10	O	0.923497	-0.270076	0.319811
O11	O	0.833546	-0.439518	0.128336
O12	O	0.732008	-0.439479	0.229902
O13	O	0.823838	-0.567863	0.398648
O14	O	0.722234	-0.567850	0.297064
O15	O	0.910597	-0.439501	0.408454
O16	O	0.887806	-0.737343	0.207187
O17	O	0.810872	-0.737314	0.284141
C18	C	0.704387	-0.503660	0.263481
C19	C	0.634745	-0.503668	0.263488
C20	C	0.138050	-0.437005	0.308734
C21	C	0.203486	-0.436997	0.308734
C22	C	0.231102	-0.503732	0.263507
C23	C	0.193275	-0.570499	0.218286
C24	C	0.127840	-0.570512	0.218291
C25	C	0.334124	-0.511825	0.206423
C26	C	0.399558	-0.511805	0.206418
C27	C	0.432925	-0.503697	0.263493
C28	C	0.400852	-0.495588	0.320575
C29	C	0.335417	-0.495601	0.320580
C30	C	0.302055	-0.503725	0.263497
C31	C	0.541697	-0.436931	0.308714
C32	C	0.607134	-0.436931	0.308715
C33	C	0.596922	-0.570427	0.218262
C34	C	0.531486	-0.570433	0.218266
C35	C	0.503878	-0.503680	0.263492
C36	C	0.846461	-0.775252	0.242783
C37	C	0.837658	-0.891423	0.233943
C38	C	0.871799	-0.943137	0.268122
C39	C	0.862702	-1.063206	0.258986
C40	C	1.030592	-0.503741	0.263510
C41	C	1.100232	-0.503758	0.263517
C42	C	0.867225	-0.503679	0.426921
C43	C	0.867248	-0.503670	0.496563
C44	C	0.887980	-0.231088	0.284303
C45	C	0.896848	-0.114917	0.293169
C46	C	0.867160	-0.503646	0.100712
C47	C	0.867281	-0.503360	0.031093
C48	C	0.912422	-0.436829	0.534383
C49	C	0.912424	-0.436784	0.599822
C50	C	0.867258	-0.503599	0.627436
C51	C	0.822077	-0.570444	0.589608
C52	C	0.822071	-0.570479	0.524171
C53	C	0.855134	-0.597706	0.723933
C54	C	0.855143	-0.597673	0.789369
C55	C	0.867271	-0.503488	0.829266
C56	C	0.879402	-0.409335	0.803719
C57	C	0.879397	-0.409370	0.738282
C58	C	0.867259	-0.503567	0.698391
C59	C	0.912450	-0.436593	0.938042
C60	C	0.912448	-0.436546	1.003483
C61	C	0.822103	-0.570215	0.993267
C62	C	0.822102	-0.570253	0.927829
C63	C	0.867279	-0.503443	0.900220
H64	H	0.309305	-0.489001	0.367059
C65	C	0.511737	-0.364603	0.357914
C66	C	0.525924	-0.387532	0.418134
C67	C	0.498331	-0.320936	0.463472
H68	H	0.527784	-0.294316	0.354258
H69	H	0.467344	-0.374177	0.351479
H70	H	0.570309	-0.377948	0.424566
H71	H	0.509877	-0.457807	0.421809
H72	H	0.453937	-0.330511	0.457038
H73	H	0.514379	-0.250653	0.459811
H74	H	0.507948	-0.336490	0.504336
H75	H	0.845269	-0.674338	0.810163
C76	C	0.841912	-0.700075	0.680724
C77	C	0.831279	-0.782517	0.717100
C78	C	0.819073	-0.876825	0.677320
H79	H	0.805674	-0.698791	0.655307
H80	H	0.877091	-0.709416	0.654487
H81	H	0.796104	-0.773178	0.743326
H82	H	0.867510	-0.783834	0.742516
H83	H	0.854252	-0.886166	0.651082
H84	H	0.782836	-0.875530	0.651904
H85	H	0.811863	-0.932773	0.701994
C86	C	0.648215	-0.364626	0.357876
C87	C	0.681271	-0.423890	0.393471
C88	C	0.719115	-0.357319	0.438771
H89	H	0.677257	-0.319008	0.337502
H90	H	0.622415	-0.324893	0.384844
H91	H	0.707069	-0.463605	0.366508
H92	H	0.652245	-0.469505	0.413860
H93	H	0.693316	-0.317586	0.465738
H94	H	0.748153	-0.311704	0.418391
H95	H	0.741544	-0.397520	0.462931
C96	C	0.814688	-1.122493	0.210937
C97	C	0.784943	-1.051514	0.181185
C98	C	0.740705	-1.106091	0.136926
H99	H	0.835396	-1.165074	0.180387
H100	H	0.784140	-1.165071	0.231649
H101	H	0.815487	-1.008953	0.160473
H102	H	0.764223	-1.008930	0.211718
H103	H	0.710156	-1.148670	0.157639
H104	H	0.761418	-1.148671	0.106381
H105	H	0.720513	-1.057941	0.116739
H106	H	0.801691	-0.936039	0.197921
C107	C	0.773063	-0.643158	0.619493
C108	C	0.778799	-0.746579	0.595688
C109	C	0.733650	-0.813591	0.623196
H110	H	0.779485	-0.633710	0.663880
H111	H	0.732117	-0.627918	0.609901
H112	H	0.819735	-0.761814	0.605284
H113	H	0.772371	-0.756060	0.551304
H114	H	0.692704	-0.798350	0.613605
H115	H	0.740076	-0.804133	0.667583
H116	H	0.737532	-0.883768	0.607044
H117	H	0.785322	-0.624606	1.015751
H118	H	0.949232	-0.382187	0.915563
H119	H	0.215764	-0.624837	0.181464
C120	C	0.436961	-0.486727	0.382615
C121	C	0.394870	-0.479605	0.432603
C122	C	0.428114	-0.471425	0.489761
H123	H	0.457928	-0.546608	0.383583
H124	H	0.467093	-0.426110	0.386514
H125	H	0.364749	-0.540216	0.428705
H126	H	0.373901	-0.419726	0.431655
H127	H	0.458246	-0.410807	0.493660
H128	H	0.449080	-0.531307	0.490723
H129	H	0.399562	-0.466582	0.523685
H130	H	0.500694	-0.624787	0.181443
H131	H	0.234283	-0.382633	0.345555
C132	C	0.627019	-0.642774	0.169191
C133	C	0.692420	-0.628462	0.178856
C134	C	0.720169	-0.695086	0.133661
H135	H	0.611019	-0.713064	0.172895
H136	H	0.617484	-0.627371	0.128270
H137	H	0.701950	-0.643873	0.219768
H138	H	0.708437	-0.558186	0.175147
H139	H	0.710635	-0.679683	0.092739
H140	H	0.704165	-0.765372	0.137368
H141	H	0.764547	-0.685378	0.140209
H142	H	0.907762	-0.898523	0.304150
H143	H	0.949208	-0.382426	0.511908
H144	H	0.425668	-0.518401	0.159938
C145	C	0.944797	-1.055255	0.341157
C146	C	0.944304	-0.948026	0.340665
C147	C	0.988470	-0.893035	0.384856
H148	H	0.934315	-1.072950	0.381934
H149	H	0.985579	-1.072985	0.330680
H150	H	0.903530	-0.930304	0.351146
H151	H	0.954792	-0.930301	0.299898
H152	H	1.029252	-0.910764	0.374379
H153	H	0.977984	-0.910737	0.425630
H154	H	0.988146	-0.820274	0.384524
H155	H	0.949209	-0.382349	0.630621
C156	C	0.892543	-0.307041	0.710667
C157	C	0.903150	-0.224542	0.759607
C158	C	0.915251	-0.130259	0.734192
H159	H	0.928763	-0.308271	0.685057
H160	H	0.857326	-0.297808	0.685845
H161	H	0.938364	-0.233772	0.784418
H162	H	0.866937	-0.223277	0.785220
H163	H	0.880033	-0.121026	0.709370
H164	H	0.951470	-0.131500	0.708582
H165	H	0.922444	-0.074271	0.767393
C166	C	0.892428	-0.307073	0.847055
C167	C	0.840442	-0.293752	0.885592
C168	C	0.852412	-0.199557	0.925514
H169	H	0.928613	-0.308300	0.872559
H170	H	0.899618	-0.250979	0.822486
H171	H	0.833259	-0.349832	0.910158
H172	H	0.804251	-0.292506	0.860105
H173	H	0.859602	-0.143462	0.900946
H174	H	0.888598	-0.200792	0.951014
H175	H	0.817140	-0.190501	0.951662
C176	C	0.086667	-0.642949	0.169265
C177	C	0.023450	-0.628691	0.178958
C178	C	-0.014499	-0.695411	0.133812
H179	H	0.098461	-0.627621	0.128324
H180	H	0.092004	-0.713216	0.173016
H181	H	0.018115	-0.558440	0.175201
H182	H	0.011636	-0.644026	0.219889
H183	H	-0.009161	-0.765678	0.137562
H184	H	-0.002698	-0.680077	0.092874
H185	H	-0.057395	-0.685753	0.140385
H186	H	0.949233	-0.382111	1.034276
C187	C	0.773025	-0.642945	0.886866
C188	C	0.733479	-0.701468	0.925052
C189	C	0.688264	-0.768451	0.887339
H190	H	0.748713	-0.603084	0.864364
H191	H	0.793495	-0.688561	0.857888
H192	H	0.713011	-0.655857	0.954019
H193	H	0.757774	-0.741349	0.947554
H194	H	0.708733	-0.814067	0.858361
H195	H	0.663956	-0.728582	0.864839
H196	H	0.661430	-0.808173	0.913242
C197	C	0.773124	-0.643120	0.483019
C198	C	0.803487	-0.710122	0.440354
C199	C	0.758419	-0.777046	0.402428
H200	H	0.746200	-0.683007	0.508754
H201	H	0.748884	-0.603175	0.460486
H202	H	0.827716	-0.750063	0.462885
H203	H	0.830408	-0.670264	0.414605
H204	H	0.734179	-0.737100	0.379895
H205	H	0.731497	-0.816925	0.428168
H206	H	0.779014	-0.822508	0.373472
H207	H	0.306961	-0.518432	0.159943
C208	C	0.108191	-0.364499	0.357910
C209	C	0.155320	-0.306056	0.397519
C210	C	0.127836	-0.239264	0.442833
H211	H	0.086129	-0.318816	0.337543
H212	H	0.079645	-0.404526	0.382156
H213	H	0.183855	-0.266031	0.373276
H214	H	0.177386	-0.351711	0.417901
H215	H	0.099290	-0.279292	0.467079
H216	H	0.105775	-0.193588	0.422460
H217	H	0.159808	-0.199610	0.469717
