data_functionalizedCrystal
_audit_creation_method	'MofGen! by Chris Wilmer'
_symmetry_space_group_name_H-M	'P1'
_symmetry_Int_Tables_number	1
_symmetry_cell_setting	triclinic
loop_
_symmetry_equiv_pos_as_xyz
  x,y,z
_cell_length_a	10.967926
_cell_length_b	11.026607
_cell_length_c	9.482900
_cell_angle_alpha	101.400185
_cell_angle_beta	92.549900
_cell_angle_gamma	96.380754
loop_
_atom_site_label
_atom_site_type_symbol
_atom_site_fract_x
_atom_site_fract_y
_atom_site_fract_z
O1	O	1.656941	0.216441	0.294228
O2	O	1.308308	0.219129	0.206881
O3	O	1.453729	0.039755	0.243320
O4	O	1.511519	0.395815	0.257789
O5	O	1.424224	0.076343	0.477720
O6	O	1.278803	0.255718	0.441280
O7	O	1.627435	0.253029	0.528627
Cu8	Cu	1.450425	0.257714	0.506356
Cu9	Cu	1.485318	0.214444	0.229152
O10	O	1.482014	0.432404	0.492188
C11	C	1.248229	0.234463	0.312725
C12	C	1.113168	0.225628	0.278886
C13	C	1.037668	0.240643	0.385226
C14	C	0.898075	0.231511	0.350255
C15	C	1.428316	0.012329	0.357847
C16	C	1.396536	-0.123901	0.349880
C17	C	1.484288	-0.193522	0.371863
C18	C	1.451444	-0.334324	0.363629
C19	C	1.687515	0.237695	0.422780
C20	C	1.822577	0.246528	0.456610
C21	C	1.507428	0.459828	0.377658
C22	C	1.539209	0.596058	0.385616
N23	N	1.425892	0.288148	0.701329
N24	N	1.509859	0.184001	0.034181
C25	C	1.478072	0.223414	0.786603
C26	C	1.457671	0.248745	0.948909
H27	H	1.583731	-0.148887	0.396787
C28	C	1.346304	0.387223	0.764028
C29	C	1.396747	0.503021	0.739714
C30	C	1.323453	0.594316	0.797430
H31	H	1.343131	0.391274	0.864770
H32	H	1.265537	0.366558	0.718904
H33	H	1.477492	0.523682	0.784843
H34	H	1.399917	0.499011	0.638985
H35	H	1.242685	0.573651	0.752306
H36	H	1.320285	0.598356	0.898170
H37	H	1.357661	0.672894	0.780930
C38	C	1.671738	-0.344207	0.418892
C39	C	1.677966	-0.216422	0.420491
C40	C	1.800025	-0.161352	0.451156
H41	H	1.721359	-0.381584	0.347029
H42	H	1.700684	-0.356138	0.510496
H43	H	1.649036	-0.204500	0.328899
H44	H	1.628371	-0.179011	0.492354
H45	H	1.828972	-0.173283	0.542760
H46	H	1.849637	-0.198738	0.379289
H47	H	1.804266	-0.074643	0.452258
C48	C	1.318899	-0.394040	0.330489
C49	C	1.312667	-0.521815	0.328957
C50	C	1.190588	-0.576864	0.298453
H51	H	1.289850	-0.382168	0.238918
H52	H	1.269364	-0.356590	0.402432
H53	H	1.362184	-0.559254	0.257018
H54	H	1.341690	-0.533722	0.420516
H55	H	1.141053	-0.539413	0.370396
H56	H	1.161550	-0.564983	0.206883
H57	H	1.186342	-0.663562	0.297422
H58	H	1.297093	-0.168537	0.324956
H59	H	1.537845	0.149234	0.739453
C60	C	0.874072	0.272435	0.612562
C61	C	0.824470	0.177674	0.679687
C62	C	0.871889	0.201488	0.823341
H63	H	0.852932	0.350241	0.661624
H64	H	0.961035	0.275040	0.615410
H65	H	0.737526	0.175082	0.676848
H66	H	0.845606	0.099858	0.630668
H67	H	0.958852	0.204093	0.826189
H68	H	0.850746	0.279295	0.872389
H69	H	0.838250	0.137191	0.868900
H70	H	1.569635	0.109817	0.987035
C71	C	1.089176	0.266545	0.541167
C72	C	1.039578	0.171783	0.608293
C73	C	1.087008	0.195592	0.751943
H74	H	1.068041	0.344350	0.590235
H75	H	1.176139	0.269147	0.544006
H76	H	0.952635	0.169193	0.605463
H77	H	1.060710	0.093967	0.559269
H78	H	1.173971	0.198195	0.754782
H79	H	1.065869	0.273400	0.800997
H80	H	1.053372	0.131295	0.797502
C81	C	0.846436	0.205611	0.194359
C82	C	0.783653	0.304483	0.171026
C83	C	0.736079	0.280677	0.027432
H84	H	0.791322	0.130594	0.175008
H85	H	0.911877	0.197434	0.132127
H86	H	0.718220	0.312646	0.233238
H87	H	0.838741	0.379511	0.190346
H88	H	0.801521	0.272499	-0.034800
H89	H	0.680971	0.205657	0.008094
H90	H	0.693486	0.347761	0.011579
C91	C	1.377739	0.347493	1.011628
C92	C	1.258792	0.316626	0.944963
C93	C	1.185122	0.407552	1.002718
H94	H	1.411639	0.426222	0.995310
H95	H	1.374536	0.351363	1.112354
H96	H	1.262000	0.312770	0.844261
H97	H	1.224856	0.237913	0.961276
H98	H	1.181919	0.411422	1.103444
H99	H	1.219033	0.486275	0.986397
H100	H	1.104406	0.386615	0.957504
H101	H	1.074460	0.206010	0.161955
