data_functionalizedCrystal
_audit_creation_method	'MofGen! by Chris Wilmer'
_symmetry_space_group_name_H-M	'P1'
_symmetry_Int_Tables_number	1
_symmetry_cell_setting	triclinic
loop_
_symmetry_equiv_pos_as_xyz
  x,y,z
_cell_length_a	12.837943
_cell_length_b	9.065218
_cell_length_c	8.140239
_cell_angle_alpha	89.998670
_cell_angle_beta	90.000414
_cell_angle_gamma	90.077587
loop_
_atom_site_label
_atom_site_type_symbol
_atom_site_fract_x
_atom_site_fract_y
_atom_site_fract_z
O1	O	1.379055	-0.384028	0.136571
O2	O	1.077071	-0.365057	0.136582
O3	O	1.234305	-0.160659	0.136573
O4	O	1.221821	-0.588426	0.136580
O5	O	1.234300	-0.160657	-0.136654
O6	O	1.077066	-0.365055	-0.136646
O7	O	1.379050	-0.384025	-0.136656
Zn8	Zn	1.228057	-0.374540	-0.180031
Zn9	Zn	1.228064	-0.374543	0.179957
O10	O	1.221816	-0.588424	-0.136647
C11	C	1.038388	-0.358647	-0.000031
C12	C	0.923132	-0.339534	-0.000027
C13	C	1.233103	-0.105525	-0.000038
C14	C	1.229515	0.058754	-0.000030
N15	N	1.228060	-0.374538	-0.425714
C16	C	0.684331	-0.569311	-0.000046
C17	C	0.576036	-0.551359	-0.000044
C18	C	0.598246	-0.285680	-0.000031
C19	C	0.706541	-0.303632	-0.000033
C20	C	0.749579	-0.445452	-0.000038
C21	C	0.857875	-0.463402	-0.000029
C22	C	0.880083	-0.197725	-0.000028
C23	C	0.771789	-0.179773	-0.000025
C24	C	1.417733	-0.390435	-0.000040
C25	C	1.532990	-0.409548	-0.000033
C26	C	1.223019	-0.643557	-0.000033
C27	C	1.226606	-0.807836	-0.000030
N28	N	1.228069	-0.374534	0.425640
H29	H	0.719372	-0.684786	-0.000048
H30	H	0.522914	-0.652219	-0.000054
H31	H	0.736732	-0.064307	-0.000040
C32	C	0.905222	-0.619398	-0.000040
C33	C	0.881172	-0.726503	-0.141933
C34	C	0.928515	-0.882501	-0.141949
C35	C	0.999909	-0.931395	-0.000073
C36	C	1.023963	-0.824288	0.141830
C37	C	0.976619	-0.668289	0.141847
H38	H	0.828318	-0.690310	-0.246968
H39	H	0.910708	-0.961789	-0.246996
H40	H	1.034955	-1.046875	-0.000085
H41	H	1.076816	-0.860481	0.246865
H42	H	0.994426	-0.589002	0.246894
C43	C	0.550886	-0.129693	-0.000036
C44	C	0.479489	-0.080833	-0.141922
C45	C	0.432125	0.075153	-0.141929
C46	C	0.456159	0.182280	-0.000050
C47	C	0.527560	0.133422	0.141847
C48	C	0.574923	-0.022564	0.141854
H49	H	0.461694	-0.160137	-0.246959
H50	H	0.379269	0.111320	-0.246971
H51	H	0.421097	0.297751	-0.000055
H52	H	0.545354	0.212726	0.246884
H53	H	0.627779	-0.058731	0.246897
H54	H	0.933220	-0.096870	-0.000011
