data_functionalizedCrystal
_audit_creation_method	'MofGen! by Chris Wilmer'
_symmetry_space_group_name_H-M	'P1'
_symmetry_Int_Tables_number	1
_symmetry_cell_setting	triclinic
loop_
_symmetry_equiv_pos_as_xyz
  x,y,z
_cell_length_a	12.759401
_cell_length_b	13.032721
_cell_length_c	12.759393
_cell_angle_alpha	97.148922
_cell_angle_beta	89.981287
_cell_angle_gamma	97.205831
loop_
_atom_site_label
_atom_site_type_symbol
_atom_site_fract_x
_atom_site_fract_y
_atom_site_fract_z
Zn1	Zn	1.553088	-0.415945	-0.647098
Zn2	Zn	1.530650	-0.590725	-0.493722
Zn3	Zn	1.377386	-0.416001	-0.471440
Zn4	Zn	1.355052	-0.590652	-0.669350
O5	O	1.454044	-0.503330	-0.570402
O6	O	1.697131	-0.439137	-0.626765
O7	O	1.510276	-0.567601	-0.343752
O8	O	1.419431	-0.269755	-0.476105
O9	O	1.680646	-0.567547	-0.514080
O10	O	1.548518	-0.269714	-0.605160
O11	O	1.397674	-0.439232	-0.327382
O12	O	1.227403	-0.439161	-0.497681
O13	O	1.381365	-0.567422	-0.813412
O14	O	1.210994	-0.567476	-0.643084
O15	O	1.526861	-0.439066	-0.797064
O16	O	1.488619	-0.736953	-0.535656
O17	O	1.359608	-0.736899	-0.664689
C18	C	1.181078	-0.503318	-0.570380
C19	C	1.064299	-0.503337	-0.570399
C20	C	1.000907	-0.570253	-0.646017
C21	C	0.891183	-0.570257	-0.646038
C22	C	0.908251	-0.436427	-0.494813
C23	C	1.017975	-0.436419	-0.494797
C24	C	0.736490	-0.607754	-0.774684
C25	C	0.673093	-0.674686	-0.850295
C26	C	0.695657	-0.776671	-0.879257
C27	C	0.781614	-0.811745	-0.832595
C28	C	0.845005	-0.744818	-0.756977
C29	C	0.822444	-0.642819	-0.728033
C30	C	1.172668	-0.398932	-0.366152
C31	C	1.236060	-0.332010	-0.290528
C32	C	1.213499	-0.230023	-0.261555
C33	C	1.127538	-0.194954	-0.308199
C34	C	1.064145	-0.261875	-0.383823
C35	C	1.086715	-0.363861	-0.412797
C36	C	1.419283	-0.774844	-0.605028
C37	C	1.404509	-0.890998	-0.619876
C38	C	1.461811	-0.942776	-0.562700
C39	C	1.446542	-1.062828	-0.578045
C40	C	1.728075	-0.503344	-0.570426
C41	C	1.844851	-0.503350	-0.570436
C42	C	1.454125	-0.503230	-0.844423
C43	C	1.454159	-0.503187	-0.961194
C44	C	1.488969	-0.230757	-0.535665
C45	C	1.503851	-0.114602	-0.520862
C46	C	1.378426	-0.569991	-1.024566
C47	C	1.378468	-0.569952	-1.134286
C48	C	1.529981	-0.436297	-1.117250
C49	C	1.529943	-0.436342	-1.007533
C50	C	1.325190	-0.693134	-1.299939
C51	C	1.249441	-0.759928	-1.363314
C52	C	1.144859	-0.775980	-1.329746
C53	C	1.116007	-0.725223	-1.232804
C54	C	1.191750	-0.658420	-1.169434
C55	C	1.296345	-0.642388	-1.203003
C56	C	1.583210	-0.313159	-0.841878
C57	C	1.658951	-0.246350	-0.778505
C58	C	1.763536	-0.230288	-0.812069
C59	C	1.792387	-0.281027	-0.909012
C60	C	1.716647	-0.347835	-0.972385
C61	C	1.612062	-0.363900	-0.938814
C62	C	1.454033	-0.503355	-0.297438
C63	C	1.454240	-0.503104	-0.180630
H64	H	1.191052	-0.481975	-0.389746
H65	H	1.877547	-0.267942	-0.936345
H66	H	1.272942	-0.801255	-1.442244
H67	H	1.038621	-0.624740	-0.707579
H68	H	1.564222	-1.070058	-0.460551
F69	F	1.540716	-0.884552	-0.483875
H70	H	1.498050	-0.326236	-0.814538
F71	F	1.367643	-1.121047	-0.656887
F72	F	1.325615	-0.949222	-0.698713
F73	F	0.858940	-0.365213	-0.414357
F74	F	1.297773	-0.641137	-0.975253
H75	H	1.168258	-0.617091	-1.090508
H76	H	0.644031	-0.831167	-0.940823
H77	H	1.410350	-0.680081	-1.327273
H78	H	0.603108	-0.646119	-0.888287
H79	H	1.083184	-0.830366	-1.381355
F80	F	1.004690	-0.742297	-1.197094
H81	H	1.265118	-0.175540	-0.199968
H82	H	1.591680	-0.381872	-1.154993
F83	F	1.747354	-0.401832	-1.075565
F84	F	1.844142	-0.159175	-0.744621
F85	F	0.972653	-0.224550	-0.433461
F86	F	0.936479	-0.782141	-0.707315
F87	F	0.805611	-0.920298	-0.863412
F88	F	1.327539	-0.369343	-0.240873
F89	F	0.712480	-0.499204	-0.743879
F90	F	1.103517	-0.086410	-0.277357
F91	F	1.628241	-0.192346	-0.675330
