data_functionalizedCrystal
_audit_creation_method	'MofGen! by Chris Wilmer'
_symmetry_space_group_name_H-M	'P1'
_symmetry_Int_Tables_number	1
_symmetry_cell_setting	triclinic
loop_
_symmetry_equiv_pos_as_xyz
  x,y,z
_cell_length_a	21.606444
_cell_length_b	21.606444
_cell_length_c	21.606444
_cell_angle_alpha	60.001331
_cell_angle_beta	90.000833
_cell_angle_gamma	59.999875
loop_
_atom_site_label
_atom_site_type_symbol
_atom_site_fract_x
_atom_site_fract_y
_atom_site_fract_z
Zr1	Zr	0.596210	0.677477	-0.081222
O2	O	0.497381	0.806595	-0.180041
O3	O	0.626507	0.548358	-0.050932
O4	O	0.626499	0.677482	-0.180050
O5	O	0.497394	0.677467	0.050931
O6	O	0.728349	0.677487	-0.180054
O7	O	0.497389	0.677471	-0.050923
O8	O	0.728363	0.446508	0.050915
O9	O	0.497380	0.908446	-0.180038
O10	O	0.715437	0.601470	-0.038013
O11	O	0.639431	0.601463	0.038003
O12	O	0.639422	0.753490	-0.114018
O13	O	0.563417	0.753484	-0.038002
Zr14	Zr	0.758657	0.677477	0.081217
Zr15	Zr	0.758648	0.677484	-0.081228
Zr16	Zr	0.596218	0.677470	0.081223
Zr17	Zr	0.596208	0.839917	-0.081217
Zr18	Zr	0.758658	0.515036	0.081212
O19	O	0.728359	0.806595	0.050927
O20	O	0.728348	0.806605	-0.180050
O21	O	0.497393	0.806585	0.050935
O22	O	0.857486	0.548358	0.180036
O23	O	0.857474	0.548368	-0.050940
O24	O	0.626519	0.548348	0.180045
O25	O	0.857473	0.677487	-0.050936
O26	O	0.728367	0.677471	0.180045
O27	O	0.626518	0.677467	0.180049
O28	O	0.857478	0.677482	0.050918
O29	O	0.626497	0.908451	-0.180043
O30	O	0.728370	0.446502	0.180038
O31	O	0.857487	0.446508	0.180033
O32	O	0.857480	0.446513	0.050910
O33	O	0.497386	0.908440	-0.050916
O34	O	0.626503	0.908446	-0.050920
O35	O	0.715445	0.601463	0.114012
O36	O	0.791450	0.601470	0.037997
O37	O	0.715435	0.753490	-0.038008
O38	O	0.639430	0.753484	0.038008
C39	C	0.677435	0.474289	-0.000009
C40	C	0.677436	0.405329	-0.000011
C41	C	0.717109	0.372934	-0.039692
C42	C	0.717111	0.308134	-0.039687
C43	C	0.677437	0.275734	-0.000005
C44	C	0.637763	0.308131	0.039680
C45	C	0.637765	0.372925	0.039679
C46	C	0.637754	0.046822	0.039686
C47	C	0.637753	-0.017975	0.039683
C48	C	0.717100	-0.017969	-0.039679
C49	C	0.717102	0.046825	-0.039680
C50	C	0.677432	0.079213	0.000008
C51	C	0.677431	0.149475	0.000003
C52	C	0.677433	0.205477	-0.000004
C53	C	0.474247	0.677468	0.000005
C54	C	0.405288	0.677465	0.000007
C55	C	0.412568	0.598113	0.039678
C56	C	0.347770	0.598115	0.039679
C57	C	0.275694	0.677471	0.000004
C58	C	0.268416	0.756829	-0.039668
C59	C	0.333212	0.756826	-0.039664
C60	C	0.007098	0.756844	-0.039685
C61	C	-0.057700	0.756842	-0.039688
C62	C	0.021656	0.598134	0.039658
C63	C	0.086452	0.598130	0.039662
C64	C	0.079169	0.677488	-0.000007
C65	C	0.149430	0.677485	-0.000006
C66	C	0.205434	0.677475	-0.000002
C67	C	0.880619	0.677485	-0.000010
C68	C	0.949579	0.677488	-0.000012
C69	C	0.677423	0.677485	-0.203197
C70	C	0.677419	0.677488	-0.272160
C71	C	0.677431	0.880665	0.000004
C72	C	0.677430	0.949625	0.000006
C73	C	0.637740	0.756841	-0.344232
C74	C	0.637747	0.756838	-0.409027
C75	C	0.677429	0.677483	-0.401748
C76	C	0.717113	0.598124	-0.329668
C77	C	0.717110	0.598127	-0.264874
C78	C	0.717125	0.598109	-0.590971
C79	C	0.717122	0.598112	-0.655771
C80	C	0.637761	0.756820	-0.735123
C81	C	0.637759	0.756823	-0.670330
C82	C	0.677446	0.677465	-0.598256
C83	C	0.677440	0.677469	-0.527998
C84	C	0.677431	0.677478	-0.472004
C85	C	0.677444	0.677468	0.203192
C86	C	0.677447	0.677465	0.272154
C87	C	0.880621	0.474297	-0.000017
C88	C	0.949581	0.405340	-0.000021
C89	C	0.677446	0.474280	0.203185
C90	C	0.677450	0.405317	0.272146
C91	C	0.880632	0.474289	0.203178
C92	C	0.949595	0.405329	0.272136
C93	C	0.474235	0.880665	-0.203183
C94	C	0.405271	0.949625	-0.272141
C95	C	0.474245	0.880656	0.000011
C96	C	0.405285	0.949613	0.000016
C97	C	0.677421	0.880673	-0.203191
C98	C	0.677417	0.949637	-0.272151
C99	C	0.942288	0.372957	-0.039707
C100	C	1.007077	0.308174	-0.039726
C101	C	1.079159	0.275770	-0.000056
C102	C	1.086451	0.308159	0.039631
C103	C	1.021663	0.372946	0.039646
C104	C	0.717130	0.372931	0.344213
C105	C	0.717131	0.308142	0.409015
C106	C	0.677456	0.275735	0.401747
C107	C	0.637771	0.308128	0.329672
C108	C	0.637766	0.372920	0.264872
C109	C	1.021662	0.372948	0.264840
C110	C	1.086467	0.308161	0.329627
C111	C	1.079203	0.275753	0.401709
C112	C	1.007129	0.308140	0.409003
C113	C	0.942326	0.372930	0.344217
C114	C	0.333204	0.982014	-0.264845
C115	C	0.268399	1.046820	-0.329632
C116	C	0.275663	1.079232	-0.401714
C117	C	0.347738	1.046841	-0.409008
C118	C	0.412541	0.982040	-0.344222
C119	C	0.412579	0.982003	0.039695
C120	C	0.347790	1.046804	0.039696
C121	C	0.275707	1.079211	0.000024
C122	C	0.268415	1.046818	-0.039660
C123	C	0.333204	0.982022	-0.039666
C124	C	0.717099	0.982023	-0.264859
C125	C	0.717110	1.046812	-0.329648
C126	C	0.677433	1.079219	-0.401728
C127	C	0.637749	1.046827	-0.409019
C128	C	0.637744	0.982034	-0.344230
H129	H	0.605444	-0.044354	0.071999
H130	H	0.605426	0.955672	-0.350178
H131	H	0.327254	0.955652	-0.071975
H132	H	1.027612	0.399304	0.071967
H133	H	0.471266	0.955623	0.072006
C134	C	0.760793	0.272514	0.488291
C135	C	0.804443	0.308154	0.496278
C136	C	0.848105	0.272528	0.575551
C137	C	0.848116	0.201262	0.646837
C138	C	0.804464	0.165619	0.638853
C139	C	0.760802	0.201244	0.559579
H140	H	0.804437	0.360912	0.443505
H141	H	0.880419	0.298914	0.581461
H142	H	0.880437	0.174890	0.705520
H143	H	0.804471	0.112860	0.691625
H144	H	0.728488	0.174858	0.553669
C145	C	0.999151	0.272470	0.488299
C146	C	1.032798	0.281358	0.543765
C147	C	1.024824	0.245677	0.623064
C148	C	0.983203	0.201108	0.646895
C149	C	0.949553	0.192217	0.591428
C150	C	0.957527	0.227899	0.512130
H151	H	1.063611	0.314353	0.526125
H152	H	1.049735	0.252258	0.664124
H153	H	0.977300	0.174694	0.705597
H154	H	0.918740	0.159222	0.609068
H155	H	0.932616	0.221317	0.471069
C156	C	0.189133	0.844123	-0.083322
C157	C	0.181127	0.931410	-0.126965
C158	C	0.101844	1.018706	-0.170626
C159	C	0.030568	1.018715	-0.170644
C160	C	0.038572	0.931424	-0.126999
C161	C	0.117854	0.844128	-0.083338
H162	H	0.233892	0.931406	-0.126953
H163	H	0.095920	1.083324	-0.202934
H164	H	-0.028122	1.083336	-0.202964
H165	H	-0.014193	0.931428	-0.127011
H166	H	0.123779	0.779510	-0.051029
C167	C	0.760747	-0.053606	-0.083330
C168	C	0.760755	-0.124881	-0.083329
C169	C	0.804398	-0.160513	-0.126981
C170	C	0.848035	-0.124870	-0.170633
C171	C	0.848029	-0.053590	-0.170635
C172	C	0.804385	-0.017958	-0.126984
H173	H	0.728451	-0.151271	-0.051014
H174	H	0.804402	-0.213280	-0.126979
H175	H	0.880342	-0.151247	-0.202946
H176	H	0.880333	-0.027201	-0.202950
H177	H	0.804381	0.034808	-0.126986
C178	C	0.355720	1.082496	-0.488302
C179	C	0.284433	1.153769	-0.559558
C180	C	0.292413	1.189422	-0.638853
C181	C	0.371680	1.153803	-0.646893
C182	C	0.442974	1.082526	-0.575636
C183	C	0.434994	1.046872	-0.496340
H184	H	0.225749	1.180140	-0.553608
H185	H	0.239636	1.242186	-0.691603
H186	H	0.377588	1.180195	-0.705593
H187	H	0.501658	1.056155	-0.581585
H188	H	0.487770	0.994109	-0.443590
C189	C	0.355823	1.082418	0.083359
C190	C	0.435114	1.046754	0.127010
C191	C	0.443149	1.082364	0.170674
C192	C	0.371893	1.153638	0.170688
C193	C	0.292596	1.189307	0.127036
C194	C	0.284561	1.153697	0.083372
H195	H	0.487866	0.993989	0.127001
H196	H	0.501850	1.055959	0.202988
H197	H	0.377841	1.179999	0.203011
H198	H	0.239843	1.242072	0.127045
H199	H	0.225860	1.180101	0.051057
H200	H	0.883648	0.399286	0.350168
C201	C	0.760746	0.272510	-0.083344
C202	C	0.718197	0.281420	-0.147706
C203	C	0.761834	0.245798	-0.191366
C204	C	0.848020	0.201267	-0.170665
C205	C	0.890573	0.192356	-0.106299
C206	C	0.846936	0.227977	-0.062639
H207	H	0.654394	0.314386	-0.163033
H208	H	0.730333	0.252395	-0.239014
H209	H	0.880322	0.174898	-0.202985
H210	H	0.954377	0.159389	-0.090972
H211	H	0.878438	0.221380	-0.014991
H212	H	0.749441	0.533491	-0.532293
C213	C	0.594102	1.082487	-0.488312
C214	C	0.636641	1.073594	-0.543774
C215	C	0.592990	1.109263	-0.623070
C216	C	0.506799	1.153824	-0.646903
C217	C	0.464256	1.162719	-0.591439
C218	C	0.507907	1.127050	-0.512144
H219	H	0.700449	1.040606	-0.526133
H220	H	0.624484	1.102678	-0.664127
H221	H	0.474486	1.180228	-0.705602
H222	H	0.400448	1.195708	-0.609081
H223	H	0.476413	1.133635	-0.471086
H224	H	0.749412	0.399314	-0.072009
H225	H	0.353704	0.533498	0.071984
C226	C	0.594123	0.408563	0.083326
C227	C	0.550480	0.372929	0.126974
C228	C	0.506840	0.408562	0.170627
C229	C	0.506844	0.479830	0.170631
C230	C	0.550489	0.515468	0.126981
C231	C	0.594129	0.479835	0.083329
H232	H	0.550475	0.320169	0.126973
H233	H	0.474531	0.382180	0.202939
H234	H	0.474539	0.506208	0.202945
H235	H	0.550494	0.568229	0.126983
H236	H	0.626438	0.506217	0.051017
C237	C	0.189120	1.082463	-0.083288
C238	C	0.133654	1.180463	-0.147641
C239	C	0.054356	1.216105	-0.191261
C240	C	0.030526	1.153746	-0.170530
C241	C	0.085993	1.055739	-0.106174
C242	C	0.165291	1.020098	-0.062553
H243	H	0.151293	1.226631	-0.162991
H244	H	0.013295	1.288656	-0.238902
H245	H	-0.028175	1.180130	-0.202820
H246	H	0.068354	1.009572	-0.090824
H247	H	0.206352	0.947547	-0.014913
C248	C	0.760755	0.510830	-0.321657
C249	C	0.760749	0.510822	-0.392925
C250	C	0.804386	0.423526	-0.384912
C251	C	0.848028	0.336239	-0.305631
C252	C	0.848035	0.336244	-0.234358
C253	C	0.804398	0.423540	-0.242371
H254	H	0.728442	0.575440	-0.451618
H255	H	0.804381	0.423522	-0.437673
H256	H	0.880330	0.271617	-0.299699
H257	H	0.880342	0.271626	-0.175665
H258	H	0.804404	0.423544	-0.189610
H259	H	0.749424	1.073179	-0.323697
C260	C	0.594112	0.082440	0.083341
C261	C	0.614837	0.020065	0.169526
C262	C	0.571191	0.055683	0.213185
C263	C	0.506821	0.153677	0.170658
C264	C	0.486093	0.216058	0.084469
C265	C	0.529738	0.180440	0.040810
H266	H	0.662490	-0.052482	0.201011
H267	H	0.586536	0.009503	0.276988
H268	H	0.474512	0.180044	0.202977
H269	H	0.438439	0.288605	0.052984
H270	H	0.514394	0.226620	-0.022994
H271	H	0.677444	1.131978	-0.454477
H272	H	0.471219	0.955669	-0.350172
H273	H	0.327276	0.955627	-0.206158
H274	H	0.677466	0.222977	0.454518
H275	H	1.001125	0.281810	-0.072044
C276	C	1.029665	0.408592	0.185555
C277	C	1.108946	0.372968	0.177545
C278	C	1.116957	0.408611	0.098263
C279	C	1.045687	0.479878	0.026989
C280	C	0.966401	0.515506	0.034996
C281	C	0.958390	0.479862	0.114279
H282	H	1.161709	0.320208	0.230308
H283	H	1.175650	0.382236	0.092336
H284	H	1.051617	0.506263	-0.031700
H285	H	0.913638	0.568265	-0.017767
H286	H	0.899697	0.506237	0.120206
H287	H	0.209720	1.073182	-0.323678
H288	H	0.001157	0.821463	-0.072000
H289	H	0.749406	0.073206	-0.071996
H290	H	0.749421	0.533511	-0.206190
C291	C	0.165735	0.510837	0.083307
C292	C	0.189562	0.445368	0.062589
C293	C	0.268845	0.358073	0.106238
C294	C	0.324301	0.336247	0.170606
C295	C	0.300476	0.401718	0.191328
C296	C	0.221193	0.489013	0.147678
H297	H	0.148509	0.461523	0.014937
H298	H	0.286482	0.309607	0.090898
H299	H	0.382991	0.271626	0.202917
H300	H	0.341529	0.385562	0.238979
H301	H	0.203556	0.537479	0.163018
H302	H	0.605464	0.281741	0.071994
H303	H	0.222890	1.131997	-0.454461
H304	H	0.749438	0.399309	0.350145
H305	H	0.222959	1.131972	0.000034
H306	H	1.131977	0.222997	0.454456
H307	H	0.749409	0.955647	-0.206173
H308	H	1.131908	0.223015	-0.000073
H309	H	0.471252	0.533492	0.071990
H310	H	0.027580	0.533516	0.071960
H311	H	-0.116390	0.821467	-0.071998
H312	H	0.605469	0.281732	0.323766
C313	C	0.594097	0.844135	-0.488302
C314	C	0.614812	0.909603	-0.512111
C315	C	0.571162	0.996907	-0.591385
C316	C	0.506796	1.018742	-0.646852
C317	C	0.486077	0.953272	-0.623045
C318	C	0.529727	0.865968	-0.543770
H319	H	0.662463	0.893440	-0.471050
H320	H	0.586500	1.045372	-0.609009
H321	H	0.474483	1.083369	-0.705536
H322	H	0.438426	0.969435	-0.664106
H323	H	0.514390	0.817503	-0.526147
H324	H	0.605421	0.821462	-0.350168
H325	H	0.327280	0.821443	-0.071959
H326	H	0.605442	0.821443	-0.676264
H327	H	0.605448	0.821437	-0.793816
H328	H	0.883601	0.399340	-0.072020
H329	H	0.749439	0.533487	-0.649836
H330	H	1.145149	0.281766	0.071929
H331	H	0.605456	0.399280	0.206194
H332	H	1.145147	0.281798	0.323674
