data_functionalizedCrystal
_audit_creation_method	'MofGen! by Chris Wilmer'
_symmetry_space_group_name_H-M	'P1'
_symmetry_Int_Tables_number	1
_symmetry_cell_setting	triclinic
loop_
_symmetry_equiv_pos_as_xyz
  x,y,z
_cell_length_a	12.759400
_cell_length_b	19.077105
_cell_length_c	19.076919
_cell_angle_alpha	89.923776
_cell_angle_beta	92.274856
_cell_angle_gamma	92.288832
loop_
_atom_site_label
_atom_site_type_symbol
_atom_site_fract_x
_atom_site_fract_y
_atom_site_fract_z
Zn1	Zn	-0.508276	-1.058328	-0.440436
Zn2	Zn	-0.008276	-0.558328	0.059564
Zn3	Zn	-0.677203	-1.062987	-0.322935
Zn4	Zn	-0.177203	-0.562987	0.177065
Zn5	Zn	-0.494202	-0.945544	-0.318229
Zn6	Zn	0.005798	-0.445544	0.181771
Zn7	Zn	-0.676569	-0.940808	-0.435688
Zn8	Zn	-0.176569	-0.440808	0.064312
O9	O	-0.589062	-1.001917	-0.379322
O10	O	-0.089062	-0.501917	0.120678
O11	O	-0.536840	-1.157278	-0.428806
O12	O	-0.036840	-0.657278	0.071194
O13	O	-0.647302	-1.051339	-0.223980
O14	O	-0.147302	-0.551339	0.276020
O15	O	-0.349051	-0.960537	-0.334457
O16	O	0.150949	-0.460537	0.165543
O17	O	-0.660950	-1.160701	-0.342479
O18	O	-0.160950	-0.660701	0.157521
O19	O	-0.359391	-1.043399	-0.424243
O20	O	0.140609	-0.543399	0.075757
O21	O	-0.512852	-0.965055	-0.220522
O22	O	-0.012852	-0.465055	0.279478
O23	O	-0.512238	-0.846583	-0.329853
O24	O	-0.012238	-0.346583	0.170147
O25	O	-0.659870	-0.952466	-0.534649
O26	O	-0.159870	-0.452466	-0.034649
O27	O	-0.646223	-0.843104	-0.416150
O28	O	-0.146223	-0.343104	0.083850
O29	O	-0.536225	-1.038807	-0.538138
O30	O	-0.036225	-0.538807	-0.038138
O31	O	-0.824137	-1.046747	-0.337875
O32	O	-0.324137	-0.546747	0.162125
O33	O	-0.823671	-0.956983	-0.420714
O34	O	-0.323671	-0.456983	0.079286
C35	C	-0.577635	-0.819347	-0.371976
C36	C	-0.077635	-0.319347	0.128024
C37	C	-0.572772	-0.741242	-0.368850
C38	C	-0.072772	-0.241242	0.131150
C39	C	-0.862026	-1.001876	-0.379306
C40	C	-0.362026	-0.501876	0.120694
C41	C	-0.978807	-1.001921	-0.379325
C42	C	-0.478807	-0.501921	0.120675
C43	C	-0.599547	-0.994588	-0.562603
C44	C	-0.099547	-0.494588	-0.062603
C45	C	-0.604015	-0.991465	-0.640706
C46	C	-0.104015	-0.491465	-0.140706
C47	C	-1.033882	-1.048709	-0.336242
C48	C	-0.533882	-0.548709	0.163758
C49	C	-1.143610	-1.048751	-0.336266
C50	C	-0.643610	-0.548751	0.163734
C51	C	-1.143177	-0.955212	-0.422456
C52	C	-0.643177	-0.455212	0.077544
C53	C	-1.033452	-0.955173	-0.422436
C54	C	-0.533452	-0.455173	0.077564
C55	C	-0.979237	-1.095457	-0.293132
C56	C	-0.479237	-0.595457	0.206868
C57	C	-1.034313	-1.142248	-0.250045
C58	C	-0.534313	-0.642248	0.249955
C59	C	-1.144041	-1.142290	-0.250068
C60	C	-0.644041	-0.642290	0.249932
C61	C	-1.198693	-1.095542	-0.293178
C62	C	-0.698693	-0.595542	0.206822
C63	C	-0.315035	-1.001976	-0.379355
C64	C	0.184965	-0.501976	0.120645
C65	C	-0.198260	-1.002002	-0.379368
C66	C	0.301740	-0.502002	0.120632
C67	C	-0.600535	-1.185199	-0.386697
C68	C	-0.100535	-0.685199	0.113303
C69	C	-0.605424	-1.263303	-0.389840
C70	C	-0.105424	-0.763303	0.110160
C71	C	-0.640344	-0.702758	-0.412241
C72	C	-0.140344	-0.202758	0.087759
C73	C	-0.635761	-0.629371	-0.409307
C74	C	-0.135761	-0.129371	0.090693
C75	C	-0.563612	-0.594468	-0.362979
C76	C	-0.063612	-0.094468	0.137021
C77	C	-0.496033	-0.632957	-0.319586
C78	C	0.003967	-0.132957	0.180414
C79	C	-0.500611	-0.706344	-0.322524
C80	C	-0.000611	-0.206344	0.177476
C81	C	-0.542424	-0.375179	-0.349385
C82	C	-0.042424	0.124821	0.150615
C83	C	-0.537853	-0.301787	-0.346449
C84	C	-0.037853	0.198213	0.153551
C85	C	-0.677581	-0.298205	-0.436172
C86	C	-0.177581	0.201795	0.063828
C87	C	-0.682157	-0.371593	-0.439102
C88	C	-0.182157	0.128407	0.060898
C89	C	-0.614574	-0.410076	-0.395712
C90	C	-0.114574	0.089924	0.104288
N91	N	-0.558928	-0.519454	-0.359977
N92	N	-0.058928	-0.019454	0.140023
N93	N	-0.619253	-0.485088	-0.398718
N94	N	-0.119253	0.014912	0.101282
C95	C	-0.541742	-1.034949	-0.679216
C96	C	-0.041742	-0.534949	-0.179216
C97	C	-0.545935	-1.032006	-0.752602
C98	C	-0.045935	-0.532006	-0.252602
C99	C	-0.612408	-0.985583	-0.787477
C100	C	-0.112408	-0.485583	-0.287477
C101	C	-0.674683	-0.942094	-0.748961
C102	C	-0.174683	-0.442094	-0.248961
C103	C	-0.670484	-0.945034	-0.675576
C104	C	-0.170484	-0.445034	-0.175576
C105	C	-0.631866	-0.971967	-1.006758
C106	C	-0.131866	-0.471967	-0.506758
C107	C	-0.636063	-0.969032	-1.080148
C108	C	-0.136063	-0.469032	-0.580148
C109	C	-0.507313	-1.058943	-1.083785
C110	C	-0.007313	-0.558943	-0.583785
C111	C	-0.503124	-1.061882	-1.010398
C112	C	-0.003124	-0.561882	-0.510398
C113	C	-0.565395	-1.018391	-0.971889
C114	C	-0.065395	-0.518391	-0.471889
N115	N	-0.616698	-0.982575	-0.862489
N116	N	-0.116698	-0.482575	-0.362489
N117	N	-0.561099	-1.021396	-0.896878
N118	N	-0.061099	-0.521396	-0.396878
C119	C	-0.578545	-1.009257	-0.196756
C120	C	-0.078545	-0.509257	0.303244
C121	C	-0.573790	-1.012516	-0.118659
C122	C	-0.073790	-0.512516	0.381341
H123	H	-0.889891	-1.095426	-0.293106
H124	H	-0.389891	-0.595426	0.206894
H125	H	-0.728803	-0.904293	-0.777361
H126	H	-0.228803	-0.404293	-0.277361
Cl127	Cl	-0.748770	-0.890364	-0.627163
Cl128	Cl	-0.248770	-0.390364	-0.127163
Cl129	Cl	-0.731056	-0.746628	-0.470483
Cl130	Cl	-0.231056	-0.246628	0.029517
H131	H	-0.445582	-0.737676	-0.287194
H132	H	0.054418	-0.237676	0.212806
Cl133	Cl	-0.964209	-0.896355	-0.476599
Cl134	Cl	-0.464209	-0.396355	0.023401
H135	H	-0.437283	-0.604534	-0.281867
H136	H	0.062717	-0.104534	0.218133
Cl137	Cl	-0.458177	-1.093317	-0.635382
Cl138	Cl	0.041823	-0.593317	-0.135382
H139	H	-0.732601	-0.266865	-0.471498
H140	H	-0.232601	0.233135	0.028502
H141	H	-0.487401	-0.406503	-0.314049
H142	H	0.012599	0.093497	0.185951
Cl143	Cl	-0.965610	-1.201021	-0.195860
Cl144	Cl	-0.465610	-0.701021	0.304140
Cl145	Cl	-0.720713	-0.580994	-0.463858
Cl146	Cl	-0.220713	-0.080994	0.036142
H147	H	-1.288042	-1.095585	-0.293200
H148	H	-0.788042	-0.595585	0.206800
Cl149	Cl	-0.710151	-0.917293	-0.958356
Cl150	Cl	-0.210151	-0.417293	-0.458356
H151	H	-1.187684	-0.917151	-0.457553
H152	H	-0.687684	-0.417151	0.042447
Cl153	Cl	-0.467693	-1.086705	-0.801014
Cl154	Cl	0.032307	-0.586705	-0.301014
H155	H	-0.448998	-1.099687	-0.982009
H156	H	0.051002	-0.599687	-0.482009
Cl157	Cl	-0.429030	-1.113612	-1.132200
Cl158	Cl	0.070970	-0.613612	-0.632200
Cl159	Cl	-0.772865	-0.415465	-0.497345
Cl160	Cl	-0.272865	0.084535	0.002655
H161	H	-0.690196	-0.931226	-1.108541
H162	H	-0.190196	-0.431226	-0.608541
Cl163	Cl	-1.213277	-1.201118	-0.195910
Cl164	Cl	-0.713277	-0.701118	0.304090
Cl165	Cl	-0.447151	-0.257911	-0.288198
Cl166	Cl	0.052849	0.242089	0.211802
