data_functionalizedCrystal
_audit_creation_method	'MofGen! by Chris Wilmer'
_symmetry_space_group_name_H-M	'P1'
_symmetry_Int_Tables_number	1
_symmetry_cell_setting	triclinic
loop_
_symmetry_equiv_pos_as_xyz
  x,y,z
_cell_length_a	12.827893
_cell_length_b	12.827892
_cell_length_c	17.077396
_cell_angle_alpha	90.025067
_cell_angle_beta	90.017613
_cell_angle_gamma	90.015552
loop_
_atom_site_label
_atom_site_type_symbol
_atom_site_fract_x
_atom_site_fract_y
_atom_site_fract_z
Zn1	Zn	1.597652	-0.416029	0.443822
Zn2	Zn	2.097652	0.083971	0.943822
Zn3	Zn	1.597552	-0.590791	0.312564
Zn4	Zn	2.097552	-0.090791	0.812564
Zn5	Zn	1.422899	-0.416065	0.312574
Zn6	Zn	1.922899	0.083935	0.812574
Zn7	Zn	1.422879	-0.590729	0.443792
Zn8	Zn	1.922879	-0.090729	0.943792
O9	O	1.510246	-0.503403	0.378188
O10	O	2.010246	-0.003403	0.878188
O11	O	1.743875	-0.439222	0.426418
O12	O	2.243875	0.060778	0.926418
O13	O	1.574350	-0.567655	0.202718
O14	O	2.074350	-0.067655	0.702718
O15	O	1.446131	-0.269824	0.330001
O16	O	1.946131	0.230176	0.830001
O17	O	1.743801	-0.567619	0.329984
O18	O	2.243801	-0.067619	0.829984
O19	O	1.574522	-0.269797	0.426429
O20	O	2.074522	0.230203	0.926429
O21	O	1.446033	-0.439284	0.202726
O22	O	1.946033	0.060716	0.702726
O23	O	1.276660	-0.439224	0.329972
O24	O	1.776660	0.060776	0.829972
O25	O	1.446097	-0.567513	0.553643
O26	O	1.946097	-0.067513	1.053643
O27	O	1.276646	-0.567548	0.426377
O28	O	1.776646	-0.067548	0.926377
O29	O	1.574502	-0.439162	0.553665
O30	O	2.074502	0.060838	1.053665
O31	O	1.574330	-0.737019	0.329954
O32	O	2.074330	-0.237019	0.829954
O33	O	1.445999	-0.736973	0.426367
O34	O	1.945999	-0.236973	0.926367
C35	C	1.238736	-0.503384	0.378173
C36	C	1.738736	-0.003384	0.878173
C37	C	1.122583	-0.503401	0.378185
C38	C	1.622583	-0.003401	0.878185
C39	C	0.950717	-0.566854	0.330416
C40	C	1.450717	-0.066854	0.830416
C41	C	1.070767	-0.566838	0.330403
C42	C	1.570767	-0.066838	0.830403
C43	C	1.510180	-0.774913	0.378173
C44	C	2.010180	-0.274913	0.878173
C45	C	1.510248	-0.891066	0.378193
C46	C	2.010248	-0.391066	0.878193
C47	C	1.573751	-0.942754	0.425951
C48	C	2.073751	-0.442754	0.925951
C49	C	1.573823	-1.062805	0.425973
C50	C	2.073823	-0.562805	0.925973
C51	C	1.782816	-0.503423	0.378203
C52	C	2.282816	-0.003423	0.878203
C53	C	1.898969	-0.503432	0.378210
C54	C	2.398969	-0.003432	0.878210
C55	C	1.510309	-0.503326	0.582932
C56	C	2.010309	-0.003326	1.082932
C57	C	1.510336	-0.503294	0.670182
C58	C	2.010336	-0.003294	1.170182
C59	C	1.510340	-0.230833	0.378220
C60	C	2.010340	0.269167	0.878220
C61	C	1.510380	-0.114680	0.378233
C62	C	2.010380	0.385320	0.878233
C63	C	1.510243	-0.503405	0.174240
C64	C	2.010243	-0.003405	0.674240
C65	C	1.510418	-0.503143	0.086991
C66	C	2.010418	-0.003143	0.586991
C67	C	1.577199	-0.436455	0.711185
C68	C	2.077199	0.063545	1.211185
C69	C	1.577211	-0.436421	0.793165
C70	C	2.077211	0.063579	1.293165
C71	C	1.510365	-0.503230	0.834141
C72	C	2.010365	-0.003230	1.334141
C73	C	1.443495	-0.570071	0.793133
C74	C	1.943495	-0.070071	1.293133
C75	C	1.443478	-0.570100	0.711154
C76	C	1.943478	-0.070100	1.211154
C77	C	1.443537	-0.570008	0.964003
C78	C	1.943537	-0.070008	1.464003
C79	C	1.443555	-0.569981	1.045988
C80	C	1.943555	-0.069981	1.545988
C81	C	1.577270	-0.436329	1.046015
C82	C	2.077270	0.063671	1.546015
C83	C	1.577253	-0.436358	0.964036
C84	C	2.077253	0.063642	1.464036
C85	C	1.510384	-0.503201	0.923033
C86	C	2.010384	-0.003201	1.423033
H87	H	1.078087	-0.449103	0.419107
H88	H	1.578087	0.050897	0.919107
F89	F	1.372311	-0.641236	0.667516
F90	F	1.872311	-0.141236	1.167516
F91	F	1.644893	-1.120901	0.479414
F92	F	2.144893	-0.620901	0.979414
F93	F	1.372402	-0.641078	1.089596
F94	F	1.872402	-0.141078	1.589596
F95	F	0.957224	-0.432437	0.431677
F96	F	1.457224	0.067563	0.931677
H97	H	1.628063	-0.898132	0.466826
H98	H	2.128063	-0.398132	0.966826
F99	F	1.648412	-0.365318	0.836800
F100	F	2.148412	0.134682	1.336800
F101	F	1.439317	-1.056590	0.324782
F102	F	1.939317	-0.556590	0.824782
F103	F	1.439246	-0.949388	0.324773
F104	F	1.939246	-0.449388	0.824773
F105	F	0.892462	-0.637839	0.276941
F106	F	1.392462	-0.137839	0.776941
H107	H	1.631636	-0.382054	0.677828
H108	H	2.131636	0.117946	1.177828
F109	F	1.648404	-0.365258	0.920427
F110	F	2.148404	0.134742	1.420427
F111	F	1.648439	-0.365190	1.089654
F112	F	2.148439	0.134810	1.589654
F113	F	1.372364	-0.641148	0.920366
F114	F	1.872364	-0.141148	1.420366
H115	H	1.389064	-0.624465	0.826502
H116	H	1.889064	-0.124465	1.326502
H117	H	1.115270	-0.621142	0.289489
H118	H	1.615270	-0.121142	0.789489
