data_functionalizedCrystal
_audit_creation_method	'MofGen! by Chris Wilmer'
_symmetry_space_group_name_H-M	'P1'
_symmetry_Int_Tables_number	1
_symmetry_cell_setting	triclinic
loop_
_symmetry_equiv_pos_as_xyz
  x,y,z
_cell_length_a	27.440280
_cell_length_b	27.440280
_cell_length_c	18.426585
_cell_angle_alpha	120.008686
_cell_angle_beta	90.005578
_cell_angle_gamma	120.000029
loop_
_atom_site_label
_atom_site_type_symbol
_atom_site_fract_x
_atom_site_fract_y
_atom_site_fract_z
Zr1	Zr	0.469484	-0.533429	-0.095291
O2	O	0.391659	-0.635120	-0.211214
O3	O	0.493344	-0.431746	-0.059736
O4	O	0.493336	-0.533429	-0.211168
O5	O	0.391671	-0.533433	0.059649
O6	O	0.573539	-0.533420	-0.211153
O7	O	0.391667	-0.533437	-0.059782
O8	O	0.573553	-0.351527	0.059730
O9	O	0.391657	-0.715326	-0.211235
O10	O	0.563372	-0.473559	-0.044584
O11	O	0.503521	-0.473564	0.044535
O12	O	0.503511	-0.593283	-0.133756
O13	O	0.443660	-0.593287	-0.044638
Zr14	Zr	0.597405	-0.533408	0.095211
Zr15	Zr	0.597399	-0.533414	-0.095267
Zr16	Zr	0.469491	-0.533423	0.095187
Zr17	Zr	0.469481	-0.661348	-0.095325
Zr18	Zr	0.597409	-0.405489	0.095245
O19	O	0.573546	-0.635091	0.059656
O20	O	0.573536	-0.635099	-0.211180
O21	O	0.391668	-0.635112	0.059622
O22	O	0.675231	-0.431717	0.211133
O23	O	0.675222	-0.431725	-0.059703
O24	O	0.493353	-0.431738	0.211100
O25	O	0.675219	-0.533404	-0.059729
O26	O	0.573554	-0.533408	0.211088
O27	O	0.493351	-0.533417	0.211073
O28	O	0.675223	-0.533400	0.059702
O29	O	0.493331	-0.715314	-0.211216
O30	O	0.573558	-0.351523	0.211136
O31	O	0.675233	-0.351511	0.211154
O32	O	0.675228	-0.351515	0.059749
O33	O	0.391662	-0.715322	-0.059830
O34	O	0.493337	-0.715310	-0.059811
O35	O	0.563378	-0.473554	0.133676
O36	O	0.623230	-0.473550	0.044557
O37	O	0.563369	-0.593273	-0.044615
O38	O	0.503518	-0.593278	0.044504
C39	C	0.533449	-0.373411	0.000002
C40	C	0.533450	-0.319105	0.000016
C41	C	0.489249	-0.026614	-0.065868
C42	C	0.489248	0.024404	-0.065876
O43	O	0.451680	0.013205	-0.121869
N44	N	0.533435	0.094115	-0.000060
C45	C	0.577629	0.112809	0.065763
O46	O	0.615214	0.176789	0.121744
C47	C	0.577632	0.061792	0.065767
C48	C	0.533439	-0.007919	-0.000048
C49	C	0.445060	-0.096321	-0.131678
C50	C	0.445061	-0.147335	-0.131669
C51	C	0.489250	-0.128640	-0.065849
C52	C	0.533440	-0.058932	-0.000039
C53	C	0.621828	0.080487	0.131586
C54	C	0.621828	0.029463	0.131583
C55	C	0.577635	-0.040248	0.065768
C56	C	0.577630	-0.091251	0.065790
N57	N	0.533443	-0.160963	-0.000026
C58	C	0.489253	-0.179657	-0.065846
C59	C	0.577620	0.219944	0.065750
C60	C	0.577615	0.270961	0.065751
C61	C	0.489235	0.182552	-0.065890
C62	C	0.489238	0.131535	-0.065886
C63	C	0.533434	0.150233	-0.000066
C64	C	0.489258	-0.286786	-0.065821
C65	C	0.489261	-0.337800	-0.065804
C66	C	0.577643	-0.249386	0.065834
C67	C	0.577638	-0.198377	0.065820
C68	C	0.533443	-0.217081	-0.000015
O69	O	0.615180	-0.080105	0.121753
O70	O	0.451680	-0.243637	-0.121824
C71	C	0.373444	-0.533437	-0.000070
C72	C	0.319141	-0.533444	-0.000080
C73	C	0.013690	-0.470913	0.046532
C74	C	-0.037329	-0.470909	0.046539
O75	O	-0.037143	-0.417760	0.086153
N76	N	-0.094092	-0.533403	-0.000009
C77	C	-0.099836	-0.595904	-0.046560
O78	O	-0.152803	-0.649060	-0.086151
C79	C	-0.048818	-0.595907	-0.046562
C80	C	0.007944	-0.533409	-0.000019
C81	C	0.070450	-0.408420	0.093072
C82	C	0.121465	-0.408424	0.093063
C83	C	0.115719	-0.470921	0.046513
C84	C	0.058959	-0.533414	-0.000028
C85	C	-0.054563	-0.658408	-0.093108
C86	C	-0.003539	-0.658406	-0.093106
C87	C	0.053224	-0.595908	-0.046562
C88	C	0.104229	-0.595914	-0.046588
N89	N	0.160992	-0.533421	-0.000040
C90	C	0.166737	-0.470924	0.046511
C91	C	-0.206975	-0.595893	-0.046551
C92	C	-0.257992	-0.595891	-0.046554
C93	C	-0.195481	-0.470895	0.046547
C94	C	-0.144463	-0.470898	0.046545
C95	C	-0.150212	-0.533399	-0.000003
C96	C	0.273870	-0.470937	0.046487
C97	C	0.324886	-0.470947	0.046470
C98	C	0.262371	-0.595942	-0.046627
C99	C	0.211359	-0.595933	-0.046614
C100	C	0.217112	-0.533425	-0.000051
O101	O	0.104088	-0.649036	-0.086178
O102	O	0.219705	-0.417777	0.086105
C103	C	0.693446	-0.533400	-0.000010
C104	C	0.747749	-0.533393	-0.000000
C105	C	0.533438	0.306574	-0.000076
C106	C	0.533427	0.252270	-0.000072
C107	C	0.533437	-0.533425	-0.238300
C108	C	0.533434	-0.533428	-0.319163
C109	C	0.533456	-0.533407	-0.615247
C110	C	0.533451	-0.533410	-0.532865
C111	C	0.533445	-0.533417	-0.467207
C112	C	0.533440	-0.533420	-0.384821
C113	C	0.533453	-0.533412	0.238220
C114	C	0.533456	-0.533409	0.319083
C115	C	0.693450	-0.373392	0.000032
C116	C	0.747754	-0.319080	0.000056
C117	C	0.533457	-0.373404	0.238261
C118	C	0.533461	-0.319096	0.319139
C119	C	0.693458	-0.373385	0.238291
C120	C	0.747766	-0.319071	0.319179
C121	C	0.373431	-0.693452	-0.238371
C122	C	0.319124	-0.747766	-0.319259
C123	C	0.373440	-0.693445	-0.000112
C124	C	0.319135	-0.747757	-0.000136
C125	C	0.533433	-0.693433	-0.238342
C126	C	0.533428	-0.747741	-0.319219
C127	C	0.742011	-0.293580	-0.046471
C128	C	0.793031	-0.242556	-0.046466
C129	C	0.849793	-0.217029	0.000072
C130	C	0.855535	-0.242534	0.046601
C131	C	0.804516	-0.293561	0.046590
C132	C	0.564708	-0.293588	0.403658
C133	C	0.564710	-0.242567	0.479659
C134	C	0.533468	-0.217053	0.471137
C135	C	0.502217	-0.242566	0.386609
C136	C	0.502212	-0.293589	0.310610
C137	C	0.804516	-0.293562	0.310645
C138	C	0.855548	-0.242536	0.386640
C139	C	0.849829	-0.217016	0.471168
C140	C	0.793072	-0.242529	0.479700
C141	C	0.742041	-0.293558	0.403706
C142	C	0.262374	-0.773281	-0.310726
C143	C	0.211342	-0.824323	-0.386721
C144	C	0.217061	-0.849846	-0.471248
C145	C	0.273817	-0.824329	-0.479780
C146	C	0.324848	-0.773291	-0.403786
C147	C	0.324878	-0.773262	0.046383
C148	C	0.273859	-0.824301	0.046357
C149	C	0.217096	-0.849829	-0.000184
C150	C	0.211354	-0.824321	-0.046709
C151	C	0.262374	-0.773287	-0.046687
C152	C	0.564677	-0.773239	-0.310669
C153	C	0.564684	-0.824260	-0.386655
C154	C	0.533440	-0.849785	-0.471189
C155	C	0.502191	-0.824281	-0.479737
C156	C	0.502187	-0.773258	-0.403753
H157	H	0.453269	-0.394564	-0.119397
O158	O	-0.115777	-0.725820	-0.143305
H159	H	-0.140527	-0.728826	-0.194740
H160	H	0.175504	-0.891404	-0.533121
H161	H	0.901757	-0.221768	0.379678
O162	O	0.904871	-0.161969	0.553132
H163	H	0.945292	-0.148516	0.532988
H164	H	0.453271	-0.302026	-0.119431
O165	O	0.076659	-0.341004	0.143283
H166	H	0.031652	-0.351487	0.135480
O167	O	-0.009739	-0.725819	-0.143318
H168	H	-0.057781	-0.769272	-0.175685
H169	H	0.533448	-0.891332	-0.533054
H170	H	0.278467	-0.845117	-0.548612
H171	H	0.590130	-0.845020	-0.379677
H172	H	0.476752	-0.845072	-0.548576
O173	O	0.598428	-0.215043	0.570822
H174	H	0.620162	-0.241349	0.563972
O175	O	0.786906	-0.214992	0.570871
H176	H	0.831929	-0.175216	0.622273
O177	O	0.669500	0.049630	0.202570
H178	H	0.648261	0.028504	0.240507
O179	O	0.397403	-0.222519	-0.202674
H180	H	0.352850	-0.233922	-0.199468
H181	H	0.453249	0.074775	-0.119474
H182	H	0.257689	-0.752522	-0.084567
H183	H	0.901758	-0.221743	0.084490
O184	O	-0.083243	-0.403490	0.096744
H185	H	-0.058495	-0.400496	0.148167
O186	O	0.441577	0.162389	-0.136895
H187	H	0.449008	0.209579	-0.125842
H188	H	0.409075	-0.111555	-0.185281
H189	H	0.809184	-0.314334	0.241825
O190	O	0.386058	-0.745763	-0.412994
H191	H	0.381456	-0.772083	-0.484540
O192	O	0.810713	-0.321054	0.096791
H193	H	0.858756	-0.294720	0.129159
H194	H	0.165139	-0.646824	-0.084526
O195	O	0.680834	-0.321061	0.412922
H196	H	0.646304	-0.360835	0.345884
O197	O	0.669498	0.155668	0.202574
H198	H	0.662080	0.188013	0.191530
O199	O	0.256196	-0.745756	-0.219562
H200	H	0.277957	-0.755535	-0.182713
H201	H	0.613596	0.327720	0.119352
O202	O	0.280064	-0.851795	0.096554
H203	H	0.235054	-0.891576	0.088720
H204	H	0.165133	-0.845090	-0.379757
H205	H	0.371093	-0.752481	0.084288
O206	O	0.162070	-0.904854	-0.000175
H207	H	0.175605	-0.918286	0.040011
H208	H	0.613618	-0.141613	0.119420
H209	H	0.165132	-0.845115	-0.084601
O210	O	0.468473	-0.745766	-0.412979
H211	H	0.446744	-0.772097	-0.484528
H212	H	0.695797	-0.314363	-0.084379
O213	O	0.598405	-0.321105	0.412860
H214	H	0.620124	-0.294795	0.484406
H215	H	0.613619	-0.234176	0.119424
O216	O	0.533486	-0.162009	0.553110
H217	H	0.560473	-0.148554	0.613311
O218	O	0.598386	-0.745706	-0.219497
H219	H	0.620120	-0.772008	-0.226332
H220	H	0.476781	-0.221784	0.379684
O221	O	0.625286	0.240112	0.136750
H222	H	0.623109	0.271096	0.203091
O223	O	0.386111	-0.403536	0.096674
H224	H	0.381531	-0.360080	0.129051
H225	H	0.278563	-0.420037	0.084404
O226	O	0.182684	-0.341015	0.143267
H227	H	0.187880	-0.311051	0.214786
O228	O	-0.189286	-0.403483	0.096766
H229	H	-0.234300	-0.413987	0.088953
H230	H	-0.304207	-0.646783	-0.084466
H231	H	0.788344	-0.221795	-0.084355
O232	O	-0.213177	-0.663309	-0.096775
H233	H	-0.261220	-0.706759	-0.129146
H234	H	0.257703	-0.646825	-0.084530
H235	H	0.891332	-0.175479	0.000074
O236	O	0.468605	-0.321004	0.219449
H237	H	0.446922	-0.294649	0.226302
