data_functionalizedCrystal
_audit_creation_method	'MofGen! by Chris Wilmer'
_symmetry_space_group_name_H-M	'P1'
_symmetry_Int_Tables_number	1
_symmetry_cell_setting	triclinic
loop_
_symmetry_equiv_pos_as_xyz
  x,y,z
_cell_length_a	19.077105
_cell_length_b	16.959454
_cell_length_c	19.076919
_cell_angle_alpha	92.275489
_cell_angle_beta	90.076224
_cell_angle_gamma	87.716588
loop_
_atom_site_label
_atom_site_type_symbol
_atom_site_fract_x
_atom_site_fract_y
_atom_site_fract_z
Zn1	Zn	1.058295	-0.382399	-0.440440
Zn2	Zn	1.391629	-0.049065	-0.107107
Zn3	Zn	1.724962	0.284268	0.226227
Zn4	Zn	1.062944	-0.509490	-0.322940
Zn5	Zn	1.396277	-0.176157	0.010393
Zn6	Zn	1.729610	0.157177	0.343726
Zn7	Zn	0.945513	-0.371810	-0.318233
Zn8	Zn	1.278846	-0.038477	0.015101
Zn9	Zn	1.612179	0.294857	0.348434
Zn10	Zn	0.940765	-0.509013	-0.435693
Zn11	Zn	1.274099	-0.175680	-0.102360
Zn12	Zn	1.607432	0.157653	0.230974
O13	O	1.001879	-0.443178	-0.379326
O14	O	1.335213	-0.109845	-0.045993
O15	O	1.668546	0.223489	0.287340
O16	O	1.157244	-0.403889	-0.428810
O17	O	1.490577	-0.070555	-0.095477
O18	O	1.823911	0.262778	0.237857
O19	O	1.051298	-0.486995	-0.223984
O20	O	1.384632	-0.153661	0.109349
O21	O	1.717965	0.179672	0.442682
O22	O	0.960515	-0.262606	-0.334460
O23	O	1.293848	0.070727	-0.001127
O24	O	1.627182	0.404060	0.332207
O25	O	1.160659	-0.497262	-0.342484
O26	O	1.493993	-0.163929	-0.009150
O27	O	1.827326	0.169405	0.324183
O28	O	1.043376	-0.270386	-0.424245
O29	O	1.376709	0.062947	-0.090912
O30	O	1.710043	0.396281	0.242422
O31	O	0.965022	-0.385842	-0.220526
O32	O	1.298355	-0.052508	0.112808
O33	O	1.631689	0.280825	0.446141
O34	O	0.846551	-0.385379	-0.329857
O35	O	1.179884	-0.052046	0.003476
O36	O	1.513217	0.281287	0.336810
O37	O	0.952424	-0.496450	-0.534654
O38	O	1.285757	-0.163116	-0.201321
O39	O	1.619091	0.170217	0.132013
O40	O	0.843063	-0.486182	-0.416155
O41	O	1.176396	-0.152849	-0.082821
O42	O	1.509730	0.180485	0.250512
O43	O	1.038773	-0.403426	-0.538142
O44	O	1.372106	-0.070093	-0.204808
O45	O	1.705440	0.263240	0.128525
O46	O	1.046695	-0.620035	-0.337881
O47	O	1.380028	-0.286702	-0.004548
O48	O	1.713362	0.046632	0.328786
O49	O	0.956931	-0.619685	-0.420720
O50	O	1.290265	-0.286352	-0.087386
O51	O	1.623598	0.046982	0.245947
C52	C	0.819311	-0.434581	-0.371980
C53	C	1.152644	-0.101247	-0.038647
C54	C	1.485977	0.232086	0.294686
C55	C	0.741206	-0.430922	-0.368854
C56	C	1.074539	-0.097589	-0.035521
C57	C	1.407873	0.235744	0.297812
C58	C	0.702718	-0.481759	-0.412246
C59	C	1.036051	-0.148426	-0.078912
C60	C	1.369385	0.184907	0.254421
C61	C	0.629330	-0.478312	-0.409312
C62	C	0.962664	-0.144979	-0.075979
C63	C	1.295997	0.188355	0.257355
C64	C	0.594433	-0.424030	-0.362983
C65	C	0.927766	-0.090697	-0.029649
C66	C	1.261099	0.242636	0.303684
C67	C	0.632926	-0.373188	-0.319590
C68	C	0.966259	-0.039855	0.013744
C69	C	1.299593	0.293479	0.347077
C70	C	0.706312	-0.376632	-0.322528
C71	C	1.039645	-0.043299	0.010806
C72	C	1.372979	0.290034	0.344139
C73	C	0.375144	-0.408090	-0.349389
C74	C	0.708478	-0.074756	-0.016056
C75	C	1.041811	0.258577	0.317277
C76	C	0.301753	-0.404651	-0.346453
C77	C	0.635086	-0.071318	-0.013120
C78	C	0.968420	0.262016	0.320214
C79	C	0.298162	-0.509774	-0.436177
C80	C	0.631496	-0.176441	-0.102843
C81	C	0.964829	0.156892	0.230490
C82	C	0.371550	-0.513217	-0.439107
C83	C	0.704883	-0.179884	-0.105774
C84	C	1.038217	0.153450	0.227559
C85	C	0.410037	-0.462372	-0.395717
C86	C	0.743370	-0.129038	-0.062384
C87	C	1.076704	0.204295	0.270950
N88	N	0.519419	-0.420507	-0.359981
N89	N	0.852752	-0.087173	-0.026648
N90	N	1.186085	0.246160	0.306685
N91	N	0.485049	-0.465892	-0.398723
N92	N	0.818383	-0.132559	-0.065389
N93	N	1.151716	0.200775	0.267944
C94	C	1.001821	-0.648541	-0.379312
C95	C	1.335154	-0.315208	-0.045979
C96	C	1.668488	0.018126	0.287355
C97	C	1.001859	-0.736400	-0.379332
C98	C	1.335193	-0.403067	-0.045999
C99	C	1.668526	-0.069734	0.287335
C100	C	0.955205	-1.107727	-0.422458
C101	C	1.288538	-0.774394	-0.089125
C102	C	1.621871	-0.441060	0.244208
C103	C	1.048747	-1.108038	-0.336274
C104	C	1.382080	-0.774705	-0.002941
C105	C	1.715413	-0.441372	0.330393
C106	C	1.048723	-1.025491	-0.336266
C107	C	1.382056	-0.692158	-0.002933
C108	C	1.715389	-0.358824	0.330400
C109	C	1.001938	-0.984058	-0.379355
C110	C	1.335271	-0.650724	-0.046022
C111	C	1.668605	-0.317391	0.287312
C112	C	0.955178	-1.025172	-0.422451
C113	C	1.288511	-0.691839	-0.089117
C114	C	1.621844	-0.358505	0.244216
C115	C	1.095477	-0.984370	-0.293166
C116	C	1.428811	-0.651037	0.040167
C117	C	1.762144	-0.317704	0.373501
C118	C	1.095454	-0.901818	-0.293156
C119	C	1.428788	-0.568485	0.040177
C120	C	1.762121	-0.235151	0.373510
C121	C	1.048672	-0.860383	-0.336249
C122	C	1.382006	-0.527050	-0.002916
C123	C	1.715339	-0.193717	0.330418
C124	C	1.001911	-0.901503	-0.379347
C125	C	1.335244	-0.568169	-0.046014
C126	C	1.668577	-0.234836	0.287319
C127	C	0.955126	-0.860069	-0.422436
C128	C	1.288459	-0.526736	-0.089102
C129	C	1.621793	-0.193403	0.244231
C130	C	0.908367	-0.901187	-0.465538
C131	C	1.241701	-0.567854	-0.132205
C132	C	1.575034	-0.234521	0.201129
C133	C	0.908396	-0.983737	-0.465543
C134	C	1.241729	-0.650404	-0.132210
C135	C	1.575062	-0.317071	0.201123
C136	C	1.048644	-0.777834	-0.336244
C137	C	1.381977	-0.444500	-0.002910
C138	C	1.715311	-0.111167	0.330423
C139	C	0.955099	-0.777514	-0.422428
C140	C	1.288432	-0.444181	-0.089095
C141	C	1.621766	-0.110848	0.244239
C142	C	1.185161	-0.451810	-0.386702
C143	C	1.518494	-0.118476	-0.053368
C144	C	1.851828	0.214857	0.279965
C145	C	1.263265	-0.455488	-0.389844
C146	C	1.596598	-0.122155	-0.056511
C147	C	1.929931	0.211179	0.276822
C148	C	0.994550	-0.451066	-0.562607
C149	C	1.327884	-0.117733	-0.229274
C150	C	1.661217	0.215601	0.104060
C151	C	0.991427	-0.454427	-0.640710
C152	C	1.324761	-0.121094	-0.307377
C153	C	1.658094	0.212239	0.025956
C154	C	1.001956	-0.237015	-0.379357
C155	C	1.335290	0.096319	-0.046024
C156	C	1.668623	0.429652	0.287310
C157	C	1.001989	-0.149160	-0.379370
C158	C	1.335323	0.184173	-0.046037
C159	C	1.668656	0.517506	0.287297
C160	C	1.034915	-0.407577	-0.679220
C161	C	1.368248	-0.074243	-0.345887
C162	C	1.701582	0.259090	-0.012554
C163	C	1.031972	-0.410731	-0.752606
C164	C	1.365305	-0.077398	-0.419273
C165	C	1.698638	0.255935	-0.085940
C166	C	0.985544	-0.460742	-0.787481
C167	C	1.318877	-0.127409	-0.454148
C168	C	1.652211	0.205925	-0.120814
C169	C	0.942052	-0.507595	-0.748966
C170	C	1.275385	-0.174261	-0.415633
C171	C	1.608718	0.159072	-0.082299
C172	C	0.944992	-0.504435	-0.675581
C173	C	1.278325	-0.171102	-0.342248
C174	C	1.611658	0.162232	-0.008914
C175	C	0.971927	-0.475381	-1.006763
C176	C	1.305260	-0.142048	-0.673430
C177	C	1.638594	0.191286	-0.340096
C178	C	0.968992	-0.478539	-1.080153
C179	C	1.302325	-0.145206	-0.746820
C180	C	1.635658	0.188128	-0.413486
C181	C	1.058911	-0.381674	-1.083788
C182	C	1.392245	-0.048341	-0.750455
C183	C	1.725578	0.284992	-0.417122
C184	C	1.061850	-0.378523	-1.010402
C185	C	1.395184	-0.045189	-0.677069
C186	C	1.728517	0.288144	-0.343736
C187	C	1.018355	-0.425372	-0.971893
C188	C	1.351689	-0.092039	-0.638560
C189	C	1.685022	0.241295	-0.305227
N190	N	0.982536	-0.463970	-0.862493
N191	N	1.315870	-0.130637	-0.529160
N192	N	1.649203	0.202697	-0.195827
N193	N	1.021360	-0.422140	-0.896882
N194	N	1.354693	-0.088806	-0.563549
N195	N	1.688027	0.244527	-0.230216
C196	C	1.009220	-0.435266	-0.196760
C197	C	1.342553	-0.101932	0.136573
C198	C	1.675887	0.231401	0.469906
C199	C	1.012479	-0.431688	-0.118663
C200	C	1.345813	-0.098355	0.214670
C201	C	1.679146	0.234979	0.548004
H202	H	0.406472	-0.366694	-0.314052
H203	H	0.739805	-0.033360	0.019281
H204	H	1.073138	0.299973	0.352614
F205	F	0.747274	-0.322523	-0.276346
F206	F	1.080607	0.010811	0.056987
F207	F	1.413940	0.344144	0.390321
H208	H	1.086833	-1.141778	-0.301189
H209	H	1.420166	-0.808444	0.032144
H210	H	1.753499	-0.475111	0.365478
F211	F	0.858635	-1.027503	-0.511411
F212	F	1.191969	-0.694170	-0.178078
F213	F	1.525302	-0.360836	0.155256
F214	F	1.105197	-0.331815	-1.124777
F215	F	1.438530	0.001518	-0.791444
F216	F	1.771863	0.334851	-0.458111
F217	F	0.919572	-0.531766	-1.117268
F218	F	1.252905	-0.198433	-0.783934
F219	F	1.586239	0.134901	-0.450601
F220	F	0.408686	-0.570992	-0.488416
F221	F	0.742019	-0.237659	-0.155082
F222	F	1.075352	0.095674	0.178251
H223	H	0.936521	-0.513541	-0.975418
H224	H	1.269854	-0.180208	-0.642085
H225	H	1.603187	0.153125	-0.308752
H226	H	0.731126	-0.525964	-0.449970
H227	H	1.064460	-0.192631	-0.116636
H228	H	1.397793	0.140703	0.216697
H229	H	0.604506	-0.328988	-0.281870
H230	H	0.937840	0.004346	0.051463
H231	H	1.271173	0.337679	0.384796
F232	F	1.145268	-1.028470	-0.247314
F233	F	1.478601	-0.695137	0.086019
F234	F	1.811934	-0.361804	0.419352
H235	H	0.904247	-0.548311	-0.777367
H236	H	1.237580	-0.214978	-0.444033
H237	H	1.570913	0.118355	-0.110700
H238	H	0.909572	-0.542578	-0.644227
H239	H	1.242906	-0.209244	-0.310893
H240	H	1.576239	0.124089	0.022440
H241	H	0.917137	-1.141209	-0.457553
H242	H	1.250470	-0.807876	-0.124220
H243	H	1.583803	-0.474542	0.209113
H244	H	0.266818	-0.551169	-0.471504
H245	H	0.600152	-0.217835	-0.138170
H246	H	0.933485	0.115498	0.195163
F247	F	0.588371	-0.532420	-0.455495
F248	F	0.921705	-0.199086	-0.122162
F249	F	1.255038	0.134247	0.211171
H250	H	0.870272	-0.867443	-0.500618
H251	H	1.203605	-0.534109	-0.167284
H252	H	1.536938	-0.200776	0.166049
H253	H	1.072724	-0.366855	-0.650831
H254	H	1.406057	-0.033522	-0.317497
H255	H	1.739390	0.299812	0.015836
F256	F	1.145223	-0.858065	-0.247288
F257	F	1.478556	-0.524732	0.086045
F258	F	1.811889	-0.191398	0.419378
H259	H	0.917003	-0.743785	-0.457519
H260	H	1.250337	-0.410451	-0.124185
H261	H	1.583670	-0.077118	0.209148
H262	H	0.273341	-0.360439	-0.308731
H263	H	0.606675	-0.027106	0.024603
H264	H	0.940008	0.306227	0.357936
H265	H	1.067386	-0.372582	-0.783958
H266	H	1.400719	-0.039249	-0.450625
H267	H	1.734052	0.294084	-0.117291
F268	F	1.098398	-0.734076	-0.290368
F269	F	1.431731	-0.400742	0.042966
F270	F	1.765065	-0.067409	0.376299
F271	F	1.111265	-0.325295	-0.973291
F272	F	1.444599	0.008038	-0.639958
F273	F	1.777932	0.341372	-0.306624
