data_functionalizedCrystal
_audit_creation_method	'MofGen! by Chris Wilmer'
_symmetry_space_group_name_H-M	'P1'
_symmetry_Int_Tables_number	1
_symmetry_cell_setting	triclinic
loop_
_symmetry_equiv_pos_as_xyz
  x,y,z
_cell_length_a	10.654550
_cell_length_b	11.792241
_cell_length_c	9.730223
_cell_angle_alpha	89.998500
_cell_angle_beta	89.996251
_cell_angle_gamma	84.339159
loop_
_atom_site_label
_atom_site_type_symbol
_atom_site_fract_x
_atom_site_fract_y
_atom_site_fract_z
O1	O	1.667383	0.159415	-0.114404
O2	O	1.301862	0.174603	-0.114382
O3	O	1.493493	0.001859	-0.114383
O4	O	1.475752	0.332159	-0.114402
O5	O	1.493490	0.001863	0.114196
O6	O	1.301859	0.174608	0.114198
O7	O	1.667381	0.159419	0.114176
Zn8	Zn	1.484620	0.167014	0.150479
Zn9	Zn	1.484623	0.167008	-0.150685
O10	O	1.475750	0.332163	0.114178
C11	C	1.255066	0.173490	-0.000089
C12	C	1.115632	0.170154	-0.000080
C13	C	1.035858	0.271863	-0.000106
C14	C	0.904847	0.268721	-0.000129
C15	C	0.933394	0.062152	-0.000107
C16	C	1.064404	0.065295	-0.000074
C17	C	1.087087	0.376722	-0.000112
C18	C	1.007312	0.478439	-0.000139
C19	C	0.876300	0.475297	-0.000163
C20	C	0.825063	0.370438	-0.000159
C21	C	1.492377	-0.040432	-0.000094
C22	C	1.489042	-0.166454	-0.000095
C23	C	1.482908	-0.397180	-0.000118
C24	C	1.486316	-0.268787	-0.000105
C25	C	1.714177	0.160532	-0.000120
C26	C	1.853611	0.163869	-0.000137
C27	C	1.476865	0.374455	-0.000114
C28	C	1.480201	0.500476	-0.000122
N29	N	1.484627	0.167017	0.356016
N30	N	1.484625	0.166996	-0.356221
C31	C	1.569503	0.090552	0.427941
C32	C	1.569500	0.090539	0.571824
C33	C	1.399740	0.243465	0.571844
C34	C	1.399739	0.243472	0.427963
C35	C	1.654391	0.014098	0.355993
C36	C	1.739275	-0.062373	0.427919
C37	C	1.739272	-0.062387	0.571802
C38	C	1.654385	0.014070	0.643759
H39	H	0.891666	-0.023220	-0.000127
H40	H	1.049039	0.563812	-0.000130
H41	H	1.129358	-0.017526	-0.000057
O42	O	1.317467	0.317798	0.357933
C43	C	1.385192	0.388410	0.274726
H44	H	1.483159	0.344034	0.253171
H45	H	1.394282	0.472372	0.330172
C46	C	1.194229	0.466571	0.164530
C47	C	1.314551	0.412063	0.138046
H48	H	1.150653	0.481167	0.080221
H49	H	1.148600	0.419002	0.220591
H50	H	1.201821	0.536534	0.210738
H51	H	1.306957	0.342096	0.091854
H52	H	1.360178	0.459621	0.081973
H53	H	1.193762	0.379291	-0.000099
H54	H	1.330630	0.305714	0.630441
H55	H	1.654404	0.014104	0.238837
H56	H	0.718383	0.367888	-0.000157
H57	H	0.811350	0.558120	-0.000171
O58	O	1.821637	-0.136572	0.357813
C59	C	1.803398	-0.120207	0.215396
H60	H	1.757130	-0.030340	0.195737
H61	H	1.739917	-0.184944	0.174605
C62	C	1.988557	-0.246649	0.165631
C63	C	1.931739	-0.136271	0.141485
H64	H	2.067721	-0.256563	0.120037
H65	H	2.000842	-0.257679	0.261580
H66	H	1.935643	-0.300585	0.131638
H67	H	1.984645	-0.082338	0.175492
H68	H	1.919465	-0.125232	0.045540
O69	O	1.821839	-0.136711	0.641459
C70	C	1.896734	-0.204206	0.547097
H71	H	1.898464	-0.157648	0.444539
H72	H	1.855395	-0.288869	0.531788
C73	C	2.029929	-0.283643	0.729203
C74	C	2.032062	-0.226455	0.603243
H75	H	2.113404	-0.297373	0.763838
H76	H	1.979469	-0.238174	0.792778
H77	H	1.995474	-0.354190	0.716429
H78	H	2.066501	-0.155905	0.616022
H79	H	2.082531	-0.271913	0.539671
H80	H	1.654381	0.014044	0.760918
