data_functionalizedCrystal
_audit_creation_method	'MofGen! by Chris Wilmer'
_symmetry_space_group_name_H-M	'P1'
_symmetry_Int_Tables_number	1
_symmetry_cell_setting	triclinic
loop_
_symmetry_equiv_pos_as_xyz
  x,y,z
_cell_length_a	17.019372
_cell_length_b	17.038272
_cell_length_c	14.185569
_cell_angle_alpha	104.124903
_cell_angle_beta	73.123989
_cell_angle_gamma	87.242864
loop_
_atom_site_label
_atom_site_type_symbol
_atom_site_fract_x
_atom_site_fract_y
_atom_site_fract_z
O1	O	1.054875	0.097951	-0.007625
O2	O	0.822042	0.114933	0.012473
O3	O	0.937076	-0.007348	0.002535
O4	O	0.939841	0.220233	0.002312
O5	O	0.971059	-0.043467	-0.167235
O6	O	0.856024	0.078814	-0.157298
O7	O	1.088858	0.061832	-0.177395
Cu8	Cu	0.975544	0.067025	-0.182848
Cu9	Cu	0.935355	0.109740	0.017925
O10	O	0.973823	0.184114	-0.167458
C11	C	0.809094	0.096943	-0.069828
C12	C	0.719887	0.097139	-0.062128
C13	C	0.214405	0.099223	-0.013868
C14	C	0.298228	0.099036	-0.021117
C15	C	0.358655	0.079260	-0.117284
C16	C	0.335256	0.059661	-0.206208
C17	C	0.251435	0.059843	-0.198958
C18	C	0.612667	0.077722	-0.143803
C19	C	0.696493	0.077544	-0.151046
C20	C	0.659458	0.116918	0.034046
C21	C	0.575637	0.117102	0.041287
C22	C	0.552246	0.097499	-0.047637
C23	C	0.444335	0.079071	-0.124695
C24	C	0.466567	0.097683	-0.040224
C25	C	0.951550	-0.054488	-0.082133
C26	C	0.944040	-0.141136	-0.081484
C27	C	1.012991	-0.192577	-0.087437
C28	C	1.005928	-0.273989	-0.086818
C29	C	0.929914	-0.303961	-0.080253
C30	C	0.860958	-0.252514	-0.074297
C31	C	0.868020	-0.171101	-0.074909
C32	C	0.904963	-0.549236	-0.078085
C33	C	0.897906	-0.630656	-0.077477
C34	C	1.042877	-0.652126	-0.089996
C35	C	1.049934	-0.570712	-0.090614
C36	C	0.980976	-0.519270	-0.084652
C37	C	0.922694	-0.387179	-0.079623
C38	C	0.988196	-0.436053	-0.085275
C39	C	1.101804	0.079823	-0.095092
C40	C	1.191011	0.079629	-0.102785
C41	C	0.959348	0.231253	-0.082788
C42	C	0.966857	0.317903	-0.083430
N43	N	1.003816	0.036981	-0.324061
C44	C	0.824024	0.228014	-0.676179
C45	C	0.845445	0.205261	-0.783051
C46	C	0.947333	0.097020	-0.791814
C47	C	0.925917	0.119761	-0.684941
C48	C	0.864263	0.185259	-0.627131
C49	C	0.966156	0.077006	-0.635893
C50	C	0.944745	0.099749	-0.529028
C51	C	0.883094	0.165246	-0.471212
C52	C	0.842851	0.208002	-0.520267
C53	C	1.027815	0.011512	-0.693704
C54	C	1.068054	-0.031243	-0.644656
C55	C	1.046639	-0.008504	-0.537789
C56	C	0.984988	0.056993	-0.479973
C57	C	1.086882	-0.051260	-0.488734
C58	C	1.065470	-0.028517	-0.381870
C59	C	0.963577	0.079736	-0.373109
N60	N	0.907089	0.139778	0.159138
H61	H	0.417364	0.113782	0.038075
H62	H	0.526441	0.133205	0.119597
H63	H	1.137087	-0.104584	-0.535817
H64	H	0.773812	0.281344	-0.629108
H65	H	0.836007	-0.655059	-0.072147
C66	C	0.684745	0.138089	0.130672
C67	C	0.657611	0.082710	0.187887
C68	C	0.680878	0.102193	0.276916
H69	H	0.743305	0.135140	0.112732
H70	H	0.660357	0.191820	0.170207
H71	H	0.682001	0.028993	0.148360
H72	H	0.599054	0.085650	0.205854
H73	H	0.656491	0.155924	0.316451
H74	H	0.739438	0.099245	0.258966
H75	H	0.662465	0.064627	0.315752
C76	C	0.793059	-0.115305	-0.068281
C77	C	0.730124	-0.110062	0.022974
C78	C	0.661051	-0.058677	0.029114
H79	H	0.808028	-0.062486	-0.069521
H80	H	0.773916	-0.136835	-0.124777
H81	H	0.749264	-0.088528	0.079455
H82	H	0.715130	-0.162866	0.024234
H83	H	0.641908	-0.080208	-0.027382
H84	H	0.676028	-0.005862	0.027871
H85	H	0.618338	-0.055119	0.091026
H86	H	1.098238	-0.063332	-0.341935
H87	H	0.745693	0.061444	-0.229360
C88	C	0.323732	0.120423	0.075343
C89	C	0.366346	0.188766	0.076967
C90	C	0.389860	0.208484	0.165809
H91	H	0.275809	0.132290	0.133730
H92	H	0.358714	0.075572	0.076110
H93	H	0.331366	0.233607	0.076211
H94	H	0.414279	0.176918	0.018601
H95	H	0.424842	0.163633	0.166575
H96	H	0.341932	0.220347	0.224188
H97	H	0.418783	0.254852	0.166918
H98	H	0.165208	0.115333	0.064442
H99	H	0.232390	0.043895	-0.271364
H100	H	1.099018	-0.694017	-0.094848
H101	H	0.593634	0.061748	-0.216211
H102	H	1.045248	-0.007000	-0.780720
H103	H	0.812673	0.240084	-0.822980
C104	C	0.400981	0.038252	-0.310526
C105	C	0.479395	0.042309	-0.297846
C106	C	0.539958	0.022605	-0.393922
H107	H	0.397978	-0.015436	-0.347714
H108	H	0.391882	0.075835	-0.347107
H109	H	0.488492	0.004728	-0.261281
H110	H	0.482425	0.095990	-0.260674
H111	H	0.530859	0.060188	-0.430503
H112	H	0.536947	-0.031081	-0.431103
H113	H	0.593168	0.025363	-0.385332
C114	C	1.135108	-0.102262	-0.707377
C115	C	1.209639	-0.085559	-0.688260
C116	C	1.271427	-0.150963	-0.746024
H117	H	1.119425	-0.150523	-0.688852
H118	H	1.142157	-0.109688	-0.778062
H119	H	1.202591	-0.078142	-0.617590
H120	H	1.225348	-0.037310	-0.706789
H121	H	1.278475	-0.158389	-0.816710
H122	H	1.255736	-0.199219	-0.727495
H123	H	1.322005	-0.139636	-0.733069
H124	H	1.111832	-0.546315	-0.095959
H125	H	0.799064	-0.276922	-0.068945
C126	C	1.095583	-0.160181	-0.094515
C127	C	1.154448	-0.222653	-0.099565
C128	C	1.230538	-0.192839	-0.106067
H129	H	1.113316	-0.141476	-0.154209
H130	H	1.089535	-0.116288	-0.035789
H131	H	1.160497	-0.266531	-0.158285
H132	H	1.136742	-0.241363	-0.039878
H133	H	1.224490	-0.148946	-0.047342
H134	H	1.248263	-0.174135	-0.165762
H135	H	1.270485	-0.235219	-0.109485
C136	C	1.080723	-0.329828	-0.093067
C137	C	1.063434	-0.358584	-0.005722
C138	C	1.132323	-0.410013	-0.011433
H139	H	1.092892	-0.374696	-0.152225
H140	H	1.127013	-0.300331	-0.097015
H141	H	1.017158	-0.388080	-0.001784
H142	H	1.051275	-0.313734	0.053449
H143	H	1.178613	-0.380516	-0.015381
H144	H	1.144486	-0.454877	-0.070594
H145	H	1.120604	-0.429525	0.047833
H146	H	0.493544	0.062970	-0.202995
H147	H	0.848812	-0.507362	-0.073231
H148	H	1.050082	-0.411641	-0.090597
H149	H	0.997535	0.043692	-0.838895
C150	C	0.840187	-0.419802	-0.072351
C151	C	0.814428	-0.447345	0.015695
C152	C	0.738434	-0.477415	0.022422
H153	H	0.800043	-0.377579	-0.068839
H154	H	0.846261	-0.463754	-0.131024
H155	H	0.808349	-0.403397	0.074353
H156	H	0.854551	-0.489575	0.012203
H157	H	0.744508	-0.521367	-0.036250
H158	H	0.698296	-0.435189	0.025931
H159	H	0.720950	-0.496113	0.082156
C160	C	0.896745	0.150958	-0.310394
C161	C	0.920213	0.221919	-0.337935
C162	C	0.858677	0.287543	-0.280173
H163	H	0.846072	0.139877	-0.323198
H164	H	0.889767	0.158430	-0.239717
H165	H	0.927181	0.214447	-0.408595
H166	H	0.970876	0.233026	-0.325127
H167	H	0.851699	0.295015	-0.209496
H168	H	0.808008	0.276453	-0.292981
H169	H	0.874596	0.335699	-0.298844
C170	C	0.775915	0.279162	-0.457674
C171	C	0.745265	0.311752	-0.523498
C172	C	0.683615	0.377309	-0.465875
H173	H	0.732167	0.260667	-0.412935
H174	H	0.798644	0.320032	-0.418683
H175	H	0.722535	0.270890	-0.562472
H176	H	0.788993	0.330264	-0.568237
H177	H	0.706343	0.418179	-0.426885
H178	H	0.639872	0.358807	-0.421139
H179	H	0.662816	0.399434	-0.510529
H180	H	0.865665	0.183764	-0.384197
