data_functionalizedCrystal
_audit_creation_method	'MofGen! by Chris Wilmer'
_symmetry_space_group_name_H-M	'P1'
_symmetry_Int_Tables_number	1
_symmetry_cell_setting	triclinic
loop_
_symmetry_equiv_pos_as_xyz
  x,y,z
_cell_length_a	17.640112
_cell_length_b	19.120786
_cell_length_c	17.639306
_cell_angle_alpha	99.260613
_cell_angle_beta	87.804122
_cell_angle_gamma	104.119216
loop_
_atom_site_label
_atom_site_type_symbol
_atom_site_fract_x
_atom_site_fract_y
_atom_site_fract_z
Zn1	Zn	1.242712	-0.090587	-0.191727
Zn2	Zn	1.742712	0.409413	0.308273
Zn3	Zn	1.211437	-0.190204	-0.061080
Zn4	Zn	1.711437	0.309796	0.438920
Zn5	Zn	1.089548	-0.099887	-0.090037
Zn6	Zn	1.589548	0.400113	0.409963
Zn7	Zn	1.107610	-0.235941	-0.211966
Zn8	Zn	1.607610	0.264059	0.288034
O9	O	1.162827	-0.154155	-0.138703
O10	O	1.662827	0.345845	0.361297
O11	O	1.346115	-0.080768	-0.153808
O12	O	1.846115	0.419232	0.346192
O13	O	1.174620	-0.162974	0.040782
O14	O	1.674620	0.337026	0.540782
O15	O	1.115395	-0.000024	-0.107175
O16	O	1.615395	0.499976	0.392825
O17	O	1.323138	-0.153956	-0.057823
O18	O	1.823138	0.346044	0.442177
O19	O	1.227924	0.006809	-0.181887
O20	O	1.727924	0.506809	0.318113
O21	O	1.085069	-0.096618	0.019508
O22	O	1.585069	0.403382	0.519508
O23	O	0.984392	-0.140968	-0.126800
O24	O	1.484392	0.359032	0.373200
O25	O	1.146179	-0.231909	-0.314985
O26	O	1.646179	0.268091	0.185015
O27	O	0.997662	-0.240927	-0.216381
O28	O	1.497662	0.259073	0.283619
O29	O	1.245438	-0.125118	-0.300116
O30	O	1.745438	0.374882	0.199884
O31	O	1.192135	-0.294900	-0.077447
O32	O	1.692135	0.205100	0.422553
O33	O	1.115853	-0.328503	-0.188302
O34	O	1.615853	0.171497	0.311698
C35	C	0.963140	-0.196920	-0.176929
C36	C	1.463140	0.303080	0.323071
C37	C	0.877715	-0.215235	-0.193300
C38	C	1.377715	0.284765	0.306700
C39	C	1.152584	-0.337273	-0.131941
C40	C	1.652584	0.162727	0.368059
C41	C	1.148278	-0.415601	-0.129060
C42	C	1.648278	0.084399	0.370940
C43	C	0.562203	-0.015007	-0.014344
C44	C	1.062203	0.484993	0.485656
C45	C	0.481935	-0.032232	-0.029736
C46	C	0.981935	0.467768	0.470264
C47	C	0.495768	-0.136419	-0.122845
C48	C	0.995768	0.363581	0.377155
C49	C	0.576040	-0.119201	-0.107464
C50	C	1.076040	0.380799	0.392536
C51	C	0.609251	-0.058494	-0.053211
C52	C	1.109251	0.441506	0.446789
C53	C	0.623087	-0.162688	-0.146331
C54	C	1.123087	0.337312	0.353669
C55	C	0.703351	-0.145472	-0.130947
C56	C	1.203351	0.354528	0.369053
C57	C	0.736567	-0.084770	-0.076696
C58	C	1.236567	0.415230	0.423304
C59	C	0.689514	-0.041279	-0.037828
C60	C	1.189514	0.458721	0.462172
C61	C	0.589874	-0.223397	-0.200579
C62	C	1.089874	0.276603	0.299421
C63	C	0.636921	-0.266884	-0.239447
C64	C	1.136921	0.233116	0.260553
C65	C	0.717188	-0.249666	-0.224067
C66	C	1.217188	0.250334	0.275933
C67	C	0.750404	-0.188963	-0.169816
C68	C	1.250404	0.311037	0.330184
C69	C	0.764241	-0.293157	-0.262936
C70	C	1.264241	0.206843	0.237064
C71	C	0.844505	-0.275942	-0.247552
C72	C	1.344505	0.224058	0.252448
C73	C	0.830668	-0.171748	-0.154432
C74	C	1.330668	0.328252	0.345568
C75	C	1.204814	-0.448795	-0.166652
C76	C	1.704814	0.051205	0.333348
C77	C	1.200764	-0.522393	-0.163947
C78	C	1.700764	-0.022393	0.336053
C79	C	1.140182	-0.562794	-0.123646
C80	C	1.640182	-0.062794	0.376354
C81	C	1.083640	-0.529595	-0.086054
C82	C	1.583640	-0.029595	0.413946
C83	C	1.087687	-0.456000	-0.088764
C84	C	1.587687	0.044000	0.411236
C85	C	1.125031	-0.785185	-0.113519
C86	C	1.625031	-0.285185	0.386481
C87	C	1.120989	-0.858785	-0.110810
C88	C	1.620989	-0.358785	0.389190
C89	C	1.238113	-0.851577	-0.188705
C90	C	1.738113	-0.351577	0.311295
C91	C	1.242157	-0.777980	-0.191407
C92	C	1.742157	-0.277980	0.308593
C93	C	1.185614	-0.744789	-0.153819
C94	C	1.685614	-0.244789	0.346181
C95	C	1.136043	-0.638022	-0.120878
C96	C	1.636043	-0.138022	0.379122
C97	C	1.189750	-0.669563	-0.156591
C98	C	1.689750	-0.169563	0.343409
C99	C	1.363293	-0.111223	-0.100328
C100	C	1.863293	0.388777	0.399672
C101	C	1.448720	-0.092927	-0.083975
C102	C	1.948720	0.407073	0.416025
C103	C	1.201312	-0.182578	-0.335725
C104	C	1.701312	0.317422	0.164275
C105	C	1.217712	-0.194690	-0.419684
C106	C	1.717712	0.305310	0.080316
C107	C	1.173133	0.029681	-0.145503
C108	C	1.673133	0.529681	0.354497
C109	C	1.177525	0.108021	-0.148401
C110	C	1.677525	0.608021	0.351599
C111	C	1.038549	-0.061813	-0.751215
C112	C	1.538549	0.438187	-0.251215
C113	C	1.053976	-0.073205	-0.830104
C114	C	1.553976	0.426795	-0.330104
C115	C	1.147217	-0.142294	-0.807933
C116	C	1.647217	0.357706	-0.307933
C117	C	1.131800	-0.130904	-0.729041
C118	C	1.631800	0.369096	-0.229041
C119	C	1.077465	-0.090664	-0.700688
C120	C	1.577465	0.409336	-0.200688
C121	C	1.170716	-0.159755	-0.678514
C122	C	1.670716	0.340245	-0.178514
C123	C	1.155298	-0.148370	-0.599629
C124	C	1.655298	0.351630	-0.099629
C125	C	1.100964	-0.108133	-0.571271
C126	C	1.600964	0.391867	-0.071271
C127	C	1.062047	-0.079278	-0.621803
C128	C	1.562047	0.420722	-0.121803
C129	C	1.225047	-0.200000	-0.706868
C130	C	1.725047	0.300000	-0.206868
C131	C	1.263963	-0.228851	-0.656341
C132	C	1.763963	0.271149	-0.156341
C133	C	1.248549	-0.217461	-0.577454
C134	C	1.748549	0.282539	-0.077454
C135	C	1.194215	-0.177224	-0.549096
C136	C	1.694215	0.322776	-0.049096
C137	C	1.287466	-0.246316	-0.526921
C138	C	1.787466	0.253684	-0.026921
C139	C	1.272048	-0.234930	-0.448036
C140	C	1.772048	0.265070	0.051964
C141	C	1.178796	-0.165839	-0.470211
C142	C	1.678796	0.334161	0.029789
C143	C	1.124538	-0.125782	0.057559
C144	C	1.624538	0.374218	0.557559
C145	C	1.108298	-0.113439	0.141539
C146	C	1.608298	0.386561	0.641539
H147	H	0.857712	-0.122306	-0.110266
H148	H	1.357712	0.377694	0.389734
C149	C	0.726054	0.025506	0.021839
C150	C	1.226054	0.525506	0.521839
H151	H	0.686540	0.048943	0.042785
H152	H	1.186540	0.548943	0.542785
H153	H	0.764735	0.058705	-0.002250
H154	H	1.264735	0.558705	0.497750
H155	H	0.749419	0.010064	0.061799
H156	H	1.249419	0.510064	0.561799
C157	C	1.323735	-0.273106	-0.687529
C158	C	1.823735	0.226894	-0.187529
H159	H	1.344703	-0.288659	-0.646137
H160	H	1.844703	0.211341	-0.146137
H161	H	1.364744	-0.243410	-0.712888
H162	H	1.864744	0.256590	-0.212888
H163	H	1.298630	-0.314560	-0.722793
H164	H	1.798630	0.185440	-0.222793
H165	H	0.468716	-0.185848	-0.167015
H166	H	0.968716	0.314152	0.332985
C167	C	1.314852	-0.266662	-0.392451
C168	C	1.814852	0.233338	0.107549
H169	H	1.297881	-0.254124	-0.341410
H170	H	1.797881	0.245876	0.158590
H171	H	1.369597	-0.247154	-0.395867
H172	H	1.869597	0.252846	0.104133
H173	H	1.303471	-0.318296	-0.405777
H174	H	1.803471	0.181704	0.094223
C175	C	1.271447	-0.404363	-0.210994
C176	C	1.771447	0.095637	0.289006
H177	H	1.304531	-0.434679	-0.233003
H178	H	1.804531	0.065321	0.266997
H179	H	1.300906	-0.364289	-0.176779
H180	H	1.800906	0.135711	0.323221
H181	H	1.250008	-0.386724	-0.250575
H182	H	1.750008	0.113276	0.249425
H183	H	0.589248	0.034435	0.029822
H184	H	1.089248	0.534435	0.529822
C185	C	1.347232	-0.290577	-0.558112
C186	C	1.847232	0.209423	-0.058112
H187	H	1.368199	-0.306132	-0.516721
H188	H	1.868199	0.193868	-0.016721
H189	H	1.388241	-0.260886	-0.583475
H190	H	1.888241	0.239114	-0.083475
H191	H	1.322119	-0.332030	-0.593374
H192	H	1.822119	0.167970	-0.093374
C193	C	0.430186	0.015611	0.013018
C194	C	0.930186	0.515611	0.513018
H195	H	0.461464	0.054233	0.047526
H196	H	0.961464	0.554233	0.547526
H197	H	0.390927	-0.013262	0.040968
H198	H	0.890927	0.486738	0.540968
H199	H	0.406250	0.035390	-0.023070
H200	H	0.906250	0.535390	0.476930
C201	C	0.824855	-0.065828	-0.059769
C202	C	1.324855	0.434172	0.440231
H203	H	0.837893	-0.023450	-0.021888
H204	H	1.337893	0.476550	0.478112
H205	H	0.853229	-0.056849	-0.105498
H206	H	1.353229	0.443151	0.394502
H207	H	0.837908	-0.105502	-0.041461
H208	H	1.337908	0.394498	0.458539
C209	C	0.727716	-0.359900	-0.322648
C210	C	1.227716	0.140100	0.177352
H211	H	0.767234	-0.383328	-0.343603
H212	H	1.267234	0.116672	0.156397
H213	H	0.704366	-0.344417	-0.362583
H214	H	1.204366	0.155583	0.137417
H215	H	0.689023	-0.393132	-0.298602
H216	H	1.189023	0.106868	0.201398
H217	H	0.882812	-0.311353	-0.279203
H218	H	1.382812	0.188647	0.220797
C219	C	1.256381	-0.625131	-0.200931
C220	C	1.756381	-0.125131	0.299069
H221	H	1.289473	-0.655440	-0.222939
H222	H	1.789473	-0.155440	0.277061
H223	H	1.285832	-0.585056	-0.166711
H224	H	1.785832	-0.085056	0.333289
H225	H	1.234941	-0.607492	-0.240512
H226	H	1.734941	-0.107492	0.259488
H227	H	1.017810	-0.046501	-0.598717
H228	H	1.517810	0.453499	-0.098717
H229	H	1.246807	-0.549414	-0.194550
H230	H	1.746807	-0.049414	0.305450
C231	C	0.501584	-0.242343	-0.217496
C232	C	1.001584	0.257657	0.282504
H233	H	0.488541	-0.284732	-0.255363
H234	H	0.988541	0.215268	0.244637
H235	H	0.488520	-0.202678	-0.235801
H236	H	0.988520	0.297322	0.264199
H237	H	0.473221	-0.251323	-0.171757
H238	H	0.973221	0.248677	0.328243
C239	C	0.600386	-0.333654	-0.299123
C240	C	1.100386	0.166346	0.200877
H241	H	0.545846	-0.337677	-0.302723
H242	H	1.045846	0.162323	0.197277
H243	H	0.608726	-0.376566	-0.283722
H244	H	1.108726	0.123434	0.216278
H245	H	0.624041	-0.327903	-0.347751
H246	H	1.124041	0.172097	0.152249
C247	C	1.308808	-0.733539	-0.235724
C248	C	1.808808	-0.233539	0.264276
H249	H	1.341900	-0.763850	-0.257725
H250	H	1.841900	-0.263850	0.242275
H251	H	1.338251	-0.693475	-0.201485
H252	H	1.838251	-0.193475	0.298515
H253	H	1.287393	-0.715884	-0.275309
H254	H	1.787393	-0.215884	0.224691
C255	C	1.300300	-0.888092	-0.230056
C256	C	1.800300	-0.388092	0.269944
H257	H	1.289212	-0.937710	-0.222678
H258	H	1.789212	-0.437710	0.277322
H259	H	1.350464	-0.863340	-0.209605
H260	H	1.850464	-0.363340	0.290395
H261	H	1.299577	-0.885762	-0.283409
H262	H	1.799577	-0.385762	0.216591
C263	C	1.054341	-0.903227	-0.066484
C264	C	1.554341	-0.403227	0.433516
H265	H	1.021240	-0.872922	-0.044493
H266	H	1.521240	-0.372922	0.455507
H267	H	1.075762	-0.920876	-0.026904
H268	H	1.575762	-0.420876	0.473096
H269	H	1.024894	-0.943298	-0.100721
H270	H	1.524894	-0.443298	0.399279
H271	H	1.078992	-0.758167	-0.082911
H272	H	1.578992	-0.258167	0.417089
H273	H	1.034310	-0.562497	-0.053243
H274	H	1.534310	-0.062497	0.446757
C275	C	1.069406	-0.682462	-0.076545
C276	C	1.569406	-0.182462	0.423455
H277	H	1.036309	-0.652156	-0.054545
H278	H	1.536309	-0.152156	0.445455
H279	H	1.090833	-0.700114	-0.036971
H280	H	1.590833	-0.200114	0.463029
H281	H	1.039953	-0.722530	-0.110780
H282	H	1.539953	-0.222530	0.389220
H283	H	1.041649	-0.428975	-0.058154
H284	H	1.541649	0.071025	0.441846
H285	H	1.191454	-0.175060	-0.831029
H286	H	1.691454	0.324940	-0.331029
H287	H	1.134560	-0.133062	-0.447124
H288	H	1.634560	0.366938	0.052876
C289	C	1.083998	-0.095606	-0.484500
C290	C	1.583998	0.404394	0.015500
H291	H	1.046061	-0.067514	-0.474853
H292	H	1.546061	0.432486	0.025147
H293	H	1.130787	-0.070220	-0.457603
H294	H	1.630787	0.429780	0.042397
H295	H	1.064663	-0.141363	-0.467515
H296	H	1.564663	0.358637	0.032485
H297	H	0.994312	-0.029036	-0.728129
H298	H	1.494312	0.470964	-0.228129
H299	H	1.022285	-0.049705	-0.871241
H300	H	1.522285	0.450295	-0.371241
C301	C	1.242114	-0.212416	-0.793624
C302	C	1.742114	0.287584	-0.293624
H303	H	1.280070	-0.240487	-0.803269
H304	H	1.780070	0.259513	-0.303269
H305	H	1.261457	-0.166616	-0.810506
H306	H	1.761457	0.333384	-0.310506
H307	H	1.195369	-0.237785	-0.820614
H308	H	1.695369	0.262215	-0.320614
