data_functionalizedCrystal
_audit_creation_method	'MofGen! by Chris Wilmer'
_symmetry_space_group_name_H-M	'P1'
_symmetry_Int_Tables_number	1
_symmetry_cell_setting	triclinic
loop_
_symmetry_equiv_pos_as_xyz
  x,y,z
_cell_length_a	8.559649
_cell_length_b	14.519731
_cell_length_c	7.681481
_cell_angle_alpha	84.245782
_cell_angle_beta	94.912730
_cell_angle_gamma	76.733759
loop_
_atom_site_label
_atom_site_type_symbol
_atom_site_fract_x
_atom_site_fract_y
_atom_site_fract_z
O1	O	2.104957	-0.021481	-0.146421
O2	O	2.604957	0.478519	0.353579
O3	O	1.639894	0.026137	-0.146428
O4	O	2.139894	0.526137	0.353572
O5	O	1.884740	-0.132794	-0.146408
O6	O	2.384740	0.367206	0.353592
O7	O	1.860111	0.137450	-0.146440
O8	O	2.360111	0.637450	0.353560
O9	O	1.914876	-0.152395	0.146452
O10	O	2.414876	0.347605	0.646452
O11	O	1.670031	0.006536	0.146433
O12	O	2.170031	0.506536	0.646433
O13	O	2.135093	-0.041082	0.146440
O14	O	2.635093	0.458918	0.646440
Zn15	Zn	1.907347	-0.020385	0.192934
Zn16	Zn	2.407347	0.479615	0.692934
Zn17	Zn	1.867641	0.005440	-0.192922
Zn18	Zn	2.367641	0.505440	0.307078
O19	O	1.890248	0.117849	0.146420
O20	O	2.390248	0.617849	0.646420
C21	C	1.595443	0.019945	0.000002
C22	C	2.095443	0.519945	0.500002
C23	C	1.418095	0.030686	-0.000000
C24	C	1.918095	0.530686	0.500000
C25	C	1.898654	-0.176871	0.000023
C26	C	2.398654	0.323129	0.500023
C27	C	1.895197	-0.279003	0.000024
C28	C	2.395197	0.220997	0.500024
C29	C	1.892387	-0.361945	0.000019
C30	C	2.392387	0.138055	0.500019
C31	C	1.888875	-0.466001	0.000006
C32	C	2.388875	0.033999	0.500006
C33	C	1.886088	-0.548940	-0.000005
C34	C	2.386088	-0.048940	0.499995
C35	C	1.882576	-0.653002	-0.000016
C36	C	2.382576	-0.153002	0.499984
C37	C	2.179544	-0.034890	0.000006
C38	C	2.679544	0.465110	0.500006
C39	C	2.356891	-0.045630	-0.000003
C40	C	2.856891	0.454370	0.499997
C41	C	1.876333	0.161926	-0.000014
C42	C	2.376333	0.661926	0.499986
C43	C	1.879789	0.264059	-0.000027
C44	C	2.379789	0.764059	0.499973
N45	N	1.934457	-0.038012	0.456270
N46	N	2.434457	0.461988	0.956270
N47	N	1.840544	0.023059	-0.456258
N48	N	2.340544	0.523059	0.043742
H49	H	1.440177	-0.119191	0.000005
H50	H	1.940177	0.380809	0.500005
H51	H	1.744677	0.085393	0.468537
H52	H	2.244677	0.585393	0.968537
O53	O	2.061477	-0.120580	0.555878
O54	O	2.561477	0.379420	1.055878
H55	H	2.037148	-0.188644	0.520601
H56	H	2.537148	0.311356	1.020601
O57	O	1.307801	0.128126	-0.000010
O58	O	1.807801	0.628126	0.499990
H59	H	1.181141	0.121557	-0.000012
H60	H	1.681141	0.621557	0.499988
