data_functionalizedCrystal
_audit_creation_method	'MofGen! by Chris Wilmer'
_symmetry_space_group_name_H-M	'P1'
_symmetry_Int_Tables_number	1
_symmetry_cell_setting	triclinic
loop_
_symmetry_equiv_pos_as_xyz
  x,y,z
_cell_length_a	10.686220
_cell_length_b	10.686551
_cell_length_c	11.169416
_cell_angle_alpha	85.596741
_cell_angle_beta	94.391770
_cell_angle_gamma	90.308082
loop_
_atom_site_label
_atom_site_type_symbol
_atom_site_fract_x
_atom_site_fract_y
_atom_site_fract_z
Zn1	Zn	1.972313	-0.562399	-0.292597
Zn2	Zn	2.472313	-0.062399	0.207403
Zn3	Zn	1.956103	-0.352650	-0.509824
Zn4	Zn	2.456103	0.147350	-0.009824
Zn5	Zn	1.746435	-0.368718	-0.323298
Zn6	Zn	2.246435	0.131282	0.176702
Zn7	Zn	1.762533	-0.578428	-0.507392
Zn8	Zn	2.262533	-0.078428	-0.007392
O9	O	1.859346	-0.465549	-0.408278
O10	O	2.359346	0.034451	0.091722
O11	O	2.145704	-0.521143	-0.309582
O12	O	2.645704	-0.021143	0.190418
O13	O	1.914769	-0.179237	-0.498948
O14	O	2.414769	0.320763	0.001052
O15	O	1.776445	-0.394427	-0.151272
O16	O	2.276445	0.105573	0.348728
O17	O	2.133794	-0.367041	-0.469178
O18	O	2.633794	0.132959	0.030822
O19	O	1.942397	-0.536723	-0.128715
O20	O	2.442397	-0.036723	0.371285
O21	O	1.760726	-0.191042	-0.361908
O22	O	2.260726	0.308958	0.138092
O23	O	1.573029	-0.409969	-0.359550
O24	O	2.073029	0.090031	0.140450
O25	O	1.803882	-0.751846	-0.465033
O26	O	2.303882	-0.251846	0.034967
O27	O	1.584857	-0.564042	-0.494803
O28	O	2.084857	-0.064042	0.005197
O29	O	1.958007	-0.740070	-0.307224
O30	O	2.458007	-0.240070	0.192776
O31	O	1.930379	-0.382584	-0.677456
O32	O	2.430379	0.117416	-0.177456
O33	O	1.788164	-0.548461	-0.675669
O34	O	2.288164	-0.048461	-0.175669
C35	C	1.533427	-0.490489	-0.430245
C36	C	2.033427	0.009511	0.069755
C37	C	1.394000	-0.501188	-0.439669
C38	C	1.894000	-0.001188	0.060331
C39	C	1.884549	-0.792748	-0.382432
C40	C	2.384549	-0.292748	0.117568
C41	C	1.895288	-0.932180	-0.371418
C42	C	2.395288	-0.432180	0.128582
C43	C	2.186538	-0.440512	-0.386227
C44	C	2.686538	0.059488	0.113773
C45	C	2.325967	-0.429843	-0.376830
C46	C	2.825967	0.070157	0.123170
C47	C	1.859296	-0.465543	-0.720107
C48	C	2.359296	0.034457	-0.220107
C49	C	1.859392	-0.465574	-0.853497
C50	C	2.359392	0.034426	-0.353497
C51	C	1.834314	-0.139617	-0.433932
C52	C	2.334314	0.360383	0.066068
C53	C	1.823817	-0.000166	-0.444591
C54	C	2.323817	0.499834	0.055409
C55	C	1.859433	-0.465579	-0.095227
C56	C	2.359433	0.034421	0.404773
C57	C	1.859470	-0.465592	0.038177
C58	C	2.359470	0.034408	0.538177
H59	H	1.754415	-0.951701	-0.515667
H60	H	2.254415	-0.451701	-0.015667
H61	H	1.345574	-0.570453	-0.500689
H62	H	1.845574	-0.070453	-0.000689
C63	C	1.390676	-0.337397	-0.295663
C64	C	1.890676	0.162603	0.204337
C65	C	1.459705	-0.251193	-0.364832
C66	C	1.959705	0.248807	0.135168
C67	C	1.519354	-0.166023	-0.290101
C68	C	2.019354	0.333977	0.209899
H69	H	1.329438	-0.293940	-0.257476
H70	H	1.829438	0.206060	0.242524
H71	H	1.445575	-0.381559	-0.236245
H72	H	1.945575	0.118441	0.263755
H73	H	1.404812	-0.207035	-0.424229
H74	H	1.904812	0.292965	0.075771
H75	H	1.520965	-0.294614	-0.403019
H76	H	2.020965	0.205386	0.096981
H77	H	1.574253	-0.210185	-0.230683
H78	H	2.074253	0.289815	0.269317
H79	H	1.458107	-0.122575	-0.251917
H80	H	1.958107	0.377425	0.248083
H81	H	1.566206	-0.107531	-0.337019
H82	H	2.066206	0.392469	0.162981
H83	H	1.964704	-0.980651	-0.300345
H84	H	2.464704	-0.480651	0.199655
