data_functionalizedCrystal
_audit_creation_method	'MofGen! by Chris Wilmer'
_symmetry_space_group_name_H-M	'P1'
_symmetry_Int_Tables_number	1
_symmetry_cell_setting	triclinic
loop_
_symmetry_equiv_pos_as_xyz
  x,y,z
_cell_length_a	21.395362
_cell_length_b	29.839131
_cell_length_c	21.395355
_cell_angle_alpha	90.027826
_cell_angle_beta	90.043940
_cell_angle_gamma	90.051103
loop_
_atom_site_label
_atom_site_type_symbol
_atom_site_fract_x
_atom_site_fract_y
_atom_site_fract_z
Zn1	Zn	0.957840	-0.178715	0.354545
Zn2	Zn	1.457840	0.321285	0.854545
Zn3	Zn	0.957734	-0.253830	0.249751
Zn4	Zn	1.457734	0.246170	0.749751
Zn5	Zn	0.853055	-0.178736	0.249746
Zn6	Zn	1.353055	0.321264	0.749746
Zn7	Zn	0.853016	-0.253840	0.354455
Zn8	Zn	1.353016	0.246160	0.854455
O9	O	0.905411	-0.216280	0.302124
O10	O	1.405411	0.283720	0.802124
O11	O	1.045504	-0.188667	0.340683
O12	O	1.545504	0.311333	0.840683
O13	O	0.943820	-0.243874	0.162072
O14	O	1.443820	0.256126	0.662072
O15	O	0.867015	-0.115866	0.263684
O16	O	1.367015	0.384134	0.763684
O17	O	1.045426	-0.243853	0.263691
O18	O	1.545426	0.256147	0.763691
O19	O	0.944000	-0.115851	0.340679
O20	O	1.444000	0.384149	0.840679
O21	O	0.866913	-0.188702	0.162069
O22	O	1.366913	0.311298	0.662069
O23	O	0.765372	-0.188711	0.263597
O24	O	1.265372	0.311289	0.763597
O25	O	0.866949	-0.243869	0.442145
O26	O	1.366949	0.256131	0.942145
O27	O	0.765343	-0.243889	0.340526
O28	O	1.265343	0.256111	0.840526
O29	O	0.943963	-0.188676	0.442211
O30	O	1.443963	0.311324	0.942211
O31	O	0.943782	-0.316699	0.263604
O32	O	1.443782	0.183301	0.763604
O33	O	0.866846	-0.316705	0.340530
O34	O	1.366846	0.183295	0.840530
C35	C	0.742623	-0.216304	0.302052
C36	C	1.242623	0.283696	0.802052
C37	C	0.672982	-0.216325	0.302035
C38	C	1.172982	0.283675	0.802035
C39	C	0.640270	-0.245094	0.342032
C40	C	1.140270	0.254906	0.842032
C41	C	0.574835	-0.245083	0.342060
C42	C	1.074835	0.254917	0.842060
C43	C	0.542114	-0.216308	0.302080
C44	C	1.042114	0.283692	0.802080
C45	C	0.574833	-0.187533	0.262080
C46	C	1.074833	0.312467	0.762080
C47	C	0.640268	-0.187541	0.262058
C48	C	1.140268	0.312459	0.762058
C49	C	0.438389	-0.212688	0.245676
C50	C	0.938389	0.287312	0.745676
C51	C	0.372957	-0.212683	0.245697
C52	C	0.872957	0.287317	0.745697
C53	C	0.340293	-0.216278	0.302149
C54	C	0.840293	0.283722	0.802149
C55	C	0.373071	-0.219889	0.358582
C56	C	0.873071	0.280111	0.858582
C57	C	0.438505	-0.219897	0.358560
C58	C	0.938505	0.280103	0.858560
C59	C	0.471161	-0.216295	0.302100
C60	C	0.971161	0.283705	0.802100
C61	C	0.236629	-0.245037	0.342180
C62	C	0.736629	0.254963	0.842180
C63	C	0.171192	-0.245023	0.342209
C64	C	0.671192	0.254977	0.842209
C65	C	0.171192	-0.187475	0.262223
C66	C	0.671192	0.312525	0.762223
C67	C	0.236627	-0.187487	0.262200
C68	C	0.736627	0.312513	0.762200
C69	C	0.269342	-0.216270	0.302177
C70	C	0.769342	0.283730	0.802177
C71	C	0.905316	-0.333003	0.302071
C72	C	1.405316	0.166997	0.802071
C73	C	0.905332	-0.382937	0.302070
C74	C	1.405332	0.117063	0.802070
C75	C	0.945488	-0.692538	0.342273
C76	C	1.445488	-0.192538	0.842273
C77	C	0.945556	-0.880211	0.342310
C78	C	1.445556	-0.380211	0.842310
O79	O	0.979605	-0.904439	0.376453
O80	O	1.479605	-0.404439	0.876453
N81	N	0.905517	-0.903722	0.302194
N82	N	1.405517	-0.403722	0.802194
C83	C	0.865456	-0.880313	0.262068
C84	C	1.365456	-0.380313	0.762068
O85	O	0.831397	-0.904617	0.227952
O86	O	1.331397	-0.404617	0.727952
C87	C	0.865385	-0.692640	0.262034
C88	C	1.365385	-0.192640	0.762034
C89	C	0.905431	-0.669131	0.302149
C90	C	1.405431	-0.169131	0.802149
C91	C	0.985531	-0.669029	0.382385
C92	C	1.485531	-0.169029	0.882385
C93	C	0.985516	-0.622113	0.382373
C94	C	1.485516	-0.122113	0.882373
C95	C	0.945459	-0.598707	0.342248
C96	C	1.445459	-0.098707	0.842248
C97	C	0.905416	-0.622216	0.302136
C98	C	1.405416	-0.122216	0.802136
C99	C	0.825321	-0.669232	0.221912
C100	C	1.325321	-0.169232	0.721912
C101	C	0.825305	-0.622311	0.221908
C102	C	1.325305	-0.122311	0.721908
C103	C	0.865351	-0.598802	0.262022
C104	C	1.365351	-0.098802	0.762022
C105	C	0.865344	-0.551894	0.262000
C106	C	1.365344	-0.051894	0.762000
N107	N	0.905383	-0.528383	0.302117
N108	N	1.405383	-0.028383	0.802117
C109	C	0.945440	-0.551789	0.342241
C110	C	1.445440	-0.051789	0.842241
C111	C	0.865497	-0.978843	0.262088
C112	C	1.365497	-0.478843	0.762088
C113	C	0.865515	-1.025761	0.262095
C114	C	1.365515	-0.525761	0.762095
C115	C	0.945615	-1.025656	0.342339
C116	C	1.445615	-0.525656	0.842339
C117	C	0.945599	-0.978737	0.342328
C118	C	1.445599	-0.478737	0.842328
C119	C	0.905536	-0.955332	0.302204
C120	C	1.405536	-0.455332	0.802204
C121	C	0.945406	-0.453263	0.342212
C122	C	1.445406	0.046737	0.842212
C123	C	0.945389	-0.406344	0.342194
C124	C	1.445389	0.093656	0.842194
C125	C	0.865287	-0.406453	0.261953
C126	C	1.365287	0.093547	0.761953
C127	C	0.865306	-0.453368	0.261968
C128	C	1.365306	0.046632	0.761968
C129	C	0.905367	-0.476772	0.302102
C130	C	1.405367	0.023228	0.802102
O131	O	0.831308	-0.527637	0.227880
O132	O	1.331308	-0.027637	0.727880
O133	O	0.979484	-0.527477	0.376362
O134	O	1.479484	-0.027477	0.876362
C135	C	0.945503	-0.739453	0.342285
C136	C	1.445503	-0.239453	0.842285
C137	C	0.905461	-0.762962	0.302173
C138	C	1.405461	-0.262962	0.802173
C139	C	0.865404	-0.739556	0.262049
C140	C	1.365404	-0.239556	0.762049
C141	C	0.905479	-0.809880	0.302181
C142	C	1.405479	-0.309880	0.802181
C143	C	0.945537	-0.833286	0.342305
C144	C	1.445537	-0.333286	0.842305
C145	C	0.985576	-0.809775	0.382421
C146	C	1.485576	-0.309775	0.882421
C147	C	0.985561	-0.762859	0.382409
C148	C	1.485561	-0.262859	0.882409
C149	C	0.825365	-0.763067	0.221932
C150	C	1.325365	-0.263067	0.721932
C151	C	0.825383	-0.809983	0.221947
C152	C	1.325383	-0.309983	0.721947
C153	C	0.865441	-0.833389	0.262071
C154	C	1.365441	-0.333389	0.762071
C155	C	1.068834	-0.216257	0.302198
C156	C	1.568834	0.283743	0.802198
C157	C	1.138476	-0.216247	0.302229
C158	C	1.638476	0.283753	0.802229
C159	C	0.905463	-0.216271	0.465548
C160	C	1.405463	0.283729	0.965548
C161	C	0.905485	-0.216267	0.535189
C162	C	1.405485	0.283733	1.035189
C163	C	0.905524	-0.099102	0.302191
C164	C	1.405524	0.400898	0.802191
C165	C	0.905572	-0.049167	0.302220
C166	C	1.405572	0.450833	0.802220
C167	C	0.905395	-0.216257	0.139337
C168	C	1.405395	0.283743	0.639337
C169	C	0.905495	-0.216134	0.069696
C170	C	1.405495	0.283866	0.569696
C171	C	0.945585	-0.187527	0.567937
C172	C	1.445585	0.312473	1.067937
C173	C	0.945584	-0.187507	0.633373
C174	C	1.445584	0.312493	1.133373
C175	C	0.905490	-0.216237	0.666057
C176	C	1.405490	0.283763	1.166057
C177	C	0.865383	-0.244979	0.633301
C178	C	1.365383	0.255021	1.133301
C179	C	0.865381	-0.244994	0.567867
C180	C	1.365381	0.255006	1.067867
C181	C	0.900510	-0.256689	0.769712
C182	C	1.400510	0.243311	1.269712
C183	C	0.900517	-0.256674	0.835145
C184	C	1.400517	0.243326	1.335145
C185	C	0.905494	-0.216189	0.867878
C186	C	1.405494	0.283811	1.367878
C187	C	0.910478	-0.175717	0.835170
C188	C	1.410478	0.324283	1.335170
C189	C	0.910475	-0.175733	0.769736
C190	C	1.410475	0.324267	1.269736
C191	C	0.905488	-0.216223	0.737010
C192	C	1.405488	0.283777	1.237010
C193	C	0.945595	-0.187425	0.971579
C194	C	1.445595	0.312575	1.471579
C195	C	0.945589	-0.187405	1.037016
C196	C	1.445589	0.312595	1.537016
C197	C	0.865392	-0.244881	1.036943
C198	C	1.365392	0.255119	1.536943
C199	C	0.865394	-0.244897	0.971507
C200	C	1.365394	0.255103	1.471507
C201	C	0.905499	-0.216170	0.938830
C202	C	1.405499	0.283830	1.438830
H203	H	0.548196	-0.268511	0.374633
H204	H	1.048196	0.231489	0.874633
Br205	Br	0.917235	-0.120810	0.725348
Br206	Br	1.417235	0.379190	1.225348
H207	H	0.978208	-0.959599	0.374993
H208	H	1.478208	-0.459599	0.874993
Br209	Br	0.917239	-0.120769	0.879585
Br210	Br	1.417239	0.379231	1.379585
Br211	Br	0.126792	-0.148417	0.207969
Br212	Br	0.626792	0.351583	0.707969
H213	H	0.465190	-0.222836	0.404509
H214	H	0.965190	0.277164	0.904509
Br215	Br	1.000019	-0.148438	0.927227
Br216	Br	1.500019	0.351562	1.427227
Br217	Br	0.126796	-0.284067	0.396501
Br218	Br	0.626796	0.215933	0.896501
H219	H	0.978242	-0.163998	1.063679
H220	H	1.478242	0.336002	1.563679
Br221	Br	0.770967	-0.701125	0.167468
Br222	Br	1.270967	-0.201125	0.667468
H223	H	0.666903	-0.268532	0.374586
H224	H	1.166903	0.231468	0.874586
H225	H	0.978236	-0.164101	0.660042
H226	H	1.478236	0.335899	1.160042
H227	H	0.832736	-0.268369	0.659917
H228	H	1.332736	0.231631	1.159917
H229	H	0.832740	-0.268268	1.063554
H230	H	1.332740	0.231732	1.563554
H231	H	0.346274	-0.209746	0.199746
H232	H	0.846274	0.290254	0.699746
Br233	Br	0.893773	-0.311639	0.725295
Br234	Br	1.393773	0.188361	1.225295
Br235	Br	0.281025	-0.148440	0.207915
Br236	Br	0.781025	0.351560	0.707915
H237	H	0.978232	-1.044721	0.375009
H238	H	1.478232	-0.544721	0.875009
H239	H	0.832724	-0.268398	0.541203
H240	H	1.332724	0.231602	1.041203
Br241	Br	0.810971	-0.283905	0.927060
Br242	Br	1.310971	0.216095	1.427060
Br243	Br	0.530428	-0.148476	0.207826
Br244	Br	1.030428	0.351524	0.707826
H245	H	1.018194	-0.828840	0.415090
H246	H	1.518194	-0.328840	0.915090
Br247	Br	0.328751	-0.224767	0.435202
Br248	Br	0.828751	0.275233	0.935202
H249	H	1.018123	-0.602975	0.415039
H250	H	1.518123	-0.102975	0.915039
Br251	Br	0.482712	-0.207809	0.169055
Br252	Br	0.982712	0.292191	0.669055
Br253	Br	0.684665	-0.148493	0.207773
Br254	Br	1.184665	0.351507	0.707773
H255	H	0.792678	-0.603256	0.189235
H256	H	1.292678	-0.103256	0.689235
H257	H	0.896462	-0.289629	0.861771
H258	H	1.396462	0.210371	1.361771
Br259	Br	0.999744	-0.374441	0.396637
Br260	Br	1.499744	0.125559	0.896637
H261	H	0.263267	-0.268472	0.374735
H262	H	0.763267	0.231528	0.874735
Br263	Br	0.810927	-0.374678	0.207500
Br264	Br	1.310927	0.125322	0.707500
Br265	Br	0.999776	-0.485018	0.396679
Br266	Br	1.499776	0.014982	0.896679
Br267	Br	1.039899	-0.700785	0.436850
Br268	Br	1.539899	-0.200785	0.936850
Br269	Br	0.811175	-1.057660	0.207641
Br270	Br	1.311175	-0.557660	0.707641
Br271	Br	0.811115	-0.947085	0.207632
Br272	Br	1.311115	-0.447085	0.707632
Br273	Br	0.810967	-0.485275	0.207517
Br274	Br	1.310967	0.014725	0.707517
H275	H	1.018170	-0.743722	0.415075
H276	H	1.518170	-0.243722	0.915075
H277	H	0.792774	-0.829120	0.189275
H278	H	1.292774	-0.329120	0.689275
Br279	Br	1.000010	-0.148538	0.523592
Br280	Br	1.500010	0.351462	1.023592
H281	H	0.792744	-0.744014	0.189259
H282	H	1.292744	-0.244014	0.689259
