data_functionalizedCrystal
_audit_creation_method	'MofGen! by Chris Wilmer'
_symmetry_space_group_name_H-M	'P1'
_symmetry_Int_Tables_number	1
_symmetry_cell_setting	triclinic
loop_
_symmetry_equiv_pos_as_xyz
  x,y,z
_cell_length_a	16.974800
_cell_length_b	17.038272
_cell_length_c	15.455313
_cell_angle_alpha	92.858370
_cell_angle_beta	90.973911
_cell_angle_gamma	87.242888
loop_
_atom_site_label
_atom_site_type_symbol
_atom_site_fract_x
_atom_site_fract_y
_atom_site_fract_z
O1	O	1.055757	0.099682	0.002007
O2	O	1.389091	0.433015	0.335340
O3	O	1.722424	0.766349	0.668674
O4	O	0.827125	0.111624	-0.014050
O5	O	1.160459	0.444957	0.319283
O6	O	1.493792	0.778291	0.652617
O7	O	0.940082	-0.008165	-0.006110
O8	O	1.273416	0.325168	0.327223
O9	O	1.606749	0.658501	0.660557
O10	O	0.942800	0.219471	-0.005933
O11	O	1.276134	0.552805	0.327400
O12	O	1.609467	0.886138	0.660734
O13	O	0.933621	-0.001344	0.137698
O14	O	1.266954	0.331990	0.471031
O15	O	1.600288	0.665323	0.804364
O16	O	0.820664	0.118446	0.129758
O17	O	1.153997	0.451779	0.463091
O18	O	1.487331	0.785112	0.796424
O19	O	1.049296	0.106504	0.145815
O20	O	1.382629	0.439837	0.479148
O21	O	1.715963	0.773171	0.812482
Cu22	Cu	0.934390	0.113098	0.150917
Cu23	Cu	1.267723	0.446431	0.484251
Cu24	Cu	1.601057	0.779764	0.817584
Cu25	Cu	0.942031	0.105030	-0.019152
Cu26	Cu	1.275365	0.438363	0.314181
Cu27	Cu	1.608698	0.771697	0.647514
O28	O	0.936339	0.226293	0.137875
O29	O	1.269673	0.559626	0.471208
O30	O	1.603006	0.892960	0.804542
C31	C	0.794497	0.114456	0.055789
C32	C	1.127830	0.447789	0.389123
C33	C	1.461163	0.781122	0.722456
C34	C	0.706899	0.112720	0.049637
C35	C	1.040232	0.446054	0.382971
C36	C	1.373565	0.779387	0.716304
C37	C	0.662227	0.115622	0.125139
C38	C	0.995561	0.448955	0.458472
C39	C	1.328894	0.782289	0.791805
C40	C	0.579921	0.113979	0.119361
C41	C	0.913254	0.447313	0.452694
C42	C	1.246587	0.780646	0.786028
C43	C	0.542286	0.109440	0.038081
C44	C	0.875619	0.442774	0.371414
C45	C	1.208953	0.776107	0.704747
C46	C	0.586963	0.106536	-0.037427
C47	C	0.920297	0.439870	0.295907
C48	C	1.253630	0.773203	0.629240
C49	C	0.669269	0.108174	-0.031648
C50	C	1.002602	0.441507	0.301686
C51	C	1.335936	0.774840	0.635019
C52	C	0.296506	0.104140	0.012392
C53	C	0.629840	0.437473	0.345725
C54	C	0.963173	0.770807	0.679058
C55	C	0.214194	0.102505	0.006619
C56	C	0.547528	0.435839	0.339952
C57	C	0.880861	0.769172	0.673285
C58	C	0.207157	0.109947	0.163407
C59	C	0.540491	0.443280	0.496740
C60	C	0.873824	0.776613	0.830073
C61	C	0.289465	0.111588	0.169178
C62	C	0.622798	0.444922	0.502512
C63	C	0.956131	0.778255	0.835845
C64	C	0.334135	0.108680	0.093671
C65	C	0.667468	0.442013	0.427005
C66	C	1.000802	0.775347	0.760338
N67	N	0.458155	0.107764	0.032173
N68	N	0.791488	0.441097	0.365506
N69	N	1.124822	0.774430	0.698839
N70	N	0.418265	0.110351	0.099580
N71	N	0.751598	0.443685	0.432913
N72	N	1.084931	0.777018	0.766247
C73	C	0.934380	-0.033889	0.065620
C74	C	1.267713	0.299444	0.398954
C75	C	1.601046	0.632778	0.732287
C76	C	0.927005	-0.120700	0.065102
C77	C	1.260339	0.212633	0.398435
C78	C	1.593672	0.545967	0.731769
C79	C	0.994712	-0.170647	0.069858
C80	C	1.328045	0.162686	0.403191
C81	C	1.661379	0.496019	0.736525
C82	C	0.987778	-0.252215	0.069363
C83	C	1.321112	0.081118	0.402696
C84	C	1.654445	0.414451	0.736030
C85	C	0.913137	-0.283834	0.064118
C86	C	1.246471	0.049499	0.397451
C87	C	1.579804	0.382833	0.730784
C88	C	0.845426	-0.233880	0.059359
C89	C	1.178759	0.099453	0.392692
C90	C	1.512093	0.432786	0.726025
C91	C	0.852360	-0.152314	0.059848
C92	C	1.185694	0.181019	0.393181
C93	C	1.519027	0.514353	0.726514
C94	C	0.888639	-0.529653	0.062385
C95	C	1.221973	-0.196319	0.395719
C96	C	1.555306	0.137014	0.729052
C97	C	0.881710	-0.611225	0.061899
C98	C	1.215043	-0.277892	0.395233
C99	C	1.548377	0.055441	0.728566
C100	C	1.024063	-0.629555	0.071902
C101	C	1.357397	-0.296222	0.405235
C102	C	1.690730	0.037112	0.738568
C103	C	1.030991	-0.547986	0.072396
C104	C	1.364324	-0.214653	0.405729
C105	C	1.697658	0.118681	0.739062
C106	C	0.963280	-0.498040	0.067632
C107	C	1.296613	-0.164706	0.400965
C108	C	1.629946	0.168627	0.734299
C109	C	0.906048	-0.367209	0.063614
C110	C	1.239382	-0.033876	0.396948
C111	C	1.572715	0.299457	0.730281
C112	C	0.970370	-0.414666	0.068129
C113	C	1.303703	-0.081333	0.401463
C114	C	1.637036	0.252000	0.734796
C115	C	1.081925	0.103672	0.075974
C116	C	1.415258	0.437005	0.409307
C117	C	1.748592	0.770339	0.742640
C118	C	1.169523	0.105407	0.082120
C119	C	1.502857	0.438740	0.415453
C120	C	1.836190	0.772074	0.748787
C121	C	0.942042	0.252016	0.066143
C122	C	1.275375	0.585350	0.399476
C123	C	1.608708	0.918683	0.732809
C124	C	0.949416	0.338827	0.066655
C125	C	1.282750	0.672161	0.399989
C126	C	1.616083	1.005494	0.733322
N127	N	0.929021	0.118771	0.270535
N128	N	1.262355	0.452105	0.603869
N129	N	1.595688	0.785438	0.937202
N130	N	0.947406	0.099350	-0.138770
N131	N	1.280739	0.432683	0.194563
N132	N	1.614073	0.766017	0.527897
C133	C	0.977029	0.067900	0.319304
C134	C	1.310362	0.401233	0.652637
C135	C	1.643695	0.734566	0.985971
C136	C	0.972976	0.072198	0.409827
C137	C	1.306310	0.405531	0.743160
C138	C	1.639643	0.738864	1.076494
C139	C	0.920920	0.127372	0.451580
C140	C	1.254253	0.460705	0.784913
C141	C	1.587587	0.794039	1.118247
C142	C	0.872908	0.178246	0.402805
C143	C	1.206241	0.511579	0.736138
C144	C	1.539574	0.844913	1.069471
C145	C	0.876957	0.173944	0.312283
C146	C	1.210290	0.507277	0.645616
C147	C	1.543623	0.840610	0.978950
C148	C	0.903442	0.145922	0.721933
C149	C	1.236776	0.479255	1.055266
C150	C	1.570109	0.812588	1.388600
C151	C	0.899399	0.150222	0.812461
C152	C	1.232732	0.483555	1.145795
C153	C	1.566065	0.816889	1.479128
C154	C	0.999467	0.044172	0.819477
C155	C	1.332800	0.377505	1.152811
C156	C	1.666133	0.710839	1.486144
C157	C	1.003514	0.039878	0.728954
C158	C	1.336848	0.373211	1.062287
C159	C	1.670181	0.706544	1.395621
C160	C	0.955499	0.090749	0.680186
C161	C	1.288832	0.424082	1.013520
C162	C	1.622166	0.757416	1.346853
N163	N	0.916778	0.131768	0.544109
N164	N	1.250112	0.465102	0.877442
N165	N	1.583445	0.798435	1.210776
N166	N	0.959637	0.086348	0.587659
N167	N	1.292970	0.419682	0.920992
N168	N	1.626304	0.753015	1.254325
H169	H	0.705640	0.105812	-0.093129
H170	H	1.038973	0.439146	0.240204
H171	H	1.372306	0.772479	0.573537
H172	H	1.055492	-0.144910	0.074134
H173	H	1.388826	0.188423	0.407468
H174	H	1.722159	0.521756	0.740801
H175	H	0.170778	0.112313	0.224880
H176	H	0.504111	0.445647	0.558213
H177	H	0.837445	0.778980	0.891547
F178	F	1.032438	0.009178	0.274876
F179	F	1.365772	0.342512	0.608210
F180	F	1.699105	0.675845	0.941543
H181	H	0.864348	0.187345	0.682233
H182	H	1.197681	0.520678	1.015567
H183	H	1.531014	0.854011	1.348900
F184	F	1.049806	-0.381014	0.073706
F185	F	1.383139	-0.047681	0.407040
F186	F	1.716472	0.285653	0.740373
F187	F	1.059842	-0.305370	0.074427
F188	F	1.393175	0.027963	0.407760
F189	F	1.726508	0.361296	0.741093
F190	F	1.110435	-0.514343	0.077956
F191	F	1.443768	-0.181009	0.411289
F192	F	1.777102	0.152324	0.744623
F193	F	1.050563	-0.009967	0.871384
F194	F	1.383896	0.323366	1.204718
F195	F	1.717229	0.656700	1.538051
F196	F	1.096121	-0.682717	0.076970
F197	F	1.429454	-0.349383	0.410303
F198	F	1.762788	-0.016050	0.743637
H199	H	0.320101	0.115281	0.235365
H200	H	0.653434	0.448614	0.568699
H201	H	0.986768	0.781947	0.902032
H202	H	0.830518	0.223168	0.436805
H203	H	1.163852	0.556501	0.770138
H204	H	1.497185	0.889834	1.103471
H205	H	0.837863	0.215368	0.272576
H206	H	1.171196	0.548701	0.605909
H207	H	1.504530	0.882035	0.939243
H208	H	0.692863	0.119324	0.191326
H209	H	1.026196	0.452658	0.524659
H210	H	1.359529	0.785991	0.857993
F211	F	1.058919	-0.018844	0.684519
F212	F	1.392252	0.314489	1.017852
F213	F	1.725585	0.647823	1.351185
F214	F	0.843991	0.208951	0.856892
F215	F	1.177324	0.542285	1.190225
F216	F	1.510658	0.875618	1.523559
H217	H	0.833504	-0.488996	0.058507
H218	H	1.166837	-0.155662	0.391840
H219	H	1.500170	0.177671	0.725173
H220	H	0.820925	-0.636965	0.057642
H221	H	1.154258	-0.303631	0.390975
H222	H	1.487591	0.029702	0.724309
F223	F	0.780298	-0.099156	0.054783
F224	F	1.113631	0.234177	0.388116
F225	F	1.446964	0.567510	0.721450
F226	F	0.532381	0.117078	0.199720
F227	F	0.865714	0.450412	0.533054
F228	F	1.199047	0.783745	0.866387
F229	F	0.174143	0.097677	-0.079895
F230	F	0.507476	0.431010	0.253438
F231	F	0.840809	0.764343	0.586772
H232	H	0.556315	0.102835	-0.103607
H233	H	0.889648	0.436169	0.229727
H234	H	1.222982	0.769502	0.563060
H235	H	0.332867	0.101769	-0.049092
H236	H	0.666201	0.435103	0.284242
H237	H	0.999534	0.768436	0.617575
H238	H	0.784652	-0.259631	0.055083
H239	H	1.117985	0.073703	0.388416
H240	H	1.451318	0.407036	0.721749
F241	F	0.826612	-0.400868	0.058029
F242	F	1.159945	-0.067534	0.391362
F243	F	1.493279	0.265799	0.724695
H244	H	1.012067	0.030773	0.449534
H245	H	1.345400	0.364107	0.782868
H246	H	1.678733	0.697440	1.116201
