data_functionalizedCrystal
_audit_creation_method	'MofGen! by Chris Wilmer'
_symmetry_space_group_name_H-M	'P1'
_symmetry_Int_Tables_number	1
_symmetry_cell_setting	triclinic
loop_
_symmetry_equiv_pos_as_xyz
  x,y,z
_cell_length_a	19.805407
_cell_length_b	12.759394
_cell_length_c	19.805398
_cell_angle_alpha	89.979392
_cell_angle_beta	89.984135
_cell_angle_gamma	90.013856
loop_
_atom_site_label
_atom_site_type_symbol
_atom_site_fract_x
_atom_site_fract_y
_atom_site_fract_z
Zn1	Zn	1.034770	-0.418308	-0.382745
Zn2	Zn	1.034717	-0.593996	-0.269567
Zn3	Zn	0.921592	-0.418332	-0.269569
Zn4	Zn	0.921573	-0.593946	-0.382714
O5	O	0.978163	-0.506146	-0.326149
O6	O	1.129479	-0.441625	-0.367743
O7	O	1.019696	-0.570725	-0.174851
O8	O	0.936635	-0.271308	-0.284596
O9	O	1.129441	-0.570702	-0.284592
O10	O	1.019787	-0.271290	-0.367746
O11	O	0.936584	-0.441665	-0.174852
O12	O	0.826873	-0.441616	-0.284566
O13	O	0.936603	-0.570616	-0.477434
O14	O	0.826859	-0.570639	-0.367693
O15	O	1.019768	-0.441576	-0.477457
O16	O	1.019678	-0.741011	-0.284562
O17	O	0.936552	-0.740973	-0.367690
C18	C	0.802307	-0.506125	-0.326127
C19	C	0.727075	-0.506142	-0.326133
C20	C	0.691741	-0.573425	-0.369347
C21	C	0.621053	-0.573427	-0.369357
C22	C	0.585699	-0.506150	-0.326149
C23	C	0.621038	-0.438860	-0.282933
C24	C	0.691725	-0.438853	-0.282927
C25	C	0.335965	-0.438883	-0.282955
C26	C	0.265273	-0.438897	-0.282963
C27	C	0.265292	-0.573457	-0.369385
C28	C	0.335979	-0.573450	-0.369379
C29	C	0.371312	-0.506156	-0.326166
C30	C	0.447960	-0.506154	-0.326157
C31	C	0.509052	-0.506157	-0.326154
C32	C	0.978125	-0.779113	-0.326137
C33	C	0.978171	-0.895890	-0.326155
C34	C	1.064692	-0.895713	-0.412804
C35	C	1.107974	-0.950486	-0.456133
C36	C	1.108014	-1.060207	-0.456148
C37	C	1.064766	-1.115159	-0.412830
C38	C	1.021485	-1.060386	-0.369500
C39	C	1.021450	-0.950662	-0.369489
C40	C	0.934961	-1.060563	-0.282856
C41	C	0.934924	-0.950841	-0.282837
C42	C	0.891714	-1.115514	-0.239538
C43	C	0.848435	-1.060742	-0.196205
C44	C	0.848397	-0.951014	-0.196191
C45	C	0.891642	-0.896069	-0.239508
C46	C	1.154706	-0.506166	-0.326171
C47	C	1.229938	-0.506175	-0.326180
C48	C	0.978189	-0.506087	-0.502691
C49	C	0.978201	-0.506063	-0.577923
C50	C	0.978219	-0.232112	-0.326175
C51	C	0.978243	-0.115335	-0.326186
C52	C	1.021587	-0.438685	-1.039728
C53	C	1.021576	-0.438717	-0.969039
C54	C	0.978270	-0.505916	-0.933685
C55	C	0.934977	-0.573095	-0.969024
C56	C	0.934992	-0.573067	-1.039711
C57	C	0.934918	-0.573209	-0.683950
C58	C	0.934906	-0.573229	-0.613258
C59	C	1.021503	-0.438859	-0.613278
C60	C	1.021517	-0.438831	-0.683966
C61	C	0.978227	-0.506013	-0.719298
C62	C	0.978240	-0.505979	-0.795946
C63	C	0.978253	-0.505946	-0.857038
C64	C	0.978175	-0.506128	-0.150293
C65	C	0.978295	-0.505857	-0.075061
H66	H	0.236490	-0.384105	-0.247777
N67	N	0.374104	-0.646014	-0.415986
H68	H	0.403449	-0.603378	-0.447396
H69	H	0.403378	-0.694630	-0.388378
N70	N	0.729871	-0.645987	-0.415951
H71	H	0.759182	-0.694616	-0.388388
H72	H	0.696717	-0.688539	-0.443320
N73	N	0.227184	-0.646040	-0.415996
H74	H	0.177039	-0.635838	-0.409448
H75	H	0.239561	-0.629793	-0.464353
N76	N	1.064660	-0.777372	-0.412784
H77	H	1.052187	-0.750911	-0.459201
H78	H	1.030687	-0.751094	-0.378732
N79	N	1.068230	-0.366349	-0.722088
H80	H	1.099594	-0.409036	-0.751415
H81	H	1.040694	-0.317656	-0.751378
H82	H	0.592287	-0.628217	-0.404546
N83	N	1.068210	-0.366417	-0.575171
H84	H	1.061638	-0.376636	-0.525026
H85	H	1.116545	-0.382785	-0.587538
H86	H	0.364724	-0.384096	-0.247763
N87	N	0.891610	-0.777727	-0.239494
H88	H	0.879136	-0.751275	-0.285913
H89	H	0.857637	-0.751443	-0.205444
H90	H	0.899740	-0.627766	-1.068478
H91	H	0.592248	-0.384077	-0.247755
H92	H	1.143250	-1.104803	-0.491437
H93	H	1.056847	-0.383957	-1.068508
H94	H	0.899720	-0.627814	-0.940233
H95	H	1.143184	-0.905735	-0.491404
N96	N	0.729839	-0.366277	-0.236323
H97	H	0.696718	-0.323657	-0.208951
H98	H	0.759154	-0.408968	-0.204949
N99	N	1.064812	-1.233501	-0.412839
H100	H	1.098794	-1.259860	-0.446860
H101	H	1.077273	-1.259856	-0.366396
H102	H	0.891747	-1.204855	-0.239556
H103	H	0.813223	-1.105492	-0.160942
H104	H	0.899636	-0.627950	-0.584475
H105	H	1.056830	-0.384023	-0.940274
N106	N	0.801710	-0.891940	-0.149460
H107	H	0.774322	-0.943404	-0.122024
H108	H	0.829262	-0.846411	-0.118152
N109	N	0.888227	-0.645663	-0.722053
H110	H	0.860790	-0.688231	-0.688929
H111	H	0.856918	-0.602884	-0.751384
