data_functionalizedCrystal
_audit_creation_method	'MofGen! by Chris Wilmer'
_symmetry_space_group_name_H-M	'P1'
_symmetry_Int_Tables_number	1
_symmetry_cell_setting	triclinic
loop_
_symmetry_equiv_pos_as_xyz
  x,y,z
_cell_length_a	12.759395
_cell_length_b	18.050589
_cell_length_c	12.759387
_cell_angle_alpha	89.970013
_cell_angle_beta	89.979491
_cell_angle_gamma	90.029758
loop_
_atom_site_label
_atom_site_type_symbol
_atom_site_fract_x
_atom_site_fract_y
_atom_site_fract_z
Zn1	Zn	1.606170	-0.295590	-0.594011
Zn2	Zn	1.606019	-0.419799	-0.418334
Zn3	Zn	1.430468	-0.295630	-0.418348
Zn4	Zn	1.430419	-0.419746	-0.593973
O5	O	1.518269	-0.357691	-0.506166
O6	O	1.753171	-0.312072	-0.570717
O7	O	1.582689	-0.403367	-0.271315
O8	O	1.453859	-0.191700	-0.441672
O9	O	1.753060	-0.403327	-0.441648
O10	O	1.582946	-0.191671	-0.570731
O11	O	1.453713	-0.312141	-0.271325
O12	O	1.283441	-0.312089	-0.441635
O13	O	1.453775	-0.403237	-0.740999
O14	O	1.283405	-0.403277	-0.570666
O15	O	1.582899	-0.312020	-0.741027
O16	O	1.582642	-0.523716	-0.441611
O17	O	1.453629	-0.523677	-0.570652
C18	C	1.245302	-0.357682	-0.506148
C19	C	1.128525	-0.357696	-0.506166
C20	C	1.128526	-0.452803	-0.640308
C21	C	1.073666	-0.500362	-0.707383
C22	C	0.963944	-0.500371	-0.707395
C23	C	0.909080	-0.452814	-0.640329
C24	C	0.963940	-0.405255	-0.573255
C25	C	1.073665	-0.405253	-0.573247
C26	C	0.963939	-0.310146	-0.439119
C27	C	1.073661	-0.310139	-0.439099
C28	C	0.909076	-0.262589	-0.372052
C29	C	0.963936	-0.215032	-0.304971
C30	C	1.073664	-0.215026	-0.304960
C31	C	1.128521	-0.262580	-0.372025
C32	C	1.518142	-0.550643	-0.506149
C33	C	1.518184	-0.633189	-0.506177
C34	C	1.448096	-0.832646	-0.576325
C35	C	1.422480	-0.882094	-0.480456
C36	C	1.518287	-0.784319	-0.506190
C37	C	1.543955	-0.881953	-0.602070
C38	C	1.518385	-0.930304	-0.506212
C39	C	1.492621	-0.832681	-0.410271
C40	C	1.614141	-0.832535	-0.531950
C41	C	1.588561	-0.881961	-0.436015
C42	C	1.518228	-0.700221	-0.506179
C43	C	1.518444	-1.014401	-0.506212
C44	C	1.792302	-0.357701	-0.506185
C45	C	1.909079	-0.357705	-0.506193
C46	C	1.518348	-0.357618	-0.780200
C47	C	1.518382	-0.357587	-0.896977
C48	C	1.518425	-0.163986	-0.506207
C49	C	1.518492	-0.081440	-0.506224
C50	C	1.652848	-0.262609	-0.897026
C51	C	1.720095	-0.215109	-0.951911
C52	C	1.720121	-0.215082	-1.061633
C53	C	1.652889	-0.262559	-1.116472
C54	C	1.585642	-0.310059	-1.061586
C55	C	1.585626	-0.310082	-0.951862
C56	C	1.451173	-0.405032	-1.061538
C57	C	1.451151	-0.405064	-0.951816
C58	C	1.383942	-0.452509	-1.116376
C59	C	1.316698	-0.500013	-1.061491
C60	C	1.316676	-0.500039	-0.951763
C61	C	1.383904	-0.452564	-0.896931
C62	C	1.518251	-0.357710	-0.233199
C63	C	1.518420	-0.357532	-0.116423
H64	H	0.819735	-0.262596	-0.372072
C65	C	1.723560	-0.803100	-0.561413
C66	C	1.743760	-0.719040	-0.565846
C67	C	1.853179	-0.689604	-0.595323
C68	C	1.942399	-0.744226	-0.620366
C69	C	1.922201	-0.828291	-0.615934
C70	C	1.812781	-0.857727	-0.586457
H71	H	1.677712	-0.678601	-0.547307
H72	H	1.868130	-0.627373	-0.598604
H73	H	2.023397	-0.722435	-0.642186
H74	H	1.988249	-0.868730	-0.634473
H75	H	1.797830	-0.919958	-0.583176
H76	H	1.261958	-0.538661	-1.106150
H77	H	1.118348	-0.539081	-0.761988
H78	H	1.118325	-0.176292	-0.250347
C79	C	0.903587	-0.162724	-0.231206
C80	C	0.782897	-0.162728	-0.231225
C81	C	0.722543	-0.110420	-0.157457
C82	C	0.782880	-0.058108	-0.083670
C83	C	0.903577	-0.058103	-0.083647
C84	C	0.963930	-0.110411	-0.157415
H85	H	0.738226	-0.201454	-0.285850
H86	H	0.633195	-0.110425	-0.157474
H87	H	0.738202	-0.019387	-0.029062
H88	H	0.948247	-0.019377	-0.029022
H89	H	1.053278	-0.110406	-0.157398
C90	C	0.903591	-0.552686	-0.781175
C91	C	0.963928	-0.604995	-0.854946
C92	C	0.903575	-0.657310	-0.928725
C93	C	0.782885	-0.657315	-0.928732
C94	C	0.722541	-0.605004	-0.854958
C95	C	0.782894	-0.552690	-0.781179
H96	H	1.053276	-0.604993	-0.854944
H97	H	0.948245	-0.696034	-0.983337
H98	H	0.738207	-0.696042	-0.983347
H99	H	0.633193	-0.605007	-0.854961
H100	H	0.738223	-0.513965	-0.726567
H101	H	1.217863	-0.262581	-0.372019
C102	C	1.242701	-0.552291	-0.891393
C103	C	1.168756	-0.604508	-0.951717
C104	C	1.094779	-0.656761	-0.891352
C105	C	1.094747	-0.656797	-0.770662
C106	C	1.168695	-0.604577	-0.710330
C107	C	1.242672	-0.552325	-0.770696
H108	H	1.168777	-0.604484	-1.041066
H109	H	1.040038	-0.695417	-0.936014
H110	H	1.039985	-0.695477	-0.725976
H111	H	1.168674	-0.604602	-0.620982
H112	H	1.297413	-0.513669	-0.726034
C113	C	1.367796	-0.803382	-0.656334
C114	C	1.250927	-0.822983	-0.644350
C115	C	1.170626	-0.793717	-0.724352
C116	C	1.207193	-0.744851	-0.816339
C117	C	1.324067	-0.725248	-0.828328
C118	C	1.404369	-0.754513	-0.748325
H119	H	1.223853	-0.859159	-0.576252
H120	H	1.084107	-0.808229	-0.715477
H121	H	1.147749	-0.723187	-0.875562
H122	H	1.351142	-0.689072	-0.896426
H123	H	1.490887	-0.740002	-0.757201
C124	C	1.313032	-0.911505	-0.451026
C125	C	1.223323	-0.856857	-0.427915
C126	C	1.113873	-0.886263	-0.398494
C127	C	1.094130	-0.970318	-0.392183
C128	C	1.183841	-1.024971	-0.415295
C129	C	1.293292	-0.995564	-0.444716
H130	H	1.237935	-0.794630	-0.432586
H131	H	1.047463	-0.845805	-0.381385
H132	H	1.013108	-0.992086	-0.370404
H133	H	1.169229	-1.087197	-0.410624
H134	H	1.359702	-1.036022	-0.461824
H135	H	1.217867	-0.452806	-0.640297
C136	C	1.463225	-0.803570	-0.300708
C137	C	1.457702	-0.719567	-0.280461
C138	C	1.428308	-0.690455	-0.170900
C139	C	1.404437	-0.745345	-0.081587
C140	C	1.409959	-0.829354	-0.101831
C141	C	1.439353	-0.858466	-0.211392
H142	H	1.475373	-0.678929	-0.346578
H143	H	1.424220	-0.628266	-0.155914
H144	H	1.382678	-0.723795	-0.000483
H145	H	1.392288	-0.869992	-0.035713
H146	H	1.443440	-0.920655	-0.226377
H147	H	0.819739	-0.452819	-0.640355
C148	C	1.668797	-0.911048	-0.355815
C149	C	1.657001	-0.891434	-0.238964
C150	C	1.737227	-0.920528	-0.158760
C151	C	1.829249	-0.969236	-0.195409
C152	C	1.841048	-0.988853	-0.312266
C153	C	1.760823	-0.959759	-0.392469
H154	H	1.588878	-0.855375	-0.211829
H155	H	1.728492	-0.906006	-0.072255
H156	H	1.888637	-0.990773	-0.136037
H157	H	1.909172	-1.024912	-0.339400
H158	H	1.769558	-0.974281	-0.478974
C159	C	1.573239	-0.911194	-0.711594
C160	C	1.504501	-0.891715	-0.806872
C161	C	1.533774	-0.920953	-0.916398
C162	C	1.631784	-0.969671	-0.930645
C163	C	1.700528	-0.989152	-0.835364
C164	C	1.671255	-0.959914	-0.725839
H165	H	1.431942	-0.855649	-0.796328
H166	H	1.482884	-0.906532	-0.986931
H167	H	1.653454	-0.991315	-1.011723
H168	H	1.773087	-1.025218	-0.845908
H169	H	1.722145	-0.974335	-0.655305
H170	H	1.652843	-0.262634	-0.807684
C171	C	1.794052	-0.162890	-0.891588
C172	C	1.794038	-0.162919	-0.770898
C173	C	1.867994	-0.110700	-0.710579
C174	C	1.941965	-0.058452	-0.770951
C175	C	1.941982	-0.058422	-0.891648
C176	C	1.868025	-0.110641	-0.951966
H177	H	1.739278	-0.201597	-0.726201
H178	H	1.867981	-0.110722	-0.621231
H179	H	1.996711	-0.019796	-0.726299
H180	H	1.996741	-0.019743	-0.936344
H181	H	1.868038	-0.110618	-1.041314
H182	H	1.774873	-0.176399	-1.106320
H183	H	1.652907	-0.262526	-1.205813
H184	H	1.383963	-0.452480	-1.205718
H185	H	1.383897	-0.452583	-0.807589
