data_functionalizedCrystal
_audit_creation_method	'MofGen! by Chris Wilmer'
_symmetry_space_group_name_H-M	'P1'
_symmetry_Int_Tables_number	1
_symmetry_cell_setting	triclinic
loop_
_symmetry_equiv_pos_as_xyz
  x,y,z
_cell_length_a	14.971486
_cell_length_b	16.109301
_cell_length_c	14.048226
_cell_angle_alpha	89.992144
_cell_angle_beta	89.998499
_cell_angle_gamma	83.537805
loop_
_atom_site_label
_atom_site_type_symbol
_atom_site_fract_x
_atom_site_fract_y
_atom_site_fract_z
O1	O	1.186791	0.108348	-0.079054
O2	O	1.686791	0.608348	0.420946
O3	O	0.926372	0.121323	-0.079081
O4	O	1.426372	0.621323	0.420919
O5	O	1.063735	-0.006187	-0.079057
O6	O	1.563735	0.493813	0.420943
O7	O	1.049427	0.235857	-0.079078
O8	O	1.549427	0.735857	0.420922
O9	O	1.063719	-0.006194	0.079264
O10	O	1.563719	0.493806	0.579264
O11	O	0.926355	0.121315	0.079241
O12	O	1.426355	0.621315	0.579241
O13	O	1.186774	0.108340	0.079267
O14	O	1.686774	0.608340	0.579267
Zn15	Zn	1.056562	0.114826	0.104391
Zn16	Zn	1.556562	0.614826	0.604391
Zn17	Zn	1.056584	0.114836	-0.104204
Zn18	Zn	1.556584	0.614836	0.395796
O19	O	1.049411	0.235850	0.079244
O20	O	1.549411	0.735850	0.579244
C21	C	0.893040	0.120739	0.000077
C22	C	1.393040	0.620739	0.500077
C23	C	0.793745	0.119000	0.000067
C24	C	1.293745	0.619000	0.500067
C25	C	1.063147	-0.037166	0.000104
C26	C	1.563147	0.462834	0.500104
C27	C	1.061410	-0.129464	0.000105
C28	C	1.561410	0.370536	0.500105
C29	C	0.736412	0.193908	0.000062
C30	C	1.236412	0.693908	0.500062
C31	C	0.643115	0.192269	0.000076
C32	C	1.143115	0.692269	0.500076
C33	C	0.607153	0.115721	0.000089
C34	C	1.107153	0.615721	0.500089
C35	C	0.664494	0.040807	0.000097
C36	C	1.164494	0.540807	0.500097
C37	C	0.757789	0.042447	0.000089
C38	C	1.257789	0.542447	0.500089
C39	C	0.470036	0.037395	0.000110
C40	C	0.970036	0.537395	0.500110
C41	C	0.376734	0.035755	0.000116
C42	C	0.876734	0.535755	0.500116
C43	C	0.355362	0.187217	0.000097
C44	C	0.855362	0.687217	0.500097
C45	C	0.448657	0.188857	0.000090
C46	C	0.948657	0.688857	0.500090
C47	C	0.505991	0.113942	0.000096
C48	C	1.005991	0.613942	0.500096
C49	C	1.138878	-0.351640	0.000098
C50	C	1.638878	0.148360	0.500098
C51	C	1.137239	-0.438362	0.000090
C52	C	1.637239	0.061638	0.500090
C53	C	0.974262	-0.418691	0.000077
C54	C	1.474262	0.081309	0.500077
C55	C	0.975902	-0.331970	0.000078
C56	C	1.475902	0.168030	0.500078
C57	C	1.058213	-0.298447	0.000094
C58	C	1.558213	0.201553	0.500094
C59	C	1.054933	-0.471890	0.000085
C60	C	1.554933	0.028110	0.500085
C61	C	1.053155	-0.565918	0.000076
C62	C	1.553155	-0.065918	0.500076
C63	C	1.059992	-0.204413	0.000101
C64	C	1.559992	0.295587	0.500101
C65	C	1.220106	0.108924	0.000108
C66	C	1.720106	0.608924	0.500108
C67	C	1.319401	0.110663	0.000111
C68	C	1.819401	0.610663	0.500111
C69	C	1.049999	0.266829	0.000080
C70	C	1.549999	0.766829	0.500080
C71	C	1.051736	0.359127	0.000073
C72	C	1.551736	0.859127	0.500073
N73	N	1.056554	0.114819	0.246752
N74	N	1.556554	0.614819	0.746752
N75	N	1.056599	0.114837	-0.246565
N76	N	1.556599	0.614837	0.253435
C77	C	1.117397	0.058381	0.296580
C78	C	1.617397	0.558381	0.796580
C79	C	1.117403	0.058381	0.396238
C80	C	1.617403	0.558381	0.896238
C81	C	1.056570	0.114823	0.446065
C82	C	1.556570	0.614823	0.946065
C83	C	0.995719	0.171263	0.396230
C84	C	1.495719	0.671263	0.896230
C85	C	0.995710	0.171259	0.296574
C86	C	1.495710	0.671259	0.796574
C87	C	0.995745	0.171269	0.603944
C88	C	1.495745	0.671269	1.103944
C89	C	0.995756	0.171275	0.703607
C90	C	1.495756	0.671275	1.203607
C91	C	1.117439	0.058391	0.703608
C92	C	1.617439	0.558391	1.203608
C93	C	1.117429	0.058387	0.603952
C94	C	1.617429	0.558387	1.103952
C95	C	1.056580	0.114829	0.554123
C96	C	1.556580	0.614829	1.054123
H97	H	0.765684	0.256242	0.000051
H98	H	1.265684	0.756242	0.500051
H99	H	1.166984	0.012434	0.744184
H100	H	1.666984	0.512434	1.244184
C101	C	0.883725	-0.455565	0.000064
C102	C	1.383725	0.044435	0.500064
H103	H	0.835918	-0.411463	0.000051
H104	H	1.335918	0.088537	0.500051
H105	H	0.879689	-0.488994	0.055272
H106	H	1.379689	0.011006	0.555272
H107	H	0.879705	-0.488978	-0.055156
H108	H	1.379705	0.011022	0.444844
H109	H	0.910211	-0.288658	0.000072
H110	H	1.410211	0.211342	0.500072
C111	C	0.337177	-0.048446	0.000136
C112	C	0.837177	0.451554	0.500136
H113	H	0.384683	-0.092827	0.000151
H114	H	0.884683	0.407173	0.500151
H115	H	0.301225	-0.052234	-0.055072
H116	H	0.801225	0.447766	0.444928
H117	H	0.301228	-0.052227	0.055355
H118	H	0.801228	0.447773	0.555355
C119	C	1.225968	-0.496874	0.000091
C120	C	1.725968	0.003126	0.500091
H121	H	1.213206	-0.553324	0.000076
H122	H	1.713206	-0.053324	0.500076
H123	H	1.259718	-0.486714	0.055303
H124	H	1.759718	0.013286	0.555303
H125	H	1.259717	-0.486690	-0.055124
H126	H	1.759717	0.013310	0.444876
C127	C	0.533102	-0.045009	0.000106
C128	C	1.033102	0.454991	0.500106
H129	H	0.498324	-0.090834	0.000102
H130	H	0.998324	0.409166	0.500102
H131	H	0.569950	-0.047528	0.055309
H132	H	1.069950	0.452472	0.555309
H133	H	0.569931	-0.047507	-0.055118
H134	H	1.069931	0.452493	0.444882
C135	C	0.928784	0.233306	0.758415
C136	C	1.428784	0.733306	1.258415
H137	H	0.892518	0.266898	0.714468
H138	H	1.392518	0.766898	1.214468
H139	H	0.960893	0.267990	0.797309
H140	H	1.460893	0.767990	1.297309
H141	H	0.891592	0.203281	0.797272
H142	H	1.391592	0.703281	1.297272
C143	C	1.184315	-0.003707	0.241779
C144	C	1.684315	0.496293	0.741779
H145	H	1.220545	-0.037324	0.285731
H146	H	1.720545	0.462676	0.785731
H147	H	1.221533	0.026254	0.202889
H148	H	1.721533	0.526254	0.702889
H149	H	1.152142	-0.038371	0.202918
H150	H	1.652142	0.461629	0.702918
C151	C	1.184340	-0.003693	0.451045
C152	C	1.684340	0.496307	0.951045
H153	H	1.220578	-0.037299	0.407097
H154	H	1.720578	0.462701	0.907097
H155	H	1.152191	-0.038357	0.489936
H156	H	1.652191	0.461643	0.989936
H157	H	1.221563	0.026287	0.489906
H158	H	1.721563	0.526287	0.989906
C159	C	0.820855	-0.039952	0.000086
C160	C	1.320855	0.460048	0.500086
H161	H	0.786078	-0.085777	0.000084
H162	H	1.286078	0.414223	0.500084
H163	H	0.857700	-0.042466	0.055291
H164	H	1.357700	0.457534	0.555291
H165	H	0.857688	-0.042455	-0.055136
H166	H	1.357688	0.457545	0.444864
H167	H	0.477934	0.251189	0.000070
H168	H	0.977934	0.751189	0.500070
C169	C	1.229413	-0.314762	0.000107
C170	C	1.729413	0.185238	0.500107
H171	H	1.218840	-0.255496	0.000117
H172	H	1.718840	0.244504	0.500117
H173	H	1.262631	-0.333008	-0.055101
H174	H	1.762631	0.166992	0.444899
H175	H	1.262620	-0.333024	0.055327
H176	H	1.762620	0.166976	0.555327
H177	H	0.946192	0.217228	0.563377
H178	H	1.446192	0.717228	1.063377
C179	C	0.928775	0.233325	0.451032
C180	C	1.428775	0.733325	0.951032
H181	H	0.892524	0.266925	0.407081
H182	H	1.392524	0.766925	0.907081
H183	H	0.960913	0.267997	0.489911
H184	H	1.460913	0.767997	0.989911
H185	H	0.891566	0.203331	0.489904
H186	H	1.391566	0.703331	0.989904
H187	H	0.635206	-0.021520	0.000121
H188	H	1.135206	0.478480	0.500121
C189	C	0.928786	0.233344	0.241762
C190	C	1.428786	0.733344	0.741762
H191	H	0.892562	0.266965	0.285709
H192	H	1.392562	0.766965	0.785709
H193	H	0.891561	0.203378	0.202898
H194	H	1.391561	0.703378	0.702898
H195	H	0.960950	0.268005	0.202876
H196	H	1.460950	0.768005	0.702876
H197	H	0.596437	0.253267	0.000071
H198	H	1.096437	0.753267	0.500071
H199	H	0.308675	0.248215	0.000097
H200	H	0.808675	0.748215	0.500097
H201	H	1.166969	0.012432	0.563383
H202	H	1.666969	0.512432	1.063383
