data_functionalizedCrystal
_audit_creation_method	'MofGen! by Chris Wilmer'
_symmetry_space_group_name_H-M	'P1'
_symmetry_Int_Tables_number	1
_symmetry_cell_setting	triclinic
loop_
_symmetry_equiv_pos_as_xyz
  x,y,z
_cell_length_a	16.109318
_cell_length_b	16.109304
_cell_length_c	17.766277
_cell_angle_alpha	89.996447
_cell_angle_beta	89.994221
_cell_angle_gamma	83.465600
loop_
_atom_site_label
_atom_site_type_symbol
_atom_site_fract_x
_atom_site_fract_y
_atom_site_fract_z
O1	O	1.103130	0.106937	-0.062527
O2	O	0.861070	0.120221	-0.062541
O3	O	0.988748	-0.007451	-0.062534
O4	O	0.975451	0.234609	-0.062534
O5	O	0.988726	-0.007458	0.062654
O6	O	0.861047	0.120215	0.062647
O7	O	1.103107	0.106930	0.062662
Cu8	Cu	0.982075	0.113572	0.074085
Cu9	Cu	0.982102	0.113580	-0.073965
O10	O	0.975429	0.234603	0.062654
C11	C	0.830084	0.119677	0.000051
C12	C	0.737789	0.118056	0.000045
C13	C	0.438728	0.112825	-0.068182
C14	C	0.525449	0.114342	-0.068187
C15	C	0.525443	0.114324	0.068301
C16	C	0.438725	0.112801	0.068305
C17	C	0.395368	0.112055	0.000061
C18	C	0.568809	0.115096	0.000053
C19	C	0.662836	0.116741	0.000048
C20	C	0.301336	0.110408	0.000065
C21	C	0.988198	-0.038430	0.000058
C22	C	0.986582	-0.130725	0.000053
C23	C	0.982861	-0.343059	-0.068185
C24	C	0.981334	-0.429779	-0.068184
C25	C	0.981314	-0.429783	0.068303
C26	C	0.982834	-0.343064	0.068302
C27	C	0.983612	-0.299704	0.000056
C28	C	0.980565	-0.473144	0.000058
C29	C	0.978911	-0.567170	0.000059
C30	C	0.985265	-0.205672	0.000054
C31	C	1.134093	0.107474	0.000068
C32	C	1.226388	0.109095	0.000069
C33	C	0.975979	0.265581	0.000060
C34	C	0.977595	0.357876	0.000060
N35	N	0.982063	0.113566	0.178215
N36	N	0.982121	0.113579	-0.178095
C37	C	1.038617	0.057060	0.217606
C38	C	1.038622	0.057056	0.296407
C39	C	0.982080	0.113573	0.335816
C40	C	0.925515	0.170083	0.296416
C41	C	0.925507	0.170079	0.217616
C42	C	0.971167	0.189294	0.460654
C43	C	0.971182	0.189298	0.539452
C44	C	0.982102	0.113583	0.578862
C45	C	0.993026	0.037859	0.539464
C46	C	0.993018	0.037856	0.460663
C47	C	0.982083	0.113582	0.421262
C48	C	1.038665	0.057068	0.703698
C49	C	1.038664	0.057063	0.782502
C50	C	0.925562	0.170097	0.782509
C51	C	0.925559	0.170094	0.703707
C52	C	0.982115	0.113581	0.664307
H53	H	0.403430	0.112217	-0.123750
O54	O	0.567435	0.115128	-0.134545
C55	C	0.510571	0.114121	-0.194773
H56	H	0.445306	0.139340	-0.174760
H57	H	0.530340	0.154908	-0.242500
H58	H	0.510085	0.047303	-0.215762
O59	O	0.960525	0.262926	0.577604
C60	C	0.950893	0.329754	0.525925
H61	H	0.928053	0.306746	0.469761
H62	H	0.903330	0.381473	0.548698
H63	H	1.013504	0.355082	0.517527
O64	O	1.093637	0.002284	0.820852
C65	C	1.144923	0.046837	0.866409
H66	H	1.111785	0.111881	0.878213
H67	H	1.158091	0.012141	0.921823
H68	H	1.206361	0.052514	0.836032
O69	O	0.396492	0.112160	0.134551
C70	C	0.336905	0.183247	0.138650
H71	H	0.320776	0.207022	0.079403
H72	H	0.278044	0.165980	0.167527
H73	H	0.363712	0.234219	0.172336
H74	H	1.084714	0.011049	0.671617
O75	O	1.093599	0.002278	0.334761
C76	C	1.144889	0.046832	0.380312
H77	H	1.111753	0.111877	0.392118
H78	H	1.158063	0.012138	0.435726
H79	H	1.206324	0.052509	0.349929
O80	O	0.980605	-0.472039	0.134527
C81	C	0.979086	-0.557875	0.119897
H82	H	1.005188	-0.573163	0.061247
H83	H	1.018849	-0.596120	0.163479
H84	H	0.911996	-0.573752	0.123136
O85	O	0.983455	-0.300961	-0.134499
C86	C	0.911133	-0.312746	-0.176014
H87	H	0.860418	-0.329989	-0.136077
H88	H	0.887976	-0.252554	-0.206976
H89	H	0.926522	-0.365220	-0.218558
O90	O	0.983598	-0.301077	0.134662
C91	C	0.982572	-0.357939	0.194898
H92	H	1.007800	-0.423203	0.174899
H93	H	1.023341	-0.338166	0.242628
H94	H	0.915747	-0.358426	0.215878
O95	O	0.980459	-0.471912	-0.134453
C96	C	0.907627	-0.512655	-0.138533
H97	H	0.857782	-0.479929	-0.099811
H98	H	0.883466	-0.510470	-0.198892
H99	H	0.922738	-0.580512	-0.120198
H100	H	1.001910	-0.023801	0.428588
O101	O	1.003487	-0.035684	0.577764
C102	C	0.932933	-0.042418	0.623370
H103	H	0.876953	-0.000990	0.599633
H104	H	0.918689	-0.110128	0.624264
H105	H	0.946105	-0.021584	0.683090
O106	O	0.567684	0.115095	0.134522
C107	C	0.653525	0.116587	0.119887
H108	H	0.661922	0.143106	0.061238
H109	H	0.681190	0.157503	0.163470
H110	H	0.686875	0.050360	0.123119
O111	O	1.093579	0.002079	0.179450
C112	C	1.143510	-0.047782	0.231121
H113	H	1.109432	-0.048729	0.287300
H114	H	1.156212	-0.114177	0.208361
H115	H	1.205261	-0.020761	0.239486
O116	O	0.870600	0.224883	0.820863
C117	C	0.819315	0.180337	0.866441
H118	H	0.852449	0.115291	0.878248
H119	H	0.806155	0.215036	0.921853
H120	H	0.757873	0.174662	0.836081
O121	O	0.870596	0.225072	0.665556
C122	C	0.820676	0.274941	0.717233
H123	H	0.854766	0.275895	0.773399
H124	H	0.807971	0.341333	0.694461
H125	H	0.758927	0.247922	0.725627
O126	O	0.960679	0.262798	0.422288
C127	C	1.031253	0.269531	0.376709
H128	H	1.064474	0.204520	0.364910
H129	H	1.010612	0.301075	0.321294
H130	H	1.075741	0.308440	0.407064
H131	H	0.879477	0.216098	0.328507
O132	O	0.870539	0.225055	0.179465
C133	C	0.820616	0.274923	0.231141
H134	H	0.854702	0.275876	0.287309
H135	H	0.807910	0.341315	0.208370
H136	H	0.758867	0.247902	0.239532
