data_functionalizedCrystal
_audit_creation_method	'MofGen! by Chris Wilmer'
_symmetry_space_group_name_H-M	'P1'
_symmetry_Int_Tables_number	1
_symmetry_cell_setting	triclinic
loop_
_symmetry_equiv_pos_as_xyz
  x,y,z
_cell_length_a	16.959455
_cell_length_b	25.639239
_cell_length_c	16.959447
_cell_angle_alpha	90.033076
_cell_angle_beta	90.014322
_cell_angle_gamma	90.035633
loop_
_atom_site_label
_atom_site_type_symbol
_atom_site_fract_x
_atom_site_fract_y
_atom_site_fract_z
Zn1	Zn	1.208282	-0.208183	0.446894
Zn2	Zn	1.208161	-0.295624	0.314709
Zn3	Zn	1.076110	-0.208199	0.314731
Zn4	Zn	1.076032	-0.295585	0.446847
O5	O	1.142146	-0.251898	0.380795
O6	O	1.318876	-0.219792	0.429369
O7	O	1.190627	-0.284050	0.204101
O8	O	1.093726	-0.135032	0.332291
O9	O	1.318788	-0.284034	0.332253
O10	O	1.190832	-0.135020	0.429391
O11	O	1.093609	-0.219820	0.204117
O12	O	0.965489	-0.219782	0.332247
O13	O	1.093593	-0.283967	0.557464
O14	O	0.965431	-0.283983	0.429312
O15	O	1.190756	-0.219754	0.557498
O16	O	1.190551	-0.368784	0.332208
O17	O	1.093476	-0.368755	0.429290
C18	C	0.936780	-0.251880	0.380777
C19	C	0.848923	-0.251886	0.380788
C20	C	0.477453	-0.218441	0.330359
C21	C	0.477442	-0.285398	0.431277
C22	C	0.559988	-0.285390	0.431272
C23	C	0.601270	-0.251908	0.380809
C24	C	0.560007	-0.218433	0.330351
C25	C	0.601258	-0.318868	0.481723
C26	C	0.683809	-0.318863	0.481720
C27	C	0.725092	-0.285377	0.431260
C28	C	0.683824	-0.251901	0.380801
C29	C	0.725106	-0.218418	0.330338
C30	C	0.683839	-0.184939	0.279882
C31	C	0.601290	-0.184948	0.279891
C32	C	0.807641	-0.285368	0.431251
C33	C	0.807660	-0.218411	0.330330
C34	C	1.142013	-0.387740	0.380759
C35	C	1.142029	-0.445854	0.380770
C36	C	1.192825	-0.806220	0.330331
C37	C	1.192855	-0.860824	0.330341
O38	O	1.235906	-0.889063	0.287417
N39	N	1.142285	-0.888137	0.380847
C40	C	1.091686	-0.860842	0.431352
O41	O	1.048675	-0.889088	0.474313
C42	C	1.091660	-0.806239	0.431345
C43	C	1.142228	-0.778929	0.380830
C44	C	1.243389	-0.778910	0.279820
C45	C	1.243358	-0.724309	0.279809
C46	C	1.192761	-0.697019	0.330308
C47	C	1.142196	-0.724329	0.380818
C48	C	1.041066	-0.778946	0.481853
C49	C	1.041045	-0.724339	0.481842
C50	C	1.091613	-0.697029	0.431326
C51	C	1.091568	-0.642437	0.431306
N52	N	1.142139	-0.615125	0.380800
C53	C	1.192735	-0.642415	0.330301
C54	C	1.091746	-0.975513	0.431364
C55	C	1.091767	-1.030115	0.431368
C56	C	1.192938	-1.030093	0.330358
C57	C	1.192912	-0.975490	0.330351
C58	C	1.142316	-0.948200	0.380858
C59	C	1.192664	-0.527750	0.330280
C60	C	1.192625	-0.473145	0.330271
C61	C	1.091458	-0.473172	0.431283
C62	C	1.091493	-0.527772	0.431290
C63	C	1.142103	-0.555060	0.380786
O64	O	1.048541	-0.614164	0.474211
O65	O	1.235746	-0.614163	0.287355
C66	C	1.348314	-0.251915	0.380814
C67	C	1.436171	-0.251923	0.380822
C68	C	1.142179	-0.251854	0.586963
C69	C	1.142193	-0.251836	0.674820
C70	C	1.142301	-0.115525	0.380849
C71	C	1.142367	-0.057411	0.380872
C72	C	1.142159	-0.251903	0.175429
C73	C	1.142298	-0.251774	0.087573
C74	C	1.091699	-0.285214	1.046281
C75	C	1.192876	-0.218348	1.046311
C76	C	1.192855	-0.218359	0.963765
C77	C	1.142256	-0.251799	0.922473
C78	C	1.091678	-0.285227	0.963727
C79	C	1.243438	-0.184935	0.922505
C80	C	1.243419	-0.184945	0.839954
C81	C	1.192816	-0.218382	0.798661
C82	C	1.142235	-0.251812	0.839920
C83	C	1.091636	-0.285251	0.798628
C84	C	1.041051	-0.318679	0.839885
C85	C	1.041074	-0.318665	0.922433
C86	C	1.192792	-0.218396	0.716112
C87	C	1.091615	-0.285265	0.716074
H88	H	0.717462	-0.157680	0.238791
H89	H	0.443850	-0.191181	0.289281
H90	H	1.284596	-0.801124	0.238698
H91	H	0.841237	-0.312628	0.472329
C92	C	1.299081	-0.148148	0.967926
H93	H	1.291837	-0.152922	1.022997
H94	H	1.352182	-0.155800	0.954404
H95	H	1.287536	-0.113020	0.954408
H96	H	1.234089	-0.953257	0.289218
H97	H	1.234139	-1.052323	0.289242
C98	C	0.555896	-0.148132	0.224385
H99	H	0.500821	-0.152938	0.231610
H100	H	0.569447	-0.113008	0.236040
H101	H	0.569405	-0.155747	0.171254
C102	C	1.036138	-1.060150	0.486929
H103	H	1.006007	-1.036072	0.517004
H104	H	1.001727	-1.081489	0.456672
H105	H	1.066368	-1.081413	0.521407
H106	H	1.050538	-0.953296	0.472491
C107	C	0.985446	-0.808975	0.537426
H108	H	0.955321	-0.784894	0.567503
H109	H	0.951028	-0.830313	0.507175
H110	H	1.015679	-0.830237	0.571901
C111	C	1.248327	-0.557759	0.274721
H112	H	1.278427	-0.533668	0.244636
H113	H	1.282765	-0.579025	0.304983
H114	H	1.218118	-0.579093	0.240253
C115	C	0.555852	-0.355638	0.537317
H116	H	0.592250	-0.375561	0.567386
H117	H	0.523725	-0.335612	0.571784
H118	H	0.523574	-0.378417	0.507099
C119	C	1.248526	-0.181565	1.091730
H120	H	1.241290	-0.186342	1.146802
H121	H	1.301624	-0.189217	1.078199
H122	H	1.236982	-0.146435	1.078220
H123	H	0.999845	-0.702122	0.522973
C124	C	1.298993	-0.694275	0.224252
H125	H	1.329133	-0.718355	0.194189
H126	H	1.268779	-0.673007	0.189775
H127	H	1.333407	-0.672942	0.254523
C128	C	1.036062	-0.321983	1.091658
H129	H	1.043321	-0.317189	1.146736
H130	H	0.982959	-0.314330	1.078131
H131	H	1.047594	-0.357117	1.078112
C132	C	1.035869	-0.557814	0.486853
H133	H	1.005735	-0.533739	0.516929
H134	H	1.001461	-0.579157	0.456598
H135	H	1.066106	-0.579074	0.521330
C136	C	1.299053	-0.148173	0.794578
H137	H	1.329186	-0.128254	0.830994
H138	H	1.333462	-0.168178	0.762360
H139	H	1.268825	-0.125392	0.762393
H140	H	1.050260	-0.450943	0.472397
H141	H	0.999893	-0.345881	0.956033
H142	H	0.443825	-0.312661	0.472356
C143	C	0.729195	-0.355683	0.537225
H144	H	0.692785	-0.375622	0.567283
H145	H	0.761376	-0.378436	0.506929
H146	H	0.761418	-0.335702	0.571721
H147	H	1.233980	-0.191182	0.682524
H148	H	1.050403	-0.312491	0.682460
H149	H	1.233804	-0.450911	0.289133
C150	C	0.985412	-0.355473	0.794462
H151	H	0.955297	-0.375385	0.830851
H152	H	0.950987	-0.335485	0.762255
H153	H	1.015641	-0.378260	0.762262
C154	C	0.853064	-0.181579	0.274821
H155	H	0.816663	-0.161645	0.244772
H156	H	0.885297	-0.158822	0.305116
H157	H	0.885236	-0.201551	0.240316
