data_functionalizedCrystal
_audit_creation_method	'MofGen! by Chris Wilmer'
_symmetry_space_group_name_H-M	'P1'
_symmetry_Int_Tables_number	1
_symmetry_cell_setting	triclinic
loop_
_symmetry_equiv_pos_as_xyz
  x,y,z
_cell_length_a	6.817900
_cell_length_b	15.185511
_cell_length_c	10.992410
_cell_angle_alpha	93.517895
_cell_angle_beta	108.764651
_cell_angle_gamma	104.265286
loop_
_atom_site_label
_atom_site_type_symbol
_atom_site_fract_x
_atom_site_fract_y
_atom_site_fract_z
V1	V	-4.091278	-0.125756	-0.400972
O2	O	-4.073480	0.006043	-0.392949
O3	O	-4.046282	-0.249353	-0.398605
O4	O	-4.069224	-0.123822	-0.575679
O5	O	-4.050379	-0.120358	-0.214650
V6	V	-4.571052	-0.109991	-0.378641
O7	O	-4.360762	-0.160337	-0.449958
O8	O	-4.751765	-0.075410	-0.329656
O9	O	-4.392842	0.013606	-0.381008
O10	O	-4.706247	-0.241791	-0.386664
O11	O	-4.729348	-0.115390	-0.564964
O12	O	-4.369900	-0.111926	-0.203934
C13	C	-3.891258	-0.279484	-0.392377
C14	C	-3.935930	-0.380526	-0.391606
C15	C	-3.898485	-0.415019	-0.273543
C16	C	-4.015343	-0.440977	-0.508948
C17	C	-4.057314	-0.535912	-0.508232
C18	C	-4.019869	-0.570405	-0.390169
C19	C	-3.940452	-0.509963	-0.272823
C20	C	-4.136713	-0.596361	-0.625575
C21	C	-4.178687	-0.691302	-0.624864
C22	C	-4.141255	-0.725797	-0.506800
C23	C	-4.061836	-0.665348	-0.389449
C24	C	-4.024390	-0.699841	-0.271386
C25	C	-3.944985	-0.639395	-0.154035
C26	C	-3.903020	-0.544457	-0.154759
C27	C	-4.183220	-0.820734	-0.506075
C28	C	-4.066357	-0.794785	-0.270666
C29	C	-3.920522	-0.119355	-0.618250
C30	C	-3.983796	-0.118591	-0.761076
C31	C	-3.852190	-0.111632	-0.956179
C32	C	-3.786426	-0.112803	-0.807699
C33	C	-4.165442	-0.208210	-0.838451
C34	C	-4.229901	-0.207418	-0.987015
C35	C	-4.139364	-0.033882	-0.948459
C36	C	-4.068732	-0.033457	-0.799445
C37	C	-4.211207	0.043731	-0.387233
C38	C	-4.145774	0.144773	-0.388012
C39	C	-4.181943	-0.116396	-0.161357
C40	C	-4.097907	-0.117155	-0.018529
H41	H	-3.649740	-0.048363	-0.754164
N42	N	-4.195953	-0.286510	-1.045333
N43	N	-4.350779	-0.344424	-1.129876
H44	H	-4.326798	-0.400284	-1.171061
N45	N	-4.025847	0.051504	-0.973706
N46	N	-4.039472	0.125606	-0.925802
H47	H	-3.959284	0.185908	-0.943632
H48	H	-4.314453	-0.215682	-0.809670
H49	H	-4.243341	-0.740511	-0.720419
H50	H	-3.833841	-0.365800	-0.177999
H51	H	-3.937588	0.032839	-0.746887
N52	N	-4.264285	-0.882463	-0.625941
N53	N	-4.297678	-0.851654	-0.731343
H54	H	-4.354929	-0.895249	-0.816007
H55	H	-4.410479	-0.215211	-1.029670
H56	H	-4.108135	-0.271418	-0.813036
N57	N	-3.821868	-0.482726	-0.034884
N58	N	-3.788430	-0.513530	0.070522
H59	H	-3.731104	-0.469929	0.155186
N60	N	-4.247226	-0.032134	-0.758630
N61	N	-4.315054	-0.094195	-0.700345
H62	H	-4.441127	-0.093268	-0.671520
H63	H	-4.317753	-0.037139	-0.989310
H64	H	-4.035867	-0.822861	-0.174524
H65	H	-3.914488	-0.667491	-0.057907
H66	H	-3.816324	-0.171464	-1.004351
N67	N	-4.053557	-0.405730	-0.629527
N68	N	-4.016067	-0.320962	-0.630152
H69	H	-4.043058	-0.296065	-0.715315
N70	N	-4.174916	-0.561124	-0.746161
N71	N	-4.022836	-0.507454	-0.767839
H72	H	-4.049817	-0.482564	-0.853007
N73	N	-3.720039	-0.030232	-0.979556
N74	N	-3.805402	0.024660	-1.042448
H75	H	-3.712073	0.082152	-1.058966
H76	H	-3.718165	-0.173466	-0.783067
