data_functionalizedCrystal
_audit_creation_method	'MofGen! by Chris Wilmer'
_symmetry_space_group_name_H-M	'P1'
_symmetry_Int_Tables_number	1
_symmetry_cell_setting	triclinic
loop_
_symmetry_equiv_pos_as_xyz
  x,y,z
_cell_length_a	15.944551
_cell_length_b	15.944551
_cell_length_c	15.021413
_cell_angle_alpha	89.998667
_cell_angle_beta	90.008891
_cell_angle_gamma	96.501262
loop_
_atom_site_label
_atom_site_type_symbol
_atom_site_fract_x
_atom_site_fract_y
_atom_site_fract_z
O1	O	0.108336	-1.114525	0.073941
O2	O	0.121692	-0.869976	0.073964
O3	O	-0.007261	-0.998929	0.073944
O4	O	0.237289	-0.985572	0.073961
O5	O	-0.007272	-0.998915	-0.074121
O6	O	0.121681	-0.869962	-0.074101
O7	O	0.108324	-1.114512	-0.074123
Zn8	Zn	0.115001	-0.992235	-0.097620
Zn9	Zn	0.115016	-0.992253	0.097461
O10	O	0.237277	-0.985559	-0.074103
C11	C	0.121132	-0.838675	-0.000066
C12	C	0.119470	-0.745429	-0.000057
C13	C	-0.038561	-0.998367	-0.000089
C14	C	-0.131807	-0.996705	-0.000089
C15	C	0.108885	-1.145813	-0.000092
C16	C	0.110547	-1.239059	-0.000094
C17	C	-0.346663	-0.912801	-0.000069
C18	C	-0.407686	-0.951756	-0.073077
C19	C	-0.302533	-0.993698	-0.000082
C20	C	-0.407658	-0.951789	0.072903
C21	C	-0.467445	-0.990787	-0.000071
C22	C	-0.362327	-1.032676	-0.073150
C23	C	-0.362293	-1.032697	0.072895
C24	C	-0.423298	-1.071711	-0.000131
C25	C	-0.207530	-0.995372	-0.000089
C26	C	-0.562446	-0.989119	-0.000070
C27	C	0.268577	-0.986120	-0.000069
C28	C	0.361823	-0.987782	-0.000063
N29	N	0.114990	-0.992229	-0.230758
C30	C	0.035565	-0.530572	-0.000081
C31	C	0.074533	-0.469559	0.072926
C32	C	0.116462	-0.574703	-0.000068
C33	C	0.074541	-0.469568	-0.073054
C34	C	0.113551	-0.409790	-0.000083
C35	C	0.155452	-0.514918	0.072998
C36	C	0.155449	-0.514933	-0.073047
C37	C	0.194476	-0.453937	-0.000023
C38	C	0.118137	-0.669705	-0.000059
C39	C	0.111883	-0.314789	-0.000085
N40	N	0.115020	-0.992265	0.230598
C41	C	0.055477	-1.052009	0.529580
C42	C	0.039017	-0.976167	0.470219
C43	C	0.115000	-0.992239	0.587635
C44	C	0.131429	-1.068092	0.470255
C45	C	0.115007	-0.992256	0.412211
C46	C	0.098503	-0.916359	0.529580
C47	C	0.190948	-1.008334	0.529622
C48	C	0.174521	-0.932437	0.470287
C49	C	0.114993	-0.992231	0.688693
C50	C	0.115015	-0.992256	0.311156
H51	H	-0.313356	-0.845652	-0.000136
H52	H	0.084537	-0.852203	0.555530
O53	O	0.147958	-1.144579	0.439034
C54	C	0.148513	-1.143311	0.345183
H55	H	0.109994	-1.091961	0.320432
H56	H	0.119717	-1.207204	0.318810
H57	H	0.216273	-1.129745	0.320415
O58	O	0.033699	-0.445457	-0.146622
C59	C	0.033388	-0.357067	-0.146032
H60	H	0.041725	-0.332688	-0.074874
H61	H	-0.029207	-0.340371	-0.173690
H62	H	0.087393	-0.326667	-0.189054
H63	H	0.040322	-0.449454	0.134642
O64	O	-0.431477	-0.910974	0.146604
C65	C	-0.359564	-0.883202	0.197841
H66	H	-0.306752	-0.923321	0.181636
H67	H	-0.375870	-0.889556	0.271602
H68	H	-0.337922	-0.814275	0.181718
H69	H	0.261683	-0.420779	0.000023
H70	H	0.255152	-1.021970	0.555733
H71	H	0.005103	-1.102489	0.555616
H72	H	-0.456457	-1.138919	-0.000178
O73	O	-0.431631	-0.910799	-0.146638
C74	C	-0.392210	-0.827056	-0.146385
H75	H	-0.373958	-0.807568	-0.075341
H76	H	-0.437662	-0.783230	-0.173958
H77	H	-0.333137	-0.822651	-0.189650
O78	O	-0.037659	-0.959953	0.439233
C79	C	-0.091669	-0.949290	0.511669
H80	H	-0.068682	-0.982359	0.572813
H81	H	-0.158521	-0.977779	0.494462
H82	H	-0.091478	-0.879111	0.526305
H83	H	-0.342342	-1.066858	-0.134941
O84	O	0.196342	-0.538837	-0.146650
C85	C	0.279639	-0.498267	-0.147268
H86	H	0.283067	-0.438503	-0.105148
H87	H	0.299072	-0.480981	-0.218561
H88	H	0.324134	-0.542511	-0.118596
O89	O	0.234591	-0.872021	0.439563
C90	C	0.276109	-0.829394	0.512179
H91	H	0.233437	-0.836318	0.573238
H92	H	0.291311	-0.759648	0.495184
H93	H	0.337152	-0.857747	0.526833
O94	O	-0.338147	-1.073376	0.146547
C95	C	-0.281046	-1.018132	0.196583
H96	H	-0.249791	-0.966323	0.151336
H97	H	-0.230665	-1.054864	0.226718
H98	H	-0.316507	-0.988541	0.252154
O99	O	-0.044551	-0.570282	0.000157
C100	C	-0.086891	-0.547292	0.077263
H101	H	-0.038667	-0.525296	0.130794
H102	H	-0.130087	-0.604082	0.102742
H103	H	-0.126155	-0.493908	0.060603
O104	O	0.196188	-0.538911	0.146689
C105	C	0.197248	-0.627208	0.145813
H106	H	0.143324	-0.657402	0.102545
H107	H	0.189313	-0.652662	0.216595
H108	H	0.259963	-0.642960	0.117593
