data_functionalizedCrystal
_audit_creation_method	'MofGen! by Chris Wilmer'
_symmetry_space_group_name_H-M	'P1'
_symmetry_Int_Tables_number	1
_symmetry_cell_setting	triclinic
loop_
_symmetry_equiv_pos_as_xyz
  x,y,z
_cell_length_a	16.120847
_cell_length_b	14.908571
_cell_length_c	16.120297
_cell_angle_alpha	89.752096
_cell_angle_beta	90.163930
_cell_angle_gamma	90.570554
loop_
_atom_site_label
_atom_site_type_symbol
_atom_site_fract_x
_atom_site_fract_y
_atom_site_fract_z
Zn1	Zn	0.429203	1.327271	-0.520324
Zn2	Zn	0.929203	1.827271	-0.020324
Zn3	Zn	0.561252	1.327985	-0.374273
Zn4	Zn	1.061252	1.827985	0.125727
Zn5	Zn	0.414226	1.185244	-0.374125
Zn6	Zn	0.914226	1.685244	0.125875
Zn7	Zn	0.559421	1.170100	-0.505327
Zn8	Zn	1.059421	1.670100	-0.005327
O9	O	0.491026	1.252650	-0.443512
O10	O	0.991026	1.752650	0.056488
O11	O	0.453753	1.452880	-0.507288
O12	O	0.953753	1.952880	-0.007288
O13	O	0.536248	1.315687	-0.258222
O14	O	1.036248	1.815687	0.241778
O15	O	0.300185	1.210124	-0.399734
O16	O	0.800185	1.710124	0.100266
O17	O	0.550770	1.453404	-0.399984
O18	O	1.050770	1.953404	0.100016
O19	O	0.311188	1.314470	-0.507145
O20	O	0.811188	1.814470	-0.007145
O21	O	0.428228	1.210816	-0.258114
O22	O	0.928228	1.710816	0.241886
O23	O	0.426452	1.057722	-0.385192
O24	O	0.926452	1.557722	0.114808
O25	O	0.547649	1.184312	-0.623348
O26	O	1.047649	1.684312	-0.123348
O27	O	0.533127	1.046595	-0.481585
O28	O	1.033127	1.546595	0.018415
O29	O	0.451978	1.299785	-0.634366
O30	O	0.951978	1.799785	-0.134366
O31	O	0.677037	1.301002	-0.385442
O32	O	1.177037	1.801002	0.114558
O33	O	0.675692	1.185004	-0.481728
O34	O	1.175692	1.685004	0.018272
C35	C	0.477966	1.019614	-0.431746
C36	C	0.977966	1.519614	0.068254
C37	C	0.472400	0.919918	-0.426730
C38	C	0.972400	1.419918	0.073270
C39	C	0.274760	1.263907	-0.455096
C40	C	0.774760	1.763907	0.044904
C41	C	0.182601	1.268704	-0.460032
C42	C	0.682601	1.768704	0.039968
C43	C	0.573179	0.721040	-0.517529
C44	C	1.073179	1.221040	-0.017529
C45	C	0.567952	0.627366	-0.512820
C46	C	1.067952	1.127366	-0.012820
C47	C	0.456716	0.638895	-0.412607
C48	C	0.956716	1.138895	0.087393
C49	C	0.461943	0.732568	-0.417316
C50	C	0.961943	1.232568	0.082684
C51	C	0.520177	0.773638	-0.469778
C52	C	1.020177	1.273638	0.030222
C53	C	0.525408	0.867313	-0.474483
C54	C	1.025408	1.367313	0.025517
C55	C	0.414168	0.878840	-0.374275
C56	C	0.914168	1.378840	0.125725
C57	C	0.408941	0.785166	-0.369565
C58	C	0.908941	1.285166	0.130435
C59	C	0.013865	1.277478	-0.469043
C60	C	0.513865	1.777478	0.030957
C61	C	-0.032651	1.227983	-0.418089
C62	C	0.467349	1.727983	0.081911
C63	C	-0.126542	1.232864	-0.423102
C64	C	0.373458	1.732864	0.076898
C65	C	0.107764	1.272597	-0.464030
C66	C	0.607764	1.772597	0.035970
C67	C	0.706452	1.241461	-0.431993
C68	C	1.206452	1.741461	0.068007
C69	C	0.798618	1.236754	-0.427097
C70	C	1.298618	1.736754	0.072903
C71	C	0.501280	1.240280	-0.659784
C72	C	1.001280	1.740280	-0.159784
C73	C	0.505649	1.235008	-0.751946
C74	C	1.005649	1.735008	-0.251946
C75	C	0.504136	1.486596	-0.455325
C76	C	1.004136	1.986596	0.044675
C77	C	0.509723	1.586290	-0.460359
C78	C	1.009723	2.086290	0.039641
C79	C	0.513607	1.225352	-0.920687
C80	C	1.013607	1.725352	-0.420687
C81	C	0.468206	1.280138	-0.967212
C82	C	0.968206	1.780138	-0.467212
C83	C	0.472633	1.274765	-1.061105
C84	C	0.972633	1.774765	-0.561105
C85	C	0.509180	1.230724	-0.826785
C86	C	1.009180	1.730724	-0.326785
C87	C	0.480754	1.265027	-0.228088
C88	C	0.980754	1.765027	0.271912
C89	C	0.476161	1.270484	-0.135948
C90	C	0.976161	1.770484	0.364052
H91	H	0.572826	0.900750	-0.517199
H92	H	1.072826	1.400750	-0.017199
O93	O	0.400078	0.599136	-0.361637
O94	O	0.900078	1.099136	0.138363
C95	C	0.290329	0.620444	-0.262700
C96	C	0.790329	1.120444	0.237300
C97	C	0.354421	0.665587	-0.320403
C98	C	0.854421	1.165587	0.179597
H99	H	0.253410	0.674149	-0.229334
H100	H	0.753410	1.174149	0.270666
H101	H	0.246338	0.576694	-0.300918
H102	H	0.746338	1.076694	0.199082
H103	H	0.323839	0.577059	-0.215085
H104	H	0.823839	1.077059	0.284915
H105	H	0.320981	0.709016	-0.368029
H106	H	0.820981	1.209016	0.131971
H107	H	0.398409	0.709283	-0.282131
H108	H	0.898409	1.209283	0.217869
O109	O	0.362638	0.929801	-0.327805
O110	O	0.862638	1.429801	0.172195
C111	C	0.251719	0.931346	-0.227950
C112	C	0.751719	1.431346	0.272050
C113	C	0.310035	0.873527	-0.280517
C114	C	0.810035	1.373527	0.219483
H115	H	0.209164	0.885873	-0.189718
H116	H	0.709164	1.385873	0.310282
H117	H	0.290066	0.975684	-0.184650
H118	H	0.790066	1.475684	0.315350
H119	H	0.212716	0.975297	-0.270619
H120	H	0.712716	1.475297	0.229381
H121	H	0.349051	0.829523	-0.237911
H122	H	0.849051	1.329523	0.262089
H123	H	0.271641	0.829248	-0.323825
H124	H	0.771641	1.329248	0.176175
O125	O	-0.022607	1.332421	-0.525646
O126	O	0.477393	1.832421	-0.025646
C127	C	-0.002347	1.439788	-0.636083
C128	C	0.497653	1.939788	-0.136083
C129	C	0.039077	1.377588	-0.572035
C130	C	0.539077	1.877588	-0.072035
H131	H	0.047505	1.476337	-0.673594
H132	H	0.547505	1.976337	-0.173594
H133	H	-0.043127	1.398234	-0.679538
H134	H	0.456873	1.898234	-0.179538
H135	H	-0.042097	1.490890	-0.602486
H136	H	0.457903	1.990890	-0.102486
H137	H	0.078868	1.326476	-0.605562
H138	H	0.578868	1.826476	-0.105562
H139	H	0.079808	1.419201	-0.528583
H140	H	0.579808	1.919201	-0.028583
O141	O	0.619524	0.576406	-0.559234
O142	O	1.119524	1.076406	-0.059234
C143	C	0.730367	0.574860	-0.659173
C144	C	1.230367	1.074860	-0.159173
C145	C	0.672026	0.632679	-0.606634
C146	C	1.172026	1.132679	-0.106634
H147	H	0.772818	0.620333	-0.697522
H148	H	1.272818	1.120333	-0.197522
H149	H	0.769471	0.530951	-0.616558
H150	H	1.269471	1.030951	-0.116558
H151	H	0.691956	0.530481	-0.702379
H152	H	1.191956	1.030481	-0.202379
H153	H	0.710372	0.677111	-0.563423
H154	H	1.210372	1.177111	-0.063423
H155	H	0.632919	0.676529	-0.649298
H156	H	1.132919	1.176529	-0.149298
H157	H	0.620600	0.754479	-0.560241
H158	H	1.120600	1.254479	-0.060241
O159	O	0.004089	1.173131	-0.361577
O160	O	0.504089	1.673131	0.138423
C161	C	0.132529	1.118127	-0.305052
C162	C	0.632529	1.618127	0.194948
C163	C	0.091025	1.180296	-0.369074
C164	C	0.591025	1.680296	0.130926
H165	H	0.202823	1.123884	-0.311103
H166	H	0.702823	1.623884	0.188897
H167	H	0.113339	1.138567	-0.239855
H168	H	0.613339	1.638567	0.260145
H169	H	0.112142	1.045849	-0.316843
H170	H	0.612142	1.545849	0.183157
H171	H	0.111391	1.252592	-0.357360
H172	H	0.611391	1.752592	0.142640
H173	H	0.110214	1.159780	-0.434250
H174	H	0.610214	1.659780	0.065750
O175	O	0.417927	1.340874	-0.930478
O176	O	0.917927	1.840874	-0.430478
C177	C	0.367541	1.401593	-0.802040
C178	C	0.867541	1.901593	-0.302040
C179	C	0.424534	1.332793	-0.843537
C180	C	0.924534	1.832793	-0.343537
H181	H	0.372850	1.395071	-0.731742
H182	H	0.872850	1.895071	-0.231742
H183	H	0.386926	1.472236	-0.821826
H184	H	0.886926	1.972236	-0.321826
H185	H	0.300601	1.388364	-0.821842
H186	H	0.800601	1.888364	-0.321842
H187	H	0.491490	1.345939	-0.823756
H188	H	0.991490	1.845939	-0.323756
H189	H	0.405078	1.262173	-0.823752
H190	H	0.905078	1.762173	-0.323752
H191	H	0.361527	0.751715	-0.326855
H192	H	0.861527	1.251715	0.173145
O193	O	0.563965	1.164512	-0.957152
O194	O	1.063965	1.664512	-0.457152
C195	C	0.662421	1.045796	-0.936877
C196	C	1.162421	1.545796	-0.436877
C197	C	0.605410	1.114634	-0.895460
C198	C	1.105410	1.614634	-0.395460
H199	H	0.695958	1.005464	-0.887019
H200	H	1.195958	1.505464	-0.387019
H201	H	0.623640	0.998541	-0.977063
H202	H	1.123640	1.498541	-0.477063
H203	H	0.709918	1.082470	-0.977221
H204	H	1.209918	1.582470	-0.477221
H205	H	0.557903	1.078035	-0.855075
H206	H	1.057903	1.578035	-0.355075
H207	H	0.644245	1.161886	-0.855323
H208	H	1.144245	1.661886	-0.355323
