data_functionalizedCrystal
_audit_creation_method	'MofGen! by Chris Wilmer'
_symmetry_space_group_name_H-M	'P1'
_symmetry_Int_Tables_number	1
_symmetry_cell_setting	triclinic
loop_
_symmetry_equiv_pos_as_xyz
  x,y,z
_cell_length_a	15.298068
_cell_length_b	16.120444
_cell_length_c	15.296720
_cell_angle_alpha	78.012939
_cell_angle_beta	91.645182
_cell_angle_gamma	103.030534
loop_
_atom_site_label
_atom_site_type_symbol
_atom_site_fract_x
_atom_site_fract_y
_atom_site_fract_z
Zn1	Zn	1.237592	-0.252309	0.738455
Zn2	Zn	1.737592	0.247691	1.238455
Zn3	Zn	1.255727	-0.366217	0.596994
Zn4	Zn	1.755727	0.133783	1.096994
Zn5	Zn	1.116987	-0.244068	0.566260
Zn6	Zn	1.616987	0.255932	1.066260
Zn7	Zn	1.080981	-0.413764	0.720107
Zn8	Zn	1.580981	0.086236	1.220107
O9	O	1.172822	-0.319089	0.655454
O10	O	1.672822	0.180911	1.155454
O11	O	1.363602	-0.250969	0.740231
O12	O	1.863602	0.249031	1.240231
O13	O	1.259981	-0.326666	0.469329
O14	O	1.759981	0.173334	0.969329
O15	O	1.140465	-0.126471	0.583918
O16	O	1.640465	0.373529	1.083918
O17	O	1.376926	-0.334657	0.636300
O18	O	1.876926	0.165343	1.136300
O19	O	1.229073	-0.132526	0.710430
O20	O	1.729073	0.367474	1.210430
O21	O	1.158050	-0.236923	0.446749
O22	O	1.658050	0.263077	0.946749
O23	O	0.988606	-0.283028	0.566127
O24	O	1.488606	0.216972	1.066127
O25	O	1.079097	-0.415695	0.846129
O26	O	1.579097	0.084305	1.346129
O27	O	0.962152	-0.407704	0.679158
O28	O	1.462152	0.092296	1.179158
O29	O	1.194159	-0.297074	0.859609
O30	O	1.694159	0.202926	1.359609
O31	O	1.225067	-0.491214	0.618508
O32	O	1.725067	0.008786	1.118508
O33	O	1.096682	-0.526147	0.708959
O34	O	1.596682	-0.026147	1.208959
C35	C	0.943329	-0.349632	0.617317
C36	C	1.443329	0.150368	1.117317
C37	C	0.845147	-0.362722	0.601024
C38	C	1.345147	0.137278	1.101024
C39	C	0.540553	-0.225743	0.771916
C40	C	1.040553	0.274257	1.271916
C41	C	0.632800	-0.213447	0.787229
C42	C	1.132800	0.286553	1.287229
C43	C	0.685891	-0.250764	0.740679
C44	C	1.185891	0.249236	1.240679
C45	C	0.646727	-0.300380	0.678813
C46	C	1.146727	0.199620	1.178813
C47	C	0.554470	-0.312683	0.663503
C48	C	1.054470	0.187317	1.163503
C49	C	0.699808	-0.337705	0.632266
C50	C	1.199808	0.162295	1.132266
C51	C	0.660643	-0.387321	0.570400
C52	C	1.160643	0.112679	1.070400
C53	C	0.568395	-0.399621	0.555093
C54	C	1.068395	0.100379	1.055093
C55	C	0.515304	-0.362303	0.601643
C56	C	1.015304	0.137697	1.101643
C57	C	0.792064	-0.325402	0.647576
C58	C	1.292064	0.174598	1.147576
C59	C	0.805981	-0.412342	0.539164
C60	C	1.305981	0.087658	1.039164
C61	C	0.713734	-0.424638	0.523850
C62	C	1.213734	0.075362	1.023850
C63	C	1.158956	-0.539456	0.665101
C64	C	1.658956	-0.039456	1.165101
C65	C	1.153099	-0.633724	0.669271
C66	C	1.653099	-0.133724	1.169271
C67	C	1.203384	-0.831001	0.634048
C68	C	1.703384	-0.331001	1.134048
C69	C	1.142421	-0.806306	0.676897
C70	C	1.642421	-0.306306	1.176897
C71	C	1.148364	-0.710272	0.672653
C72	C	1.648364	-0.210272	1.172653
C73	C	1.197442	-0.927043	0.638291
C74	C	1.697442	-0.427043	1.138291
C75	C	1.403210	-0.288429	0.693740
C76	C	1.903210	0.211571	1.193740
C77	C	1.501388	-0.275363	0.710056
C78	C	2.001388	0.224637	1.210056
C79	C	1.130589	-0.362607	0.885810
C80	C	1.630589	0.137393	1.385810
C81	C	1.112591	-0.381152	0.983974
C82	C	1.612591	0.118848	1.483974
C83	C	1.186762	-0.097863	0.645793
C84	C	1.686762	0.402137	1.145793
C85	C	1.192703	-0.003589	0.641675
C86	C	1.692703	0.496411	1.141675
C87	C	1.214945	-0.275673	0.426000
C88	C	1.714945	0.224327	0.926000
C89	C	1.233128	-0.256866	0.327854
C90	C	1.733128	0.243134	0.827854
C91	C	1.301493	-0.186394	1.288758
C92	C	1.801493	0.313606	1.788758
C93	C	1.318407	-0.168971	1.196529
C94	C	1.818407	0.331029	1.696529
C95	C	1.266955	-0.222015	1.143386
C96	C	1.766955	0.277985	1.643386
C97	C	1.198585	-0.292485	1.182481
C98	C	1.698585	0.207515	1.682481
C99	C	1.181673	-0.309913	1.274720
C100	C	1.681673	0.190087	1.774720
C101	C	1.147135	-0.345534	1.129348
C102	C	1.647135	0.154466	1.629348
C103	C	1.078765	-0.416004	1.168442
C104	C	1.578765	0.083996	1.668442
C105	C	1.061856	-0.433429	1.260673
C106	C	1.561856	0.066571	1.760673
C107	C	1.113309	-0.380386	1.313816
C108	C	1.613309	0.119614	1.813816
C109	C	1.164047	-0.328105	1.037108
C110	C	1.664047	0.171895	1.537108
C111	C	1.044227	-0.451624	1.023070
C112	C	1.544227	0.048376	1.523070
C113	C	1.027312	-0.469047	1.115299
C114	C	1.527312	0.030953	1.615299
H115	H	0.823943	-0.285003	0.697947
H116	H	1.323943	0.214997	1.197947
H117	H	1.085765	-0.857288	0.716768
H118	H	1.585765	-0.357288	1.216768
H119	H	1.343383	-0.143218	1.332036
H120	H	1.843383	0.356782	1.832036
H121	H	0.761003	-0.240747	0.753148
H122	H	1.261003	0.259253	1.253148
H123	H	1.280731	-0.207824	1.068289
H124	H	1.780731	0.292176	1.568289
H125	H	1.260035	-0.780025	0.594178
H126	H	1.760035	-0.280025	1.094178
H127	H	1.219714	-0.270727	1.005287
H128	H	1.719714	0.229273	1.505287
H129	H	1.374076	-0.111596	1.164705
H130	H	1.874076	0.388404	1.664705
H131	H	1.099540	-0.394568	1.388917
H132	H	1.599540	0.105432	1.888917
H133	H	0.681833	-0.465037	0.473479
H134	H	1.181833	0.034963	0.973479
H135	H	1.006191	-0.490817	1.292502
H136	H	1.506191	0.009183	1.792502
H137	H	0.971645	-0.526425	1.147143
H138	H	1.471645	-0.026425	1.647143
H139	H	0.664680	-0.173052	0.837604
H140	H	1.164680	0.326948	1.337604
H141	H	0.497317	-0.195370	0.809816
H142	H	0.997317	0.304630	1.309816
H143	H	0.536509	-0.440029	0.504724
H144	H	1.036509	0.059971	1.004724
H145	H	1.002332	-0.494818	0.979801
H146	H	1.502332	0.005182	1.479801
H147	H	0.849207	-0.442734	0.501263
H148	H	1.349207	0.057266	1.001263
H149	H	0.440187	-0.372319	0.589184
H150	H	0.940187	0.127681	1.089184
