data_functionalizedCrystal
_audit_creation_method	'MofGen! by Chris Wilmer'
_symmetry_space_group_name_H-M	'P1'
_symmetry_Int_Tables_number	1
_symmetry_cell_setting	triclinic
loop_
_symmetry_equiv_pos_as_xyz
  x,y,z
_cell_length_a	6.817900
_cell_length_b	9.582860
_cell_length_c	12.908943
_cell_angle_alpha	93.753946
_cell_angle_beta	100.860631
_cell_angle_gamma	111.206767
loop_
_atom_site_label
_atom_site_type_symbol
_atom_site_fract_x
_atom_site_fract_y
_atom_site_fract_z
V1	V	-4.035813	-0.205189	-0.328490
O2	O	-3.982036	0.011782	-0.322436
O3	O	-4.026814	-0.408703	-0.326053
O4	O	-3.973318	-0.201189	-0.471844
O5	O	-4.035902	-0.197169	-0.175636
V6	V	-4.516162	-0.179336	-0.310231
O7	O	-4.304034	-0.261898	-0.368544
O8	O	-4.698138	-0.122626	-0.270178
O9	O	-4.301954	0.024179	-0.312669
O10	O	-4.687336	-0.396307	-0.316285
O11	O	-4.633469	-0.187356	-0.463086
O12	O	-4.355450	-0.183336	-0.166878
C13	C	-3.881856	-0.458342	-0.320821
C14	C	-3.955691	-0.624713	-0.319784
C15	C	-3.813615	-0.193635	-0.506791
C16	C	-3.844063	-0.191712	-0.623982
C17	C	-4.267403	-0.202948	-0.854918
C18	C	-4.296021	-0.201142	-0.965029
C19	C	-3.929914	-0.186281	-0.954317
C20	C	-3.901296	-0.188088	-0.844206
C21	C	-4.070050	-0.196424	-0.794510
C22	C	-4.041434	-0.198241	-0.684398
C23	C	-3.675325	-0.183370	-0.673687
C24	C	-3.703943	-0.181563	-0.783798
C25	C	-4.110256	0.073810	-0.317897
C26	C	-4.015659	0.240179	-0.318942
C27	C	-4.178496	-0.190895	-0.131925
C28	C	-4.127286	-0.192811	-0.014733
H29	H	-4.178847	-0.205035	-0.643939
H30	H	-3.792528	-0.179484	-0.994797
H31	H	-4.456723	-0.206455	-1.014210
F32	F	-3.524361	-0.172695	-0.836699
H33	H	-4.404817	-0.209752	-0.814457
F34	F	-3.465276	-0.176435	-0.609389
