data_functionalizedCrystal
_audit_creation_method	'MofGen! by Chris Wilmer'
_symmetry_space_group_name_H-M	'P1'
_symmetry_Int_Tables_number	1
_symmetry_cell_setting	triclinic
loop_
_symmetry_equiv_pos_as_xyz
  x,y,z
_cell_length_a	10.489711
_cell_length_b	10.489716
_cell_length_c	11.295483
_cell_angle_alpha	94.140629
_cell_angle_beta	85.851708
_cell_angle_gamma	84.528072
loop_
_atom_site_label
_atom_site_type_symbol
_atom_site_fract_x
_atom_site_fract_y
_atom_site_fract_z
O1	O	1.702577	0.171274	-0.099057
O2	O	1.331374	0.188207	-0.099049
O3	O	1.525439	-0.005861	-0.099057
O4	O	1.508512	0.365342	-0.099049
O5	O	1.508393	0.011158	0.098994
O6	O	1.314329	0.205226	0.099003
O7	O	1.685531	0.188293	0.098994
Cu8	Cu	1.498374	0.198313	0.117082
Cu9	Cu	1.518532	0.178187	-0.117137
O10	O	1.491467	0.382361	0.099003
C11	C	1.275319	0.195446	-0.000022
C12	C	1.133688	0.191644	-0.000020
C13	C	0.951292	0.308349	-0.000031
C14	C	1.051847	0.241662	-0.097680
C15	C	1.035015	0.258410	0.097583
C16	C	0.981915	0.118109	-0.097775
C17	C	0.965066	0.134882	0.097576
C18	C	1.065595	0.068103	-0.000097
C19	C	1.515645	-0.044883	-0.000035
C20	C	1.511841	-0.186515	-0.000046
C21	C	1.630846	-0.284201	-0.000038
C22	C	1.576364	-0.369946	-0.097683
C23	C	1.559532	-0.353130	0.097580
C24	C	1.457416	-0.270401	-0.097772
C25	C	1.440593	-0.253573	0.097579
C26	C	1.386026	-0.339271	-0.000090
C27	C	1.741587	0.181054	-0.000035
C28	C	1.883218	0.184855	-0.000045
C29	C	1.501261	0.421383	-0.000022
C30	C	1.505066	0.563014	-0.000019
N31	N	1.484205	0.212469	0.281819
N32	N	1.532711	0.164021	-0.281874
C33	C	1.634705	0.062051	0.531102
C34	C	1.624007	0.072758	0.655766
C35	C	1.452104	0.244581	0.655814
C36	C	1.462803	0.233875	0.531150
C37	C	1.554107	0.142608	0.468798
C38	C	1.564811	0.131909	0.344132
C39	C	1.392903	0.303725	0.344182
C40	C	1.382205	0.314432	0.468846
H41	H	0.901601	0.409843	-0.000125
H42	H	1.377758	0.318880	0.706597
O43	O	1.754304	-0.254692	0.000058
C44	C	1.908016	-0.141187	0.102987
C45	C	1.768172	-0.174531	0.103048
H46	H	1.919266	-0.076351	0.186232
H47	H	1.975381	-0.233254	0.102149
H48	H	1.932910	-0.089196	0.020473
H49	H	1.743156	-0.226488	0.185548
H50	H	1.700885	-0.082420	0.103823
O51	O	1.372237	-0.192970	0.195976
C52	C	1.298487	0.009364	0.305659
C53	C	1.375902	-0.059105	0.194148
H54	H	1.301447	0.117603	0.304230
H55	H	1.194571	-0.014213	0.306521
H56	H	1.342212	-0.024630	0.388831
H57	H	1.332289	-0.025150	0.110916
H58	H	1.479812	-0.035530	0.193391
O59	O	1.063295	0.329394	0.196041
C60	C	1.036855	0.536306	0.307241
C61	C	1.004711	0.456047	0.195711
H62	H	0.989528	0.638727	0.306998
H63	H	0.999499	0.491899	0.390497
H64	H	1.145427	0.537722	0.306752
H65	H	0.896155	0.454601	0.196085
H66	H	1.042157	0.500483	0.112505
H67	H	1.327279	0.369324	0.293440
H68	H	1.633707	-0.420540	-0.180239
O69	O	1.406115	-0.227016	-0.196343
C70	C	1.352135	-0.044017	-0.306911
C71	C	1.410276	-0.092983	-0.195241
H72	H	1.355454	0.064357	-0.306045
H73	H	1.409668	-0.093024	-0.390060
H74	H	1.248145	-0.067135	-0.307259
H75	H	1.514257	-0.069876	-0.194778
H76	H	1.352648	-0.043979	-0.112142
H77	H	1.307863	0.388736	0.519627
O78	O	1.097314	0.295793	-0.196007
C79	C	1.090221	0.483635	-0.307139
C80	C	1.038581	0.422456	-0.195773
H81	H	1.042738	0.586042	-0.306999
H82	H	1.198684	0.485261	-0.306485
H83	H	1.067408	0.424846	-0.390431
H84	H	1.061302	0.481194	-0.112422
H85	H	0.930131	0.420810	-0.196532
H86	H	1.602689	-0.389514	0.180130
O87	O	0.919600	0.081255	0.196184
C88	C	0.894511	0.094517	0.410600
C89	C	0.946041	0.155385	0.299015
H90	H	0.915893	0.154409	0.493767
H91	H	0.786297	0.091281	0.409253
H92	H	0.943278	-0.007271	0.411381
H93	H	0.897371	0.257197	0.298161
H94	H	1.054262	0.158521	0.300405
H95	H	1.639159	0.057598	0.293366
O96	O	1.723267	-0.026755	0.470566
C97	C	1.799356	-0.251101	0.432399
C98	C	1.698961	-0.150674	0.501015
H99	H	1.779757	-0.351309	0.457011
H100	H	1.793145	-0.245008	0.332586
H101	H	1.899560	-0.231314	0.456867
H102	H	1.598711	-0.170394	0.476648
H103	H	1.705285	-0.156790	0.600812
O104	O	0.953586	0.047556	-0.196469
C105	C	0.842310	0.044990	-0.375799
C106	C	0.874319	0.125037	-0.264092
H107	H	0.778196	0.107593	-0.430491
H108	H	0.934962	0.007810	-0.431778
H109	H	0.790000	-0.039736	-0.347776
H110	H	0.926593	0.209820	-0.292009
H111	H	0.781623	0.162119	-0.208141
O112	O	1.124593	-0.053138	-0.000368
C113	C	1.164642	-0.264001	-0.103530
C114	C	1.097783	-0.126737	-0.103381
H115	H	1.142969	-0.323552	-0.186795
H116	H	1.272838	-0.260194	-0.102812
H117	H	1.127540	-0.309900	-0.021035
H118	H	1.134781	-0.080757	-0.185863
H119	H	0.989595	-0.130630	-0.104037
H120	H	1.282437	-0.363695	-0.000140
H121	H	1.689636	0.007159	0.706491
