data_functionalizedCrystal
_audit_creation_method	'MofGen! by Chris Wilmer'
_symmetry_space_group_name_H-M	'P1'
_symmetry_Int_Tables_number	1
_symmetry_cell_setting	triclinic
loop_
_symmetry_equiv_pos_as_xyz
  x,y,z
_cell_length_a	21.395362
_cell_length_b	21.395364
_cell_length_c	21.395356
_cell_angle_alpha	90.017542
_cell_angle_beta	90.027748
_cell_angle_gamma	90.025457
loop_
_atom_site_label
_atom_site_type_symbol
_atom_site_fract_x
_atom_site_fract_y
_atom_site_fract_z
Zn1	Zn	0.249493	-0.957821	-0.354281
Zn2	Zn	0.354271	-0.957743	-0.249504
Zn3	Zn	0.249506	-0.853051	-0.249516
Zn4	Zn	0.354232	-0.853010	-0.354242
O5	O	0.301876	-0.905406	-0.301886
O6	O	0.263403	-1.045489	-0.340393
O7	O	0.340395	-0.943840	-0.161828
O8	O	0.161827	-0.866998	-0.263434
O9	O	0.340382	-1.045432	-0.263414
O10	O	0.161817	-0.943973	-0.340404
O11	O	0.263425	-0.866923	-0.161836
O12	O	0.263388	-0.765368	-0.263397
O13	O	0.340317	-0.866929	-0.441925
O14	O	0.340330	-0.765338	-0.340339
O15	O	0.263365	-0.943933	-0.441954
O16	O	0.441943	-0.943801	-0.263377
O17	O	0.441915	-0.866854	-0.340328
C18	C	0.301856	-0.742619	-0.301865
C19	C	0.301863	-0.672978	-0.301871
C20	C	0.342002	-0.171182	-0.341900
C21	C	0.342003	-0.236618	-0.341894
C22	C	0.301880	-0.269339	-0.301896
C23	C	0.261764	-0.236620	-0.261889
C24	C	0.261769	-0.171186	-0.261891
C25	C	0.245417	-0.373026	-0.297046
C26	C	0.245412	-0.438459	-0.297048
C27	C	0.301866	-0.471160	-0.301885
C28	C	0.358329	-0.438420	-0.306734
C29	C	0.358333	-0.372986	-0.306736
C30	C	0.301871	-0.340292	-0.301889
C31	C	0.341984	-0.574824	-0.341881
C32	C	0.341986	-0.640261	-0.341871
C33	C	0.261742	-0.640262	-0.261869
C34	C	0.261745	-0.574826	-0.261875
C35	C	0.301865	-0.542111	-0.301885
C36	C	0.464663	-0.905332	-0.301861
C37	C	0.534304	-0.905357	-0.301871
C38	C	1.036094	-0.945618	-0.261943
C39	C	0.970659	-0.945595	-0.261926
C40	C	0.937943	-0.905490	-0.301951
C41	C	0.970667	-0.865395	-0.341984
C42	C	1.036101	-0.865415	-0.341995
C43	C	0.834242	-0.900475	-0.358378
C44	C	0.768809	-0.900460	-0.358368
C45	C	0.736122	-0.905425	-0.301916
C46	C	0.768876	-0.910419	-0.245473
C47	C	0.834310	-0.910439	-0.245484
C48	C	0.866990	-0.905464	-0.301943
C49	C	0.632453	-0.945490	-0.261864
C50	C	0.567016	-0.945462	-0.261846
C51	C	0.567026	-0.865266	-0.341910
C52	C	0.632461	-0.865290	-0.341922
C53	C	0.665171	-0.905406	-0.301900
C54	C	1.138452	-0.905497	-0.301933
C55	C	1.068811	-0.905530	-0.301973
C56	C	0.301835	-0.905436	-0.465309
C57	C	0.301818	-0.905448	-0.534950
C58	C	0.301892	-0.068830	-0.301903
C59	C	0.301889	-0.138471	-0.301900
C60	C	0.261650	-0.945603	-1.036762
C61	C	0.261665	-0.945598	-0.971327
C62	C	0.301735	-0.905502	-0.938589
C63	C	0.341804	-0.865419	-0.971292
C64	C	0.341792	-0.865429	-1.036726
C65	C	0.306694	-0.849033	-0.834912
C66	C	0.306702	-0.849021	-0.769479
C67	C	0.301775	-0.905470	-0.736768
C68	C	0.296827	-0.961931	-0.769498
C69	C	0.296816	-0.961942	-0.834932
C70	C	0.301752	-0.905486	-0.867636
C71	C	0.261728	-0.945548	-0.633121
C72	C	0.261747	-0.945544	-0.567684
C73	C	0.341883	-0.865359	-0.567650
C74	C	0.341867	-0.865368	-0.633085
C75	C	0.301786	-0.905462	-0.665817
C76	C	0.301870	-0.905414	-0.139098
C77	C	0.301711	-0.905523	-0.069457
H78	H	0.404307	-0.346332	-0.310682
H79	H	0.229040	-0.978236	-0.944702
C80	C	0.385961	-0.821253	-0.531642
N81	N	0.419163	-0.788033	-0.504517
C82	C	0.312139	-0.786912	-0.733482
N83	N	0.316235	-0.740130	-0.706371
H84	H	0.742262	-0.914464	-0.199505
H85	H	0.310707	-0.803063	-0.861540
H86	H	0.199442	-0.346406	-0.293096
C87	C	0.870192	-0.895024	-0.420484
N88	N	0.897268	-0.890923	-0.467262
H89	H	1.062723	-0.978281	-0.229351
C90	C	0.291411	-1.024030	-0.733521
N91	N	0.287331	-1.070801	-0.706421
C92	C	0.217625	-0.272615	-0.217895
N93	N	0.184378	-0.299726	-0.184757
H94	H	0.374655	-0.666893	-0.374441
H95	H	0.404299	-0.465044	-0.310677
C96	C	0.386121	-0.538835	-0.385887
N97	N	0.419365	-0.511731	-0.419032
H98	H	0.659086	-0.978153	-0.229275
C99	C	0.386127	-0.272608	-0.385902
N100	N	0.419360	-0.299713	-0.419051
C101	C	0.217564	-0.989712	-1.072763
N102	N	0.184360	-1.022936	-1.099880
C103	C	0.934678	-0.821281	-0.386013
N104	N	0.907571	-0.788053	-0.419176
H105	H	0.199436	-0.465111	-0.293107
C106	C	0.217645	-0.989657	-0.669127
N107	N	0.184442	-1.022883	-0.696246
C108	C	0.217608	-0.676252	-0.217868
N109	N	0.184366	-0.703362	-0.184725
C110	C	0.217609	-0.538842	-0.217881
N111	N	0.184364	-0.511739	-0.184742
C112	C	0.217635	-0.135202	-0.217892
N113	N	0.184390	-0.108098	-0.184753
H114	H	0.944016	-0.978240	-0.229327
C115	C	0.385861	-0.821332	-1.072691
N116	N	0.419052	-0.788115	-1.099781
C117	C	0.732787	-0.894965	-0.420456
N118	N	0.705656	-0.890825	-0.467223
C119	C	0.668451	-0.821195	-0.385964
N120	N	0.695558	-0.787979	-0.419138
H121	H	0.540378	-0.978104	-0.229245
C122	C	0.385879	-0.821311	-0.935278
N123	N	0.419079	-0.788088	-0.908153
H124	H	0.374486	-0.832728	-0.659706
C125	C	0.217673	-0.989636	-0.531720
N126	N	0.184473	-1.022846	-0.504631
H127	H	0.860975	-0.914504	-0.199526
H128	H	0.540389	-0.832610	-0.374497
H129	H	1.062739	-0.832771	-0.374595
H130	H	0.292789	-1.007915	-0.861579
H131	H	0.374673	-0.144550	-0.374476
