data_functionalizedCrystal
_audit_creation_method	'MofGen! by Chris Wilmer'
_symmetry_space_group_name_H-M	'P1'
_symmetry_Int_Tables_number	1
_symmetry_cell_setting	triclinic
loop_
_symmetry_equiv_pos_as_xyz
  x,y,z
_cell_length_a	16.959455
_cell_length_b	16.120484
_cell_length_c	16.120256
_cell_angle_alpha	95.616173
_cell_angle_beta	92.879573
_cell_angle_gamma	92.922454
loop_
_atom_site_label
_atom_site_type_symbol
_atom_site_fract_x
_atom_site_fract_y
_atom_site_fract_z
Zn1	Zn	1.167702	-0.356828	-0.489438
Zn2	Zn	1.667702	0.143172	0.010562
Zn3	Zn	1.167602	-0.489513	-0.356747
Zn4	Zn	1.667602	0.010487	0.143253
Zn5	Zn	1.042579	-0.349752	-0.349685
Zn6	Zn	1.542579	0.150248	0.150315
Zn7	Zn	1.028427	-0.496551	-0.496473
Zn8	Zn	1.528427	0.003449	0.003527
O9	O	1.101578	-0.423161	-0.423086
O10	O	1.601578	0.076839	0.076914
O11	O	1.278298	-0.374444	-0.471847
O12	O	1.778298	0.125556	0.028153
O13	O	1.156899	-0.465067	-0.238848
O14	O	1.656899	0.034933	0.261152
O15	O	1.065142	-0.233726	-0.362323
O16	O	1.565142	0.266274	0.137677
O17	O	1.278225	-0.471928	-0.374360
O18	O	1.778225	0.028072	0.125640
O19	O	1.157068	-0.238924	-0.464999
O20	O	1.657068	0.261076	0.035001
O21	O	1.065045	-0.362386	-0.233659
O22	O	1.565045	0.137614	0.266341
O23	O	0.930093	-0.369210	-0.369145
O24	O	1.430093	0.130790	0.130855
O25	O	1.041021	-0.483923	-0.612502
O26	O	1.541021	0.016077	-0.112502
O27	O	0.919695	-0.477062	-0.476990
O28	O	1.419695	0.022938	0.023010
O29	O	1.143345	-0.381269	-0.607333
O30	O	1.643345	0.118731	-0.107333
O31	O	1.143176	-0.607412	-0.381182
O32	O	1.643176	-0.107412	0.118818
O33	O	1.040924	-0.612583	-0.483838
O34	O	1.540924	-0.112583	0.016162
C35	C	0.896214	-0.423133	-0.423065
C36	C	1.396214	0.076867	0.076935
C37	C	0.808356	-0.423142	-0.423077
C38	C	1.308356	0.076858	0.076923
C39	C	0.442265	-0.366964	-0.367040
C40	C	0.942265	0.133036	0.132960
C41	C	0.431487	-0.479429	-0.479182
C42	C	0.931487	0.020571	0.020818
C43	C	0.514034	-0.479417	-0.479176
C44	C	1.014034	0.020583	0.020824
C45	C	0.560700	-0.423178	-0.423101
C46	C	1.060700	0.076822	0.076899
C47	C	0.524820	-0.366952	-0.367031
C48	C	1.024820	0.133048	0.132969
C49	C	0.549920	-0.535648	-0.535239
C50	C	1.049920	-0.035648	-0.035239
C51	C	0.632472	-0.535638	-0.535235
C52	C	1.132472	-0.035638	-0.035235
C53	C	0.679140	-0.479395	-0.479163
C54	C	1.179140	0.020605	0.020837
C55	C	0.643255	-0.423166	-0.423092
C56	C	1.143255	0.076834	0.076908
C57	C	0.689921	-0.366928	-0.367016
C58	C	1.189921	0.133072	0.132984
C59	C	0.654038	-0.310694	-0.310948
C60	C	1.154038	0.189306	0.189052
C61	C	0.571488	-0.310709	-0.310959
C62	C	1.071488	0.189291	0.189041
C63	C	0.761690	-0.479380	-0.479153
C64	C	1.261690	0.020620	0.020847
C65	C	0.772476	-0.366915	-0.367007
C66	C	1.272476	0.133085	0.132993
C67	C	1.090524	-0.640326	-0.434058
C68	C	1.590524	-0.140326	0.065942
C69	C	1.085866	-0.733231	-0.438780
C70	C	1.585866	-0.233231	0.061220
C71	C	1.077366	-0.903331	-0.447418
C72	C	1.577366	-0.403331	0.052582
C73	C	1.125930	-0.942151	-0.398767
C74	C	1.625930	-0.442151	0.101233
C75	C	1.121200	-1.036801	-0.403573
C76	C	1.621200	-0.536801	0.096427
C77	C	1.082095	-0.808673	-0.442613
C78	C	1.582095	-0.308673	0.057387
C79	C	1.307743	-0.423190	-0.423107
C80	C	1.807743	0.076810	0.076893
C81	C	1.395599	-0.423203	-0.423116
C82	C	1.895599	0.076797	0.076884
C83	C	1.090615	-0.434170	-0.641093
C84	C	1.590615	0.065830	-0.141093
C85	C	1.085944	-0.438861	-0.733995
C86	C	1.585944	0.061139	-0.233995
C87	C	1.112695	-0.205149	-0.412089
C88	C	1.612695	0.294851	0.087911
C89	C	1.117432	-0.112246	-0.407402
C90	C	1.617432	0.387754	0.092598
C91	C	1.125938	-0.398675	-0.942920
C92	C	1.625938	0.101325	-0.442920
C93	C	1.077390	-0.447392	-0.904080
C94	C	1.577390	0.052608	-0.404080
C95	C	1.082151	-0.442644	-0.809435
C96	C	1.582151	0.057356	-0.309435
C97	C	1.121179	-0.403422	-1.037572
C98	C	1.621179	0.096578	-0.537572
C99	C	1.112546	-0.412135	-0.205923
C100	C	1.612546	0.087865	0.294077
C101	C	1.117382	-0.407208	-0.113010
C102	C	1.617382	0.092792	0.386990
H103	H	0.810467	-0.321113	-0.321348
H104	H	1.310467	0.178887	0.178652
C105	C	1.230850	-0.293434	-0.946124
C106	C	1.730850	0.206566	-0.446124
C107	C	1.186876	-0.337564	-0.891862
C108	C	1.686876	0.162436	-0.391862
H109	H	1.268467	-0.255706	-0.914594
H110	H	1.768467	0.244294	-0.414594
H111	H	1.257544	-0.331530	-0.982025
H112	H	1.757544	0.168470	-0.482025
H113	H	1.196360	-0.263126	-0.978545
H114	H	1.696360	0.236874	-0.478545
H115	H	1.221365	-0.367877	-0.859445
H116	H	1.721365	0.132123	-0.359445
H117	H	1.160180	-0.299462	-0.855946
H118	H	1.660180	0.200538	-0.355946
C119	C	0.940115	-0.932551	-0.489351
C120	C	1.440115	-0.432551	0.010649
C121	C	1.016441	-0.954415	-0.508514
C122	C	1.516441	-0.454415	-0.008514
H123	H	0.902504	-0.964093	-0.527071
H124	H	1.402504	-0.464093	-0.027071
H125	H	0.930725	-0.944009	-0.433898
H126	H	1.430725	-0.444009	0.066102
H127	H	0.935350	-0.874725	-0.494100
H128	H	1.435350	-0.374725	0.005900
H129	H	1.021208	-1.012241	-0.503759
H130	H	1.521208	-0.512241	-0.003759
H131	H	1.025834	-0.942964	-0.563981
H132	H	1.525834	-0.442964	-0.063981
H133	H	0.413045	-0.321178	-0.321393
H134	H	0.913045	0.178822	0.178607
H135	H	0.542264	-0.264927	-0.265311
H136	H	1.042264	0.235073	0.234689
H137	H	0.661681	-0.581427	-0.580890
H138	H	1.161681	-0.081427	-0.080890
H139	H	0.692045	-0.264908	-0.265288
H140	H	1.192045	0.235092	0.234712
H141	H	1.032248	-0.492660	-0.941907
H142	H	1.532248	0.007340	-0.441907
C143	C	0.300159	-0.529382	-0.528985
C144	C	0.800159	-0.029382	-0.028985
C145	C	0.380193	-0.541244	-0.540818
C146	C	0.880193	-0.041244	-0.040818
H147	H	0.268492	-0.567542	-0.567043
H148	H	0.768492	-0.067542	-0.067043
H149	H	0.288836	-0.538697	-0.473428
H150	H	0.788836	-0.038697	0.026572
H151	H	0.288869	-0.473862	-0.538472
H152	H	0.788869	0.026138	-0.038472
H153	H	0.391484	-0.596762	-0.531325
H154	H	0.891484	-0.096762	-0.031325
H155	H	0.391521	-0.531935	-0.596388
H156	H	0.891521	-0.031935	-0.096388
H157	H	0.511919	-0.581440	-0.580887
H158	H	1.011919	-0.081440	-0.080887
H159	H	1.171058	-0.904302	-0.353505
H160	H	1.671058	-0.404302	0.146495
C161	C	0.742740	-0.590550	-0.589997
C162	C	1.242740	-0.090550	-0.089997
C163	C	0.801133	-0.541183	-0.540779
C164	C	1.301133	-0.041183	-0.040779
H165	H	0.767092	-0.628701	-0.628048
H166	H	1.267092	-0.128701	-0.128048
H167	H	0.710755	-0.620628	-0.555142
H168	H	1.210755	-0.120628	-0.055142
H169	H	0.710778	-0.555798	-0.620191
H170	H	1.210778	-0.055798	-0.120191
H171	H	0.833091	-0.575935	-0.510580
H172	H	1.333091	-0.075935	-0.010580
H173	H	0.833131	-0.511103	-0.575638
H174	H	1.333131	-0.011103	-0.075638
