data_functionalizedCrystal
_audit_creation_method	'MofGen! by Chris Wilmer'
_symmetry_space_group_name_H-M	'P1'
_symmetry_Int_Tables_number	1
_symmetry_cell_setting	triclinic
loop_
_symmetry_equiv_pos_as_xyz
  x,y,z
_cell_length_a	13.185408
_cell_length_b	19.188937
_cell_length_c	11.804673
_cell_angle_alpha	76.665117
_cell_angle_beta	106.074105
_cell_angle_gamma	112.439535
loop_
_atom_site_label
_atom_site_type_symbol
_atom_site_fract_x
_atom_site_fract_y
_atom_site_fract_z
O1	O	1.467406	0.173158	0.098923
O2	O	1.149579	0.102321	0.098948
O3	O	1.317658	0.241100	0.098924
O4	O	1.299327	0.034378	0.098947
O5	O	1.278450	0.258910	-0.099123
O6	O	1.110371	0.120130	-0.099098
O7	O	1.428198	0.190967	-0.099124
Cu8	Cu	1.265704	0.157175	-0.117194
Cu9	Cu	1.312073	0.136113	0.117019
O10	O	1.260119	0.052187	-0.099099
C11	C	1.089313	0.104044	-0.000072
C12	C	0.968153	0.082654	-0.000063
C13	C	1.297459	0.275905	-0.000100
C14	C	1.295673	0.353078	-0.000100
C15	C	0.897925	0.006497	-0.000051
C16	C	0.784085	-0.013600	-0.000060
C17	C	0.740465	0.042456	-0.000070
C18	C	0.810695	0.118614	-0.000073
C19	C	0.924544	0.138714	-0.000074
C20	C	0.767084	0.174673	-0.000092
C21	C	0.837314	0.250831	-0.000095
C22	C	0.951152	0.270927	-0.000095
C23	C	0.994772	0.214871	-0.000085
C24	C	0.653235	0.154572	-0.000091
C25	C	0.679854	0.286789	-0.000114
C26	C	0.793694	0.306887	-0.000105
C27	C	1.488465	0.189243	-0.000101
C28	C	1.609626	0.210632	-0.000102
N29	N	1.233100	0.171990	-0.281928
C30	C	1.261598	0.913681	-0.108037
C31	C	1.263263	0.841167	-0.108042
C32	C	1.285473	0.795195	-0.000088
C33	C	1.305992	0.821736	0.107880
C34	C	1.304315	0.894246	0.107882
N35	N	1.366124	0.690985	0.080262
N36	N	1.367718	0.622104	0.080252
C37	C	1.290525	0.576725	-0.000088
N38	N	1.211688	0.602834	-0.080437
N39	N	1.210098	0.671722	-0.080431
C40	C	1.287293	0.716569	-0.000078
C41	C	1.271805	0.471562	-0.108055
C42	C	1.273464	0.399045	-0.108056
C43	C	1.316205	0.379618	0.107870
C44	C	1.314534	0.452131	0.107867
C45	C	1.292339	0.498101	-0.000098
C46	C	1.280322	1.017384	-0.000078
C47	C	1.282120	0.940216	-0.000083
C48	C	1.154770	0.207570	-0.344256
C49	C	1.130085	0.218776	-0.468912
C50	C	1.183733	0.194410	-0.531252
C51	C	1.262071	0.158834	-0.468924
C52	C	1.286752	0.147621	-0.344255
C53	C	1.315715	0.134461	-0.531252
C54	C	1.394052	0.098885	-0.468924
C55	C	1.418730	0.087674	-0.344268
C56	C	1.365081	0.112041	-0.281927
C57	C	1.291034	0.145674	-0.655920
C58	C	1.423016	0.085725	-0.655920
C59	C	1.447701	0.074518	-0.531264
N60	N	1.344686	0.121305	0.281752
H61	H	0.596064	0.092564	-0.000091
H62	H	0.850891	0.368895	-0.000107
H63	H	0.644350	0.332430	-0.000067
H64	H	0.647771	0.026088	-0.000078
Cl65	Cl	1.233683	0.971465	-0.243765
Cl66	Cl	1.087325	0.238189	-0.265880
H67	H	1.227251	0.174639	-0.706655
H68	H	1.163630	0.203537	-0.632752
H69	H	1.253723	0.508991	-0.195967
Cl70	Cl	1.031605	0.263495	-0.547258
Cl71	Cl	1.490461	0.055088	-0.734281
H72	H	0.726912	-0.075608	-0.000058
H73	H	0.933451	-0.039134	-0.000052
H74	H	1.385181	0.102922	-0.180422
Cl75	Cl	1.517175	0.042920	-0.265915
Cl76	Cl	1.340345	0.485494	0.243589
Cl77	Cl	1.137892	0.240133	-0.000066
H78	H	1.511484	0.045551	-0.480499
H79	H	1.246530	0.819552	-0.195954
H80	H	1.324072	0.784300	0.195778
H81	H	1.008328	0.332941	-0.000112
H82	H	1.321026	0.915848	0.195794
Cl83	Cl	1.247642	0.365682	-0.243783
H84	H	1.334276	0.342185	0.195768
