data_functionalizedCrystal
_audit_creation_method	'MofGen! by Chris Wilmer'
_symmetry_space_group_name_H-M	'P1'
_symmetry_Int_Tables_number	1
_symmetry_cell_setting	triclinic
loop_
_symmetry_equiv_pos_as_xyz
  x,y,z
_cell_length_a	6.817900
_cell_length_b	10.992421
_cell_length_c	10.992410
_cell_angle_alpha	91.831025
_cell_angle_beta	108.764651
_cell_angle_gamma	108.764763
loop_
_atom_site_label
_atom_site_type_symbol
_atom_site_fract_x
_atom_site_fract_y
_atom_site_fract_z
V1	V	-4.114248	-0.177761	-0.400575
O2	O	-4.072376	0.008542	-0.392968
O3	O	-4.091827	-0.352470	-0.397818
O4	O	-4.091840	-0.175026	-0.575288
O5	O	-4.072363	-0.170129	-0.214270
V6	V	-4.591142	-0.155477	-0.378294
O7	O	-4.390048	-0.226642	-0.449452
O8	O	-4.765539	-0.106595	-0.329417
O9	O	-4.390356	0.019232	-0.381051
O10	O	-4.750411	-0.341780	-0.385901
O11	O	-4.750424	-0.163108	-0.564599
O12	O	-4.390343	-0.158211	-0.203581
C13	C	-3.942307	-0.395060	-0.391494
C14	C	-4.005435	-0.537887	-0.390404
C15	C	-3.873099	-0.733174	-0.381618
C16	C	-3.807017	-0.584530	-0.382242
C17	C	-4.076044	-0.576522	-0.270588
C18	C	-4.140279	-0.725065	-0.269320
C19	C	-4.271785	-0.763647	-0.514935
C20	C	-4.202731	-0.615133	-0.517535
C21	C	-3.942322	-0.168712	-0.617873
C22	C	-4.005457	-0.167632	-0.760702
C23	C	-3.872580	-0.157795	-0.955826
C24	C	-3.807029	-0.159451	-0.807343
C25	C	-4.203473	-0.294312	-0.837793
C26	C	-4.267786	-0.293192	-0.986360
C27	C	-4.145552	-0.047893	-0.948352
C28	C	-4.074843	-0.047293	-0.799340
C29	C	-4.203219	0.061816	-0.387371
C30	C	-4.119331	0.204641	-0.388470
C31	C	-4.203203	-0.164530	-0.160989
C32	C	-4.119306	-0.165603	-0.018159
H33	H	-4.265447	-0.813163	-0.605597
C34	C	-3.944859	0.185991	-0.763712
C35	C	-3.881470	0.079223	-0.728674
H36	H	-3.825469	0.264093	-0.720083
H37	H	-4.068714	0.181767	-0.739843
H38	H	-3.983351	0.184529	-0.854974
H39	H	-3.842994	0.080680	-0.637413
H40	H	-3.757576	0.083448	-0.752535
C41	C	-4.642990	-0.425769	-1.019847
C42	C	-4.513486	-0.308086	-1.043941
H43	H	-4.794676	-0.434979	-1.055407
H44	H	-4.602066	-0.426330	-0.928762
H45	H	-4.620081	-0.495810	-1.059055
H46	H	-4.536384	-0.238044	-1.004725
H47	H	-4.554426	-0.307514	-1.135044
H48	H	-3.749893	-0.558765	-0.467855
C49	C	-3.617679	-0.738516	-0.487729
C50	C	-3.838217	-0.795829	-0.496476
H51	H	-3.596157	-0.777197	-0.558648
H52	H	-3.523072	-0.751470	-0.408382
H53	H	-3.584254	-0.648012	-0.490249
H54	H	-3.871637	-0.886332	-0.493946
H55	H	-3.932853	-0.782886	-0.575843
C56	C	-4.463940	-0.424642	-0.747905
C57	C	-4.406480	-0.308590	-0.798907
H58	H	-4.589273	-0.433455	-0.723903
H59	H	-4.343410	-0.423215	-0.673566
H60	H	-4.498143	-0.495962	-0.811668
H61	H	-4.372261	-0.237268	-0.735140
H62	H	-4.527036	-0.310005	-0.873255
H63	H	-4.316491	-0.765948	-0.269130
H64	H	-4.352513	-0.584926	-0.530916
C65	C	-3.836591	0.036854	-1.053307
C66	C	-3.714343	-0.033996	-0.981272
H67	H	-3.738899	0.113279	-1.069029
H68	H	-3.916905	0.060175	-1.005921
H69	H	-3.936851	-0.014839	-1.133835
H70	H	-3.614094	0.017694	-0.900738
H71	H	-3.633992	-0.057315	-1.028657
H72	H	-3.847642	-0.242371	-1.003810
C73	C	-3.670354	-0.277284	-0.639742
C74	C	-3.729857	-0.275216	-0.773819
H75	H	-3.622708	-0.348756	-0.619050
H76	H	-3.794392	-0.285859	-0.614520
H77	H	-3.553579	-0.198644	-0.594729
H78	H	-3.846644	-0.353853	-0.818832
H79	H	-3.605805	-0.266652	-0.799055
C80	C	-4.153794	-0.484860	-0.915756
C81	C	-4.141725	-0.414938	-0.803228
H82	H	-4.115681	-0.559331	-0.894416
H83	H	-4.053805	-0.431311	-0.952046
H84	H	-4.300099	-0.511378	-0.977114
H85	H	-3.995415	-0.388412	-0.741874
H86	H	-4.241717	-0.468498	-0.766919
C87	C	-4.448439	-0.050754	-0.863937
C88	C	-4.266619	-0.045318	-0.755360
H89	H	-4.566819	-0.049549	-0.836759
H90	H	-4.493806	-0.128486	-0.922081
H91	H	-4.408004	0.022104	-0.906594
H92	H	-4.307050	-0.118181	-0.712708
H93	H	-4.221247	0.032423	-0.697194
C94	C	-4.331587	-0.571524	-0.164450
C95	C	-4.272659	-0.535725	-0.272450
H96	H	-4.452985	-0.546348	-0.165611
H97	H	-4.209413	-0.529472	-0.087084
H98	H	-4.372364	-0.663036	-0.167424
H99	H	-4.231867	-0.444211	-0.269470
H100	H	-4.394859	-0.577773	-0.349835
C101	C	-3.844176	-0.629215	-0.065833
C102	C	-3.990696	-0.748720	-0.140904
H103	H	-3.751816	-0.643817	0.013441
H104	H	-3.925765	-0.579851	-0.047710
H105	H	-3.755552	-0.582940	-0.112315
H106	H	-4.079332	-0.794992	-0.094426
H107	H	-3.909099	-0.798105	-0.159024
H108	H	-4.252224	-0.382320	-1.032621
C109	C	-3.771063	-0.895390	-0.261479
C110	C	-3.716785	-0.760900	-0.258476
H111	H	-3.674577	-0.912500	-0.185445
H112	H	-3.755923	-0.931595	-0.336113
H113	H	-3.919494	-0.933282	-0.264893
H114	H	-3.568358	-0.723010	-0.255071
H115	H	-3.731906	-0.724681	-0.183822
H116	H	-3.658336	-0.532087	-0.290964
C117	C	-4.313530	-0.652186	-0.750101
C118	C	-4.136607	-0.582878	-0.637212
H119	H	-4.272693	-0.632269	-0.823980
H120	H	-4.438176	-0.628556	-0.755857
H121	H	-4.349680	-0.742742	-0.747032
H122	H	-4.100466	-0.492322	-0.640276
H123	H	-4.011922	-0.606500	-0.631455
H124	H	-4.042638	0.048305	-0.968721
H125	H	-3.935455	-0.522284	-0.176470
H126	H	-4.324536	-0.052498	-0.989193
H127	H	-4.451634	-0.804764	-0.521215
H128	H	-3.658574	-0.068362	-0.754011
