data_functionalizedCrystal
_audit_creation_method	'MofGen! by Chris Wilmer'
_symmetry_space_group_name_H-M	'P1'
_symmetry_Int_Tables_number	1
_symmetry_cell_setting	triclinic
loop_
_symmetry_equiv_pos_as_xyz
  x,y,z
_cell_length_a	16.992694
_cell_length_b	11.026607
_cell_length_c	15.455313
_cell_angle_alpha	93.255562
_cell_angle_beta	87.142206
_cell_angle_gamma	99.627120
loop_
_atom_site_label
_atom_site_type_symbol
_atom_site_fract_x
_atom_site_fract_y
_atom_site_fract_z
O1	O	1.079936	0.255850	-0.072014
O2	O	0.851247	0.252986	-0.072040
O3	O	0.946638	0.075927	-0.072026
O4	O	0.984545	0.432909	-0.072028
O5	O	0.941177	0.086007	0.072235
O6	O	0.845786	0.263067	0.072221
O7	O	1.074474	0.265931	0.072247
Cu8	Cu	0.959632	0.265419	0.085406
Cu9	Cu	0.966090	0.253498	-0.085199
O10	O	0.979084	0.442990	0.072233
C11	C	0.818785	0.254344	0.000087
C12	C	0.730190	0.243358	0.000077
C13	C	0.936914	0.035078	0.000103
C14	C	0.916067	-0.101658	0.000097
C15	C	0.694911	0.349355	0.000078
C16	C	0.611666	0.339026	0.000090
C17	C	0.563702	0.222699	0.000095
C18	C	0.598986	0.116694	0.000098
C19	C	0.682229	0.127024	0.000092
C20	C	0.314060	0.179884	0.000119
C21	C	0.230811	0.169561	0.000122
C22	C	0.243497	0.391895	0.000115
C23	C	0.326741	0.402215	0.000104
C24	C	0.362018	0.296210	0.000111
N25	N	0.478612	0.212138	0.000105
N26	N	0.447106	0.306772	0.000108
C27	C	0.973629	-0.169881	0.000103
C28	C	0.952084	-0.311205	0.000097
C29	C	1.106937	0.264572	0.000118
C30	C	1.195532	0.275558	0.000122
C31	C	0.988808	0.483838	0.000102
C32	C	1.009655	0.620574	0.000102
N33	N	0.955095	0.273804	0.205401
N34	N	0.970632	0.245104	-0.205194
C35	C	0.995642	0.198614	0.250801
C36	C	0.992220	0.204967	0.341609
C37	C	0.948255	0.286517	0.387014
C38	C	0.907702	0.361709	0.341608
C39	C	0.911120	0.355349	0.250802
C40	C	0.933497	0.313936	0.658594
C41	C	0.930084	0.320293	0.749406
C42	C	1.014601	0.163549	0.749400
C43	C	1.018019	0.157201	0.658593
C44	C	0.977463	0.232389	0.613194
N45	N	0.944758	0.293015	0.479834
N46	N	0.980956	0.225883	0.520376
H47	H	0.582946	0.425341	0.000089
H48	H	1.074893	-0.333219	0.000044
C49	C	1.098475	0.007965	0.740272
C50	C	1.059167	0.080889	0.799303
H51	H	1.125989	-0.043067	0.771081
H52	H	1.060466	-0.041999	0.704862
H53	H	1.135638	0.059509	0.704848
H54	H	1.021999	0.029344	0.834723
H55	H	1.097179	0.130857	0.834728
C56	C	1.076129	0.049431	0.332482
C57	C	1.036806	0.122336	0.391512
H58	H	1.103662	-0.001574	0.363292
H59	H	1.038127	-0.000559	0.297079
H60	H	1.113278	0.100988	0.297051
H61	H	0.999654	0.070779	0.426940
H62	H	1.074813	0.172331	0.426930
H63	H	0.850837	-0.147876	0.000084
H64	H	1.053819	0.090797	0.621625
H65	H	0.886850	-0.357418	0.000084
H66	H	0.894281	0.386706	0.786371
C67	C	0.901214	0.373808	0.519406
C68	C	0.888935	0.396603	0.608698
H69	H	0.873701	0.424846	0.488602
H70	H	0.956716	0.391310	0.504522
H71	H	0.881541	0.289808	0.504536
H72	H	0.908614	0.480601	0.623569
H73	H	0.833422	0.379109	0.623588
H74	H	0.871900	0.428105	0.378583
H75	H	0.342772	0.093566	0.000125
H76	H	0.365789	0.496940	0.000090
H77	H	0.710952	0.040709	0.000091
C78	C	0.827246	0.510934	0.259923
C79	C	0.866554	0.438006	0.200895
H80	H	0.799734	0.561967	0.229111
H81	H	0.790088	0.459402	0.295347
H82	H	0.865261	0.560909	0.295333
H83	H	0.828538	0.388025	0.165489
H84	H	0.903715	0.489544	0.165456
H85	H	0.733959	0.444082	0.000072
H86	H	0.559926	0.021978	0.000115
C87	C	0.121524	0.474786	0.000129
C88	C	0.204718	0.508411	0.000119
H89	H	0.097585	0.546724	0.000139
H90	H	0.107177	0.423915	-0.050175
H91	H	0.103388	0.430931	0.050440
H92	H	0.222855	0.552259	-0.050195
H93	H	0.219071	0.559302	0.050428
H94	H	0.191760	0.074828	0.000126
H95	H	1.038860	-0.123663	0.000115
H96	H	1.031448	0.132213	0.213838
