data_functionalizedCrystal
_audit_creation_method	'MofGen! by Chris Wilmer'
_symmetry_space_group_name_H-M	'P1'
_symmetry_Int_Tables_number	1
_symmetry_cell_setting	triclinic
loop_
_symmetry_equiv_pos_as_xyz
  x,y,z
_cell_length_a	16.959455
_cell_length_b	16.959453
_cell_length_c	13.897441
_cell_angle_alpha	90.029663
_cell_angle_beta	89.973184
_cell_angle_gamma	89.977004
loop_
_atom_site_label
_atom_site_type_symbol
_atom_site_fract_x
_atom_site_fract_y
_atom_site_fract_z
Zn1	Zn	1.208402	0.314719	-0.545544
Zn2	Zn	1.208296	0.446914	-0.384248
Zn3	Zn	1.076215	0.314747	-0.384245
Zn4	Zn	1.076181	0.446853	-0.545483
O5	O	1.142273	0.380808	-0.464880
O6	O	1.318998	0.332269	-0.524174
O7	O	1.190745	0.429420	-0.249266
O8	O	1.093809	0.204132	-0.405666
O9	O	1.318921	0.429393	-0.405671
O10	O	1.190925	0.204112	-0.524171
O11	O	1.093706	0.332317	-0.249264
O12	O	0.965600	0.332257	-0.405607
O13	O	1.093751	0.429287	-0.680473
O14	O	0.965575	0.429314	-0.524068
O15	O	1.190892	0.332209	-0.680518
O16	O	1.190712	0.557517	-0.405612
O17	O	1.093648	0.557472	-0.524071
C18	C	0.936907	0.380783	-0.464832
C19	C	0.849051	0.380791	-0.464834
C20	C	0.477524	0.431330	-0.403144
C21	C	0.477626	0.330352	-0.526734
C22	C	0.560172	0.330339	-0.526710
C23	C	0.601398	0.380823	-0.464904
C24	C	0.560077	0.431321	-0.403121
C25	C	0.601499	0.279848	-0.588499
C26	C	0.684050	0.279834	-0.588479
C27	C	0.725277	0.330315	-0.526667
C28	C	0.683951	0.380813	-0.464880
C29	C	0.725177	0.431298	-0.403074
C30	C	0.683853	0.481793	-0.341282
C31	C	0.601304	0.481801	-0.341308
C32	C	0.807825	0.330306	-0.526640
C33	C	0.807730	0.431288	-0.403050
C34	C	1.142186	0.586175	-0.464856
C35	C	1.142221	0.674031	-0.464878
C36	C	1.091659	0.715311	-0.526513
C37	C	1.192821	0.715305	-0.403270
C38	C	1.192859	0.797851	-0.403292
C39	C	1.142296	0.839131	-0.464927
C40	C	1.091696	0.797864	-0.526539
C41	C	1.243463	0.839124	-0.341687
C42	C	1.243504	0.921675	-0.341708
C43	C	1.192937	0.962956	-0.403338
C44	C	1.142334	0.921684	-0.464953
C45	C	1.091771	0.962963	-0.526588
C46	C	1.041164	0.921693	-0.588198
C47	C	1.041129	0.839145	-0.588170
C48	C	1.192972	1.045504	-0.403366
C49	C	1.091809	1.045517	-0.526614
C50	C	1.348442	0.380835	-0.464929
C51	C	1.436298	0.380846	-0.464951
C52	C	1.142330	0.380738	-0.716473
C53	C	1.142353	0.380709	-0.823687
C54	C	1.142378	1.174640	-0.464939
C55	C	1.142409	1.086783	-0.465001
C56	C	1.142375	0.380655	-1.019983
C57	C	1.142361	0.380687	-0.910750
C58	C	1.142263	0.380821	-0.214266
C59	C	1.142392	0.380628	-0.107052
H60	H	0.841467	0.289195	-0.576952
H61	H	0.443874	0.472440	-0.352832
H62	H	1.284710	0.955270	-0.291540
N63	N	0.433166	0.275909	-0.593400
H64	H	0.374602	0.283579	-0.584041
H65	H	0.447600	0.219440	-0.578500
N66	N	0.556735	0.536257	-0.274663
H67	H	0.498186	0.528603	-0.284060
H68	H	0.571156	0.592723	-0.289548
H69	H	1.234180	1.079102	-0.353210
N70	N	0.557037	0.225405	-0.655164
H71	H	0.498473	0.233071	-0.645797
H72	H	0.571475	0.168936	-0.640269
N73	N	0.728617	0.225374	-0.655121
H74	H	0.689974	0.193396	-0.694279
H75	H	0.762853	0.188750	-0.615923
N76	N	1.037084	0.670803	-0.592968
H77	H	1.005061	0.709482	-0.632016
H78	H	1.000506	0.636611	-0.553646
N79	N	1.247361	0.670788	-0.336804
H80	H	1.239662	0.612231	-0.346140
H81	H	1.235101	0.685266	-0.267901
N82	N	1.037266	1.090038	-0.593085
H83	H	1.005204	1.051366	-0.632105
H84	H	1.069432	1.124231	-0.637781
N85	N	0.986629	0.966215	-0.654678
H86	H	1.018748	1.000406	-0.699431
H87	H	0.950050	1.000479	-0.615370
H88	H	0.999927	0.805538	-0.638332
N89	N	1.297996	0.794594	-0.275224
H90	H	1.265877	0.760403	-0.230472
H91	H	1.330055	0.833306	-0.236263
N92	N	0.852193	0.485734	-0.336379
H93	H	0.813487	0.517719	-0.297241
H94	H	0.886454	0.522352	-0.375553
H95	H	0.717429	0.522901	-0.290964
