data_functionalizedCrystal
_audit_creation_method	'MofGen! by Chris Wilmer'
_symmetry_space_group_name_H-M	'P1'
_symmetry_Int_Tables_number	1
_symmetry_cell_setting	triclinic
loop_
_symmetry_equiv_pos_as_xyz
  x,y,z
_cell_length_a	12.827892
_cell_length_b	19.805407
_cell_length_c	19.805399
_cell_angle_alpha	90.021064
_cell_angle_beta	89.977471
_cell_angle_gamma	89.985623
loop_
_atom_site_label
_atom_site_type_symbol
_atom_site_fract_x
_atom_site_fract_y
_atom_site_fract_z
Zn1	Zn	-0.416086	-1.034788	-0.382770
Zn2	Zn	-0.590841	-1.034724	-0.269592
Zn3	Zn	-0.416111	-0.921602	-0.269592
Zn4	Zn	-0.590782	-0.921587	-0.382736
O5	O	-0.503455	-0.978175	-0.326173
O6	O	-0.439281	-1.129496	-0.367771
O7	O	-0.567698	-1.019698	-0.174875
O8	O	-0.269872	-0.936649	-0.284620
O9	O	-0.567673	-1.129449	-0.284620
O10	O	-0.269853	-1.019806	-0.367771
O11	O	-0.439325	-0.936588	-0.174875
O12	O	-0.439268	-0.826884	-0.284586
O13	O	-0.567573	-0.936624	-0.477457
O14	O	-0.567598	-0.826873	-0.367713
O15	O	-0.439224	-1.019792	-0.477482
O16	O	-0.737069	-1.019684	-0.284586
O17	O	-0.737026	-0.936563	-0.367713
C18	C	-0.503430	-0.802319	-0.326146
C19	C	-0.503445	-0.727087	-0.326151
C20	C	-0.570366	-0.691755	-0.369364
C21	C	-0.570366	-0.621067	-0.369371
C22	C	-0.503449	-0.585712	-0.326162
C23	C	-0.436521	-0.621049	-0.282948
C24	C	-0.436516	-0.691736	-0.282944
C25	C	-0.436536	-0.335975	-0.282962
C26	C	-0.436548	-0.265283	-0.282968
C27	C	-0.570385	-0.265306	-0.369390
C28	C	-0.570381	-0.335993	-0.369386
C29	C	-0.503449	-0.371324	-0.326174
C30	C	-0.503449	-0.447973	-0.326168
C31	C	-0.503454	-0.509065	-0.326165
C32	C	-0.774965	-0.978133	-0.326161
C33	C	-0.891118	-0.978177	-0.326178
C34	C	-0.942889	-1.019357	-0.285090
C35	C	-1.062940	-1.019403	-0.285107
C36	C	-0.230885	-0.978236	-0.326199
C37	C	-0.114732	-0.978262	-0.326211
C38	C	-0.503389	-0.978213	-0.502715
C39	C	-0.503361	-0.978229	-0.577947
C40	C	-0.503474	-0.154718	-0.326193
C41	C	-0.503464	-0.229950	-0.326185
C42	C	-0.436526	-1.021536	-0.613306
C43	C	-0.436496	-1.021543	-0.683994
C44	C	-0.503306	-0.978246	-0.719323
C45	C	-0.570144	-0.934935	-0.683960
C46	C	-0.570168	-0.934925	-0.613272
C47	C	-0.570047	-0.934973	-0.969033
C48	C	-0.570019	-0.934988	-1.039725
C49	C	-0.436374	-1.021591	-1.039755
C50	C	-0.436399	-1.021581	-0.969068
C51	C	-0.503232	-0.978268	-0.933711
C52	C	-0.503263	-0.978260	-0.857062
C53	C	-0.503282	-0.978257	-0.795970
C54	C	-0.503445	-0.978176	-0.150317
C55	C	-0.503179	-0.978291	-0.075085
H56	H	-0.624860	-0.592303	-0.404559
Cl57	Cl	-1.046005	-0.923822	-0.380522
H58	H	-0.935671	-0.942958	-0.361370
H59	H	-0.382044	-0.364733	-0.247771
H60	H	-0.624538	-0.899680	-0.712730
H61	H	-0.382125	-1.056795	-0.584546
H62	H	-0.382075	-1.056809	-0.712780
H63	H	-0.381998	-1.056840	-0.940307
H64	H	-0.382031	-0.592257	-0.247769
Cl65	Cl	-0.654066	-0.880522	-0.924593
H66	H	-0.381952	-1.056856	-1.068551
Cl67	Cl	-0.352381	-0.736154	-0.228618
Cl68	Cl	-0.654015	-0.880553	-1.084138
H69	H	-0.624875	-0.364776	-0.404569
H70	H	-0.898339	-1.054581	-0.249903
Cl71	Cl	-1.131673	-1.073834	-0.230791
H72	H	-0.624581	-0.899654	-0.584485
H73	H	-0.624861	-0.720536	-0.404547
Cl74	Cl	-0.352415	-0.220838	-0.228645
Cl75	Cl	-0.654529	-0.220886	-0.423715
