data_functionalizedCrystal
_audit_creation_method	'MofGen! by Chris Wilmer'
_symmetry_space_group_name_H-M	'P1'
_symmetry_Int_Tables_number	1
_symmetry_cell_setting	triclinic
loop_
_symmetry_equiv_pos_as_xyz
  x,y,z
_cell_length_a	10.654562
_cell_length_b	19.188924
_cell_length_c	9.130313
_cell_angle_alpha	90.007500
_cell_angle_beta	90.003553
_cell_angle_gamma	83.816034
loop_
_atom_site_label
_atom_site_type_symbol
_atom_site_fract_x
_atom_site_fract_y
_atom_site_fract_z
O1	O	1.665745	0.098105	0.121903
O2	O	1.300070	0.107439	0.121886
O3	O	1.493465	0.001186	0.121878
O4	O	1.472350	0.204359	0.121911
O5	O	1.493462	0.001180	-0.121721
O6	O	1.300068	0.107433	-0.121713
O7	O	1.665742	0.098100	-0.121696
Cu8	Cu	1.482905	0.102766	-0.143947
Cu9	Cu	1.482908	0.102773	0.144137
O10	O	1.472348	0.204353	-0.121688
C11	C	1.253286	0.106749	0.000084
C12	C	1.113887	0.104693	0.000076
C13	C	1.048375	0.103731	-0.132698
C14	C	0.917394	0.101805	-0.132674
C15	C	0.917447	0.101806	0.132911
C16	C	1.048427	0.103727	0.132885
C17	C	1.048343	0.103734	-0.286032
C18	C	0.917362	0.101807	-0.286007
C19	C	1.492781	-0.024833	0.000077
C20	C	1.490733	-0.102351	0.000073
C21	C	1.489778	-0.138753	0.132859
C22	C	1.487836	-0.211589	0.132870
C23	C	1.486873	-0.248021	0.000087
C24	C	1.487821	-0.211610	-0.132716
C25	C	1.489751	-0.138775	-0.132724
N26	N	1.555305	-0.367237	-0.098736
N27	N	1.553474	-0.436427	-0.098720
C28	C	1.481057	-0.467468	0.000101
N29	N	1.410554	-0.426706	0.098928
N30	N	1.412391	-0.357510	0.098917
C31	C	1.484780	-0.326998	0.000080
C32	C	1.477994	-0.582847	0.132908
C33	C	1.476044	-0.655683	0.132914
C34	C	1.476042	-0.655703	-0.132676
C35	C	1.477979	-0.582868	-0.132678
C36	C	1.478961	-0.546444	0.000118
C37	C	1.712527	0.098790	0.000109
C38	C	1.851925	0.100846	0.000126
C39	C	1.473031	0.230372	0.000116
C40	C	1.475080	0.307890	0.000130
N41	N	1.482911	0.102772	0.346759
N42	N	1.482912	0.102761	-0.346570
C43	C	1.568703	0.055816	0.423408
C44	C	1.568707	0.055812	0.576745
C45	C	1.397116	0.149722	0.576771
C46	C	1.397118	0.149729	0.423437
C47	C	1.667766	0.001595	0.423394
C48	C	1.667770	0.001591	0.576731
H49	H	1.095625	0.055482	-0.344923
O50	O	1.787982	0.024236	0.639757
H51	H	1.783022	0.023306	0.761160
H52	H	1.076837	0.154651	-0.333600
H53	H	1.475249	-0.685365	-0.240790
H54	H	1.647639	-0.052107	0.618319
H55	H	1.638496	-0.049149	0.375807
H56	H	0.888852	0.050888	-0.333595
O57	O	0.854675	0.165721	-0.363944
H58	H	0.927860	0.198543	-0.402105
O59	O	0.846838	0.100754	0.276145
H60	H	0.914404	0.101736	0.368468
O61	O	1.486782	-0.250897	-0.275938
H62	H	1.572717	-0.242721	-0.339614
O63	O	1.490803	-0.099507	-0.275947
H64	H	1.489816	-0.137074	-0.368283
H65	H	1.478787	-0.553189	0.241039
O66	O	1.474966	-0.694948	0.276139
H67	H	1.475967	-0.657380	0.368472
H68	H	1.490574	-0.109101	0.240992
H69	H	1.478767	-0.553229	-0.240807
H70	H	1.327271	0.187971	0.361031
O71	O	1.119094	0.104758	0.276090
H72	H	1.051566	0.103770	0.368438
O73	O	1.486809	-0.250865	0.276093
H74	H	1.487822	-0.213301	0.368431
H75	H	1.763967	0.013659	0.381799
O76	O	1.304558	0.200354	0.659471
H77	H	1.318957	0.192455	0.778972
