data_functionalizedCrystal
_audit_creation_method	'MofGen! by Chris Wilmer'
_symmetry_space_group_name_H-M	'P1'
_symmetry_Int_Tables_number	1
_symmetry_cell_setting	triclinic
loop_
_symmetry_equiv_pos_as_xyz
  x,y,z
_cell_length_a	11.169417
_cell_length_b	11.169416
_cell_length_c	11.169409
_cell_angle_alpha	90.030874
_cell_angle_beta	89.980176
_cell_angle_gamma	89.988781
loop_
_atom_site_label
_atom_site_type_symbol
_atom_site_fract_x
_atom_site_fract_y
_atom_site_fract_z
Zn1	Zn	1.834962	0.477682	-0.678555
Zn2	Zn	2.334962	0.977682	-0.178555
Zn3	Zn	1.834852	0.678422	-0.477877
Zn4	Zn	2.334852	1.178422	0.022123
Zn5	Zn	1.634248	0.477755	-0.477889
Zn6	Zn	2.134248	0.977755	0.022111
Zn7	Zn	1.634256	0.678325	-0.678522
Zn8	Zn	2.134256	1.178325	-0.178522
O9	O	1.734579	0.578046	-0.578211
O10	O	2.234579	1.078046	-0.078211
O11	O	2.002897	0.504321	-0.651943
O12	O	2.502897	1.004321	-0.151943
O13	O	1.808192	0.651875	-0.309929
O14	O	2.308192	1.151875	0.190071
O15	O	1.660917	0.309796	-0.504527
O16	O	2.160917	0.809796	-0.004527
O17	O	2.002816	0.651804	-0.504506
O18	O	2.502816	1.151804	-0.004506
O19	O	1.808380	0.309742	-0.651955
O20	O	2.308380	0.809742	-0.151955
O21	O	1.660809	0.504445	-0.309938
O22	O	2.160809	1.004445	0.190062
O23	O	1.466300	0.504351	-0.504495
O24	O	1.966300	1.004351	-0.004495
O25	O	1.660929	0.651637	-0.846476
O26	O	2.160929	1.151637	-0.346476
O27	O	1.466305	0.651708	-0.651899
O28	O	1.966305	1.151708	-0.151899
O29	O	1.808388	0.504226	-0.846500
O30	O	2.308388	1.004226	-0.346500
O31	O	1.808199	0.846359	-0.504474
O32	O	2.308199	1.346359	-0.004474
O33	O	1.660822	0.846287	-0.651887
O34	O	2.160822	1.346287	-0.151887
C35	C	1.422755	0.578028	-0.578195
C36	C	1.922755	1.078028	-0.078195
C37	C	1.289355	0.578049	-0.578217
C38	C	1.789355	1.078049	-0.078217
C39	C	1.734532	0.889871	-0.578202
C40	C	2.234532	1.389871	-0.078202
C41	C	1.734621	1.023271	-0.578238
C42	C	2.234621	1.523271	-0.078238
C43	C	1.734660	0.265004	-0.578246
C44	C	2.234660	0.765004	-0.078246
C45	C	1.734694	0.131604	-0.578261
C46	C	2.234694	0.631604	-0.078261
C47	C	2.047622	0.578065	-0.578227
C48	C	2.547622	1.078065	-0.078227
C49	C	2.181022	0.578073	-0.578234
C50	C	2.681022	1.078073	-0.078234
C51	C	1.734672	0.577913	-0.891253
C52	C	2.234672	1.077913	-0.391253
C53	C	1.734711	0.577856	-1.024653
C54	C	2.234711	1.077856	-0.524653
C55	C	1.734557	0.578092	-0.266386
C56	C	2.234557	1.078092	0.233614
C57	C	1.734750	0.577811	-0.132987
C58	C	2.234750	1.077811	0.367013
