data_functionalizedCrystal
_audit_creation_method	'MofGen! by Chris Wilmer'
_symmetry_space_group_name_H-M	'P1'
_symmetry_Int_Tables_number	1
_symmetry_cell_setting	triclinic
loop_
_symmetry_equiv_pos_as_xyz
  x,y,z
_cell_length_a	10.654546
_cell_length_b	14.472310
_cell_length_c	10.654551
_cell_angle_alpha	89.998156
_cell_angle_beta	95.515557
_cell_angle_gamma	89.979717
loop_
_atom_site_label
_atom_site_type_symbol
_atom_site_fract_x
_atom_site_fract_y
_atom_site_fract_z
O1	O	-1.667861	0.076990	0.176370
O2	O	-1.302382	0.076957	0.193181
O3	O	-1.493524	0.076975	0.002036
O4	O	-1.476719	0.076972	0.367514
O5	O	-1.493474	-0.076707	0.002047
O6	O	-1.302332	-0.076725	0.193191
O7	O	-1.667811	-0.076692	0.176381
Cu8	Cu	-1.485067	-0.090741	0.184787
Cu9	Cu	-1.485126	0.091006	0.184774
O10	O	-1.476669	-0.076710	0.367525
C11	C	-1.255559	0.000112	0.191953
C12	C	-1.116116	0.000100	0.188262
N13	N	-1.485035	-0.218572	0.184795
C14	C	-1.036630	0.000109	0.300805
C15	C	-0.905609	0.000119	0.297330
C16	C	-0.933572	0.000114	0.068760
C17	C	-1.064590	0.000098	0.072236
C18	C	-1.088156	0.000111	0.416831
C19	C	-1.008669	0.000121	0.529382
C20	C	-0.877648	0.000131	0.525907
C21	C	-0.826114	0.000131	0.409881
C22	C	-1.485124	-0.592663	0.184769
C23	C	-1.382499	-0.553507	0.286698
C24	C	-1.382741	-0.446418	0.287075
C25	C	-1.485079	-0.407072	0.184782
C26	C	-1.616372	-0.445897	0.214544
C27	C	-1.615796	-0.553019	0.215270
C28	C	-1.457623	-0.553194	0.052784
C29	C	-1.454625	-0.446067	0.053637
C30	C	-1.485062	-0.302184	0.184787
C31	C	-1.485150	-0.697551	0.184767
C32	C	-0.714634	0.000143	0.177612
C33	C	-0.854076	0.000126	0.181311
C34	C	-1.492265	0.000136	-0.044757
C35	C	-1.488572	0.000142	-0.184200
N36	N	-1.485168	0.218837	0.184756
C37	C	-1.486867	0.083912	-0.249718
C38	C	-1.483387	0.083907	-0.380738
C39	C	-1.483323	-0.083645	-0.380712
C40	C	-1.486794	-0.083640	-0.249693
C41	C	-1.488646	0.167693	-0.184225
C42	C	-1.486942	0.251470	-0.249743
C43	C	-1.483462	0.251466	-0.380763
C44	C	-1.481685	0.167684	-0.446265
C45	C	-1.477928	0.000131	0.414318
C46	C	-1.481621	0.000132	0.553761
H47	H	-1.194838	0.000107	0.419673
H48	H	-0.812933	0.000130	0.617552
C49	C	-1.488895	0.343625	-0.177688
N50	N	-1.490369	0.413038	-0.123418
H51	H	-1.482061	0.319681	-0.434103
C52	C	-1.250941	-0.410957	0.262915
N53	N	-1.151662	-0.384252	0.244726
H54	H	-1.491483	0.167706	-0.077542
C55	C	-1.548948	-0.409908	-0.053754
N56	N	-1.620010	-0.382681	-0.134637
C57	C	-1.558703	-0.587406	-0.049708
N58	N	-1.634838	-0.613181	-0.126897
H59	H	-0.719426	0.000124	0.407060
C60	C	-0.876878	0.000122	-0.058860
N61	N	-0.834176	0.000133	-0.154986
C62	C	-1.477857	0.167684	-0.590392
N63	N	-1.474982	0.167685	-0.698948
C64	C	-1.250283	-0.588378	0.262915
N65	N	-1.150696	-0.614655	0.245006
C66	C	-1.065360	0.000116	0.657005
N67	N	-1.108058	0.000112	0.753132
H68	H	-1.129310	0.000093	-0.019406
H69	H	-1.481877	-0.151856	-0.434054
C70	C	-1.330981	-0.589739	0.014531
N71	N	-1.235587	-0.617263	-0.014266
H72	H	-1.488155	-0.151853	-0.196343
H73	H	-1.640977	-0.419058	0.309744
C74	C	-1.406061	-0.589856	0.418239
N75	N	-1.423812	-0.617236	0.517316
H76	H	-1.400422	-0.420783	0.384995
H77	H	-1.639856	-0.577993	0.311560
H78	H	-1.694611	-0.420407	0.142327
C79	C	-1.722169	-0.588010	0.118903
N80	N	-1.802301	-0.614361	0.046336
C81	C	-1.324137	-0.411795	0.023161
N82	N	-1.225850	-0.385977	0.000211
