data_functionalizedCrystal
_audit_creation_method	'MofGen! by Chris Wilmer'
_symmetry_space_group_name_H-M	'P1'
_symmetry_Int_Tables_number	1
_symmetry_cell_setting	triclinic
loop_
_symmetry_equiv_pos_as_xyz
  x,y,z
_cell_length_a	13.897449
_cell_length_b	18.050590
_cell_length_c	13.897441
_cell_angle_alpha	90.033006
_cell_angle_beta	90.023394
_cell_angle_gamma	90.019379
loop_
_atom_site_label
_atom_site_type_symbol
_atom_site_fract_x
_atom_site_fract_y
_atom_site_fract_z
Zn1	Zn	1.474697	-0.295619	0.545434
Zn2	Zn	1.974697	0.204381	1.045434
Zn3	Zn	1.474588	-0.419824	0.384128
Zn4	Zn	1.974588	0.080176	0.884128
Zn5	Zn	1.313386	-0.295654	0.384144
Zn6	Zn	1.813386	0.204346	0.884144
Zn7	Zn	1.313365	-0.419774	0.545373
Zn8	Zn	1.813365	0.080226	1.045373
O9	O	1.394009	-0.357718	0.464770
O10	O	1.894009	0.142282	0.964770
O11	O	1.609664	-0.312102	0.524054
O12	O	2.109664	0.187898	1.024054
O13	O	1.453168	-0.403387	0.249149
O14	O	1.953168	0.096613	0.749149
O15	O	1.334838	-0.191725	0.405572
O16	O	1.834838	0.308275	0.905572
O17	O	1.609584	-0.403354	0.405544
O18	O	2.109584	0.096646	0.905544
O19	O	1.453353	-0.191699	0.524070
O20	O	1.953353	0.308301	1.024070
O21	O	1.334733	-0.312160	0.249161
O22	O	1.834733	0.187840	0.749161
O23	O	1.178402	-0.312112	0.405513
O24	O	1.678402	0.187888	0.905513
O25	O	1.334803	-0.403269	0.680363
O26	O	1.834803	0.096731	1.180363
O27	O	1.178386	-0.403303	0.523967
O28	O	1.678386	0.096697	1.023967
O29	O	1.453333	-0.312053	0.680407
O30	O	1.953333	0.187947	1.180407
O31	O	1.453148	-0.523742	0.405486
O32	O	1.953148	-0.023742	0.905486
O33	O	1.334698	-0.523705	0.523952
O34	O	1.834698	-0.023705	1.023952
C35	C	1.143395	-0.357706	0.464736
C36	C	1.643395	0.142294	0.964736
C37	C	1.036181	-0.357719	0.464745
C38	C	1.536181	0.142281	0.964745
C39	C	0.949111	-0.357722	0.464761
C40	C	1.449111	0.142278	0.964761
C41	C	0.839879	-0.357727	0.464790
C42	C	1.339879	0.142273	0.964790
C43	C	1.393935	-0.550670	0.464731
C44	C	1.893935	-0.050670	0.964731
C45	C	1.393992	-0.633216	0.464747
C46	C	1.893992	-0.133216	0.964747
C47	C	1.458539	-0.832659	0.400415
C48	C	1.958539	-0.332659	0.900415
C49	C	1.482104	-0.881986	0.488452
C50	C	1.982104	-0.381986	0.988452
C51	C	1.394046	-0.784346	0.464786
C52	C	1.894046	-0.284346	0.964786
C53	C	1.370579	-0.882101	0.376789
C54	C	1.870579	-0.382101	0.876789
C55	C	1.394101	-0.930331	0.464815
C56	C	1.894101	-0.430331	0.964815
C57	C	1.417657	-0.832585	0.552868
C58	C	1.917657	-0.332585	1.052868
C59	C	1.306091	-0.832696	0.441146
C60	C	1.806091	-0.332696	0.941146
C61	C	1.329623	-0.882000	0.529243
C62	C	1.829623	-0.382000	1.029243
C63	C	1.394017	-0.700248	0.464767
C64	C	1.894017	-0.200248	0.964767
C65	C	1.394130	-1.014427	0.464843
C66	C	1.894130	-0.514427	0.964843
C67	C	1.645602	-0.357730	0.464804
C68	C	2.145602	0.142270	0.964804
C69	C	1.752816	-0.357735	0.464819
C70	C	2.252816	0.142265	0.964819
C71	C	1.394078	-0.357652	0.716363
C72	C	1.894078	0.142348	1.216363
C73	C	1.394107	-0.357624	0.823577
C74	C	1.894107	0.142376	1.323577
C75	C	1.394110	-0.164012	0.464830
C76	C	1.894110	0.335988	0.964830
C77	C	1.394153	-0.081466	0.464855
C78	C	1.894153	0.418534	0.964855
C79	C	1.393996	-0.357729	0.214156
C80	C	1.893996	0.142271	0.714156
C81	C	1.394154	-0.357548	0.106942
C82	C	1.894154	0.142452	0.606942
C83	C	1.394133	-0.357574	1.019872
C84	C	1.894133	0.142426	1.519872
C85	C	1.394115	-0.357604	0.910640
C86	C	1.894115	0.142396	1.410640
H87	H	1.513096	-0.810993	0.346035
H88	H	2.013096	-0.310993	0.846035
O89	O	1.257411	-0.910524	0.601445
O90	O	1.757411	-0.410524	1.101445
H91	H	1.184633	-0.889897	0.582378
H92	H	1.684633	-0.389897	1.082378
H93	H	1.231706	-0.811027	0.421107
H94	H	1.731706	-0.311027	0.921107
O95	O	1.580658	-0.910671	0.514973
O96	O	2.080658	-0.410671	1.014973
H97	H	1.634045	-0.890914	0.461428
H98	H	2.134045	-0.390914	0.961428
O99	O	1.344145	-0.910902	0.278225
O100	O	1.844145	-0.410902	0.778225
H101	H	1.403738	-0.945597	0.250031
H102	H	1.903738	-0.445597	0.750031
O103	O	1.444106	-0.803909	0.651489
O104	O	1.944106	-0.303909	1.151489
H105	H	1.443914	-0.742422	0.650691
H106	H	1.943914	-0.242422	1.150691
