data_functionalizedCrystal
_audit_creation_method	'MofGen! by Chris Wilmer'
_symmetry_space_group_name_H-M	'P1'
_symmetry_Int_Tables_number	1
_symmetry_cell_setting	triclinic
loop_
_symmetry_equiv_pos_as_xyz
  x,y,z
_cell_length_a	12.837943
_cell_length_b	12.837942
_cell_length_c	9.730223
_cell_angle_alpha	89.996108
_cell_angle_beta	89.997877
_cell_angle_gamma	94.828940
loop_
_atom_site_label
_atom_site_type_symbol
_atom_site_fract_x
_atom_site_fract_y
_atom_site_fract_z
O1	O	1.402334	0.272140	-0.114264
O2	O	1.902334	0.772140	0.385736
O3	O	1.099200	0.258697	-0.114272
O4	O	1.599200	0.758697	0.385728
O5	O	1.244046	0.113851	-0.114260
O6	O	1.744046	0.613851	0.385740
O7	O	1.257489	0.416985	-0.114276
O8	O	1.757489	0.916985	0.385724
O9	O	1.244035	0.113846	0.114320
O10	O	1.744035	0.613846	0.614320
O11	O	1.099190	0.258691	0.114308
O12	O	1.599190	0.758691	0.614308
O13	O	1.402323	0.272135	0.114316
O14	O	1.902323	0.772135	0.614316
Zn15	Zn	1.250755	0.265412	0.150604
Zn16	Zn	1.750755	0.765412	0.650604
Zn17	Zn	1.250769	0.265419	-0.150560
Zn18	Zn	1.750769	0.765419	0.349440
O19	O	1.257478	0.416980	0.114303
O20	O	1.757478	0.916980	0.614303
C21	C	1.060126	0.254153	0.000017
C22	C	1.560126	0.754153	0.500017
C23	C	0.943711	0.240608	0.000014
C24	C	1.443711	0.740608	0.500014
C25	C	1.239499	0.074780	0.000029
C26	C	1.739499	0.574780	0.500029
C27	C	1.225954	-0.041635	0.000027
C28	C	1.725954	0.458365	0.500027
C29	C	0.718837	0.403437	0.000025
C30	C	1.218837	0.903437	0.500025
C31	C	0.609454	0.390716	0.000023
C32	C	1.109454	0.890716	0.500023
C33	C	0.615562	0.202445	0.000018
C34	C	1.115562	0.702445	0.500018
C35	C	0.724944	0.215166	0.000020
C36	C	1.224944	0.715166	0.500020
C37	C	0.776578	0.315666	0.000021
C38	C	1.276578	0.815666	0.500021
C39	C	0.885962	0.328386	0.000013
C40	C	1.385962	0.828386	0.500013
C41	C	0.892067	0.140116	0.000018
C42	C	1.392067	0.640116	0.500018
C43	C	0.782685	0.127395	0.000017
C44	C	1.282685	0.627395	0.500017
C45	C	1.388784	-0.266510	0.000002
C46	C	1.888784	0.233490	0.500002
C47	C	1.376062	-0.375892	-0.000000
C48	C	1.876062	0.124108	0.500000
C49	C	1.187791	-0.369785	0.000009
C50	C	1.687791	0.130215	0.500009
C51	C	1.200513	-0.260402	0.000011
C52	C	1.700513	0.239598	0.500011
C53	C	1.301012	-0.208769	0.000010
C54	C	1.801012	0.291231	0.500010
C55	C	1.313732	-0.099384	0.000023
C56	C	1.813732	0.400616	0.500023
C57	C	1.125462	-0.093279	0.000022
C58	C	1.625462	0.406721	0.500022
C59	C	1.112741	-0.202661	0.000019
C60	C	1.612741	0.297339	0.500019
C61	C	1.441398	0.276679	0.000024
C62	C	1.941398	0.776679	0.500024
C63	C	1.557813	0.290223	0.000018
C64	C	2.057813	0.790223	0.500018
C65	C	1.262025	0.456052	0.000011
C66	C	1.762025	0.956052	0.500011
C67	C	1.275569	0.572467	0.000005
C68	C	1.775569	1.072467	0.500005
N69	N	1.250753	0.265407	0.356140
N70	N	1.750753	0.765407	0.856140
N71	N	1.250778	0.265416	-0.356097
N72	N	1.750778	0.765416	0.143903
C73	C	1.314917	0.201302	0.428072
C74	C	1.814917	0.701302	0.928072
C75	C	1.314928	0.201303	0.571954
C76	C	1.814928	0.701303	1.071954
C77	C	1.186607	0.329524	0.571962
C78	C	1.686607	0.829524	1.071962
C79	C	1.186592	0.329517	0.428082
C80	C	1.686592	0.829517	0.928082
H81	H	0.928000	0.410218	0.000016
H82	H	1.428000	0.910218	0.500016
H83	H	1.367175	0.149102	0.630517
H84	H	1.867175	0.649102	1.130517
H85	H	1.367159	0.149099	0.369500
H86	H	1.867159	0.649099	0.869500
C87	C	1.116031	0.400038	0.651111
C88	C	1.616031	0.900038	1.151111
N89	N	1.062872	0.453151	0.710725
N90	N	1.562872	0.953151	1.210725
C91	C	1.499332	-0.209710	0.000009
C92	C	1.999332	0.290290	0.500009
N93	N	1.582600	-0.166930	0.000011
N94	N	2.082600	0.333070	0.500011
H95	H	0.760878	0.485268	0.000023
H96	H	1.260878	0.985268	0.500023
H97	H	1.395564	-0.057346	0.000027
H98	H	1.895564	0.442654	0.500027
C99	C	0.725875	0.016851	0.000014
C100	C	1.225875	0.516851	0.500014
N101	N	0.683087	-0.066413	0.000006
N102	N	1.183087	0.433587	0.500006
H103	H	1.134336	0.381719	0.369511
H104	H	1.634336	0.881719	0.869511
H105	H	1.447536	-0.422901	-0.000011
H106	H	1.947536	0.077099	0.499989
C107	C	0.558745	0.091904	0.000032
C108	C	1.058745	0.591904	0.500032
N109	N	0.515950	0.008643	0.000044
N110	N	1.015950	0.508643	0.500044
H111	H	0.562446	0.462189	0.000029
H112	H	1.062446	0.962189	0.500029
H113	H	0.939092	0.068646	0.000006
H114	H	1.439092	0.568646	0.500006
C115	C	1.077250	-0.426601	0.000023
C116	C	1.577250	0.073399	0.500023
N117	N	0.993990	-0.469396	0.000044
N118	N	1.493990	0.030604	0.500044
C119	C	1.002197	-0.259471	0.000037
C120	C	1.502197	0.240529	0.500037
N121	N	0.918933	-0.302259	0.000060
N122	N	1.418933	0.197741	0.500060
H123	H	1.053992	-0.046254	0.000040
H124	H	1.553992	0.453746	0.500040
