data_functionalizedCrystal
_audit_creation_method	'MofGen! by Chris Wilmer'
_symmetry_space_group_name_H-M	'P1'
_symmetry_Int_Tables_number	1
_symmetry_cell_setting	triclinic
loop_
_symmetry_equiv_pos_as_xyz
  x,y,z
_cell_length_a	12.759401
_cell_length_b	16.959453
_cell_length_c	12.759393
_cell_angle_alpha	89.966032
_cell_angle_beta	89.979062
_cell_angle_gamma	90.021513
loop_
_atom_site_label
_atom_site_type_symbol
_atom_site_fract_x
_atom_site_fract_y
_atom_site_fract_z
Zn1	Zn	1.606228	-0.314611	-0.593995
Zn2	Zn	1.606103	-0.446810	-0.418304
Zn3	Zn	1.430526	-0.314653	-0.418330
Zn4	Zn	1.430502	-0.446755	-0.593941
O5	O	1.518340	-0.380707	-0.506143
O6	O	1.753232	-0.332153	-0.570701
O7	O	1.582770	-0.429320	-0.271287
O8	O	1.453896	-0.204037	-0.441665
O9	O	1.753140	-0.429279	-0.441622
O10	O	1.582983	-0.204006	-0.570726
O11	O	1.453775	-0.332225	-0.271305
O12	O	1.283502	-0.332171	-0.441614
O13	O	1.453855	-0.429185	-0.740970
O14	O	1.283484	-0.429226	-0.570635
O15	O	1.582960	-0.332100	-0.741009
O16	O	1.582746	-0.557414	-0.441570
O17	O	1.453733	-0.557373	-0.570610
C18	C	1.245372	-0.380698	-0.506122
C19	C	1.128596	-0.380713	-0.506138
C20	C	1.073752	-0.431326	-0.573213
C21	C	0.964028	-0.431329	-0.573234
C22	C	0.964001	-0.330103	-0.439095
C23	C	1.073723	-0.330097	-0.439080
C24	C	1.518252	-0.586074	-0.506104
C25	C	1.518311	-0.673930	-0.506123
C26	C	1.585641	-1.045331	-0.573471
C27	C	1.451332	-1.045480	-0.438970
C28	C	1.451293	-0.962935	-0.438946
C29	C	1.518428	-0.921583	-0.506187
C30	C	1.585602	-0.962778	-0.573451
C31	C	1.384112	-0.921734	-0.371690
C32	C	1.384070	-0.839183	-0.371664
C33	C	1.451211	-0.797830	-0.438900
C34	C	1.518389	-0.839030	-0.506167
C35	C	1.585524	-0.797678	-0.573407
C36	C	1.652708	-0.838876	-0.640669
C37	C	1.652744	-0.921425	-0.640687
C38	C	1.451175	-0.715282	-0.438882
C39	C	1.585485	-0.715125	-0.573387
C40	C	1.792373	-0.380718	-0.506164
C41	C	1.909150	-0.380722	-0.506173
C42	C	1.518418	-0.380632	-0.780176
C43	C	1.518452	-0.380599	-0.896953
C44	C	1.518456	-0.174539	-0.506204
C45	C	1.518506	-0.086683	-0.506231
C46	C	1.585682	-0.330039	-0.951837
C47	C	1.585700	-0.330005	-1.061561
C48	C	1.451255	-0.431098	-1.061507
C49	C	1.451232	-0.431128	-0.951785
C50	C	1.518322	-0.380726	-0.233175
C51	C	1.518492	-0.380536	-0.116399
H52	H	0.919310	-0.288895	-0.384497
N53	N	1.311710	-0.966332	-0.299167
H54	H	1.328061	-0.951994	-0.224114
H55	H	1.236655	-0.951985	-0.315503
N56	N	1.378724	-0.485661	-0.892567
H57	H	1.330053	-0.453539	-0.847048
H58	H	1.336213	-0.517664	-0.944006
N59	N	1.658180	-0.275545	-0.892692
H60	H	1.641903	-0.219060	-0.911793
H61	H	1.647932	-0.283308	-0.814875
H62	H	1.396470	-0.681742	-0.384123
N63	N	1.132939	-0.485915	-0.645537
H64	H	1.081541	-0.517978	-0.688032
H65	H	1.178502	-0.453783	-0.694227
N66	N	0.904874	-0.485922	-0.645575
H67	H	0.956288	-0.517985	-0.688048
H68	H	0.859314	-0.522462	-0.602721
H69	H	1.707366	-0.805199	-0.695422
H70	H	1.707440	-0.954976	-0.695449
H71	H	1.640344	-1.078878	-0.628231
H72	H	1.640159	-0.681462	-0.628139
N73	N	1.132886	-0.275494	-0.366745
H74	H	1.081477	-0.243432	-0.324264
H75	H	1.178381	-0.307615	-0.318040
N76	N	1.378928	-1.090076	-0.366447
H77	H	1.389147	-1.148621	-0.376665
H78	H	1.395325	-1.075681	-0.291426
H79	H	1.329366	-0.805645	-0.316895
H80	H	1.640443	-0.288832	-1.106243
N81	N	1.378741	-0.485583	-1.120648
H82	H	1.388951	-0.477891	-1.198485
H83	H	1.395037	-0.542046	-1.101462
