data_functionalizedCrystal
_audit_creation_method	'MofGen! by Chris Wilmer'
_symmetry_space_group_name_H-M	'P1'
_symmetry_Int_Tables_number	1
_symmetry_cell_setting	triclinic
loop_
_symmetry_equiv_pos_as_xyz
  x,y,z
_cell_length_a	9.065218
_cell_length_b	10.723024
_cell_length_c	9.798715
_cell_angle_alpha	90.002215
_cell_angle_beta	90.003534
_cell_angle_gamma	84.741877
loop_
_atom_site_label
_atom_site_type_symbol
_atom_site_fract_x
_atom_site_fract_y
_atom_site_fract_z
O1	O	1.959361	0.182984	0.113491
O2	O	1.529990	0.197993	0.113492
O3	O	1.754580	0.008952	0.113486
O4	O	1.734771	0.372024	0.113497
O5	O	1.754564	0.008951	-0.113496
O6	O	1.529975	0.197991	-0.113490
O7	O	1.959345	0.182982	-0.113491
Zn8	Zn	1.744657	0.190486	-0.149529
Zn9	Zn	1.744678	0.190489	0.149530
O10	O	1.734756	0.372023	-0.113486
C11	C	1.475004	0.196550	0.000001
C12	C	1.311186	0.192237	0.000002
C13	C	1.753130	-0.037554	-0.000003
C14	C	1.748817	-0.176126	0.000002
C15	C	1.874486	-0.250598	0.000003
C16	C	1.870031	-0.393819	0.000008
C17	C	2.014331	0.184425	0.000002
C18	C	2.178150	0.188738	0.000011
C19	C	1.736205	0.418529	0.000007
C20	C	1.740518	0.557101	0.000011
N21	N	1.744654	0.190484	-0.353629
C22	C	1.839186	0.110940	-0.578563
C23	C	1.839166	0.110941	-0.421400
N24	N	1.744693	0.190481	0.353630
H25	H	1.985373	-0.208325	-0.000006
H26	H	1.977613	-0.457815	0.000003
Br27	Br	1.974000	-0.002578	-0.324218
Br28	Br	1.609792	0.303986	-0.450802
H29	H	1.637931	-0.218398	0.000011
Br30	Br	1.561190	-0.336251	-0.000007
Br31	Br	1.974071	-0.002562	-0.675714
H32	H	1.663784	0.258585	-0.588072
