data_functionalizedCrystal
_audit_creation_method	'MofGen! by Chris Wilmer'
_symmetry_space_group_name_H-M	'P1'
_symmetry_Int_Tables_number	1
_symmetry_cell_setting	triclinic
loop_
_symmetry_equiv_pos_as_xyz
  x,y,z
_cell_length_a	19.805407
_cell_length_b	19.805405
_cell_length_c	19.805399
_cell_angle_alpha	90.028022
_cell_angle_beta	90.015116
_cell_angle_gamma	90.024042
loop_
_atom_site_label
_atom_site_type_symbol
_atom_site_fract_x
_atom_site_fract_y
_atom_site_fract_z
Zn1	Zn	1.034716	-0.269518	0.382692
Zn2	Zn	1.034636	-0.382709	0.269506
Zn3	Zn	0.921536	-0.269534	0.269520
Zn4	Zn	0.921494	-0.382665	0.382656
O5	O	0.978095	-0.326107	0.326094
O6	O	1.129422	-0.284545	0.367687
O7	O	1.019617	-0.367721	0.174791
O8	O	0.936601	-0.174815	0.284554
O9	O	1.129363	-0.367706	0.284529
O10	O	1.019754	-0.174803	0.367701
O11	O	0.936523	-0.284572	0.174802
O12	O	0.826814	-0.284529	0.284519
O13	O	0.936529	-0.367631	0.477378
O14	O	0.826783	-0.367646	0.367639
O15	O	1.019713	-0.284502	0.477404
O16	O	1.019576	-0.477420	0.284494
O17	O	0.936451	-0.477387	0.367625
C18	C	0.802239	-0.326085	0.326077
C19	C	0.727007	-0.326093	0.326086
C20	C	0.691695	-0.282867	0.369452
C21	C	0.621006	-0.282871	0.369455
C22	C	0.585632	-0.326104	0.326094
C23	C	0.620950	-0.369331	0.282724
C24	C	0.691637	-0.369323	0.282718
C25	C	0.335876	-0.369361	0.282744
C26	C	0.265184	-0.369367	0.282755
C27	C	0.265246	-0.282909	0.369481
C28	C	0.335933	-0.282901	0.369476
C29	C	0.371245	-0.326126	0.326103
C30	C	0.447893	-0.326120	0.326099
C31	C	0.508985	-0.326113	0.326100
C32	C	0.978018	-0.501963	0.326069
C33	C	0.978047	-0.577195	0.326081
C34	C	1.021319	-0.612474	0.369410
C35	C	1.021344	-0.683163	0.369422
C36	C	0.978099	-0.718570	0.326103
C37	C	0.934822	-0.683285	0.282772
C38	C	0.934795	-0.612598	0.282763
C39	C	0.934931	-0.968359	0.282807
C40	C	0.934963	-1.039051	0.282817
C41	C	1.021480	-1.038923	0.369466
C42	C	1.021453	-0.968236	0.369457
C43	C	0.978173	-0.932957	0.326129
C44	C	0.978147	-0.856309	0.326117
C45	C	0.978129	-0.795217	0.326111
C46	C	1.154638	-0.326128	0.326111
C47	C	1.229870	-0.326138	0.326118
C48	C	0.978125	-0.326060	0.502636
C49	C	0.978138	-0.326040	0.577868
C50	C	0.978191	-0.149564	0.326133
C51	C	0.978232	-0.074332	0.326150
C52	C	0.978105	-0.326104	0.150238
C53	C	0.978223	-0.325934	0.075006
C54	C	0.934883	-0.282740	0.613218
C55	C	0.934893	-0.282727	0.683906
C56	C	0.978160	-0.326010	0.719244
C57	C	1.021417	-0.369315	0.683890
C58	C	1.021404	-0.369331	0.613203
C59	C	1.021471	-0.369252	0.968963
C60	C	1.021482	-0.369231	1.039656
C61	C	0.934959	-0.282647	1.039667
C62	C	0.934946	-0.282663	0.968980
C63	C	0.978200	-0.325970	0.933632
C64	C	0.978188	-0.325985	0.856983
C65	C	0.978176	-0.325993	0.795891
H66	H	0.720387	-0.404522	0.247405
H67	H	0.592258	-0.247674	0.404769
N68	N	1.068141	-0.415925	1.077776
H69	H	1.099531	-0.388418	1.107113
H70	H	1.095494	-0.443357	1.044618
H71	H	0.592142	-0.404529	0.247416
H72	H	0.899557	-0.583874	0.247482
N73	N	0.729846	-0.236241	0.416224
H74	H	0.696747	-0.208858	0.443696
H75	H	0.759176	-0.204880	0.388727
N76	N	1.068024	-0.721213	0.416149
H77	H	1.061479	-0.771365	0.409584
H78	H	1.057459	-0.708834	0.464479
H79	H	0.899609	-0.712120	0.247503
N80	N	0.227153	-0.236280	0.416252
H81	H	0.239470	-0.187905	0.405825
H82	H	0.239479	-0.246911	0.464575
H83	H	1.056631	-0.404585	0.584422
N84	N	1.068096	-0.930046	0.416179
H85	H	1.095512	-0.963123	0.443631
H86	H	1.040510	-0.900722	0.447471
N87	N	0.227028	-0.415998	0.235985
H88	H	0.260123	-0.443378	0.208505
H89	H	0.197695	-0.388404	0.204718
H90	H	1.056537	-0.583650	0.404683
N91	N	0.888237	-0.236027	0.722034
H92	H	0.860828	-0.208607	0.688921
H93	H	0.915811	-0.204703	0.751375
H94	H	1.056718	-1.067655	0.404747
N95	N	0.888319	-1.077243	0.236091
H96	H	0.860897	-1.044168	0.208642
H97	H	0.856995	-1.106583	0.263621
N98	N	0.374087	-0.236276	0.416246
H99	H	0.340990	-0.208891	0.443719
H100	H	0.403416	-0.204915	0.388747
N101	N	1.068120	-0.415957	0.930841
H102	H	1.095534	-0.443372	0.963954
H103	H	1.099453	-0.388417	0.901521
H104	H	0.899693	-0.939640	0.247527
N105	N	0.888222	-0.236048	0.575105
H106	H	0.860822	-0.208616	0.608228
H107	H	0.856877	-0.263599	0.545765
H108	H	0.899715	-0.247415	0.940211
N109	N	0.888293	-0.235949	1.077793
H110	H	0.915816	-0.204580	1.107139
H111	H	0.856927	-0.263501	1.107067
N112	N	0.373957	-0.415978	0.235964
H113	H	0.340819	-0.443366	0.208499
H114	H	0.403288	-0.447335	0.263453
N115	N	1.068078	-0.416009	0.722001
H116	H	1.061524	-0.409429	0.772145
H117	H	1.116422	-0.405488	0.709652
