data_functionalizedCrystal
_audit_creation_method	'MofGen! by Chris Wilmer'
_symmetry_space_group_name_H-M	'P1'
_symmetry_Int_Tables_number	1
_symmetry_cell_setting	triclinic
loop_
_symmetry_equiv_pos_as_xyz
  x,y,z
_cell_length_a	12.759401
_cell_length_b	12.759394
_cell_length_c	12.759393
_cell_angle_alpha	89.968661
_cell_angle_beta	89.981636
_cell_angle_gamma	90.014998
loop_
_atom_site_label
_atom_site_type_symbol
_atom_site_fract_x
_atom_site_fract_y
_atom_site_fract_z
Zn1	Zn	1.606253	-0.418210	-0.593976
Zn2	Zn	1.606147	-0.593926	-0.418294
Zn3	Zn	1.430555	-0.418262	-0.418315
Zn4	Zn	1.430543	-0.593848	-0.593935
O5	O	1.518375	-0.506061	-0.506130
O6	O	1.753260	-0.441530	-0.570679
O7	O	1.582816	-0.570678	-0.271276
O8	O	1.453911	-0.271234	-0.441643
O9	O	1.753182	-0.570628	-0.441607
O10	O	1.582996	-0.271196	-0.570700
O11	O	1.453809	-0.441619	-0.271291
O12	O	1.283533	-0.441543	-0.441604
O13	O	1.453891	-0.570495	-0.740962
O14	O	1.283524	-0.570545	-0.570631
O15	O	1.582984	-0.441454	-0.740992
O16	O	1.582804	-0.740937	-0.441567
O17	O	1.453788	-0.740879	-0.570610
C18	C	1.245407	-0.506042	-0.506116
C19	C	1.128631	-0.506059	-0.506135
C20	C	1.073792	-0.573338	-0.573208
C21	C	0.964067	-0.573351	-0.573219
C22	C	0.964031	-0.438804	-0.439075
C23	C	1.073754	-0.438786	-0.439070
C24	C	1.073811	-0.651022	-0.650652
C25	C	0.964087	-0.651035	-0.650664
C26	C	1.518312	-0.779029	-0.506105
C27	C	1.518381	-0.895806	-0.506129
C28	C	1.652826	-0.895812	-0.371857
C29	C	1.720075	-0.950676	-0.304734
C30	C	1.720137	-1.060397	-0.304762
C31	C	1.652944	-1.115258	-0.371924
C32	C	1.585694	-1.060394	-0.439047
C33	C	1.585637	-0.950670	-0.439009
C34	C	1.451256	-1.060387	-0.573323
C35	C	1.451188	-0.950666	-0.573291
C36	C	1.384063	-1.115248	-0.640484
C37	C	1.316806	-1.060384	-0.707604
C38	C	1.316747	-0.950655	-0.707572
C39	C	1.383938	-0.895802	-0.640414
C40	C	1.792408	-0.506082	-0.506145
C41	C	1.909185	-0.506090	-0.506151
C42	C	1.518448	-0.505960	-0.780164
C43	C	1.518479	-0.505917	-0.896940
C44	C	1.518467	-0.232028	-0.506179
C45	C	1.518506	-0.115251	-0.506199
C46	C	1.585730	-0.438669	-1.061545
C47	C	1.585705	-0.438712	-0.951820
C48	C	1.451281	-0.573089	-0.951790
C49	C	1.451312	-0.573050	-1.061512
C50	C	1.663335	-0.361084	-1.061561
C51	C	1.663310	-0.361128	-0.951837
C52	C	1.518363	-0.506087	-0.233163
C53	C	1.518535	-0.505834	-0.116387
H54	H	1.118399	-0.383994	-0.384459
H55	H	1.652769	-0.806471	-0.371814
H56	H	1.384122	-1.204589	-0.640507
H57	H	1.262108	-1.105059	-0.762287
H58	H	1.653009	-1.204599	-0.371950
H59	H	0.919337	-0.384032	-0.384474
H60	H	1.103620	-0.629324	-0.732059
H61	H	0.934292	-0.732384	-0.628730
H62	H	1.740588	-0.390295	-0.917805
H63	H	1.744707	-0.382868	-1.091336
H64	H	1.107825	-0.728273	-0.621367
H65	H	0.930090	-0.621992	-0.728016
H66	H	1.641535	-0.279767	-0.922072
H67	H	1.774786	-0.905999	-0.250053
H68	H	1.261988	-0.905991	-0.762236
H69	H	1.774903	-1.105067	-0.250110
H70	H	1.383889	-0.806461	-0.640375
H71	H	1.396605	-0.627752	-1.106161
H72	H	1.396551	-0.627815	-0.907098
H73	H	1.634219	-0.283779	-1.095607
