data_functionalizedCrystal
_audit_creation_method	'MofGen! by Chris Wilmer'
_symmetry_space_group_name_H-M	'P1'
_symmetry_Int_Tables_number	1
_symmetry_cell_setting	triclinic
loop_
_symmetry_equiv_pos_as_xyz
  x,y,z
_cell_length_a	25.639242
_cell_length_b	29.839131
_cell_length_c	29.839135
_cell_angle_alpha	90.000668
_cell_angle_beta	90.016827
_cell_angle_gamma	90.036947
loop_
_atom_site_label
_atom_site_type_symbol
_atom_site_fract_x
_atom_site_fract_y
_atom_site_fract_z
Zn1	Zn	0.799187	-0.179046	0.254113
Zn2	Zn	1.299187	0.320954	0.754113
Zn3	Zn	0.799115	-0.254135	0.178983
Zn4	Zn	1.299115	0.245865	0.678983
Zn5	Zn	0.711772	-0.179014	0.178984
Zn6	Zn	1.211772	0.320986	0.678984
Zn7	Zn	0.711705	-0.254143	0.254073
Zn8	Zn	1.211705	0.245857	0.754073
O9	O	0.755445	-0.216585	0.216539
O10	O	1.255445	0.283415	0.716539
O11	O	0.872343	-0.189016	0.244164
O12	O	1.372343	0.310984	0.744164
O13	O	0.787527	-0.244154	0.116116
O14	O	1.287527	0.255846	0.616116
O15	O	0.723426	-0.116151	0.188968
O16	O	1.223426	0.383849	0.688968
O17	O	0.872290	-0.244184	0.188966
O18	O	1.372290	0.255816	0.688966
O19	O	0.787650	-0.116174	0.244165
O20	O	1.287650	0.383826	0.744165
O21	O	0.723356	-0.188963	0.116117
O22	O	1.223356	0.311037	0.616117
O23	O	0.638598	-0.188970	0.188928
O24	O	1.138598	0.311030	0.688928
O25	O	0.723312	-0.244198	0.316945
O26	O	1.223312	0.255802	0.816945
O27	O	0.638548	-0.244168	0.244096
O28	O	1.138548	0.255832	0.744096
O29	O	0.787585	-0.189024	0.316975
O30	O	1.287585	0.310976	0.816975
O31	O	0.787461	-0.317003	0.188927
O32	O	1.287461	0.182997	0.688927
O33	O	0.723241	-0.317009	0.244095
O34	O	1.223241	0.182991	0.744095
C35	C	0.619602	-0.216567	0.216508
C36	C	1.119602	0.283433	0.716508
C37	C	0.561488	-0.216570	0.216506
C38	C	1.061488	0.283430	0.716506
C39	C	0.201108	-0.245374	0.245237
C40	C	0.701108	0.254626	0.745237
C41	C	0.146504	-0.245376	0.245244
C42	C	0.646504	0.254624	0.745244
O43	O	0.118253	-0.269844	0.269647
O44	O	0.618253	0.230156	0.769647
N45	N	0.119206	-0.216597	0.216568
N46	N	0.619206	0.283403	0.716568
C47	C	0.146515	-0.187810	0.187886
C48	C	0.646515	0.312190	0.687886
O49	O	0.118281	-0.163330	0.163495
O50	O	0.618281	0.336670	0.663495
C51	C	0.201118	-0.187805	0.187881
C52	C	0.701118	0.312195	0.687881
C53	C	0.228413	-0.216590	0.216556
C54	C	0.728413	0.283410	0.716556
C55	C	0.228404	-0.274156	0.273910
C56	C	0.728404	0.225844	0.773910
C57	C	0.283004	-0.274153	0.273902
C58	C	0.783004	0.225847	0.773902
C59	C	0.310309	-0.245369	0.245221
C60	C	0.810309	0.254631	0.745221
C61	C	0.283014	-0.216587	0.216548
C62	C	0.783014	0.283413	0.716548
C63	C	0.228426	-0.159016	0.159202
C64	C	0.728426	0.340984	0.659202
C65	C	0.283033	-0.159013	0.159200
C66	C	0.783033	0.340987	0.659200
C67	C	0.310328	-0.187798	0.187875
C68	C	0.810328	0.312202	0.687875
C69	C	0.364919	-0.187801	0.187860
C70	C	0.864919	0.312199	0.687860
N71	N	0.392218	-0.216580	0.216536
N72	N	0.892218	0.283420	0.716536
C73	C	0.364913	-0.245364	0.245217
C74	C	0.864913	0.254636	0.745217
C75	C	0.031844	-0.187821	0.187898
C76	C	0.531844	0.312179	0.687898
C77	C	-0.022758	-0.187828	0.187900
C78	C	0.477242	0.312172	0.687900
C79	C	-0.022765	-0.245394	0.245259
C80	C	0.477235	0.254606	0.745259
C81	C	0.031838	-0.245389	0.245254
C82	C	0.531838	0.254611	0.745254
C83	C	0.059142	-0.216601	0.216574
C84	C	0.559142	0.283399	0.716574
C85	C	0.479578	-0.245358	0.245198
C86	C	0.979578	0.254642	0.745198
C87	C	0.534183	-0.245354	0.245186
C88	C	1.034183	0.254646	0.745186
C89	C	0.534185	-0.187786	0.187829
C90	C	1.034185	0.312214	0.687829
C91	C	0.479585	-0.187791	0.187839
C92	C	0.979585	0.312209	0.687839
C93	C	0.452282	-0.216579	0.216527
C94	C	0.952282	0.283421	0.716527
O95	O	0.393205	-0.163344	0.163471
O96	O	0.893205	0.336656	0.663471
O97	O	0.393153	-0.269835	0.269607
O98	O	0.893153	0.230165	0.769607
C99	C	0.755350	-0.333307	0.216516
C100	C	1.255350	0.166693	0.716516
C101	C	0.755358	-0.383242	0.216522
C102	C	1.255358	0.116758	0.716522
C103	C	0.788945	-0.692869	0.187855
C104	C	1.288945	-0.192869	0.687855
C105	C	0.789009	-0.880542	0.187872
C106	C	1.289009	-0.380542	0.687872
O107	O	0.817491	-0.904794	0.163481
O108	O	1.317491	-0.404794	0.663481
N109	N	0.755553	-0.904027	0.216572
N110	N	1.255553	-0.404027	0.716572
C111	C	0.722081	-0.880590	0.245273
C112	C	1.222081	-0.380590	0.745273
O113	O	0.693630	-0.904871	0.269688
O114	O	1.193630	-0.404871	0.769688
C115	C	0.722019	-0.692918	0.245257
C116	C	1.222019	-0.192918	0.745257
C117	C	0.755474	-0.669436	0.216552
C118	C	1.255474	-0.169436	0.716552
C119	C	0.822397	-0.669387	0.159152
C120	C	1.322397	-0.169387	0.659152
C121	C	0.822379	-0.622472	0.159146
C122	C	1.322379	-0.122472	0.659146
C123	C	0.788908	-0.599038	0.187843
C124	C	1.288908	-0.099038	0.687843
C125	C	0.755456	-0.622520	0.216546
C126	C	1.255456	-0.122520	0.716546
C127	C	0.688550	-0.669482	0.273959
C128	C	1.188550	-0.169482	0.773959
C129	C	0.688539	-0.622561	0.273954
C130	C	1.188539	-0.122561	0.773954
C131	C	0.721993	-0.599079	0.245248
C132	C	1.221993	-0.099079	0.745248
C133	C	0.721966	-0.552171	0.245237
C134	C	1.221966	-0.052171	0.745237
N135	N	0.755422	-0.528687	0.216537
N136	N	1.255422	-0.028687	0.716537
C137	C	0.788893	-0.552120	0.187840
C138	C	1.288893	-0.052120	0.687840
C139	C	0.722115	-0.979120	0.245278
C140	C	1.222115	-0.479120	0.745278
C141	C	0.722129	-1.026038	0.245282
C142	C	1.222129	-0.526038	0.745282
C143	C	0.789059	-1.025987	0.187881
C144	C	1.289059	-0.525987	0.687881
C145	C	0.789041	-0.979069	0.187876
C146	C	1.289041	-0.479069	0.687876
C147	C	0.755571	-0.955636	0.216578
C148	C	1.255571	-0.455636	0.716578
C149	C	0.788852	-0.453595	0.187829
C150	C	1.288852	0.046405	0.687829
C151	C	0.788829	-0.406675	0.187825
C152	C	1.288829	0.093325	0.687825
C153	C	0.721901	-0.406730	0.245226
C154	C	1.221901	0.093270	0.745226
C155	C	0.721922	-0.453645	0.245229
C156	C	1.221922	0.046355	0.745229
C157	C	0.755402	-0.477077	0.216529
C158	C	1.255402	0.022923	0.716529
O159	O	0.693503	-0.527891	0.269619
O160	O	1.193503	-0.027891	0.769619
O161	O	0.817349	-0.527831	0.163435
O162	O	1.317349	-0.027831	0.663435
C163	C	0.788963	-0.739785	0.187860
C164	C	1.288963	-0.239785	0.687860
C165	C	0.755511	-0.763267	0.216563
C166	C	1.255511	-0.263267	0.716563
C167	C	0.722040	-0.739833	0.245260
C168	C	1.222040	-0.239833	0.745260
C169	C	0.755526	-0.810184	0.216567
C170	C	1.255526	-0.310184	0.716567
C171	C	0.788996	-0.833618	0.187870
C172	C	1.288996	-0.333618	0.687870
C173	C	0.822453	-0.810134	0.159169
C174	C	1.322453	-0.310134	0.659169
C175	C	0.822434	-0.763218	0.159163
C176	C	1.322434	-0.263218	0.659163
C177	C	0.688584	-0.763318	0.273961
C178	C	1.188584	-0.263318	0.773961
C179	C	0.688605	-0.810233	0.273964
C180	C	1.188605	-0.310233	0.773964
C181	C	0.722076	-0.833666	0.245267
C182	C	1.222076	-0.333666	0.745267
C183	C	0.891818	-0.216603	0.216569
C184	C	1.391818	0.283397	0.716569
C185	C	0.949932	-0.216610	0.216582
C186	C	1.449932	0.283390	0.716582
C187	C	0.755449	-0.216615	0.333717
C188	C	1.255449	0.283385	0.833717
C189	C	0.755451	-0.216628	0.383651
C190	C	1.255451	0.283372	0.883651
C191	C	0.755554	-0.099406	0.216571
C192	C	1.255554	0.400594	0.716571
C193	C	0.755600	-0.049472	0.216584
C194	C	1.255600	0.450528	0.716584
C195	C	0.721978	-0.245323	0.740223
C196	C	1.221978	0.254677	1.240223
C197	C	0.721981	-0.245339	0.552550
C198	C	1.221981	0.254661	1.052550
O199	O	0.693508	-0.269757	0.528272
O200	O	1.193508	0.230243	1.028272
N201	N	0.755445	-0.216615	0.529096
N202	N	1.255445	0.283385	1.029096
C203	C	0.788908	-0.187883	0.552564
C204	C	1.288908	0.312117	1.052564
O205	O	0.817367	-0.163448	0.528309
O206	O	1.317367	0.336552	1.028309
C207	C	0.788901	-0.187865	0.740236
C208	C	1.288901	0.312135	1.240236
C209	C	0.755439	-0.216594	0.763687
C210	C	1.255439	0.283406	1.263687
C211	C	0.688517	-0.274049	0.763674
C212	C	1.188517	0.225951	1.263674
C213	C	0.688519	-0.274046	0.810590
C214	C	1.188519	0.225954	1.310590
C215	C	0.721980	-0.245318	0.834054
C216	C	1.221980	0.254682	1.334054
C217	C	0.755441	-0.216591	0.810603
C218	C	1.255441	0.283409	1.310603
C219	C	0.822361	-0.159131	0.763703
C220	C	1.322361	0.340869	1.263703
C221	C	0.822356	-0.159128	0.810624
C222	C	1.322356	0.340872	1.310624
C223	C	0.788894	-0.187857	0.834075
C224	C	1.288894	0.312143	1.334075
C225	C	0.788904	-0.187860	0.880983
C226	C	1.288904	0.312140	1.380983
N227	N	0.755440	-0.216584	0.904436
N228	N	1.255440	0.283416	1.404436
C229	C	0.721978	-0.245313	0.880972
C230	C	1.221978	0.254687	1.380972
C231	C	0.788910	-0.187895	0.454033
C232	C	1.288910	0.312105	0.954033
C233	C	0.788912	-0.187900	0.407116
C234	C	1.288912	0.312100	0.907116
C235	C	0.721984	-0.245355	0.407105
C236	C	1.221984	0.254645	0.907105
C237	C	0.721985	-0.245352	0.454023
C238	C	1.221985	0.254648	0.954023
C239	C	0.755446	-0.216619	0.477487
C240	C	1.255446	0.283381	0.977487
C241	C	0.721984	-0.245305	0.979498
C242	C	1.221984	0.254695	1.479498
C243	C	0.721990	-0.245302	1.026417
C244	C	1.221990	0.254698	1.526417
C245	C	0.788916	-0.187845	1.026424
C246	C	1.288916	0.312155	1.526424
C247	C	0.788912	-0.187850	0.979508
C248	C	1.288912	0.312150	1.479508
C249	C	0.755442	-0.216582	0.956046
C250	C	1.255442	0.283418	1.456046
O251	O	0.817357	-0.163450	0.905289
O252	O	1.317357	0.336550	1.405289
O253	O	0.693515	-0.269736	0.905235
O254	O	1.193515	0.230264	1.405235
C255	C	0.721976	-0.245325	0.693308
C256	C	1.221976	0.254675	1.193308
C257	C	0.755436	-0.216599	0.669856
C258	C	1.255436	0.283401	1.169856
C259	C	0.788898	-0.187870	0.693321
C260	C	1.288898	0.312130	1.193321
C261	C	0.755439	-0.216604	0.622939
C262	C	1.255439	0.283396	1.122939
C263	C	0.721977	-0.245333	0.599474
C264	C	1.221977	0.254667	1.099474
C265	C	0.688513	-0.274057	0.622928
C266	C	1.188513	0.225943	1.122928
C267	C	0.688514	-0.274054	0.669843
C268	C	1.188514	0.225946	1.169843
C269	C	0.822362	-0.159146	0.669867
C270	C	1.322362	0.340854	1.169867
C271	C	0.822358	-0.159151	0.622952
C272	C	1.322358	0.340849	1.122952
C273	C	0.788896	-0.187880	0.599487
C274	C	1.288896	0.312120	1.099487
C275	C	0.755441	-0.216569	1.099816
C276	C	1.255441	0.283431	1.599816
C277	C	0.755451	-0.216573	1.049882
C278	C	1.255451	0.283427	1.549882
H279	H	0.305261	-0.135567	0.135848
H280	H	0.805261	0.364433	0.635848
N281	N	0.652424	-0.305029	0.835881
N282	N	1.152424	0.194971	1.335881
H283	H	0.660514	-0.337129	0.827718
H284	H	1.160514	0.162871	1.327718
H285	H	0.615090	-0.298007	0.827692
H286	H	1.115090	0.201993	1.327692
N287	N	0.858449	-0.128140	0.835933
N288	N	1.358449	0.371860	1.335933
H289	H	0.837219	-0.107318	0.855393
H290	H	1.337219	0.392682	1.355393
H291	H	0.879639	-0.109973	0.813928
H292	H	1.379639	0.390027	1.313928
H293	H	0.849612	-0.135757	0.603862
H294	H	1.349612	0.364243	1.103862
N295	N	0.450133	-0.276410	0.276134
N296	N	0.950133	0.223590	0.776134
H297	H	0.427501	-0.258198	0.296993
H298	H	0.927501	0.241802	0.796993
H299	H	0.475749	-0.294636	0.294263
H300	H	0.975749	0.205364	0.794263
H301	H	0.849676	-0.744102	0.135789
H302	H	1.349676	-0.244102	0.635789
H303	H	0.206211	-0.135577	0.135851
H304	H	0.706211	0.364423	0.635851
N305	N	0.858549	-0.835413	0.128213
N306	N	1.358549	-0.335413	0.628213
H307	H	0.853480	-0.868697	0.132575
H308	H	1.353480	-0.368697	0.632575
H309	H	0.895883	-0.827184	0.135237
H310	H	1.395883	-0.327184	0.635237
N311	N	0.825158	-1.051270	0.156930
N312	N	1.325158	-0.551270	0.656930
H313	H	0.849372	-1.070715	0.175216
H314	H	1.349372	-0.570715	0.675216
H315	H	0.846320	-1.029251	0.138751
H316	H	1.346320	-0.529251	0.638751
H317	H	0.661357	-0.829348	0.297339
H318	H	1.161357	-0.329348	0.797339
H319	H	0.305223	-0.297592	0.297253
H320	H	0.805223	0.202408	0.797253
H321	H	0.849610	-0.135751	0.688967
H322	H	1.349610	0.364249	1.188967
H323	H	0.661284	-0.603484	0.297328
H324	H	1.161284	-0.103484	0.797328
H325	H	0.206178	-0.297595	0.297268
H326	H	0.706178	0.202405	0.797268
N327	N	0.061295	-0.156776	0.156957
N328	N	0.561295	0.343224	0.656957
H329	H	0.083972	-0.135987	0.175248
H330	H	0.583972	0.364013	0.675248
H331	H	0.035683	-0.138577	0.138798
H332	H	0.535683	0.361423	0.638798
N333	N	0.825005	-0.156908	0.479342
N334	N	1.325005	0.343092	0.979342
H335	H	0.803777	-0.136082	0.498800
H336	H	1.303777	0.363918	0.998800
H337	H	0.846198	-0.138743	0.457336
H338	H	1.346198	0.361257	0.957336
H339	H	0.661266	-0.297448	0.688933
H340	H	1.161266	0.202552	1.188933
H341	H	0.661329	-0.744242	0.297330
H342	H	1.161329	-0.244242	0.797330
N343	N	0.858498	-0.694660	0.128197
N344	N	1.358498	-0.194660	0.628197
H345	H	0.895846	-0.686463	0.135206
H346	H	1.395846	-0.186463	0.635206
H347	H	0.850354	-0.686489	0.096104
H348	H	1.350354	-0.186489	0.596104
N349	N	0.685893	-0.276333	0.479320
N350	N	1.185893	0.223667	0.979320
H351	H	0.693984	-0.308434	0.471162
H352	H	1.193984	0.191566	0.971162
H353	H	0.648557	-0.269313	0.471133
H354	H	1.148557	0.230687	0.971133
N355	N	0.685894	-0.276343	0.381793
N356	N	1.185894	0.223657	0.881793
H357	H	0.690976	-0.271983	0.348513
H358	H	1.190976	0.228017	0.848513
H359	H	0.648559	-0.269342	0.389981
H360	H	1.148559	0.230658	0.889981
H361	H	0.054058	-0.268828	0.268605
H362	H	0.554058	0.231172	0.768605
N363	N	0.685899	-0.276290	1.051711
N364	N	1.185899	0.223710	1.551711
H365	H	0.664700	-0.294488	1.029724
H366	H	1.164700	0.205512	1.529724
H367	H	0.661718	-0.258001	1.071171
H368	H	1.161718	0.241999	1.571171
N369	N	0.450141	-0.156752	0.156907
N370	N	0.950141	0.343248	0.656907
H371	H	0.475726	-0.138519	0.138736
H372	H	0.975726	0.361481	0.638736
H373	H	0.427512	-0.135994	0.175236
H374	H	0.927512	0.364006	0.675236
H375	H	-0.045007	-0.268830	0.268614
H376	H	0.454993	0.231170	0.768614
H377	H	0.661266	-0.297443	0.744574
H378	H	1.161266	0.202557	1.244574
H379	H	0.556427	-0.164352	0.164477
H380	H	1.056427	0.335648	0.664477
N381	N	0.825011	-0.156918	0.381827
N382	N	1.325011	0.343082	0.881827
H383	H	0.803786	-0.136097	0.362352
H384	H	1.303786	0.363903	0.862352
H385	H	0.849220	-0.175212	0.362396
H386	H	1.349220	0.324788	0.862396
N387	N	0.824914	-0.381348	0.156864
N388	N	1.324914	0.118652	0.656864
H389	H	0.846122	-0.403315	0.138688
H390	H	1.346122	0.096685	0.638688
H391	H	0.849086	-0.361860	0.175172
H392	H	1.349086	0.138140	0.675172
N393	N	0.858454	-0.128144	0.738417
N394	N	1.358454	0.371856	1.238417
H395	H	0.879645	-0.109945	0.760407
H396	H	1.379645	0.390055	1.260407
H397	H	0.837190	-0.107352	0.718945
H398	H	1.337190	0.392648	1.218945
N399	N	0.824961	-0.478863	0.156875
N400	N	1.324961	0.021137	0.656875
H401	H	0.846146	-0.456862	0.138693
H402	H	1.346146	0.043138	0.638693
H403	H	0.803705	-0.498349	0.136066
H404	H	1.303705	0.001651	0.636066
N405	N	-0.052196	-0.156788	0.156966
N406	N	0.447804	0.343212	0.656966
H407	H	-0.026607	-0.138555	0.138797
H408	H	0.473393	0.361445	0.638797
H409	H	-0.074827	-0.136030	0.175291
H410	H	0.425173	0.363970	0.675291
N411	N	0.858470	-0.597148	0.128192
N412	N	1.358470	-0.097148	0.628192
H413	H	0.879676	-0.619118	0.110018
H414	H	1.379676	-0.119118	0.610018
H415	H	0.882642	-0.577664	0.146504
H416	H	1.382642	-0.077664	0.646504
H417	H	0.694725	-0.268698	0.960400
H418	H	1.194725	0.231302	1.460400
N419	N	0.825125	-0.953743	0.156917
N420	N	1.325125	-0.453743	0.656917
H421	H	0.846329	-0.975712	0.138739
H422	H	1.346329	-0.475712	0.638739
H423	H	0.849301	-0.934258	0.175225
H424	H	1.349301	-0.434258	0.675225
H425	H	0.816163	-0.164460	0.960414
H426	H	1.316163	0.335540	1.460414
H427	H	0.661269	-0.297450	0.603815
H428	H	1.161269	0.202550	1.103815
N429	N	0.563623	-0.276404	0.276113
N430	N	1.063623	0.223596	0.776113
H431	H	0.538037	-0.294637	0.294284
H432	H	1.038037	0.205363	0.794284
H433	H	0.586303	-0.258155	0.296935
H434	H	1.086303	0.241845	0.796935
N435	N	0.686038	-1.051363	0.276235
N436	N	1.186038	-0.551363	0.776235
H437	H	0.664834	-1.029394	0.294412
H438	H	1.164834	-0.529394	0.794412
H439	H	0.707304	-1.070811	0.297048
H440	H	1.207304	-0.570811	0.797048
N441	N	0.825005	-0.156858	1.051734
N442	N	1.325005	0.343142	1.551734
H443	H	0.849218	-0.175115	1.071209
H444	H	1.349218	0.324885	1.571209
H445	H	0.803733	-0.136044	1.071167
H446	H	1.303733	0.363956	1.571167
N447	N	0.686010	-0.953850	0.276235
N448	N	1.186010	-0.453850	0.776235
H449	H	0.664819	-0.975850	0.294413
H450	H	1.164819	-0.475850	0.794413
H451	H	0.661824	-0.934405	0.257923
H452	H	1.161824	-0.434405	0.757923
H453	H	0.661305	-0.688593	0.297332
H454	H	1.161305	-0.188593	0.797332
H455	H	0.694682	-0.472765	0.268605
H456	H	1.194682	0.027235	0.768605
H457	H	0.694648	-0.387643	0.268590
H458	H	1.194648	0.112357	0.768590
