data_functionalizedCrystal
_audit_creation_method	'MofGen! by Chris Wilmer'
_symmetry_space_group_name_H-M	'P1'
_symmetry_Int_Tables_number	1
_symmetry_cell_setting	triclinic
loop_
_symmetry_equiv_pos_as_xyz
  x,y,z
_cell_length_a	12.811438
_cell_length_b	12.811415
_cell_length_c	7.540329
_cell_angle_alpha	84.565547
_cell_angle_beta	95.429713
_cell_angle_gamma	84.560771
loop_
_atom_site_label
_atom_site_type_symbol
_atom_site_fract_x
_atom_site_fract_y
_atom_site_fract_z
O1	O	1.393277	0.141395	0.053902
O2	O	1.087763	0.156763	0.002283
O3	O	1.248206	-0.003680	0.053905
O4	O	1.232834	0.301838	0.002280
O5	O	1.248197	-0.003682	0.348869
O6	O	1.087754	0.156761	0.297246
O7	O	1.393268	0.141393	0.348866
Cu8	Cu	1.240510	0.149077	0.349989
Cu9	Cu	1.240521	0.149079	0.001160
O10	O	1.232825	0.301836	0.297244
C11	C	1.048651	0.155900	0.143612
C12	C	0.932123	0.153319	0.125281
C13	C	0.767884	0.149681	-0.061320
C14	C	0.877373	0.152106	-0.044111
C15	C	0.877377	0.152103	0.277477
C16	C	0.767888	0.149679	0.260269
C17	C	0.713146	0.148469	0.090864
C18	C	0.603654	0.146052	0.073656
C19	C	0.603661	0.146042	0.395244
C20	C	0.713150	0.148467	0.412453
C21	C	1.247340	-0.042789	0.207537
C22	C	1.244760	-0.159318	0.225858
C23	C	1.239905	-0.378276	-0.061324
C24	C	1.237481	-0.487766	-0.044118
C25	C	1.237481	-0.487789	0.277473
C26	C	1.239905	-0.378299	0.260267
C27	C	1.241118	-0.323546	0.090863
C28	C	1.243550	-0.214056	0.073660
C29	C	1.243543	-0.214080	0.395248
C30	C	1.241119	-0.323569	0.412454
C31	C	1.432380	0.142256	0.207533
C32	C	1.548908	0.144837	0.225852
C33	C	1.233691	0.340945	0.143608
C34	C	1.236271	0.457474	0.125275
N35	N	1.240510	0.149074	0.595338
N36	N	1.240530	0.149073	-0.244186
H37	H	0.757737	0.149448	0.550377
H38	H	0.559081	0.145060	0.519163
C39	C	0.899675	0.242985	-0.329239
C40	C	0.937544	0.153447	-0.211394
H41	H	0.936829	0.243814	-0.432510
H42	H	0.826643	0.241358	-0.363725
H43	H	0.909888	0.304509	-0.271407
H44	H	0.927324	0.091924	-0.269222
H45	H	1.010594	0.155065	-0.176909
H46	H	1.236485	-0.532386	0.415392
H47	H	1.244541	-0.169478	-0.064276
C48	C	1.011925	0.064700	0.499692
C49	C	0.937570	0.153429	0.463669
H50	H	1.049091	0.065524	0.614635
H51	H	0.976941	0.002634	0.497391
H52	H	1.060182	0.065778	0.411493
H53	H	0.889309	0.152347	0.551861
H54	H	0.972557	0.215511	0.465985
C55	C	1.150546	-0.333122	-0.357063
C56	C	1.241246	-0.318078	-0.247517
H57	H	1.151375	-0.295951	-0.472006
H58	H	1.148937	-0.406153	-0.368607
H59	H	1.089812	-0.307445	-0.304878
H60	H	1.301980	-0.343762	-0.299696
H61	H	1.242865	-0.245031	-0.235979
C62	C	1.247258	-0.046252	0.511679
C63	C	1.244873	-0.153918	0.562547
H64	H	1.248076	-0.009113	0.614962
H65	H	1.308786	-0.036048	0.453879
H66	H	1.186517	-0.020575	0.431720
H67	H	1.305619	-0.179597	0.642497
H68	H	1.183339	-0.164129	0.620376
H69	H	1.236488	-0.532321	-0.168045
H70	H	0.559083	0.145072	-0.064282
H71	H	1.240127	-0.368163	0.550377
H72	H	0.723310	0.148708	-0.199257
