data_functionalizedCrystal
_audit_creation_method	'MofGen! by Chris Wilmer'
_symmetry_space_group_name_H-M	'P1'
_symmetry_Int_Tables_number	1
_symmetry_cell_setting	triclinic
loop_
_symmetry_equiv_pos_as_xyz
  x,y,z
_cell_length_a	11.026607
_cell_length_b	17.038272
_cell_length_c	9.482900
_cell_angle_alpha	100.012096
_cell_angle_beta	78.636152
_cell_angle_gamma	99.848786
loop_
_atom_site_label
_atom_site_type_symbol
_atom_site_fract_x
_atom_site_fract_y
_atom_site_fract_z
O1	O	1.662374	0.322506	-0.120910
O2	O	2.162374	0.822506	0.379090
O3	O	1.305163	0.284676	-0.120910
O4	O	1.805163	0.784676	0.379090
O5	O	1.481644	0.189477	-0.120899
O6	O	1.981644	0.689477	0.379101
O7	O	1.485893	0.417705	-0.120922
O8	O	1.985893	0.917705	0.379078
O9	O	1.445807	0.208914	0.120891
O10	O	1.945807	0.708914	0.620891
O11	O	1.269325	0.304112	0.120880
O12	O	1.769325	0.804112	0.620880
O13	O	1.626537	0.341943	0.120880
O14	O	2.126537	0.841943	0.620880
Cu15	Cu	1.444659	0.324802	0.142957
Cu16	Cu	1.944659	0.824802	0.642957
Cu17	Cu	1.487041	0.301816	-0.142988
Cu18	Cu	1.987041	0.801816	0.357012
O19	O	1.450056	0.437141	0.120868
O20	O	1.950056	0.937141	0.620868
C21	C	1.241313	0.287415	-0.000015
C22	C	1.741313	0.787415	0.499985
C23	C	1.104451	0.266610	-0.000015
C24	C	1.604451	0.766610	0.499985
C25	C	1.036577	0.324055	-0.000022
C26	C	1.536577	0.824055	0.499978
C27	C	0.895123	0.302554	-0.000021
C28	C	1.395123	0.802554	0.499979
C29	C	1.459863	0.169523	-0.000004
C30	C	1.959863	0.669523	0.499996
C31	C	1.448341	0.081107	-0.000004
C32	C	1.948341	0.581107	0.499996
C33	C	1.554125	0.045899	-0.000003
C34	C	2.054125	0.545899	0.499997
C35	C	1.543294	-0.037179	-0.000016
C36	C	2.043294	0.462821	0.499984
C37	C	1.426676	-0.085048	-0.000021
C38	C	1.926676	0.414952	0.499979
C39	C	1.320885	-0.049835	-0.000027
C40	C	1.820885	0.450165	0.499973
C41	C	1.331719	0.033241	-0.000024
C42	C	1.831719	0.533241	0.499976
C43	C	1.388403	-0.336201	-0.000041
C44	C	1.888403	0.163799	0.499959
C45	C	1.377576	-0.419281	-0.000040
C46	C	1.877576	0.080719	0.499960
C47	C	1.599987	-0.406621	-0.000032
C48	C	2.099987	0.093379	0.499968
C49	C	1.610809	-0.323543	-0.000020
C50	C	2.110809	0.176457	0.499980
C51	C	1.505019	-0.288338	-0.000034
C52	C	2.005019	0.211662	0.499966
C53	C	1.415602	-0.169967	-0.000031
C54	C	1.915602	0.330033	0.499969
C55	C	1.516096	-0.203421	-0.000034
C56	C	2.016096	0.296579	0.499966
C57	C	1.690388	0.339203	-0.000018
C58	C	2.190388	0.839203	0.499982
C59	C	1.827251	0.360008	-0.000028
C60	C	2.327251	0.860008	0.499972
C61	C	1.471837	0.457095	-0.000030
C62	C	1.971837	0.957095	0.499970
C63	C	1.483360	0.545511	-0.000039
C64	C	1.983360	1.045511	0.499961
N65	N	1.414859	0.340969	0.344075
N66	N	1.914859	0.840969	0.844075
N67	N	1.516850	0.285644	-0.344106
N68	N	2.016850	0.785644	0.155894
C69	C	1.478242	0.306580	0.416279
C70	C	1.978242	0.806580	0.916279
C71	C	1.453458	0.320039	0.583695
C72	C	1.953458	0.820039	1.083695
H73	H	1.083189	0.389155	-0.000020
H74	H	1.583189	0.889155	0.499980
F75	F	1.319941	0.392473	0.425272
F76	F	1.819941	0.892473	0.925272
F77	F	1.611986	0.234294	0.574707
F78	F	2.111986	0.734294	1.074707
H79	H	0.873856	0.425112	-0.000025
H80	H	1.373856	0.925112	0.499975
H81	H	0.848520	0.237447	-0.000052
H82	H	1.348520	0.737447	0.499948
F83	F	1.734935	-0.272607	-0.000052
F84	F	2.234935	0.227393	0.499948
F85	F	1.043529	0.181519	0.000003
F86	F	1.543529	0.681519	0.500003
F87	F	1.655884	-0.074646	-0.000012
F88	F	2.155884	0.425354	0.499988
H89	H	1.282604	-0.458253	-0.000021
H90	H	1.782604	0.041747	0.499979
F91	F	1.678244	0.096838	0.000017
F92	F	2.178244	0.596838	0.500017
F93	F	1.572920	0.254901	0.335083
F94	F	2.072920	0.754901	0.835083
H95	H	1.686115	-0.435294	-0.000024
H96	H	2.186115	0.064706	0.499976
F97	F	1.275811	-0.298744	-0.000059
F98	F	1.775811	0.201256	0.499941
F99	F	1.196774	-0.100783	-0.000049
F100	F	1.696774	0.399217	0.499951
H101	H	1.245579	0.061906	-0.000025
H102	H	1.745579	0.561906	0.499975
H103	H	1.611051	-0.164446	-0.000063
H104	H	2.111051	0.335554	0.499937
F105	F	1.358534	0.371545	0.664886
F106	F	1.858534	0.871545	1.164886
F107	F	1.291492	-0.220919	-0.000042
F108	F	1.791492	0.279081	0.499958
