data_functionalizedCrystal
_audit_creation_method	'MofGen! by Chris Wilmer'
_symmetry_space_group_name_H-M	'P1'
_symmetry_Int_Tables_number	1
_symmetry_cell_setting	triclinic
loop_
_symmetry_equiv_pos_as_xyz
  x,y,z
_cell_length_a	17.917603
_cell_length_b	21.606444
_cell_length_c	17.917559
_cell_angle_alpha	63.028702
_cell_angle_beta	90.240464
_cell_angle_gamma	57.014824
loop_
_atom_site_label
_atom_site_type_symbol
_atom_site_fract_x
_atom_site_fract_y
_atom_site_fract_z
Zr1	Zr	0.757820	0.615704	-0.060929
O2	O	0.638399	0.744830	-0.180371
O3	O	0.794427	0.486577	-0.024296
O4	O	0.801539	0.603924	-0.173228
O5	O	0.625679	0.636775	0.086021
O6	O	0.930228	0.594634	-0.167613
O7	O	0.631287	0.627482	-0.031439
O8	O	0.917506	0.384721	0.098799
O9	O	0.638401	0.846689	-0.180391
O10	O	0.906081	0.532756	-0.004503
O11	O	0.805856	0.546624	0.078966
O12	O	0.814229	0.684786	-0.096382
O13	O	0.714005	0.698654	-0.012913
Zr14	Zr	0.954120	0.615708	0.135362
Zr15	Zr	0.963064	0.600887	-0.051974
Zr16	Zr	0.748875	0.630525	0.126407
Zr17	Zr	0.757822	0.778157	-0.060960
Zr18	Zr	0.954117	0.453255	0.135394
O19	O	0.917512	0.744836	0.098730
O20	O	0.930230	0.723762	-0.167638
O21	O	0.625681	0.765903	0.085996
O22	O	1.073540	0.486582	0.254805
O23	O	1.086258	0.465509	-0.011563
O24	O	0.781709	0.507650	0.242072
O25	O	1.086260	0.594637	-0.011588
O26	O	0.910400	0.627488	0.247662
O27	O	0.781711	0.636778	0.242047
O28	O	1.080652	0.603930	0.105873
O29	O	0.801542	0.834911	-0.173273
O30	O	0.910397	0.396501	0.247706
O31	O	1.073538	0.384724	0.254824
O32	O	1.080648	0.372943	0.105917
O33	O	0.631291	0.858469	-0.031484
O34	O	0.794433	0.846692	-0.024366
O35	O	0.897710	0.546626	0.170816
O36	O	0.997934	0.532758	0.087347
O37	O	0.906083	0.684788	-0.004533
O38	O	0.805859	0.698656	0.078937
C39	C	0.855966	0.412503	0.037256
C40	C	0.855965	0.343537	0.037269
C41	C	0.788157	0.367269	-0.030553
C42	C	0.788160	0.302479	-0.030571
C43	C	0.855969	0.213957	0.037237
C44	C	0.923784	0.190224	0.105063
C45	C	0.923784	0.255014	0.105077
C46	C	0.923786	-0.071066	0.105008
C47	C	0.923779	-0.135856	0.104990
C48	C	0.788163	-0.023602	-0.030640
C49	C	0.788163	0.041188	-0.030626
C50	C	0.855980	0.017450	0.037197
C51	C	0.855977	0.087704	0.037215
C52	C	0.855968	0.143704	0.037224
C53	C	0.599240	0.634240	0.026015
C54	C	0.512109	0.640530	0.022213
C55	C	0.352596	0.652020	0.015270
C56	C	0.359336	0.579396	0.059161
C57	C	0.270578	0.585789	0.055298
C58	C	0.441361	0.645629	0.019132
C59	C	1.112699	0.597172	0.048418
C60	C	1.199830	0.590882	0.052220
C61	C	0.867158	0.597168	-0.197112
C62	C	0.870955	0.590876	-0.276641
C63	C	0.855973	0.818910	0.037178
C64	C	0.855974	0.887875	0.037164
C65	C	0.834031	0.652021	-0.503294
C66	C	0.877906	0.579395	-0.422270
C67	C	0.874037	0.585785	-0.341235
C68	C	0.837899	0.645633	-0.584337
C69	C	0.844782	0.634245	0.271546
C70	C	0.840985	0.640536	0.351075
C71	C	1.112695	0.393969	0.048457
C72	C	1.199826	0.318713	0.052272
C73	C	0.844778	0.431041	0.271585
C74	C	0.840980	0.368368	0.351127
C75	C	1.101507	0.412507	0.282786
C76	C	1.184841	0.343544	0.366130
C77	C	0.610432	0.818905	-0.208353
C78	C	0.527098	0.887869	-0.291697
C79	C	0.599244	0.837443	0.025976
C80	C	0.512113	0.912699	0.022161
C81	C	0.867161	0.800371	-0.197151
C82	C	0.870959	0.863045	-0.276694
C83	C	1.192797	0.283371	0.006111
C84	C	1.274658	0.212669	0.009678
C85	C	1.363547	0.177306	0.059412
C86	C	1.370574	0.212655	0.105574
C87	C	1.288714	0.283360	0.102001
C88	C	0.887143	0.338937	0.436434
C89	C	0.883570	0.280058	0.511179
C90	C	0.833840	0.250607	0.500616
C91	C	0.787671	0.280043	0.415301
C92	C	0.791239	0.338926	0.340557
C93	C	1.276300	0.303918	0.361700
C94	C	1.354608	0.239127	0.440004
C95	C	1.341456	0.213959	0.522737
C96	C	1.249988	0.253592	0.527165
C97	C	1.171681	0.318386	0.448862
C98	C	0.435639	0.927502	-0.287267
C99	C	0.357331	0.992313	-0.365571
C100	C	0.370483	1.017485	-0.448304
C101	C	0.461952	0.977848	-0.452732
C102	C	0.540258	0.913043	-0.374429
C103	C	0.519143	0.948047	0.068314
C104	C	0.437283	1.018766	0.064727
C105	C	0.348394	1.054131	0.014991
C106	C	0.341366	1.018779	-0.031168
C107	C	0.423226	0.948066	-0.027585
C108	C	0.920698	0.892477	-0.266103
C109	C	0.924285	0.951357	-0.340833
C110	C	0.878127	0.980807	-0.426154
C111	C	0.828387	0.951368	-0.436744
C112	C	0.824806	0.892485	-0.362014
H113	H	0.732945	-0.004280	-0.085867
H114	H	1.405227	0.161198	0.586490
H115	H	0.830942	0.202661	0.561485
O116	O	1.267649	0.178414	-0.035181
C117	C	1.171638	0.224799	-0.079846
H118	H	1.126284	0.257484	-0.045852
H119	H	1.160101	0.177211	-0.077868
H120	H	1.150892	0.277207	-0.151934
H121	H	0.431765	0.512420	0.099637
H122	H	0.979007	-0.090405	0.160233
O123	O	0.268804	1.122749	0.011538
C124	C	0.212217	1.097927	0.045556
H125	H	0.230401	1.041029	0.040126
H126	H	0.134537	1.156137	0.005759
H127	H	0.225952	1.076544	0.118289
O128	O	0.255063	1.052983	-0.079405
C129	C	0.242944	0.987263	-0.046180
H130	H	0.315037	0.919768	-0.009459
H131	H	0.202515	0.995751	-0.103742
H132	H	0.201482	0.993126	0.001526
O133	O	0.268468	1.030938	-0.361302
C134	C	0.220031	1.122171	-0.403999
H135	H	0.273312	1.135807	-0.405137
H136	H	0.172887	1.147184	-0.366333
H137	H	0.174728	1.157296	-0.475049
O138	O	0.783564	0.980102	-0.519692
C139	C	0.797413	1.038371	-0.583368
H140	H	0.814499	1.067660	-0.553425
H141	H	0.730390	1.093380	-0.644048
H142	H	0.858547	1.001192	-0.604122
O143	O	1.443124	0.108542	0.063046
C144	C	1.493827	0.036452	0.152031
H145	H	1.473688	0.061040	0.198470
H146	H	1.572830	0.000030	0.164165
H147	H	1.475964	-0.010007	0.165414
O148	O	0.926101	0.499564	-0.412271
C149	C	0.919180	0.510884	-0.496590
H150	H	0.853781	0.580075	-0.548978
H151	H	0.913371	0.460710	-0.496055
H152	H	0.984791	0.501021	-0.512921
O153	O	1.106429	0.317648	-0.042067
C154	C	1.053254	0.310114	0.014473
H155	H	1.103079	0.254937	0.085742
H156	H	1.008933	0.294656	-0.007342
H157	H	1.004754	0.374656	0.010740
H158	H	0.881050	1.028753	-0.486997
H159	H	0.979000	-0.207938	0.160211
O160	O	1.456868	0.178287	0.154017
C161	C	1.463110	0.147078	0.243809
H162	H	1.389060	0.182278	0.248077
H163	H	1.504862	0.160361	0.273738
H164	H	1.500456	0.073359	0.282221
H165	H	0.306713	1.070254	-0.512056
O166	O	0.474552	1.002376	-0.533175
C167	C	0.385817	1.068085	-0.601327
H168	H	0.330172	1.063660	-0.574551
H169	H	0.389447	1.058209	-0.658915
H170	H	0.366080	1.135517	-0.625625
O171	O	0.722246	0.453214	-0.096511
C172	C	0.662385	0.460265	-0.156364
H173	H	0.700435	0.395116	-0.151623
H174	H	0.642825	0.514389	-0.226997
H175	H	0.595490	0.476991	-0.138873
O176	O	0.928493	0.251313	0.594098
C177	C	0.996671	0.159073	0.643148
H178	H	0.976954	0.130849	0.613714
H179	H	0.999314	0.130757	0.715335
H180	H	1.068875	0.141025	0.640059
O181	O	0.965476	0.864025	-0.183276
C182	C	0.928154	0.936590	-0.175311
H183	H	0.894654	0.998743	-0.244191
H184	H	0.987296	0.925515	-0.133344
H185	H	0.872333	0.944189	-0.141955
H186	H	0.793566	0.718991	-0.511802
H187	H	0.964787	0.975320	-0.332194
H188	H	0.784299	0.868528	-0.370650
O189	O	0.629036	0.874599	-0.378898
C190	C	0.623840	0.910733	-0.468715
H191	H	0.552675	0.939567	-0.511746
H192	H	0.683035	0.857069	-0.476577
H193	H	0.631608	0.964782	-0.490448
O194	O	1.082821	0.357003	0.453128
C195	C	1.034368	0.448240	0.410414
H196	H	1.087638	0.461889	0.409262
H197	H	0.987221	0.473256	0.448076
H198	H	0.989067	0.483349	0.339368
H199	H	0.424912	0.907012	-0.219909
O200	O	0.722107	0.325546	-0.096287
C201	C	0.668360	0.298327	-0.058817
H202	H	0.710807	0.242074	0.013810
H203	H	0.650583	0.275131	-0.096873
H204	H	0.600231	0.355765	-0.063087
H205	H	1.294450	0.312127	0.139597
O206	O	0.739460	0.251297	0.405208
C207	C	0.746210	0.193024	0.489478
H208	H	0.811543	0.163748	0.541957
H209	H	0.752027	0.138005	0.488939
H210	H	0.680522	0.230195	0.505680
H211	H	0.978998	0.118143	0.160270
H212	H	0.732943	0.113265	-0.085839
O213	O	1.443502	0.200489	0.435812
C214	C	1.491937	0.109258	0.478499
H215	H	1.458255	0.088050	0.528074
H216	H	1.569137	0.072635	0.515114
H217	H	1.487584	0.093315	0.426831
O218	O	0.605427	0.913700	0.116755
C219	C	0.611663	0.882515	0.206543
H220	H	0.537610	0.917704	0.210807
H221	H	0.653388	0.895835	0.236447
H222	H	0.649035	0.808790	0.244979
H223	H	0.280172	0.718991	-0.025204
O224	O	1.289013	0.328475	0.281306
C225	C	1.246899	0.418830	0.233356
H226	H	1.189705	0.452646	0.259393
H227	H	1.214036	0.449299	0.159851
H228	H	1.302898	0.427608	0.242050
H229	H	0.979000	0.235685	0.160304
O230	O	1.237387	0.229003	0.607608
C231	C	1.326122	0.163329	0.675760
H232	H	1.381766	0.128789	0.648991
H233	H	1.322490	0.113421	0.733358
H234	H	1.345862	0.194670	0.700042
O235	O	0.935449	0.367492	0.446863
C236	C	0.975432	0.328871	0.538191
H237	H	0.934210	0.308154	0.576327
H238	H	0.972217	0.378509	0.548474
H239	H	1.052198	0.268722	0.563623
O240	O	0.416560	0.913642	-0.072387
C241	C	0.507863	0.843625	-0.058546
H242	H	0.561342	0.851668	-0.039343
H243	H	0.509983	0.843906	-0.122274
H244	H	0.526093	0.778684	-0.002831
O245	O	0.746527	0.367357	0.257717
C246	C	0.783839	0.294768	0.249798
H247	H	0.857994	0.237927	0.300462
H248	H	0.787050	0.313946	0.179892
H249	H	0.736648	0.273732	0.262634
H250	H	0.443023	1.047538	0.102319
