data_functionalizedCrystal
_audit_creation_method	'MofGen! by Chris Wilmer'
_symmetry_space_group_name_H-M	'P1'
_symmetry_Int_Tables_number	1
_symmetry_cell_setting	triclinic
loop_
_symmetry_equiv_pos_as_xyz
  x,y,z
_cell_length_a	23.196402
_cell_length_b	18.760492
_cell_length_c	23.196401
_cell_angle_alpha	60.005898
_cell_angle_beta	90.011712
_cell_angle_gamma	59.998455
loop_
_atom_site_label
_atom_site_type_symbol
_atom_site_fract_x
_atom_site_fract_y
_atom_site_fract_z
Zr1	Zr	0.555321	0.780265	-0.075697
O2	O	0.463245	0.928977	-0.167750
O3	O	0.583551	0.631552	-0.047475
O4	O	0.583517	0.780267	-0.167750
O5	O	0.463300	0.780261	0.047396
O6	O	0.678387	0.780269	-0.167753
O7	O	0.463278	0.780263	-0.047475
O8	O	0.678447	0.514245	0.047397
O9	O	0.463241	1.046284	-0.167754
O10	O	0.666387	0.692721	-0.035445
O11	O	0.595603	0.692719	0.035359
O12	O	0.595564	0.867811	-0.106249
O13	O	0.524781	0.867808	-0.035445
Zr14	Zr	0.706664	0.780265	0.075606
Zr15	Zr	0.706628	0.780268	-0.075702
Zr16	Zr	0.555357	0.780262	0.075612
Zr17	Zr	0.555316	0.967356	-0.075703
Zr18	Zr	0.706669	0.593174	0.075612
O19	O	0.678435	0.928977	0.047384
O20	O	0.678383	0.928982	-0.167758
O21	O	0.463296	0.928973	0.047392
O22	O	0.798740	0.631552	0.167659
O23	O	0.798689	0.631556	-0.047482
O24	O	0.583602	0.631548	0.167667
O25	O	0.798685	0.780269	-0.047487
O26	O	0.678468	0.780263	0.167659
O27	O	0.583598	0.780261	0.167662
O28	O	0.798707	0.780267	0.047384
O29	O	0.583510	1.046287	-0.167758
O30	O	0.678475	0.514243	0.167667
O31	O	0.798744	0.514245	0.167663
O32	O	0.798715	0.514248	0.047392
O33	O	0.463270	1.046282	-0.047483
O34	O	0.583539	1.046284	-0.047487
O35	O	0.666421	0.692719	0.106158
O36	O	0.737204	0.692721	0.035354
O37	O	0.666382	0.867811	-0.035450
O38	O	0.595598	0.867808	0.035354
C39	C	0.630999	0.546242	-0.000038
C40	C	0.631002	0.466817	-0.000036
C41	C	0.441731	0.780261	-0.000039
C42	C	0.377497	0.780260	-0.000037
C43	C	0.594035	0.131021	0.036907
C44	C	0.667934	0.131029	-0.037013
C45	C	0.667940	0.205644	-0.037009
C46	C	0.630991	0.242953	-0.000047
C47	C	0.594038	0.205646	0.036911
C48	C	0.704887	0.242964	-0.073972
C49	C	0.704893	0.317585	-0.073970
C50	C	0.667948	0.354889	-0.037004
C51	C	0.630994	0.317577	-0.000044
C52	C	0.594045	0.354886	0.036918
C53	C	0.557095	0.317570	0.073883
C54	C	0.557093	0.242950	0.073878
C55	C	0.667950	0.429509	-0.036998
C56	C	0.594048	0.429510	0.036922
C57	C	0.384291	0.688868	0.036916
C58	C	0.323937	0.688866	0.036919
C59	C	0.256789	0.780263	-0.000044
C60	C	0.249998	0.871667	-0.036998
C61	C	0.310352	0.871666	-0.036994
C62	C	0.132843	0.850285	-0.061958
C63	C	0.072492	0.850283	-0.061963
C64	C	0.070635	0.780270	-0.000055
C65	C	0.129145	0.710243	0.061858
C66	C	0.189499	0.710242	0.061862
C67	C	0.191341	0.780274	-0.000052
C68	C	0.011988	0.688870	0.036903
C69	C	-0.048369	0.688873	0.036908
C70	C	-0.122307	0.871676	-0.037016
C71	C	-0.061950	0.871671	-0.037014
C72	C	0.005195	0.780265	-0.000056
C73	C	0.820254	0.780268	-0.000052
C74	C	0.884488	0.780270	-0.000054
C75	C	0.630947	0.780268	-0.189310
C76	C	0.630932	0.780270	-0.253544
C77	C	0.630986	1.014287	-0.000052
C78	C	0.630983	1.093713	-0.000055
C79	C	0.593967	0.871662	-0.320676
C80	C	0.593985	0.871663	-0.381032
C81	C	0.630958	0.780267	-0.374251
C82	C	0.667931	0.688863	-0.307106
C83	C	0.667918	0.688864	-0.246753
C84	C	0.625710	0.710244	-0.441565
C85	C	0.625718	0.710247	-0.501919
C86	C	0.631003	0.780260	-0.560398
C87	C	0.636265	0.850286	-0.558523
C88	C	0.636252	0.850288	-0.498170
C89	C	0.630977	0.780256	-0.439689
C90	C	0.594055	0.871660	-0.692977
C91	C	0.594078	0.871657	-0.753332
C92	C	0.668020	0.688854	-0.679404
C93	C	0.668002	0.688859	-0.619052
C94	C	0.631016	0.780265	-0.625843
C95	C	0.631038	0.780261	0.189219
C96	C	0.631053	0.780260	0.253454
C97	C	0.820261	0.546246	-0.000045
C98	C	0.884497	0.466822	-0.000045
C99	C	0.631045	0.546239	0.189226
C100	C	0.631062	0.466812	0.253463
C101	C	0.820306	0.546242	0.189219
C102	C	0.884557	0.466817	0.253454
C103	C	0.441679	1.014287	-0.189310
C104	C	0.377428	1.093713	-0.253545
C105	C	0.441724	1.014284	-0.000046
C106	C	0.377488	1.093708	-0.000046
C107	C	0.630940	1.014291	-0.189317
C108	C	0.630923	1.093717	-0.253554
C109	C	0.877697	0.429524	-0.037007
C110	C	0.938047	0.354907	-0.037021
C111	C	1.005197	0.317585	-0.000068
C112	C	1.011996	0.354890	0.036895
C113	C	0.951646	0.429511	0.036905
C114	C	0.668036	0.429513	0.320592
C115	C	0.668050	0.354894	0.380955
C116	C	0.631094	0.317571	0.374188
C117	C	0.594115	0.354877	0.307052
C118	C	0.594097	0.429500	0.246690
C119	C	0.951685	0.429520	0.246661
C120	C	1.012062	0.354902	0.307010
C121	C	1.005309	0.317578	0.374153
C122	C	0.938174	0.354882	0.380945
C123	C	0.877799	0.429504	0.320596
C124	C	0.310300	1.131019	-0.246751
C125	C	0.249923	1.205660	-0.307101
C126	C	0.256676	1.242988	-0.374243
C127	C	0.323811	1.205679	-0.381036
C128	C	0.384186	1.131044	-0.320687
C129	C	0.384288	1.131014	0.036910
C130	C	0.323938	1.205651	0.036908
C131	C	0.256788	1.242976	-0.000048
C132	C	0.249989	1.205667	-0.037008
C133	C	0.310339	1.131036	-0.037010
C134	C	0.667887	1.131017	-0.246764
C135	C	0.667884	1.205637	-0.307115
C136	C	0.630913	1.242960	-0.374256
C137	C	0.593948	1.205653	-0.381045
C138	C	0.593955	1.131030	-0.320694
H139	H	0.527008	0.347961	0.103974
H140	H	0.698020	0.614439	-0.192089
O141	O	0.631132	0.237067	0.439299
H142	H	0.608025	0.265707	0.471173
O143	O	1.084471	0.314685	0.299689
H144	H	1.113768	0.232357	0.325432
H145	H	0.563961	0.459880	0.067023
H146	H	0.527010	0.212561	0.103973
H147	H	0.207653	1.303745	-0.000041
H148	H	0.195323	0.946082	-0.067093
H149	H	0.304792	1.100663	-0.067102
O150	O	0.958981	0.469778	0.174248
H151	H	0.988300	0.407135	0.168109
H152	H	0.734965	0.212590	-0.104070
H153	H	0.024858	0.907300	-0.112378
O154	O	0.456580	1.090836	-0.328038
H155	H	0.485850	1.105172	-0.302323
O156	O	0.744748	0.357827	-0.113833
H157	H	0.770442	0.319343	-0.139532
O158	O	0.554177	0.090787	0.076771
H159	H	0.560377	0.032634	0.070559
O160	O	1.070431	0.237081	0.439242
H161	H	1.118241	0.217413	0.423231
H162	H	0.932687	0.324482	0.435620
O163	O	0.707799	0.469759	-0.076861
H164	H	0.733491	0.431278	-0.102562
H165	H	1.054332	0.256823	-0.000081
H166	H	0.698012	0.100655	-0.067111
O167	O	0.134845	0.925798	-0.128735
H168	H	0.084028	0.974478	-0.171789
H169	H	0.697993	1.100640	-0.192100
O170	O	0.554213	0.970236	-0.825744
H171	H	0.513378	0.974600	-0.855030
H172	H	0.195307	1.236068	-0.067096
H173	H	0.697984	1.236004	-0.301574
O174	O	0.805397	0.469709	0.327927
H175	H	0.810852	0.431201	0.384755
H176	H	0.563882	0.946088	-0.435701
O177	O	0.554076	0.970249	-0.328004
H178	H	0.591377	0.974628	-0.302258
O179	O	0.707901	0.469755	0.327906
H180	H	0.701690	0.527907	0.274660
H181	H	1.066678	0.324492	0.066981
O182	O	0.630897	1.323460	-0.439348
H183	H	0.662806	1.343130	-0.423340
O184	O	0.554064	1.245923	-0.453463
H185	H	0.560266	1.304089	-0.494282
H186	H	0.563852	1.100669	-0.326232
O187	O	0.303009	1.090771	-0.174337
H188	H	0.246183	1.129272	-0.179763
H189	H	0.438960	0.614438	0.067005
O190	O	0.252599	0.634724	0.128638
H191	H	0.299212	0.587445	0.119426
O192	O	0.331253	0.590291	0.076767
H193	H	0.388082	0.526732	0.102462
O194	O	0.554271	0.314592	0.299772
H195	H	0.497453	0.377212	0.270476
O196	O	0.177519	1.245876	-0.299768
H197	H	0.182973	1.207358	-0.242940
O198	O	0.707881	0.590281	-0.546642
H199	H	0.701670	0.605635	-0.505814
H200	H	0.127643	0.653216	0.112265
O201	O	0.191548	1.323492	-0.439327
H202	H	0.191566	1.294869	-0.471206
H203	H	0.563991	0.459859	0.192033
H204	H	0.329300	1.236081	-0.435710
H205	H	0.066661	0.614442	0.067012
O206	O	0.958984	0.469723	0.076786
H207	H	1.015818	0.431219	0.102485
H208	H	-0.042831	0.614447	0.067004
H209	H	0.438960	1.100630	0.067008
O210	O	0.620037	0.634687	-0.378493
H211	H	0.667498	0.587407	-0.331880
H212	H	-0.176979	0.946092	-0.067112
H213	H	0.329487	1.236016	0.067008
H214	H	0.304816	0.946091	-0.067084
O215	O	-0.069271	0.970244	-0.076881
H216	H	-0.126101	1.033800	-0.102589
O217	O	0.641943	0.925796	-0.496141
H218	H	0.596777	1.003301	-0.539072
O219	O	0.641972	0.925803	-0.621588
H220	H	0.641108	0.914032	-0.663867
H221	H	0.563940	0.946088	-0.698507
O222	O	0.707814	0.590292	-0.299800
H223	H	0.764620	0.546481	-0.270488
O224	O	0.707899	0.590271	-0.672078
H225	H	0.701696	0.605623	-0.725324
H226	H	0.621430	0.653231	-0.503441
H227	H	0.823025	0.459911	-0.067108
O228	O	0.930707	0.314670	-0.076884
H229	H	0.873874	0.353149	-0.102565
H230	H	0.698165	0.324527	0.435614
