data_functionalizedCrystal
_audit_creation_method	'MofGen! by Chris Wilmer'
_symmetry_space_group_name_H-M	'P1'
_symmetry_Int_Tables_number	1
_symmetry_cell_setting	triclinic
loop_
_symmetry_equiv_pos_as_xyz
  x,y,z
_cell_length_a	17.639617
_cell_length_b	19.121747
_cell_length_c	17.640968
_cell_angle_alpha	99.308065
_cell_angle_beta	109.666032
_cell_angle_gamma	99.295293
loop_
_atom_site_label
_atom_site_type_symbol
_atom_site_fract_x
_atom_site_fract_y
_atom_site_fract_z
Zn1	Zn	1.348930	0.090932	0.715776
Zn2	Zn	1.848930	0.590932	1.215776
Zn3	Zn	1.329609	-0.053187	0.586599
Zn4	Zn	1.829609	0.446813	1.086599
Zn5	Zn	1.186715	0.032671	0.553550
Zn6	Zn	1.686715	0.532671	1.053550
Zn7	Zn	1.219694	-0.053120	0.696478
Zn8	Zn	1.719694	0.446880	1.196478
O9	O	1.271237	0.004324	0.638101
O10	O	1.771237	0.504324	1.138101
O11	O	1.460254	0.096169	0.720548
O12	O	1.960254	0.596169	1.220548
O13	O	1.288766	-0.066208	0.468339
O14	O	1.788766	0.433792	0.968339
O15	O	1.202517	0.136617	0.569315
O16	O	1.702517	0.636617	1.069315
O17	O	1.446059	-0.009715	0.625642
O18	O	1.946059	0.490285	1.125642
O19	O	1.321696	0.179421	0.688502
O20	O	1.821696	0.679421	1.188502
O21	O	1.183782	-0.003129	0.444058
O22	O	1.683782	0.496871	0.944058
O23	O	1.077203	-0.003064	0.550603
O24	O	1.577203	0.496936	1.050603
O25	O	1.258725	-0.009601	0.812914
O26	O	1.758725	0.490399	1.312914
O27	O	1.101432	-0.066094	0.655611
O28	O	1.601432	0.433906	1.155611
O29	O	1.353674	0.096234	0.827093
O30	O	1.853674	0.596234	1.327093
O31	O	1.320744	-0.149396	0.606929
O32	O	1.820744	0.350604	1.106929
O33	O	1.239990	-0.149347	0.687657
O34	O	1.739990	0.350653	1.187657
C35	C	1.059788	-0.040894	0.597427
C36	C	1.559788	0.459106	1.097427
C37	C	0.969334	-0.060251	0.580047
C38	C	1.469334	0.439749	1.080047
C39	C	0.708859	0.151435	0.770338
C40	C	1.208859	0.651435	1.270338
C41	C	0.623862	0.133225	0.753991
C42	C	1.123862	0.633225	1.253991
C43	C	0.609065	0.023082	0.655007
C44	C	1.109065	0.523082	1.155007
C45	C	0.694063	0.041281	0.671348
C46	C	1.194063	0.541281	1.171348
C47	C	0.743954	0.105458	0.729014
C48	C	1.243954	0.605458	1.229014
C49	C	0.729158	-0.004695	0.630024
C50	C	1.229158	0.495305	1.130024
C51	C	0.814149	0.013504	0.646361
C52	C	1.314149	0.513504	1.146361
C53	C	0.864044	0.077679	0.704023
C54	C	1.364044	0.577679	1.204023
C55	C	0.828945	0.123658	0.745351
C56	C	1.328945	0.623658	1.245351
C57	C	0.679265	-0.068870	0.572355
C58	C	1.179265	0.431130	1.072355
C59	C	0.714360	-0.114846	0.531031
C60	C	1.214360	0.385154	1.031031
C61	C	0.799353	-0.096650	0.547372
C62	C	1.299353	0.403350	1.047372
C63	C	0.849248	-0.032474	0.605033
C64	C	1.349248	0.467526	1.105033
C65	C	0.834452	-0.142628	0.506044
C66	C	1.334452	0.357372	1.006044
C67	C	0.919443	-0.124429	0.522381
C68	C	1.419443	0.375571	1.022381
C69	C	0.934239	-0.014275	0.621370
C70	C	1.434239	0.485725	1.121370
C71	C	1.281875	-0.174311	0.648807
C72	C	1.781875	0.325689	1.148807
C73	C	1.286505	-0.250711	0.653429
C74	C	1.786505	0.249289	1.153429
C75	C	1.315873	-0.681670	0.682712
C76	C	1.815873	-0.181670	1.182712
C77	C	1.311512	-0.609889	0.678360
C78	C	1.811512	-0.109889	1.178360
C79	C	1.247317	-0.596349	0.614104
C80	C	1.747317	-0.096349	1.114104
C81	C	1.187483	-0.654595	0.554190
C82	C	1.687483	-0.154595	1.054190
C83	C	1.191848	-0.726375	0.558539
C84	C	1.691848	-0.226375	1.058539
C85	C	1.231037	-0.380737	0.597864
C86	C	1.731037	0.119263	1.097864
C87	C	1.226675	-0.308950	0.593521
C88	C	1.726675	0.191050	1.093521
C89	C	1.350705	-0.264249	0.717691
C90	C	1.850705	0.235751	1.217691
C91	C	1.355062	-0.336032	0.722037
C92	C	1.855062	0.163968	1.222037
C93	C	1.295231	-0.394273	0.662121
C94	C	1.795231	0.105727	1.162121
C95	C	1.242856	-0.522977	0.609656
C96	C	1.742856	-0.022977	1.109656
C97	C	1.299696	-0.467643	0.666566
C98	C	1.799696	0.032357	1.166566
C99	C	1.483512	0.049718	0.678934
C100	C	1.983512	0.549718	1.178934
C101	C	1.573970	0.069063	0.696335
C102	C	2.073970	0.569063	1.196335
C103	C	1.312034	0.049823	0.850356
C104	C	1.812034	0.549823	1.350356
C105	C	1.329419	0.069212	0.940807
C106	C	1.829419	0.569212	1.440807
C107	C	1.260583	0.183665	0.627375
C108	C	1.760583	0.683665	1.127375
C109	C	1.256043	0.260090	0.622804
C110	C	1.756043	0.760090	1.122804
C111	C	1.230643	-0.040939	0.426677
C112	C	1.730643	0.459061	0.926677
C113	C	1.213404	-0.060100	0.336246
C114	C	1.713404	0.439900	0.836246
C115	C	1.139453	-0.142531	1.201384
C116	C	1.639453	0.357469	1.701384
C117	C	1.155806	-0.124300	1.286379
C118	C	1.655806	0.375700	1.786379
C119	C	1.254668	-0.014104	1.301131
C120	C	1.754668	0.485896	1.801131
C121	C	1.238321	-0.032324	1.216135
C122	C	1.738321	0.467676	1.716135
C123	C	1.180713	-0.096539	1.166268
C124	C	1.680713	0.403461	1.666268
C125	C	1.279581	0.013668	1.181019
C126	C	1.779581	0.513668	1.681019
C127	C	1.263238	-0.004553	1.096031
C128	C	1.763238	0.495447	1.596031
C129	C	1.205635	-0.068766	1.046159
C130	C	1.705635	0.431234	1.546159
C131	C	1.164370	-0.114760	1.081280
C132	C	1.664370	0.385240	1.581280
C133	C	1.337192	0.077880	1.230889
C134	C	1.837192	0.577880	1.730889
C135	C	1.378452	0.123872	1.195773
C136	C	1.878452	0.623872	1.695773
C137	C	1.362105	0.105654	1.110782
C138	C	1.862105	0.605654	1.610782
C139	C	1.304502	0.041441	1.060910
C140	C	1.804502	0.541441	1.560910
C141	C	1.403369	0.151648	1.075662
C142	C	1.903369	0.651648	1.575662
C143	C	1.387026	0.133427	0.990674
C144	C	1.887026	0.633427	1.490674
C145	C	1.288159	0.023220	0.975923
C146	C	1.788159	0.523220	1.475923
H147	H	0.595291	0.170672	0.787642
H148	H	1.095291	0.670672	1.287642
H149	H	1.241229	-0.029058	0.935313
H150	H	1.741229	0.470942	1.435313
O151	O	1.415246	-0.201435	0.782303
O152	O	1.915246	0.298565	1.282303
H153	H	1.384762	-0.167669	0.814686
H154	H	1.884762	0.332331	1.314686
O155	O	0.955712	0.097316	0.721634
O156	O	1.455712	0.597316	1.221634
H157	H	0.984504	0.149670	0.768666
H158	H	1.484504	0.649670	1.268666
H159	H	0.673727	-0.167098	0.484077
H160	H	1.173727	0.332902	0.984077
O161	O	1.424306	-0.350630	0.791343
O162	O	1.924306	0.149370	1.291343
H163	H	1.417285	-0.410328	0.784306
H164	H	1.917285	0.089672	1.284306
H165	H	1.192333	-0.083602	0.976958
H166	H	1.692333	0.416398	1.476958
H167	H	1.092523	-0.194809	1.160774
H168	H	1.592523	0.305191	1.660774
O169	O	0.762678	0.220653	0.832539
O170	O	1.262678	0.720653	1.332539
H171	H	0.792314	0.256173	0.801524
H172	H	1.292314	0.756173	1.301524
O173	O	0.780638	-0.211842	0.443843
O174	O	1.280638	0.288158	0.943843
H175	H	0.715643	-0.216773	0.439425
H176	H	1.215643	0.283227	0.939425
O177	O	0.957306	-0.174016	0.477818
O178	O	1.457306	0.325984	0.977818
H179	H	0.908337	-0.221704	0.434982
H180	H	1.408337	0.278296	0.934982
H181	H	1.117440	-0.167038	1.040670
H182	H	1.617440	0.332962	1.540670
O183	O	1.354814	0.097536	1.322554
O184	O	1.854814	0.597536	1.822554
H185	H	1.421330	0.101562	1.357600
H186	H	1.921330	0.601562	1.857600
H187	H	1.425358	0.176154	1.236386
H188	H	1.925358	0.676154	1.736386
H189	H	1.174395	-0.297933	0.541193
H190	H	1.674395	0.202067	1.041193
H191	H	1.368142	-0.692687	0.735043
H192	H	1.868142	-0.192687	1.235043
O193	O	1.111296	-0.173905	1.324256
O194	O	1.611296	0.326095	1.824256
H195	H	1.068490	-0.221614	1.275298
H196	H	1.568490	0.278386	1.775298
O197	O	1.376061	-0.547070	0.742956
O198	O	1.876061	-0.047070	1.242956
H199	H	1.421434	-0.568545	0.788367
H200	H	1.921434	-0.068545	1.288367
H201	H	0.869570	0.175916	0.792311
H202	H	1.369570	0.675916	1.292311
O203	O	0.555254	-0.046136	0.592811
O204	O	1.055254	0.453864	1.092811
H205	H	0.490258	-0.051070	0.588394
H206	H	0.990258	0.448930	1.088394
O207	O	1.166503	-0.443549	0.533249
O208	O	1.666503	0.056451	1.033249
H209	H	1.121127	-0.422071	0.487845
H210	H	1.621127	0.077929	0.987845
H211	H	0.610056	-0.083674	0.559036
H212	H	1.110056	0.416326	1.059036
O213	O	1.118241	-0.639998	0.484882
O214	O	1.618241	-0.139998	0.984882
H215	H	1.125251	-0.580300	0.491926
H216	H	1.625251	-0.080300	0.991926
H217	H	1.143128	-0.773796	0.509756
H218	H	1.643128	-0.273796	1.009756
H219	H	0.974864	0.037983	0.668331
H220	H	1.474864	0.537983	1.168331
O221	O	1.368936	-0.482242	0.735870
O222	O	1.868936	0.017758	1.235870
H223	H	1.366363	-0.457760	0.796197
H224	H	1.866363	0.042240	1.296197
O225	O	1.316777	0.055169	1.354911
O226	O	1.816777	0.555169	1.854911
H227	H	1.321199	0.060121	1.419906
H228	H	1.821199	0.560121	1.919906
H229	H	1.450279	0.203928	1.116277
H230	H	1.950279	0.703928	1.616277
H231	H	1.190585	-0.511947	0.557338
H232	H	1.690585	-0.011947	1.057338
H233	H	1.420623	0.170879	0.962082
H234	H	1.920623	0.670879	1.462082
