data_functionalizedCrystal
_audit_creation_method	'MofGen! by Chris Wilmer'
_symmetry_space_group_name_H-M	'P1'
_symmetry_Int_Tables_number	1
_symmetry_cell_setting	triclinic
loop_
_symmetry_equiv_pos_as_xyz
  x,y,z
_cell_length_a	19.121275
_cell_length_b	19.121063
_cell_length_c	19.076919
_cell_angle_alpha	85.393653
_cell_angle_beta	85.183632
_cell_angle_gamma	89.926756
loop_
_atom_site_label
_atom_site_type_symbol
_atom_site_fract_x
_atom_site_fract_y
_atom_site_fract_z
Zn1	Zn	1.044451	-0.338911	0.367732
Zn2	Zn	1.377784	-0.005577	0.701066
Zn3	Zn	1.711117	0.327756	1.034399
Zn4	Zn	1.044071	-0.451822	0.254874
Zn5	Zn	1.377405	-0.118489	0.588207
Zn6	Zn	1.710738	0.214844	0.921540
Zn7	Zn	0.931949	-0.329592	0.254466
Zn8	Zn	1.265282	0.003741	0.587800
Zn9	Zn	1.598615	0.337075	0.921133
Zn10	Zn	0.921762	-0.451495	0.377748
Zn11	Zn	1.255095	-0.118162	0.711081
Zn12	Zn	1.588428	0.215171	1.044414
O13	O	0.985558	-0.392955	0.313705
O14	O	1.318891	-0.059622	0.647038
O15	O	1.652225	0.273712	0.980372
O16	O	1.142670	-0.357925	0.348740
O17	O	1.476003	-0.024592	0.682074
O18	O	1.809337	0.308741	1.015407
O19	O	1.033302	-0.431845	0.155994
O20	O	1.366636	-0.098512	0.489328
O21	O	1.699969	0.234821	0.822661
O22	O	0.951294	-0.232557	0.265129
O23	O	1.284628	0.100776	0.598463
O24	O	1.617961	0.434110	0.931796
O25	O	1.142391	-0.440881	0.265824
O26	O	1.475724	-0.107548	0.599157
O27	O	1.809058	0.225785	0.932490
O28	O	1.033949	-0.239403	0.348345
O29	O	1.367283	0.093930	0.681679
O30	O	1.700616	0.427263	1.015012
O31	O	0.950926	-0.342043	0.155695
O32	O	1.284260	-0.008710	0.489029
O33	O	1.617593	0.324624	0.822362
O34	O	0.832328	-0.341726	0.274841
O35	O	1.165661	-0.008393	0.608174
O36	O	1.498995	0.324941	0.941508
O37	O	0.933932	-0.440324	0.475244
O38	O	1.267266	-0.106990	0.808578
O39	O	1.600599	0.226343	1.141911
O40	O	0.824844	-0.431288	0.365415
O41	O	1.158177	-0.097954	0.698748
O42	O	1.491510	0.235379	1.032082
O43	O	1.024071	-0.357608	0.467886
O44	O	1.357405	-0.024275	0.801219
O45	O	1.690738	0.309058	1.134553
O46	O	1.023425	-0.550050	0.275535
O47	O	1.356758	-0.216717	0.608868
O48	O	1.690091	0.116617	0.942202
O49	O	0.933564	-0.549810	0.365810
O50	O	1.266898	-0.216476	0.699143
O51	O	1.600231	0.116857	1.032477
C52	C	0.803106	-0.385461	0.321171
C53	C	1.136439	-0.052127	0.654504
C54	C	1.469772	0.281206	0.987838
C55	C	0.725050	-0.382272	0.324383
C56	C	1.058383	-0.048939	0.657716
C57	C	1.391717	0.284395	0.991049
C58	C	0.688237	-0.423889	0.282651
C59	C	1.021571	-0.090556	0.615984
C60	C	1.354904	0.242777	0.949317
C61	C	0.614896	-0.420894	0.285678
C62	C	0.948229	-0.087560	0.619011
C63	C	1.281562	0.245773	0.952344
C64	C	0.578368	-0.376277	0.330433
C65	C	0.911701	-0.042944	0.663766
C66	C	1.245035	0.290390	0.997100
C67	C	0.615186	-0.334658	0.372170
C68	C	0.948519	-0.001325	0.705503
C69	C	1.281852	0.332008	1.038836
C70	C	0.688526	-0.337658	0.369146
C71	C	1.021859	-0.004325	0.702479
C72	C	1.355193	0.329009	1.035813
C73	C	0.356935	-0.365067	0.341729
C74	C	0.690268	-0.031733	0.675063
C75	C	1.023602	0.301600	1.008396
C76	C	0.283590	-0.362068	0.344748
C77	C	0.616923	-0.028735	0.678082
C78	C	0.950256	0.304598	1.011415
C79	C	0.283305	-0.448305	0.258257
C80	C	0.616638	-0.114972	0.591590
C81	C	0.949971	0.218361	0.924923
C82	C	0.356647	-0.451298	0.255234
C83	C	0.689980	-0.117964	0.588567
C84	C	1.023313	0.215369	0.921901
C85	C	0.393458	-0.409682	0.296973
C86	C	0.726791	-0.076348	0.630306
C87	C	1.060124	0.256985	0.963640
C88	C	0.503401	-0.373213	0.333526
C89	C	0.836734	-0.039879	0.666860
C90	C	1.170068	0.293454	1.000193
C91	C	0.468423	-0.412750	0.293883
C92	C	0.801756	-0.079417	0.627216
C93	C	1.135090	0.253916	0.960550
C94	C	0.977366	-0.575412	0.321818
C95	C	1.310700	-0.242079	0.655151
C96	C	1.644033	0.091255	0.988485
C97	C	0.973925	-0.653471	0.325310
C98	C	1.307258	-0.320138	0.658643
C99	C	1.640592	0.013195	0.991977
C100	C	1.019127	-0.690248	0.279985
C101	C	1.352460	-0.356915	0.613318
C102	C	1.685794	-0.023582	0.946652
C103	C	1.015895	-0.763594	0.283273
C104	C	1.349228	-0.430260	0.616606
C105	C	1.682561	-0.096927	0.949940
C106	C	0.967456	-0.800160	0.331883
C107	C	1.300790	-0.466827	0.665216
C108	C	1.634123	-0.133494	0.998550
C109	C	0.922252	-0.763378	0.377213
C110	C	1.255585	-0.430045	0.710546
C111	C	1.588919	-0.096711	1.043879
C112	C	0.925489	-0.690034	0.373928
C113	C	1.258822	-0.356701	0.707261
C114	C	1.592155	-0.023368	1.040594
C115	C	0.955345	-1.021606	0.344155
C116	C	1.288679	-0.688273	0.677488
C117	C	1.622012	-0.354939	1.010821
C118	C	0.952111	-1.094955	0.347435
C119	C	1.285444	-0.761621	0.680768
C120	C	1.618777	-0.428288	1.014102
C121	C	1.045755	-1.095165	0.253496
C122	C	1.379088	-0.761832	0.586829
C123	C	1.712421	-0.428499	0.920163
C124	C	1.048984	-1.021820	0.250212
C125	C	1.382317	-0.688487	0.583546
C126	C	1.715650	-0.355153	0.916879
C127	C	1.003782	-0.985044	0.295544
C128	C	1.337116	-0.651711	0.628878
C129	C	1.670449	-0.318378	0.962211
C130	C	0.964149	-0.875131	0.335244
C131	C	1.297483	-0.541798	0.668577
C132	C	1.630816	-0.208464	1.001910
C133	C	1.007093	-0.910075	0.292187
C134	C	1.340426	-0.576742	0.625520
C135	C	1.673760	-0.243409	0.958853
C136	C	1.168723	-0.400479	0.306210
C137	C	1.502057	-0.067146	0.639543
C138	C	1.835390	0.266187	0.972877
C139	C	1.246777	-0.403686	0.303016
C140	C	1.580111	-0.070352	0.636350
C141	C	1.913444	0.262981	0.969683
C142	C	0.977908	-0.399969	0.497906
C143	C	1.311241	-0.066636	0.831239
C144	C	1.644574	0.266698	1.164572
C145	C	0.974648	-0.402958	0.576401
C146	C	1.307981	-0.069625	0.909735
C147	C	1.641314	0.263709	1.243068
C148	C	0.993800	-0.209787	0.305575
C149	C	1.327134	0.123546	0.638908
C150	C	1.660467	0.456880	0.972241
C151	C	0.997313	-0.131732	0.302110
C152	C	1.330646	0.201601	0.635444
C153	C	1.663980	0.534935	0.968777
C154	C	0.993221	-0.385919	0.130217
C155	C	1.326555	-0.052586	0.463550
C156	C	1.659888	0.280747	0.796883
C157	C	0.996626	-0.382738	0.051707
C158	C	1.329960	-0.049405	0.385041
C159	C	1.663293	0.283928	0.718374
C160	C	1.020044	-0.361298	0.609449
C161	C	1.353378	-0.027965	0.942782
C162	C	1.686711	0.305368	1.276116
C163	C	1.016973	-0.364104	0.683204
C164	C	1.350306	-0.030770	1.016537
C165	C	1.683639	0.302563	1.349871
C166	C	0.968507	-0.408573	0.723910
C167	C	1.301841	-0.075239	1.057243
C168	C	1.635174	0.258094	1.390577
C169	C	0.923106	-0.450234	0.690858
C170	C	1.256439	-0.116900	1.024191
C171	C	1.589773	0.216433	1.357524
C172	C	0.926175	-0.447424	0.617104
C173	C	1.259508	-0.114091	0.950437
C174	C	1.592841	0.219242	1.283770
C175	C	0.954294	-0.421590	0.944901
C176	C	1.287627	-0.088256	1.278234
C177	C	1.620960	0.245077	1.611568
C178	C	0.951230	-0.424398	1.018660
C179	C	1.284563	-0.091064	1.351993
C180	C	1.617896	0.242269	1.685326
C181	C	1.045096	-0.338266	1.011001
C182	C	1.378429	-0.004933	1.344334
C183	C	1.711763	0.328400	1.677668
C184	C	1.048163	-0.335464	0.937246
C185	C	1.381497	-0.002131	1.270580
C186	C	1.714830	0.331203	1.603913
C187	C	1.002760	-0.377122	0.904200
C188	C	1.336093	-0.043789	1.237533
C189	C	1.669426	0.289544	1.570867
N190	N	0.965368	-0.411443	0.799300
N191	N	1.298701	-0.078110	1.132633
N192	N	1.632035	0.255224	1.465966
N193	N	1.005896	-0.374248	0.828812
N194	N	1.339229	-0.040914	1.162145
N195	N	1.672563	0.292419	1.495478
H196	H	0.717973	-0.460218	0.246203
H197	H	1.051306	-0.126885	0.579536
H198	H	1.384640	0.206449	0.912870
O199	O	1.065939	-0.319176	0.718851
O200	O	1.399273	0.014157	1.052184
O201	O	1.732606	0.347491	1.385518
H202	H	1.100163	-0.287790	0.678155
H203	H	1.433496	0.045543	1.011488
H204	H	1.766829	0.378876	1.344822
H205	H	0.883642	-0.486439	0.724006
H206	H	1.216975	-0.153105	1.057340
H207	H	1.550309	0.180228	1.390673
O208	O	0.876728	-0.650370	0.422813
O209	O	1.210061	-0.317037	0.756146
O210	O	1.543394	0.016296	1.089480
H211	H	0.908111	-0.619576	0.455992
H212	H	1.241444	-0.286243	0.789325
H213	H	1.574777	0.047091	1.122658
H214	H	0.253851	-0.325730	0.381191
H215	H	0.587185	0.007603	0.714525
H216	H	0.920518	0.340936	1.047858
O217	O	1.071382	-0.650810	0.227565
O218	O	1.404715	-0.317477	0.560899
O219	O	1.738049	0.015856	0.894232
H220	H	1.042956	-0.614778	0.191392
H221	H	1.376289	-0.281445	0.524726
H222	H	1.709623	0.051888	0.858059
O223	O	0.898943	-0.472354	1.062563
O224	O	1.232276	-0.139021	1.395897
O225	O	1.565609	0.194312	1.729230
H226	H	0.904442	-0.467311	1.119400
H227	H	1.237775	-0.133977	1.452734
H228	H	1.571109	0.199356	1.786067
H229	H	0.718498	-0.303768	0.403128
H230	H	1.051831	0.029565	0.736462
H231	H	1.385165	0.362898	1.069795
O232	O	0.877203	-0.492346	0.581454
O233	O	1.210536	-0.159013	0.914787
O234	O	1.543870	0.174320	1.248120
H235	H	0.842986	-0.523741	0.622149
H236	H	1.176320	-0.190408	0.955482
H237	H	1.509653	0.142925	1.288815
H238	H	1.059512	-0.325089	0.576311
H239	H	1.392846	0.008244	0.909644
H240	H	1.726179	0.341577	1.242977
H241	H	1.087631	-0.299255	0.904108
H242	H	1.420964	0.034079	1.237441
H243	H	1.754298	0.367412	1.570774
O244	O	0.870007	-0.802812	0.429646
O245	O	1.203340	-0.469479	0.762979
O246	O	1.536673	-0.136145	1.096313
H247	H	0.816028	-0.786053	0.419117
H248	H	1.149361	-0.452720	0.752451
H249	H	1.482695	-0.119387	1.085784
H250	H	0.386382	-0.487628	0.218788
H251	H	0.719716	-0.154295	0.552122
H252	H	1.053049	0.179038	0.885455
H253	H	0.917332	-0.455522	0.918004
H254	H	1.250666	-0.122188	1.251337
H255	H	1.583999	0.211145	1.584671
H256	H	0.386898	-0.331181	0.375717
H257	H	0.720231	0.002153	0.709051
H258	H	1.053564	0.335486	1.042384
O259	O	1.064645	-0.803258	0.234380
O260	O	1.397978	-0.469925	0.567713
O261	O	1.731311	-0.136591	0.901047
H262	H	1.097570	-0.839294	0.266046
H263	H	1.430903	-0.505961	0.599380
H264	H	1.764236	-0.172627	0.932713
H265	H	1.082060	-0.304350	1.037915
H266	H	1.415394	0.028984	1.371249
H267	H	1.748727	0.362317	1.704582
H268	H	0.584926	-0.454783	0.251695
H269	H	0.918259	-0.121449	0.585028
H270	H	1.251593	0.211884	0.918361
H271	H	0.253325	-0.482188	0.224276
H272	H	0.586658	-0.148854	0.557609
H273	H	0.919992	0.184479	0.890943
H274	H	1.088426	-0.992049	0.210630
H275	H	1.421760	-0.658715	0.543963
H276	H	1.755093	-0.325382	0.877297
H277	H	0.585439	-0.298334	0.408614
H278	H	0.918772	0.035000	0.741947
H279	H	1.252106	0.368333	1.075281
O280	O	0.507818	-0.460865	0.245606
O281	O	0.841151	-0.127532	0.578939
O282	O	1.174485	0.205801	0.912272
H283	H	0.538333	-0.499209	0.277364
H284	H	0.871667	-0.165876	0.610697
H285	H	1.205000	0.167458	0.944031
H286	H	1.082556	-1.125116	0.216590
H287	H	1.415889	-0.791783	0.549923
H288	H	1.749223	-0.458449	0.883257
O289	O	0.464000	-0.325081	0.381786
O290	O	0.797333	0.008253	0.715119
O291	O	1.130666	0.341586	1.048452
H292	H	0.427689	-0.356565	0.420437
H293	H	0.761022	-0.023231	0.753771
H294	H	1.094355	0.310102	1.087104
H295	H	0.912674	-1.124726	0.387031
H296	H	1.246008	-0.791393	0.720364
H297	H	1.579341	-0.458059	1.053698
H298	H	0.918539	-0.991669	0.381065
H299	H	1.251872	-0.658336	0.714398
H300	H	1.585206	-0.325002	1.047731
H301	H	1.046534	-0.880301	0.252611
H302	H	1.379868	-0.546968	0.585944
H303	H	1.713201	-0.213634	0.919278
H304	H	0.924709	-0.904912	0.374821
H305	H	1.258043	-0.571578	0.708154
H306	H	1.591376	-0.238245	1.041487
