data_functionalizedCrystal
_audit_creation_method	'MofGen! by Chris Wilmer'
_symmetry_space_group_name_H-M	'P1'
_symmetry_Int_Tables_number	1
_symmetry_cell_setting	triclinic
loop_
_symmetry_equiv_pos_as_xyz
  x,y,z
_cell_length_a	8.559649
_cell_length_b	26.809956
_cell_length_c	8.559649
_cell_angle_alpha	90.004277
_cell_angle_beta	69.778664
_cell_angle_gamma	90.016082
loop_
_atom_site_label
_atom_site_type_symbol
_atom_site_fract_x
_atom_site_fract_y
_atom_site_fract_z
O1	O	2.126909	0.041478	-0.055042
O2	O	1.651425	0.041478	0.028739
O3	O	1.931058	0.041478	-0.250894
O4	O	1.847276	0.041479	0.224591
O5	O	1.930981	-0.041482	-0.250885
O6	O	1.651348	-0.041481	0.028748
O7	O	2.126833	-0.041481	-0.055033
Zn8	Zn	1.889078	-0.054653	-0.013141
Zn9	Zn	1.889179	0.054650	-0.013153
O10	O	1.847200	-0.041481	0.224600
C11	C	1.591077	-0.000001	0.035093
C12	C	1.411378	-0.000001	0.053992
N13	N	1.889021	-0.129249	-0.013136
C14	C	1.975465	-0.473875	0.073208
C15	C	1.975518	-0.682752	0.073201
O16	O	2.048974	-0.709756	0.146601
N17	N	1.889220	-0.708876	-0.013174
C18	C	1.802912	-0.682777	-0.099562
O19	O	1.729526	-0.709789	-0.173043
C20	C	1.802870	-0.473900	-0.099563
C21	C	1.889160	-0.447779	-0.013169
C22	C	2.061749	-0.447754	0.159594
C23	C	2.061727	-0.395538	0.159603
C24	C	1.975422	-0.369442	0.073225
C25	C	1.889138	-0.395563	-0.013160
C26	C	1.716573	-0.447802	-0.185960
C27	C	1.716574	-0.395579	-0.185956
C28	C	1.802863	-0.369458	-0.099562
C29	C	1.802811	-0.317251	-0.099529
N30	N	1.889109	-0.291128	-0.013154
C31	C	1.975414	-0.317223	0.073223
C32	C	1.802938	-0.792440	-0.099553
C33	C	1.802945	-0.844659	-0.099550
C34	C	1.975554	-0.844631	0.073211
C35	C	1.975535	-0.792411	0.073217
C36	C	1.889235	-0.766316	-0.013178
C37	C	1.975361	-0.207565	0.073235
C38	C	1.975327	-0.155344	0.073242
C39	C	1.802726	-0.155377	-0.099526
C40	C	1.802753	-0.207593	-0.099525
C41	C	1.889083	-0.233686	-0.013142
O42	O	1.729409	-0.290215	-0.172906
O43	O	2.048820	-0.290202	0.146663
C44	C	1.975486	-0.526091	0.073200
C45	C	1.889203	-0.552212	-0.013186
C46	C	1.802897	-0.526116	-0.099563
C47	C	1.889210	-0.604431	-0.013183
C48	C	1.975516	-0.630526	0.073194
C49	C	2.061813	-0.604403	0.159569
C50	C	2.061792	-0.552186	0.159577
C51	C	1.716600	-0.552240	-0.185938
C52	C	1.716627	-0.604456	-0.185938
C53	C	1.802932	-0.630551	-0.099561
C54	C	2.187180	-0.000001	-0.061387
C55	C	2.366879	0.000002	-0.080286
C56	C	1.937369	-0.000001	-0.311198
C57	C	1.956268	0.000002	-0.490898
N58	N	1.889251	0.129246	-0.013173
C59	C	1.840889	-0.000001	0.284904
C60	C	1.821990	-0.000000	0.464604
H61	H	1.312000	0.000004	0.183411
H62	H	2.132057	-0.530924	0.229929
H63	H	1.466268	0.000002	-0.209714
H64	H	2.045592	-0.134079	0.143602
H65	H	2.045660	-0.228804	0.143576
H66	H	2.132077	-0.625659	0.229910
O67	O	2.145712	-0.370245	0.243534
C68	C	2.221852	-0.404484	0.319790
H69	H	2.239547	-0.441706	0.251467
H70	H	2.139405	-0.410043	0.455296
C71	C	2.370759	-0.338378	0.396247
C72	C	2.392505	-0.384093	0.312323
H73	H	2.476022	-0.325799	0.391650
H74	H	2.319458	-0.315310	0.344879
H75	H	2.302047	-0.343017	0.509162
H76	H	2.461197	-0.379453	0.199407
H77	H	2.443822	-0.407160	0.363673
H78	H	2.085696	-0.000003	-0.590286
O79	O	2.145348	-0.473154	0.243631
C80	C	2.032852	-0.503356	0.366448
H81	H	1.918704	-0.511200	0.330655
H82	H	1.993032	-0.483225	0.491419
C83	C	2.258152	-0.543310	0.424103
C84	C	2.117959	-0.552948	0.380133
H85	H	2.310650	-0.573900	0.432552
H86	H	2.333943	-0.522961	0.341363
H87	H	2.224948	-0.526533	0.528242
H88	H	2.151167	-0.569718	0.275987
H89	H	2.042175	-0.573301	0.462856
H90	H	1.692570	-0.000002	-0.436018
O91	O	2.059510	-0.767117	0.157155
C92	C	2.135639	-0.801354	0.233429
H93	H	2.153344	-0.838577	0.165111
H94	H	2.053179	-0.806912	0.368932
C95	C	2.284525	-0.735244	0.309899
C96	C	2.306284	-0.780961	0.225981
H97	H	2.389783	-0.722665	0.305313
H98	H	2.233231	-0.712178	0.258518
H99	H	2.215802	-0.739882	0.422811
H100	H	2.374987	-0.776321	0.113068
H101	H	2.357593	-0.804026	0.277343
H102	H	2.045819	-0.865887	0.143550
H103	H	1.732658	-0.865922	-0.169879
H104	H	1.646310	-0.469060	-0.256314
O105	O	1.718810	-0.767122	-0.183251
C106	C	1.548667	-0.779919	-0.118191
H107	H	1.516956	-0.794266	0.014558
H108	H	1.521473	-0.810244	-0.198618
C109	C	1.481332	-0.715932	-0.280846
C110	C	1.442381	-0.733549	-0.117796
H111	H	1.415768	-0.687330	-0.280609
H112	H	1.595961	-0.707311	-0.324684
H113	H	1.458670	-0.741207	-0.347851
H114	H	1.465063	-0.708276	-0.050800
H115	H	1.327752	-0.742165	-0.073947
O116	O	1.632610	-0.370177	-0.269634
C117	C	1.509737	-0.339994	-0.157189
H118	H	1.545431	-0.332161	-0.042979
H119	H	1.384769	-0.360136	-0.117465
C120	C	1.452270	-0.300018	-0.382576
C121	C	1.496118	-0.290394	-0.242307
H122	H	1.443862	-0.269423	-0.435080
H123	H	1.535048	-0.320354	-0.458333
H124	H	1.348135	-0.316804	-0.349452
H125	H	1.600261	-0.273614	-0.275434
H126	H	1.413357	-0.270054	-0.166558
O127	O	1.632773	-0.629750	-0.270011
C128	C	1.556567	-0.595515	-0.346212
H129	H	1.624862	-0.558283	-0.363855
H130	H	1.421032	-0.589978	-0.263838
C131	C	1.480272	-0.661620	-0.495224
C132	C	1.564162	-0.615893	-0.516906
H133	H	1.484949	-0.674191	-0.600513
H134	H	1.531607	-0.684686	-0.443882
H135	H	1.367334	-0.657000	-0.426573
H136	H	1.677101	-0.620515	-0.585538
H137	H	1.512845	-0.592829	-0.568264
H138	H	1.732466	-0.228861	-0.169852
H139	H	1.732454	-0.134120	-0.169847
H140	H	1.646322	-0.530998	-0.256282
