data_functionalizedCrystal
_audit_creation_method	'MofGen! by Chris Wilmer'
_symmetry_space_group_name_H-M	'P1'
_symmetry_Int_Tables_number	1
_symmetry_cell_setting	triclinic
loop_
_symmetry_equiv_pos_as_xyz
  x,y,z
_cell_length_a	11.792254
_cell_length_b	10.489716
_cell_length_c	8.965430
_cell_angle_alpha	89.996700
_cell_angle_beta	89.997053
_cell_angle_gamma	84.363867
loop_
_atom_site_label
_atom_site_type_symbol
_atom_site_fract_x
_atom_site_fract_y
_atom_site_fract_z
O1	O	1.507347	0.174904	0.124024
O2	O	2.007347	0.674904	0.624024
O3	O	1.177055	0.192906	0.124026
O4	O	1.677055	0.692906	0.624026
O5	O	1.349731	-0.001720	0.124030
O6	O	1.849731	0.498280	0.624030
O7	O	1.334671	0.369530	0.124019
O8	O	1.834671	0.869530	0.624019
O9	O	1.349739	-0.001714	-0.124049
O10	O	1.849739	0.498286	0.375951
O11	O	1.177063	0.192912	-0.124053
O12	O	1.677063	0.692912	0.375947
O13	O	1.507355	0.174911	-0.124055
O14	O	2.007355	0.674911	0.375945
Cu15	Cu	1.342210	0.183912	-0.146706
Cu16	Cu	1.842210	0.683912	0.353294
Cu17	Cu	1.342200	0.183905	0.146676
Cu18	Cu	1.842200	0.683905	0.646676
O19	O	1.334679	0.369536	-0.124059
O20	O	1.834679	0.869536	0.375941
C21	C	1.134765	0.191775	-0.000013
C22	C	1.634765	0.691775	0.499987
C23	C	1.008743	0.188381	-0.000012
C24	C	1.508743	0.688381	0.499988
C25	C	0.906399	0.185623	-0.000006
C26	C	1.406399	0.685623	0.499994
C27	C	0.778004	0.182175	-0.000005
C28	C	1.278004	0.682175	0.499995
C29	C	1.348603	-0.049245	-0.000005
C30	C	1.848603	0.450755	0.499995
C31	C	1.345218	-0.190865	0.000009
C32	C	1.845218	0.309135	0.500009
C33	C	1.451108	-0.288894	-0.000005
C34	C	1.951108	0.211106	0.499995
C35	C	1.395149	-0.366070	0.122307
C36	C	1.895149	0.133930	0.622307
C37	C	1.395133	-0.366028	-0.122279
C38	C	1.895133	0.133972	0.377721
C39	C	1.289303	-0.266175	0.122422
C40	C	1.789303	0.233825	0.622422
C41	C	1.289302	-0.266128	-0.122274
C42	C	1.789302	0.233872	0.377726
C43	C	1.233266	-0.343255	0.000068
C44	C	1.733266	0.156745	0.500068
C45	C	1.549645	0.176041	-0.000013
C46	C	2.049645	0.676041	0.499987
C47	C	1.675666	0.179436	-0.000004
C48	C	2.175666	0.679436	0.499996
C49	C	1.335806	0.417062	-0.000021
C50	C	1.835806	0.917062	0.499979
C51	C	1.339192	0.558681	-0.000025
C52	C	1.839192	1.058681	0.499975
N53	N	1.342225	0.183916	-0.353055
N54	N	1.842225	0.683916	0.146945
C55	C	1.422108	0.093914	-0.450319
C56	C	1.922108	0.593914	0.049681
C57	C	1.319342	0.068424	-0.549722
C58	C	1.819342	0.568424	-0.049722
C59	C	1.444950	0.209324	-0.549779
C60	C	1.944950	0.709324	-0.049779
C61	C	1.239407	0.158369	-0.450269
C62	C	1.739407	0.658369	0.049731
C63	C	1.365083	0.299319	-0.450318
C64	C	1.865083	0.799319	0.049682
C65	C	1.262243	0.273877	-0.549676
C66	C	1.762243	0.773877	-0.049676
N67	N	1.342194	0.183890	0.353025
N68	N	1.842194	0.683890	0.853025
H69	H	1.543215	-0.264527	0.000118
H70	H	2.043215	0.235473	0.500118
H71	H	1.152499	0.136757	-0.406742
H72	H	1.652499	0.636757	0.093258
F73	F	1.453570	-0.423124	0.257467
F74	F	1.953570	0.076876	0.757467
H75	H	1.299986	-0.029180	-0.593387
H76	H	1.799986	0.470820	-0.093387
H77	H	1.384471	0.396893	-0.406621
H78	H	1.884471	0.896893	0.093379
F79	F	1.173834	0.373354	-0.606341
F80	F	1.673834	0.873354	-0.106341
F81	F	1.558515	0.237426	-0.606920
F82	F	2.058515	0.737426	-0.106920
F83	F	1.230949	-0.209021	-0.257442
F84	F	1.730949	0.290979	0.242558
H85	H	1.244624	-0.222724	0.225942
H86	H	1.744624	0.277276	0.725942
H87	H	1.141090	-0.367376	0.000134
H88	H	1.641090	0.132624	0.500134
H89	H	1.439859	-0.409648	-0.225682
H90	H	1.939859	0.090352	0.274318
H91	H	1.489596	0.017763	-0.406692
H92	H	1.989596	0.517763	0.093308
