data_functionalizedCrystal
_audit_creation_method	'MofGen! by Chris Wilmer'
_symmetry_space_group_name_H-M	'P1'
_symmetry_Int_Tables_number	1
_symmetry_cell_setting	triclinic
loop_
_symmetry_equiv_pos_as_xyz
  x,y,z
_cell_length_a	16.992694
_cell_length_b	9.482900
_cell_length_c	16.992695
_cell_angle_alpha	80.026204
_cell_angle_beta	90.668223
_cell_angle_gamma	99.926526
loop_
_atom_site_label
_atom_site_type_symbol
_atom_site_fract_x
_atom_site_fract_y
_atom_site_fract_z
O1	O	1.062330	0.120712	0.155377
O2	O	1.395663	0.454045	0.488711
O3	O	1.728997	0.787379	0.822044
O4	O	0.833934	0.120755	0.153542
O5	O	1.167267	0.454088	0.486875
O6	O	1.500601	0.787421	0.820209
O7	O	0.947215	0.120722	0.040261
O8	O	1.280549	0.454055	0.373594
O9	O	1.613882	0.787389	0.706928
O10	O	0.949049	0.120745	0.268659
O11	O	1.282382	0.454078	0.601992
O12	O	1.615715	0.787411	0.935325
O13	O	0.924211	-0.121064	0.063369
O14	O	1.257545	0.212270	0.396703
O15	O	1.590878	0.545603	0.730036
O16	O	0.810930	-0.121031	0.176651
O17	O	1.144263	0.212302	0.509984
O18	O	1.477597	0.545636	0.843317
O19	O	1.039326	-0.121074	0.178486
O20	O	1.372659	0.212259	0.511819
O21	O	1.705993	0.545593	0.845153
Cu22	Cu	0.923028	-0.143129	0.179678
Cu23	Cu	1.256361	0.190204	0.513012
Cu24	Cu	1.589694	0.523537	0.846345
Cu25	Cu	0.950232	0.142810	0.152350
Cu26	Cu	1.283566	0.476144	0.485683
Cu27	Cu	1.616899	0.809477	0.819016
O28	O	0.926045	-0.121041	0.291767
O29	O	1.259378	0.212292	0.625101
O30	O	1.592712	0.545626	0.958434
C31	C	0.793072	-0.000133	0.162740
C32	C	1.126406	0.333201	0.496073
C33	C	1.459739	0.666534	0.829407
C34	C	0.705589	-0.000117	0.155710
C35	C	1.038923	0.333217	0.489043
C36	C	1.372256	0.666550	0.822376
N37	N	0.903899	-0.344244	0.198900
N38	N	1.237232	-0.010911	0.532233
N39	N	1.570566	0.322423	0.865566
C40	C	0.659599	-0.000111	0.223527
C41	C	0.992932	0.333222	0.556861
C42	C	1.326266	0.666556	0.890194
C43	C	0.577396	-0.000132	0.216920
C44	C	0.910730	0.333202	0.550254
C45	C	1.244063	0.666535	0.883587
C46	C	0.541186	-0.000148	0.142494
C47	C	0.874520	0.333186	0.475828
C48	C	1.207853	0.666519	0.809161
C49	C	0.587183	-0.000158	0.074672
C50	C	0.920516	0.333176	0.408005
C51	C	1.253849	0.666509	0.741339
C52	C	0.669383	-0.000147	0.081281
C53	C	1.002716	0.333186	0.414614
C54	C	1.336049	0.666519	0.747947
C55	C	0.295868	-0.000189	0.115104
C56	C	0.629202	0.333144	0.448437
C57	C	0.962535	0.666477	0.781770
C58	C	0.213662	-0.000195	0.108500
C59	C	0.546996	0.333138	0.441833
C60	C	0.880329	0.666471	0.775166
C61	C	0.203881	-0.000172	0.250749
C62	C	0.537215	0.333161	0.584082
C63	C	0.870548	0.666495	0.917415
C64	C	0.286085	-0.000153	0.257350
C65	C	0.619418	0.333180	0.590683
C66	C	0.952751	0.666514	0.924017
C67	C	0.332073	-0.000171	0.189529
C68	C	0.665406	0.333163	0.522862
C69	C	0.998739	0.666496	0.856195
N70	N	0.457163	-0.000164	0.135739
N71	N	0.790496	0.333169	0.469072
N72	N	1.123829	0.666502	0.802405
N73	N	0.416094	-0.000164	0.196286
N74	N	0.749427	0.333169	0.529619
N75	N	1.082761	0.666502	0.862953
C76	C	0.944585	-0.416455	0.158015
C77	C	1.277918	-0.083122	0.491348
C78	C	1.611251	0.250212	0.824681
C79	C	0.928675	-0.583868	0.174014
C80	C	1.262009	-0.250534	0.507347
C81	C	1.595342	0.082799	0.840680
C82	C	1.080188	-0.000183	0.169288
C83	C	1.413521	0.333150	0.502621
C84	C	1.746855	0.666484	0.835954
C85	C	1.167672	-0.000190	0.176317
C86	C	1.501005	0.333144	0.509650
C87	C	1.834339	0.666477	0.842984
C88	C	0.933358	-0.000170	0.022455
C89	C	1.266691	0.333163	0.355788
C90	C	1.600024	0.666496	0.689122
C91	C	0.926329	-0.000169	-0.065030
C92	C	1.259662	0.333165	0.268303
C93	C	1.592996	0.666498	0.601637
N94	N	0.969367	0.343925	0.133123
N95	N	1.302700	0.677258	0.466456
N96	N	1.636034	1.010592	0.799789
C97	C	0.994146	-0.000183	-0.111019
C98	C	1.327479	0.333151	0.222314
C99	C	1.660812	0.666484	0.555647
C100	C	0.987538	-0.000168	-0.193222
C101	C	1.320872	0.333166	0.140112
C102	C	1.654205	0.666499	0.473445
C103	C	0.913112	-0.000149	-0.229432
C104	C	1.246446	0.333184	0.103902
C105	C	1.579779	0.666518	0.437235
C106	C	0.845291	-0.000130	-0.183436
C107	C	1.178624	0.333203	0.149897
C108	C	1.511958	0.666536	0.483230
C109	C	0.851900	-0.000135	-0.101237
C110	C	1.185234	0.333198	0.232097
C111	C	1.518567	0.666532	0.565430
C112	C	0.885720	-0.000124	-0.474748
C113	C	1.219054	0.333210	-0.141415
C114	C	1.552387	0.666543	0.191918
C115	C	0.879116	-0.000124	-0.556954
C116	C	1.212449	0.333210	-0.223620
C117	C	1.545782	0.666543	0.109713
C118	C	1.021364	-0.000158	-0.566733
C119	C	1.354697	0.333175	-0.233400
C120	C	1.688030	0.666508	0.099933
C121	C	1.027966	-0.000172	-0.484531
C122	C	1.361299	0.333162	-0.151198
C123	C	1.694632	0.666495	0.182136
C124	C	0.960145	-0.000145	-0.438544
C125	C	1.293478	0.333188	-0.105210
C126	C	1.626812	0.666521	0.228123
N127	N	0.906356	-0.000138	-0.313455
N128	N	1.239690	0.333195	0.019878
N129	N	1.573023	0.666529	0.353212
N130	N	0.966903	-0.000146	-0.354523
N131	N	1.300236	0.333188	-0.021190
N132	N	1.633570	0.666521	0.312144
C133	C	0.939903	-0.000146	0.309573
C134	C	1.273236	0.333188	0.642906
C135	C	1.606569	0.666521	0.976240
C136	C	0.946932	-0.000138	0.397057
C137	C	1.280266	0.333196	0.730390
C138	C	1.613599	0.666529	1.063723
H139	H	0.689075	-0.000097	0.284133
H140	H	1.022408	0.333236	0.617466
H141	H	1.355741	0.666570	0.950800
H142	H	0.539954	-0.000126	0.272145
H143	H	0.873288	0.333208	0.605478
H144	H	1.206621	0.666541	0.938811
F145	F	0.842971	-0.425429	0.260130
F146	F	1.176304	-0.092096	0.593463
F147	F	1.509637	0.241238	0.926796
F148	F	0.344802	-0.000208	0.042921
F149	F	0.678135	0.333126	0.376254
F150	F	1.011469	0.666459	0.709588
H151	H	1.054750	-0.000207	-0.081543
H152	H	1.388084	0.333126	0.251791
H153	H	1.721417	0.666460	0.585124
F154	F	1.059718	-0.000186	-0.242164
F155	F	1.393052	0.333148	0.091170
F156	F	1.726385	0.666481	0.424503
H157	H	0.818504	-0.000132	-0.586431
H158	H	1.151837	0.333202	-0.253097
H159	H	1.485171	0.666535	0.080236
H160	H	0.315562	-0.000123	0.317954
H161	H	0.648895	0.333210	0.651287
H162	H	0.982229	0.666543	0.984621
H163	H	0.166429	-0.000161	0.305965
H164	H	0.499762	0.333173	0.639298
H165	H	0.833096	0.666506	0.972632
H166	H	0.991192	-0.354340	0.111164
H167	H	1.324526	-0.021007	0.444497
H168	H	1.657859	0.312326	0.777831
H169	H	0.784693	-0.000106	-0.212926
H170	H	1.118026	0.333228	0.120407
H171	H	1.451359	0.666561	0.453741
H172	H	1.015977	-0.593964	0.086269
H173	H	1.349311	-0.260631	0.419602
H174	H	1.682644	0.072703	0.752936
H175	H	0.184184	-0.000207	0.047890
H176	H	0.517517	0.333127	0.381223
H177	H	0.850850	0.666460	0.714556
F178	F	0.813539	-0.000092	-0.425816
F179	F	1.146872	0.333241	-0.092483
F180	F	1.480206	0.666575	0.240851
H181	H	1.088571	-0.000187	-0.455055
H182	H	1.421904	0.333146	-0.121721
H183	H	1.755238	0.666479	0.211612
F184	F	1.093538	-0.000184	-0.615682
F185	F	1.426871	0.333149	-0.282349
F186	F	1.760205	0.666483	0.050985
H187	H	0.796677	-0.000123	-0.063793
H188	H	1.130010	0.333210	0.269541
H189	H	1.463343	0.666544	0.602874
H190	H	0.557692	-0.000191	0.014075
H191	H	0.891025	0.333142	0.347408
H192	H	1.224359	0.666475	0.680741
H193	H	0.706828	-0.000151	0.026056
H194	H	1.040161	0.333182	0.359390
H195	H	1.373494	0.666516	0.692723
H196	H	0.882059	-0.645979	0.220861
H197	H	1.215392	-0.312645	0.554194
H198	H	1.548726	0.020688	0.887528
