data_functionalizedCrystal
_audit_creation_method	'MofGen! by Chris Wilmer'
_symmetry_space_group_name_H-M	'P1'
_symmetry_Int_Tables_number	1
_symmetry_cell_setting	triclinic
loop_
_symmetry_equiv_pos_as_xyz
  x,y,z
_cell_length_a	12.827893
_cell_length_b	16.120444
_cell_length_c	12.827885
_cell_angle_alpha	87.135329
_cell_angle_beta	90.019082
_cell_angle_gamma	92.926647
loop_
_atom_site_label
_atom_site_type_symbol
_atom_site_fract_x
_atom_site_fract_y
_atom_site_fract_z
Zn1	Zn	1.576496	-0.331863	0.611895
Zn2	Zn	1.567494	-0.471299	0.446001
Zn3	Zn	1.401735	-0.331905	0.437172
Zn4	Zn	1.392831	-0.471238	0.620697
O5	O	1.484639	-0.401576	0.528941
O6	O	1.721538	-0.350369	0.589900
O7	O	1.545465	-0.452851	0.298596
O8	O	1.432411	-0.215233	0.452971
O9	O	1.714924	-0.452811	0.468018
O10	O	1.560808	-0.215203	0.581339
O11	O	1.423683	-0.350438	0.292110
O12	O	1.254319	-0.350379	0.461506
O13	O	1.417235	-0.452706	0.765763
O14	O	1.247777	-0.452746	0.596341
O15	O	1.552174	-0.350309	0.759296
O16	O	1.536831	-0.587957	0.476553
O17	O	1.408506	-0.587912	0.604902
C18	C	1.213130	-0.401561	0.528921
C19	C	1.096976	-0.401574	0.528939
C20	C	1.470754	-0.618184	0.542663
C21	C	1.464909	-0.710850	0.548569
C22	C	0.921932	-0.452321	0.595583
C23	C	1.041983	-0.452308	0.595567
C24	C	1.515214	-0.921795	0.498532
C25	C	1.454258	-0.880507	0.559361
C26	C	1.460186	-0.786101	0.553355
C27	C	1.509287	-1.016209	0.504537
C28	C	1.757208	-0.401592	0.528962
C29	C	1.873361	-0.401599	0.528971
C30	C	1.484715	-0.401496	0.801507
C31	C	1.484748	-0.401462	0.917658
C32	C	1.498607	-0.184122	0.515188
C33	C	1.504559	-0.091456	0.509328
C34	C	1.484627	-0.401596	0.257433
C35	C	1.484812	-0.401395	0.141267
C36	C	1.551527	-0.350783	0.966242
C37	C	1.551562	-0.350746	1.086290
H38	H	0.874637	-0.495759	0.652621
O39	O	1.416745	-0.453204	1.091309
C40	C	1.472829	-0.507040	1.031605
H41	H	1.553923	-0.477633	1.013510
H42	H	1.429601	-0.518178	0.955507
H43	H	1.480312	-0.568842	1.077515
O44	O	0.929881	-0.349896	0.460872
C45	C	0.989928	-0.397339	0.396317
H46	H	1.002143	-0.460565	0.437062
H47	H	1.068889	-0.363417	0.380292
H48	H	0.947311	-0.406399	0.319397
O49	O	1.091941	-0.504000	0.663651
C50	C	1.158122	-0.456544	0.728191
H51	H	1.178394	-0.393315	0.687441
H52	H	1.232756	-0.490451	0.744196
H53	H	1.116735	-0.447492	0.805121
H54	H	1.055201	-0.358144	0.471911
H55	H	1.427595	-0.444818	0.964938
O56	O	1.582683	-0.879260	0.431044
C57	C	1.573659	-0.793105	0.440010
H58	H	1.493718	-0.781363	0.473441
H59	H	1.582815	-0.759980	0.359674
H60	H	1.637143	-0.768306	0.494161
H61	H	1.608670	-0.307418	0.918961
H62	H	1.397620	-0.916060	0.615950
O63	O	1.619670	-0.299005	1.136303
C64	C	1.604553	-0.310496	1.245030
H65	H	1.522144	-0.337806	1.261555
H66	H	1.615620	-0.248066	1.282636
H67	H	1.663669	-0.354907	1.278820
