data_functionalizedCrystal
_audit_creation_method	'MofGen! by Chris Wilmer'
_symmetry_space_group_name_H-M	'P1'
_symmetry_Int_Tables_number	1
_symmetry_cell_setting	triclinic
loop_
_symmetry_equiv_pos_as_xyz
  x,y,z
_cell_length_a	9.065215
_cell_length_b	15.995292
_cell_length_c	7.540329
_cell_angle_alpha	89.999602
_cell_angle_beta	89.997574
_cell_angle_gamma	84.241657
loop_
_atom_site_label
_atom_site_type_symbol
_atom_site_fract_x
_atom_site_fract_y
_atom_site_fract_z
O1	O	1.957465	0.122762	-0.147448
O2	O	2.457465	0.622762	0.352552
O3	O	1.527939	0.132835	-0.147454
O4	O	2.027939	0.632835	0.352546
O5	O	1.754488	0.005997	-0.147454
O6	O	2.254488	0.505997	0.352546
O7	O	1.730916	0.249600	-0.147448
O8	O	2.230916	0.749600	0.352552
O9	O	1.754475	0.005995	0.147512
O10	O	2.254475	0.505995	0.647512
O11	O	1.527925	0.132833	0.147511
O12	O	2.027925	0.632833	0.647511
O13	O	1.957452	0.122760	0.147517
O14	O	2.457452	0.622760	0.647517
Cu15	Cu	1.742687	0.127796	0.174447
Cu16	Cu	2.242687	0.627796	0.674447
Cu17	Cu	1.742703	0.127798	-0.174384
Cu18	Cu	2.242703	0.627798	0.325616
O19	O	1.730902	0.249598	0.147517
O20	O	2.230902	0.749598	0.647517
C21	C	1.472969	0.131866	0.000027
C22	C	1.972969	0.631866	0.500027
C23	C	1.309195	0.128973	0.000024
C24	C	1.809195	0.628973	0.500024
C25	C	1.753522	-0.025207	0.000025
C26	C	2.253522	0.474793	0.500025
C27	C	1.750646	-0.118182	0.000011
C28	C	2.250646	0.381818	0.500011
C29	C	1.740072	-0.456001	0.000027
C30	C	2.240072	0.043999	0.500027
C31	C	1.903589	-0.431449	0.000689
C32	C	2.403589	0.068551	0.500689
C33	C	1.906697	-0.334750	0.000018
C34	C	2.406697	0.165250	0.500018
C35	C	1.745319	-0.288405	0.000020
C36	C	2.245319	0.211595	0.500020
C37	C	1.663576	-0.318124	-0.168415
C38	C	2.163576	0.181876	0.331585
C39	C	1.661607	-0.414930	-0.168550
C40	C	2.161607	0.085070	0.331450
C41	C	1.658253	-0.414814	0.166881
C42	C	2.158253	0.085186	0.666881
C43	C	1.664312	-0.318276	0.169101
C44	C	2.164312	0.181724	0.669101
C45	C	1.748275	-0.193686	0.000010
C46	C	2.248275	0.306314	0.500010
C47	C	1.737110	-0.550719	0.000025
C48	C	2.237110	-0.050719	0.500025
C49	C	2.012422	0.123728	0.000032
C50	C	2.512422	0.623728	0.500032
C51	C	2.176196	0.126621	0.000024
C52	C	2.676196	0.626621	0.500024
C53	C	1.731869	0.280802	0.000035
C54	C	2.231869	0.780802	0.500035
C55	C	1.734745	0.373777	0.000036
C56	C	2.234745	0.873777	0.500036
N57	N	1.742687	0.127795	0.419795
N58	N	2.242687	0.627795	0.919795
N59	N	1.742715	0.127794	-0.419732
N60	N	2.242715	0.627794	0.080268
H61	H	1.966611	-0.458969	0.121481
H62	H	2.466611	0.041031	0.621481
H63	H	1.966271	-0.459991	-0.119424
H64	H	2.466271	0.040009	0.380576
O65	O	1.498827	-0.434563	0.168398
O66	O	1.998827	0.065437	0.668398
H67	H	1.424418	-0.375100	0.164059
H68	H	1.924418	0.124900	0.664059
O69	O	1.726095	-0.451718	0.336002
O70	O	2.226095	0.048282	0.836002
H71	H	1.818897	-0.499833	0.303013
H72	H	2.318897	0.000167	0.803013
H73	H	1.970716	-0.315240	0.120756
H74	H	2.470716	0.184760	0.620756
O75	O	1.992006	-0.309711	-0.160193
O76	O	2.492006	0.190289	0.339807
H77	H	1.918685	-0.266425	-0.244395
H78	H	2.418685	0.233575	0.255605
H79	H	1.718230	-0.441316	-0.294460
H80	H	2.218230	0.058684	0.205540
H81	H	1.723834	-0.299260	0.293708
H82	H	2.223834	0.200740	0.793708
H83	H	1.541715	-0.430389	-0.176179
H84	H	2.041715	0.069611	0.323821
H85	H	1.546522	-0.286199	0.179275
H86	H	2.046522	0.213801	0.679275
O87	O	1.506276	-0.277103	-0.176742
O88	O	2.006276	0.222897	0.323258
H89	H	1.484642	-0.234994	-0.060643
H90	H	1.984642	0.265006	0.439357
H91	H	1.720351	-0.297633	-0.293765
H92	H	2.220351	0.202367	0.206235
