data_functionalizedCrystal
_audit_creation_method	'MofGen! by Chris Wilmer'
_symmetry_space_group_name_H-M	'P1'
_symmetry_Int_Tables_number	1
_symmetry_cell_setting	triclinic
loop_
_symmetry_equiv_pos_as_xyz
  x,y,z
_cell_length_a	11.792241
_cell_length_b	10.723024
_cell_length_c	9.798715
_cell_angle_alpha	90.001978
_cell_angle_beta	89.997178
_cell_angle_gamma	95.669357
loop_
_atom_site_label
_atom_site_type_symbol
_atom_site_fract_x
_atom_site_fract_y
_atom_site_fract_z
O1	O	1.507282	-0.171036	-0.113460
O2	O	1.176980	-0.188663	-0.113469
O3	O	1.349750	0.001747	-0.113459
O4	O	1.334512	-0.361446	-0.113470
O5	O	1.349737	0.001747	0.113523
O6	O	1.176967	-0.188663	0.113514
O7	O	1.507269	-0.171035	0.113522
Zn8	Zn	1.342116	-0.179849	0.149556
Zn9	Zn	1.342133	-0.179850	-0.149503
O10	O	1.334499	-0.361445	0.113513
C11	C	1.348634	0.048244	0.000030
C12	C	1.345317	0.186789	0.000025
C13	C	1.134680	-0.187556	0.000021
C14	C	1.008659	-0.184242	0.000018
C15	C	1.549569	-0.172143	0.000029
C16	C	1.675590	-0.175457	0.000023
C17	C	1.906315	-0.181551	0.000023
C18	C	1.777923	-0.178165	0.000024
C19	C	1.335614	-0.407942	0.000020
C20	C	1.338932	-0.546488	0.000016
N21	N	1.342112	-0.179848	0.353656
C22	C	1.441990	0.262028	0.000026
C23	C	1.438563	0.405222	0.000021
N24	N	1.342145	-0.179841	-0.353602
C25	C	1.414654	-0.099549	0.421437
C26	C	1.414672	-0.099544	0.578599
H27	H	1.521323	0.469873	0.000027
H28	H	1.280016	-0.248588	0.411977
O29	O	1.259871	-0.270903	0.569192
H30	H	1.275319	-0.368245	0.596515
O31	O	1.496955	-0.008483	0.655794
H32	H	1.481519	0.088857	0.628448
H33	H	1.527292	0.220431	0.000036
H34	H	1.256168	0.388868	0.000025
H35	H	1.260014	0.228386	0.000014
H36	H	1.476743	-0.030799	0.363117
