data_functionalizedCrystal
_audit_creation_method	'MofGen! by Chris Wilmer'
_symmetry_space_group_name_H-M	'P1'
_symmetry_Int_Tables_number	1
_symmetry_cell_setting	triclinic
loop_
_symmetry_equiv_pos_as_xyz
  x,y,z
_cell_length_a	13.635800
_cell_length_b	16.105560
_cell_length_c	12.908943
_cell_angle_alpha	85.707386
_cell_angle_beta	100.860631
_cell_angle_gamma	128.054458
loop_
_atom_site_label
_atom_site_type_symbol
_atom_site_fract_x
_atom_site_fract_y
_atom_site_fract_z
V1	V	2.067604	0.143204	0.315036
O2	O	1.988164	-0.008223	0.323209
O3	O	2.112398	0.285239	0.299254
O4	O	2.035388	0.140412	0.458652
O5	O	2.065707	0.137607	0.162707
V6	V	2.301517	0.125161	0.298472
O7	O	2.215451	0.182782	0.351371
O8	O	2.378770	0.085583	0.262137
O9	O	2.145121	-0.016875	0.314254
O10	O	2.439656	0.276588	0.290299
O11	O	2.362114	0.130758	0.450801
O12	O	2.222130	0.127952	0.154856
V13	V	2.567604	0.143204	0.315036
O14	O	2.488164	-0.008223	0.323209
O15	O	2.612398	0.285239	0.299254
O16	O	2.535388	0.140412	0.458652
O17	O	2.565707	0.137607	0.162707
V18	V	2.801517	0.125161	0.298472
O19	O	2.715451	0.182782	0.351371
O20	O	2.878770	0.085583	0.262137
O21	O	2.645121	-0.016875	0.314254
O22	O	2.939656	0.276588	0.290299
O23	O	2.862114	0.130758	0.450801
O24	O	2.722130	0.127952	0.154856
C25	C	2.537251	-0.051513	0.322737
C26	C	2.449657	-0.167624	0.334691
C27	C	2.220190	-0.414888	0.166827
C28	C	2.137885	-0.523985	0.178053
C29	C	2.202734	-0.494918	0.368369
C30	C	2.285039	-0.385821	0.357143
C31	C	2.293764	-0.345810	0.256368
C32	C	2.376077	-0.236711	0.245142
C33	C	2.440918	-0.207645	0.435458
C34	C	2.358613	-0.316743	0.446684
C35	C	2.051941	0.319883	0.290767
C36	C	2.129155	0.435995	0.278821
C37	C	1.953707	0.135141	0.494094
C38	C	1.968465	0.133798	0.611411
C39	C	2.037251	-0.051513	0.322737
C40	C	1.949657	-0.167624	0.334691
C41	C	2.135484	0.133228	0.119408
C42	C	2.110343	0.134565	0.002091
C43	C	2.551941	0.319883	0.290767
C44	C	2.629155	0.435995	0.278821
C45	C	2.182857	0.141640	0.841610
C46	C	2.196728	0.140379	0.951840
C47	C	2.010076	0.130008	0.942102
C48	C	1.996204	0.131269	0.831873
C49	C	2.082600	0.137087	0.781631
C50	C	2.068733	0.138355	0.671399
C51	C	1.882076	0.127976	0.661663
C52	C	1.895947	0.126715	0.771893
C53	C	2.453707	0.135141	0.494094
C54	C	2.468465	0.133798	0.611411
C55	C	2.635484	0.133228	0.119408
C56	C	2.610343	0.134565	0.002091
C57	C	1.992494	-0.227455	0.335542
C58	C	1.910198	-0.336557	0.346757
C59	C	1.785067	-0.385825	0.357127
C60	C	1.742227	-0.325986	0.356272
C61	C	1.824521	-0.216887	0.345050
C62	C	2.758811	0.495827	0.277972
C63	C	2.831380	0.604930	0.266763
C64	C	2.774288	0.654198	0.256395
C65	C	2.644620	0.594358	0.257247
C66	C	2.572056	0.485258	0.268464
C67	C	2.541198	0.228764	0.672458
C68	C	2.555090	0.227519	0.782692
C69	C	2.496241	0.131306	0.831875
C70	C	2.423505	0.036333	0.770820
C71	C	2.409621	0.037580	0.660589
C72	C	2.674052	0.230790	-0.047063
C73	C	2.650429	0.232064	-0.157294
C74	C	2.563104	0.137110	-0.218369
C75	C	2.499388	0.040877	-0.169208
C76	C	2.523004	0.039606	-0.058979
H77	H	2.383180	-0.204136	0.163087
H78	H	2.094379	-0.187357	0.327101
H79	H	1.718071	-0.474661	0.366263
Cl80	Cl	1.770647	-0.141682	0.343986
Cl81	Cl	2.045390	-0.610823	0.065481
Cl82	Cl	2.730549	0.353051	-0.219073
Cl83	Cl	1.964080	-0.411761	0.347832
Cl84	Cl	1.584913	-0.387939	0.369305
Cl85	Cl	2.318150	-0.081822	0.583855
H86	H	2.745160	0.308117	0.002651
Cl87	Cl	2.322768	0.146101	1.027240
Cl88	Cl	2.389614	-0.078485	-0.246004
H89	H	1.939736	0.125264	0.983028
H90	H	2.805318	0.455728	0.286406
Cl91	Cl	2.513704	0.129757	0.970455
Cl92	Cl	2.442907	-0.081377	0.002799
Cl93	Cl	2.409053	0.410052	0.269519
Cl94	Cl	2.231174	-0.364585	0.040142
Cl95	Cl	2.994383	0.680134	0.265687
H96	H	2.195604	-0.527514	0.450415
H97	H	2.351493	-0.349335	0.528732
H98	H	2.833389	0.743034	0.247262
Cl99	Cl	2.533426	-0.120798	0.548031
Cl100	Cl	2.349521	-0.084613	0.832667
H101	H	2.543884	0.138160	-0.308123
H102	H	2.589121	0.307116	0.632428
H103	H	2.139085	0.143097	0.630494
Cl104	Cl	2.646527	0.346924	0.859424
Cl105	Cl	2.291475	0.148969	0.778446
Cl106	Cl	1.756036	0.122259	0.586254
Cl107	Cl	1.787348	0.119407	0.835065
Cl108	Cl	2.572864	0.656309	0.244205
