data_functionalizedCrystal
_audit_creation_method	'MofGen! by Chris Wilmer'
_symmetry_space_group_name_H-M	'P1'
_symmetry_Int_Tables_number	1
_symmetry_cell_setting	triclinic
loop_
_symmetry_equiv_pos_as_xyz
  x,y,z
_cell_length_a	25.639242
_cell_length_b	25.639239
_cell_length_c	25.639233
_cell_angle_alpha	89.981253
_cell_angle_beta	90.022166
_cell_angle_gamma	89.965787
loop_
_atom_site_label
_atom_site_type_symbol
_atom_site_fract_x
_atom_site_fract_y
_atom_site_fract_z
Zn1	Zn	0.799225	0.208277	0.295742
Zn2	Zn	0.799149	0.295696	0.208307
Zn3	Zn	0.711801	0.208269	0.208306
Zn4	Zn	0.711746	0.295676	0.295696
O5	O	0.755480	0.251979	0.252013
O6	O	0.872380	0.219884	0.284163
O7	O	0.787553	0.284103	0.135141
O8	O	0.723453	0.135105	0.219924
O9	O	0.872324	0.284111	0.219924
O10	O	0.787683	0.135111	0.284163
O11	O	0.723379	0.219871	0.135141
O12	O	0.638629	0.219853	0.219880
O13	O	0.723360	0.284078	0.368868
O14	O	0.638589	0.284070	0.284085
O15	O	0.787630	0.219866	0.368901
O16	O	0.787499	0.368858	0.219880
O17	O	0.723286	0.368844	0.284085
C18	C	0.619638	0.251959	0.251977
C19	C	0.561524	0.251963	0.251975
C20	C	0.755392	0.387822	0.251989
C21	C	0.755403	0.445936	0.251996
C22	C	0.201149	0.285473	0.285413
C23	C	0.146544	0.285477	0.285421
O24	O	0.118297	0.313943	0.313821
N25	N	0.119241	0.251994	0.252047
C26	C	0.146545	0.218502	0.218666
O27	O	0.118308	0.190022	0.190280
C28	C	0.201149	0.218496	0.218661
C29	C	0.228449	0.251985	0.252034
C30	C	0.228449	0.318959	0.318783
C31	C	0.283049	0.318956	0.318774
C32	C	0.310350	0.285468	0.285395
C33	C	0.283049	0.251983	0.252024
C34	C	0.228452	0.185002	0.185283
C35	C	0.283059	0.185000	0.185281
C36	C	0.310359	0.218488	0.218654
C37	C	0.364950	0.218492	0.218636
N38	N	0.392253	0.251974	0.252010
C39	C	0.364953	0.285463	0.285389
C40	C	0.031875	0.218515	0.218680
C41	C	-0.022728	0.218523	0.218683
C42	C	-0.022725	0.285497	0.285438
C43	C	0.031878	0.285492	0.285433
C44	C	0.059178	0.251998	0.252054
C45	C	0.479618	0.285455	0.285368
C46	C	0.534223	0.285451	0.285354
C47	C	0.534216	0.218475	0.218601
C48	C	0.479615	0.218481	0.218612
C49	C	0.452318	0.251972	0.252000
O50	O	0.393232	0.190038	0.190252
O51	O	0.393197	0.313933	0.313776
C52	C	0.755497	0.251970	0.388386
C53	C	0.755504	0.251966	0.446500
C54	C	0.891853	0.252000	0.252049
C55	C	0.949967	0.252009	0.252064
C56	C	0.755583	0.115606	0.252048
C57	C	0.755627	0.057492	0.252064
C58	C	0.789004	0.806294	0.218638
C59	C	0.789024	0.860898	0.218645
O60	O	0.817502	0.889131	0.190257
N61	N	0.755572	0.888218	0.252048
C62	C	0.722102	0.860932	0.285449
O63	O	0.693651	0.889184	0.313861
C64	C	0.722085	0.806328	0.285444
C65	C	0.755535	0.779011	0.252036
C66	C	0.822452	0.778976	0.185233
C67	C	0.822431	0.724376	0.185226
C68	C	0.788962	0.697093	0.218623
C69	C	0.755514	0.724410	0.252028
C70	C	0.688617	0.779042	0.318847
C71	C	0.688603	0.724435	0.318840
C72	C	0.722053	0.697118	0.285432
C73	C	0.722024	0.642527	0.285418
N74	N	0.755475	0.615206	0.252016
C75	C	0.788944	0.642490	0.218618
C76	C	0.722141	0.975602	0.285457
C77	C	0.722155	1.030204	0.285459
C78	C	0.789078	1.030167	0.218656
C79	C	0.789061	0.975564	0.218652
C80	C	0.755593	0.948282	0.252055
C81	C	0.788897	0.527824	0.218605
C82	C	0.788872	0.473219	0.218599
C83	C	0.721951	0.473261	0.285403
C84	C	0.721974	0.527862	0.285408
C85	C	0.755452	0.555142	0.252007
O86	O	0.693562	0.614260	0.313793
O87	O	0.817396	0.614231	0.190216
C88	C	0.755494	0.251951	0.116170
C89	C	0.755588	0.251807	0.058057
C90	C	0.789012	0.218432	0.806886
C91	C	0.789019	0.218417	0.861491
O92	O	0.817466	0.189967	0.889747
N93	N	0.755562	0.251844	0.888783
C94	C	0.722093	0.285283	0.861468
O95	O	0.693636	0.313713	0.889695
C96	C	0.722084	0.285294	0.806864
C97	C	0.755547	0.251870	0.779575
C98	C	0.822472	0.185009	0.779597
C99	C	0.822466	0.185025	0.724997
C100	C	0.789000	0.218462	0.697685
C101	C	0.755541	0.251885	0.724974
C102	C	0.688613	0.318731	0.779550
C103	C	0.688607	0.318739	0.724943
C104	C	0.722069	0.285314	0.697654
C105	C	0.722070	0.285338	0.643063
N106	N	0.755526	0.251912	0.615771
C107	C	0.788992	0.218474	0.643082
C108	C	0.722113	0.285256	0.976138
C109	C	0.722124	0.285247	1.030741
C110	C	0.789049	0.218381	1.030760
C111	C	0.789041	0.218392	0.976157
C112	C	0.755570	0.251829	0.948846
C113	C	0.788977	0.218509	0.528417
C114	C	0.788970	0.218529	0.473811
C115	C	0.722043	0.285393	0.473797
C116	C	0.722052	0.285375	0.528397
C117	C	0.755521	0.251929	0.555706
O118	O	0.693635	0.313773	0.614771
O119	O	0.817439	0.190044	0.614847
H120	H	0.457399	0.312726	0.312556
H121	H	0.305272	0.346225	0.345950
N122	N	0.685950	0.321423	0.557823
H123	H	0.661738	0.300157	0.580464
H124	H	0.707203	0.345650	0.580460
H125	H	0.849709	0.801185	0.158037
N126	N	0.825001	0.557237	0.182573
H127	H	0.803777	0.579922	0.158322
H128	H	0.849224	0.579830	0.203877
N129	N	0.685948	0.321457	0.444337
H130	H	0.707173	0.345695	0.421684
H131	H	0.661741	0.300169	0.421708
H132	H	0.556454	0.191211	0.191422
H133	H	0.694699	0.451039	0.312594
H134	H	0.816300	0.953325	0.191448
H135	H	-0.044951	0.191258	0.191502
N136	N	0.450161	0.182380	0.182605
H137	H	0.427526	0.158182	0.203891
H138	H	0.427516	0.203646	0.158356
N139	N	0.858569	0.148935	0.809043
H140	H	0.895916	0.157065	0.799542
H141	H	0.853462	0.154006	0.847768
H142	H	0.661350	0.702225	0.346042
H143	H	0.206233	0.157734	0.158106
H144	H	0.694883	0.953392	0.312656
H145	H	0.694881	0.312471	1.052955
H146	H	0.816221	0.191310	0.451595
N147	N	0.825072	0.182433	0.557866
H148	H	0.846265	0.161265	0.532287
H149	H	0.849257	0.203711	0.580527
H150	H	0.816298	0.191153	1.053007
N151	N	0.563665	0.321575	0.321350
H152	H	0.554186	0.313510	0.358723
H153	H	0.602390	0.316480	0.316237
H154	H	0.849714	0.157806	0.702783
N155	N	0.685895	0.557330	0.321437
H156	H	0.661689	0.580020	0.300168
H157	H	0.664723	0.531726	0.342584
N158	N	0.652535	0.808497	0.354878
H159	H	0.631335	0.782920	0.376032
H160	H	0.673807	0.831122	0.379102
H161	H	0.206227	0.346229	0.345967
H162	H	0.054103	0.312760	0.312609
H163	H	-0.044963	0.312763	0.312619
H164	H	0.816288	0.191174	0.953941
H165	H	0.054099	0.191241	0.191496
H166	H	0.305283	0.157721	0.158103
N167	N	0.824953	0.443755	0.182566
H168	H	0.846159	0.469328	0.161413
H169	H	0.849125	0.421068	0.203873
N170	N	0.858517	0.694916	0.149200
H171	H	0.879723	0.720492	0.128050
H172	H	0.882690	0.672233	0.170512
H173	H	0.694857	0.312487	0.953905
H174	H	0.661345	0.345963	0.702710
N175	N	0.825178	1.059599	0.182633
H176	H	0.820112	1.098335	0.187709
H177	H	0.862511	1.050019	0.190810
H178	H	0.694912	1.052442	0.312659
N179	N	0.652520	0.354782	0.808975
H180	H	0.631320	0.375960	0.783380
H181	H	0.628342	0.333489	0.831624
