data_functionalizedCrystal
_audit_creation_method	'MofGen! by Chris Wilmer'
_symmetry_space_group_name_H-M	'P1'
_symmetry_Int_Tables_number	1
_symmetry_cell_setting	triclinic
loop_
_symmetry_equiv_pos_as_xyz
  x,y,z
_cell_length_a	16.625546
_cell_length_b	16.625548
_cell_length_c	16.625539
_cell_angle_alpha	90.022345
_cell_angle_beta	89.969603
_cell_angle_gamma	89.977673
loop_
_atom_site_label
_atom_site_type_symbol
_atom_site_fract_x
_atom_site_fract_y
_atom_site_fract_z
Zn1	Zn	-0.321003	-1.232680	-0.455936
Zn2	Zn	-0.071003	-0.982680	-0.205936
Zn3	Zn	0.178997	-0.732680	0.044064
Zn4	Zn	0.428997	-0.482680	0.294064
Zn5	Zn	-0.455846	-1.232584	-0.321098
Zn6	Zn	-0.205846	-0.982584	-0.071098
Zn7	Zn	0.044154	-0.732584	0.178902
Zn8	Zn	0.294154	-0.482584	0.428902
Zn9	Zn	-0.321031	-1.097842	-0.321112
Zn10	Zn	-0.071031	-0.847842	-0.071112
Zn11	Zn	0.178969	-0.597842	0.178888
Zn12	Zn	0.428969	-0.347842	0.428888
Zn13	Zn	-0.455797	-1.097813	-0.455884
Zn14	Zn	-0.205797	-0.847813	-0.205884
Zn15	Zn	0.044203	-0.597813	0.044116
Zn16	Zn	0.294203	-0.347813	0.294116
O17	O	-0.388419	-1.165230	-0.388507
O18	O	-0.138419	-0.915230	-0.138507
O19	O	0.111581	-0.665230	0.111493
O20	O	0.361581	-0.415230	0.361493
O21	O	-0.338899	-1.345500	-0.438065
O22	O	-0.088899	-1.095500	-0.188065
O23	O	0.161101	-0.845500	0.061935
O24	O	0.411101	-0.595500	0.311935
O25	O	-0.437995	-1.214682	-0.208268
O26	O	-0.187995	-0.964682	0.041732
O27	O	0.062005	-0.714682	0.291732
O28	O	0.312005	-0.464682	0.541732
O29	O	-0.208195	-1.115782	-0.339024
O30	O	0.041805	-0.865782	-0.089024
O31	O	0.291805	-0.615782	0.160976
O32	O	0.541805	-0.365782	0.410976
O33	O	-0.437968	-1.345429	-0.339001
O34	O	-0.187968	-1.095429	-0.089001
O35	O	0.062032	-0.845429	0.160999
O36	O	0.312032	-0.595429	0.410999
O37	O	-0.208174	-1.214847	-0.438079
O38	O	0.041826	-0.964847	-0.188079
O39	O	0.291826	-0.714847	0.061921
O40	O	0.541826	-0.464847	0.311921
O41	O	-0.338947	-1.115688	-0.208278
O42	O	-0.088947	-0.865688	0.041722
O43	O	0.161053	-0.615688	0.291722
O44	O	0.411053	-0.365688	0.541722
O45	O	-0.338899	-0.985006	-0.338974
O46	O	-0.088899	-0.735006	-0.088974
O47	O	0.161101	-0.485006	0.161026
O48	O	0.411101	-0.235006	0.411026
O49	O	-0.437884	-1.115731	-0.568723
O50	O	-0.187884	-0.865731	-0.318723
O51	O	0.062116	-0.615731	-0.068723
O52	O	0.312116	-0.365731	0.181277
O53	O	-0.437911	-0.984984	-0.437990
O54	O	-0.187911	-0.734984	-0.187990
O55	O	0.062089	-0.484984	0.062010
O56	O	0.312089	-0.234984	0.312010
O57	O	-0.338852	-1.214818	-0.568761
O58	O	-0.088852	-0.964818	-0.318761
O59	O	0.161148	-0.714818	-0.068761
O60	O	0.411148	-0.464818	0.181239
O61	O	-0.568672	-1.214653	-0.338950
O62	O	-0.318672	-0.964653	-0.088950
O63	O	-0.068672	-0.714653	0.161050
O64	O	0.181328	-0.464653	0.411050
O65	O	-0.568636	-1.115637	-0.437977
O66	O	-0.318636	-0.865637	-0.187977
O67	O	-0.068636	-0.615637	0.062023
O68	O	0.181364	-0.365637	0.312023
C69	C	-0.388404	-0.955739	-0.388478
C70	C	-0.138404	-0.705739	-0.138478
C71	C	0.111596	-0.455739	0.111522
C72	C	0.361596	-0.205739	0.361522
C73	C	-0.388416	-0.866118	-0.388485
C74	C	-0.138416	-0.616118	-0.138485
C75	C	0.111584	-0.366118	0.111515
C76	C	0.361584	-0.116118	0.361515
C77	C	-0.388414	-0.537942	-0.388509
C78	C	-0.138414	-0.287942	-0.138509
C79	C	0.111586	-0.037942	0.111491
C80	C	0.361586	0.212058	0.361491
C81	C	-0.388413	-0.629251	-0.388500
C82	C	-0.138413	-0.379251	-0.138500
C83	C	0.111587	-0.129251	0.111500
C84	C	0.361587	0.120749	0.361500
C85	C	-0.388416	-0.702027	-0.388497
C86	C	-0.138416	-0.452027	-0.138497
C87	C	0.111584	-0.202027	0.111503
C88	C	0.361584	0.047973	0.361503
C89	C	-0.388413	-0.793341	-0.388489
C90	C	-0.138413	-0.543341	-0.138489
C91	C	0.111587	-0.293341	0.111511
C92	C	0.361587	-0.043341	0.361511
C93	C	-0.597910	-1.165153	-0.388474
C94	C	-0.347910	-0.915153	-0.138474
C95	C	-0.097910	-0.665153	0.111526
C96	C	0.152090	-0.415153	0.361526
C97	C	-0.687531	-1.165195	-0.388486
C98	C	-0.437531	-0.915195	-0.138486
C99	C	-0.187531	-0.665195	0.111514
C100	C	0.062469	-0.415195	0.361514
C101	C	-1.015707	-1.165335	-0.388570
C102	C	-0.765707	-0.915335	-0.138570
C103	C	-0.515707	-0.665335	0.111430
C104	C	-0.265707	-0.415335	0.361430
C105	C	-0.924399	-1.165294	-0.388549
C106	C	-0.674399	-0.915294	-0.138549
C107	C	-0.424399	-0.665294	0.111451
C108	C	-0.174399	-0.415294	0.361451
C109	C	-0.851622	-1.165264	-0.388528
C110	C	-0.601622	-0.915264	-0.138528
C111	C	-0.351622	-0.665264	0.111472
C112	C	-0.101622	-0.415264	0.361472
C113	C	-0.760308	-1.165224	-0.388508
C114	C	-0.510308	-0.915224	-0.138508
C115	C	-0.260308	-0.665224	0.111492
C116	C	-0.010308	-0.415224	0.361492
C117	C	-0.178111	-1.165328	-0.388559
C118	C	0.071889	-0.915328	-0.138559
C119	C	0.321889	-0.665328	0.111441
C120	C	0.571889	-0.415328	0.361441
C121	C	-0.088489	-1.165370	-0.388581
C122	C	0.161511	-0.915370	-0.138581
C123	C	0.411511	-0.665370	0.111419
C124	C	0.661511	-0.415370	0.361419
C125	C	-0.388359	-1.165282	-0.598816
C126	C	-0.138359	-0.915282	-0.348816
C127	C	0.111641	-0.665282	-0.098816
C128	C	0.361641	-0.415282	0.151184
C129	C	-0.388334	-1.165305	-0.688438
C130	C	-0.138334	-0.915305	-0.438438
C131	C	0.111666	-0.665305	-0.188438
C132	C	0.361666	-0.415305	0.061562
C133	C	-0.388431	-0.375539	-0.388529
C134	C	-0.138431	-0.125539	-0.138529
C135	C	0.111569	0.124461	0.111471
C136	C	0.361569	0.374461	0.361471
C137	C	-0.388422	-0.465160	-0.388519
C138	C	-0.138422	-0.215160	-0.138519
C139	C	0.111578	0.034840	0.111481
C140	C	0.361578	0.284840	0.361481
C141	C	-0.388243	-1.165342	-1.016614
C142	C	-0.138243	-0.915342	-0.766614
C143	C	0.111757	-0.665342	-0.516614
C144	C	0.361757	-0.415342	-0.266614
C145	C	-0.388271	-1.165329	-0.925305
C146	C	-0.138271	-0.915329	-0.675305
C147	C	0.111729	-0.665329	-0.425305
C148	C	0.361729	-0.415329	-0.175305
C149	C	-0.388289	-1.165324	-0.852529
C150	C	-0.138289	-0.915324	-0.602529
C151	C	0.111711	-0.665324	-0.352529
C152	C	0.361711	-0.415324	-0.102529
C153	C	-0.388316	-1.165310	-0.761214
C154	C	-0.138316	-0.915310	-0.511214
C155	C	0.111684	-0.665310	-0.261214
C156	C	0.361684	-0.415310	-0.011214
C157	C	-0.388421	-1.165224	-0.179017
C158	C	-0.138421	-0.915224	0.070983
C159	C	0.111579	-0.665224	0.320983
C160	C	0.361579	-0.415224	0.570983
C161	C	-0.388220	-1.165358	-0.089396
C162	C	-0.138220	-0.915358	0.160604
C163	C	0.111780	-0.665358	0.410604
C164	C	0.361780	-0.415358	0.660604
