data_functionalizedCrystal
_audit_creation_method	'MofGen! by Chris Wilmer'
_symmetry_space_group_name_H-M	'P1'
_symmetry_Int_Tables_number	1
_symmetry_cell_setting	triclinic
loop_
_symmetry_equiv_pos_as_xyz
  x,y,z
_cell_length_a	19.188933
_cell_length_b	18.266242
_cell_length_c	15.944551
_cell_angle_alpha	89.993922
_cell_angle_beta	96.677846
_cell_angle_gamma	90.007525
loop_
_atom_site_label
_atom_site_type_symbol
_atom_site_fract_x
_atom_site_fract_y
_atom_site_fract_z
O1	O	0.926420	0.060858	-0.104873
O2	O	1.259753	0.394191	0.228460
O3	O	1.593086	0.727525	0.561793
O4	O	0.723145	0.060865	-0.118989
O5	O	1.056478	0.394198	0.214345
O6	O	1.389812	0.727532	0.547678
O7	O	0.830333	0.060855	0.010365
O8	O	1.163667	0.394188	0.343698
O9	O	1.497000	0.727521	0.677031
O10	O	0.819231	0.060868	-0.234227
O11	O	1.152565	0.394202	0.099107
O12	O	1.485898	0.727535	0.432440
O13	O	0.830315	-0.060907	0.010368
O14	O	1.163648	0.272426	0.343701
O15	O	1.496982	0.605760	0.677035
O16	O	0.723127	-0.060897	-0.118985
O17	O	1.056460	0.272436	0.214348
O18	O	1.389793	0.605770	0.547682
O19	O	0.926401	-0.060904	-0.104870
O20	O	1.259735	0.272429	0.228463
O21	O	1.593068	0.605763	0.561797
Zn22	Zn	0.824761	-0.080233	-0.111927
Zn23	Zn	1.158094	0.253101	0.221407
Zn24	Zn	1.491428	0.586434	0.554740
Zn25	Zn	0.824785	0.080194	-0.111932
Zn26	Zn	1.158118	0.413527	0.221402
Zn27	Zn	1.491452	0.746861	0.554735
O28	O	0.819213	-0.060894	-0.234223
O29	O	1.152546	0.272440	0.099110
O30	O	1.485880	0.605773	0.432444
C31	C	0.697124	-0.000015	-0.118529
C32	C	1.030457	0.333318	0.214804
C33	C	1.363790	0.666652	0.548137
C34	C	0.619616	-0.000013	-0.117156
C35	C	0.952949	0.333321	0.216177
C36	C	1.286282	0.666654	0.549510
N37	N	0.824750	-0.189720	-0.111923
N38	N	1.158083	0.143614	0.221410
N39	N	1.491416	0.476947	0.554744
C40	C	0.066345	0.066351	-0.107359
C41	C	0.399678	0.399685	0.225974
C42	C	0.733011	0.733018	0.559307
C43	C	0.139172	0.066354	-0.108644
C44	C	0.472506	0.399688	0.224689
C45	C	0.805839	0.733021	0.558022
C46	C	0.175581	-0.000018	-0.109289
C47	C	0.508914	0.333316	0.224044
C48	C	0.842248	0.666649	0.557378
C49	C	0.139159	-0.066398	-0.108627
C50	C	0.472492	0.266935	0.224707
C51	C	0.805825	0.600269	0.558040
C52	C	0.066333	-0.066399	-0.107333
C53	C	0.399667	0.266934	0.226000
C54	C	0.733000	0.600268	0.559334
N55	N	0.284722	-0.049419	-0.159115
N56	N	0.618056	0.283914	0.174218
N57	N	0.951389	0.617248	0.507551
N58	N	0.353903	-0.049413	-0.160346
N59	N	0.687237	0.283920	0.172987
N60	N	1.020570	0.617253	0.506321
C61	C	0.395000	-0.000019	-0.113184
C62	C	0.728333	0.333315	0.220149
C63	C	1.061667	0.666648	0.553483
N64	N	0.364301	0.049381	-0.064756
N65	N	0.697634	0.382715	0.268577
N66	N	1.030968	0.716048	0.601911
N67	N	0.295113	0.049378	-0.063529
N68	N	0.628447	0.382711	0.269804
N69	N	0.961780	0.716045	0.603138
C70	C	0.254548	-0.000024	-0.110691
C71	C	0.587881	0.333309	0.222642
C72	C	0.921215	0.666643	0.555976
C73	C	0.510382	0.066360	-0.115234
C74	C	0.843716	0.399693	0.218100
C75	C	1.177049	0.733027	0.551433
C76	C	0.583212	0.066360	-0.116513
C77	C	0.916545	0.399694	0.216820
C78	C	1.249878	0.733027	0.550153
C79	C	0.583196	-0.066394	-0.116504
C80	C	0.916529	0.266939	0.216829
C81	C	1.249862	0.600273	0.550163
C82	C	0.510368	-0.066392	-0.115216
C83	C	0.843702	0.266941	0.218118
C84	C	1.177035	0.600275	0.551451
C85	C	0.473966	-0.000013	-0.114585
C86	C	0.807299	0.333320	0.218749
C87	C	1.140632	0.666654	0.552082
C88	C	0.867090	-0.228021	-0.162746
C89	C	1.200424	0.105312	0.170587
C90	C	1.533757	0.438646	0.503920
C91	C	0.867102	-0.304666	-0.162744
C92	C	1.200435	0.028667	0.170589
C93	C	1.533768	0.362001	0.503923
C94	C	0.824760	-0.343007	-0.111928
C95	C	1.158093	-0.009673	0.221405
C96	C	1.491427	0.323660	0.554739
C97	C	0.782417	-0.304696	-0.061095
C98	C	1.115750	0.028637	0.272239
C99	C	1.449083	0.361971	0.605572
C100	C	0.782412	-0.228053	-0.061092
C101	C	1.115745	0.105281	0.272241
C102	C	1.449078	0.438614	0.605575
N103	N	0.763607	-0.463357	-0.109858
N104	N	1.096940	-0.130024	0.223475
N105	N	1.430273	0.203309	0.556808
N106	N	0.763613	-0.536165	-0.109866
N107	N	1.096947	-0.202832	0.223468
N108	N	1.430280	0.130501	0.556801
C109	C	0.824774	-0.573929	-0.111931
C110	C	1.158107	-0.240596	0.221402
C111	C	1.491440	0.092738	0.554735
N112	N	0.885928	-0.536134	-0.114006
N113	N	1.219261	-0.202801	0.219327
N114	N	1.552594	0.130533	0.552661
N115	N	0.885920	-0.463319	-0.114003
N116	N	1.219254	-0.129986	0.219330
N117	N	1.552587	0.203347	0.552664
C118	C	0.824761	-0.426114	-0.111925
C119	C	1.158094	-0.092780	0.221409
C120	C	1.491428	0.240553	0.554742
C121	C	0.867130	-0.695337	-0.162755
C122	C	1.200464	-0.362004	0.170579
C123	C	1.533797	-0.028671	0.503912
C124	C	0.867143	-0.771984	-0.162746
C125	C	1.200477	-0.438650	0.170587
C126	C	1.533810	-0.105317	0.503921
C127	C	0.782452	-0.772012	-0.061102
C128	C	1.115785	-0.438679	0.272232
C129	C	1.449119	-0.105346	0.605565
C130	C	0.782445	-0.695368	-0.061105
C131	C	1.115779	-0.362034	0.272228
C132	C	1.449112	-0.028701	0.605562
C133	C	0.824783	-0.657035	-0.111936
C134	C	1.158117	-0.323701	0.221397
C135	C	1.491450	0.009632	0.554731
C136	C	0.952423	-0.000022	-0.105329
C137	C	1.285756	0.333311	0.228004
C138	C	1.619089	0.666645	0.561338
C139	C	1.029931	-0.000020	-0.106702
C140	C	1.363264	0.333314	0.226631
C141	C	1.696597	0.666647	0.559965
C142	C	0.829863	-0.000026	0.041659
C143	C	1.163196	0.333307	0.374992
C144	C	1.496530	0.666640	0.708325
C145	C	0.828481	-0.000027	0.134899
C146	C	1.161815	0.333307	0.468233
C147	C	1.495148	0.666640	0.801566
N148	N	0.824802	0.189681	-0.111929
N149	N	1.158135	0.523014	0.221405
N150	N	1.491469	0.856348	0.554738
C151	C	0.819683	-0.000011	-0.265517
C152	C	1.153016	0.333322	0.067816
C153	C	1.486350	0.666656	0.401150
C154	C	0.821065	-0.000006	-0.358758
C155	C	1.154398	0.333328	-0.025425
C156	C	1.487731	0.666661	0.307909
C157	C	0.758738	-0.000014	0.349496
C158	C	1.092072	0.333319	0.682829
C159	C	1.425405	0.666653	1.016163
C160	C	0.791116	-0.060051	0.410636
C161	C	1.124449	0.273282	0.743969
C162	C	1.457782	0.606615	1.077302
C163	C	0.825982	-0.000021	0.305616
C164	C	1.159315	0.333312	0.638949
C165	C	1.492648	0.666646	0.972283
C166	C	0.791150	0.059996	0.410616
C167	C	1.124483	0.393330	0.743949
C168	C	1.457816	0.726663	1.077282
C169	C	0.823562	-0.000012	0.470520
C170	C	1.156896	0.333321	0.803853
C171	C	1.490229	0.666654	1.137186
C172	C	0.858378	-0.060108	0.365528
C173	C	1.191711	0.273226	0.698861
C174	C	1.525044	0.606559	1.032194
C175	C	0.858402	0.059994	0.365501
C176	C	1.191735	0.393327	0.698835
C177	C	1.525069	0.726661	1.032168
C178	C	0.890828	-0.000058	0.426624
C179	C	1.224162	0.333276	0.759957
C180	C	1.557495	0.666609	1.093291
C181	C	0.827374	-0.000027	0.210619
C182	C	1.160707	0.333307	0.543952
C183	C	1.494040	0.666640	0.877286
C184	C	0.822176	-0.000012	0.565516
C185	C	1.155509	0.333321	0.898849
C186	C	1.488842	0.666655	1.232182
H187	H	0.036711	0.120403	-0.106842
H188	H	0.370044	0.453736	0.226491
H189	H	0.703377	0.787069	0.559825
C190	C	0.735879	-0.814174	-0.005199
C191	C	1.069212	-0.480841	0.328134
C192	C	1.402545	-0.147508	0.661468
H193	H	0.710663	-0.780383	0.025074
H194	H	1.043996	-0.447049	0.358407
H195	H	1.377330	-0.113716	0.691740
H196	H	0.703750	-0.844079	-0.039711
H197	H	1.037083	-0.510746	0.293622
H198	H	1.370417	-0.177413	0.626956
H199	H	0.764499	-0.844067	0.033546
H200	H	1.097832	-0.510734	0.366880
H201	H	1.431165	-0.177401	0.700213
H202	H	0.480719	-0.120439	-0.114684
H203	H	0.814053	0.212894	0.218650
H204	H	1.147386	0.546228	0.551983
H205	H	0.168826	0.120404	-0.109184
H206	H	0.502160	0.453737	0.224149
H207	H	0.835493	0.787070	0.557482
H208	H	0.946692	-0.000094	0.459991
H209	H	1.280025	0.333240	0.793324
H210	H	1.613359	0.666573	1.126658
C211	C	0.913666	-0.185859	-0.218651
C212	C	1.246999	0.147475	0.114682
C213	C	1.580333	0.480808	0.448016
H214	H	0.938889	-0.219651	-0.248914
H215	H	1.272222	0.113682	0.084419
H216	H	1.605555	0.447015	0.417752
H217	H	0.885056	-0.155959	-0.257391
H218	H	1.218389	0.177374	0.075942
H219	H	1.551723	0.510707	0.409275
H220	H	0.945800	-0.155961	-0.184128
H221	H	1.279133	0.177373	0.149205
H222	H	1.612467	0.510706	0.482538
C223	C	0.179204	-0.139405	-0.109339
C224	C	0.512538	0.193928	0.223994
C225	C	0.845871	0.527261	0.557328
H226	H	0.227792	-0.129899	-0.110213
H227	H	0.561125	0.203434	0.223121
H228	H	0.894458	0.536767	0.556454
H229	H	0.172592	-0.166680	-0.060154
H230	H	0.505926	0.166653	0.273179
H231	H	0.839259	0.499987	0.606512
H232	H	0.161941	-0.166674	-0.158102
H233	H	0.495274	0.166659	0.175231
H234	H	0.828607	0.499992	0.508564
H235	H	0.901605	-0.664125	-0.204144
H236	H	1.234938	-0.330792	0.129190
H237	H	1.568272	0.002542	0.462523
H238	H	0.612839	-0.120435	-0.117026
H239	H	0.946172	0.212898	0.216308
H240	H	1.279506	0.546231	0.549641
H241	H	0.747964	-0.664182	-0.019723
H242	H	1.081298	-0.330849	0.313611
H243	H	1.414631	0.002484	0.646944
C244	C	0.735819	-0.185916	-0.005206
C245	C	1.069152	0.147417	0.328127
C246	C	1.402486	0.480751	0.661460
H247	H	0.741878	-0.134780	-0.012486
H248	H	1.075211	0.198554	0.320847
H249	H	1.408545	0.531887	0.654180
H250	H	0.688055	-0.198494	-0.020966
H251	H	1.021388	0.134840	0.312367
H252	H	1.354722	0.468173	0.645701
H253	H	0.748786	-0.198471	0.052313
H254	H	1.082119	0.134863	0.385646
H255	H	1.415453	0.468196	0.718979
C256	C	0.896751	-0.128754	0.338674
C257	C	1.230084	0.204579	0.672007
C258	C	1.563417	0.537912	1.005340
H259	H	0.897369	-0.128352	0.279183
H260	H	1.230702	0.204981	0.612516
H261	H	1.564036	0.538314	0.945850
H262	H	0.943531	-0.128933	0.365778
H263	H	1.276865	0.204400	0.699111
H264	H	1.610198	0.537734	1.032444
H265	H	0.873010	-0.171333	0.354481
H266	H	1.206344	0.162001	0.687814
H267	H	1.539677	0.495334	1.021148
C268	C	0.683342	-0.000090	0.304212
C269	C	1.016675	0.333243	0.637545
C270	C	1.350008	0.666576	0.970878
H271	H	0.659556	-0.042800	0.319547
H272	H	0.992889	0.290533	0.652880
H273	H	1.326223	0.623866	0.986213
H274	H	0.659220	0.042126	0.320292
H275	H	0.992554	0.375459	0.653626
H276	H	1.325887	0.708793	0.986959
H277	H	0.684738	0.000340	0.244851
H278	H	1.018072	0.333673	0.578184
H279	H	1.351405	0.667007	0.911518
C280	C	0.913671	-0.346806	-0.218660
C281	C	1.247005	-0.013473	0.114674
C282	C	1.580338	0.319860	0.448007
H283	H	0.938881	-0.312999	-0.248937
H284	H	1.272214	0.020334	0.084397
H285	H	1.605547	0.353667	0.417730
H286	H	0.945806	-0.376707	-0.184153
H287	H	1.279139	-0.043374	0.149180
H288	H	1.612472	0.289960	0.482513
H289	H	0.885049	-0.376701	-0.257402
H290	H	1.218383	-0.043368	0.075932
H291	H	1.551716	0.289965	0.409265
H292	H	0.747942	-0.335918	-0.019719
H293	H	1.081276	-0.002585	0.313614
H294	H	1.414609	0.330749	0.646948
C295	C	0.470336	0.139372	-0.114543
C296	C	0.803669	0.472706	0.218790
C297	C	1.137003	0.806039	0.552124
H298	H	0.502457	0.178903	-0.115110
H299	H	0.835791	0.512236	0.218223
H300	H	1.169124	0.845569	0.551557
H301	H	0.436609	0.142126	-0.163015
H302	H	0.769943	0.475460	0.170318
H303	H	1.103276	0.808793	0.503651
H304	H	0.447245	0.142136	-0.065067
H305	H	0.780578	0.475469	0.268266
H306	H	1.113912	0.808803	0.601600
C307	C	0.913720	-0.814115	-0.218655
C308	C	1.247053	-0.480782	0.114678
C309	C	1.580387	-0.147449	0.448012
H310	H	0.938927	-0.780306	-0.248931
H311	H	1.272261	-0.446972	0.084402
H312	H	1.605594	-0.113639	0.417735
H313	H	0.945857	-0.844010	-0.184144
H314	H	1.279190	-0.510677	0.149190
H315	H	1.612523	-0.177344	0.482523
H316	H	0.885105	-0.844016	-0.257398
H317	H	1.218438	-0.510683	0.075936
H318	H	1.551772	-0.177349	0.409269
C319	C	0.752687	-0.128614	0.437665
C320	C	1.086020	0.204719	0.770998
C321	C	1.419353	0.538053	1.104332
H322	H	0.705764	-0.128541	0.410989
H323	H	1.039097	0.204793	0.744323
H324	H	1.372430	0.538126	1.077656
H325	H	0.776116	-0.171247	0.421471
H326	H	1.109449	0.162087	0.754804
H327	H	1.442783	0.495420	1.088138
H328	H	0.752459	-0.128342	0.497213
H329	H	1.085793	0.204991	0.830547
H330	H	1.419126	0.538324	1.163880
H331	H	0.886826	0.110751	0.345476
H332	H	1.220160	0.444085	0.678809
H333	H	1.553493	0.777418	1.012142
H334	H	0.762707	0.110757	0.430585
H335	H	1.096041	0.444090	0.763918
H336	H	1.429374	0.777423	1.097252
C337	C	0.623271	0.139371	-0.117241
C338	C	0.956604	0.472704	0.216092
C339	C	1.289937	0.806037	0.549425
H340	H	0.671858	0.129866	-0.118094
H341	H	1.005191	0.463199	0.215239
H342	H	1.338524	0.796533	0.548573
H343	H	0.606015	0.166637	-0.166007
H344	H	0.939349	0.499971	0.167326
H345	H	1.272682	0.833304	0.500659
H346	H	0.616661	0.166647	-0.068059
H347	H	0.949994	0.499981	0.265274
H348	H	1.283328	0.833314	0.598607
C349	C	0.026252	-0.139408	-0.106800
C350	C	0.359585	0.193925	0.226533
C351	C	0.692919	0.527259	0.559867
H352	H	-0.022339	-0.129902	-0.105991
H353	H	0.310994	0.203431	0.227343
H354	H	0.644327	0.536765	0.560676
H355	H	0.032913	-0.166578	-0.156036
H356	H	0.366247	0.166755	0.177298
H357	H	0.699580	0.500089	0.510631
H358	H	0.043442	-0.166782	-0.058086
H359	H	0.376776	0.166551	0.275247
H360	H	0.710109	0.499884	0.608581
