data_functionalizedCrystal
_audit_creation_method	'MofGen! by Chris Wilmer'
_symmetry_space_group_name_H-M	'P1'
_symmetry_Int_Tables_number	1
_symmetry_cell_setting	triclinic
loop_
_symmetry_equiv_pos_as_xyz
  x,y,z
_cell_length_a	16.992695
_cell_length_b	16.992694
_cell_length_c	15.455301
_cell_angle_alpha	87.178730
_cell_angle_beta	87.173129
_cell_angle_gamma	90.668223
loop_
_atom_site_label
_atom_site_type_symbol
_atom_site_fract_x
_atom_site_fract_y
_atom_site_fract_z
O1	O	-0.170180	-1.054114	0.072023
O2	O	-0.168350	-0.825715	0.072049
O3	O	-0.055064	-0.938999	0.072029
O4	O	-0.283465	-0.940831	0.072043
O5	O	-0.048524	-0.932451	-0.072233
O6	O	-0.161809	-0.819168	-0.072214
O7	O	-0.163639	-1.047566	-0.072239
Cu8	Cu	-0.162127	-0.932769	-0.085399
Cu9	Cu	-0.169862	-0.940513	0.085208
O10	O	-0.276925	-0.934283	-0.072220
C11	C	-0.162724	-0.793081	-0.000079
C12	C	-0.155696	-0.705597	-0.000070
C13	C	-0.022434	-0.933369	-0.000102
C14	C	0.065051	-0.926341	-0.000101
C15	C	-0.169265	-1.080200	-0.000109
C16	C	-0.176294	-1.167685	-0.000113
C17	C	-0.309555	-0.939913	-0.000087
C18	C	-0.397040	-0.946942	-0.000082
C19	C	0.111042	-0.994158	-0.000109
C20	C	0.193242	-0.987550	-0.000100
C21	C	0.229450	-0.913122	-0.000089
C22	C	0.183452	-0.845300	-0.000078
C23	C	0.101253	-0.851910	-0.000081
C24	C	0.474764	-0.885729	-0.000074
C25	C	0.556969	-0.879124	-0.000074
C26	C	0.566753	-1.021375	-0.000094
C27	C	0.484552	-1.027977	-0.000102
C28	C	0.438562	-0.960155	-0.000087
N29	N	0.313472	-0.906366	-0.000082
N30	N	0.354541	-0.966913	-0.000087
N31	N	-0.156687	-0.927328	-0.205394
C32	C	-0.223514	-0.659607	-0.000066
C33	C	-0.216904	-0.577405	-0.000079
C34	C	-0.142476	-0.541197	-0.000088
C35	C	-0.074653	-0.587193	-0.000094
C36	C	-0.081263	-0.669393	-0.000088
C37	C	-0.115080	-0.295881	-0.000113
C38	C	-0.108476	-0.213676	-0.000116
C39	C	-0.250728	-0.203893	-0.000103
C40	C	-0.257331	-0.286095	-0.000091
C41	C	-0.189508	-0.332084	-0.000102
N42	N	-0.135718	-0.457174	-0.000098
N43	N	-0.196266	-0.416105	-0.000098
C44	C	-0.205394	-0.976004	-0.250787
C45	C	-0.201276	-0.971900	-0.341595
C46	C	-0.148453	-0.919115	-0.387009
C47	C	-0.099741	-0.870437	-0.341609
C48	C	-0.103856	-0.874546	-0.250803
C49	C	-0.130699	-0.901390	-0.658590
C50	C	-0.126589	-0.897283	-0.749403
C51	C	-0.228123	-0.998748	-0.749383
C52	C	-0.232237	-1.002849	-0.658575
C53	C	-0.183522	-0.954174	-0.613183
N54	N	-0.144244	-0.914917	-0.479829
N55	N	-0.187728	-0.958376	-0.520365
N56	N	-0.175296	-0.945959	0.205204
H57	H	0.081568	-1.054764	-0.000124
H58	H	0.230685	-1.042774	-0.000109
C59	C	0.444730	-1.109853	-0.000116
N60	N	0.414736	-1.171522	-0.000129
H61	H	0.063808	-0.796685	-0.000073
C62	C	0.007219	-0.547361	-0.000106
N63	N	0.068887	-0.517360	-0.000112
H64	H	0.604207	-1.076591	-0.000106
H65	H	-0.056728	-0.827462	-0.378592
C66	C	-0.263503	-1.034073	-0.200841
N67	N	-0.307270	-1.077815	-0.163224
H68	H	-0.267784	-1.038377	-0.786350
H69	H	-0.275248	-1.045834	-0.621605
H70	H	-0.083574	-0.854295	-0.786376
C71	C	-0.339207	-0.325917	-0.000095
N72	N	-0.400877	-0.355912	-0.000099
H73	H	-0.091031	-0.861756	-0.621644
H74	H	-0.064193	-0.834908	-0.213845
H75	H	0.586447	-0.818513	-0.000079
H76	H	-0.240937	-1.011539	-0.378550
C77	C	-0.305391	-0.699428	-0.000057
N78	N	-0.367063	-0.729419	-0.000055
C79	C	-0.291509	-0.526818	-0.000090
N80	N	-0.347705	-0.488716	-0.000106
H81	H	0.437328	-0.830502	-0.000061
H82	H	0.212939	-0.784700	-0.000063
H83	H	-0.305945	-0.166440	-0.000096
C84	C	-0.026596	-0.173848	-0.000126
N85	N	0.035073	-0.143850	-0.000131
H86	H	-0.026038	-0.706838	-0.000090
C87	C	-0.040472	-0.346459	-0.000119
N88	N	0.015727	-0.384558	-0.000122
