data_functionalizedCrystal
_audit_creation_method	'MofGen! by Chris Wilmer'
_symmetry_space_group_name_H-M	'P1'
_symmetry_Int_Tables_number	1
_symmetry_cell_setting	triclinic
loop_
_symmetry_equiv_pos_as_xyz
  x,y,z
_cell_length_a	17.699083
_cell_length_b	15.538191
_cell_length_c	16.776229
_cell_angle_alpha	89.995703
_cell_angle_beta	89.998886
_cell_angle_gamma	65.277554
loop_
_atom_site_label
_atom_site_type_symbol
_atom_site_fract_x
_atom_site_fract_y
_atom_site_fract_z
O1	O	0.971508	0.119201	-0.066172
O2	O	1.471508	0.619201	0.433828
O3	O	0.746892	0.134709	-0.066198
O4	O	1.246892	0.634709	0.433802
O5	O	0.902923	-0.010275	-0.066184
O6	O	1.402923	0.489725	0.433816
O7	O	0.815476	0.264184	-0.066186
O8	O	1.315476	0.764184	0.433814
O9	O	0.902910	-0.010283	0.066393
O10	O	1.402910	0.489717	0.566393
O11	O	0.746879	0.134700	0.066379
O12	O	1.246879	0.634700	0.566379
O13	O	0.971495	0.119192	0.066404
O14	O	1.471495	0.619192	0.566404
Zn15	Zn	0.859185	0.126945	0.087441
Zn16	Zn	1.359185	0.626945	0.587441
Zn17	Zn	0.859202	0.126956	-0.087235
Zn18	Zn	1.359202	0.626956	0.412765
O19	O	0.815463	0.264176	0.066390
O20	O	1.315463	0.764176	0.566390
C21	C	0.718840	0.134149	0.000087
C22	C	1.218840	0.634149	0.500087
C23	C	0.635277	0.132482	0.000077
C24	C	1.135277	0.632482	0.500077
C25	C	0.563403	0.217584	0.000077
C26	C	1.063403	0.717584	0.500077
C27	C	0.484889	0.216012	0.000087
C28	C	0.984889	0.716012	0.500087
C29	C	0.478252	0.129337	0.000092
C30	C	0.978252	0.629337	0.500092
C31	C	0.550134	0.044228	0.000095
C32	C	1.050134	0.544228	0.500095
C33	C	0.628646	0.045801	0.000090
C34	C	1.128646	0.545801	0.500090
C35	C	0.233505	0.037882	0.000115
C36	C	0.733505	0.537882	0.500115
C37	C	0.154985	0.036316	0.000117
C38	C	0.654985	0.536316	0.500117
C39	C	0.089748	0.208094	0.000111
C40	C	0.589748	0.708094	0.500111
C41	C	0.168260	0.209667	0.000107
C42	C	0.668260	0.709667	0.500107
C43	C	0.240135	0.124558	0.000114
C44	C	0.740135	0.624558	0.500114
C45	C	0.325269	0.126264	0.000104
C46	C	0.825269	0.626264	0.500104
C47	C	0.393120	0.127630	0.000096
C48	C	0.893120	0.627630	0.500096
C49	C	0.912066	-0.045395	0.000103
C50	C	1.412066	0.454605	0.500103
C51	C	0.939318	-0.150032	0.000098
C52	C	1.439318	0.349968	0.500098
C53	C	0.668571	-0.437202	0.000084
C54	C	1.168571	0.062798	0.500084
C55	C	0.694198	-0.535527	0.000089
C56	C	1.194198	-0.035527	0.500089
C57	C	0.838344	-0.558300	0.000105
C58	C	1.338344	-0.058300	0.500105
C59	C	0.812729	-0.459975	0.000096
C60	C	1.312729	0.040025	0.500096
C61	C	0.727842	-0.399434	0.000087
C62	C	1.227842	0.100566	0.500087
C63	C	0.872000	-0.422207	0.000099
C64	C	1.372000	0.077793	0.500099
C65	C	0.846387	-0.323891	0.000095
C66	C	1.346387	0.176109	0.500095
C67	C	0.761503	-0.263343	0.000087
C68	C	1.261503	0.236657	0.500087
C69	C	0.702229	-0.301118	0.000082
C70	C	1.202229	0.198882	0.500082
C71	C	0.956887	-0.482750	0.000114
C72	C	1.456887	0.017250	0.500114
C73	C	1.016158	-0.444981	0.000117
C74	C	1.516158	0.055019	0.500117
C75	C	0.990545	-0.346663	0.000107
C76	C	1.490545	0.153337	0.500107
C77	C	0.905661	-0.286116	0.000100
C78	C	1.405661	0.213884	0.500100
C79	C	1.049819	-0.308889	0.000112
C80	C	1.549819	0.191111	0.500112
C81	C	1.024206	-0.210573	0.000107
C82	C	1.524206	0.289427	0.500107
C83	C	0.880048	-0.187800	0.000095
C84	C	1.380048	0.312200	0.500095
C85	C	0.999546	0.119752	0.000117
C86	C	1.499546	0.619752	0.500117
C87	C	1.083109	0.121419	0.000122
C88	C	1.583109	0.621419	0.500122
C89	C	0.806321	0.299297	0.000102
C90	C	1.306321	0.799297	0.500102
C91	C	0.779068	0.403933	0.000101
C92	C	1.279068	0.903933	0.500101
N93	N	0.859179	0.126936	0.206652
N94	N	1.359179	0.626936	0.706652
N95	N	0.859216	0.126957	-0.206446
N96	N	1.359216	0.626957	0.293554
C97	C	0.928278	0.062764	0.248375
C98	C	1.428278	0.562764	0.748375
C99	C	0.928282	0.062763	0.331827
C100	C	1.428282	0.562763	0.831827
C101	C	0.859189	0.126940	0.373555
C102	C	1.359189	0.626940	0.873555
C103	C	0.790084	0.191115	0.331826
C104	C	1.290084	0.691115	0.831826
C105	C	0.790078	0.191111	0.248375
C106	C	1.290078	0.691111	0.748375
C107	C	0.790106	0.191134	0.668373
C108	C	1.290106	0.691134	1.168373
C109	C	0.790118	0.191135	0.751829
C110	C	1.290118	0.691135	1.251829
C111	C	0.928310	0.062786	0.751825
C112	C	1.428310	0.562786	1.251825
C113	C	0.928304	0.062781	0.668375
C114	C	1.428304	0.562781	1.168375
C115	C	0.859198	0.126953	0.626653
C116	C	1.359198	0.626953	1.126653
C117	C	0.859193	0.126952	0.536164
C118	C	1.359193	0.626952	1.036164
C119	C	0.859195	0.126946	0.464042
C120	C	1.359195	0.626946	0.964042
H121	H	0.173657	0.280246	0.000099
H122	H	0.673657	0.780246	0.500099
H123	H	0.733851	0.243398	0.785803
H124	H	1.233851	0.743398	1.285803
O125	O	0.577012	-0.371898	0.000072
O126	O	1.077012	0.128102	0.500072
H127	H	0.569163	-0.297189	0.000066
H128	H	1.069163	0.202811	0.500066
O129	O	0.311018	-0.053913	0.000116
O130	O	0.811018	0.446087	0.500116
H131	H	0.366731	-0.038265	0.000122
H132	H	0.866731	0.461735	0.500122
O133	O	0.715562	0.260345	0.376826
O134	O	1.215562	0.760345	0.876826
H135	H	0.689668	0.220733	0.414864
H136	H	1.189668	0.720733	0.914864
H137	H	0.733838	0.243386	0.634410
H138	H	1.233838	0.743386	1.134410
H139	H	0.733809	0.243365	0.214405
H140	H	1.233809	0.743365	0.714405
H141	H	0.984547	0.010508	0.365798
H142	H	1.484547	0.510508	0.865798
H143	H	0.568797	0.288165	0.000072
H144	H	1.068797	0.788165	0.500072
O145	O	1.107712	-0.510279	0.000129
O146	O	1.607712	-0.010279	0.500129
H147	H	1.115567	-0.584991	0.000129
H148	H	1.615567	-0.084991	0.500129
O149	O	0.929899	-0.623600	0.000121
O150	O	1.429899	-0.123600	0.500121
H151	H	0.945025	-0.668935	-0.053914
H152	H	1.445025	-0.168935	0.446086
O153	O	0.542983	-0.049262	0.000103
O154	O	1.042983	0.450738	0.500103
H155	H	0.476314	-0.036060	0.000099
H156	H	0.976314	0.463940	0.500099
O157	O	1.002820	-0.006446	0.623366
O158	O	1.502820	0.493554	1.123366
H159	H	1.058553	0.005459	0.639372
H160	H	1.558553	0.505459	1.139372
H161	H	0.645927	-0.566272	0.000098
H162	H	1.145927	-0.066272	0.500098
H163	H	1.072470	-0.179822	0.000111
H164	H	1.572470	0.320178	0.500111
O165	O	0.407364	0.307800	0.000087
O166	O	0.907364	0.807800	0.500087
H167	H	0.425170	0.368335	0.000073
H168	H	0.925170	0.868335	0.500073
H169	H	0.031216	0.277393	0.000110
H170	H	0.531216	0.777393	0.500110
H171	H	0.977738	-0.562804	0.000111
H172	H	1.477738	-0.062804	0.500111
O173	O	1.002847	-0.006441	0.796824
O174	O	1.502847	0.493559	1.296824
H175	H	0.991245	0.004331	0.861863
H176	H	1.491245	0.504331	1.361863
H177	H	0.149589	-0.034270	0.000122
H178	H	0.649589	0.465730	0.500122
O179	O	1.141373	-0.374189	0.000131
O180	O	1.641373	0.125811	0.500131
H181	H	1.149226	-0.448900	0.000135
H182	H	1.649226	0.051100	0.500135
H183	H	0.810924	-0.138503	0.000082
H184	H	1.310924	0.361497	0.500082
H185	H	0.687169	-0.023498	0.000090
H186	H	1.187169	0.476502	0.500090
O187	O	0.733865	-0.157299	0.000086
O188	O	1.233865	0.342701	0.500086
H189	H	0.758222	-0.136283	-0.053951
H190	H	1.258222	0.363717	0.446049
O191	O	0.610670	-0.235809	0.000074
O192	O	1.110670	0.264191	0.500074
H193	H	0.581025	-0.249217	-0.053962
H194	H	1.081025	0.250783	0.446038
H195	H	0.984543	0.010507	0.214406
H196	H	1.484543	0.510507	0.714406
