data_functionalizedCrystal
_audit_creation_method	'MofGen! by Chris Wilmer'
_symmetry_space_group_name_H-M	'P1'
_symmetry_Int_Tables_number	1
_symmetry_cell_setting	triclinic
loop_
_symmetry_equiv_pos_as_xyz
  x,y,z
_cell_length_a	9.065218
_cell_length_b	9.198806
_cell_length_c	9.065218
_cell_angle_alpha	90.001336
_cell_angle_beta	94.984081
_cell_angle_gamma	89.993874
loop_
_atom_site_label
_atom_site_type_symbol
_atom_site_fract_x
_atom_site_fract_y
_atom_site_fract_z
O1	O	-1.960401	0.120960	0.216355
O2	O	-1.531116	0.120946	0.234101
O3	O	-1.754631	0.120951	0.010585
O4	O	-1.736885	0.120956	0.439870
O5	O	-1.754613	-0.120834	0.010585
O6	O	-1.531098	-0.120839	0.234100
O7	O	-1.960383	-0.120825	0.216354
Cu8	Cu	-1.745739	-0.142909	0.225227
Cu9	Cu	-1.745760	0.143030	0.225228
O10	O	-1.736867	-0.120829	0.439870
C11	C	-1.476120	0.000052	0.232395
C12	C	-1.312277	0.000047	0.227295
N13	N	-1.745734	-0.344022	0.225226
C14	C	-1.839580	-0.416218	0.130962
C15	C	-1.839603	-0.583630	0.130957
C16	C	-1.015378	0.000064	0.218060
C17	C	-1.179221	0.000051	0.223159
C18	C	-1.752917	0.000061	-0.044402
C19	C	-1.747817	0.000067	-0.208244
N20	N	-1.745775	0.344144	0.225218
C21	C	-1.738581	0.000064	0.494856
C22	C	-1.743681	0.000067	0.658699
H23	H	-1.919904	-0.354090	0.050257
C24	C	-1.637223	-0.572004	0.334253
C25	C	-1.524295	-0.466479	0.275282
C26	C	-1.415743	-0.382615	0.384317
C27	C	-1.420119	-0.404276	0.552324
C28	C	-1.533051	-0.509806	0.611305
C29	C	-1.641603	-0.593670	0.502269
H30	H	-1.521051	-0.450440	0.150905
H31	H	-1.332142	-0.304495	0.340655
H32	H	-1.339762	-0.342195	0.633039
H33	H	-1.536295	-0.525845	0.735681
H34	H	-1.725204	-0.671790	0.545931
C35	C	-1.948151	-0.667491	0.021926
C36	C	-2.116274	-0.646614	0.026206
C37	C	-2.224826	-0.730478	-0.082829
C38	C	-2.165256	-0.835219	-0.196145
C39	C	-1.997124	-0.856101	-0.200431
C40	C	-1.888572	-0.772237	-0.091395
H41	H	-2.160379	-0.569074	0.110094
H42	H	-2.349288	-0.715019	-0.079656
H43	H	-2.245613	-0.897300	-0.276860
H44	H	-1.953019	-0.933641	-0.284318
H45	H	-1.764110	-0.787695	-0.094568
H46	H	-1.665401	-0.406152	0.305919
