data_functionalizedCrystal
_audit_creation_method	'MofGen! by Chris Wilmer'
_symmetry_space_group_name_H-M	'P1'
_symmetry_Int_Tables_number	1
_symmetry_cell_setting	triclinic
loop_
_symmetry_equiv_pos_as_xyz
  x,y,z
_cell_length_a	17.077404
_cell_length_b	13.032721
_cell_length_c	13.034356
_cell_angle_alpha	90.866507
_cell_angle_beta	82.797046
_cell_angle_gamma	97.204757
loop_
_atom_site_label
_atom_site_type_symbol
_atom_site_fract_x
_atom_site_fract_y
_atom_site_fract_z
Zn1	Zn	1.228543	-0.335513	-0.633497
Zn2	Zn	1.195625	-0.529363	-0.483355
Zn3	Zn	1.078767	-0.357407	-0.461539
Zn4	Zn	1.082923	-0.507449	-0.655272
O5	O	1.146464	-0.432433	-0.558416
O6	O	1.334024	-0.361236	-0.613597
O7	O	1.164608	-0.524887	-0.336548
O8	O	1.110672	-0.210583	-0.466106
O9	O	1.309839	-0.503657	-0.503289
O10	O	1.220712	-0.194497	-0.592443
O11	O	1.078753	-0.398551	-0.320520
O12	O	0.969471	-0.377302	-0.487221
O13	O	1.117755	-0.466308	-0.796296
O14	O	0.972524	-0.487537	-0.629556
O15	O	1.224741	-0.339987	-0.780298
O16	O	1.168638	-0.670377	-0.524403
O17	O	1.085836	-0.654277	-0.650710
C18	C	0.942515	-0.432418	-0.558385
C19	C	0.855265	-0.432433	-0.558399
C20	C	0.815866	-0.489946	-0.632420
C21	C	0.733887	-0.489946	-0.632437
C22	C	0.691308	-0.432439	-0.558427
C23	C	0.730713	-0.374920	-0.484403
C24	C	0.812692	-0.374914	-0.484391
C25	C	0.559844	-0.374937	-0.484430
C26	C	0.477860	-0.374943	-0.484440
C27	C	0.481039	-0.489968	-0.632476
C28	C	0.563018	-0.489963	-0.632464
C29	C	0.602417	-0.432445	-0.558438
C30	C	1.124140	-0.699641	-0.592310
C31	C	1.114665	-0.813949	-0.606844
C32	C	1.151456	-0.872836	-0.550876
C33	C	1.141664	-0.990980	-0.565897
C34	C	1.351210	-0.432449	-0.558447
C35	C	1.438461	-0.432456	-0.558461
C36	C	1.175383	-0.398261	-0.826655
C37	C	1.187707	-0.383699	-0.940963
C38	C	1.168900	-0.164180	-0.524412
C39	C	1.178461	-0.049866	-0.509922
C40	C	1.153001	-0.424663	-1.117985
C41	C	1.140262	-0.439714	-0.999842
C42	C	1.117709	-0.466398	-0.291210
C43	C	1.105562	-0.480671	-0.176866
H44	H	0.701812	-0.536779	-0.692711
H45	H	1.090216	-0.498815	-0.962792
H46	H	0.597682	-0.536797	-0.692724
H47	H	1.237758	-0.324604	-0.978013
C48	C	1.230791	-0.999836	-0.430141
H49	H	1.230497	-0.926995	-0.430495
H50	H	1.283718	-1.015393	-0.447438
H51	H	1.210424	-1.026245	-0.363255
H52	H	0.591923	-0.328089	-0.424158
H53	H	1.203049	-0.365574	-1.155041
H54	H	1.075920	-0.850997	-0.665884
C55	C	0.683883	-0.311659	-0.402993
H56	H	0.719093	-0.277398	-0.358914
H57	H	0.643778	-0.356647	-0.363104
H58	H	0.659898	-0.261887	-0.436742
H59	H	1.102917	-1.028024	-0.624941
H60	H	0.448957	-0.536798	-0.692753
H61	H	0.844771	-0.328076	-0.424121
C62	C	0.431026	-0.311676	-0.403040
H63	H	0.466233	-0.277407	-0.358962
H64	H	0.390920	-0.356660	-0.363148
H65	H	0.407043	-0.261911	-0.436800
C66	C	1.037963	-0.560518	-1.126825
H67	H	1.009859	-0.593715	-1.179088
H68	H	1.002560	-0.526491	-1.079918
H69	H	1.059775	-0.610631	-1.090614
C70	C	0.862698	-0.553210	-0.713824
H71	H	0.917163	-0.544982	-0.703211
H72	H	0.857976	-0.529468	-0.781055
H73	H	0.841851	-0.624223	-0.707411
C74	C	1.203803	-0.822796	-0.471123
H75	H	1.203514	-0.749955	-0.471486
H76	H	1.256726	-0.838362	-0.488443
H77	H	1.183454	-0.849193	-0.404227
