data_functionalizedCrystal
_audit_creation_method	'MofGen! by Chris Wilmer'
_symmetry_space_group_name_H-M	'P1'
_symmetry_Int_Tables_number	1
_symmetry_cell_setting	triclinic
loop_
_symmetry_equiv_pos_as_xyz
  x,y,z
_cell_length_a	12.759401
_cell_length_b	12.759399
_cell_length_c	10.685986
_cell_angle_alpha	94.405452
_cell_angle_beta	85.650052
_cell_angle_gamma	90.012458
loop_
_atom_site_label
_atom_site_type_symbol
_atom_site_fract_x
_atom_site_fract_y
_atom_site_fract_z
Zn1	Zn	-1.560745	0.372655	-0.713466
Zn2	Zn	-1.060745	0.872655	-0.213466
Zn3	Zn	-1.574100	0.561859	-0.502480
Zn4	Zn	-1.074100	1.061859	-0.002480
Zn5	Zn	-1.398506	0.386188	-0.502486
Zn6	Zn	-0.898506	0.886188	-0.002486
Zn7	Zn	-1.385039	0.548289	-0.713430
Zn8	Zn	-0.885039	1.048289	-0.213430
O9	O	-1.479598	0.467248	-0.607965
O10	O	-0.979598	0.967248	-0.107965
O11	O	-1.709537	0.397768	-0.685491
O12	O	-1.209537	0.897768	-0.185491
O13	O	-1.562032	0.549898	-0.325901
O14	O	-1.062032	1.049898	0.174099
O15	O	-1.420074	0.237371	-0.530490
O16	O	-0.920074	0.737371	-0.030490
O17	O	-1.719349	0.536775	-0.530480
O18	O	-1.219349	1.036775	-0.030480
O19	O	-1.539270	0.227428	-0.685497
O20	O	-1.039270	0.727428	-0.185497
O21	O	-1.433024	0.420834	-0.325906
O22	O	-0.933024	0.920834	0.174094
O23	O	-1.249699	0.407676	-0.530455
O24	O	-0.749699	0.907676	-0.030455
O25	O	-1.397122	0.513649	-0.890014
O26	O	-0.897122	1.013649	-0.390014
O27	O	-1.239806	0.526771	-0.685435
O28	O	-0.739806	1.026771	-0.185435
O29	O	-1.526212	0.384611	-0.890041
O30	O	-1.026212	0.884611	-0.390041
O31	O	-1.548974	0.707081	-0.530445
O32	O	-1.048974	1.207081	-0.030445
O33	O	-1.410072	0.697112	-0.685429
O34	O	-0.910072	1.197112	-0.185429
C35	C	-1.206632	0.467221	-0.607942
C36	C	-0.706632	0.967221	-0.107942
C37	C	-1.089854	0.467232	-0.607963
C38	C	-0.589854	0.967232	-0.107963
C39	C	-1.029876	0.394963	-0.688800
C40	C	-0.529876	0.894963	-0.188800
C41	C	-0.920151	0.394969	-0.688806
C42	C	-0.420151	0.894969	-0.188806
C43	C	-0.930393	0.539523	-0.527134
C44	C	-0.430393	1.039523	-0.027134
C45	C	-1.040116	0.539512	-0.527122
C46	C	-0.540116	1.039512	-0.027122
C47	C	-1.479538	0.740216	-0.607960
C48	C	-0.979538	1.240216	-0.107960
C49	C	-1.479605	0.856990	-0.608000
C50	C	-0.979605	1.356990	-0.108000
C51	C	-1.458675	0.446107	-0.937092
C52	C	-0.958675	0.946107	-0.437092
C53	C	-1.449760	0.437097	-1.077347
C54	C	-0.949760	0.937097	-0.577347
C55	C	-0.753630	0.467266	-0.607984
C56	C	-0.253630	0.967266	-0.107984
C57	C	-0.870407	0.467250	-0.607981
C58	C	-0.370407	0.967250	-0.107981
C59	C	-1.552003	0.917002	-0.527396
C60	C	-1.052003	1.417002	-0.027396
C61	C	-1.552069	1.026722	-0.527448
C62	C	-1.052069	1.526722	-0.027448
C63	C	-1.407330	1.016409	-0.688711
C64	C	-0.907330	1.516409	-0.188711
C65	C	-1.407270	0.906690	-0.688664
C66	C	-0.907270	1.406690	-0.188664
C67	C	-1.479687	1.193211	-0.608020
C68	C	-0.979687	1.693211	-0.108020
C69	C	-1.479731	1.076429	-0.608098
C70	C	-0.979731	1.576429	-0.108098
C71	C	-1.500499	0.488231	-0.280119
C72	C	-1.000499	0.988231	0.219881
C73	C	-1.509618	0.496944	-0.139865
C74	C	-1.009618	0.996944	0.360135
H75	H	-1.088952	0.598364	-0.461288
H76	H	-0.588952	1.098364	0.038712
Br77	Br	-1.650333	1.108163	-0.418059
Br78	Br	-1.150333	1.608163	0.081941
Br79	Br	-1.352981	0.340206	-1.166970
Br80	Br	-0.852981	0.840206	-0.666970
Br81	Br	-1.650172	0.849553	-0.417925
Br82	Br	-1.150172	1.349553	0.082075
H83	H	-1.348436	1.056889	-0.754383
H84	H	-0.848436	1.556889	-0.254383
H85	H	-1.348315	0.857825	-0.754308
H86	H	-0.848315	1.357825	-0.254308
Br87	Br	-0.838756	0.296881	-0.798515
Br88	Br	-0.338756	0.796881	-0.298515
H89	H	-1.567694	0.555069	-1.086084
H90	H	-1.067694	1.055069	-0.586084
H91	H	-1.070369	0.336106	-0.754621
H92	H	-0.570369	0.836106	-0.254621
H93	H	-0.889883	0.598371	-0.461318
H94	H	-0.389883	1.098371	0.038682
