data_functionalizedCrystal
_audit_creation_method	'MofGen! by Chris Wilmer'
_symmetry_space_group_name_H-M	'P1'
_symmetry_Int_Tables_number	1
_symmetry_cell_setting	triclinic
loop_
_symmetry_equiv_pos_as_xyz
  x,y,z
_cell_length_a	15.944493
_cell_length_b	15.944551
_cell_length_c	9.730223
_cell_angle_alpha	89.994648
_cell_angle_beta	89.997275
_cell_angle_gamma	83.486891
loop_
_atom_site_label
_atom_site_type_symbol
_atom_site_fract_x
_atom_site_fract_y
_atom_site_fract_z
O1	O	1.114553	0.108100	-0.114275
O2	O	0.869997	0.121507	-0.114282
O3	O	0.998953	-0.007473	-0.114266
O4	O	0.985597	0.237080	-0.114291
O5	O	0.998945	-0.007476	0.114314
O6	O	0.869988	0.121503	0.114298
O7	O	1.114545	0.108096	0.114305
Zn8	Zn	0.992265	0.114799	0.150594
Zn9	Zn	0.992276	0.114804	-0.150570
O10	O	0.985588	0.237076	0.114289
C11	C	0.838698	0.120957	0.000007
C12	C	0.745449	0.119314	0.000005
C13	C	0.509689	0.195235	-0.000004
C14	C	0.459127	0.154292	0.112708
C15	C	0.574728	0.116270	0.000008
C16	C	0.459140	0.154277	-0.112654
C17	C	0.409819	0.113336	0.000005
C18	C	0.525394	0.075349	0.112813
C19	C	0.525410	0.075345	-0.112650
C20	C	0.474880	0.034345	0.000089
C21	C	0.669728	0.117963	0.000011
C22	C	0.314821	0.111637	0.000012
C23	C	0.998395	-0.038768	0.000025
C24	C	0.996732	-0.132014	0.000025
C25	C	0.912826	-0.346853	0.000004
C26	C	0.951785	-0.407880	0.112709
C27	C	0.993725	-0.302739	0.000015
C28	C	0.951812	-0.407860	-0.112653
C29	C	0.990814	-0.467651	-0.000002
C30	C	1.032707	-0.362538	0.112813
C31	C	1.032722	-0.362512	-0.112651
C32	C	1.071741	-0.423521	0.000082
C33	C	0.995399	-0.207737	0.000025
C34	C	0.989146	-0.562652	-0.000002
C35	C	1.145844	0.108646	0.000013
C36	C	1.239092	0.110289	0.000006
N37	N	0.992264	0.114796	0.356130
C38	C	0.986147	0.268372	-0.000004
C39	C	0.987809	0.361617	-0.000014
N40	N	0.992284	0.114801	-0.356107
C41	C	1.049385	0.057707	0.428063
C42	C	1.049394	0.057708	0.571946
C43	C	0.935157	0.171892	0.571950
C44	C	0.935145	0.171887	0.428070
H45	H	0.554218	0.042020	0.208197
Cl46	Cl	0.414442	0.205774	0.259814
H47	H	0.888626	0.218376	0.369498
H48	H	1.095906	0.011220	0.630510
Cl49	Cl	0.450992	-0.070748	0.000200
H50	H	1.095894	0.011219	0.369493
H51	H	0.845675	-0.313532	0.000114
H52	H	0.554360	0.042024	-0.207936
Cl53	Cl	1.085488	-0.331693	0.260084
Cl54	Cl	0.898967	-0.438866	-0.259751
Cl55	Cl	0.898954	-0.438919	0.259816
H56	H	0.430205	0.187642	-0.207929
Cl57	Cl	1.175504	-0.474742	0.000177
Cl58	Cl	0.533822	0.300247	0.000149
H59	H	1.066914	-0.342387	-0.207937
H60	H	0.888653	0.218376	0.630538
