data_functionalizedCrystal
_audit_creation_method	'MofGen! by Chris Wilmer'
_symmetry_space_group_name_H-M	'P1'
_symmetry_Int_Tables_number	1
_symmetry_cell_setting	triclinic
loop_
_symmetry_equiv_pos_as_xyz
  x,y,z
_cell_length_a	27.780882
_cell_length_b	27.780884
_cell_length_c	27.780936
_cell_angle_alpha	59.997472
_cell_angle_beta	90.001550
_cell_angle_gamma	119.999789
loop_
_atom_site_label
_atom_site_type_symbol
_atom_site_fract_x
_atom_site_fract_y
_atom_site_fract_z
O1	O	0.410270	-0.344534	0.014321
O2	O	0.340273	-0.245964	-0.014251
O3	O	0.340270	-0.344533	0.084319
O4	O	0.410274	-0.245965	-0.084248
O5	O	0.260210	-0.424592	0.084318
O6	O	0.260214	-0.326023	-0.014251
O7	O	0.330211	-0.424594	0.014321
Zn8	Zn	0.282501	-0.388019	0.000035
Zn9	Zn	0.387983	-0.282538	0.000035
O10	O	0.330214	-0.326025	-0.084249
C11	C	0.207596	-0.090567	-0.029862
C12	C	0.237299	-0.031162	-0.025773
C13	C	0.149664	-0.119397	-0.030268
C14	C	0.207598	-0.177730	-0.029868
C15	C	0.237303	-0.211520	-0.025784
C16	C	0.149666	-0.206427	-0.030273
C17	C	0.120430	-0.177734	-0.029862
C18	C	0.056934	-0.211526	-0.025772
C19	C	0.236700	-0.119393	-0.030273
C20	C	0.005636	-0.238828	-0.022467
C21	C	0.261296	0.016831	-0.022467
C22	C	0.261301	-0.238819	-0.022483
C23	C	-0.058720	-0.273079	-0.018321
C24	C	0.291401	0.077041	-0.018322
C25	C	0.291408	-0.273066	-0.018343
O26	O	-0.249047	-0.424605	0.014340
O27	O	-0.080481	-0.326036	-0.014230
O28	O	-0.179042	-0.424608	0.084339
O29	O	-0.150485	-0.326033	-0.084229
O30	O	-0.179044	-0.344552	0.084344
O31	O	-0.080483	-0.245979	-0.014225
O32	O	-0.249049	-0.344549	0.014344
Zn33	Zn	-0.164766	-0.282554	0.000061
Zn34	Zn	-0.164763	-0.388031	0.000054
O35	O	-0.150487	-0.245976	-0.084224
C36	C	0.462884	-0.177727	-0.372327
C37	C	0.433180	-0.211519	-0.402029
C38	C	0.520815	-0.119388	-0.401431
C39	C	0.462885	-0.177726	-0.285161
C40	C	0.433181	-0.211517	-0.221665
C41	C	0.520816	-0.119388	-0.314397
C42	C	0.550051	-0.090560	-0.372329
C43	C	0.613546	-0.031152	-0.402033
C44	C	0.433781	-0.206422	-0.314395
C45	C	0.664844	0.016842	-0.426031
C46	C	0.409182	-0.238820	-0.426025
C47	C	0.409184	-0.238818	-0.170367
C48	C	0.729200	0.077053	-0.456138
C49	C	0.379076	-0.273070	-0.456130
C50	C	0.379079	-0.273067	-0.106011
C51	C	0.550044	-0.492843	0.029965
C52	C	0.613538	-0.459053	0.025879
C53	C	0.520808	-0.551182	0.030373
C54	C	0.462879	-0.492840	0.029960
C55	C	0.433176	-0.459047	0.025869
C56	C	0.433776	-0.551179	0.030369
C57	C	0.462878	-0.580009	0.029964
C58	C	0.433174	-0.639417	0.025878
C59	C	0.520809	-0.464146	0.030369
C60	C	0.409177	-0.687412	0.022575
C61	C	0.664836	-0.431753	0.022576
C62	C	0.409180	-0.431744	0.022562
C63	C	0.379071	-0.747624	0.018433
C64	C	0.729190	-0.397505	0.018434
C65	C	0.379075	-0.397492	0.018415
O66	O	0.330206	0.234705	0.014343
O67	O	0.260205	0.094709	-0.014226
O68	O	0.260208	0.094700	0.084342
O69	O	0.330203	0.234713	-0.084225
O70	O	0.340270	0.094703	0.084337
O71	O	0.340266	0.094711	-0.014231
O72	O	0.410267	0.234707	0.014338
Zn73	Zn	0.387978	0.164710	0.000053
Zn74	Zn	0.282494	0.164706	0.000059
O75	O	0.410264	0.234716	-0.084231
O76	O	0.919528	0.234725	-0.494947
O77	O	0.750963	0.094724	-0.424943
O78	O	0.849525	0.094720	-0.424940
O79	O	0.820966	0.234728	-0.494951
O80	O	0.849523	0.094718	-0.504999
O81	O	0.750961	0.094722	-0.505002
O82	O	0.919526	0.234723	-0.575006
Zn83	Zn	0.835243	0.164722	-0.552715
Zn84	Zn	0.835246	0.164724	-0.447234
O85	O	0.820964	0.234726	-0.575009
O86	O	0.340270	-0.344533	-0.574994
O87	O	0.410271	-0.245968	-0.504995
O88	O	0.410269	-0.344536	-0.504989
O89	O	0.340272	-0.245965	-0.574999
O90	O	0.330209	-0.424596	-0.424929
O91	O	0.330210	-0.326029	-0.424934
O92	O	0.260210	-0.424593	-0.494933
Zn93	Zn	0.282499	-0.388022	-0.447222
Zn94	Zn	0.387982	-0.282539	-0.552705
O95	O	0.260211	-0.326026	-0.494939
C96	C	0.120431	-0.580000	0.372398
C97	C	0.056936	-0.639407	0.402102
C98	C	0.149667	-0.551172	0.401501
C99	C	0.207598	-0.492833	0.285231
C100	C	0.237302	-0.459041	0.221736
C101	C	0.236701	-0.464137	0.314466
C102	C	0.207598	-0.492833	0.372397
C103	C	0.237302	-0.459042	0.402100
C104	C	0.149667	-0.551171	0.314467
C105	C	0.261299	-0.431741	0.426097
C106	C	0.005638	-0.687401	0.426100
C107	C	0.261299	-0.431740	0.170437
C108	C	0.291405	-0.397491	0.456202
C109	C	-0.058718	-0.747613	0.456206
C110	C	0.291405	-0.397490	0.106081
C111	C	-0.194662	-0.492867	0.372424
C112	C	-0.190574	-0.459078	0.402130
C113	C	-0.195067	-0.551205	0.401525
C114	C	-0.194664	-0.492861	0.285255
C115	C	-0.190579	-0.459066	0.221759
C116	C	-0.195069	-0.551199	0.314488
C117	C	-0.194660	-0.580030	0.372420
C118	C	-0.190570	-0.639437	0.402122
C119	C	-0.195071	-0.464168	0.314492
C120	C	-0.187264	-0.687431	0.426117
C121	C	-0.187270	-0.431780	0.426129
C122	C	-0.187277	-0.431762	0.170460
C123	C	-0.183118	-0.747643	0.456221
C124	C	-0.183126	-0.397533	0.456237
C125	C	-0.183135	-0.397509	0.106104
C126	C	-0.134870	-0.090557	-0.372306
C127	C	-0.138960	-0.031149	-0.402008
C128	C	-0.134463	-0.119382	-0.401410
C129	C	-0.134866	-0.177726	-0.285140
C130	C	-0.138951	-0.211520	-0.221644
C131	C	-0.134459	-0.206419	-0.314377
C132	C	-0.134868	-0.177721	-0.372309
C133	C	-0.138956	-0.211509	-0.402014
C134	C	-0.134461	-0.119387	-0.314374
C135	C	-0.142260	-0.238808	-0.426013
C136	C	-0.142266	0.016845	-0.426004
C137	C	-0.142253	-0.238823	-0.170345
C138	C	-0.146404	-0.273055	-0.456120
C139	C	-0.146412	0.077056	-0.456108
C140	C	-0.146394	-0.273076	-0.105989
C141	C	0.207598	-0.177788	0.372409
C142	C	0.237303	-0.211581	0.402109
C143	C	0.149666	-0.206489	0.401514
C144	C	0.207597	-0.090611	0.285248
C145	C	0.237301	-0.031194	0.221754
C146	C	0.149665	-0.119445	0.314485
C147	C	0.120430	-0.177791	0.372415
C148	C	0.056934	-0.211588	0.402120
C149	C	0.236701	-0.119441	0.314480
C150	C	0.005636	-0.238893	0.426118
C151	C	0.261301	-0.238884	0.426102
C152	C	0.261298	0.016807	0.170457
C153	C	-0.058720	-0.273148	0.456225
C154	C	0.291407	-0.273135	0.456204
C155	C	0.291404	0.077028	0.106102
O156	O	-0.150447	-0.326068	0.575099
O157	O	-0.179029	-0.424636	0.505101
O158	O	-0.080457	-0.326067	0.505088
O159	O	-0.249019	-0.424637	0.575111
O160	O	-0.080467	-0.246008	0.425031
O161	O	-0.179038	-0.344577	0.425044
O162	O	-0.150456	-0.246009	0.495042
Zn163	Zn	-0.164749	-0.282582	0.447332
Zn164	Zn	-0.164736	-0.388063	0.552810
O165	O	-0.249028	-0.344578	0.495054
C166	C	0.550043	0.507206	-0.372303
C167	C	0.613538	0.541003	-0.402008
C168	C	0.520807	0.535905	-0.401402
C169	C	0.462876	0.420027	-0.285136
C170	C	0.433172	0.360610	-0.221642
C171	C	0.433772	0.448858	-0.314368
C172	C	0.462875	0.507204	-0.372297
C173	C	0.433171	0.540998	-0.401996
C174	C	0.520807	0.448860	-0.314373
C175	C	0.409173	0.568301	-0.425990
C176	C	0.664837	0.568308	-0.426006
C177	C	0.409174	0.312608	-0.170345
C178	C	0.379066	0.602553	-0.456091
C179	C	0.729192	0.602563	-0.456114
C180	C	0.379069	0.252387	-0.105990
H181	H	0.126197	-0.253370	-0.030929
C182	C	-0.195944	-0.583798	0.465826
C183	C	-0.145472	-0.590467	0.481622
C184	C	-0.146346	-0.623056	0.545919
C185	C	-0.197692	-0.648975	0.594420
C186	C	-0.248168	-0.642306	0.578625
C187	C	-0.247294	-0.609717	0.514328
H188	H	-0.107459	-0.571279	0.445718
H189	H	-0.108981	-0.627993	0.557612
H190	H	-0.198339	-0.673099	0.642017
H191	H	-0.286181	-0.661494	0.614529
H192	H	-0.284659	-0.604781	0.502636
H193	H	0.544280	-0.095256	-0.449033
C194	C	-0.133565	-0.269831	-0.282675
C195	C	-0.133111	-0.301523	-0.314836
C196	C	-0.132214	-0.364931	-0.283138
C197	C	-0.131772	-0.396647	-0.219279
C198	C	-0.132225	-0.364955	-0.187114
C199	C	-0.133122	-0.301547	-0.218812
H200	H	-0.133439	-0.278045	-0.362112
H201	H	-0.131878	-0.388391	-0.306949
H202	H	-0.131108	-0.443585	-0.195814
H203	H	-0.131898	-0.388433	-0.139839
H204	H	-0.133458	-0.278087	-0.195002
C205	C	0.552527	-0.086789	-0.282694
C206	C	0.616382	-0.022483	-0.314853
C207	C	0.648093	0.010116	-0.283152
C208	C	0.615949	-0.021591	-0.219293
C209	C	0.552090	-0.085900	-0.187130
C210	C	0.520379	-0.118499	-0.218830
H211	H	0.640180	0.000991	-0.362129
H212	H	0.695366	0.057722	-0.306962
H213	H	0.639423	0.002541	-0.195826
H214	H	0.528292	-0.109375	-0.139854
H215	H	0.473107	-0.166106	-0.195021
C216	C	0.369468	-0.269814	-0.282695
C217	C	0.337307	-0.301512	-0.314848
C218	C	0.272990	-0.364890	-0.283153
C219	C	0.240835	-0.396570	-0.219307
C220	C	0.272996	-0.364871	-0.187151
C221	C	0.337312	-0.301493	-0.218845
H222	H	0.361110	-0.278062	-0.362114
H223	H	0.249183	-0.388355	-0.306958
H224	H	0.193224	-0.443485	-0.195845
H225	H	0.249192	-0.388322	-0.139885
H226	H	0.361119	-0.278029	-0.195041
H227	H	0.284300	-0.095261	-0.030933
C228	C	-0.133586	-0.086796	-0.465711
C229	C	-0.082233	-0.060870	-0.514209
C230	C	-0.081359	-0.028290	-0.578506
C231	C	-0.131837	-0.021637	-0.594305
C232	C	-0.183194	-0.047564	-0.545806
C233	C	-0.184068	-0.080144	-0.481509
H234	H	-0.044862	-0.065794	-0.502515
H235	H	-0.043341	-0.009097	-0.614409
H236	H	-0.131190	0.002480	-0.641902
H237	H	-0.220565	-0.042640	-0.557500
H238	H	-0.222086	-0.099337	-0.445606
C239	C	-0.133571	-0.086803	-0.282656
C240	C	-0.184041	-0.080142	-0.273500
C241	C	-0.183149	-0.047563	-0.241780
C242	C	-0.131788	-0.021644	-0.219214
C243	C	-0.081313	-0.028304	-0.228369
C244	C	-0.082205	-0.060884	-0.260090
H245	H	-0.222066	-0.099329	-0.290205
H246	H	-0.220514	-0.042632	-0.235003
H247	H	-0.131128	0.002473	-0.195733
H248	H	-0.043289	-0.009117	-0.211665
H249	H	-0.044840	-0.065814	-0.266867
C250	C	0.369473	-0.583783	0.031259
C251	C	0.353664	-0.590468	-0.019203
C252	C	0.289363	-0.623075	-0.018310
C253	C	0.240870	-0.648998	0.033045
C254	C	0.256677	-0.642313	0.083511
C255	C	0.320978	-0.609706	0.082618
H256	H	0.389563	-0.571278	-0.057222
H257	H	0.277661	-0.628023	-0.055668
H258	H	0.193270	-0.673136	0.033707
H259	H	0.220778	-0.661503	0.121530
H260	H	0.332680	-0.604758	0.119976
C261	C	0.552512	-0.583782	0.031263
C262	C	0.616371	-0.552076	0.031702
C263	C	0.648072	-0.584675	0.032592
C264	C	0.615914	-0.648982	0.033044
C265	C	0.552052	-0.680692	0.032605
C266	C	0.520351	-0.648092	0.031715
H267	H	0.640180	-0.504469	0.031368
H268	H	0.695348	-0.561201	0.032917
H269	H	0.639381	-0.673114	0.033703
H270	H	0.528243	-0.728298	0.032940
H271	H	0.473075	-0.671566	0.031390
H272	H	0.544285	-0.417199	0.031019
C273	C	0.369470	0.416264	-0.282663
C274	C	0.320980	0.390349	-0.308101
C275	C	0.256680	0.357760	-0.276400
C276	C	0.240871	0.351087	-0.219261
C277	C	0.289362	0.377003	-0.193819
C278	C	0.353662	0.409592	-0.225520
H279	H	0.332682	0.395288	-0.350402
H280	H	0.220784	0.338575	-0.295234
H281	H	0.193273	0.326962	-0.195794
H282	H	0.277660	0.372064	-0.151518
H283	H	0.389558	0.428777	-0.206686
H284	H	0.284297	-0.417188	0.290989
C285	C	0.117958	-0.583765	0.282760
C286	C	0.143384	-0.609697	0.260196
C287	C	0.111675	-0.642290	0.228490
C288	C	0.054541	-0.648950	0.219348
C289	C	0.029112	-0.623018	0.241912
C290	C	0.060820	-0.590425	0.273618
H291	H	0.185681	-0.604768	0.266963
H292	H	0.130500	-0.661487	0.211787
H293	H	0.031069	-0.673077	0.195878
H294	H	-0.013186	-0.627947	0.235145
H295	H	0.041995	-0.571228	0.290321
H296	H	0.126193	-0.575302	0.449100
H297	H	0.126199	-0.253435	0.449114
H298	H	-0.195733	-0.575327	0.291016
H299	H	-0.195726	-0.417223	0.291024
C300	C	0.117954	-0.086850	0.282784
C301	C	0.150098	-0.022544	0.218927
C302	C	0.118387	0.010048	0.187229
C303	C	0.054531	-0.021666	0.219389
C304	C	0.022383	-0.085975	0.283251
C305	C	0.054094	-0.118567	0.314948
H306	H	0.197371	0.000935	0.195116
H307	H	0.142185	0.057654	0.139954
H308	H	0.031056	0.002461	0.195925
H309	H	-0.024890	-0.109454	0.307061
H310	H	0.030296	-0.166173	0.362223
C311	C	0.552527	0.599336	-0.465700
C312	C	0.527118	0.596504	-0.514214
C313	C	0.558843	0.659935	-0.578507
C314	C	0.615978	0.726198	-0.594287
C315	C	0.641391	0.729033	-0.545772
C316	C	0.609666	0.665602	-0.481479
H317	H	0.484820	0.547450	-0.502533
H318	H	0.540031	0.657837	-0.614421
H319	H	0.639464	0.773154	-0.641881
H320	H	0.683689	0.778087	-0.557452
H321	H	0.628478	0.667700	-0.445565
C322	C	0.300998	-0.086850	0.282761
C323	C	0.333147	-0.118569	0.314897
C324	C	0.397438	-0.085983	0.283175
C325	C	0.429582	-0.021678	0.219317
C326	C	0.397433	0.010045	0.187177
C327	C	0.333141	-0.022541	0.218899
H328	H	0.309352	-0.166175	0.362171
H329	H	0.421237	-0.109467	0.306967
H330	H	0.477174	0.002445	0.195834
H331	H	0.421227	0.057651	0.139902
H332	H	0.309343	0.000943	0.195107
C333	C	0.552512	0.416259	-0.282667
C334	C	0.616373	0.447972	-0.314814
C335	C	0.648075	0.415371	-0.283107
C336	C	0.615917	0.351056	-0.219254
C337	C	0.552053	0.319339	-0.187104
C338	C	0.520351	0.351941	-0.218810
H339	H	0.640181	0.495585	-0.362085
H340	H	0.695351	0.438850	-0.306907
H341	H	0.639385	0.326923	-0.195783
H342	H	0.528245	0.271727	-0.139832
H343	H	0.473075	0.328462	-0.195010
H344	H	0.126196	-0.095266	-0.030925
