data_functionalizedCrystal
_audit_creation_method	'MofGen! by Chris Wilmer'
_symmetry_space_group_name_H-M	'P1'
_symmetry_Int_Tables_number	1
_symmetry_cell_setting	triclinic
loop_
_symmetry_equiv_pos_as_xyz
  x,y,z
_cell_length_a	20.919309
_cell_length_b	14.628931
_cell_length_c	14.628931
_cell_angle_alpha	89.999882
_cell_angle_beta	62.591828
_cell_angle_gamma	57.441951
loop_
_atom_site_label
_atom_site_type_symbol
_atom_site_fract_x
_atom_site_fract_y
_atom_site_fract_z
Zr1	Zr	0.700765	-0.158951	0.919619
O2	O	0.834327	-0.312342	0.781092
O3	O	0.567202	-0.106775	0.956931
O4	O	0.700765	-0.304912	0.964364
O5	O	0.700764	0.036227	0.773659
O6	O	0.700765	-0.304912	1.114796
O7	O	0.700765	-0.114206	0.773659
O8	O	0.461845	0.049518	1.101499
O9	O	0.939684	-0.318204	0.786956
O10	O	0.622138	-0.090749	1.091337
O11	O	0.622138	0.021517	0.979071
O12	O	0.779391	-0.211763	0.987823
O13	O	0.779391	-0.099497	0.875558
Zr14	Zr	0.700764	0.080971	1.159541
Zr15	Zr	0.700765	-0.158951	1.159541
Zr16	Zr	0.700764	0.080971	0.919620
Zr17	Zr	0.868796	-0.168299	0.928971
Zr18	Zr	0.532733	0.090319	1.150189
O19	O	0.834327	0.028795	1.122230
O20	O	0.834327	-0.312343	1.122229
O21	O	0.834327	0.028796	0.781092
O22	O	0.567201	0.234362	1.298069
O23	O	0.567202	-0.106776	1.298068
O24	O	0.567201	0.234363	0.956931
O25	O	0.700765	-0.114207	1.305502
O26	O	0.700764	0.226932	1.114797
O27	O	0.700764	0.226932	0.964365
O28	O	0.700764	0.036225	1.305502
O29	O	0.939684	-0.318205	0.977661
O30	O	0.461845	0.240224	1.101499
O31	O	0.461845	0.240224	1.292205
O32	O	0.461845	0.049518	1.292205
O33	O	0.939683	-0.127498	0.786956
O34	O	0.939683	-0.127499	0.977661
O35	O	0.622138	0.133783	1.091337
O36	O	0.622138	0.021517	1.203603
O37	O	0.779391	-0.099498	1.100089
O38	O	0.779391	0.012768	0.987824
C39	C	0.490583	-0.027296	1.027882
C40	C	0.419249	-0.023328	1.023912
C41	C	0.700764	-0.038989	0.739475
C42	C	0.700764	-0.038989	0.637622
C43	C	0.700764	0.261116	1.039581
C44	C	0.700764	0.362969	1.039581
C45	C	0.385737	-0.080065	1.080645
C46	C	0.318706	-0.076325	1.076918
C47	C	0.285194	-0.015854	1.016450
C48	C	0.318710	0.040891	0.959715
C49	C	0.385734	0.037157	0.963450
C50	C	0.082819	-0.001642	1.002248
C51	C	0.015792	0.002085	0.998515
C52	C	0.015792	-0.115130	1.115720
C53	C	0.082822	-0.118864	1.119444
C54	C	0.116328	-0.062114	1.062714
C55	C	0.216681	-0.012032	1.012635
C56	C	0.184836	-0.065930	1.066535
C57	C	0.910946	-0.050684	1.051278
C58	C	0.982280	-0.054653	1.055248
C59	C	0.700765	-0.339096	1.039580
C60	C	0.700765	-0.440949	1.039580
C61	C	0.778772	0.348347	0.988231
C62	C	0.778773	0.453616	0.988230
C63	C	0.700765	-0.117749	0.592213
C64	C	0.700765	-0.117750	0.486942
C65	C	0.700764	-0.038991	1.339685
C66	C	0.700764	-0.038991	1.441538
C67	C	0.490583	-0.027297	1.327988
C68	C	0.419249	-0.023328	1.425870
C69	C	0.490582	0.272809	1.027883
C70	C	0.419248	0.378631	1.023913
C71	C	0.490582	0.272809	1.327988
C72	C	0.419248	0.378630	1.425871
C73	C	0.910947	-0.350789	0.751172
C74	C	0.982280	-0.456611	0.653290
C75	C	0.910946	-0.050683	0.751173
C76	C	0.982280	-0.054652	0.653290
C77	C	0.910947	-0.350790	1.051278
C78	C	0.982280	-0.456611	1.055248
C79	C	0.385750	-0.080076	1.413236
C80	C	0.318734	-0.076370	1.505198
C81	C	0.285213	-0.015909	1.609794
C82	C	0.318719	0.040840	1.622427
C83	C	0.385739	0.037127	1.530466
C84	C	0.385749	0.486938	1.080650
C85	C	0.318733	0.586377	1.076916
C86	C	0.285212	0.577508	1.016451
C87	C	0.318718	0.469190	0.959706
C88	C	0.385738	0.369753	0.963435
C89	C	0.385749	0.369724	1.530449
C90	C	0.318733	0.469145	1.622430
C91	C	0.285212	0.577472	1.609831
C92	C	0.318718	0.586376	1.505241
C93	C	0.385738	0.486956	1.413263
C94	C	1.015788	-0.447704	0.548712
C95	C	1.082825	-0.547126	0.456732
C96	C	1.116349	-0.655454	0.469332
C97	C	1.082839	-0.664358	0.573921
C98	C	1.015808	-0.564937	0.665899
C99	C	1.015786	0.002086	0.665925
C100	C	1.082820	-0.001648	0.573964
C101	C	1.116343	-0.062112	0.469368
C102	C	1.082835	-0.118857	0.456734
C103	C	1.015806	-0.115130	0.548695
C104	C	1.015780	-0.447705	1.115723
C105	C	1.082797	-0.547126	1.119475
C106	C	1.116318	-0.655453	1.062744
C107	C	1.082812	-0.664357	1.002266
C108	C	1.015791	-0.564937	0.998521
H109	H	0.413022	-0.129313	1.129879
Br110	Br	0.128306	-0.200947	1.201499
Br111	Br	0.273245	-0.153356	1.153892
Br112	Br	0.431189	0.499064	1.271338
Br113	Br	0.273273	0.457033	1.764359
Br114	Br	0.890090	0.197591	0.914938
H115	H	0.413032	0.281528	1.540729
Br116	Br	0.431189	0.222769	0.886430
H117	H	1.110097	-0.539854	0.371580
H118	H	0.230641	-0.012894	1.684666
Br119	Br	0.970303	-0.300702	0.531581
H120	H	0.230640	0.658417	1.684735
Br121	Br	1.207276	-0.790371	1.067836
H122	H	0.700769	0.028438	0.480579
H123	H	0.189388	0.037203	0.963402
Br124	Br	0.970302	-0.300703	1.192726
Br125	Br	0.273214	0.122983	0.877672
Br126	Br	1.207313	-0.067159	0.344573
Br127	Br	0.890094	0.433029	0.914963
H128	H	1.170930	-0.736399	0.394428
H129	H	0.291415	0.674589	1.494998
Br130	Br	1.128344	-0.811382	0.591002
Br131	Br	0.970308	0.084150	0.807866
Br132	Br	0.970337	-0.577045	0.807823
H133	H	0.700770	-0.185184	0.447889
Br134	Br	1.128322	-0.811382	0.925269
H135	H	1.110092	0.044566	0.584271
Br136	Br	0.970337	-0.192133	0.531527
H137	H	0.291462	-0.122583	1.494891
H138	H	0.700760	-0.185174	0.631272
H139	H	-0.011496	-0.161331	1.161908
Br140	Br	0.700753	0.073410	0.572540
Br141	Br	0.273274	0.733365	1.153934
H142	H	1.110139	-0.168086	0.371560
H143	H	0.110089	0.044572	0.956059
Br144	Br	0.273214	0.122894	1.764388
H145	H	1.110070	-0.539854	1.168721
Br146	Br	0.431189	0.114157	1.547633
Br147	Br	0.970343	-0.577045	0.916430
H148	H	0.230641	0.658485	1.013424
H149	H	0.413034	0.494181	1.129888
H150	H	0.413042	-0.129324	1.328077
H151	H	-0.011490	0.051327	0.949270
H152	H	0.413022	0.083355	0.917248
Br153	Br	0.273216	0.457173	0.877651
H154	H	0.212120	-0.115160	1.115773
H155	H	0.633976	0.571404	1.083548
H156	H	0.633979	0.453421	1.083537
