data_functionalizedCrystal
_audit_creation_method	'MofGen! by Chris Wilmer'
_symmetry_space_group_name_H-M	'P1'
_symmetry_Int_Tables_number	1
_symmetry_cell_setting	triclinic
loop_
_symmetry_equiv_pos_as_xyz
  x,y,z
_cell_length_a	6.817900
_cell_length_b	12.200722
_cell_length_c	14.858572
_cell_angle_alpha	93.924192
_cell_angle_beta	104.524003
_cell_angle_gamma	107.140920
loop_
_atom_site_label
_atom_site_type_symbol
_atom_site_fract_x
_atom_site_fract_y
_atom_site_fract_z
V1	V	-4.056917	-0.159435	-0.290059
O2	O	-4.024805	0.006919	-0.284436
O3	O	-4.026550	-0.315419	-0.288173
O4	O	-4.013309	-0.157309	-0.416520
O5	O	-4.038138	-0.152286	-0.155201
V6	V	-4.537587	-0.139499	-0.273917
O7	O	-4.324433	-0.203167	-0.325468
O8	O	-4.720269	-0.095767	-0.238509
O9	O	-4.344748	0.016485	-0.275803
O10	O	-4.687096	-0.305852	-0.279541
O11	O	-4.673763	-0.146648	-0.408775
O12	O	-4.357989	-0.141625	-0.147457
C13	C	-3.875783	-0.353434	-0.283623
C14	C	-3.932273	-0.480954	-0.282924
C15	C	-3.978143	-0.584514	-0.282347
C16	C	-4.035709	-0.714434	-0.281629
C17	C	-3.858891	-0.151747	-0.447340
C18	C	-3.904640	-0.151041	-0.550723
C19	C	-4.072081	-0.148459	-0.929289
C20	C	-4.025485	-0.149177	-0.823960
C21	C	-3.988362	-0.149751	-0.740009
C22	C	-3.941763	-0.150467	-0.634674
C23	C	-4.158857	0.054494	-0.280351
C24	C	-4.081606	0.182013	-0.281057
C25	C	-4.175749	-0.147190	-0.116632
C26	C	-4.109238	-0.147891	-0.013248
