data_functionalizedCrystal
_audit_creation_method	'MofGen! by Chris Wilmer'
_symmetry_space_group_name_H-M	'P1'
_symmetry_Int_Tables_number	1
_symmetry_cell_setting	triclinic
loop_
_symmetry_equiv_pos_as_xyz
  x,y,z
_cell_length_a	18.215407
_cell_length_b	13.897447
_cell_length_c	18.215399
_cell_angle_alpha	89.974944
_cell_angle_beta	89.982632
_cell_angle_gamma	90.016973
loop_
_atom_site_label
_atom_site_type_symbol
_atom_site_fract_x
_atom_site_fract_y
_atom_site_fract_z
Zn1	Zn	1.125099	-0.384091	-0.416082
Zn2	Zn	1.625099	0.115909	0.083918
Zn3	Zn	1.125019	-0.545400	-0.293022
Zn4	Zn	1.625019	-0.045400	0.206978
Zn5	Zn	1.002032	-0.384114	-0.293035
Zn6	Zn	1.502032	0.115886	0.206965
Zn7	Zn	1.002009	-0.545338	-0.416052
Zn8	Zn	1.502009	-0.045338	0.083948
O9	O	1.063540	-0.464736	-0.354548
O10	O	1.563540	0.035264	0.145452
O11	O	1.228073	-0.405505	-0.399765
O12	O	1.728073	0.094495	0.100235
O13	O	1.108681	-0.524041	-0.190040
O14	O	1.608681	-0.024041	0.309960
O15	O	1.018400	-0.249129	-0.309375
O16	O	1.518400	0.250871	0.190625
O17	O	1.228014	-0.524019	-0.309354
O18	O	1.728014	-0.024019	0.190646
O19	O	1.108817	-0.249112	-0.399778
O20	O	1.608817	0.250888	0.100222
O21	O	1.018322	-0.405544	-0.190049
O22	O	1.518322	0.094456	0.309951
O23	O	0.899045	-0.405484	-0.309346
O24	O	1.399045	0.094516	0.190654
O25	O	1.018361	-0.523913	-0.519041
O26	O	1.518361	-0.023913	-0.019041
O27	O	0.899028	-0.523935	-0.399727
O28	O	1.399028	-0.023935	0.100273
O29	O	1.108795	-0.405445	-0.519063
O30	O	1.608795	0.094555	-0.019063
O31	O	1.108659	-0.680374	-0.309325
O32	O	1.608659	-0.180374	0.190675
O33	O	1.018284	-0.680328	-0.399714
O34	O	1.518284	-0.180328	0.100286
C35	C	0.872334	-0.464706	-0.354535
C36	C	1.372334	0.035294	0.145465
C37	C	0.790535	-0.464717	-0.354547
C38	C	1.290535	0.035283	0.145453
C39	C	0.602370	-0.403134	-0.401699
C40	C	1.102370	0.096866	0.098301
C41	C	0.525512	-0.403142	-0.401701
C42	C	1.025512	0.096858	0.098299
C43	C	0.525461	-0.526365	-0.307410
C44	C	1.025461	-0.026365	0.192590
C45	C	0.602319	-0.526351	-0.307404
C46	C	1.102319	-0.026351	0.192596
C47	C	0.640771	-0.464737	-0.354553
C48	C	1.140771	0.035263	0.145447
C49	C	0.487055	-0.464759	-0.354561
C50	C	0.987055	0.035241	0.145439
C51	C	0.403722	-0.464768	-0.354563
C52	C	0.903722	0.035232	0.145437
C53	C	0.724110	-0.464726	-0.354550
C54	C	1.224110	0.035274	0.145450
C55	C	1.063480	-0.715350	-0.354531
C56	C	1.563480	-0.215350	0.145469
C57	C	1.063522	-0.822564	-0.354548
C58	C	1.563522	-0.322564	0.145452
C59	C	1.063557	-0.909634	-0.354565
C60	C	1.563557	-0.409634	0.145435
C61	C	1.063609	-1.018866	-0.354584
C62	C	1.563609	-0.518866	0.145416
C63	C	1.255493	-0.464766	-0.354561
C64	C	1.755493	0.035234	0.145439
C65	C	1.337292	-0.464779	-0.354567
C66	C	1.837292	0.035221	0.145433
C67	C	1.063585	-0.464669	-0.546501
C68	C	1.563585	0.035331	-0.046501
C69	C	1.063604	-0.464641	-0.628300
C70	C	1.563604	0.035359	-0.128300
C71	C	1.063620	-0.213143	-0.354581
C72	C	1.563620	0.286857	0.145419
C73	C	1.063654	-0.105929	-0.354595
C74	C	1.563654	0.394071	0.145405
C75	C	1.110710	-0.402897	-0.816507
C76	C	1.610710	0.097103	-0.316507
C77	C	1.110718	-0.402869	-0.893365
C78	C	1.610718	0.097131	-0.393365
C79	C	1.016550	-0.526236	-0.893331
C80	C	1.516550	-0.026236	-0.393331
C81	C	1.016538	-0.526258	-0.816474
C82	C	1.516538	-0.026258	-0.316474
C83	C	1.063622	-0.464590	-0.778063
C84	C	1.563622	0.035410	-0.278063
C85	C	1.063643	-0.464540	-0.931780
C86	C	1.563643	0.035460	-0.431780
C87	C	1.063652	-0.464510	-1.015113
C88	C	1.563652	0.035490	-0.515113
C89	C	1.063612	-0.464619	-0.694724
C90	C	1.563612	0.035381	-0.194724
C91	C	1.063538	-0.464732	-0.163342
C92	C	1.563538	0.035268	0.336658
C93	C	1.063661	-0.464489	-0.081543
C94	C	1.563661	0.035511	0.418457
H95	H	0.494144	-0.576530	-0.269024
H96	H	0.994144	-0.076530	0.230976
C97	C	1.162490	-0.335054	-0.774257
C98	C	1.662490	0.164946	-0.274257
H99	H	1.190529	-0.298300	-0.808163
H100	H	1.690529	0.201700	-0.308163
H101	H	1.194543	-0.371956	-0.744271
H102	H	1.694543	0.128044	-0.244271
H103	H	1.134337	-0.293029	-0.744281
H104	H	1.634337	0.206971	-0.244281
H105	H	1.149061	-0.352630	-0.924662
H106	H	1.649061	0.147370	-0.424662
C107	C	0.964769	-0.594073	-0.935585
C108	C	1.464769	-0.094073	-0.435585
H109	H	0.971524	-0.585232	-0.986865
H110	H	1.471524	-0.085232	-0.486865
H111	H	0.915323	-0.579958	-0.922986
H112	H	1.415323	-0.079958	-0.422986
H113	H	0.975525	-0.658890	-0.922978
H114	H	1.475525	-0.158890	-0.422978
H115	H	0.978189	-0.576495	-0.785173
H116	H	1.478189	-0.076495	-0.285173
C117	C	0.644666	-0.335354	-0.453554
C118	C	1.144666	0.164646	0.046446
H119	H	0.610785	-0.298661	-0.481627
H120	H	1.110785	0.201339	0.018373
H121	H	0.674656	-0.372295	-0.485571
H122	H	1.174656	0.127705	0.014429
H123	H	0.674641	-0.293271	-0.425448
H124	H	1.174641	0.206729	0.074552
C125	C	0.483274	-0.335383	-0.453565
C126	C	0.983274	0.164617	0.046435
H127	H	0.517185	-0.298694	-0.481646
H128	H	1.017185	0.201306	0.018354
H129	H	0.453286	-0.293311	-0.425473
H130	H	0.953286	0.206689	0.074527
H131	H	0.453300	-0.372348	-0.485586
H132	H	0.953300	0.127652	0.014414
C133	C	0.644563	-0.594121	-0.255544
C134	C	1.144563	-0.094121	0.244456
H135	H	0.610655	-0.630828	-0.227473
H136	H	1.110655	-0.130828	0.272527
H137	H	0.674538	-0.557165	-0.223525
H138	H	1.174538	-0.057165	0.276475
H139	H	0.674549	-0.636191	-0.283646
H140	H	1.174549	-0.136191	0.216354
