data_functionalizedCrystal
_audit_creation_method	'MofGen! by Chris Wilmer'
_symmetry_space_group_name_H-M	'P1'
_symmetry_Int_Tables_number	1
_symmetry_cell_setting	triclinic
loop_
_symmetry_equiv_pos_as_xyz
  x,y,z
_cell_length_a	6.817900
_cell_length_b	11.102288
_cell_length_c	9.582880
_cell_angle_alpha	90.972801
_cell_angle_beta	111.207034
_cell_angle_gamma	108.605689
loop_
_atom_site_label
_atom_site_type_symbol
_atom_site_fract_x
_atom_site_fract_y
_atom_site_fract_z
V1	V	-4.142615	-0.175303	-0.466602
O2	O	-4.101056	0.008976	-0.457719
O3	O	-4.119180	-0.348127	-0.463410
O4	O	-4.132954	-0.172364	-0.670102
O5	O	-4.087187	-0.168004	-0.249596
V6	V	-4.617989	-0.153290	-0.440646
O7	O	-4.421750	-0.223591	-0.523537
O8	O	-4.789051	-0.105002	-0.383710
O9	O	-4.418218	0.019534	-0.443837
O10	O	-4.776945	-0.337568	-0.449528
O11	O	-4.790814	-0.160589	-0.657651
O12	O	-4.404444	-0.156228	-0.237145
C13	C	-3.969000	-0.390265	-0.456050
C14	C	-4.031384	-0.531549	-0.454797
C15	C	-3.986569	-0.166061	-0.719704
C16	C	-4.060118	-0.164802	-0.886067
C17	C	-4.245197	-0.604390	-0.461675
C18	C	-4.303807	-0.737143	-0.460510
C19	C	-3.934767	-0.724201	-0.445582
C20	C	-3.876165	-0.591453	-0.446758
C21	C	-4.231739	0.061666	-0.451194
C22	C	-4.148596	0.202949	-0.452456
C23	C	-4.214170	-0.162536	-0.187536
C24	C	-4.119858	-0.163788	-0.021171
H25	H	-4.371589	-0.555621	-0.468218
O26	O	-3.668322	-0.520868	-0.439999
C27	C	-3.543899	-0.602206	-0.432677
H28	H	-3.615683	-0.692483	-0.386424
H29	H	-3.554395	-0.630168	-0.550875
C30	C	-3.208674	-0.420453	-0.384299
C31	C	-3.296828	-0.531328	-0.327479
H32	H	-3.056267	-0.376732	-0.319414
H33	H	-3.292500	-0.365653	-0.389238
H34	H	-3.217440	-0.443771	-0.482796
H35	H	-3.288086	-0.508008	-0.228992
H36	H	-3.212994	-0.586122	-0.322521
H37	H	-4.477911	-0.796444	-0.466113
H38	H	-3.808400	-0.772991	-0.439034
