data_functionalizedCrystal
_audit_creation_method	'MofGen! by Chris Wilmer'
_symmetry_space_group_name_H-M	'P1'
_symmetry_Int_Tables_number	1
_symmetry_cell_setting	triclinic
loop_
_symmetry_equiv_pos_as_xyz
  x,y,z
_cell_length_a	10.686685
_cell_length_b	17.077404
_cell_length_c	17.077396
_cell_angle_alpha	90.021457
_cell_angle_beta	94.352930
_cell_angle_gamma	94.360721
loop_
_atom_site_label
_atom_site_type_symbol
_atom_site_fract_x
_atom_site_fract_y
_atom_site_fract_z
Zn1	Zn	-0.502329	-1.224085	-0.467907
Zn2	Zn	-0.713329	-1.234086	-0.346732
Zn3	Zn	-0.502369	-1.092819	-0.336652
Zn4	Zn	-0.713250	-1.102875	-0.477947
O5	O	-0.607819	-1.163466	-0.407310
O6	O	-0.530335	-1.335259	-0.451849
O7	O	-0.685394	-1.215324	-0.235550
O8	O	-0.325805	-1.101838	-0.345643
O9	O	-0.685355	-1.342607	-0.362822
O10	O	-0.325776	-1.198278	-0.442076
O11	O	-0.530403	-1.111535	-0.228145
O12	O	-0.530326	-0.984305	-0.355379
O13	O	-0.685221	-1.118977	-0.586460
O14	O	-0.685260	-0.991693	-0.459188
O15	O	-0.530258	-1.208029	-0.579083
O16	O	-0.889877	-1.225075	-0.372558
O17	O	-0.889818	-1.128674	-0.468961
C18	C	-0.607790	-0.959517	-0.407279
C19	C	-0.607808	-0.872268	-0.407287
C20	C	-0.688602	-0.835151	-0.461264
C21	C	-0.688602	-0.753171	-0.461273
C22	C	-0.607813	-0.708309	-0.407302
C23	C	-0.527010	-0.745431	-0.353322
C24	C	-0.527005	-0.827410	-0.353317
C25	C	-0.527030	-0.574562	-0.353336
C26	C	-0.527037	-0.492578	-0.353341
C27	C	-0.688627	-0.500323	-0.461293
C28	C	-0.688621	-0.582302	-0.461287
C29	C	-0.607820	-0.619418	-0.407307
C30	C	-0.935627	-1.179072	-0.422960
C31	C	-1.075865	-1.185820	-0.429681
C32	C	-0.278731	-1.147821	-0.391615
C33	C	-0.138493	-1.141154	-0.384927
C34	C	-0.607726	-1.163509	-0.612049
C35	C	-0.607686	-1.163528	-0.699297
C36	C	-0.607841	-0.368212	-0.407331
C37	C	-0.607831	-0.455461	-0.407318
C38	C	-0.526991	-1.209899	-0.736448
C39	C	-0.526949	-1.209906	-0.818426
C40	C	-0.607610	-1.163546	-0.863253
C41	C	-0.688309	-1.117170	-0.826097
C42	C	-0.688344	-1.117159	-0.744120
C43	C	-0.688233	-1.117198	-0.996964
C44	C	-0.688200	-1.117210	-1.078947
C45	C	-0.526838	-1.209945	-1.071270
C46	C	-0.526873	-1.209934	-0.989293
C47	C	-0.607574	-1.163559	-0.952143
C48	C	-0.607820	-1.163464	-0.203362
C49	C	-0.607505	-1.163581	-0.116097
H50	H	-0.754394	-0.722954	-0.505226
O51	O	-0.448330	-1.254875	-0.945780
C52	C	-0.322577	-1.231751	-0.959836
H53	H	-0.316199	-1.168740	-0.982052
H54	H	-0.260257	-1.235540	-0.902958
H55	H	-0.289586	-1.272272	-1.005861
O56	O	-1.139691	-1.237665	-0.481547
C57	C	-1.053307	-1.277821	-0.521825
H58	H	-0.959367	-1.276095	-0.485227
H59	H	-1.091389	-1.341473	-0.532069
H60	H	-1.039313	-1.248368	-0.580749
H61	H	-0.461311	-1.247653	-0.699955
O62	O	-1.074420	-1.089285	-0.333195
C63	C	-0.998191	-1.034949	-0.374229
H64	H	-1.037928	-1.031955	-0.437930
H65	H	-0.996674	-0.974483	-0.345710
H66	H	-0.898333	-1.054471	-0.372229
O67	O	-0.448632	-0.448879	-0.300972
C68	C	-0.465928	-0.368563	-0.312578
H69	H	-0.563378	-0.362016	-0.342799
H70	H	-0.457175	-0.336948	-0.253386
H71	H	-0.391221	-0.341780	-0.350932
H72	H	-0.461221	-0.604779	-0.309386
H73	H	-0.461126	-1.247705	-1.101521
H74	H	-0.754393	-0.871672	-0.505211
O75	O	-0.766818	-1.072254	-0.960913
C76	C	-0.892553	-1.095394	-0.986962
H77	H	-0.898896	-1.158405	-1.009827
H78	H	-0.954910	-1.091610	-0.936019
H79	H	-0.925525	-1.054879	-1.036101
O80	O	-0.448525	-1.255027	-0.854390
C81	C	-0.377325	-1.295932	-0.797246
H82	H	-0.429033	-1.301096	-0.741275
H83	H	-0.363873	-1.357145	-0.820304
H84	H	-0.281497	-1.262635	-0.783949
H85	H	-0.753980	-1.079419	-0.862602
H86	H	-0.461225	-0.708898	-0.309381
H87	H	-0.753879	-1.079457	-1.115443
O88	O	-0.766867	-1.072105	-0.708158
C89	C	-0.838040	-1.031179	-0.765299
H90	H	-0.842374	-1.063543	-0.823953
H91	H	-0.937462	-1.027541	-0.746354
H92	H	-0.791840	-0.969361	-0.771796
O93	O	-0.448488	-0.863345	-0.300803
C94	C	-0.377164	-0.806171	-0.253178
H95	H	-0.428839	-0.750192	-0.252880
H96	H	-0.363582	-0.829183	-0.190694
H97	H	-0.281397	-0.792905	-0.277447
H98	H	-0.754415	-0.470099	-0.505248
O99	O	-0.767141	-0.625763	-0.513789
C100	C	-0.838481	-0.575427	-0.561423
H101	H	-0.786818	-0.514528	-0.561735
H102	H	-0.852065	-0.599792	-0.623901
H103	H	-0.934246	-0.571258	-0.537151
