data_functionalizedCrystal
_audit_creation_method	'MofGen! by Chris Wilmer'
_symmetry_space_group_name_H-M	'P1'
_symmetry_Int_Tables_number	1
_symmetry_cell_setting	triclinic
loop_
_symmetry_equiv_pos_as_xyz
  x,y,z
_cell_length_a	10.654556
_cell_length_b	12.837942
_cell_length_c	9.130313
_cell_angle_alpha	89.996012
_cell_angle_beta	89.998135
_cell_angle_gamma	89.658239
loop_
_atom_site_label
_atom_site_type_symbol
_atom_site_fract_x
_atom_site_fract_y
_atom_site_fract_z
O1	O	1.683740	0.145755	-0.121743
O2	O	1.319777	0.159631	-0.121758
O3	O	1.493688	0.001732	-0.121742
O4	O	1.509829	0.303654	-0.121759
O5	O	1.493674	0.001727	0.121857
O6	O	1.319763	0.159627	0.121841
O7	O	1.683726	0.145750	0.121856
Cu8	Cu	1.501744	0.152688	0.144091
Cu9	Cu	1.501760	0.152693	-0.143993
O10	O	1.509815	0.303649	0.121840
C11	C	1.272861	0.158609	0.000040
C12	C	1.133085	0.155556	0.000034
C13	C	0.936078	0.151261	-0.132740
C14	C	1.067413	0.154123	-0.132749
C15	C	1.067416	0.154117	0.132836
C16	C	0.936084	0.151248	0.132843
C17	C	1.488229	-0.036930	0.000057
C18	C	1.471966	-0.152124	0.000054
C19	C	1.667470	-0.391674	0.000031
C20	C	1.652196	-0.499909	0.000028
C21	C	1.426145	-0.476834	0.000034
C22	C	1.441419	-0.368598	0.000037
C23	C	1.562086	-0.326022	0.000038
C24	C	1.577359	-0.217784	0.000051
C25	C	1.351308	-0.194711	0.000047
C26	C	1.336034	-0.302947	0.000044
C27	C	1.730642	0.146773	0.000055
C28	C	1.870418	0.149825	0.000051
C29	C	1.515275	0.342312	0.000038
C30	C	1.531537	0.457506	0.000032
N31	N	1.501741	0.152684	0.346714
N32	N	1.501771	0.152690	-0.346615
C33	C	1.578781	0.082795	0.423373
C34	C	1.578793	0.082796	0.576710
C35	C	1.424722	0.222581	0.576715
C36	C	1.424705	0.222575	0.423381
H37	H	1.120897	0.155278	0.240950
H38	H	1.362003	0.279487	0.639153
Cl39	Cl	0.853531	0.149466	-0.299678
Cl40	Cl	1.149951	0.155923	-0.299695
Cl41	Cl	1.784686	-0.582440	0.000015
Cl42	Cl	0.853535	0.149441	0.299795
Cl43	Cl	1.675622	-0.005072	0.326998
H44	H	1.675611	-0.183121	0.000058
Cl45	Cl	1.819160	-0.338145	0.000069
H46	H	1.327903	-0.511519	0.000018
H47	H	1.237790	-0.337628	0.000038
Cl48	Cl	1.327840	0.310436	0.327000
Cl49	Cl	1.675645	-0.005069	0.673077
Cl50	Cl	1.218817	-0.112171	0.000074
