data_functionalizedCrystal
_audit_creation_method	'MofGen! by Chris Wilmer'
_symmetry_space_group_name_H-M	'P1'
_symmetry_Int_Tables_number	1
_symmetry_cell_setting	triclinic
loop_
_symmetry_equiv_pos_as_xyz
  x,y,z
_cell_length_a	12.759401
_cell_length_b	18.050589
_cell_length_c	12.759393
_cell_angle_alpha	89.969175
_cell_angle_beta	89.982620
_cell_angle_gamma	90.028382
loop_
_atom_site_label
_atom_site_type_symbol
_atom_site_fract_x
_atom_site_fract_y
_atom_site_fract_z
Zn1	Zn	1.606145	-0.295611	-0.593988
Zn2	Zn	1.606001	-0.419822	-0.418311
Zn3	Zn	1.430450	-0.295650	-0.418328
Zn4	Zn	1.430394	-0.419764	-0.593953
O5	O	1.518248	-0.357712	-0.506145
O6	O	1.753147	-0.312095	-0.570692
O7	O	1.582678	-0.403391	-0.271292
O8	O	1.453840	-0.191720	-0.441651
O9	O	1.753041	-0.403352	-0.441623
O10	O	1.582923	-0.191692	-0.570708
O11	O	1.453701	-0.312162	-0.271304
O12	O	1.283422	-0.312107	-0.441617
O13	O	1.453745	-0.403254	-0.740979
O14	O	1.283381	-0.403292	-0.570648
O15	O	1.582868	-0.312040	-0.741005
O16	O	1.582623	-0.523739	-0.441589
O17	O	1.453605	-0.523696	-0.570632
C18	C	1.245280	-0.357698	-0.506131
C19	C	1.128504	-0.357710	-0.506149
C20	C	1.073648	-0.405267	-0.573225
C21	C	0.963924	-0.405276	-0.573236
C22	C	0.963921	-0.310170	-0.439088
C23	C	1.073644	-0.310158	-0.439083
C24	C	1.073648	-0.460177	-0.650671
C25	C	0.963924	-0.460187	-0.650683
C26	C	1.518121	-0.550664	-0.506127
C27	C	1.518163	-0.633210	-0.506155
C28	C	1.448072	-0.832664	-0.576304
C29	C	1.422460	-0.882113	-0.480436
C30	C	1.518266	-0.784340	-0.506169
C31	C	1.543930	-0.881973	-0.602048
C32	C	1.518364	-0.930325	-0.506191
C33	C	1.492603	-0.832702	-0.410250
C34	C	1.614118	-0.832557	-0.531927
C35	C	1.588542	-0.881984	-0.435992
C36	C	1.518207	-0.700242	-0.506158
C37	C	1.518423	-1.014422	-0.506191
C38	C	1.792281	-0.357726	-0.506160
C39	C	1.909058	-0.357732	-0.506166
C40	C	1.518316	-0.357636	-0.780178
C41	C	1.518345	-0.357604	-0.896955
C42	C	1.518404	-0.164006	-0.506185
C43	C	1.518470	-0.081460	-0.506203
C44	C	1.451216	-0.310093	-0.951829
C45	C	1.451247	-0.310071	-1.061554
C46	C	1.585547	-0.405073	-1.061519
C47	C	1.585510	-0.405098	-0.951797
C48	C	1.373682	-0.255241	-0.951850
C49	C	1.373713	-0.255219	-1.061574
C50	C	1.518240	-0.357733	-0.233178
C51	C	1.518415	-0.357556	-0.116401
H52	H	1.103460	-0.444839	-0.732077
H53	H	1.107645	-0.514785	-0.621388
N54	N	1.654162	-0.453589	-1.117520
N55	N	1.647139	-0.522119	-1.105238
H56	H	1.695604	-0.556384	-1.144784
H57	H	0.919241	-0.271454	-0.384485
N58	N	1.654066	-0.453626	-0.895719
N59	N	1.617041	-0.500955	-0.834471
H60	H	1.665462	-0.535226	-0.794860
N61	N	1.663065	-0.908999	-0.361532
N62	N	1.737757	-0.948533	-0.391295
H63	H	1.790386	-0.967616	-0.338706
N64	N	1.715727	-0.805237	-0.559298
N65	N	1.754810	-0.820968	-0.646324
H66	H	1.826573	-0.801673	-0.665666
N67	N	0.926528	-0.532320	-0.623148
N68	N	0.950149	-0.559981	-0.536491
H69	H	0.923739	-0.610923	-0.517042
N70	N	1.320837	-0.909435	-0.453095
N71	N	1.309460	-0.949085	-0.373550
H72	H	1.237688	-0.968380	-0.354244
N73	N	1.276740	-0.281057	-1.104254
N74	N	1.204091	-0.300422	-1.044462
H75	H	1.135607	-0.318675	-1.074604
H76	H	1.395550	-0.197693	-1.091370
H77	H	1.292287	-0.270643	-0.922073
H78	H	0.929932	-0.439656	-0.728034
N79	N	1.410278	-0.186708	-0.909186
N80	N	1.363263	-0.127735	-0.929774
H81	H	1.389113	-0.079332	-0.899644
H82	H	1.118303	-0.271428	-0.384470
N83	N	1.373498	-0.805476	-0.650590
N84	N	1.362036	-0.737266	-0.663021
H85	H	1.309365	-0.718062	-0.715479
N86	N	1.465290	-0.805658	-0.308521
N87	N	1.460795	-0.737470	-0.292107
H88	H	1.441495	-0.718367	-0.220265
N89	N	1.571098	-0.909126	-0.703758
N90	N	1.515287	-0.893310	-0.781086
H91	H	1.534465	-0.912486	-0.852921
