data_functionalizedCrystal
_audit_creation_method	'MofGen! by Chris Wilmer'
_symmetry_space_group_name_H-M	'P1'
_symmetry_Int_Tables_number	1
_symmetry_cell_setting	triclinic
loop_
_symmetry_equiv_pos_as_xyz
  x,y,z
_cell_length_a	15.297475
_cell_length_b	18.215405
_cell_length_c	18.215399
_cell_angle_alpha	90.030551
_cell_angle_beta	80.315508
_cell_angle_gamma	99.673149
loop_
_atom_site_label
_atom_site_type_symbol
_atom_site_fract_x
_atom_site_fract_y
_atom_site_fract_z
Zn1	Zn	1.379205	0.487998	-0.610456
Zn2	Zn	1.712538	0.821331	-0.277123
Zn3	Zn	2.045872	1.154665	0.056210
Zn4	Zn	1.379093	0.611053	-0.487369
Zn5	Zn	1.712426	0.944387	-0.154035
Zn6	Zn	2.045759	1.277720	0.179298
Zn7	Zn	1.228339	0.466690	-0.466144
Zn8	Zn	1.561672	0.800023	-0.132811
Zn9	Zn	1.895006	1.133357	0.200523
Zn10	Zn	1.228297	0.589690	-0.589144
Zn11	Zn	1.561630	0.923024	-0.255811
Zn12	Zn	1.894964	1.256357	0.077523
O13	O	1.303733	0.538858	-0.538278
O14	O	1.637067	0.872191	-0.204945
O15	O	1.970400	1.205525	0.128388
O16	O	1.505437	0.522179	-0.611930
O17	O	1.838770	0.855513	-0.278597
O18	O	2.172103	1.188846	0.054736
O19	O	1.359065	0.591926	-0.381565
O20	O	1.692399	0.925260	-0.048231
O21	O	2.025732	1.258593	0.285102
O22	O	1.248416	0.366541	-0.485324
O23	O	1.581750	0.699875	-0.151991
O24	O	1.915083	1.033208	0.181342
O25	O	1.505354	0.612588	-0.521498
O26	O	1.838688	0.945921	-0.188165
O27	O	2.172021	1.279254	0.145168
O28	O	1.359257	0.382196	-0.591350
O29	O	1.692590	0.715530	-0.258016
O30	O	2.025924	1.048863	0.075317
O31	O	1.248307	0.485863	-0.365971
O32	O	1.581641	0.819197	-0.032638
O33	O	1.914974	1.152530	0.300696
O34	O	1.102087	0.465148	-0.464658
O35	O	1.435420	0.798482	-0.131325
O36	O	1.768754	1.131815	0.202008
O37	O	1.248345	0.576178	-0.694959
O38	O	1.581678	0.909511	-0.361626
O39	O	1.915012	1.242844	-0.028293
O40	O	1.102056	0.555516	-0.555026
O41	O	1.435390	0.888850	-0.221692
O42	O	1.768723	1.222183	0.111641
O43	O	1.359216	0.501465	-0.710618
O44	O	1.692550	0.834798	-0.377284
O45	O	2.025883	1.168131	-0.043951
O46	O	1.359025	0.711195	-0.500833
O47	O	1.692358	1.044528	-0.167499
O48	O	2.025692	1.377861	0.165834
O49	O	1.248236	0.695499	-0.575606
O50	O	1.581569	1.028833	-0.242273
O51	O	1.914903	1.362166	0.091060
C52	C	1.069337	0.505703	-0.505227
C53	C	1.402671	0.839036	-0.171893
C54	C	1.736004	1.172369	0.161440
C55	C	0.969061	0.491536	-0.491104
C56	C	1.302395	0.824870	-0.157771
C57	C	1.635728	1.158203	0.175562
C58	C	1.303638	0.730051	-0.538229
C59	C	1.636972	1.063384	-0.204896
C60	C	1.970305	1.396717	0.128437
C61	C	1.303680	0.811856	-0.538245
C62	C	1.637013	1.145189	-0.204911
C63	C	1.970347	1.478522	0.128422
C64	C	1.303788	0.538815	-0.730239
C65	C	1.637122	0.872148	-0.396906
C66	C	1.970455	1.205482	-0.063572
C67	C	1.303812	0.538797	-0.812041
C68	C	1.637145	0.872130	-0.478708
C69	C	1.970479	1.205463	-0.145375
C70	C	0.686437	0.640112	-0.639213
C71	C	1.019770	0.973445	-0.305880
C72	C	1.353103	1.306779	0.027453
C73	C	0.780651	0.653427	-0.652480
C74	C	1.113984	0.986761	-0.319146
C75	C	1.447317	1.320094	0.014187
C76	C	0.827758	0.612956	-0.612137
C77	C	1.161091	0.946289	-0.278804
C78	C	1.494425	1.279622	0.054529
C79	C	0.780642	0.559166	-0.558526
C80	C	1.113975	0.892500	-0.225192
C81	C	1.447309	1.225833	0.108141
C82	C	0.686419	0.545854	-0.545254
C83	C	1.019752	0.879187	-0.211921
C84	C	1.353085	1.212520	0.121413
C85	C	0.827740	0.518697	-0.518178
C86	C	1.161073	0.852031	-0.184845
C87	C	1.494407	1.185364	0.148489
C88	C	0.780624	0.464908	-0.464566
C89	C	1.113957	0.798241	-0.131233
C90	C	1.447291	1.131575	0.202100
C91	C	0.686410	0.451598	-0.451297
C92	C	1.019743	0.784931	-0.117964
C93	C	1.353077	1.118264	0.215369
C94	C	0.639303	0.492069	-0.491640
C95	C	0.972636	0.825403	-0.158306
C96	C	1.305969	1.158736	0.175027
C97	C	0.921963	0.532010	-0.531450
C98	C	1.255297	0.865343	-0.198116
C99	C	1.588630	1.198677	0.135217
C100	C	0.921945	0.437752	-0.437490
C101	C	1.255279	0.771085	-0.104157
C102	C	1.588612	1.104418	0.229176
C103	C	0.827731	0.424436	-0.424224
C104	C	1.161065	0.757770	-0.090891
C105	C	1.494398	1.091103	0.242443
C106	C	1.539045	0.572143	-0.571459
C107	C	1.872378	0.905477	-0.238126
C108	C	2.205712	1.238810	0.095207
C109	C	1.639321	0.586328	-0.585599
C110	C	1.972654	0.919661	-0.252266
C111	C	2.305987	1.252994	0.081068
C112	C	1.303854	0.346922	-0.538347
C113	C	1.637187	0.680255	-0.205013
C114	C	1.970520	1.013589	0.128320
C115	C	1.303905	0.265130	-0.538376
C116	C	1.637238	0.598464	-0.205043
C117	C	1.970572	0.931797	0.128291
C118	C	1.361503	1.008217	-0.499416
C119	C	1.694837	1.341550	-0.166082
C120	C	2.028170	1.674883	0.167251
C121	C	1.361544	1.085081	-0.499439
C122	C	1.694877	1.418414	-0.166106
C123	C	2.028210	1.751748	0.167227
C124	C	1.246079	1.068763	-0.577210
C125	C	1.579412	1.402097	-0.243877
C126	C	1.912746	1.735430	0.089457
C127	C	1.246044	0.991901	-0.577190
C128	C	1.579377	1.325234	-0.243857
C129	C	1.912711	1.658568	0.089476
C130	C	1.303755	0.961630	-0.538289
C131	C	1.637088	1.294963	-0.204956
C132	C	1.970421	1.628296	0.128378
C133	C	1.303830	1.115356	-0.538332
C134	C	1.637164	1.448690	-0.204999
C135	C	1.970497	1.782023	0.128335
C136	C	1.303874	1.198696	-0.538358
C137	C	1.637207	1.532029	-0.205024
C138	C	1.970540	1.865363	0.128309
C139	C	1.303713	0.878285	-0.538264
C140	C	1.637046	1.211618	-0.204931
C141	C	1.970380	1.544951	0.128403
C142	C	1.361563	0.499853	-1.008393
C143	C	1.694897	0.833186	-0.675059
C144	C	2.028230	1.166519	-0.341726
C145	C	1.361574	0.499833	-1.085253
C146	C	1.694907	0.833166	-0.751920
C147	C	2.028241	1.166499	-0.418586
C148	C	1.246124	0.577636	-1.068937
C149	C	1.579458	0.910969	-0.735603
C150	C	1.912791	1.244303	-0.402270
C151	C	1.246110	0.577651	-0.992077
C152	C	1.579443	0.910984	-0.658744
C153	C	1.912776	1.244318	-0.325411
C154	C	1.303834	0.538761	-0.961808
C155	C	1.637168	0.872095	-0.628475
C156	C	1.970501	1.205428	-0.295141
C157	C	1.303860	0.538726	-1.115528
C158	C	1.637193	0.872059	-0.782194
C159	C	1.970526	1.205393	-0.448861
C160	C	1.303871	0.538705	-1.198863
C161	C	1.637204	0.872038	-0.865530
C162	C	1.970538	1.205372	-0.532196
C163	C	1.303822	0.538781	-0.878467
C164	C	1.637155	0.872115	-0.545134
C165	C	1.970489	1.205448	-0.211801
C166	C	1.303731	0.538855	-0.347072
C167	C	1.637064	0.872188	-0.013738
C168	C	1.970397	1.205522	0.319595
C169	C	1.303882	0.538691	-0.265294
C170	C	1.637215	0.872024	0.068039
C171	C	1.970549	1.205357	0.401372
H172	H	0.960316	0.575805	-0.575101
H173	H	1.293649	0.909139	-0.241768
H174	H	1.626983	1.242472	0.091565
H175	H	1.408582	0.468148	-1.123179
H176	H	1.741915	0.801481	-0.789846
H177	H	2.075248	1.134815	-0.456513
C178	C	0.931396	0.627617	-0.626720
C179	C	1.264730	0.960951	-0.293387
C180	C	1.598063	1.294284	0.039946
N181	N	1.009461	0.638666	-0.637704
N182	N	1.342794	0.971999	-0.304370
N183	N	1.676128	1.305332	0.028963
H184	H	1.199018	0.953967	-0.608849
H185	H	1.532351	1.287300	-0.275516
H186	H	1.865685	1.620633	0.057818
C187	C	1.425054	0.457065	-0.975098
C188	C	1.758387	0.790398	-0.641765
C189	C	2.091721	1.123732	-0.308431
N190	N	1.472874	0.424833	-0.950023
N191	N	1.806208	0.758166	-0.616689
N192	N	2.139541	1.091500	-0.283356
H193	H	0.648051	0.407806	-0.407636
H194	H	0.981384	0.741140	-0.074302
H195	H	1.314717	1.074473	0.259031
H196	H	1.199092	1.093420	-0.608881
H197	H	1.532425	1.426753	-0.275547
H198	H	1.865758	1.760087	0.057786
C199	C	1.182629	0.620411	-1.102241
C200	C	1.515962	0.953744	-0.768907
C201	C	1.849295	1.287078	-0.435574
N202	N	1.134802	0.652630	-1.127324
N203	N	1.468136	0.985963	-0.793991
N204	N	1.801469	1.319296	-0.460657
C205	C	0.634613	0.684627	-0.683581
C206	C	0.967946	1.017960	-0.350247
C207	C	1.301279	1.351294	-0.016914
N208	N	0.595578	0.718159	-0.717001
N209	N	0.928911	1.051492	-0.383668
N210	N	1.262244	1.384825	-0.050334
C211	C	1.182597	0.620453	-0.940830
C212	C	1.515930	0.953787	-0.607497
C213	C	1.849264	1.287120	-0.274164
N214	N	1.134759	0.652688	-0.902231
N215	N	1.468092	0.986022	-0.568898
N216	N	1.801425	1.319355	-0.235564
C217	C	0.973760	0.393228	-0.393112
C218	C	1.307093	0.726561	-0.059779
C219	C	1.640426	1.059895	0.273554
N220	N	1.012792	0.359696	-0.359690
N221	N	1.346125	0.693029	-0.026356
N222	N	1.679458	1.026362	0.306977
H223	H	0.562586	0.481229	-0.480843
H224	H	0.895919	0.814563	-0.147509
H225	H	1.229253	1.147896	0.185824
H226	H	0.819006	0.697224	-0.696129
H227	H	1.152339	1.030558	-0.362795
H228	H	1.485673	1.363891	-0.029462
H229	H	1.408569	1.123010	-0.467786
H230	H	1.741903	1.456343	-0.134453
H231	H	2.075236	1.789677	0.198881
H232	H	1.408496	0.983572	-0.467741
H233	H	1.741829	1.316905	-0.134408
H234	H	2.075163	1.650239	0.198926
H235	H	0.789356	0.380641	-0.380573
H236	H	1.122690	0.713974	-0.047239
H237	H	1.456023	1.047308	0.286094
