data_functionalizedCrystal
_audit_creation_method	'MofGen! by Chris Wilmer'
_symmetry_space_group_name_H-M	'P1'
_symmetry_Int_Tables_number	1
_symmetry_cell_setting	triclinic
loop_
_symmetry_equiv_pos_as_xyz
  x,y,z
_cell_length_a	10.723023
_cell_length_b	16.109301
_cell_length_c	14.586319
_cell_angle_alpha	89.998857
_cell_angle_beta	90.001882
_cell_angle_gamma	96.035434
loop_
_atom_site_label
_atom_site_type_symbol
_atom_site_fract_x
_atom_site_fract_y
_atom_site_fract_z
O1	O	-0.160392	1.104074	-0.076186
O2	O	0.339608	1.604074	0.423814
O3	O	-0.180352	0.862130	-0.076198
O4	O	0.319648	1.362130	0.423802
O5	O	0.011278	0.988683	-0.076190
O6	O	0.511278	1.488683	0.423810
O7	O	-0.352022	0.977521	-0.076194
O8	O	0.147978	1.477521	0.423806
O9	O	0.011281	0.988674	0.076291
O10	O	0.511281	1.488674	0.576291
O11	O	-0.180349	0.862121	0.076282
O12	O	0.319651	1.362121	0.576282
O13	O	-0.160389	1.104065	0.076295
O14	O	0.339611	1.604065	0.576295
Cu15	Cu	-0.170369	0.983092	0.090211
Cu16	Cu	0.329631	1.483092	0.590211
Cu17	Cu	-0.170373	0.983103	-0.090115
Cu18	Cu	0.329627	1.483103	0.409885
O19	O	-0.352020	0.977512	0.076287
O20	O	0.147980	1.477512	0.576287
C21	C	-0.179542	0.831146	0.000040
C22	C	0.320458	1.331146	0.500040
C23	C	-0.177118	0.738836	0.000035
C24	C	0.322882	1.238836	0.500035
C25	C	-0.282903	0.430460	0.000050
C26	C	0.217097	0.930460	0.500050
C27	C	-0.285193	0.517194	0.000045
C28	C	0.214807	1.017194	0.500045
C29	C	-0.057830	0.535730	0.000035
C30	C	0.442170	1.035730	0.500035
C31	C	-0.055542	0.448997	0.000034
C32	C	0.444458	0.948997	0.500034
C33	C	-0.168082	0.396364	0.000046
C34	C	0.331918	0.896364	0.500046
C35	C	-0.172660	0.569830	0.000042
C36	C	0.327340	1.069830	0.500042
C37	C	-0.175141	0.663871	0.000036
C38	C	0.324859	1.163871	0.500036
C39	C	-0.165601	0.302318	0.000050
C40	C	0.334399	0.802318	0.500050
C41	C	-0.398510	0.978328	0.000046
C42	C	0.101490	1.478328	0.500046
C43	C	-0.537032	0.980758	0.000044
C44	C	-0.037032	1.480758	0.500044
C45	C	-0.598788	0.981837	0.079033
C46	C	-0.098788	1.481837	0.579033
C47	C	-0.741958	0.984349	0.079034
C48	C	-0.241958	1.484349	0.579034
C49	C	0.057768	0.987866	0.000049
C50	C	0.557768	1.487866	0.500049
C51	C	0.196290	0.985436	0.000044
C52	C	0.696290	1.485436	0.500044
C53	C	-0.161199	1.135049	0.000054
C54	C	0.338801	1.635049	0.500054
C55	C	-0.163624	1.227359	0.000053
C56	C	0.336376	1.727359	0.500053
N57	N	-0.170366	0.983091	0.217043
N58	N	0.329634	1.483091	0.717043
N59	N	-0.170366	0.983111	-0.216947
N60	N	0.329634	1.483111	0.283053
C61	C	-0.085541	1.039148	0.452053
C62	C	0.414459	1.539148	0.952053
C63	C	-0.085538	1.039150	0.548034
C64	C	0.414462	1.539150	1.048034
C65	C	-0.255195	0.927048	0.548037
C66	C	0.244805	1.427048	1.048037
C67	C	-0.255191	0.927042	0.452057
C68	C	0.244809	1.427042	0.952057
C69	C	-0.170365	0.983097	0.404068
C70	C	0.329635	1.483097	0.904068
C71	C	-0.170366	0.983105	0.596029
C72	C	0.329634	1.483105	1.096029
C73	C	-0.170364	0.983107	0.700096
C74	C	0.329636	1.483107	1.200096
C75	C	-0.170366	0.983094	0.299994
C76	C	0.329634	1.483094	0.799994
H77	H	-0.378691	0.544949	0.000048
H78	H	0.121309	1.044949	0.500048
H79	H	0.037965	0.421237	0.000028
H80	H	0.537965	0.921237	0.500028
C81	C	-0.406701	0.372567	0.000055
C82	C	0.093299	0.872567	0.500055
N83	N	-0.499949	0.328963	0.000056
N84	N	0.000051	0.828963	0.500056
C85	C	0.065958	0.593633	0.000038
C86	C	0.565958	1.093633	0.500038
N87	N	0.159198	0.637246	0.000046
N88	N	0.659198	1.137246	0.500046
C89	C	0.007787	1.100804	0.600814
C90	C	0.507787	1.600804	1.100814
N91	N	0.078087	1.147241	0.640567
N92	N	0.578087	1.647241	1.140567
H93	H	-0.545668	0.980897	0.146658
H94	H	-0.045668	1.480897	0.646658
C95	C	-0.348496	0.865390	0.600834
C96	C	0.151504	1.365390	1.100834
N97	N	-0.418772	0.818947	0.640600
N98	N	0.081228	1.318947	1.140600
C99	C	-0.813702	0.985600	0.170396
C100	C	-0.313702	1.485600	0.670396
N101	N	-0.867744	0.986541	0.239213
N102	N	-0.367744	1.486541	0.739213
H103	H	-0.016468	1.084789	0.412982
H104	H	0.483532	1.584789	0.912982
C105	C	-0.731974	0.984183	-0.091322
C106	C	-0.231974	1.484183	0.408678
N107	N	-0.677933	0.983237	-0.160139
N108	N	-0.177933	1.483237	0.339861
C109	C	-0.348567	0.865416	0.399270
C110	C	0.151433	1.365416	0.899270
N111	N	-0.418913	0.819015	0.359511
N112	N	0.081087	1.319015	0.859511
H113	H	-0.590154	0.981687	-0.067581
H114	H	-0.090154	1.481687	0.432419
