data_functionalizedCrystal
_audit_creation_method	'MofGen! by Chris Wilmer'
_symmetry_space_group_name_H-M	'P1'
_symmetry_Int_Tables_number	1
_symmetry_cell_setting	triclinic
loop_
_symmetry_equiv_pos_as_xyz
  x,y,z
_cell_length_a	13.635800
_cell_length_b	17.982959
_cell_length_c	9.582880
_cell_angle_alpha	86.497529
_cell_angle_beta	68.792966
_cell_angle_gamma	102.451857
loop_
_atom_site_label
_atom_site_type_symbol
_atom_site_fract_x
_atom_site_fract_y
_atom_site_fract_z
V1	V	-2.055810	-0.105091	0.467224
O2	O	-2.051321	0.005381	0.457687
O3	O	-2.028815	-0.208695	0.464647
O4	O	-2.051239	-0.103329	0.670715
O5	O	-2.028742	-0.100715	0.250193
V6	V	-2.295443	-0.091894	0.441191
O7	O	-2.191109	-0.134038	0.524332
O8	O	-2.385243	-0.062946	0.384083
O9	O	-2.210836	0.011710	0.443768
O10	O	-2.358631	-0.202366	0.450728
O11	O	-2.381211	-0.096270	0.658222
O12	O	-2.188411	-0.093656	0.237700
C13	C	-1.950000	-0.233956	0.457436
C14	C	-1.968702	-0.318653	0.456686
V15	V	-1.555810	-0.105091	0.467224
O16	O	-1.551321	0.005381	0.457687
O17	O	-1.528815	-0.208695	0.464647
O18	O	-1.551239	-0.103329	0.670715
O19	O	-1.528742	-0.100715	0.250193
V20	V	-1.795443	-0.091894	0.441191
O21	O	-1.691109	-0.134038	0.524332
O22	O	-1.885243	-0.062946	0.384083
O23	O	-1.710836	0.011710	0.443768
O24	O	-1.858631	-0.202366	0.450728
O25	O	-1.881211	-0.096270	0.658222
O26	O	-1.688411	-0.093656	0.237700
C27	C	-2.069169	-0.362320	0.463821
C28	C	-2.086737	-0.441902	0.463124
C29	C	-2.003835	-0.477816	0.455282
C30	C	-1.903361	-0.434144	0.448151
C31	C	-1.885796	-0.354564	0.448858
C32	C	-1.974196	-0.755082	0.445300
C33	C	-1.991768	-0.834667	0.444589
C34	C	-2.175137	-0.842420	0.459566
C35	C	-2.157573	-0.762840	0.460274
C36	C	-2.057103	-0.719176	0.453151
C37	C	-2.038054	-0.632884	0.453909
C38	C	-2.022879	-0.564106	0.454513
C39	C	-1.978604	-0.099550	0.720294
C40	C	-2.015490	-0.098795	0.886653
C41	C	-2.121321	0.036968	0.450975
C42	C	-2.092239	0.121664	0.451735
C43	C	-2.092717	-0.097437	0.188113
C44	C	-2.045450	-0.098188	0.021753
C45	C	-1.450000	-0.233956	0.457436
C46	C	-1.468702	-0.318653	0.456686
C47	C	-1.478604	-0.099550	0.720294
C48	C	-1.515490	-0.098795	0.886653
C49	C	-1.621321	0.036968	0.450975
C50	C	-1.592239	0.121664	0.451735
C51	C	-1.592717	-0.097437	0.188113
C52	C	-1.545450	-0.098188	0.021753
C53	C	-1.569179	-0.362308	0.463833
C54	C	-1.586771	-0.441892	0.463151
C55	C	-1.503882	-0.477820	0.455310
C56	C	-1.403398	-0.434160	0.448167
C57	C	-1.385810	-0.354578	0.448860
C58	C	-1.664256	0.165318	0.444591
C59	C	-1.636937	0.244901	0.445281
C60	C	-1.537603	0.280829	0.453125
C61	C	-1.465580	0.237170	0.460265
C62	C	-1.492896	0.157588	0.459564
H63	H	-2.136676	-0.333084	0.470192
F64	F	-2.193667	-0.488372	0.470717
H65	H	-2.256947	-0.877981	0.465369
H66	H	-1.518218	-0.542621	0.454747
F67	F	-2.245805	-0.724621	0.468603
H68	H	-1.924256	-0.863906	0.438213
H69	H	-1.335915	-0.463424	0.441783
H70	H	-1.803988	-0.319012	0.443054
H71	H	-1.835864	-0.463392	0.441775
H72	H	-1.695595	0.280438	0.439469
H73	H	-1.636681	-0.333066	0.470209
H74	H	-1.384700	0.266434	0.466650
H75	H	-1.892388	-0.719539	0.439491
H76	H	-1.668595	-0.477429	0.468964
F77	F	-1.278862	-0.308125	0.441240
H78	H	-1.745144	0.136076	0.438205
F79	F	-1.508544	0.365528	0.453869
F80	F	-1.416238	0.111136	0.467172
