data_functionalizedCrystal
_audit_creation_method	'MofGen! by Chris Wilmer'
_symmetry_space_group_name_H-M	'P1'
_symmetry_Int_Tables_number	1
_symmetry_cell_setting	triclinic
loop_
_symmetry_equiv_pos_as_xyz
  x,y,z
_cell_length_a	16.959455
_cell_length_b	16.959453
_cell_length_c	11.169409
_cell_angle_alpha	90.034581
_cell_angle_beta	90.024184
_cell_angle_gamma	90.024590
loop_
_atom_site_label
_atom_site_type_symbol
_atom_site_fract_x
_atom_site_fract_y
_atom_site_fract_z
Zn1	Zn	-1.208417	0.314647	-0.678639
Zn2	Zn	-1.208307	0.446854	-0.477948
Zn3	Zn	-1.076226	0.314690	-0.477961
Zn4	Zn	-1.076197	0.446784	-0.678580
O5	O	-1.142287	0.380744	-0.578282
O6	O	-1.319014	0.332196	-0.652037
O7	O	-1.190752	0.429369	-0.310000
O8	O	-1.093820	0.204073	-0.504612
O9	O	-1.318932	0.429327	-0.504590
O10	O	-1.190941	0.204042	-0.652049
O11	O	-1.093713	0.332269	-0.310010
O12	O	-0.965612	0.332202	-0.504554
O13	O	-1.093770	0.429209	-0.846538
O14	O	-0.965590	0.429251	-0.651949
O15	O	-1.190912	0.332129	-0.846581
O16	O	-1.190724	0.557456	-0.504532
O17	O	-1.093663	0.557405	-0.651936
C18	C	-0.936921	0.380724	-0.578247
C19	C	-0.849064	0.380734	-0.578261
C20	C	-0.807746	0.431234	-0.501381
C21	C	-0.807829	0.330240	-0.655147
C22	C	-0.725283	0.330245	-0.655159
C23	C	-0.683965	0.380744	-0.578280
C24	C	-0.725192	0.431239	-0.501389
C25	C	-0.684049	0.279746	-0.732040
C26	C	-0.601498	0.279748	-0.732055
C27	C	-0.560178	0.330252	-0.655181
C28	C	-0.601411	0.380749	-0.578287
C29	C	-0.560093	0.431249	-0.501408
C30	C	-0.601324	0.481750	-0.424520
C31	C	-0.683873	0.481743	-0.424515
C32	C	-0.477630	0.330260	-0.655186
C33	C	-0.477539	0.431254	-0.501415
C34	C	-1.142199	0.586110	-0.578253
C35	C	-1.142234	0.673967	-0.578280
C36	C	-1.142350	0.380656	-0.891325
C37	C	-1.142377	0.380619	-1.024725
C38	C	-0.348455	0.380761	-0.578311
C39	C	-0.436312	0.380759	-0.578307
C40	C	-1.091674	0.715243	-0.654975
C41	C	-1.192833	0.715244	-0.501618
C42	C	-1.192870	0.797790	-0.501645
C43	C	-1.142310	0.839066	-0.578340
C44	C	-1.091711	0.797797	-0.655007
C45	C	-1.243473	0.839065	-0.424988
C46	C	-1.243513	0.921616	-0.425013
C47	C	-1.192948	0.962894	-0.501703
C48	C	-1.142347	0.921620	-0.578373
C49	C	-1.091787	0.962896	-0.655068
C50	C	-1.041181	0.921623	-0.731732
C51	C	-1.041146	0.839075	-0.731697
C52	C	-1.192983	1.045443	-0.501738
C53	C	-1.091824	1.045450	-0.655100
C54	C	-1.142391	1.174576	-0.578356
C55	C	-1.142423	1.086719	-0.578433
C56	C	-1.142269	0.380774	-0.266458
C57	C	-1.142395	0.380589	-0.133058
H58	H	-0.567934	0.238628	-0.794663
C59	C	-0.991828	1.037157	-0.806690
C60	C	-1.036247	1.090818	-0.739411
H61	H	-0.957522	1.065167	-0.858745
H62	H	-0.961598	1.005022	-0.754338
H63	H	-1.026242	1.004898	-0.852632
H64	H	-1.001834	1.123073	-0.693462
H65	H	-1.066480	1.122966	-0.791770
H66	H	-0.717450	0.522856	-0.361914
H67	H	-1.284642	0.805455	-0.362551
H68	H	-1.000018	0.955241	-0.794182
H69	H	-1.234190	1.079043	-0.439326
C70	C	-1.046691	0.588707	-0.723027
C71	C	-1.036052	0.669881	-0.739246
H72	H	-1.012355	0.560704	-0.775060
H73	H	-1.035144	0.575240	-0.642375
H74	H	-1.099789	0.575127	-0.740668
H75	H	-0.982956	0.683463	-0.721596
H76	H	-1.047594	0.683353	-0.819916
C77	C	-1.349958	1.014275	-0.408664
C78	C	-1.299206	0.966939	-0.340800
H79	H	-1.384362	1.042239	-0.356688
H80	H	-1.319854	1.050701	-0.454273
H81	H	-1.380087	0.981982	-0.461041
H82	H	-1.269072	0.999232	-0.288429
H83	H	-1.329313	0.930508	-0.295170
C84	C	-0.474740	0.526592	-0.356265
C85	C	-0.555901	0.537259	-0.340017
H86	H	-0.446698	0.560864	-0.304102
H87	H	-0.461238	0.473477	-0.338829
H88	H	-0.461242	0.538214	-0.436882
H89	H	-0.569401	0.525632	-0.259402
H90	H	-0.569409	0.590387	-0.357444
H91	H	-0.444063	0.289137	-0.717778
C92	C	-0.934245	0.476077	-0.433087
C93	C	-0.853063	0.486741	-0.416864
H94	H	-0.962220	0.510342	-0.380902
H95	H	-0.947789	0.487705	-0.513685
H96	H	-0.947782	0.422954	-0.415654
H97	H	-0.839524	0.539863	-0.434305
H98	H	-0.839512	0.475119	-0.336247
H99	H	-0.841475	0.289122	-0.717733
C100	C	-1.292823	0.723534	-0.350026
C101	C	-1.248405	0.669876	-0.417314
H102	H	-1.327134	0.695522	-0.297982
H103	H	-1.258414	0.755785	-0.304085
H104	H	-1.323055	0.755677	-0.402383
H105	H	-1.218169	0.637737	-0.364958
H106	H	-1.282819	0.637611	-0.463259
H107	H	-0.717696	0.238629	-0.794627
C108	C	-0.941165	0.847366	-0.883309
C109	C	-0.985537	0.793707	-0.815981
H110	H	-0.906836	0.819354	-0.935340
H111	H	-0.975602	0.879512	-0.929266
H112	H	-0.910955	0.879614	-0.830977
H113	H	-1.015752	0.761463	-0.868312
H114	H	-0.951095	0.761548	-0.770020
H115	H	-0.443904	0.472380	-0.438815
