data_functionalizedCrystal
_audit_creation_method	'MofGen! by Chris Wilmer'
_symmetry_space_group_name_H-M	'P1'
_symmetry_Int_Tables_number	1
_symmetry_cell_setting	triclinic
loop_
_symmetry_equiv_pos_as_xyz
  x,y,z
_cell_length_a	6.817900
_cell_length_b	9.582906
_cell_length_c	9.582889
_cell_angle_alpha	89.900356
_cell_angle_beta	111.207298
_cell_angle_gamma	111.207526
loop_
_atom_site_label
_atom_site_type_symbol
_atom_site_fract_x
_atom_site_fract_y
_atom_site_fract_z
V1	V	-4.156365	-0.466330	-0.206432
V2	V	-3.823031	-0.132996	0.126901
V3	V	-3.489698	0.200337	0.460234
O4	O	-4.100363	-0.457735	0.010562
O5	O	-3.767030	-0.124401	0.343895
O6	O	-3.433696	0.208932	0.677229
O7	O	-4.146474	-0.462869	-0.409938
O8	O	-3.813141	-0.129536	-0.076605
O9	O	-3.479807	0.203798	0.256729
O10	O	-4.146477	-0.669836	-0.202975
O11	O	-3.813144	-0.336502	0.130358
O12	O	-3.479811	-0.003169	0.463691
O13	O	-4.100360	-0.249335	-0.197834
O14	O	-3.767026	0.083998	0.135500
O15	O	-3.433693	0.417332	0.468833
V16	V	-4.630012	-0.440408	-0.180511
V17	V	-4.296679	-0.107075	0.152823
V18	V	-3.963346	0.226258	0.486156
O19	O	-4.439285	-0.523190	-0.263294
O20	O	-4.105952	-0.189857	0.070040
O21	O	-3.772619	0.143477	0.403373
O22	O	-4.797289	-0.383548	-0.123649
O23	O	-4.463956	-0.050214	0.209684
O24	O	-4.130622	0.283119	0.543018
O25	O	-4.416697	-0.443869	0.022995
O26	O	-4.083363	-0.110535	0.356328
O27	O	-3.750030	0.222798	0.689662
O28	O	-4.803411	-0.449003	-0.397505
O29	O	-4.470078	-0.115670	-0.064171
O30	O	-4.136745	0.217663	0.269162
O31	O	-4.803415	-0.657403	-0.189109
O32	O	-4.470081	-0.324069	0.144224
O33	O	-4.136748	0.009264	0.477557
O34	O	-4.416693	-0.236902	-0.183968
O35	O	-4.083360	0.096431	0.149366
O36	O	-3.750027	0.429765	0.482699
C37	C	-3.999597	-0.455442	-0.459557
C38	C	-3.666264	-0.122109	-0.126224
C39	C	-3.332930	0.211224	0.207110
C40	C	-4.073053	-0.453970	-0.625924
C41	C	-3.739720	-0.120636	-0.292590
C42	C	-3.406387	0.212697	0.040743
C43	C	-3.999599	-0.719447	-0.195554
C44	C	-3.666266	-0.386114	0.137780
C45	C	-3.332933	-0.052781	0.471113
C46	C	-4.073054	-0.885813	-0.194074
C47	C	-3.739720	-0.552479	0.139260
C48	C	-3.406387	-0.219146	0.472593
C49	C	-4.226917	-0.451291	0.072606
C50	C	-3.893583	-0.117958	0.405940
C51	C	-3.560250	0.215375	0.739273
C52	C	-4.132700	-0.452774	0.238971
C53	C	-3.799367	-0.119440	0.572305
C54	C	-3.466034	0.213893	0.905638
C55	C	-4.226913	-0.187283	-0.191394
C56	C	-3.893580	0.146051	0.141939
C57	C	-3.560246	0.479384	0.475273
C58	C	-4.132695	-0.020916	-0.192866
C59	C	-3.799362	0.312418	0.140467
C60	C	-3.466029	0.645751	0.473800
