data_functionalizedCrystal
_audit_creation_method	'MofGen! by Chris Wilmer'
_symmetry_space_group_name_H-M	'P1'
_symmetry_Int_Tables_number	1
_symmetry_cell_setting	triclinic
loop_
_symmetry_equiv_pos_as_xyz
  x,y,z
_cell_length_a	15.297475
_cell_length_b	18.101395
_cell_length_c	15.297908
_cell_angle_alpha	99.655069
_cell_angle_beta	72.640407
_cell_angle_gamma	80.333681
loop_
_atom_site_label
_atom_site_type_symbol
_atom_site_fract_x
_atom_site_fract_y
_atom_site_fract_z
Zn1	Zn	1.512561	-0.619616	-0.771392
Zn2	Zn	2.012561	-0.119616	-0.271392
Zn3	Zn	1.485533	-0.717526	-0.615870
Zn4	Zn	1.985533	-0.217526	-0.115870
Zn5	Zn	1.330158	-0.567785	-0.589041
Zn6	Zn	1.830158	-0.067785	-0.089041
Zn7	Zn	1.356983	-0.717460	-0.744469
Zn8	Zn	1.856983	-0.217460	-0.244469
O9	O	1.421309	-0.655597	-0.680193
O10	O	1.921309	-0.155597	-0.180193
O11	O	1.639111	-0.654323	-0.773257
O12	O	2.139111	-0.154323	-0.273257
O13	O	1.442385	-0.675999	-0.482177
O14	O	1.942385	-0.175999	0.017823
O15	O	1.354440	-0.471046	-0.613270
O16	O	1.854440	0.028954	-0.113270
O17	O	1.619254	-0.726257	-0.658995
O18	O	2.119254	-0.226257	-0.158995
O19	O	1.488450	-0.509125	-0.747243
O20	O	1.988450	-0.009125	-0.247243
O21	O	1.328231	-0.565985	-0.462466
O22	O	1.828231	-0.065985	0.037534
O23	O	1.203582	-0.565921	-0.587164
O24	O	1.703582	-0.065921	-0.087164
O25	O	1.400159	-0.726145	-0.878175
O26	O	1.900159	-0.226145	-0.378175
O27	O	1.223290	-0.675887	-0.701356
O28	O	1.723290	-0.175887	-0.201356
O29	O	1.514461	-0.654259	-0.897955
O30	O	2.014461	-0.154259	-0.397955
O31	O	1.468396	-0.821133	-0.632889
O32	O	1.968396	-0.321133	-0.132889
O33	O	1.373951	-0.821084	-0.727371
O34	O	1.873951	-0.321084	-0.227371
C35	C	1.179693	-0.615273	-0.638428
C36	C	1.679693	-0.115273	-0.138428
C37	C	1.076333	-0.598044	-0.620582
C38	C	1.576333	-0.098044	-0.120582
C39	C	1.421180	-0.847982	-0.680144
C40	C	1.921180	-0.347982	-0.180144
C41	C	1.421215	-0.930305	-0.680169
C42	C	1.921215	-0.430305	-0.180169
C43	C	0.826059	-0.778743	-0.807739
C44	C	1.326059	-0.278743	-0.307739
C45	C	0.923171	-0.794935	-0.824503
C46	C	1.423171	-0.294935	-0.324503
C47	C	0.961467	-0.745714	-0.773525
C48	C	1.461467	-0.245714	-0.273525
C49	C	0.902640	-0.680297	-0.705779
C50	C	1.402640	-0.180297	-0.205779
C51	C	0.805518	-0.664106	-0.689008
C52	C	1.305518	-0.164106	-0.189008
C53	C	0.940925	-0.631077	-0.654793
C54	C	1.440925	-0.131077	-0.154793
C55	C	0.882099	-0.565660	-0.587047
C56	C	1.382099	-0.065660	-0.087047
C57	C	0.784987	-0.549472	-0.570280
C58	C	1.284987	-0.049472	-0.070280
C59	C	0.746691	-0.598693	-0.621258
C60	C	1.246691	-0.098693	-0.121258
C61	C	1.038047	-0.647268	-0.671564
C62	C	1.538047	-0.147268	-0.171564
C63	C	1.017506	-0.532631	-0.552833
C64	C	1.517506	-0.032631	-0.052833
C65	C	0.920394	-0.516438	-0.536069
C66	C	1.420394	-0.016438	-0.036069
C67	C	1.421428	-1.229438	-0.680254
C68	C	1.921428	-0.729438	-0.180254
C69	C	1.362203	-1.198171	-0.739907
C70	C	1.862203	-0.698171	-0.239907
C71	C	1.361823	-1.112459	-0.739623
C72	C	1.861823	-0.612459	-0.239623
C73	C	1.421322	-1.081035	-0.680213
C74	C	1.921322	-0.581035	-0.180213
C75	C	1.377838	-1.091426	-0.577625
C76	C	1.877838	-0.591426	-0.077625
C77	C	1.377451	-1.177066	-0.577976
C78	C	1.877451	-0.677066	-0.077976
C79	C	1.524145	-1.218377	-0.722355
C80	C	2.024145	-0.718377	-0.222355
C81	C	1.523938	-1.132987	-0.724404
C82	C	2.023938	-0.632987	-0.224404
C83	C	1.421263	-0.997163	-0.680184
C84	C	1.921263	-0.497163	-0.180184
C85	C	1.421483	-1.313309	-0.680277
C86	C	1.921483	-0.813309	-0.180277
C87	C	1.663868	-0.696079	-0.722122
C88	C	2.163868	-0.196079	-0.222122
C89	C	1.767233	-0.713330	-0.739990
C90	C	2.267233	-0.213330	-0.239990
C91	C	1.463317	-0.695976	-0.922751
C92	C	1.963317	-0.195976	-0.422751
C93	C	1.481218	-0.713184	-1.026114
C94	C	1.981218	-0.213184	-0.526114
C95	C	1.421468	-0.462468	-0.680267
C96	C	1.921468	0.037532	-0.180267
C97	C	1.421535	-0.380168	-0.680298
C98	C	1.921535	0.119832	-0.180298
C99	C	1.293954	-0.532579	-1.276439
C100	C	1.793954	-0.032579	-0.776439
C101	C	1.277136	-0.516405	-1.179324
C102	C	1.777136	-0.016405	-0.679324
C103	C	1.328155	-0.565598	-1.141016
C104	C	1.828155	-0.065598	-0.641016
C105	C	1.395995	-0.630968	-1.199834
C106	C	1.895995	-0.130968	-0.699834
C107	C	1.412819	-0.647141	-1.296959
C108	C	1.912819	-0.147141	-0.796959
C109	C	1.447021	-0.680160	-1.161537
C110	C	1.947021	-0.180160	-0.661537
C111	C	1.514861	-0.745530	-1.220354
C112	C	2.014861	-0.245530	-0.720354
C113	C	1.531681	-0.761700	-1.317470
C114	C	2.031681	-0.261700	-0.817470
C115	C	1.480663	-0.712506	-1.355777
C116	C	1.980663	-0.212506	-0.855777
C117	C	1.430196	-0.663987	-1.064412
C118	C	1.930196	-0.163987	-0.564412
C119	C	1.549062	-0.778549	-1.084932
C120	C	2.049062	-0.278549	-0.584932
C121	C	1.565879	-0.794724	-1.182047
C122	C	2.065879	-0.294724	-0.682047
C123	C	1.379518	-0.615330	-0.438588
C124	C	1.879518	-0.115330	0.061412
C125	C	1.361797	-0.597944	-0.335257
C126	C	1.861797	-0.097944	0.164743
H127	H	1.040540	-0.758902	-0.787179
H128	H	1.540540	-0.258902	-0.287179
N129	N	1.398411	-1.104681	-0.834375
N130	N	1.898411	-0.604681	-0.334375
N131	N	1.404388	-1.039896	-0.850375
N132	N	1.904388	-0.539896	-0.350375
H133	H	1.430230	-1.034405	-0.917297
H134	H	1.930230	-0.534405	-0.417297
N135	N	1.310992	-0.549090	-1.041819
N136	N	1.810992	-0.049090	-0.541819
N137	N	1.376040	-0.538512	-1.011014
N138	N	1.876040	-0.038512	-0.511014
H139	H	1.363916	-0.526853	-0.940951
H140	H	1.863916	-0.026853	-0.440951
N141	N	0.724878	-0.482661	-0.501075
N142	N	1.224878	0.017339	-0.001075
N143	N	0.660385	-0.489731	-0.432400
N144	N	1.160385	0.010269	0.067600
H145	H	0.617932	-0.442545	-0.383524
H146	H	1.117932	0.057455	0.116476
N147	N	1.360896	-0.597229	-1.004323
N148	N	1.860896	-0.097229	-0.504323
N149	N	1.345876	-0.582795	-0.917610
N150	N	1.845876	-0.082795	-0.417610
H151	H	1.296927	-0.535645	-0.875170
H152	H	1.796927	-0.035645	-0.375170
N153	N	1.266736	-1.068110	-0.703008
N154	N	1.766736	-0.568110	-0.203008
N155	N	1.234136	-1.030977	-0.752669
N156	N	1.734136	-0.530977	-0.252669
H157	H	1.166972	-0.999664	-0.726824
H158	H	1.666972	-0.499664	-0.226824
N159	N	1.207838	-0.449646	-1.119232
N160	N	1.707838	0.050354	-0.619232
N161	N	1.192825	-0.435214	-1.032520
N162	N	1.692825	0.064786	-0.532520
H163	H	1.143879	-0.388063	-0.990077
H164	H	1.643879	0.111937	-0.490077
H165	H	1.418871	-1.070302	-0.531225
H166	H	1.918871	-0.570302	-0.031225
H167	H	1.252426	-0.492529	-1.307639
H168	H	1.752426	0.007471	-0.807639
N169	N	1.398655	-1.242646	-0.834920
N170	N	1.898655	-0.742646	-0.334920
N171	N	1.347680	-1.277417	-0.868447
N172	N	1.847680	-0.777417	-0.368447
H173	H	1.373438	-1.308836	-0.935551
H174	H	1.873438	-0.808836	-0.435551
N175	N	1.635198	-0.861486	-1.242122
N176	N	2.135198	-0.361486	-0.742122
N177	N	1.680757	-0.905400	-1.207920
N178	N	2.180757	-0.405400	-0.707920
H179	H	1.729718	-0.952549	-1.250348
H180	H	2.229718	-0.452549	-0.750348
N181	N	0.860287	-0.449620	-0.466876
N182	N	1.360287	0.050380	0.033124
N183	N	0.773580	-0.435175	-0.451919
N184	N	1.273580	0.064825	0.048081
H185	H	0.731127	-0.387984	-0.403053
H186	H	1.231127	0.112016	0.096947
N187	N	1.282631	-1.182736	-0.535731
N188	N	1.782631	-0.682736	-0.035731
N189	N	1.265199	-1.246892	-0.528356
N190	N	1.765199	-0.746892	-0.028356
H191	H	1.198230	-1.250895	-0.498522
H192	H	1.698230	-0.750895	0.001478
H193	H	1.494346	-0.725675	-1.434854
H194	H	1.994346	-0.225675	-0.934854
H195	H	1.286889	-1.204931	-0.710966
H196	H	1.786889	-0.704931	-0.210966
N197	N	1.579749	-1.243983	-0.668101
N198	N	2.079749	-0.743983	-0.168101
N199	N	1.544007	-1.270279	-0.598726
N200	N	2.044007	-0.770279	-0.098726
H201	H	1.583270	-1.288364	-0.560403
H202	H	2.083270	-0.788364	-0.060403
H203	H	1.085935	-0.700531	-0.726724
H204	H	1.585935	-0.200531	-0.226724
H205	H	0.971061	-0.848199	-0.879660
H206	H	1.471061	-0.348199	-0.379660
H207	H	0.794869	-0.818815	-0.849233
H208	H	1.294869	-0.318815	-0.349233
H209	H	0.667616	-0.585511	-0.607615
H210	H	1.167616	-0.085511	-0.107615
N211	N	1.600986	-0.828472	-1.377539
N212	N	2.100986	-0.328472	-0.877539
N213	N	1.646531	-0.872391	-1.343330
N214	N	2.146531	-0.372391	-0.843330
H215	H	1.695477	-0.919551	-1.385751
H216	H	2.195477	-0.419551	-0.885751
N217	N	1.569746	-1.265164	-0.815716
N218	N	2.069746	-0.765164	-0.315716
N219	N	1.581308	-1.336735	-0.830015
N220	N	2.081308	-0.836735	-0.330015
H221	H	1.613507	-1.369780	-0.895952
H222	H	2.113507	-0.869780	-0.395952
H223	H	1.048685	-0.492552	-0.511320
H224	H	1.548685	0.007448	-0.011320
H225	H	1.590608	-0.818606	-1.053744
H226	H	2.090608	-0.318606	-0.553744
N227	N	1.428041	-1.201891	-0.519149
N228	N	1.928041	-0.701891	-0.019149
N229	N	1.463517	-1.155967	-0.477961
N230	N	1.963517	-0.655967	0.022039
H231	H	1.499234	-1.173492	-0.436403
H232	H	1.999234	-0.673492	0.063597
N233	N	1.283888	-1.045180	-0.535035
N234	N	1.783888	-0.545180	-0.035035
N235	N	1.268958	-0.973711	-0.524968
N236	N	1.768958	-0.473711	-0.024968
H237	H	1.202605	-0.941049	-0.494892
H238	H	1.702605	-0.441049	0.005108
N239	N	1.564681	-1.126706	-0.819221
N240	N	2.064681	-0.626706	-0.319221
N241	N	1.518376	-1.084140	-0.854180
N242	N	2.018376	-0.584140	-0.354180
H243	H	1.547148	-1.079699	-0.921145
H244	H	2.047148	-0.579699	-0.421145
N245	N	1.583921	-1.107721	-0.675560
N246	N	2.083921	-0.607721	-0.175560
N247	N	1.551873	-1.050761	-0.607076
N248	N	2.051873	-0.550761	-0.107076
H249	H	1.594231	-1.032917	-0.572570
H250	H	2.094231	-0.532917	-0.072570
