data_functionalizedCrystal
_audit_creation_method	'MofGen! by Chris Wilmer'
_symmetry_space_group_name_H-M	'P1'
_symmetry_Int_Tables_number	1
_symmetry_cell_setting	triclinic
loop_
_symmetry_equiv_pos_as_xyz
  x,y,z
_cell_length_a	19.188930
_cell_length_b	18.266242
_cell_length_c	19.188930
_cell_angle_alpha	90.011475
_cell_angle_beta	83.144779
_cell_angle_gamma	90.022918
loop_
_atom_site_label
_atom_site_type_symbol
_atom_site_fract_x
_atom_site_fract_y
_atom_site_fract_z
O1	O	-0.926149	-0.061124	-0.087169
O2	O	-0.426149	0.438876	0.412831
O3	O	-0.722838	-0.061075	-0.098903
O4	O	-0.222838	0.438925	0.401097
O5	O	-0.830361	-0.061087	0.008620
O6	O	-0.330361	0.438913	0.508620
O7	O	-0.818627	-0.061113	-0.194691
O8	O	-0.318627	0.438887	0.305309
O9	O	-0.830343	0.060675	0.008625
O10	O	-0.330343	0.560675	0.508625
O11	O	-0.722820	0.060687	-0.098897
O12	O	-0.222820	0.560687	0.401103
O13	O	-0.926131	0.060638	-0.087163
O14	O	-0.426131	0.560638	0.412837
Zn15	Zn	-0.824473	0.079994	-0.093029
Zn16	Zn	-0.324473	0.579994	0.406971
Zn17	Zn	-0.824497	-0.080432	-0.093037
Zn18	Zn	-0.324497	0.419568	0.406963
O19	O	-0.818608	0.060649	-0.194686
O20	O	-0.318608	0.560649	0.305314
C21	C	-0.696818	-0.000188	-0.098520
C22	C	-0.196818	0.499812	0.401480
C23	C	-0.619313	-0.000169	-0.097380
C24	C	-0.119313	0.499831	0.402620
C25	C	-0.829972	-0.000204	0.034634
C26	C	-0.329972	0.499796	0.534634
C27	C	-0.828831	-0.000197	0.112138
C28	C	-0.328831	0.499803	0.612138
C29	C	-0.952151	-0.000252	-0.087546
C30	C	-0.452151	0.499748	0.412454
C31	C	-1.029656	-0.000276	-0.088687
C32	C	-0.529656	0.499724	0.411313
N33	N	-0.824461	0.189481	-0.093024
N34	N	-0.324461	0.689481	0.406976
C35	C	-0.574389	-0.000188	-0.160470
C36	C	-0.074389	0.499812	0.339530
C37	C	-0.501566	-0.000196	-0.159399
C38	C	-0.001566	0.499804	0.340601
C39	C	-0.473669	-0.000199	-0.095233
C40	C	0.026331	0.499801	0.404767
C41	C	-0.518603	-0.000175	-0.032133
C42	C	-0.018603	0.499825	0.467867
C43	C	-0.591425	-0.000160	-0.033207
C44	C	-0.091425	0.499840	0.466793
N45	N	-0.365695	-0.041663	-0.046188
N46	N	0.134305	0.458337	0.453812
N47	N	-0.296516	-0.041679	-0.045172
N48	N	0.203484	0.458321	0.454828
C49	C	-0.254260	-0.000243	-0.091994
C50	C	0.245740	0.499757	0.408006
N51	N	-0.283795	0.041200	-0.139881
N52	N	0.216205	0.541200	0.360119
N53	N	-0.352980	0.041213	-0.140899
N54	N	0.147020	0.541213	0.359101
C55	C	-0.394707	-0.000215	-0.094062
C56	C	0.105293	0.499785	0.405938
C57	C	-0.130372	-0.000270	-0.153928
C58	C	0.369628	0.499730	0.346072
C59	C	-0.057547	-0.000274	-0.152853
C60	C	0.442453	0.499726	0.347147
C61	C	-0.074586	-0.000261	-0.025586
C62	C	0.425414	0.499739	0.474414
C63	C	-0.147409	-0.000250	-0.026662
C64	C	0.352591	0.499750	0.473338
C65	C	-0.175298	-0.000258	-0.090835
C66	C	0.324702	0.499742	0.409165
N67	N	-0.824513	-0.189919	-0.093037
N68	N	-0.324513	0.310081	0.406963
C69	C	-0.872088	0.227785	-0.045436
C70	C	-0.372088	0.727785	0.454564
C71	C	-0.872092	0.304430	-0.045433
C72	C	-0.372092	0.804430	0.454567
C73	C	-0.824477	0.342768	-0.093030
C74	C	-0.324477	0.842768	0.406970
C75	C	-0.776841	0.304455	-0.140621
C76	C	-0.276841	0.804455	0.359379
C77	C	-0.776834	0.227812	-0.140618
C78	C	-0.276834	0.727812	0.359382
N79	N	-0.815401	0.463094	-0.154837
N80	N	-0.315401	0.963094	0.345163
N81	N	-0.815413	0.535902	-0.154838
N82	N	-0.315413	1.035902	0.345162
C83	C	-0.824496	0.573691	-0.093040
C84	C	-0.324496	1.073691	0.406960
N85	N	-0.833582	0.535920	-0.031239
N86	N	-0.333582	1.035920	0.468761
N87	N	-0.833574	0.463106	-0.031240
N88	N	-0.333574	0.963106	0.468760
C89	C	-0.824480	0.425875	-0.093038
C90	C	-0.324480	0.925875	0.406962
C91	C	-0.872131	0.695101	-0.045444
C92	C	-0.372131	1.195101	0.454556
C93	C	-0.872130	0.771748	-0.045440
C94	C	-0.372130	1.271748	0.454560
C95	C	-0.776882	0.771772	-0.140634
C96	C	-0.276882	1.271772	0.359366
C97	C	-0.776879	0.695127	-0.140632
C98	C	-0.276879	1.195127	0.359368
C99	C	-0.824507	0.656796	-0.093038
C100	C	-0.324507	1.156796	0.406962
C101	C	-0.818997	-0.000236	-0.220700
C102	C	-0.318997	0.499764	0.279300
C103	C	-0.820138	-0.000247	-0.298204
C104	C	-0.320138	0.499753	0.201796
C105	C	-0.891922	-0.000209	0.157062
C106	C	-0.391922	0.499791	0.657062
C107	C	-0.890850	-0.000220	0.229886
C108	C	-0.390850	0.499780	0.729886
C109	C	-0.826684	-0.000206	0.257782
C110	C	-0.326684	0.499794	0.757782
C111	C	-0.763585	-0.000198	0.212849
C112	C	-0.263585	0.499802	0.712849
C113	C	-0.764658	-0.000194	0.140026
C114	C	-0.264658	0.499806	0.640026
N115	N	-0.777631	0.041244	0.365789
N116	N	-0.277631	0.541244	0.865789
N117	N	-0.776615	0.041242	0.434968
N118	N	-0.276615	0.541242	0.934968
C119	C	-0.823446	-0.000220	0.477191
C120	C	-0.323446	0.499780	0.977191
N121	N	-0.871341	-0.041669	0.447624
N122	N	-0.371341	0.458331	0.947624
N123	N	-0.872359	-0.041664	0.378439
N124	N	-0.372359	0.458336	0.878439
C125	C	-0.825513	-0.000210	0.336745
C126	C	-0.325513	0.499790	0.836745
C127	C	-0.885379	-0.000245	0.601079
C128	C	-0.385379	0.499755	1.101079
C129	C	-0.884305	-0.000261	0.673904
C130	C	-0.384305	0.499739	1.173904
C131	C	-0.757038	-0.000231	0.656865
C132	C	-0.257038	0.499769	1.156865
C133	C	-0.758114	-0.000222	0.584042
C134	C	-0.258114	0.499778	1.084042
C135	C	-0.822287	-0.000226	0.556154
C136	C	-0.322287	0.499774	1.056154
H137	H	-0.464982	-0.000210	-0.210776
H138	H	0.035018	0.499790	0.289224
O139	O	-0.488521	-0.000175	0.037077
O140	O	0.011479	0.499825	0.537077
H141	H	-0.455785	-0.049813	0.040615
H142	H	0.044215	0.450187	0.540615
O143	O	-0.690063	-0.000191	0.535586
O144	O	-0.190063	0.499809	1.035586
H145	H	-0.659345	-0.049807	0.545468
H146	H	-0.159345	0.450193	1.045468
H147	H	-0.738110	0.802986	-0.179386
H148	H	-0.238110	1.302986	0.320614
O149	O	-0.687830	-0.000210	0.686947
O150	O	-0.187830	0.499790	1.186947
H151	H	-0.657531	-0.049832	0.668879
H152	H	-0.157531	0.450168	1.168879
O153	O	-0.952358	-0.000266	0.722360
O154	O	-0.452358	0.499734	1.222360
H155	H	-0.983095	-0.049892	0.712451
H156	H	-0.483095	0.450108	1.212451
H157	H	-0.713281	-0.000184	0.103448
H158	H	-0.213281	0.499816	0.603448
H159	H	-0.628003	-0.000145	0.018171
H160	H	-0.128003	0.499855	0.518171
O161	O	-0.604464	-0.000177	-0.229685
O162	O	-0.104464	0.499823	0.270315
H163	H	-0.586426	-0.049806	-0.260001
H164	H	-0.086426	0.450194	0.239999
O165	O	-0.160461	-0.000265	-0.223137
O166	O	0.339539	0.499735	0.276863
H167	H	-0.116984	-0.000265	-0.266830
H168	H	0.383016	0.499735	0.233170
H169	H	-0.020970	-0.000285	-0.204232
H170	H	0.479030	0.499715	0.295768
H171	H	-0.738100	0.663938	-0.179386
H172	H	-0.238100	1.163938	0.320614
O173	O	-0.044510	-0.000264	0.043625
O174	O	0.455490	0.499736	0.543625
H175	H	0.013676	-0.000282	0.033773
H176	H	0.513676	0.499718	0.533773
H177	H	-0.910911	0.802935	-0.006685
H178	H	-0.410911	1.302935	0.493315
H179	H	-0.937632	-0.000251	0.578372
H180	H	-0.437632	0.499749	1.078372
H181	H	-0.910868	0.196579	-0.006681
H182	H	-0.410868	0.696579	0.493319
O183	O	-0.195871	-0.000235	0.041386
O184	O	0.304129	0.499765	0.541386
H185	H	-0.164240	-0.000243	0.086186
H186	H	0.335760	0.499757	0.586186
O187	O	-0.923470	0.345758	0.005888
O188	O	-0.423470	0.845758	0.505888
H189	H	-0.956590	0.306228	0.038979
H190	H	-0.456590	0.806228	0.538979
H191	H	-0.738071	0.335674	-0.179374
H192	H	-0.238071	0.835674	0.320626
H193	H	-0.738049	0.196624	-0.179371
H194	H	-0.238049	0.696624	0.320629
O195	O	-0.923469	0.653744	0.005908
O196	O	-0.423469	1.153744	0.505908
H197	H	-0.957316	0.618794	-0.023384
H198	H	-0.457316	1.118794	0.476616
O199	O	-0.961133	-0.000233	0.126980
O200	O	-0.461133	0.499767	0.626980
H201	H	-1.004824	-0.000254	0.170458
H202	H	-0.504824	0.499746	0.670458
H203	H	-0.942228	-0.000233	0.266470
H204	H	-0.442228	0.499767	0.766470
O205	O	-0.694375	-0.000173	0.242930
O206	O	-0.194375	0.499827	0.742930
H207	H	-0.704227	-0.000168	0.301116
H208	H	-0.204227	0.499832	0.801116
