data_functionalizedCrystal
_audit_creation_method	'MofGen! by Chris Wilmer'
_symmetry_space_group_name_H-M	'P1'
_symmetry_Int_Tables_number	1
_symmetry_cell_setting	triclinic
loop_
_symmetry_equiv_pos_as_xyz
  x,y,z
_cell_length_a	15.944551
_cell_length_b	11.026607
_cell_length_c	9.482900
_cell_angle_alpha	101.363848
_cell_angle_beta	99.334197
_cell_angle_gamma	83.957623
loop_
_atom_site_label
_atom_site_type_symbol
_atom_site_fract_x
_atom_site_fract_y
_atom_site_fract_z
O1	O	0.341447	-1.629108	-0.120915
O2	O	0.841447	-1.129108	0.379085
O3	O	0.301394	-1.275798	-0.120914
O4	O	0.801394	-0.775798	0.379086
O5	O	0.200605	-1.462099	-0.120901
O6	O	0.700605	-0.962099	0.379099
O7	O	0.442235	-1.442807	-0.120927
O8	O	0.942235	-0.942807	0.379073
O9	O	0.221183	-1.424257	0.120889
O10	O	0.721183	-0.924257	0.620889
O11	O	0.321972	-1.237956	0.120876
O12	O	0.821972	-0.737956	0.620876
O13	O	0.362024	-1.591266	0.120875
O14	O	0.862024	-1.091266	0.620875
Cu15	Cu	0.343877	-1.411156	0.142953
Cu16	Cu	0.843877	-0.911156	0.642953
Cu17	Cu	0.319541	-1.455908	-0.142992
Cu18	Cu	0.819541	-0.955908	0.357008
O19	O	0.462813	-1.404965	0.120862
O20	O	0.962813	-0.904965	0.620862
C21	C	0.179479	-1.442377	-0.000006
C22	C	0.679479	-0.942377	0.499994
C23	C	0.085870	-1.439975	-0.000005
C24	C	0.585870	-0.939975	0.499995
C25	C	0.304294	-1.211666	-0.000019
C26	C	0.804294	-0.711666	0.499981
C27	C	0.282267	-1.076950	-0.000019
C28	C	0.782267	-0.576950	0.499981
N29	N	0.360994	-1.379688	0.344071
N30	N	0.860994	-0.879688	0.844071
C31	C	-0.147313	-1.318759	-0.000025
C32	C	0.352687	-0.818759	0.499975
C33	C	-0.189675	-1.356391	0.119192
C34	C	0.310325	-0.856391	0.619192
C35	C	-0.085514	-1.435632	-0.000016
C36	C	0.414486	-0.935632	0.499984
C37	C	-0.209942	-1.393728	-0.119194
C38	C	0.290058	-0.893728	0.380806
C39	C	-0.251064	-1.431430	-0.000034
C40	C	0.248936	-0.931430	0.499966
C41	C	-0.126634	-1.473281	0.119299
C42	C	0.373366	-0.973281	0.619299
C43	C	-0.146907	-1.510618	-0.119194
C44	C	0.353093	-1.010618	0.380806
C45	C	-0.189236	-1.548331	0.000052
C46	C	0.310764	-1.048331	0.500052
C47	C	0.009855	-1.438050	-0.000005
C48	C	0.509855	-0.938050	0.499995
C49	C	-0.346429	-1.429020	-0.000034
C50	C	0.153571	-0.929020	0.499966
C51	C	0.483939	-1.424688	-0.000036
C52	C	0.983939	-0.924688	0.499964
C53	C	0.577547	-1.427091	-0.000046
C54	C	1.077547	-0.927091	0.499954
C55	C	0.359124	-1.655399	-0.000023
C56	C	0.859124	-1.155399	0.499977
C57	C	0.381150	-1.790116	-0.000033
C58	C	0.881150	-1.290116	0.499967
C59	C	0.343086	-1.003151	-0.000026
C60	C	0.843086	-0.503151	0.499974
C61	C	0.320322	-0.863914	-0.000026
C62	C	0.820322	-0.363914	0.499974
N63	N	0.302419	-1.487386	-0.344110
N64	N	0.802419	-0.987386	0.155890
C65	C	0.324584	-1.446618	0.416275
C66	C	0.824584	-0.946618	0.916275
C67	C	0.338834	-1.420446	0.583690
C68	C	0.838834	-0.920446	1.083690
H69	H	-0.128660	-1.221729	0.000094
H70	H	0.371340	-0.721729	0.500094
Br71	Br	-0.270187	-1.337590	-0.287166
Br72	Br	0.229813	-0.837590	0.212834
Br73	Br	-0.221347	-1.247713	0.287183
Br74	Br	0.278653	-0.747713	0.787183
Br75	Br	0.430526	-1.251873	0.447603
Br76	Br	0.930526	-0.751873	0.947603
H77	H	-0.090590	-1.506881	0.220198
H78	H	0.409410	-1.006881	0.720198
Br79	Br	0.408368	-1.292625	0.687217
Br80	Br	0.908368	-0.792625	1.187217
H81	H	-0.207711	-1.645417	0.000119
H82	H	0.292289	-1.145417	0.500119
H83	H	0.213341	-1.037058	-0.000048
H84	H	0.713341	-0.537058	0.499952
Br85	Br	0.496038	-0.856588	-0.000018
Br86	Br	0.996038	-0.356588	0.499982
Br87	Br	0.233116	-1.615482	0.552368
Br88	Br	0.733116	-1.115482	1.052368
H89	H	0.282860	-1.523292	0.354152
H90	H	0.782860	-1.023292	0.854152
H91	H	-0.127888	-1.575784	-0.219988
H92	H	0.372112	-1.075784	0.280012
Br93	Br	0.457967	-1.069634	-0.000029
Br94	Br	0.957967	-0.569634	0.499971
H95	H	0.251392	-0.824028	-0.000055
H96	H	0.751392	-0.324028	0.499945
