data_functionalizedCrystal
_audit_creation_method	'MofGen! by Chris Wilmer'
_symmetry_space_group_name_H-M	'P1'
_symmetry_Int_Tables_number	1
_symmetry_cell_setting	triclinic
loop_
_symmetry_equiv_pos_as_xyz
  x,y,z
_cell_length_a	25.639240
_cell_length_b	25.639242
_cell_length_c	25.639234
_cell_angle_alpha	89.986377
_cell_angle_beta	90.016087
_cell_angle_gamma	89.977011
loop_
_atom_site_label
_atom_site_type_symbol
_atom_site_fract_x
_atom_site_fract_y
_atom_site_fract_z
Zn1	Zn	-0.208329	-0.799237	0.295675
Zn2	Zn	0.041671	-0.549237	0.545675
Zn3	Zn	0.291671	-0.299237	0.795675
Zn4	Zn	0.541671	-0.049237	1.045675
Zn5	Zn	-0.295751	-0.799174	0.208247
Zn6	Zn	-0.045751	-0.549174	0.458247
Zn7	Zn	0.204249	-0.299174	0.708247
Zn8	Zn	0.454249	-0.049174	0.958247
Zn9	Zn	-0.208318	-0.711817	0.208248
Zn10	Zn	0.041682	-0.461817	0.458248
Zn11	Zn	0.291682	-0.211817	0.708248
Zn12	Zn	0.541682	0.038183	0.958248
Zn13	Zn	-0.295721	-0.711768	0.295646
Zn14	Zn	-0.045721	-0.461768	0.545646
Zn15	Zn	0.204279	-0.211768	0.795646
Zn16	Zn	0.454279	0.038232	1.045646
O17	O	-0.252030	-0.755499	0.251954
O18	O	-0.002030	-0.505499	0.501954
O19	O	0.247970	-0.255499	0.751954
O20	O	0.497970	-0.005499	1.001954
O21	O	-0.219943	-0.872394	0.284089
O22	O	0.030057	-0.622394	0.534089
O23	O	0.280057	-0.372394	0.784089
O24	O	0.530057	-0.122394	1.034089
O25	O	-0.284161	-0.787580	0.135082
O26	O	-0.034161	-0.537580	0.385082
O27	O	0.215839	-0.287580	0.635082
O28	O	0.465839	-0.037580	0.885082
O29	O	-0.135154	-0.723460	0.219858
O30	O	0.114846	-0.473460	0.469858
O31	O	0.364846	-0.223460	0.719858
O32	O	0.614846	0.026540	0.969858
O33	O	-0.284172	-0.872347	0.219856
O34	O	-0.034172	-0.622347	0.469856
O35	O	0.215828	-0.372347	0.719856
O36	O	0.465828	-0.122347	0.969856
O37	O	-0.135162	-0.787687	0.284090
O38	O	0.114838	-0.537687	0.534090
O39	O	0.364838	-0.287687	0.784090
O40	O	0.614838	-0.037687	1.034090
O41	O	-0.219924	-0.723399	0.135083
O42	O	0.030076	-0.473399	0.385083
O43	O	0.280076	-0.223399	0.635083
O44	O	0.530076	0.026601	0.885083
O45	O	-0.219895	-0.638645	0.219830
O46	O	0.030105	-0.388645	0.469830
O47	O	0.280105	-0.138645	0.719830
O48	O	0.530105	0.111355	0.969830
O49	O	-0.284120	-0.723377	0.368815
O50	O	-0.034120	-0.473377	0.618815
O51	O	0.215880	-0.223377	0.868815
O52	O	0.465880	0.026623	1.118815
O53	O	-0.284110	-0.638609	0.284041
O54	O	-0.034110	-0.388609	0.534041
O55	O	0.215890	-0.138609	0.784041
O56	O	0.465890	0.111391	1.034041
O57	O	-0.219914	-0.787640	0.368836
O58	O	0.030086	-0.537640	0.618836
O59	O	0.280086	-0.287640	0.868836
O60	O	0.530086	-0.037640	1.118836
O61	O	-0.368912	-0.787533	0.219828
O62	O	-0.118912	-0.537533	0.469828
O63	O	0.131088	-0.287533	0.719828
O64	O	0.381088	-0.037533	0.969828
O65	O	-0.368890	-0.723316	0.284040
O66	O	-0.118890	-0.473316	0.534040
O67	O	0.131110	-0.223316	0.784040
O68	O	0.381110	0.026684	1.034040
C69	C	-0.387872	-0.755427	0.251942
C70	C	-0.137872	-0.505427	0.501942
C71	C	0.112128	-0.255427	0.751942
C72	C	0.362128	-0.005427	1.001942
C73	C	-0.445986	-0.755444	0.251954
C74	C	-0.195986	-0.505444	0.501954
C75	C	0.054014	-0.255444	0.751954
C76	C	0.304014	-0.005444	1.001954
C77	C	-0.251998	-0.619656	0.251933
C78	C	-0.001998	-0.369656	0.501933
C79	C	0.248002	-0.119656	0.751933
C80	C	0.498002	0.130344	1.001933
C81	C	-0.251997	-0.561542	0.251937
C82	C	-0.001997	-0.311542	0.501937
C83	C	0.248003	-0.061542	0.751937
C84	C	0.498003	0.188458	1.001937
C85	C	-0.252015	-0.755510	0.388327
C86	C	-0.002015	-0.505510	0.638327
C87	C	0.247985	-0.255510	0.888327
C88	C	0.497985	-0.005510	1.138327
C89	C	-0.252009	-0.755515	0.446441
C90	C	-0.002009	-0.505515	0.696441
C91	C	0.247991	-0.255515	0.946441
C92	C	0.497991	-0.005515	1.196441
C93	C	-0.697133	-0.788939	0.285434
C94	C	-0.447133	-0.538939	0.535434
C95	C	-0.197133	-0.288939	0.785434
C96	C	0.052867	-0.038939	1.035434
C97	C	-0.642528	-0.788923	0.285430
C98	C	-0.392528	-0.538923	0.535430
C99	C	-0.142528	-0.288923	0.785430
C100	C	0.107472	-0.038923	1.035430
O101	O	-0.614252	-0.817342	0.313878
O102	O	-0.364252	-0.567342	0.563878
O103	O	-0.114252	-0.317342	0.813878
O104	O	0.135748	-0.067342	1.063878
N105	N	-0.615260	-0.755501	0.251961
N106	N	-0.365260	-0.505501	0.501961
N107	N	-0.115260	-0.255501	0.751961
N108	N	0.134740	-0.005501	1.001961
C109	C	-0.642599	-0.722096	0.218490
C110	C	-0.392599	-0.472096	0.468490
C111	C	-0.142599	-0.222096	0.718490
C112	C	0.107401	0.027904	0.968490
O113	O	-0.614391	-0.693666	0.190021
O114	O	-0.364391	-0.443666	0.440021
O115	O	-0.114391	-0.193666	0.690021
O116	O	0.135609	0.056334	0.940021
C117	C	-0.697202	-0.722114	0.218492
C118	C	-0.447202	-0.472114	0.468492
C119	C	-0.197202	-0.222114	0.718492
C120	C	0.052798	0.027886	0.968492
C121	C	-0.724468	-0.755535	0.251966
C122	C	-0.474468	-0.505535	0.501966
C123	C	-0.224468	-0.255535	0.751966
C124	C	0.025532	-0.005535	1.001966
C125	C	-0.724398	-0.822358	0.318905
C126	C	-0.474398	-0.572358	0.568905
C127	C	-0.224398	-0.322358	0.818905
C128	C	0.025602	-0.072358	1.068905
C129	C	-0.778999	-0.822372	0.318910
C130	C	-0.528999	-0.572372	0.568910
C131	C	-0.278999	-0.322372	0.818910
C132	C	-0.028999	-0.072372	1.068910
C133	C	-0.806334	-0.788969	0.285443
C134	C	-0.556334	-0.538969	0.535443
C135	C	-0.306334	-0.288969	0.785443
C136	C	-0.056334	-0.038969	1.035443
C137	C	-0.779068	-0.755550	0.251971
C138	C	-0.529068	-0.505550	0.501971
C139	C	-0.279068	-0.255550	0.751971
C140	C	-0.029068	-0.005550	1.001971
C141	C	-0.724540	-0.688712	0.185018
C142	C	-0.474540	-0.438712	0.435018
C143	C	-0.224540	-0.188712	0.685018
C144	C	0.025460	0.061288	0.935018
C145	C	-0.779147	-0.688734	0.185023
C146	C	-0.529147	-0.438734	0.435023
C147	C	-0.279147	-0.188734	0.685023
C148	C	-0.029147	0.061266	0.935023
C149	C	-0.806413	-0.722155	0.218498
C150	C	-0.556413	-0.472155	0.468498
C151	C	-0.306413	-0.222155	0.718498
C152	C	-0.056413	0.027845	0.968498
C153	C	-0.861004	-0.722161	0.218508
C154	C	-0.611004	-0.472161	0.468508
C155	C	-0.361004	-0.222161	0.718508
C156	C	-0.111004	0.027839	0.968508
N157	N	-0.888272	-0.755584	0.251977
N158	N	-0.638272	-0.505584	0.501977
N159	N	-0.388272	-0.255584	0.751977
N160	N	-0.138272	-0.005584	1.001977
C161	C	-0.860937	-0.788987	0.285444
C162	C	-0.610937	-0.538987	0.535444
C163	C	-0.360937	-0.288987	0.785444
C164	C	-0.110937	-0.038987	1.035444
C165	C	-0.527928	-0.722060	0.218488
C166	C	-0.277928	-0.472060	0.468488
C167	C	-0.027928	-0.222060	0.718488
C168	C	0.222072	0.027940	0.968488
C169	C	-0.473326	-0.722038	0.218489
C170	C	-0.223326	-0.472038	0.468489
C171	C	0.026674	-0.222038	0.718489
C172	C	0.276674	0.027962	0.968489
C173	C	-0.473259	-0.788866	0.285428
C174	C	-0.223259	-0.538866	0.535428
C175	C	0.026741	-0.288866	0.785428
C176	C	0.276741	-0.038866	1.035428
C177	C	-0.527863	-0.788885	0.285430
C178	C	-0.277863	-0.538885	0.535430
C179	C	-0.027863	-0.288885	0.785430
C180	C	0.222137	-0.038885	1.035430
C181	C	-0.555197	-0.755482	0.251957
C182	C	-0.305197	-0.505482	0.501957
C183	C	-0.055197	-0.255482	0.751957
C184	C	0.194803	-0.005482	1.001957
C185	C	-0.975602	-0.789016	0.285452
C186	C	-0.725602	-0.539016	0.535452
C187	C	-0.475602	-0.289016	0.785452
C188	C	-0.225602	-0.039016	1.035452
C189	C	-1.030208	-0.789026	0.285455
C190	C	-0.780208	-0.539026	0.535455
C191	C	-0.530208	-0.289026	0.785455
C192	C	-0.280208	-0.039026	1.035455
C193	C	-1.030270	-0.722200	0.218514
C194	C	-0.780270	-0.472200	0.468514
C195	C	-0.530270	-0.222200	0.718514
C196	C	-0.280270	0.027800	0.968514
C197	C	-0.975669	-0.722187	0.218512
C198	C	-0.725669	-0.472187	0.468512
C199	C	-0.475669	-0.222187	0.718512
C200	C	-0.225669	0.027813	0.968512
C201	C	-0.948337	-0.755600	0.251983
C202	C	-0.698337	-0.505600	0.501983
C203	C	-0.448337	-0.255600	0.751983
C204	C	-0.198337	-0.005600	1.001983
O205	O	-0.889315	-0.693759	0.190073
O206	O	-0.639315	-0.443759	0.440073
O207	O	-0.389315	-0.193759	0.690073
O208	O	-0.139315	0.056241	0.940073
O209	O	-0.889151	-0.817417	0.313903
O210	O	-0.639151	-0.567417	0.563903
O211	O	-0.389151	-0.317417	0.813903
O212	O	-0.139151	-0.067417	1.063903
C213	C	-0.115657	-0.755586	0.251978
C214	C	0.134343	-0.505586	0.501978
C215	C	0.384343	-0.255586	0.751978
C216	C	0.634343	-0.005586	1.001978
C217	C	-0.057543	-0.755623	0.251988
C218	C	0.192457	-0.505623	0.501988
C219	C	0.442457	-0.255623	0.751988
C220	C	0.692457	-0.005623	1.001988
C221	C	-0.218634	-0.310381	0.285448
C222	C	0.031366	-0.060381	0.535448
C223	C	0.281366	0.189619	0.785448
C224	C	0.531366	0.439619	1.035448
C225	C	-0.218631	-0.364985	0.285447
C226	C	0.031369	-0.114985	0.535447
C227	C	0.281369	0.135015	0.785447
C228	C	0.531369	0.385015	1.035447
O229	O	-0.190247	-0.393249	0.313943
O230	O	0.059753	-0.143249	0.563943
O231	O	0.309753	0.106751	0.813943
O232	O	0.559753	0.356751	1.063943
N233	N	-0.252015	-0.392268	0.251949
N234	N	-0.002015	-0.142268	0.501949
N235	N	0.247985	0.107732	0.751949
N236	N	0.497985	0.357732	1.001949
C237	C	-0.285409	-0.364944	0.218455
C238	C	-0.035409	-0.114944	0.468455
C239	C	0.214591	0.135056	0.718455
C240	C	0.464591	0.385056	0.968455
O241	O	-0.313805	-0.393165	0.189963
O242	O	-0.063805	-0.143165	0.439963
O243	O	0.186195	0.106835	0.689963
O244	O	0.436195	0.356835	0.939963
C245	C	-0.285415	-0.310341	0.218459
C246	C	-0.035415	-0.060341	0.468459
C247	C	0.214585	0.189659	0.718459
C248	C	0.464585	0.439659	0.968459
C249	C	-0.252025	-0.283061	0.251955
C250	C	-0.002025	-0.033061	0.501955
C251	C	0.247975	0.216939	0.751955
C252	C	0.497975	0.466939	1.001955
C253	C	-0.185247	-0.283100	0.318942
C254	C	0.064753	-0.033100	0.568942
C255	C	0.314753	0.216900	0.818942
C256	C	0.564753	0.466900	1.068942
C257	C	-0.185251	-0.228500	0.318942
C258	C	0.064749	0.021500	0.568942
C259	C	0.314749	0.271500	0.818942
C260	C	0.564749	0.521500	1.068942
C261	C	-0.218641	-0.201180	0.285449
C262	C	0.031359	0.048820	0.535449
C263	C	0.281359	0.298820	0.785449
C264	C	0.531359	0.548820	1.035449
C265	C	-0.252028	-0.228460	0.251956
C266	C	-0.002028	0.021540	0.501956
C267	C	0.247972	0.271540	0.751956
C268	C	0.497972	0.521540	1.001956
C269	C	-0.318811	-0.283018	0.184968
C270	C	-0.068811	-0.033018	0.434968
C271	C	0.181189	0.216982	0.684968
C272	C	0.431189	0.466982	0.934968
C273	C	-0.318815	-0.228411	0.184975
C274	C	-0.068815	0.021589	0.434975
C275	C	0.181185	0.271589	0.684975
C276	C	0.431185	0.521589	0.934975
C277	C	-0.285425	-0.201131	0.218471
C278	C	-0.035425	0.048869	0.468471
C279	C	0.214575	0.298869	0.718471
C280	C	0.464575	0.548869	0.968471
C281	C	-0.285422	-0.146540	0.218463
C282	C	-0.035422	0.103460	0.468463
C283	C	0.214578	0.353460	0.718463
C284	C	0.464578	0.603460	0.968463
N285	N	-0.252038	-0.119256	0.251961
N286	N	-0.002038	0.130744	0.501961
N287	N	0.247962	0.380744	0.751961
N288	N	0.497962	0.630744	1.001961
C289	C	-0.218647	-0.146576	0.285454
C290	C	0.031353	0.103424	0.535454
C291	C	0.281353	0.353424	0.785454
C292	C	0.531353	0.603424	1.035454
C293	C	-0.285394	-0.479615	0.218449
C294	C	-0.035394	-0.229615	0.468449
C295	C	0.214606	0.020385	0.718449
C296	C	0.464606	0.270385	0.968449
C297	C	-0.285386	-0.534217	0.218441
C298	C	-0.035386	-0.284217	0.468441
C299	C	0.214614	-0.034217	0.718441
C300	C	0.464614	0.215783	0.968441
C301	C	-0.218608	-0.534254	0.285434
C302	C	0.031392	-0.284254	0.535434
C303	C	0.281392	-0.034254	0.785434
C304	C	0.531392	0.215746	1.035434
C305	C	-0.218614	-0.479651	0.285438
C306	C	0.031386	-0.229651	0.535438
C307	C	0.281386	0.020349	0.785438
C308	C	0.531386	0.270349	1.035438
C309	C	-0.252010	-0.452332	0.251946
C310	C	-0.002010	-0.202332	0.501946
C311	C	0.247990	0.047668	0.751946
C312	C	0.497990	0.297668	1.001946
C313	C	-0.218656	-0.031911	0.285452
C314	C	0.031344	0.218089	0.535452
C315	C	0.281344	0.468089	0.785452
C316	C	0.531344	0.718089	1.035452
C317	C	-0.218661	0.022694	0.285448
C318	C	0.031339	0.272694	0.535448
C319	C	0.281339	0.522694	0.785448
C320	C	0.531339	0.772694	1.035448
C321	C	-0.285440	0.022726	0.218458
C322	C	-0.035440	0.272726	0.468458
C323	C	0.214560	0.522726	0.718458
C324	C	0.464560	0.772726	0.968458
C325	C	-0.285434	-0.031874	0.218459
C326	C	-0.035434	0.218126	0.468459
C327	C	0.214566	0.468126	0.718459
C328	C	0.464566	0.718126	0.968459
C329	C	-0.252040	-0.059192	0.251961
C330	C	-0.002040	0.190808	0.501961
C331	C	0.247960	0.440808	0.751961
C332	C	0.497960	0.690808	1.001961
O333	O	-0.313792	-0.118241	0.189983
O334	O	-0.063792	0.131759	0.439983
O335	O	0.186208	0.381759	0.689983
O336	O	0.436208	0.631759	0.939983
O337	O	-0.190261	-0.118349	0.313946
O338	O	0.059739	0.131651	0.563946
O339	O	0.309739	0.381651	0.813946
O340	O	0.559739	0.631651	1.063946
C341	C	-0.252056	0.108128	0.251968
C342	C	-0.002056	0.358128	0.501968
C343	C	0.247944	0.608128	0.751968
C344	C	0.497944	0.858128	1.001968
C345	C	-0.252051	0.050014	0.251955
C346	C	-0.002051	0.300014	0.501955
C347	C	0.247949	0.550014	0.751955
C348	C	0.497949	0.800014	1.001955
C349	C	-0.252007	-0.755518	0.116111
C350	C	-0.002007	-0.505518	0.366111
C351	C	0.247993	-0.255518	0.616111
C352	C	0.497993	-0.005518	0.866111
C353	C	-0.251866	-0.755614	0.057998
C354	C	-0.001866	-0.505614	0.307998
C355	C	0.248134	-0.255614	0.557998
C356	C	0.498134	-0.005614	0.807998
C357	C	-0.285375	-0.722088	0.697618
C358	C	-0.035375	-0.472088	0.947618
C359	C	0.214625	-0.222088	1.197618
C360	C	0.464625	0.027912	1.447618
C361	C	-0.285387	-0.722079	0.643014
C362	C	-0.035387	-0.472079	0.893014
C363	C	0.214613	-0.222079	1.143014
C364	C	0.464613	0.027921	1.393014
O365	O	-0.313809	-0.693608	0.614763
O366	O	-0.063809	-0.443608	0.864763
O367	O	0.186191	-0.193608	1.114763
O368	O	0.436191	0.056392	1.364763
N369	N	-0.251966	-0.755535	0.615715
N370	N	-0.001966	-0.505535	0.865715
N371	N	0.248034	-0.255535	1.115715
N372	N	0.498034	-0.005535	1.365715
C373	C	-0.218528	-0.788998	0.643024
C374	C	0.031472	-0.538998	0.893024
C375	C	0.281472	-0.288998	1.143024
C376	C	0.531472	-0.038998	1.393024
O377	O	-0.190102	-0.817454	0.614790
O378	O	0.059898	-0.567454	0.864790
O379	O	0.309898	-0.317454	1.114790
O380	O	0.559898	-0.067454	1.364790
C381	C	-0.218514	-0.789004	0.697627
C382	C	0.031486	-0.539004	0.947627
C383	C	0.281486	-0.289004	1.197627
C384	C	0.531486	-0.039004	1.447627
C385	C	-0.251941	-0.755550	0.724923
C386	C	-0.001941	-0.505550	0.974923
C387	C	0.248059	-0.255550	1.224923
C388	C	0.498059	-0.005550	1.474923
C389	C	-0.318799	-0.688636	0.724914
C390	C	-0.068799	-0.438636	0.974914
C391	C	0.181201	-0.188636	1.224914
C392	C	0.431201	0.061364	1.474914
C393	C	-0.318788	-0.688646	0.779514
C394	C	-0.068788	-0.438646	1.029514
C395	C	0.181212	-0.188646	1.279514
C396	C	0.431212	0.061354	1.529514
C397	C	-0.285353	-0.722108	0.806819
C398	C	-0.035353	-0.472108	1.056819
C399	C	0.214647	-0.222108	1.306819
C400	C	0.464647	0.027892	1.556819
C401	C	-0.251929	-0.755560	0.779523
C402	C	-0.001929	-0.505560	1.029523
C403	C	0.248071	-0.255560	1.279523
C404	C	0.498071	-0.005560	1.529523
C405	C	-0.185073	-0.822465	0.724935
C406	C	0.064927	-0.572465	0.974935
C407	C	0.314927	-0.322465	1.224935
C408	C	0.564927	-0.072465	1.474935
C409	C	-0.185062	-0.822468	0.779542
C410	C	0.064938	-0.572468	1.029542
C411	C	0.314938	-0.322468	1.279542
C412	C	0.564938	-0.072468	1.529542
C413	C	-0.218488	-0.789013	0.806837
C414	C	0.031512	-0.539013	1.056837
C415	C	0.281512	-0.289013	1.306837
C416	C	0.531512	-0.039013	1.556837
C417	C	-0.218483	-0.789032	0.861429
C418	C	0.031517	-0.539032	1.111429
C419	C	0.281517	-0.289032	1.361429
C420	C	0.531517	-0.039032	1.611429
N421	N	-0.251904	-0.755576	0.888727
N422	N	-0.001904	-0.505576	1.138727
N423	N	0.248096	-0.255576	1.388727
N424	N	0.498096	-0.005576	1.638727
C425	C	-0.285339	-0.722114	0.861422
C426	C	-0.035339	-0.472114	1.111422
C427	C	0.214661	-0.222114	1.361422
C428	C	0.464661	0.027886	1.611422
C429	C	-0.218559	-0.788982	0.528353
C430	C	0.031441	-0.538982	0.778353
C431	C	0.281441	-0.288982	1.028353
C432	C	0.531441	-0.038982	1.278353
C433	C	-0.218576	-0.788979	0.473751
C434	C	0.031424	-0.538979	0.723751
C435	C	0.281424	-0.288979	0.973751
C436	C	0.531424	-0.038979	1.223751
C437	C	-0.285434	-0.722059	0.473744
C438	C	-0.035434	-0.472059	0.723744
C439	C	0.214566	-0.222059	0.973744
C440	C	0.464566	0.027941	1.223744
C441	C	-0.285420	-0.722065	0.528348
C442	C	-0.035420	-0.472065	0.778348
C443	C	0.214580	-0.222065	1.028348
C444	C	0.464580	0.027935	1.278348
C445	C	-0.251980	-0.755526	0.555652
C446	C	-0.001980	-0.505526	0.805652
C447	C	0.248020	-0.255526	1.055652
C448	C	0.498020	-0.005526	1.305652
C449	C	-0.285313	-0.722138	0.976088
C450	C	-0.035313	-0.472138	1.226088
C451	C	0.214687	-0.222138	1.476088
C452	C	0.464687	0.027862	1.726088
C453	C	-0.285300	-0.722153	1.030693
C454	C	-0.035300	-0.472153	1.280693
C455	C	0.214700	-0.222153	1.530693
C456	C	0.464700	0.027847	1.780693
C457	C	-0.218440	-0.789070	1.030694
C458	C	0.031560	-0.539070	1.280694
C459	C	0.281560	-0.289070	1.530694
C460	C	0.531560	-0.039070	1.780694
C461	C	-0.218454	-0.789058	0.976094
C462	C	0.031546	-0.539058	1.226094
C463	C	0.281546	-0.289058	1.476094
C464	C	0.531546	-0.039058	1.726094
C465	C	-0.251893	-0.755588	0.948792
C466	C	-0.001893	-0.505588	1.198792
C467	C	0.248107	-0.255588	1.448792
C468	C	0.498107	-0.005588	1.698792
O469	O	-0.190075	-0.817487	0.889714
O470	O	0.059925	-0.567487	1.139714
O471	O	0.309925	-0.317487	1.389714
O472	O	0.559925	-0.067487	1.639714
O473	O	-0.313755	-0.693659	0.889663
O474	O	-0.063755	-0.443659	1.139663
O475	O	0.186245	-0.193659	1.389663
O476	O	0.436245	0.056341	1.639663
H477	H	-0.953354	-0.816224	0.312706
H478	H	-0.703354	-0.566224	0.562706
H479	H	-0.453354	-0.316224	0.812706
H480	H	-0.203354	-0.066224	1.062706
H481	H	-0.312624	0.044980	0.191186
H482	H	-0.062624	0.294980	0.441186
H483	H	0.187376	0.544980	0.691186
H484	H	0.437376	0.794980	0.941186
H485	H	-0.191424	-0.457443	0.312713
H486	H	0.058576	-0.207443	0.562713
H487	H	0.308576	0.042557	0.812713
H488	H	0.558576	0.292557	1.062713
H489	H	-0.312537	-0.694879	0.953865
H490	H	-0.062537	-0.444879	1.203865
H491	H	0.187463	-0.194879	1.453865
H492	H	0.437463	0.055121	1.703865
H493	H	-0.346012	-0.206171	0.157703
H494	H	-0.096012	0.043829	0.407703
H495	H	0.153988	0.293829	0.657703
H496	H	0.403988	0.543829	0.907703
H497	H	-0.312658	-0.694811	0.451503
H498	H	-0.062658	-0.444811	0.701503
H499	H	0.187342	-0.194811	0.951503
H500	H	0.437342	0.055189	1.201503
N501	N	-0.182594	-0.563726	0.321562
N502	N	0.067406	-0.313726	0.571562
N503	N	0.317406	-0.063726	0.821562
N504	N	0.567406	0.186274	1.071562
H505	H	-0.187662	-0.602456	0.316475
H506	H	0.062338	-0.352456	0.566475
H507	H	0.312338	-0.102456	0.816475
H508	H	0.562338	0.147544	1.066475
H509	H	-0.190789	-0.554192	0.358889
H510	H	0.059211	-0.304192	0.608889
H511	H	0.309211	-0.054192	0.858889
H512	H	0.559211	0.195808	1.108889
H513	H	-0.191464	-0.054147	0.312732
H514	H	0.058536	0.195853	0.562732
H515	H	0.308536	0.445853	0.812732
H516	H	0.558536	0.695853	1.062732
H517	H	-0.191220	-0.816316	1.052936
H518	H	0.058780	-0.566316	1.302936
H519	H	0.308780	-0.316316	1.552936
H520	H	0.558780	-0.066316	1.802936
N521	N	-0.557260	-0.824937	0.321535
N522	N	-0.307260	-0.574937	0.571535
N523	N	-0.057260	-0.324937	0.821535
N524	N	0.192740	-0.074937	1.071535
H525	H	-0.579903	-0.849194	0.300315
H526	H	-0.329903	-0.599194	0.550315
H527	H	-0.079903	-0.349194	0.800315
H528	H	0.170097	-0.099194	1.050315
H529	H	-0.579893	-0.803646	0.345741
H530	H	-0.329893	-0.553646	0.595741
H531	H	-0.079893	-0.303646	0.845741
H532	H	0.170107	-0.053646	1.095741
H533	H	-0.801193	-0.849591	0.346165
H534	H	-0.551193	-0.599591	0.596165
H535	H	-0.301193	-0.349591	0.846165
H536	H	-0.051193	-0.099591	1.096165
N537	N	-0.321347	-0.686064	1.060137
N538	N	-0.071347	-0.436064	1.310137
N539	N	0.178653	-0.186064	1.560137
N540	N	0.428653	0.063936	1.810137
H541	H	-0.345579	-0.707297	1.082792
H542	H	-0.095579	-0.457297	1.332792
H543	H	0.154421	-0.207297	1.582792
H544	H	0.404421	0.042703	1.832792
H545	H	-0.342493	-0.664868	1.034520
H546	H	-0.092493	-0.414868	1.284520
H547	H	0.157507	-0.164868	1.534520
H548	H	0.407507	0.085132	1.784520
H549	H	-0.158063	-0.206293	0.346220
H550	H	0.091937	0.043707	0.596220
H551	H	0.341937	0.293707	0.846220
H552	H	0.591937	0.543707	1.096220
N553	N	-0.354838	-0.652561	0.808951
N554	N	-0.104838	-0.402561	1.058951
N555	N	0.145162	-0.152561	1.308951
N556	N	0.395162	0.097439	1.558951
H557	H	-0.376017	-0.631363	0.783361
H558	H	-0.126017	-0.381363	1.033361
H559	H	0.123983	-0.131363	1.283361
H560	H	0.373983	0.118637	1.533361
H561	H	-0.333545	-0.628380	0.831603
H562	H	-0.083545	-0.378380	1.081603
H563	H	0.166455	-0.128380	1.331603
H564	H	0.416455	0.121620	1.581603
N565	N	-0.321391	-0.563638	0.182306
N566	N	-0.071391	-0.313638	0.432306
N567	N	0.178609	-0.063638	0.682306
N568	N	0.428609	0.186362	0.932306
H569	H	-0.342541	-0.538041	0.161089
H570	H	-0.092541	-0.288041	0.411089
H571	H	0.157459	-0.038041	0.661089
H572	H	0.407459	0.211959	0.911089
H573	H	-0.345619	-0.586292	0.203542
H574	H	-0.095619	-0.336292	0.453542
H575	H	0.154381	-0.086292	0.703542
H576	H	0.404381	0.163708	0.953542
H577	H	-0.450993	-0.816066	0.312678
H578	H	-0.200993	-0.566066	0.562678
H579	H	0.049007	-0.316066	0.812678
H580	H	0.299007	-0.066066	1.062678
N581	N	-0.354854	-0.652533	0.695469
N582	N	-0.104854	-0.402533	0.945469
N583	N	0.145146	-0.152533	1.195469
N584	N	0.395146	0.097467	1.445469
H585	H	-0.376019	-0.631342	0.721054
H586	H	-0.126019	-0.381342	0.971054
H587	H	0.123981	-0.131342	1.221054
H588	H	0.373981	0.118658	1.471054
H589	H	-0.379067	-0.673787	0.672812
H590	H	-0.129067	-0.423787	0.922812
H591	H	0.120933	-0.173787	1.172812
H592	H	0.370933	0.076213	1.422812
N593	N	-0.808626	-0.652707	0.148916
N594	N	-0.558626	-0.402707	0.398916
N595	N	-0.308626	-0.152707	0.648916
N596	N	-0.058626	0.097293	0.898916
H597	H	-0.799147	-0.615341	0.156998
H598	H	-0.549147	-0.365341	0.406998
H599	H	-0.299147	-0.115341	0.656998
H600	H	-0.049147	0.134659	0.906998
H601	H	-0.847346	-0.657830	0.154011
H602	H	-0.597346	-0.407830	0.404011
H603	H	-0.347346	-0.157830	0.654011
H604	H	-0.097346	0.092170	0.904011
H605	H	-0.312618	-0.054087	0.191180
H606	H	-0.062618	0.195913	0.441180
H607	H	0.187382	0.445913	0.691180
H608	H	0.437382	0.695913	0.941180
N609	N	-0.321467	-0.685972	0.557778
N610	N	-0.071467	-0.435972	0.807778
N611	N	0.178533	-0.185972	1.057778
N612	N	0.428533	0.064028	1.307778
H613	H	-0.300206	-0.661756	0.580427
H614	H	-0.050206	-0.411756	0.830427
H615	H	0.199794	-0.161756	1.080427
H616	H	0.449794	0.088244	1.330427
H617	H	-0.345695	-0.707234	0.580408
H618	H	-0.095695	-0.457234	0.830408
H619	H	0.154305	-0.207234	1.080408
H620	H	0.404305	0.042766	1.330408
N621	N	-1.059613	-0.825080	0.321557
N622	N	-0.809613	-0.575080	0.571557
N623	N	-0.559613	-0.325080	0.821557
N624	N	-0.309613	-0.075080	1.071557
H625	H	-1.098353	-0.820023	0.316484
H626	H	-0.848353	-0.570023	0.566484
H627	H	-0.598353	-0.320023	0.816484
H628	H	-0.348353	-0.070023	1.066484
H629	H	-1.050060	-0.816914	0.358889
H630	H	-0.800060	-0.566914	0.608889
H631	H	-0.550060	-0.316914	0.858889
H632	H	-0.300060	-0.066914	1.108889
N633	N	-0.557404	-0.686022	0.182388
N634	N	-0.307404	-0.436022	0.432388
N635	N	-0.057404	-0.186022	0.682388
N636	N	0.192596	0.063978	0.932388
H637	H	-0.580070	-0.661783	0.203612
H638	H	-0.330070	-0.411783	0.453612
H639	H	-0.080070	-0.161783	0.703612
H640	H	0.169930	0.088217	0.953612
H641	H	-0.580021	-0.707328	0.158182
H642	H	-0.330021	-0.457328	0.408182
H643	H	-0.080021	-0.207328	0.658182
H644	H	0.169979	0.042672	0.908182
N645	N	-0.695141	-0.652671	0.148907
N646	N	-0.445141	-0.402671	0.398907
N647	N	-0.195141	-0.152671	0.648907
N648	N	0.054859	0.097329	0.898907
H649	H	-0.672495	-0.628412	0.170120
H650	H	-0.422495	-0.378412	0.420120
H651	H	-0.172495	-0.128412	0.670120
H652	H	0.077505	0.121588	0.920120
H653	H	-0.720784	-0.631555	0.127714
H654	H	-0.470784	-0.381555	0.377714
H655	H	-0.220784	-0.131555	0.627714
H656	H	0.029216	0.118445	0.877714
H657	H	-0.702147	-0.849561	0.346158
H658	H	-0.452147	-0.599561	0.596158
H659	H	-0.202147	-0.349561	0.846158
H660	H	0.047853	-0.099561	1.096158
H661	H	-0.191362	-0.816226	0.451531
H662	H	0.058638	-0.566226	0.701531
H663	H	0.308638	-0.316226	0.951531
H664	H	0.558638	-0.066226	1.201531
N665	N	-0.182489	-0.825074	0.557801
N666	N	0.067511	-0.575074	0.807801
N667	N	0.317511	-0.325074	1.057801
N668	N	0.567511	-0.075074	1.307801
H669	H	-0.161321	-0.846264	0.532218
H670	H	0.088679	-0.596264	0.782218
H671	H	0.338679	-0.346264	1.032218
H672	H	0.588679	-0.096264	1.282218
H673	H	-0.203767	-0.849262	0.580459
H674	H	0.046233	-0.599262	0.830459
H675	H	0.296233	-0.349262	1.080459
H676	H	0.546233	-0.099262	1.330459
H677	H	-0.312588	-0.457375	0.191171
H678	H	-0.062588	-0.207375	0.441171
H679	H	0.187412	0.042625	0.691171
H680	H	0.437412	0.292625	0.941171
H681	H	-0.451130	-0.694818	0.191236
H682	H	-0.201130	-0.444818	0.441236
H683	H	0.048870	-0.194818	0.691236
H684	H	0.298870	0.055182	0.941236
N685	N	-0.946257	-0.686135	0.182416
N686	N	-0.696257	-0.436135	0.432416
N687	N	-0.446257	-0.186135	0.682416
N688	N	-0.196257	0.063865	0.932416
H689	H	-0.971862	-0.664974	0.161218
H690	H	-0.721862	-0.414974	0.411218
H691	H	-0.471862	-0.164974	0.661218
H692	H	-0.221862	0.085026	0.911218
H693	H	-0.923598	-0.707428	0.158237
H694	H	-0.673598	-0.457428	0.408237
H695	H	-0.423598	-0.207428	0.658237
H696	H	-0.173598	0.042572	0.908237
N697	N	-0.149020	-0.858548	0.695503
N698	N	0.100980	-0.608548	0.945503
N699	N	0.350980	-0.358548	1.195503
N700	N	0.600980	-0.108548	1.445503
H701	H	-0.127838	-0.879741	0.721094
H702	H	0.122162	-0.629741	0.971094
H703	H	0.372162	-0.379741	1.221094
H704	H	0.622162	-0.129741	1.471094
H705	H	-0.124823	-0.837278	0.672848
H706	H	0.125177	-0.587278	0.922848
H707	H	0.375177	-0.337278	1.172848
H708	H	0.625177	-0.087278	1.422848
H709	H	-0.158057	-0.305339	0.346218
H710	H	0.091943	-0.055339	0.596218
H711	H	0.341943	0.194661	0.846218
H712	H	0.591943	0.444661	1.096218
H713	H	-0.346001	-0.305221	0.157692
H714	H	-0.096001	-0.055221	0.407692
H715	H	0.153999	0.194779	0.657692
H716	H	0.403999	0.444779	0.907692
H717	H	-1.052536	-0.695002	0.191267
H718	H	-0.802536	-0.445002	0.441267
H719	H	-0.552536	-0.195002	0.691267
H720	H	-0.302536	0.054998	0.941267
H721	H	-0.191468	0.044903	0.312724
H722	H	0.058532	0.294903	0.562724
H723	H	0.308532	0.544903	0.812724
H724	H	0.558532	0.794903	1.062724
N725	N	-0.148990	-0.858555	0.808991
N726	N	0.101010	-0.608555	1.058991
N727	N	0.351010	-0.358555	1.308991
N728	N	0.601010	-0.108555	1.558991
H729	H	-0.127818	-0.879744	0.783410
H730	H	0.122182	-0.629744	1.033410
H731	H	0.372182	-0.379744	1.283410
H732	H	0.622182	-0.129744	1.533410
H733	H	-0.170269	-0.882745	0.831647
H734	H	0.079731	-0.632745	1.081647
H735	H	0.329731	-0.382745	1.331647
H736	H	0.579731	-0.132745	1.581647
N737	N	-0.182409	-0.825146	0.946649
N738	N	0.067591	-0.575146	1.196649
N739	N	0.317591	-0.325146	1.446649
N740	N	0.567591	-0.075146	1.696649
H741	H	-0.161229	-0.846347	0.972235
H742	H	0.088771	-0.596347	1.222235
H743	H	0.338771	-0.346347	1.472235
H744	H	0.588771	-0.096347	1.722235
H745	H	-0.158211	-0.803874	0.923997
H746	H	0.091789	-0.553874	1.173997
H747	H	0.341789	-0.303874	1.423997
H748	H	0.591789	-0.053874	1.673997
