data_functionalizedCrystal
_audit_creation_method	'MofGen! by Chris Wilmer'
_symmetry_space_group_name_H-M	'P1'
_symmetry_Int_Tables_number	1
_symmetry_cell_setting	triclinic
loop_
_symmetry_equiv_pos_as_xyz
  x,y,z
_cell_length_a	17.640112
_cell_length_b	17.637651
_cell_length_c	17.640597
_cell_angle_alpha	92.019515
_cell_angle_beta	87.714469
_cell_angle_gamma	114.329102
loop_
_atom_site_label
_atom_site_type_symbol
_atom_site_fract_x
_atom_site_fract_y
_atom_site_fract_z
Zn1	Zn	1.224153	-0.102702	-0.179021
Zn2	Zn	1.724153	0.397298	0.320979
Zn3	Zn	1.171496	-0.216709	-0.034427
Zn4	Zn	1.671496	0.283291	0.465573
Zn5	Zn	1.068738	-0.113625	-0.076036
Zn6	Zn	1.568738	0.386375	0.423964
Zn7	Zn	1.058453	-0.268394	-0.178894
Zn8	Zn	1.558453	0.231606	0.321106
O9	O	1.130710	-0.175357	-0.117094
O10	O	1.630710	0.324643	0.382906
O11	O	1.329520	-0.091623	-0.142481
O12	O	1.829520	0.408377	0.357519
O13	O	1.140132	-0.185975	0.063613
O14	O	1.640132	0.314025	0.563613
O15	O	1.115695	0.000308	-0.107164
O16	O	1.615695	0.500308	0.392836
O17	O	1.290833	-0.175384	-0.036248
O18	O	1.790833	0.324616	0.463752
O19	O	1.229879	0.008333	-0.182827
O20	O	1.729879	0.508333	0.317173
O21	O	1.064636	-0.110240	0.033043
O22	O	1.564636	0.389760	0.533043
O23	O	0.955022	-0.160357	-0.107040
O24	O	1.455022	0.339643	0.392960
O25	O	1.098166	-0.263474	-0.282470
O26	O	1.598166	0.236526	0.217530
O27	O	0.947466	-0.274066	-0.182609
O28	O	1.447466	0.225934	0.317391
O29	O	1.219906	-0.141740	-0.282564
O30	O	1.719906	0.358260	0.217436
O31	O	1.130159	-0.336049	-0.036124
O32	O	1.630159	0.163951	0.463876
O33	O	1.047107	-0.374022	-0.142263
O34	O	1.547107	0.125978	0.357737
C35	C	0.922112	-0.224006	-0.149326
C36	C	1.422112	0.275994	0.350674
C37	C	0.832872	-0.244840	-0.163129
C38	C	1.332872	0.255160	0.336871
C39	C	0.559079	-0.017068	-0.012240
C40	C	1.059079	0.482932	0.487760
C41	C	0.475222	-0.036663	-0.025218
C42	C	0.975222	0.463337	0.474782
C43	C	0.467347	-0.155182	-0.103723
C44	C	0.967347	0.344818	0.396277
C45	C	0.551206	-0.135595	-0.090755
C46	C	1.051206	0.364405	0.409245
C47	C	0.597065	-0.066538	-0.045012
C48	C	1.097065	0.433462	0.454988
C49	C	0.589193	-0.185064	-0.123527
C50	C	1.089193	0.314936	0.376473
C51	C	0.673043	-0.165481	-0.110556
C52	C	1.173043	0.334519	0.389444
C53	C	0.718908	-0.096428	-0.064814
C54	C	1.218908	0.403572	0.435186
C55	C	0.680916	-0.046954	-0.032041
C56	C	1.180916	0.453046	0.467959
C57	C	0.543330	-0.254125	-0.169265
C58	C	1.043330	0.245875	0.330735
C59	C	0.581317	-0.303594	-0.202037
C60	C	1.081317	0.196406	0.297963
C61	C	0.665170	-0.284007	-0.189071
C62	C	1.165170	0.215993	0.310929
C63	C	0.711035	-0.214955	-0.143328
C64	C	1.211035	0.285045	0.356672
C65	C	0.703162	-0.333481	-0.221843
C66	C	1.203162	0.166519	0.278157
C67	C	0.787013	-0.313898	-0.208872
C68	C	1.287013	0.186102	0.291128
C69	C	0.794885	-0.195371	-0.130357
C70	C	1.294885	0.304629	0.369643
C71	C	1.081827	-0.384199	-0.084677
C72	C	1.581827	0.115801	0.415323
C73	C	1.060993	-0.473529	-0.070823
C74	C	1.560993	0.026471	0.429177
C75	C	1.289549	-0.746228	-0.222500
C76	C	1.789549	-0.246228	0.277500
C77	C	1.269944	-0.830171	-0.209473
C78	C	1.769944	-0.330171	0.290527
C79	C	1.151097	-0.838604	-0.130583
C80	C	1.651097	-0.338604	0.369417
C81	C	1.170695	-0.754659	-0.143601
C82	C	1.670695	-0.254659	0.356399
C83	C	1.239921	-0.708477	-0.189561
C84	C	1.739921	-0.208477	0.310439
C85	C	1.121067	-0.716908	-0.110661
C86	C	1.621067	-0.216908	0.389339
C87	C	1.140660	-0.632971	-0.123681
C88	C	1.640660	-0.132971	0.376319
C89	C	1.209882	-0.586785	-0.169641
C90	C	1.709882	-0.086785	0.330359
C91	C	1.259514	-0.624541	-0.202581
C92	C	1.759514	-0.124541	0.297419
C93	C	1.051837	-0.763093	-0.064706
C94	C	1.551837	-0.263093	0.435294
C95	C	1.002209	-0.725342	-0.031766
C96	C	1.502209	-0.225342	0.468234
C97	C	1.021806	-0.641402	-0.044782
C98	C	1.521806	-0.141402	0.455218
C99	C	1.091027	-0.595216	-0.090742
C100	C	1.591027	-0.095216	0.409258
C101	C	0.972173	-0.603647	-0.011842
C102	C	1.472173	-0.103647	0.488158
C103	C	0.991767	-0.519710	-0.024862
C104	C	1.491767	-0.019710	0.475138
C105	C	1.110621	-0.511279	-0.103762
C106	C	1.610621	-0.011279	0.396238
C107	C	1.340122	-0.126520	-0.084737
C108	C	1.840122	0.373480	0.415263
C109	C	1.429361	-0.105708	-0.070949
C110	C	1.929361	0.394292	0.429051
C111	C	1.163763	-0.207154	-0.310120
C112	C	1.663763	0.292846	0.189880
C113	C	1.177848	-0.220704	-0.392375
C114	C	1.677848	0.279296	0.107625
C115	C	1.179808	0.034302	-0.149651
C116	C	1.679808	0.534302	0.350349
C117	C	1.200731	0.123646	-0.163525
C118	C	1.700731	0.623646	0.336475
C119	C	1.097846	-0.143616	0.075178
C120	C	1.597846	0.356384	0.575178
C121	C	1.083969	-0.129803	0.157422
C122	C	1.583969	0.370197	0.657422
C123	C	1.237154	-0.279155	0.507666
C124	C	1.737154	0.220845	1.007666
C125	C	1.224116	-0.266154	0.584942
C126	C	1.724116	0.233846	1.084942
C127	C	1.144602	-0.188232	0.553032
C128	C	1.644602	0.311768	1.053032
C129	C	1.157637	-0.201223	0.475751
C130	C	1.657637	0.298777	0.975751
C131	C	1.203913	-0.246686	0.453074
C132	C	1.703913	0.253314	0.953074
C133	C	1.124396	-0.168754	0.421160
C134	C	1.624396	0.331246	0.921160
C135	C	1.137426	-0.181748	0.343885
C136	C	1.637426	0.318252	0.843885
C137	C	1.183697	-0.227211	0.321202
C138	C	1.683697	0.272789	0.821202
C139	C	1.216943	-0.259680	0.375800
C140	C	1.716943	0.240320	0.875800
C141	C	1.078115	-0.123296	0.443838
C142	C	1.578115	0.376704	0.943838
C143	C	1.044874	-0.090827	0.389247
C144	C	1.544874	0.409173	0.889247
C145	C	1.057909	-0.103816	0.311971
C146	C	1.557909	0.396184	0.811971
C147	C	1.104180	-0.149279	0.289288
C148	C	1.604180	0.350721	0.789288
C149	C	1.024663	-0.071347	0.257373
C150	C	1.524663	0.428653	0.757373
C151	C	1.037694	-0.084340	0.180099
C152	C	1.537694	0.415660	0.680099
C153	C	1.117210	-0.162273	0.212013
C154	C	1.617210	0.337727	0.712013
H155	H	0.718262	0.009289	0.005194
H156	H	1.218262	0.509289	0.505194
H157	H	0.951354	-0.488974	0.001960
H158	H	1.451354	0.011026	0.501960
O159	O	0.653661	-0.407980	-0.271144
O160	O	1.153661	0.092020	0.228856
H161	H	0.652813	-0.465165	-0.246050
H162	H	1.152813	0.034835	0.253950
H163	H	0.596425	0.039175	0.024995
H164	H	1.096425	0.539175	0.524995
H165	H	0.444299	0.003631	0.001466
H166	H	0.944299	0.503631	0.501466
O167	O	0.417898	-0.229673	-0.153054
O168	O	0.917898	0.270327	0.346946
H169	H	0.394561	-0.208908	-0.202253
H170	H	0.894561	0.291092	0.297747
O171	O	1.185291	-0.461455	-0.153327
O172	O	1.685291	0.038545	0.346673
H173	H	1.177660	-0.490335	-0.211040
H174	H	1.677660	0.009665	0.288960
H175	H	0.915805	-0.641262	0.025573
H176	H	1.415805	-0.141262	0.525573
O177	O	1.259973	-0.301177	0.643825
O178	O	1.759973	0.198823	1.143825
H179	H	1.303140	-0.249547	0.679516
H180	H	1.803140	0.250453	1.179516
H181	H	1.310353	-0.860908	-0.236312
H182	H	1.810353	-0.360908	0.263688
H183	H	0.543966	-0.359822	-0.239278
H184	H	1.043966	0.140178	0.260722
O185	O	1.076446	-0.888418	-0.081001
O186	O	1.576446	-0.388418	0.418999
H187	H	1.032301	-0.941669	-0.114465
H188	H	1.532301	-0.441669	0.385535
O189	O	1.030703	-0.853626	-0.050665
O190	O	1.530703	-0.353626	0.449335
H191	H	0.974222	-0.879400	-0.013182
H192	H	1.474222	-0.379400	0.486818
H193	H	0.832232	-0.139127	-0.093122
H194	H	1.332232	0.360873	0.406878
O195	O	0.827985	-0.367246	-0.244241
O196	O	1.327985	0.132754	0.255759
H197	H	0.881049	-0.328604	-0.281606
H198	H	1.381049	0.171396	0.218394
H199	H	0.475054	-0.270067	-0.179824
H200	H	0.975054	0.229933	0.320176
O201	O	1.231021	-0.496250	-0.183680
O202	O	1.731021	0.003750	0.316320
H203	H	1.229465	-0.487096	-0.245433
H204	H	1.729465	0.012904	0.254567
O205	O	1.167129	-0.211303	0.187551
O206	O	1.667129	0.288697	0.687551
H207	H	1.170607	-0.214877	0.124645
H208	H	1.670607	0.285123	0.624645
O209	O	0.927556	-0.775147	0.017817
O210	O	1.427556	-0.275147	0.517817
H211	H	0.922274	-0.839854	0.021346
H212	H	1.422274	-0.339854	0.521346
O213	O	1.334182	-0.574718	-0.252150
O214	O	1.834182	-0.074718	0.247850
H215	H	1.365402	-0.615068	-0.272871
H216	H	1.865402	-0.115068	0.227129
H217	H	1.274844	-0.316168	0.489202
H218	H	1.774844	0.183832	0.989202
O219	O	1.094699	-0.139191	0.577491
O220	O	1.594699	0.360809	1.077491
H221	H	1.091228	-0.135604	0.640396
H222	H	1.591228	0.364396	1.140396
H223	H	1.345925	-0.708622	-0.259919
H224	H	1.845925	-0.208622	0.240081
H225	H	1.194306	-0.237789	0.258280
H226	H	1.694306	0.262211	0.758280
H227	H	0.787183	-0.080486	-0.054252
H228	H	1.287183	0.419514	0.445748
H229	H	1.254633	-0.296692	0.357336
H230	H	1.754633	0.203308	0.857336
O231	O	1.064066	-0.109270	0.527183
O232	O	1.564066	0.390730	1.027183
H233	H	1.030598	-0.170236	0.554738
H234	H	1.530598	0.329764	1.054738
O235	O	0.994971	-0.041786	0.413705
O236	O	1.494971	0.458214	0.913705
H237	H	0.991500	-0.038198	0.476611
H238	H	1.491500	0.461802	0.976611
H239	H	0.986979	-0.034338	0.275849
H240	H	1.486979	0.465662	0.775849
O241	O	1.001850	-0.049317	0.121210
O242	O	1.501850	0.450683	0.621210
H243	H	0.967491	-0.015512	0.149960
H244	H	1.467491	0.484488	0.649960
