data_functionalizedCrystal
_audit_creation_method	'MofGen! by Chris Wilmer'
_symmetry_space_group_name_H-M	'P1'
_symmetry_Int_Tables_number	1
_symmetry_cell_setting	triclinic
loop_
_symmetry_equiv_pos_as_xyz
  x,y,z
_cell_length_a	10.654562
_cell_length_b	23.532407
_cell_length_c	9.730223
_cell_angle_alpha	90.005957
_cell_angle_beta	90.003039
_cell_angle_gamma	83.669390
loop_
_atom_site_label
_atom_site_type_symbol
_atom_site_fract_x
_atom_site_fract_y
_atom_site_fract_z
O1	O	1.665290	0.080017	0.114396
O2	O	1.299572	0.087630	0.114380
O3	O	1.493459	0.000964	0.114363
O4	O	1.471402	0.166683	0.114413
O5	O	1.493457	0.000966	-0.114217
O6	O	1.299570	0.087632	-0.114200
O7	O	1.665287	0.080019	-0.114184
Zn8	Zn	1.482428	0.083826	-0.150484
Zn9	Zn	1.482431	0.083823	0.150680
O10	O	1.471400	0.166685	-0.114167
C11	C	1.252791	0.087070	0.000088
C12	C	1.113401	0.085393	0.000081
C13	C	1.047894	0.084612	-0.124507
C14	C	0.916922	0.083041	-0.124485
C15	C	0.916975	0.083035	0.124725
C16	C	1.047946	0.084602	0.124701
C17	C	1.047862	0.084619	-0.268387
C18	C	0.916890	0.083048	-0.268365
C19	C	1.492896	-0.020255	0.000070
C20	C	1.491207	-0.083483	0.000059
C21	C	1.595354	-0.481905	0.000139
C22	C	1.593785	-0.541316	0.000149
O23	O	1.690330	-0.577430	0.000204
N24	N	1.478520	-0.564696	0.000143
C25	C	1.364815	-0.528661	0.000141
O26	O	1.266628	-0.554002	0.000138
C27	C	1.366385	-0.469252	0.000141
C28	C	1.481658	-0.445876	0.000133
C29	C	1.710618	-0.458529	0.000133
C30	C	1.712186	-0.399122	0.000120
C31	C	1.598490	-0.363093	0.000113
C32	C	1.483227	-0.386469	0.000120
C33	C	1.252682	-0.433218	0.000148
C34	C	1.254262	-0.373806	0.000149
C35	C	1.369535	-0.350430	0.000141
C36	C	1.371099	-0.291033	0.000100
N37	N	1.486365	-0.267654	0.000106
C38	C	1.600060	-0.303683	0.000113
C39	C	1.361527	-0.653425	0.000145
C40	C	1.359955	-0.712833	0.000135
C41	C	1.588926	-0.725484	0.000146
C42	C	1.590496	-0.666075	0.000146
C43	C	1.476792	-0.630046	0.000151
C44	C	1.603345	-0.178925	0.000084
C45	C	1.604903	-0.119513	0.000066
C46	C	1.375933	-0.106867	0.000062
C47	C	1.374374	-0.166274	0.000074
C48	C	1.488091	-0.202302	0.000089
O49	O	1.274605	-0.254885	0.000051
O50	O	1.698231	-0.278334	0.000133
C51	C	1.712068	0.080578	0.000111
C52	C	1.851458	0.082255	0.000127
C53	C	1.471963	0.187904	0.000129
C54	C	1.473652	0.251132	0.000149
N55	N	1.482435	0.083827	-0.356020
C56	C	1.568310	0.045465	-0.427954
C57	C	1.568307	0.045458	-0.571837
C58	C	1.396550	0.122181	-0.571840
C59	C	1.396548	0.122185	-0.427960
C60	C	1.667476	0.001171	-0.427953
C61	C	1.667473	0.001164	-0.571836
N62	N	1.482434	0.083817	0.356216
H63	H	0.863665	0.082390	0.226187
H64	H	1.684362	-0.647046	0.000140
C65	C	1.225506	0.133804	-0.733659
C66	C	1.302153	0.164344	-0.650926
H67	H	1.167235	0.159835	-0.782487
H68	H	1.180641	0.109915	-0.677529
H69	H	1.276664	0.110957	-0.797087
H70	H	1.250995	0.187188	-0.587491
H71	H	1.347021	0.188242	-0.707060
C72	C	1.226768	0.198017	-0.442421
C73	C	1.302145	0.164351	-0.348889
H74	H	1.168490	0.224051	-0.393603
H75	H	1.181910	0.174116	-0.498542
H76	H	1.278787	0.218724	-0.498536
H77	H	1.250127	0.143640	-0.292780
H78	H	1.347006	0.188255	-0.292744
H79	H	1.806053	-0.380096	0.000119
H80	H	1.280509	-0.185308	0.000042
H81	H	1.283365	-0.077521	0.000052
H82	H	1.158814	-0.452240	0.000163
H83	H	1.266088	-0.731860	0.000118
C84	C	1.019913	-0.002302	-0.388187
C85	C	1.112007	0.031491	-0.342977
H86	H	1.059516	-0.035102	-0.434224
H87	H	0.963887	0.019209	-0.449523
H88	H	0.973891	-0.013940	-0.311466
H89	H	1.158022	0.043132	-0.419699
H90	H	1.168054	0.009975	-0.281637
H91	H	1.076120	0.126151	-0.313018
H92	H	0.869356	0.122404	-0.323589
H93	H	1.101279	0.085229	0.226153
C94	C	1.602247	-0.091353	-0.524927
C95	C	1.628108	-0.054683	-0.632099
H96	H	1.577965	-0.125833	-0.562136
H97	H	1.535593	-0.073403	-0.470008
H98	H	1.675656	-0.099700	-0.469968
H99	H	1.554695	-0.046333	-0.687053
H100	H	1.694767	-0.072637	-0.687041
C101	C	1.831079	-0.137995	0.000088
C102	C	1.731620	-0.093819	0.000068
H103	H	1.909304	-0.122132	0.000101
H104	H	1.825705	-0.160907	-0.079615
H105	H	1.825689	-0.160898	0.079808
H106	H	1.737005	-0.070918	-0.079657
H107	H	1.736997	-0.070897	0.079779
H108	H	1.647420	-0.042601	-0.388913
H109	H	1.681503	-0.754831	0.000157
C110	C	1.734458	-0.253058	0.117606
C111	C	1.728343	-0.218521	0.000096
H112	H	1.811630	-0.277499	0.117608
H113	H	1.665605	-0.275488	0.117602
H114	H	1.730306	-0.229607	0.197304
H115	H	1.732486	-0.241972	-0.079603
H116	H	1.797215	-0.196089	0.000087
C117	C	1.905316	-0.487584	0.117629
C118	C	1.835610	-0.498125	0.000132
H119	H	1.982490	-0.512024	0.117614
H120	H	1.858034	-0.494729	0.197328
H121	H	1.922714	-0.448852	0.117617
H122	H	1.818204	-0.536857	0.000149
H123	H	1.882902	-0.490985	-0.079587
C124	C	1.135039	-0.646897	0.000111
C125	C	1.236531	-0.613824	0.000124
H126	H	1.057875	-0.622450	0.000091
H127	H	1.139192	-0.670325	0.079821
H128	H	1.139211	-0.670339	-0.079602
H129	H	1.232364	-0.590385	0.079842
H130	H	1.232377	-0.590386	-0.079594
C131	C	1.027773	-0.367273	0.000154
C132	C	1.129271	-0.334203	0.000148
H133	H	0.950613	-0.342823	0.000143
H134	H	1.031932	-0.390701	0.079864
H135	H	1.031932	-0.390715	-0.079559
H136	H	1.125118	-0.310764	0.079867
H137	H	1.125111	-0.310765	-0.079570
C138	C	1.783760	0.019000	-0.223964
C139	C	1.789945	0.019924	-0.367681
H140	H	1.859355	0.030591	-0.186757
H141	H	1.774008	-0.018649	-0.193813
H142	H	1.713731	0.044439	-0.193856
H143	H	1.859969	-0.005519	-0.397790
H144	H	1.799711	0.057579	-0.397845
H145	H	0.888617	0.041516	-0.313023
C146	C	1.851438	-0.031441	-0.704497
C147	C	1.797335	0.014337	-0.624561
H148	H	1.931607	-0.023309	-0.737040
H149	H	1.797991	-0.036864	-0.780412
H150	H	1.861425	-0.065194	-0.650238
H151	H	1.787339	0.048089	-0.678823
H152	H	1.850793	0.019767	-0.548635
