data_functionalizedCrystal
_audit_creation_method	'MofGen! by Chris Wilmer'
_symmetry_space_group_name_H-M	'P1'
_symmetry_Int_Tables_number	1
_symmetry_cell_setting	triclinic
loop_
_symmetry_equiv_pos_as_xyz
  x,y,z
_cell_length_a	13.897449
_cell_length_b	13.897448
_cell_length_c	13.897441
_cell_angle_alpha	89.969401
_cell_angle_beta	90.020733
_cell_angle_gamma	89.981028
loop_
_atom_site_label
_atom_site_type_symbol
_atom_site_fract_x
_atom_site_fract_y
_atom_site_fract_z
Zn1	Zn	1.474703	0.383951	0.545381
Zn2	Zn	1.724703	0.633951	0.795381
Zn3	Zn	1.974703	0.883951	1.045381
Zn4	Zn	2.224703	1.133951	1.295381
Zn5	Zn	1.474597	0.545273	0.384083
Zn6	Zn	1.724597	0.795273	0.634083
Zn7	Zn	1.974597	1.045273	0.884083
Zn8	Zn	2.224597	1.295273	1.134083
Zn9	Zn	1.313392	0.383997	0.384100
Zn10	Zn	1.563392	0.633997	0.634100
Zn11	Zn	1.813392	0.883997	0.884100
Zn12	Zn	2.063392	1.133997	1.134100
Zn13	Zn	1.313373	0.545210	0.545335
Zn14	Zn	1.563373	0.795210	0.795335
Zn15	Zn	1.813373	1.045210	1.045335
Zn16	Zn	2.063373	1.295210	1.295335
O17	O	1.394016	0.464608	0.464725
O18	O	1.644016	0.714608	0.714725
O19	O	1.894016	0.964608	0.964725
O20	O	2.144016	1.214608	1.214725
O21	O	1.609670	0.405358	0.523997
O22	O	1.859670	0.655358	0.773997
O23	O	2.109670	0.905358	1.023997
O24	O	2.359670	1.155358	1.273997
O25	O	1.453176	0.523925	0.249103
O26	O	1.703176	0.773925	0.499103
O27	O	1.953176	1.023925	0.749103
O28	O	2.203176	1.273925	0.999103
O29	O	1.334842	0.249009	0.405520
O30	O	1.584842	0.499009	0.655520
O31	O	1.834842	0.749009	0.905520
O32	O	2.084842	0.999009	1.155520
O33	O	1.609592	0.523881	0.405491
O34	O	1.859592	0.773881	0.655491
O35	O	2.109592	1.023881	0.905491
O36	O	2.359592	1.273881	1.155491
O37	O	1.453356	0.248976	0.524013
O38	O	1.703356	0.498976	0.774013
O39	O	1.953356	0.748976	1.024013
O40	O	2.203356	0.998976	1.274013
O41	O	1.334739	0.405436	0.249116
O42	O	1.584739	0.655436	0.499116
O43	O	1.834739	0.905436	0.749116
O44	O	2.084739	1.155436	0.999116
O45	O	1.178408	0.405375	0.405476
O46	O	1.428408	0.655375	0.655476
O47	O	1.678408	0.905375	0.905476
O48	O	1.928408	1.155375	1.155476
O49	O	1.334811	0.523773	0.680323
O50	O	1.584811	0.773773	0.930323
O51	O	1.834811	1.023773	1.180323
O52	O	2.084811	1.273773	1.430323
O53	O	1.178394	0.523817	0.523935
O54	O	1.428394	0.773817	0.773935
O55	O	1.678394	1.023817	1.023935
O56	O	1.928394	1.273817	1.273935
O57	O	1.453339	0.405297	0.680357
O58	O	1.703339	0.655297	0.930357
O59	O	1.953339	0.905297	1.180357
O60	O	2.203339	1.155297	1.430357
O61	O	1.453158	0.680246	0.405447
O62	O	1.703158	0.930246	0.655447
O63	O	1.953158	1.180246	0.905447
O64	O	2.203158	1.430246	1.155447
O65	O	1.334708	0.680200	0.523918
O66	O	1.584708	0.930200	0.773918
O67	O	1.834708	1.180200	1.023918
O68	O	2.084708	1.430200	1.273918
C69	C	1.143402	0.464595	0.464703
C70	C	1.393402	0.714595	0.714703
C71	C	1.643402	0.964595	0.964703
C72	C	1.893402	1.214595	1.214703
C73	C	1.036188	0.464613	0.464716
C74	C	1.286188	0.714613	0.714716
C75	C	1.536188	0.964613	0.964716
C76	C	1.786188	1.214613	1.214716
C77	C	1.393946	0.715222	0.464697
C78	C	1.643946	0.965222	0.714697
C79	C	1.893946	1.215222	0.964697
C80	C	2.143946	1.465222	1.214697
C81	C	1.394004	0.822436	0.464717
C82	C	1.644004	1.072436	0.714717
C83	C	1.894004	1.322436	0.964717
C84	C	2.144004	1.572436	1.214717
C85	C	0.839893	0.464616	0.464741
C86	C	1.089893	0.714616	0.714741
C87	C	1.339893	0.964616	0.964741
C88	C	1.589893	1.214616	1.214741
C89	C	0.949125	0.464611	0.464725
C90	C	1.199125	0.714611	0.714725
C91	C	1.449125	0.964611	0.964725
C92	C	1.699125	1.214611	1.214725
C93	C	1.394085	0.464522	0.716318
C94	C	1.644085	0.714522	0.966318
C95	C	1.894085	0.964522	1.216318
C96	C	2.144085	1.214522	1.466318
C97	C	1.394114	0.464486	0.823532
C98	C	1.644114	0.714486	1.073532
C99	C	1.894114	0.964486	1.323532
C100	C	2.144114	1.214486	1.573532
C101	C	1.645609	0.464621	0.464747
C102	C	1.895609	0.714621	0.714747
C103	C	2.145609	0.964621	0.964747
C104	C	2.395609	1.214621	1.214747
C105	C	1.752823	0.464627	0.464757
C106	C	2.002823	0.714627	0.714757
C107	C	2.252823	0.964627	0.964757
C108	C	2.502823	1.214627	1.214757
C109	C	1.394113	0.213015	0.464774
C110	C	1.644113	0.463015	0.714774
C111	C	1.894113	0.713015	0.964774
C112	C	2.144113	0.963015	1.214774
C113	C	1.394154	0.105801	0.464795
C114	C	1.644154	0.355801	0.714795
C115	C	1.894154	0.605801	0.964795
C116	C	2.144154	0.855801	1.214795
C117	C	1.394105	1.018731	0.464778
C118	C	1.644105	1.268731	0.714778
C119	C	1.894105	1.518731	0.964778
C120	C	2.144105	1.768731	1.214778
C121	C	1.394046	0.909499	0.464747
C122	C	1.644046	1.159499	0.714747
C123	C	1.894046	1.409499	0.964747
C124	C	2.144046	1.659499	1.214747
C125	C	1.394003	0.464623	0.214110
C126	C	1.644003	0.714623	0.464110
C127	C	1.894003	0.964623	0.714110
C128	C	2.144003	1.214623	0.964110
C129	C	1.394161	0.464388	0.106897
C130	C	1.644161	0.714388	0.356897
C131	C	1.894161	0.964388	0.606897
C132	C	2.144161	1.214388	0.856897
C133	C	1.394140	0.464421	1.019827
C134	C	1.644140	0.714421	1.269827
C135	C	1.894140	0.964421	1.519827
C136	C	2.144140	1.214421	1.769827
C137	C	1.394122	0.464460	0.910594
C138	C	1.644122	0.714460	1.160594
C139	C	1.894122	0.964460	1.410594
C140	C	2.144122	1.214460	1.660594
