data_functionalizedCrystal
_audit_creation_method	'MofGen! by Chris Wilmer'
_symmetry_space_group_name_H-M	'P1'
_symmetry_Int_Tables_number	1
_symmetry_cell_setting	triclinic
loop_
_symmetry_equiv_pos_as_xyz
  x,y,z
_cell_length_a	15.944499
_cell_length_b	27.732048
_cell_length_c	15.021413
_cell_angle_alpha	89.999048
_cell_angle_beta	89.990095
_cell_angle_gamma	83.060132
loop_
_atom_site_label
_atom_site_type_symbol
_atom_site_fract_x
_atom_site_fract_y
_atom_site_fract_z
O1	O	1.113742	0.062215	-0.074095
O2	O	1.447076	0.395548	0.259238
O3	O	1.780409	0.728882	0.592571
O4	O	0.869086	0.069927	-0.074087
O5	O	1.202419	0.403260	0.259247
O6	O	1.535752	0.736594	0.592580
O7	O	0.999013	-0.004294	-0.074074
O8	O	1.332346	0.329040	0.259259
O9	O	1.665679	0.662373	0.592592
O10	O	0.983816	0.136436	-0.074108
O11	O	1.317149	0.469769	0.259226
O12	O	1.650482	0.803102	0.592559
O13	O	0.998992	-0.004283	0.073990
O14	O	1.332325	0.329050	0.407323
O15	O	1.665659	0.662384	0.740657
O16	O	0.869065	0.069938	0.073978
O17	O	1.202398	0.403271	0.407311
O18	O	1.535732	0.736604	0.740644
O19	O	1.113722	0.062226	0.073969
O20	O	1.447055	0.395559	0.407302
O21	O	1.780388	0.728892	0.740636
Zn22	Zn	0.991390	0.066083	0.097482
Zn23	Zn	1.324723	0.399417	0.430815
Zn24	Zn	1.658057	0.732750	0.764148
Zn25	Zn	0.991417	0.066069	-0.097599
Zn26	Zn	1.324751	0.399403	0.235734
Zn27	Zn	1.658084	0.732736	0.569067
O28	O	0.983795	0.136446	0.073957
O29	O	1.317128	0.469780	0.407290
O30	O	1.650462	0.803113	0.740623
C31	C	0.837785	0.069617	-0.000053
C32	C	1.171118	0.402950	0.333280
C33	C	1.504452	0.736283	0.666614
C34	C	0.744549	0.068670	-0.000049
C35	C	1.077882	0.402003	0.333284
C36	C	1.411216	0.735337	0.666618
C37	C	0.998683	-0.022297	-0.000040
C38	C	1.332017	0.311037	0.333294
C39	C	1.665350	0.644370	0.666627
C40	C	0.997723	-0.075956	-0.000032
C41	C	1.331056	0.257378	0.333301
C42	C	1.664389	0.590711	0.666634
C43	C	0.452449	0.111790	-0.000072
C44	C	0.785782	0.445124	0.333261
C45	C	1.119116	0.778457	0.666594
C46	C	0.513782	0.089370	-0.073072
C47	C	0.847115	0.422703	0.260261
C48	C	1.180448	0.756037	0.593594
C49	C	0.408957	0.065231	-0.000069
C50	C	0.742291	0.398564	0.333265
C51	C	1.075624	0.731898	0.666598
C52	C	0.513747	0.089368	0.072908
C53	C	0.847081	0.422701	0.406241
C54	C	1.180414	0.756035	0.739574
C55	C	0.573844	0.066923	-0.000058
C56	C	0.907177	0.400256	0.333276
C57	C	1.240511	0.733590	0.666609
C58	C	0.469062	0.042798	-0.073129
C59	C	0.802395	0.376131	0.260205
C60	C	1.135729	0.709464	0.593538
C61	C	0.469021	0.042802	0.072917
C62	C	0.802355	0.376136	0.406250
C63	C	1.135688	0.709469	0.739583
C64	C	0.530337	0.020348	-0.000101
C65	C	0.863670	0.353681	0.333232
C66	C	1.197003	0.687015	0.666566
C67	C	0.313970	0.064257	-0.000076
C68	C	0.647303	0.397591	0.333257
C69	C	0.980637	0.730924	0.666591
C70	C	0.668830	0.067893	-0.000057
C71	C	1.002164	0.401226	0.333277
C72	C	1.335497	0.734560	0.666610
C73	C	1.068453	-0.414472	-0.000080
C74	C	1.401787	-0.081139	0.333253
C75	C	1.735120	0.252195	0.666586
C76	C	1.064889	-0.616147	-0.000093
C77	C	1.398223	-0.282813	0.333241
C78	C	1.731556	0.050520	0.666574
O79	O	1.129568	-0.647129	-0.000134
O80	O	1.462901	-0.313796	0.333199
O81	O	1.796234	0.019538	0.666533
N82	N	0.987848	-0.635596	-0.000089
N83	N	1.321182	-0.302262	0.333244
N84	N	1.654515	0.031071	0.666577
C85	C	0.911693	-0.604623	-0.000088
C86	C	1.245026	-0.271289	0.333245
C87	C	1.578359	0.062044	0.666578
O88	O	0.846083	-0.625793	-0.000095
O89	O	1.179416	-0.292460	0.333239
O90	O	1.512749	0.040874	0.666572
C91	C	0.915258	-0.402949	-0.000082
C92	C	1.248591	-0.069616	0.333251
C93	C	1.581924	0.263718	0.666584
C94	C	0.992304	-0.383503	-0.000077
C95	C	1.325637	-0.050170	0.333256
C96	C	1.658970	0.283164	0.666590
C97	C	1.145493	-0.395025	-0.000076
C98	C	1.478827	-0.061692	0.333257
C99	C	1.812160	0.271642	0.666591
C100	C	1.146384	-0.344609	-0.000068
C101	C	1.479717	-0.011276	0.333265
C102	C	1.813050	0.322057	0.666599
C103	C	1.070234	-0.313640	-0.000065
C104	C	1.403567	0.019693	0.333269
C105	C	1.736901	0.353026	0.666602
C106	C	0.993194	-0.333087	-0.000069
C107	C	1.326527	0.000246	0.333264
C108	C	1.659861	0.333580	0.666598
C109	C	0.839103	-0.371977	-0.000088
C110	C	1.172436	-0.038644	0.333245
C111	C	1.505770	0.294690	0.666579
C112	C	0.840001	-0.321556	-0.000089
C113	C	1.173334	0.011777	0.333245
C114	C	1.506668	0.345111	0.666578
C115	C	0.917047	-0.302110	-0.000083
C116	C	1.250380	0.031224	0.333250
C117	C	1.583714	0.364557	0.666583
C118	C	0.917934	-0.251702	-0.000058
C119	C	1.251268	0.081631	0.333276
C120	C	1.584601	0.414964	0.666609
N121	N	0.994976	-0.232253	-0.000061
N122	N	1.328309	0.101080	0.333272
N123	N	1.661642	0.434413	0.666605
C124	C	1.071125	-0.263222	-0.000065
C125	C	1.404459	0.070111	0.333269
C126	C	1.737792	0.403444	0.666602
C127	C	0.909826	-0.710505	-0.000090
C128	C	1.243160	-0.377171	0.333244
C129	C	1.576493	-0.043838	0.666577
C130	C	0.908935	-0.760923	-0.000090
C131	C	1.242268	-0.427590	0.333244
C132	C	1.575602	-0.094256	0.666577
C133	C	1.062132	-0.772443	-0.000096
C134	C	1.395466	-0.439110	0.333238
C135	C	1.728799	-0.105777	0.666571
C136	C	1.063023	-0.722024	-0.000089
C137	C	1.396356	-0.388691	0.333244
C138	C	1.729689	-0.055357	0.666577
C139	C	0.986868	-0.691056	-0.000093
C140	C	1.320201	-0.357722	0.333240
C141	C	1.653534	-0.024389	0.666573
C142	C	1.072989	-0.157345	-0.000047
C143	C	1.406322	0.175988	0.333286
C144	C	1.739656	0.509321	0.666619
C145	C	1.073872	-0.106925	-0.000036
C146	C	1.407206	0.226409	0.333298
C147	C	1.740539	0.559742	0.666631
C148	C	0.920676	-0.095409	-0.000034
C149	C	1.254009	0.237925	0.333299
C150	C	1.587342	0.571258	0.666632
C151	C	0.919792	-0.145825	-0.000041
C152	C	1.253125	0.187508	0.333292
C153	C	1.586458	0.520842	0.666625
C154	C	0.995955	-0.176792	-0.000051
C155	C	1.329289	0.156541	0.333283
C156	C	1.662622	0.489874	0.666616
O157	O	0.853291	-0.220691	-0.000026
O158	O	1.186624	0.112642	0.333307
O159	O	1.519957	0.445975	0.666640
O160	O	1.136726	-0.242043	-0.000078
O161	O	1.470059	0.091291	0.333255
O162	O	1.803392	0.424624	0.666589
C163	C	1.067563	-0.464888	-0.000088
C164	C	1.400897	-0.131554	0.333245
C165	C	1.734230	0.201779	0.666578
C166	C	0.990523	-0.484334	-0.000093
C167	C	1.323857	-0.151001	0.333240
C168	C	1.657190	0.182332	0.666574
C169	C	0.914374	-0.453365	-0.000089
C170	C	1.247707	-0.120032	0.333244
C171	C	1.581040	0.213301	0.666577
C172	C	0.989632	-0.534752	-0.000093
C173	C	1.322965	-0.201419	0.333241
C174	C	1.656299	0.131914	0.666574
C175	C	1.065782	-0.565721	-0.000096
C176	C	1.399115	-0.232388	0.333237
C177	C	1.732448	0.100945	0.666570
C178	C	1.142823	-0.546272	-0.000100
C179	C	1.476156	-0.212939	0.333234
C180	C	1.809490	0.120394	0.666567
C181	C	1.143713	-0.495857	-0.000092
C182	C	1.477046	-0.162523	0.333241
C183	C	1.810380	0.170810	0.666575
C184	C	0.837332	-0.472814	-0.000086
C185	C	1.170666	-0.139481	0.333248
C186	C	1.503999	0.193852	0.666581
C187	C	0.836449	-0.523231	-0.000093
C188	C	1.169782	-0.189897	0.333241
C189	C	1.503115	0.143436	0.666574
C190	C	0.912598	-0.554200	-0.000096
C191	C	1.245932	-0.220866	0.333237
C192	C	1.579265	0.112467	0.666570
C193	C	1.145023	0.062536	-0.000066
C194	C	1.478356	0.395869	0.333267
C195	C	1.811689	0.729203	0.666600
C196	C	1.238258	0.063483	-0.000076
C197	C	1.571592	0.396816	0.333257
C198	C	1.904925	0.730149	0.666590
N199	N	0.991378	0.066093	0.230619
N200	N	1.324711	0.399426	0.563953
N201	N	1.658044	0.732759	0.897286
C202	C	0.984124	0.154449	-0.000080
C203	C	1.317458	0.487783	0.333253
C204	C	1.650791	0.821116	0.666587
C205	C	0.985085	0.208108	-0.000093
C206	C	1.318418	0.541441	0.333240
C207	C	1.651751	0.874775	0.666574
N208	N	0.991436	0.066056	-0.230737
N209	N	1.324770	0.399390	0.102596
N210	N	1.658103	0.732723	0.435930
C211	C	0.931291	0.100396	0.470297
C212	C	1.264624	0.433729	0.803630
C213	C	1.597957	0.767063	1.136964
C214	C	1.007070	0.109772	0.529626
C215	C	1.340404	0.443105	0.862959
C216	C	1.673737	0.776439	1.196293
C217	C	0.991399	0.066080	0.412226
C218	C	1.324733	0.399414	0.745560
C219	C	1.658066	0.732747	1.078893
C220	C	0.915640	0.056715	0.529639
C221	C	1.248973	0.390049	0.862972
C222	C	1.582307	0.723382	1.196306
C223	C	0.991413	0.066070	0.587650
C224	C	1.324747	0.399403	0.920984
C225	C	1.658080	0.732737	1.254317
C226	C	1.067217	0.075478	0.470249
C227	C	1.400550	0.408811	0.803582
C228	C	1.733884	0.742145	1.136915
C229	C	0.975737	0.022403	0.470257
C230	C	1.309071	0.355736	0.803590
C231	C	1.642404	0.689069	1.136923
C232	C	1.051572	0.031760	0.529559
C233	C	1.384905	0.365093	0.862892
C234	C	1.718239	0.698427	1.196226
C235	C	0.991390	0.066088	0.311169
C236	C	1.324723	0.399421	0.644502
C237	C	1.658057	0.732754	0.977836
C238	C	0.991431	0.066062	0.688706
C239	C	1.324765	0.399396	1.022039
C240	C	1.658098	0.732729	1.355372
H241	H	0.418614	0.150430	-0.000152
H242	H	0.751947	0.483763	0.333181
H243	H	1.085280	0.817096	0.666514
F244	F	0.837791	-0.166522	-0.000031
F245	F	1.171125	0.166812	0.333302
F246	F	1.504458	0.500145	0.666636
F247	F	1.154051	-0.190296	-0.000058
F248	F	1.487384	0.143037	0.333276
F249	F	1.820717	0.476370	0.666609
F250	F	0.839636	-0.062441	-0.000030
F251	F	1.172969	0.270893	0.333303
F252	F	1.506303	0.604226	0.666636
F253	F	1.143177	-0.805411	-0.000101
F254	F	1.476510	-0.472078	0.333232
F255	F	1.809843	-0.138745	0.666566
F256	F	0.539718	0.115103	-0.153753
F257	F	0.873051	0.448436	0.179581
F258	F	1.206384	0.781770	0.512914
H259	H	0.846196	-0.776751	-0.000079
H260	H	1.179530	-0.443418	0.333255
H261	H	1.512863	-0.110084	0.666588
H262	H	1.206452	-0.480029	-0.000088
H263	H	1.539785	-0.146695	0.333246
H264	H	1.873119	0.186638	0.666579
H265	H	1.131304	0.083439	0.444271
H266	H	1.464638	0.416772	0.777604
H267	H	1.797971	0.750105	1.110938
F268	F	0.828766	-0.677551	-0.000094
F269	F	1.162099	-0.344218	0.333239
F270	F	1.495433	-0.010884	0.666573
F271	F	0.758944	-0.288599	-0.000095
F272	F	1.092277	0.044734	0.333238
F273	F	1.425610	0.378067	0.666572
F274	F	0.443300	0.017071	-0.153882
F275	F	0.776634	0.350405	0.179452
F276	F	1.109967	0.683738	0.512785
F277	F	1.155879	-0.086232	-0.000030
F278	F	1.489212	0.247101	0.333303
F279	F	1.822546	0.580435	0.666636
H280	H	0.564020	-0.018326	-0.000130
H281	H	0.897353	0.315007	0.333203
H282	H	1.230686	0.648341	0.666536
H283	H	0.449153	0.023130	0.134643
H284	H	0.782486	0.356463	0.467977
H285	H	1.115820	0.689797	0.801310
H286	H	1.125760	-0.706195	-0.000086
H287	H	1.459094	-0.372861	0.333248
H288	H	1.792427	-0.039528	0.666581
F289	F	1.118091	-0.006179	0.563361
F290	F	1.451424	0.327155	0.896695
F291	F	1.784757	0.660488	1.230028
F292	F	1.223867	-0.579241	-0.000099
F293	F	1.557200	-0.245907	0.333235
F294	F	1.890534	0.087426	0.666568
F295	F	0.864916	0.138356	0.436282
F296	F	1.198250	0.471689	0.769615
F297	F	1.531583	0.805023	1.102948
F298	F	0.539642	0.115123	0.153569
F299	F	0.872976	0.448457	0.486903
F300	F	1.206309	0.781790	0.820236
F301	F	0.958375	-0.025856	0.436142
F302	F	1.291708	0.307477	0.769475
F303	F	1.625042	0.640810	1.102809
F304	F	0.831892	0.046367	0.563739
F305	F	1.165225	0.379700	0.897072
F306	F	1.498558	0.713034	1.230406
F307	F	1.024403	0.158045	0.563712
F308	F	1.357737	0.491378	0.897046
F309	F	1.691070	0.824712	1.230379
F310	F	1.228387	-0.323920	-0.000082
F311	F	1.561721	0.009413	0.333252
F312	F	1.895054	0.342747	0.666585
F313	F	0.756279	-0.439861	-0.000085
F314	F	1.089612	-0.106527	0.333248
F315	F	1.422945	0.226806	0.666582
H316	H	1.207507	-0.420236	-0.000082
H317	H	1.540841	-0.086902	0.333251
H318	H	1.874174	0.246431	0.666585
F319	F	0.757098	-0.392662	-0.000098
F320	F	1.090432	-0.059328	0.333236
F321	F	1.423765	0.274005	0.666569
H322	H	0.773704	-0.539058	-0.000089
H323	H	1.107037	-0.205725	0.333244
H324	H	1.440370	0.127608	0.666577
