data_functionalizedCrystal
_audit_creation_method	'MofGen! by Chris Wilmer'
_symmetry_space_group_name_H-M	'P1'
_symmetry_Int_Tables_number	1
_symmetry_cell_setting	triclinic
loop_
_symmetry_equiv_pos_as_xyz
  x,y,z
_cell_length_a	14.909351
_cell_length_b	12.594517
_cell_length_c	14.908308
_cell_angle_alpha	93.276844
_cell_angle_beta	96.746848
_cell_angle_gamma	86.724328
loop_
_atom_site_label
_atom_site_type_symbol
_atom_site_fract_x
_atom_site_fract_y
_atom_site_fract_z
Zn1	Zn	-0.389857	1.617479	-0.532647
Zn2	Zn	-0.532490	1.636785	-0.390034
Zn3	Zn	-0.381158	1.449204	-0.381300
Zn4	Zn	-0.541160	1.449160	-0.541339
O5	O	-0.461166	1.538157	-0.461330
O6	O	-0.408789	1.768985	-0.513746
O7	O	-0.505146	1.620000	-0.262214
O8	O	-0.255659	1.463465	-0.394084
O9	O	-0.513581	1.783169	-0.408969
O10	O	-0.262049	1.587096	-0.505278
O11	O	-0.393964	1.482185	-0.255797
O12	O	-0.402371	1.300253	-0.402512
O13	O	-0.528358	1.463390	-0.666847
O14	O	-0.519923	1.300220	-0.520093
O15	O	-0.417196	1.587053	-0.660461
O16	O	-0.660293	1.619957	-0.417398
O17	O	-0.666663	1.482109	-0.528561
C18	C	-0.461145	1.261617	-0.461299
C19	C	-0.461159	1.143311	-0.461308
C20	C	-0.397163	1.003268	-0.397490
C21	C	-0.379879	1.067411	-0.478813
C22	C	-0.478403	1.080737	-0.379992
C23	C	-0.443873	0.996661	-0.542740
C24	C	-0.542432	1.009987	-0.443865
C25	C	-0.525183	1.074096	-0.525247
C26	C	-0.696319	1.553151	-0.474890
C27	C	-0.796920	1.559660	-0.480721
C28	C	-0.941970	1.633130	-0.546868
C29	C	-0.847446	1.627021	-0.541393
C30	C	-0.840924	1.498407	-0.425518
C31	C	-0.935448	1.504517	-0.430992
C32	C	-0.985967	1.571879	-0.491670
C33	C	-1.080493	1.577983	-0.497148
C34	C	-1.073969	1.449376	-0.381268
C35	C	-0.979445	1.443266	-0.375794
C36	C	-0.225096	1.523132	-0.447737
C37	C	-0.124497	1.516730	-0.441944
C38	C	-0.474715	1.523063	-0.697414
C39	C	-0.480488	1.516631	-0.798020
C40	C	-0.461188	1.815777	-0.461362
C41	C	-0.461198	1.934082	-0.461376
C42	C	-0.375564	1.633311	-0.980418
C43	C	-0.380985	1.627270	-1.074945
C44	C	-0.496748	1.498505	-1.081603
C45	C	-0.491326	1.504545	-0.987076
C46	C	-0.430733	1.571952	-0.936486
C47	C	-0.425317	1.577997	-0.841958
C48	C	-0.541074	1.449226	-0.848617
C49	C	-0.546496	1.443186	-0.943144
C50	C	-0.447605	1.553249	-0.226160
C51	C	-0.441576	1.559871	-0.125541
H52	H	-0.311162	1.092835	-0.493612
C53	C	-0.601762	1.381727	-0.800291
H54	H	-0.589854	1.394973	-0.736748
H55	H	-0.663462	1.400187	-0.819290
H56	H	-0.589397	1.308374	-0.815010
H57	H	-0.492972	1.117449	-0.311195
C58	C	-0.635227	0.975571	-0.423853
H59	H	-0.647374	1.004479	-0.365998
H60	H	-0.680818	1.000924	-0.468619
H61	H	-0.634726	0.900066	-0.424572
C62	C	-1.122364	1.381993	-0.320548
H63	H	-1.078735	1.340996	-0.283634
H64	H	-1.156967	1.427642	-0.283278
H65	H	-1.161236	1.335751	-0.357280
H66	H	-1.121625	1.632824	-0.546563
H67	H	-0.429224	0.960075	-0.611553
C68	C	-0.323990	0.961233	-0.324634
H69	H	-0.266293	0.980716	-0.337206
H70	H	-0.335657	0.991178	-0.266960
H71	H	-0.324866	0.885858	-0.324807
H72	H	-0.595827	1.388304	-0.984347
H73	H	-0.336058	1.677233	-1.110710
H74	H	-0.375980	1.632884	-0.800769
C75	C	-0.799047	1.694392	-0.602110
H76	H	-0.735516	1.681114	-0.590157
H77	H	-0.818018	1.675873	-0.663809
H78	H	-0.813739	1.767766	-0.589808
C79	C	-0.308923	1.707458	-0.924763
H80	H	-0.313601	1.702272	-0.862175
H81	H	-0.248998	1.687027	-0.936748
H82	H	-0.323073	1.778829	-0.941025
H83	H	-0.546080	1.443625	-1.122809
C84	C	-0.598315	1.115851	-0.598266
H85	H	-0.585928	1.086759	-0.655992
H86	H	-0.655889	1.095245	-0.586342
H87	H	-0.598230	1.191321	-0.597522
H88	H	-0.938302	1.388424	-0.326389
H89	H	-0.799779	1.443571	-0.376109
C90	C	-0.997544	1.707223	-0.613608
H91	H	-0.957801	1.742831	-0.645697
H92	H	-1.036695	1.666335	-0.655146
H93	H	-1.032409	1.758232	-0.581149
