data_functionalizedCrystal
_audit_creation_method	'MofGen! by Chris Wilmer'
_symmetry_space_group_name_H-M	'P1'
_symmetry_Int_Tables_number	1
_symmetry_cell_setting	triclinic
loop_
_symmetry_equiv_pos_as_xyz
  x,y,z
_cell_length_a	12.827893
_cell_length_b	29.839133
_cell_length_c	12.827885
_cell_angle_alpha	90.026524
_cell_angle_beta	90.019272
_cell_angle_gamma	90.029572
loop_
_atom_site_label
_atom_site_type_symbol
_atom_site_fract_x
_atom_site_fract_y
_atom_site_fract_z
Zn1	Zn	1.597566	-0.178832	0.590872
Zn2	Zn	1.597417	-0.253969	0.416143
Zn3	Zn	1.422808	-0.178854	0.416146
Zn4	Zn	1.422750	-0.253936	0.590843
O5	O	1.510135	-0.216398	0.503501
O6	O	1.743783	-0.188804	0.567705
O7	O	1.574217	-0.244028	0.269907
O8	O	1.446077	-0.115984	0.439338
O9	O	1.743673	-0.244007	0.439332
O10	O	1.574471	-0.115968	0.567708
O11	O	1.445932	-0.188841	0.269909
O12	O	1.276564	-0.188809	0.439309
O13	O	1.445978	-0.243950	0.737083
O14	O	1.276521	-0.243971	0.567658
O15	O	1.574415	-0.188771	0.737104
O16	O	1.574160	-0.316832	0.439303
O17	O	1.445833	-0.316807	0.567654
C18	C	1.238625	-0.216389	0.503481
C19	C	1.122472	-0.216396	0.503497
C20	C	0.950637	-0.189072	0.440117
C21	C	1.070687	-0.189064	0.440099
C22	C	1.510003	-0.333120	0.503498
C23	C	1.510041	-0.383055	0.503531
C24	C	1.577029	-0.739598	0.570420
C25	C	1.576930	-0.551925	0.570419
O26	O	1.633749	-0.527624	0.627275
N27	N	1.510124	-0.528500	0.503529
C28	C	1.443343	-0.551995	0.436630
O29	O	1.386526	-0.527764	0.379728
C30	C	1.443448	-0.739667	0.436627
C31	C	1.510251	-0.763091	0.503528
C32	C	1.643827	-0.763022	0.637316
C33	C	1.643847	-0.809937	0.637319
C34	C	1.577069	-0.833429	0.570427
C35	C	1.510271	-0.810006	0.503532
C36	C	1.376673	-0.763162	0.369723
C37	C	1.376707	-0.810083	0.369726
C38	C	1.443510	-0.833506	0.436628
C39	C	1.443513	-0.880414	0.436644
N40	N	1.510318	-0.903839	0.503534
C41	C	1.577096	-0.880347	0.570426
C42	C	1.443291	-0.453465	0.436638
C43	C	1.443263	-0.406547	0.436640
C44	C	1.576852	-0.406480	0.570428
C45	C	1.576873	-0.453399	0.570430
C46	C	1.510097	-0.476890	0.503528
C47	C	1.577133	-0.978873	0.570429
C48	C	1.577144	-1.025793	0.570430
C49	C	1.443560	-1.025855	0.436638
C50	C	1.443545	-0.978940	0.436641
C51	C	1.510339	-0.955450	0.503540
O52	O	1.386731	-0.904744	0.379810
O53	O	1.633921	-0.904586	0.627302
C54	C	1.577009	-0.692683	0.570416
C55	C	1.510211	-0.669260	0.503521
C56	C	1.443433	-0.692752	0.436629
C57	C	1.510183	-0.622342	0.503523
C58	C	1.576961	-0.598850	0.570415
C59	C	1.643767	-0.622275	0.637305
C60	C	1.643787	-0.669191	0.637308
C61	C	1.376627	-0.669326	0.369739
C62	C	1.376612	-0.622411	0.369742
C63	C	1.443389	-0.598919	0.436634
C64	C	1.782705	-0.216407	0.503521
C65	C	1.898859	-0.216410	0.503530
C66	C	1.510206	-0.216354	0.776071
C67	C	1.510237	-0.216336	0.892224
C68	C	1.510297	-0.099219	0.503527
C69	C	1.510366	-0.049285	0.503538
C70	C	1.510125	-0.216408	0.231991
C71	C	1.510297	-0.216300	0.115838
C72	C	1.573798	-0.189027	0.944020
C73	C	1.573831	-0.189007	1.064070
H74	H	0.906089	-0.165670	0.385844
H75	H	1.115215	-0.165660	0.385805
H76	H	1.455880	-0.239683	1.071302
O77	O	1.708782	-0.691871	0.702326
C78	C	1.767690	-0.661067	0.761376
H79	H	1.771306	-0.627632	0.718566
H80	H	1.850030	-0.674590	0.772604
H81	H	1.729371	-0.656072	0.840706
H82	H	1.077951	-0.239804	0.557787
O83	O	0.952108	-0.244265	0.568338
C84	C	1.015276	-0.218692	0.635883
H85	H	1.031530	-0.184620	0.599140
H86	H	1.092064	-0.236962	0.649739
H87	H	0.973315	-0.213815	0.713388
H88	H	1.631266	-0.472467	0.624912
H89	H	1.631541	-1.044862	0.624915
H90	H	1.628188	-0.165659	0.899487
H91	H	1.628252	-0.165628	1.108613
H92	H	1.631525	-0.959753	0.624903
H93	H	1.455837	-0.239699	0.936757
O94	O	1.378499	-0.956231	0.371720
C95	C	1.274337	-0.967712	0.394488
H96	H	1.272161	-1.001769	0.434660
H97	H	1.227517	-0.969346	0.319029
H98	H	1.239104	-0.941304	0.448183
O99	O	1.708854	-0.832617	0.702325
C100	C	1.767770	-0.801814	0.761368
H101	H	1.771369	-0.768377	0.718564
H102	H	1.850116	-0.815333	0.772573
H103	H	1.729468	-0.796823	0.840708
H104	H	1.389188	-1.044991	0.382179
O105	O	1.708552	-0.740156	0.702355
C106	C	1.648999	-0.713035	0.769820
H107	H	1.569828	-0.706032	0.732885
H108	H	1.691545	-0.680029	0.783886
H109	H	1.637468	-0.731113	0.847241
O110	O	1.641691	-0.383586	0.635306
C111	C	1.627314	-0.337154	0.620972
H112	H	1.593120	-0.330778	0.540296
H113	H	1.705572	-0.319292	0.628117
H114	H	1.571625	-0.323844	0.682910
H115	H	1.388855	-0.387479	0.382174
H116	H	1.388910	-0.472587	0.382155
H117	H	1.322277	-0.744097	0.315245
O118	O	1.311737	-0.832832	0.304704
C119	C	1.252796	-0.802094	0.245644
H120	H	1.249140	-0.768642	0.288445
H121	H	1.170472	-0.815675	0.234416
H122	H	1.291113	-0.797108	0.166314
H123	H	1.698136	-0.603140	0.691775
H124	H	1.322249	-0.688449	0.315265
H125	H	1.322204	-0.603343	0.315265
