data_functionalizedCrystal
_audit_creation_method	'MofGen! by Chris Wilmer'
_symmetry_space_group_name_H-M	'P1'
_symmetry_Int_Tables_number	1
_symmetry_cell_setting	triclinic
loop_
_symmetry_equiv_pos_as_xyz
  x,y,z
_cell_length_a	12.811445
_cell_length_b	12.837942
_cell_length_c	14.586319
_cell_angle_alpha	89.996741
_cell_angle_beta	84.565073
_cell_angle_gamma	89.412982
loop_
_atom_site_label
_atom_site_type_symbol
_atom_site_fract_x
_atom_site_fract_y
_atom_site_fract_z
O1	O	1.406644	0.139715	-0.193184
O2	O	1.102579	0.154897	-0.167907
O3	O	1.247870	-0.003626	-0.179979
O4	O	1.261354	0.298238	-0.181111
O5	O	1.247858	-0.003629	-0.027497
O6	O	1.102568	0.154894	-0.015425
O7	O	1.406633	0.139712	-0.040702
Cu8	Cu	1.254599	0.147303	-0.014141
Cu9	Cu	1.254613	0.147306	-0.194468
O10	O	1.261343	0.298235	-0.028630
C11	C	1.063384	0.154044	-0.088408
C12	C	0.946611	0.151492	-0.078700
C13	C	0.727192	0.146721	-0.226712
C14	C	0.617474	0.144324	-0.217594
C15	C	0.617454	0.144310	-0.051350
C16	C	0.727172	0.146706	-0.060467
C17	C	0.782038	0.147910	-0.148151
C18	C	0.891759	0.150299	-0.157267
C19	C	0.891736	0.150293	0.008977
C20	C	0.782018	0.147896	0.018094
C21	C	1.243309	-0.042268	-0.103360
C22	C	1.229722	-0.157404	-0.102232
C23	C	1.393052	-0.397654	-0.115829
C24	C	1.380292	-0.505835	-0.114770
C25	C	1.191442	-0.481949	-0.099061
C26	C	1.204202	-0.373768	-0.100120
C27	C	1.305011	-0.331625	-0.108503
C28	C	1.317770	-0.223442	-0.109556
C29	C	1.128921	-0.199558	-0.093854
C30	C	1.116161	-0.307739	-0.092794
C31	C	1.445828	0.140566	-0.120203
C32	C	1.562601	0.143117	-0.129916
C33	C	1.265904	0.336877	-0.105251
C34	C	1.279490	0.452013	-0.106385
N35	N	1.254598	0.147301	0.112691
N36	N	1.254622	0.147300	-0.321301
C37	C	1.318958	0.077130	0.342350
C38	C	1.318961	0.077128	0.438331
C39	C	1.190255	0.217474	0.449035
C40	C	1.190247	0.217471	0.353056
C41	C	1.254605	0.147300	0.299715
C42	C	1.254615	0.147301	0.491675
C43	C	1.254618	0.147299	0.595742
C44	C	1.254601	0.147301	0.195642
H45	H	0.936429	0.151279	-0.228664
H46	H	0.936403	0.151260	0.072947
Cl47	Cl	1.444499	-0.170462	-0.120088
Cl48	Cl	0.713034	0.146387	0.128319
H49	H	1.451985	-0.559593	-0.120738
Cl50	Cl	0.796171	0.148219	-0.336939
Cl51	Cl	0.548529	0.142832	-0.316361
H52	H	1.475134	-0.363341	-0.122646
H53	H	0.572763	0.143339	0.020038
H54	H	1.034085	-0.342067	-0.085973
Cl55	Cl	1.064722	-0.534949	-0.088551
Cl56	Cl	1.018234	-0.116542	-0.084632
H57	H	1.371360	0.019992	0.298922
H58	H	1.137838	0.274612	0.318341
H59	H	1.137857	0.274607	0.492474
Cl60	Cl	1.399863	-0.011091	0.491926
