data_functionalizedCrystal
_audit_creation_method	'MofGen! by Chris Wilmer'
_symmetry_space_group_name_H-M	'P1'
_symmetry_Int_Tables_number	1
_symmetry_cell_setting	triclinic
loop_
_symmetry_equiv_pos_as_xyz
  x,y,z
_cell_length_a	27.440280
_cell_length_b	23.196402
_cell_length_c	23.196402
_cell_angle_alpha	60.000138
_cell_angle_beta	90.003526
_cell_angle_gamma	59.998982
loop_
_atom_site_label
_atom_site_type_symbol
_atom_site_fract_x
_atom_site_fract_y
_atom_site_fract_z
Zr1	Zr	0.469515	0.630936	-0.075559
O2	O	0.391698	0.751216	-0.167618
O3	O	0.493368	0.510666	-0.047341
O4	O	0.493370	0.630936	-0.167608
O5	O	0.391698	0.630942	0.047521
O6	O	0.573572	0.630925	-0.167596
O7	O	0.391696	0.630945	-0.047351
O8	O	0.573570	0.415784	0.047539
O9	O	0.391700	0.846083	-0.167614
O10	O	0.563398	0.560123	-0.035294
O11	O	0.503545	0.560128	0.035500
O12	O	0.503546	0.701731	-0.106099
O13	O	0.443693	0.701736	-0.035305
Zr14	Zr	0.597431	0.630912	0.075771
Zr15	Zr	0.597429	0.630918	-0.075540
Zr16	Zr	0.469517	0.630930	0.075752
Zr17	Zr	0.469519	0.782238	-0.075552
Zr18	Zr	0.597428	0.479609	0.075765
O19	O	0.573578	0.751182	0.047554
O20	O	0.573575	0.751190	-0.167591
O21	O	0.391700	0.751207	0.047527
O22	O	0.675249	0.510632	0.167830
O23	O	0.675246	0.510641	-0.047314
O24	O	0.493371	0.510657	0.167803
O25	O	0.675249	0.630906	-0.047309
O26	O	0.573577	0.630911	0.167820
O27	O	0.493374	0.630922	0.167808
O28	O	0.675250	0.630902	0.047563
O29	O	0.493375	0.846069	-0.167599
O30	O	0.573572	0.415779	0.167811
O31	O	0.675246	0.415765	0.167826
O32	O	0.675245	0.415770	0.047554
O33	O	0.391701	0.846078	-0.047342
O34	O	0.493376	0.846064	-0.047327
O35	O	0.563400	0.560117	0.106311
O36	O	0.623254	0.560112	0.035518
O37	O	0.563402	0.701720	-0.035288
O38	O	0.503548	0.701725	0.035506
C39	C	0.533469	0.441668	0.000098
C40	C	0.533467	0.377436	0.000095
C41	C	0.373472	0.630946	0.000082
C42	C	0.319169	0.630954	0.000074
C43	C	0.564706	0.347263	-0.036861
C44	C	0.564712	0.286902	-0.036855
C45	C	0.533467	0.256728	0.000097
C46	C	0.502227	0.286905	0.037061
C47	C	0.502227	0.347259	0.037060
C48	C	0.481134	0.194706	-0.005185
C49	C	0.481132	0.134356	-0.005189
C50	C	0.533468	0.070573	0.000104
C51	C	0.585805	0.067154	0.005388
C52	C	0.585805	0.127508	0.005387
C53	C	0.533464	0.191283	0.000103
C54	C	0.564716	-0.025052	-0.036847
C55	C	0.564723	-0.085417	-0.036837
C56	C	0.502233	-0.085407	0.037075
C57	C	0.502231	-0.025048	0.037069
C58	C	0.533471	0.005129	0.000104
C59	C	0.013714	0.556992	0.037085
C60	C	-0.037305	0.556988	0.037091
O61	O	-0.037123	0.494124	0.068546
N62	N	-0.094064	0.630905	0.000131
C63	C	-0.099804	0.704832	-0.036832
O64	O	-0.152766	0.767703	-0.068268
C65	C	-0.048786	0.704835	-0.036834
C66	C	0.007973	0.630913	0.000123
C67	C	0.070469	0.483077	0.074040
C68	C	0.121484	0.483081	0.074032
C69	C	0.115743	0.557002	0.037070
C70	C	0.058987	0.630918	0.000116
C71	C	-0.054526	0.778761	-0.073792
C72	C	-0.003502	0.778758	-0.073790
C73	C	0.053256	0.704836	-0.036833
C74	C	0.104261	0.704844	-0.036854
N75	N	0.161020	0.630926	0.000107
C76	C	0.166761	0.557006	0.037069
C77	C	-0.206942	0.704818	-0.036824
C78	C	-0.257960	0.704815	-0.036827
C79	C	-0.195457	0.556972	0.037097
C80	C	-0.144439	0.556975	0.037096
C81	C	-0.150183	0.630901	0.000136
C82	C	0.273894	0.557021	0.037050
C83	C	0.324910	0.557033	0.037036
C84	C	0.262404	0.704876	-0.036885
C85	C	0.211391	0.704865	-0.036875
C86	C	0.217140	0.630931	0.000097
O87	O	0.104125	0.767676	-0.068289
O88	O	0.219725	0.494144	0.068507
C89	C	0.693474	0.630902	0.000130
C90	C	0.747777	0.630894	0.000138
C91	C	0.533471	0.630932	-0.189161
C92	C	0.533470	0.630934	-0.253396
C93	C	0.533478	0.820180	0.000114
C94	C	0.533479	0.884412	0.000117
C95	C	0.502240	0.704831	-0.753181
C96	C	0.502235	0.704835	-0.692829
C97	C	0.533478	0.630918	-0.625687
C98	C	0.564715	0.556991	-0.618900
C99	C	0.564715	0.556989	-0.679252
C100	C	0.585812	0.574286	-0.501749
C101	C	0.585814	0.574292	-0.441399
C102	C	0.533479	0.630923	-0.439538
C103	C	0.481142	0.687563	-0.498042
C104	C	0.481142	0.687560	-0.558394
C105	C	0.533482	0.630913	-0.560241
C106	C	0.502235	0.704851	-0.380889
C107	C	0.502228	0.704852	-0.320534
C108	C	0.564714	0.557006	-0.246605
C109	C	0.564715	0.557006	-0.306960
C110	C	0.533476	0.630931	-0.374100
C111	C	0.533476	0.630916	0.189373
C112	C	0.533476	0.630913	0.253608
C113	C	0.693470	0.441645	0.000122
C114	C	0.747771	0.377406	0.000127
C115	C	0.533471	0.441660	0.189365
C116	C	0.533471	0.377425	0.253598
C117	C	0.693472	0.441638	0.189389
C118	C	0.747775	0.377396	0.253629
C119	C	0.373474	0.820210	-0.189176
C120	C	0.319172	0.884452	-0.253417
C121	C	0.373476	0.820202	0.000091
C122	C	0.319175	0.884442	0.000085
C123	C	0.533475	0.820188	-0.189153
C124	C	0.533476	0.884422	-0.253385
C125	C	0.742028	0.347244	-0.036840
C126	C	0.793045	0.286893	-0.036849
C127	C	0.849805	0.256700	0.000113
C128	C	0.855547	0.286868	0.037081
C129	C	0.804531	0.347222	0.037086
C130	C	0.564714	0.347254	0.320731
C131	C	0.564711	0.286908	0.381090
C132	C	0.533468	0.256729	0.374314
C133	C	0.502221	0.286906	0.307174
C134	C	0.502220	0.347256	0.246816
C135	C	0.804524	0.347224	0.246844
C136	C	0.855552	0.286870	0.307199
C137	C	0.849829	0.256685	0.374339
C138	C	0.793073	0.286862	0.381123
C139	C	0.742047	0.347219	0.320768
C140	C	0.262422	0.914631	-0.246632
C141	C	0.211395	0.975004	-0.306987
C142	C	0.217118	1.005192	-0.374127
C143	C	0.273873	0.975011	-0.380911
C144	C	0.324899	0.914643	-0.320556
C145	C	0.324918	0.914610	0.037046
C146	C	0.273901	0.974978	0.037038
C147	C	0.217141	1.005172	0.000074
C148	C	0.211399	0.975002	-0.036891
C149	C	0.262416	0.914639	-0.036887
C150	C	0.564725	0.914582	-0.246587
C151	C	0.564737	0.974929	-0.306934
C152	C	0.533496	1.005120	-0.374080
C153	C	0.502246	0.974954	-0.380877
C154	C	0.502238	0.914604	-0.320530
H155	H	0.590145	0.371829	-0.066958
N156	N	0.598415	0.477265	-0.546486
H157	H	0.593679	0.488482	-0.509283
H158	H	0.642107	0.444982	-0.540895
H159	H	0.590156	0.371819	0.326261
H160	H	0.278583	0.496817	0.067157
H161	H	0.257731	0.890078	-0.066983
N162	N	0.256225	0.784597	-0.076743
H163	H	0.233692	0.816908	-0.057352
H164	H	0.233699	0.816860	-0.128439
N165	N	0.680813	0.379799	-0.076706
H166	H	0.676031	0.404847	-0.128409
H167	H	0.649398	0.422577	-0.071042
H168	H	0.590151	0.262330	-0.066950
H169	H	0.075154	0.422878	0.104142
H170	H	0.476803	0.765026	-0.807845
N171	N	0.386126	0.477295	0.076904
H172	H	0.408693	0.473996	0.114094
H173	H	0.408635	0.474045	0.042959
N174	N	0.386134	0.882050	0.076916
H175	H	0.382022	0.910332	0.100323
H176	H	0.408663	0.892551	0.042982
N177	N	0.642249	0.123824	0.011085
H178	H	0.675406	0.074263	0.014438
H179	H	0.653888	0.120173	0.054701
N180	N	0.810713	0.379763	0.174438
H181	H	0.833250	0.404802	0.168789
H182	H	0.769763	0.422545	0.137266
H183	H	0.476796	0.765044	-0.435558
N184	N	0.916763	0.254311	0.299879
H185	H	0.939332	0.264812	0.323265
H186	H	0.912595	0.282597	0.248176
N187	N	0.162123	1.070270	0.000087
H188	H	0.137566	1.049268	0.021121
H189	H	0.137606	1.120341	-0.049980
N190	N	0.598435	1.007466	-0.299591
H191	H	0.593706	1.050277	-0.348006
H192	H	0.642126	0.961362	-0.272887
H193	H	0.695841	0.371777	0.326303
H194	H	0.257751	0.890055	-0.191968
N195	N	0.150186	1.007547	-0.299661
H196	H	0.154308	0.979253	-0.247969
H197	H	0.127650	0.997055	-0.323099
N198	N	0.280036	1.007574	-0.453330
H199	H	0.302567	0.961531	-0.458990
H200	H	0.302558	1.032625	-0.458946
N201	N	0.810728	0.379751	0.076959
H202	H	0.833271	0.333694	0.128661
H203	H	0.769779	0.422578	0.071300
H204	H	0.590159	0.262345	0.435753
H205	H	0.476780	0.371813	0.192155
N206	N	0.533472	0.191636	0.439418
H207	H	0.558009	0.177104	0.482972
H208	H	0.551241	0.141593	0.439388
H209	H	0.628424	0.015214	0.009707
N210	N	0.533499	1.070218	-0.439170
H211	H	0.551280	1.049217	-0.468220
H212	H	0.558025	1.084721	-0.424617
N213	N	0.468552	1.007521	-0.453300
H214	H	0.473300	1.050331	-0.490492
H215	H	0.424857	1.032531	-0.458901
H216	H	0.175564	1.054347	-0.423265
N217	N	0.468534	0.007497	0.076929
H218	H	0.424826	0.032542	0.057539
H219	H	0.473320	0.050276	0.071313
N220	N	0.598410	0.007499	-0.076712
H221	H	0.618206	-0.020782	-0.100119
H222	H	0.629819	-0.003003	-0.042775
N223	N	-0.189274	0.477243	0.076964
H224	H	-0.209047	0.473952	0.114155
H225	H	-0.145568	0.430456	0.100335
H226	H	0.476783	0.262325	0.301667
N227	N	-0.319174	0.784545	-0.076697
H228	H	-0.315063	0.831370	-0.100111
H229	H	-0.341700	0.787766	-0.042761
H230	H	0.438509	0.246648	-0.009510
N231	N	0.468531	0.254360	0.076922
H232	H	0.473270	0.211548	0.071314
H233	H	0.424838	0.300458	0.057515
H234	H	0.278588	0.999532	0.067142
H235	H	0.371106	0.890072	-0.326089
N236	N	0.468548	0.784560	-0.700137
H237	H	0.424839	0.816892	-0.726805
H238	H	0.484991	0.816800	-0.726772
N239	N	0.598422	0.882028	-0.174171
H240	H	0.618220	0.910296	-0.179032
H241	H	0.629829	0.821438	-0.147518
H242	H	0.901768	0.262276	0.067174
H243	H	0.891382	0.207538	0.423478
H244	H	0.476788	0.765047	-0.326069
H245	H	0.476793	-0.109974	0.067163
H246	H	-0.008186	0.838959	-0.103879
H247	H	0.590165	-0.109988	-0.066928
N248	N	0.786844	0.254364	-0.076723
H249	H	0.743145	0.282647	-0.100130
H250	H	0.806653	0.193775	-0.042793
N251	N	0.424693	0.138025	-0.010875
H252	H	0.431742	0.087240	0.032279
H253	H	0.413024	0.141738	-0.054518
H254	H	0.165179	0.999596	-0.066986
H255	H	0.891341	0.207555	0.000104
H256	H	0.476788	0.890055	-0.326075
H257	H	0.476787	0.371826	0.067155
H258	H	0.167695	0.422886	0.104123
H259	H	-0.098227	0.496781	0.067195
N260	N	0.786906	0.254301	0.453540
H261	H	0.827845	0.211485	0.490739
H262	H	0.764349	0.229300	0.459131
H263	H	-0.100733	0.838956	-0.103886
N264	N	-0.213141	0.784557	-0.076700
H265	H	-0.256840	0.831377	-0.100113
H266	H	-0.193339	0.787780	-0.113858
H267	H	0.165175	0.765059	-0.066978
H268	H	0.438526	0.733677	-0.496531
N269	N	0.424697	0.748634	-0.621490
H270	H	0.411175	0.805704	-0.639527
H271	H	0.392496	0.741011	-0.607163
N272	N	0.598411	0.477276	-0.174198
H273	H	0.569754	0.473987	-0.147515
H274	H	0.629854	0.474019	-0.147560
N275	N	0.598419	0.477281	-0.299642
H276	H	0.618215	0.430453	-0.247951
H277	H	0.629828	0.474067	-0.323069
H278	H	0.628431	0.528176	-0.393770
H279	H	0.628431	0.528162	-0.503251
H280	H	0.590151	0.496794	-0.673718
