data_functionalizedCrystal
_audit_creation_method	'MofGen! by Chris Wilmer'
_symmetry_space_group_name_H-M	'P1'
_symmetry_Int_Tables_number	1
_symmetry_cell_setting	triclinic
loop_
_symmetry_equiv_pos_as_xyz
  x,y,z
_cell_length_a	16.625548
_cell_length_b	12.594516
_cell_length_c	16.625539
_cell_angle_alpha	90.023327
_cell_angle_beta	90.020568
_cell_angle_gamma	90.017121
loop_
_atom_site_label
_atom_site_type_symbol
_atom_site_fract_x
_atom_site_fract_y
_atom_site_fract_z
Zn1	Zn	1.232716	-0.423710	0.455937
Zn2	Zn	1.732716	0.076290	0.955937
Zn3	Zn	1.232635	-0.601711	0.321116
Zn4	Zn	1.732635	-0.101711	0.821116
Zn5	Zn	1.097878	-0.423750	0.321118
Zn6	Zn	1.597878	0.076250	0.821118
Zn7	Zn	1.097864	-0.601650	0.455906
Zn8	Zn	1.597864	-0.101650	0.955906
O9	O	1.165273	-0.512705	0.388519
O10	O	1.665273	-0.012705	0.888519
O11	O	1.345538	-0.447331	0.438065
O12	O	1.845538	0.052669	0.938065
O13	O	1.214731	-0.578147	0.208284
O14	O	1.714731	-0.078147	0.708284
O15	O	1.115805	-0.274799	0.339016
O16	O	1.615805	0.225201	0.839016
O17	O	1.345478	-0.578108	0.339013
O18	O	1.845478	-0.078108	0.839013
O19	O	1.214870	-0.274769	0.438067
O20	O	1.714870	0.225231	0.938067
O21	O	1.115726	-0.447400	0.208285
O22	O	1.615726	0.052600	0.708285
O23	O	0.985044	-0.447341	0.338985
O24	O	1.485044	0.052659	0.838985
O25	O	1.115780	-0.578003	0.568743
O26	O	1.615780	-0.078003	1.068743
O27	O	0.985033	-0.578043	0.438014
O28	O	1.485033	-0.078043	0.938014
O29	O	1.214856	-0.447271	0.568766
O30	O	1.714856	0.052729	1.068766
O31	O	1.214717	-0.750649	0.338983
O32	O	1.714717	-0.250649	0.838983
O33	O	1.115701	-0.750604	0.438012
O34	O	1.615701	-0.250604	0.938012
C35	C	0.955782	-0.512690	0.388497
C36	C	1.455782	-0.012690	0.888497
C37	C	0.866161	-0.512709	0.388506
C38	C	1.366161	-0.012709	0.888506
C39	C	0.537986	-0.512716	0.388541
C40	C	1.037986	-0.012716	0.888541
C41	C	0.629294	-0.512711	0.388529
C42	C	1.129294	-0.012711	0.888529
C43	C	0.702071	-0.512713	0.388523
C44	C	1.202071	-0.012713	0.888523
C45	C	0.793385	-0.512707	0.388512
C46	C	1.293385	-0.012707	0.888512
C47	C	1.165220	-0.789246	0.388511
C48	C	1.665220	-0.289246	0.888511
C49	C	1.165272	-0.907552	0.388535
C50	C	1.665272	-0.407552	0.888535
C51	C	1.111412	-0.976819	0.442359
C52	C	1.611412	-0.476819	0.942359
C53	C	1.091767	-1.047680	0.368785
C54	C	1.591767	-0.547680	0.868785
C55	C	1.184990	-1.047490	0.462122
C56	C	1.684990	-0.547490	0.962122
C57	C	1.145588	-0.976855	0.314921
C58	C	1.645588	-0.476855	0.814921
C59	C	1.238845	-0.976658	0.408308
C60	C	1.738845	-0.476658	0.908308
C61	C	1.219228	-1.047487	0.334683
C62	C	1.719228	-0.547487	0.834683
C63	C	1.375582	-0.512721	0.388542
C64	C	1.875582	-0.012721	0.888542
C65	C	1.465203	-0.512728	0.388552
C66	C	1.965203	-0.012728	0.888552
C67	C	1.165326	-0.512626	0.598828
C68	C	1.665326	-0.012626	1.098828
C69	C	1.165348	-0.512592	0.688449
C70	C	1.665348	-0.012592	1.188449
C71	C	1.165348	-0.235085	0.388545
C72	C	1.665348	0.264915	0.888545
C73	C	1.165380	-0.116779	0.388556
C74	C	1.665380	0.383221	0.888556
C75	C	1.165267	-0.512708	0.179028
C76	C	1.665267	-0.012708	0.679028
C77	C	1.165401	-0.512442	0.089408
C78	C	1.665401	-0.012442	0.589408
C79	C	1.165385	-0.512473	1.016625
C80	C	1.665385	-0.012473	1.516625
C81	C	1.165373	-0.512510	0.925317
C82	C	1.665373	-0.012510	1.425317
C83	C	1.165367	-0.512534	0.852540
C84	C	1.665367	-0.012534	1.352540
C85	C	1.165354	-0.512568	0.761226
C86	C	1.665354	-0.012568	1.261226
H87	H	1.029597	-1.078900	0.352077
H88	H	1.529597	-0.578900	0.852077
C89	C	1.280126	-1.088677	0.274066
C90	C	1.780126	-0.588677	0.774066
C91	C	1.338136	-1.149708	0.313917
C92	C	1.838136	-0.649708	0.813917
C93	C	1.394248	-1.187662	0.258103
C94	C	1.894248	-0.687662	0.758103
H95	H	1.253489	-1.131276	0.235134
H96	H	1.753489	-0.631276	0.735134
H97	H	1.305488	-1.030416	0.248113
H98	H	1.805488	-0.530416	0.748113
H99	H	1.312776	-1.207961	0.339857
H100	H	1.812776	-0.707961	0.839857
H101	H	1.364793	-1.107131	0.352845
H102	H	1.864793	-0.607131	0.852845
H103	H	1.419610	-1.129401	0.232149
H104	H	1.919610	-0.629401	0.732149
H105	H	1.367604	-1.230256	0.219174
H106	H	1.867604	-0.730256	0.719174
H107	H	1.433618	-1.229067	0.285134
H108	H	1.933618	-0.729067	0.785134
H109	H	1.301000	-0.945441	0.425051
H110	H	1.801000	-0.445441	0.925051
C111	C	1.123151	-0.935605	0.231988
C112	C	1.623151	-0.435605	0.731988
C113	C	1.053352	-0.873879	0.237624
C114	C	1.553352	-0.373879	0.737624
C115	C	1.032651	-0.835873	0.161244
C116	C	1.532651	-0.335873	0.661244
H117	H	1.165851	-0.893462	0.211457
H118	H	1.665851	-0.393462	0.711457
H119	H	1.113742	-0.993845	0.196886
H120	H	1.613742	-0.493845	0.696886
H121	H	1.062765	-0.815647	0.272714
H122	H	1.562765	-0.315647	0.772714
H123	H	1.010637	-0.915999	0.258142
H124	H	1.510637	-0.415999	0.758142
H125	H	1.023242	-0.894114	0.126142
H126	H	1.523242	-0.394114	0.626142
H127	H	1.075355	-0.793735	0.140719
H128	H	1.575355	-0.293735	0.640719
H129	H	0.985286	-0.793996	0.165057
H130	H	1.485286	-0.293996	0.665057
C131	C	1.050448	-0.935492	0.502858
C132	C	1.550448	-0.435492	1.002858
C133	C	0.973581	-0.971463	0.481784
C134	C	1.473581	-0.471463	0.981784
C135	C	0.917400	-0.933401	0.537486
C136	C	1.417400	-0.433401	1.037486
H137	H	1.063796	-0.960691	0.555024
H138	H	1.563796	-0.460691	1.055024
H139	H	1.051121	-0.860062	0.502760
H140	H	1.551121	-0.360062	1.002760
H141	H	0.972910	-1.046876	0.481891
H142	H	1.472910	-0.546876	0.981891
H143	H	0.960208	-0.946266	0.429628
H144	H	1.460208	-0.446266	0.929628
H145	H	0.918073	-0.857971	0.537388
H146	H	1.418073	-0.357971	1.037388
H147	H	0.930755	-0.958603	0.589648
H148	H	1.430755	-0.458603	1.089648
H149	H	0.865239	-0.957793	0.523191
H150	H	1.365239	-0.457793	1.023191
C151	C	1.207065	-1.088716	0.545159
C152	C	1.707065	-0.588716	1.045159
C153	C	1.150430	-1.052887	0.601249
C154	C	1.650430	-0.552887	1.101249
C155	C	1.170738	-1.090827	0.677753
C156	C	1.670738	-0.590827	1.177753
H157	H	1.207413	-1.164132	0.544562
H158	H	1.707413	-0.664132	1.044562
H159	H	1.258910	-1.063322	0.559611
H160	H	1.758910	-0.563322	1.059611
H161	H	1.098598	-1.078286	0.586801
H162	H	1.598598	-0.578286	1.086801
H163	H	1.150073	-0.977476	0.601871
H164	H	1.650073	-0.477476	1.101871
H165	H	1.222583	-1.065433	0.692204
H166	H	1.722583	-0.565433	1.192204
H167	H	1.171086	-1.166241	0.677147
H168	H	1.671086	-0.666241	1.177147
H169	H	1.132319	-1.066514	0.715820
H170	H	1.632319	-0.566514	1.215820
