data_functionalizedCrystal
_audit_creation_method	'MofGen! by Chris Wilmer'
_symmetry_space_group_name_H-M	'P1'
_symmetry_Int_Tables_number	1
_symmetry_cell_setting	triclinic
loop_
_symmetry_equiv_pos_as_xyz
  x,y,z
_cell_length_a	17.699077
_cell_length_b	27.732064
_cell_length_c	16.776229
_cell_angle_alpha	89.997427
_cell_angle_beta	89.993415
_cell_angle_gamma	82.965000
loop_
_atom_site_label
_atom_site_type_symbol
_atom_site_fract_x
_atom_site_fract_y
_atom_site_fract_z
O1	O	1.003548	0.061113	-0.066270
O2	O	0.783100	0.069068	-0.066273
O3	O	0.900164	-0.005281	-0.066275
O4	O	0.886484	0.135462	-0.066269
O5	O	0.900149	-0.005286	0.066302
O6	O	0.783084	0.069064	0.066303
O7	O	1.003533	0.061108	0.066306
Zn8	Zn	0.893306	0.065085	0.087354
Zn9	Zn	0.893326	0.065091	-0.087321
O10	O	0.886469	0.135458	0.066308
C11	C	0.754898	0.068782	0.000014
C12	C	0.670887	0.067928	0.000013
C13	C	0.631414	0.067523	0.072281
C14	C	0.552479	0.066713	0.072282
C15	C	0.513016	0.066311	0.000014
C16	C	0.552495	0.066715	-0.072260
C17	C	0.631429	0.067521	-0.072260
C18	C	0.234160	0.063462	-0.072262
C19	C	0.155219	0.062657	-0.072256
C20	C	0.155209	0.062654	0.072280
C21	C	0.234144	0.063460	0.072280
C22	C	0.273616	0.063861	0.000007
C23	C	0.359207	0.064738	0.000007
C24	C	0.427426	0.065438	0.000013
C25	C	0.899867	-0.023291	0.000011
C26	C	0.898997	-0.076949	0.000003
C27	C	0.823892	-0.454291	-0.000001
C28	C	0.827096	-0.252619	-0.000002
O29	O	0.768816	-0.221575	-0.000034
N30	N	0.896513	-0.233243	-0.000001
C31	C	0.965133	-0.264288	-0.000005
O32	O	1.024250	-0.243180	-0.000012
C33	C	0.961929	-0.465959	-0.000010
C34	C	0.892507	-0.485332	-0.000002
C35	C	0.754476	-0.473664	0.000006
C36	C	0.753676	-0.524079	0.000010
C37	C	0.822291	-0.555121	0.000008
C38	C	0.891707	-0.535747	0.000002
C39	C	1.030549	-0.497003	-0.000020
C40	C	1.029741	-0.547423	-0.000023
C41	C	0.960320	-0.566797	-0.000015
C42	C	0.959522	-0.617203	0.000005
N43	N	0.890105	-0.636579	0.000004
C44	C	0.821490	-0.605538	0.000006
C45	C	0.966811	-0.158407	-0.000001
C46	C	0.967612	-0.107990	0.000002
C47	C	0.829574	-0.096324	0.000003
C48	C	0.828774	-0.146743	0.000007
C49	C	0.897394	-0.177784	-0.000002
C50	C	0.819814	-0.711413	0.000016
C51	C	0.819020	-0.761833	0.000024
C52	C	0.957058	-0.773495	0.000018
C53	C	0.957853	-0.723079	0.000014
C54	C	0.889225	-0.692039	0.000011
O55	O	1.017770	-0.648275	0.000029
O56	O	0.762381	-0.626655	-0.000004
C57	C	0.824692	-0.403876	-0.000005
C58	C	0.894108	-0.384502	-0.000012
C59	C	0.962723	-0.415543	-0.000013
C60	C	0.894909	-0.334084	-0.000009
C61	C	0.826293	-0.303043	-0.000007
C62	C	0.756876	-0.322419	-0.000008
C63	C	0.756076	-0.372834	-0.000004
C64	C	1.032140	-0.396167	-0.000013
C65	C	1.032935	-0.345752	-0.000016
C66	C	0.964319	-0.314710	-0.000014
C67	C	1.031735	0.061395	0.000017
C68	C	1.115746	0.062249	0.000013
C69	C	0.886765	0.153468	0.000020
C70	C	0.887636	0.207125	0.000022
N71	N	0.893298	0.065081	0.206565
N72	N	0.893341	0.065092	-0.206532
C73	C	0.945150	0.032172	0.248282
C74	C	0.945154	0.032172	0.331734
C75	C	0.893309	0.065083	0.373468
C76	C	0.841452	0.097993	0.331746
C77	C	0.841445	0.097991	0.248295
C78	C	0.841479	0.098002	0.668293
C79	C	0.841492	0.098003	0.751750
C80	C	0.945188	0.032184	0.751732
C81	C	0.945181	0.032181	0.668281
C82	C	0.893322	0.065090	0.626566
C83	C	0.893317	0.065089	0.536078
C84	C	0.893317	0.065086	0.463955
H85	H	0.663538	0.067854	0.131131
N86	N	0.512172	0.066296	0.146110
N87	N	0.547415	0.066656	0.210629
H88	H	0.518949	0.066360	0.262774
H89	H	0.520359	0.066384	-0.131102
N90	N	0.274440	0.063875	0.146108
N91	N	0.239188	0.063512	0.210629
H92	H	0.267646	0.063804	0.262773
N93	N	1.103853	-0.325966	-0.000006
N94	N	1.149973	-0.335505	0.055876
H95	H	1.200058	-0.321533	0.055879
H96	H	0.987400	0.005384	0.634304
N97	N	0.671741	0.067930	-0.146088
N98	N	0.636500	0.067570	-0.210609
H99	H	0.664970	0.067856	-0.262752
H100	H	0.799255	0.124798	0.634335
N101	N	0.114877	0.062245	0.146101
N102	N	0.044400	0.061525	0.146097
H103	H	0.015915	0.061239	0.198231
N104	N	0.998075	-0.001453	0.205628
N105	N	0.974369	-0.031426	0.159076
H106	H	1.011739	-0.055177	0.128943
N107	N	0.759491	-0.064604	-0.000008
N108	N	0.744561	-0.035168	-0.055897
H109	H	0.695068	-0.012763	-0.055911
N110	N	0.748098	-0.781614	0.000038
N111	N	0.686841	-0.753889	0.000040
H112	H	0.636752	-0.767857	0.000050
H113	H	0.123091	0.062330	-0.131109
N114	N	1.099831	-0.579137	-0.000019
N115	N	1.099113	-0.624152	-0.000013
H116	H	1.148613	-0.646550	-0.000007
N117	N	1.027144	-0.805208	0.000030
N118	N	1.042090	-0.834645	0.055914
H119	H	1.091589	-0.857044	0.055919
N120	N	0.685156	-0.392611	0.000007
N121	N	0.623904	-0.364883	0.000010
H122	H	0.573812	-0.378847	0.000017
N123	N	0.274461	0.063871	-0.146091
N124	N	0.239214	0.063514	-0.210609
H125	H	0.267678	0.063803	-0.262755
N126	N	0.749707	-0.679719	0.000006
N127	N	0.687739	-0.697032	0.000009
H128	H	0.638224	-0.674648	0.000004
H129	H	1.022693	-0.183677	-0.000006
N130	N	0.682756	-0.543856	0.000012
N131	N	0.621503	-0.516128	0.000009
H132	H	0.571411	-0.530091	0.000008
N133	N	0.684373	-0.441968	0.000002
N134	N	0.622406	-0.459282	0.000005
H135	H	0.572891	-0.436900	0.000008
N136	N	0.757855	-0.166522	0.000019
N137	N	0.696600	-0.138795	0.000028
H138	H	0.646510	-0.152761	0.000037
H139	H	1.024142	-0.092221	0.000008
H140	H	1.087079	-0.481239	-0.000026
H141	H	0.799221	0.124787	0.214330
H142	H	0.987375	0.005375	0.365699
H143	H	0.799236	0.124788	0.365731
H144	H	0.987413	0.005387	0.785705
N145	N	1.028770	-0.703295	0.000027
N146	N	1.090028	-0.731018	0.000035
H147	H	1.140115	-0.717049	0.000040
N148	N	0.686793	-0.290699	0.000001
N149	N	0.687529	-0.245686	-0.000001
H150	H	0.638036	-0.223281	0.000002
N151	N	0.788526	0.131626	0.794369
N152	N	0.742227	0.161005	0.757116
H153	H	0.704822	0.184751	0.787215
N154	N	1.102241	-0.427864	-0.000019
N155	N	1.164210	-0.410552	-0.000021
H156	H	1.213723	-0.432936	-0.000023
