data_functionalizedCrystal
_audit_creation_method	'MofGen! by Chris Wilmer'
_symmetry_space_group_name_H-M	'P1'
_symmetry_Int_Tables_number	1
_symmetry_cell_setting	triclinic
loop_
_symmetry_equiv_pos_as_xyz
  x,y,z
_cell_length_a	12.759401
_cell_length_b	12.645324
_cell_length_c	12.759400
_cell_angle_alpha	90.033283
_cell_angle_beta	89.985155
_cell_angle_gamma	89.980419
loop_
_atom_site_label
_atom_site_type_symbol
_atom_site_fract_x
_atom_site_fract_y
_atom_site_fract_z
Zn1	Zn	1.606267	-0.599339	0.418182
Zn2	Zn	1.606158	-0.422075	0.593906
Zn3	Zn	1.430565	-0.422094	0.418242
Zn4	Zn	1.430557	-0.599301	0.593820
O5	O	1.518387	-0.510702	0.506038
O6	O	1.753273	-0.575833	0.441503
O7	O	1.582823	-0.273730	0.570665
O8	O	1.453921	-0.445631	0.271213
O9	O	1.753193	-0.445597	0.570607
O10	O	1.583009	-0.575852	0.271169
O11	O	1.453816	-0.273744	0.441606
O12	O	1.283543	-0.445593	0.441522
O13	O	1.453908	-0.747653	0.570460
O14	O	1.283537	-0.575786	0.570518
O15	O	1.583001	-0.747682	0.441419
O16	O	1.582815	-0.445560	0.740916
O17	O	1.453802	-0.575767	0.740852
C18	C	1.245419	-0.510688	0.506018
C19	C	1.128643	-0.510707	0.506035
C20	C	1.073805	-0.578386	0.573311
C21	C	0.964081	-0.578398	0.573324
C22	C	0.964042	-0.443042	0.438783
C23	C	1.073764	-0.443036	0.438765
C24	C	1.073827	-0.656530	0.650991
C25	C	0.964103	-0.656541	0.651004
C26	C	1.518466	-0.787208	0.505923
C27	C	1.518499	-0.905038	0.505875
C28	C	1.600028	-1.072620	0.424931
C29	C	1.599766	-0.950060	0.424638
C30	C	1.407814	-0.949523	0.475788
C31	C	1.408309	-1.072122	0.475174
C32	C	1.546758	-1.072231	0.617023
C33	C	1.549179	-0.949626	0.616464
C34	C	1.792420	-0.510717	0.506058
C35	C	1.909197	-0.510724	0.506066
C36	C	1.518324	-0.510680	0.779005
C37	C	1.518394	-0.510706	0.895782
C38	C	1.518369	-0.235273	0.506076
C39	C	1.518539	-0.117443	0.505828
C40	C	1.518478	-0.510748	0.232004
C41	C	1.518517	-0.510767	0.115228
C42	C	1.585645	-0.442982	0.950642
C43	C	1.585710	-0.443015	1.060366
C44	C	1.451262	-0.578498	1.060360
C45	C	1.451204	-0.578470	0.950638
C46	C	1.663265	-0.364759	0.950646
C47	C	1.663329	-0.364791	1.060370
H48	H	1.681841	-0.919984	0.443480
C49	C	1.134082	-0.368593	0.364748
N50	N	1.179512	-0.312520	0.308995
C51	C	1.119783	-0.616615	0.755356
N52	N	1.154398	-0.586549	0.833964
H53	H	1.396452	-0.633626	0.905972
C54	C	1.773153	-0.394548	0.910303
N55	N	1.855920	-0.416985	0.879918
H56	H	1.634138	-0.286735	0.916701
H57	H	1.396560	-0.633670	1.105037
H58	H	0.919346	-0.387947	0.384013
H59	H	1.626059	-1.103211	0.644414
H60	H	0.934307	-0.634411	0.732354
C61	C	1.767763	-0.404606	1.106232
N62	N	1.846422	-0.434593	1.140777
H63	H	1.682374	-1.102107	0.443535
C64	C	0.918170	-0.761975	0.611750
N65	N	0.883572	-0.841383	0.582177
C66	C	1.114104	-0.767503	0.621699
N67	N	1.144440	-0.851089	0.599646
H68	H	1.383456	-0.918832	0.395413
H69	H	1.581583	-1.103447	0.343015
C70	C	1.574515	-0.910459	0.313360
N71	N	1.555490	-0.880633	0.229540
H72	H	1.345445	-0.920359	0.532900
C73	C	1.376035	-1.110779	0.365353
N74	N	1.351742	-1.139891	0.282628
C75	C	1.323489	-1.112180	0.551305
N76	N	1.259597	-1.142347	0.608640
C77	C	1.659219	-0.910339	0.647119
N78	N	1.742099	-0.880740	0.670207
H79	H	1.641590	-0.282677	1.090235
H80	H	1.494141	-0.918975	0.679983
C81	C	1.466579	-1.111396	0.698455
N82	N	1.406187	-1.140903	0.759782
