data_functionalizedCrystal
_audit_creation_method	'MofGen! by Chris Wilmer'
_symmetry_space_group_name_H-M	'P1'
_symmetry_Int_Tables_number	1
_symmetry_cell_setting	triclinic
loop_
_symmetry_equiv_pos_as_xyz
  x,y,z
_cell_length_a	19.805405
_cell_length_b	18.215407
_cell_length_c	18.215399
_cell_angle_alpha	89.979405
_cell_angle_beta	90.030610
_cell_angle_gamma	89.973669
loop_
_atom_site_label
_atom_site_type_symbol
_atom_site_fract_x
_atom_site_fract_y
_atom_site_fract_z
Zn1	Zn	-0.269472	-1.125064	0.416117
Zn2	Zn	-0.019472	-0.875064	0.666117
Zn3	Zn	0.230528	-0.625064	0.916117
Zn4	Zn	0.480528	-0.375064	1.166117
Zn5	Zn	-0.382663	-1.124969	0.293045
Zn6	Zn	-0.132663	-0.874969	0.543045
Zn7	Zn	0.117337	-0.624969	0.793045
Zn8	Zn	0.367337	-0.374969	1.043045
Zn9	Zn	-0.269493	-1.001997	0.293063
Zn10	Zn	-0.019493	-0.751997	0.543063
Zn11	Zn	0.230507	-0.501997	0.793063
Zn12	Zn	0.480507	-0.251997	1.043063
Zn13	Zn	-0.382624	-1.001959	0.416068
Zn14	Zn	-0.132624	-0.751959	0.666068
Zn15	Zn	0.117376	-0.501959	0.916068
Zn16	Zn	0.367376	-0.251959	1.166068
O17	O	-0.326063	-1.063497	0.354573
O18	O	-0.076063	-0.813497	0.604573
O19	O	0.173937	-0.563497	0.854573
O20	O	0.423937	-0.313497	1.104573
O21	O	-0.284494	-1.228036	0.399804
O22	O	-0.034494	-0.978036	0.649804
O23	O	0.215506	-0.728036	0.899804
O24	O	0.465506	-0.478036	1.149804
O25	O	-0.367675	-1.108633	0.190063
O26	O	-0.117675	-0.858633	0.440063
O27	O	0.132325	-0.608633	0.690063
O28	O	0.382325	-0.358633	0.940063
O29	O	-0.174773	-1.018377	0.309414
O30	O	0.075227	-0.768377	0.559414
O31	O	0.325227	-0.518377	0.809414
O32	O	0.575227	-0.268377	1.059414
O33	O	-0.367655	-1.227966	0.309384
O34	O	-0.117655	-0.977966	0.559384
O35	O	0.132345	-0.727966	0.809384
O36	O	0.382345	-0.477966	1.059384
O37	O	-0.174758	-1.108794	0.399822
O38	O	0.075242	-0.858794	0.649822
O39	O	0.325242	-0.608794	0.899822
O40	O	0.575242	-0.358794	1.149822
O41	O	-0.284530	-1.018285	0.190076
O42	O	-0.034530	-0.768285	0.440076
O43	O	0.215470	-0.518285	0.690076
O44	O	0.465470	-0.268285	0.940076
O45	O	-0.284492	-0.899008	0.309367
O46	O	-0.034492	-0.649008	0.559367
O47	O	0.215508	-0.399008	0.809367
O48	O	0.465508	-0.149008	1.059367
O49	O	-0.367589	-1.018313	0.519059
O50	O	-0.117589	-0.768313	0.769059
O51	O	0.132411	-0.518313	1.019059
O52	O	0.382411	-0.268313	1.269059
O53	O	-0.367609	-0.898980	0.399739
O54	O	-0.117609	-0.648980	0.649739
O55	O	0.132391	-0.398980	0.899739
O56	O	0.382391	-0.148980	1.149739
O57	O	-0.284456	-1.108758	0.519095
O58	O	-0.034456	-0.858758	0.769095
O59	O	0.215544	-0.608758	1.019095
O60	O	0.465544	-0.358758	1.269095
O61	O	-0.477374	-1.108596	0.309337
O62	O	-0.227374	-0.858596	0.559337
O63	O	0.022626	-0.608596	0.809337
O64	O	0.272626	-0.358596	1.059337
O65	O	-0.477346	-1.018221	0.399721
O66	O	-0.227346	-0.768221	0.649721
O67	O	0.022654	-0.518221	0.899721
O68	O	0.272654	-0.268221	1.149721
C69	C	-0.326049	-0.872291	0.354550
C70	C	-0.076049	-0.622291	0.604550
C71	C	0.173951	-0.372291	0.854550
C72	C	0.423951	-0.122291	1.104550
C73	C	-0.326060	-0.790492	0.354557
C74	C	-0.076060	-0.540492	0.604557
C75	C	0.173940	-0.290492	0.854557
C76	C	0.423940	-0.040492	1.104557
C77	C	-0.501919	-1.063415	0.354538
C78	C	-0.251919	-0.813415	0.604538
C79	C	-0.001919	-0.563415	0.854538
C80	C	0.248081	-0.313415	1.104538
C81	C	-0.577151	-1.063446	0.354547
C82	C	-0.327151	-0.813446	0.604547
C83	C	-0.077151	-0.563446	0.854547
C84	C	0.172849	-0.313446	1.104547
C85	C	-0.369406	-0.602303	0.401552
C86	C	-0.119406	-0.352303	0.651552
C87	C	0.130594	-0.102303	0.901552
C88	C	0.380594	0.147697	1.151552
C89	C	-0.369407	-0.525444	0.401560
C90	C	-0.119407	-0.275444	0.651560
C91	C	0.130593	-0.025444	0.901560
C92	C	0.380593	0.224556	1.151560
C93	C	-0.282724	-0.525444	0.307598
C94	C	-0.032724	-0.275444	0.557598
C95	C	0.217276	-0.025444	0.807598
C96	C	0.467276	0.224556	1.057598
C97	C	-0.282719	-0.602301	0.307594
C98	C	-0.032719	-0.352301	0.557594
C99	C	0.217281	-0.102301	0.807594
C100	C	0.467281	0.147699	1.057594
C101	C	-0.326064	-0.640729	0.354570
C102	C	-0.076064	-0.390729	0.604570
C103	C	0.173936	-0.140729	0.854570
C104	C	0.423936	0.109271	1.104570
C105	C	-0.326070	-0.487013	0.354582
C106	C	-0.076070	-0.237013	0.604582
C107	C	0.173930	0.012987	0.854582
C108	C	0.423930	0.262987	1.104582
C109	C	-0.326071	-0.403679	0.354590
C110	C	-0.076071	-0.153679	0.604590
C111	C	0.173929	0.096321	0.854590
C112	C	0.423929	0.346321	1.104590
C113	C	-0.326062	-0.724068	0.354563
C114	C	-0.076062	-0.474068	0.604563
C115	C	0.173938	-0.224068	0.854563
C116	C	0.423938	0.025932	1.104563
C117	C	-0.612487	-1.110550	0.307533
C118	C	-0.362487	-0.860550	0.557533
C119	C	-0.112487	-0.610550	0.807533
C120	C	0.137513	-0.360550	1.057533
C121	C	-0.683176	-1.110582	0.307550
C122	C	-0.433176	-0.860582	0.557550
C123	C	-0.183176	-0.610582	0.807550
C124	C	0.066824	-0.360582	1.057550
C125	C	-0.718526	-1.063505	0.354577
C126	C	-0.468526	-0.813505	0.604577
C127	C	-0.218526	-0.563505	0.854577
C128	C	0.031474	-0.313505	1.104577
C129	C	-0.683185	-1.016399	0.401596
C130	C	-0.433185	-0.766399	0.651596
C131	C	-0.183185	-0.516399	0.901596
C132	C	0.066815	-0.266399	1.151596
C133	C	-0.612498	-1.016372	0.401583
C134	C	-0.362498	-0.766372	0.651583
C135	C	-0.112498	-0.516372	0.901583
C136	C	0.137502	-0.266372	1.151583
C137	C	-0.968258	-1.016507	0.401650
C138	C	-0.718258	-0.766507	0.651650
C139	C	-0.468258	-0.516507	0.901650
C140	C	-0.218258	-0.266507	1.151650
C141	C	-1.038950	-1.016536	0.401658
C142	C	-0.788950	-0.766536	0.651658
C143	C	-0.538950	-0.516536	0.901658
C144	C	-0.288950	-0.266536	1.151658
C145	C	-1.038936	-1.110717	0.307617
C146	C	-0.788936	-0.860717	0.557617
C147	C	-0.538936	-0.610717	0.807617
C148	C	-0.288936	-0.360717	1.057617
C149	C	-0.968249	-1.110690	0.307604
C150	C	-0.718249	-0.860690	0.557604
C151	C	-0.468249	-0.610690	0.807604
C152	C	-0.218249	-0.360690	1.057604
C153	C	-0.932914	-1.063587	0.354626
C154	C	-0.682914	-0.813587	0.604626
C155	C	-0.432914	-0.563587	0.854626
C156	C	-0.182914	-0.313587	1.104626
C157	C	-0.856265	-1.063555	0.354608
C158	C	-0.606265	-0.813555	0.604608
C159	C	-0.356265	-0.563555	0.854608
C160	C	-0.106265	-0.313555	1.104608
C161	C	-0.795173	-1.063533	0.354591
C162	C	-0.545173	-0.813533	0.604591
C163	C	-0.295173	-0.563533	0.854591
C164	C	-0.045173	-0.313533	1.104591
C165	C	-0.149520	-1.063601	0.354625
C166	C	0.100480	-0.813601	0.604625
C167	C	0.350480	-0.563601	0.854625
C168	C	0.600480	-0.313601	1.104625
C169	C	-0.074288	-1.063645	0.354647
C170	C	0.175712	-0.813645	0.604647
C171	C	0.425712	-0.563645	0.854647
C172	C	0.675712	-0.313645	1.104647
C173	C	-0.326016	-1.063542	0.546526
C174	C	-0.076016	-0.813542	0.796526
C175	C	0.173984	-0.563542	1.046526
C176	C	0.423984	-0.313542	1.296526
C177	C	-0.325996	-1.063561	0.628325
C178	C	-0.075996	-0.813561	0.878325
C179	C	0.174004	-0.563561	1.128325
C180	C	0.424004	-0.313561	1.378325
C181	C	-0.326074	-0.255450	0.354594
C182	C	-0.076074	-0.005450	0.604594
C183	C	0.173926	0.244550	0.854594
C184	C	0.423926	0.494550	1.104594
C185	C	-0.326074	-0.337249	0.354595
C186	C	-0.076074	-0.087249	0.604595
C187	C	0.173926	0.162751	0.854595
C188	C	0.423926	0.412751	1.104595
C189	C	-0.326060	-1.063495	0.163367
C190	C	-0.076060	-0.813495	0.413367
C191	C	0.173940	-0.563495	0.663367
C192	C	0.423940	-0.313495	0.913367
C193	C	-0.325889	-1.063619	0.081569
C194	C	-0.075889	-0.813619	0.331569
C195	C	0.174111	-0.563619	0.581569
C196	C	0.424111	-0.313619	0.831569
C197	C	-0.282669	-1.110673	0.816539
C198	C	-0.032669	-0.860673	1.066539
C199	C	0.217331	-0.610673	1.316539
C200	C	0.467331	-0.360673	1.566539
C201	C	-0.282649	-1.110682	0.893398
C202	C	-0.032649	-0.860682	1.143398
C203	C	0.217351	-0.610682	1.393398
C204	C	0.467351	-0.360682	1.643398
C205	C	-0.369219	-1.016502	0.893350
C206	C	-0.119219	-0.766502	1.143350
C207	C	0.130781	-0.516502	1.393350
C208	C	0.380781	-0.266502	1.643350
C209	C	-0.369235	-1.016490	0.816492
C210	C	-0.119235	-0.766490	1.066492
C211	C	0.130765	-0.516490	1.316492
C212	C	0.380765	-0.266490	1.566492
C213	C	-0.325961	-1.063580	0.778089
C214	C	-0.075961	-0.813580	1.028089
C215	C	0.174039	-0.563580	1.278089
C216	C	0.424039	-0.313580	1.528089
C217	C	-0.325925	-1.063600	0.931805
C218	C	-0.075925	-0.813600	1.181805
C219	C	0.174075	-0.563600	1.431805
C220	C	0.424075	-0.313600	1.681805
C221	C	-0.325904	-1.063609	1.015139
C222	C	-0.075904	-0.813609	1.265139
C223	C	0.174096	-0.563609	1.515139
C224	C	0.424096	-0.313609	1.765139
C225	C	-0.325981	-1.063570	0.694750
C226	C	-0.075981	-0.813570	0.944750
C227	C	0.174019	-0.563570	1.194750
C228	C	0.424019	-0.313570	1.444750
H229	H	-0.404698	-0.633589	0.439805
H230	H	-0.154698	-0.383589	0.689805
H231	H	0.095302	-0.133589	0.939805
H232	H	0.345302	0.116411	1.189805
H233	H	-0.247421	-0.633588	0.269335
H234	H	0.002579	-0.383588	0.519335
H235	H	0.252579	-0.133588	0.769335
H236	H	0.502579	0.116412	1.019335
H237	H	-1.067714	-1.149073	0.269333
H238	H	-0.817714	-0.899073	0.519333
H239	H	-0.567714	-0.649073	0.769333
H240	H	-0.317714	-0.399073	1.019333
H241	H	-0.404488	-0.978136	0.785185
H242	H	-0.154488	-0.728136	1.035185
H243	H	0.095512	-0.478136	1.285185
H244	H	0.345512	-0.228136	1.535185
Cl245	Cl	-0.568053	-1.169732	0.248405
Cl246	Cl	-0.318053	-0.919732	0.498405
Cl247	Cl	-0.068053	-0.669732	0.748405
Cl248	Cl	0.181947	-0.419732	0.998405
H249	H	-0.939494	-0.978153	0.439936
H250	H	-0.689494	-0.728153	0.689936
H251	H	-0.439494	-0.478153	0.939936
H252	H	-0.189494	-0.228153	1.189936
H253	H	-0.247395	-1.149028	0.924701
H254	H	0.002605	-0.899028	1.174701
H255	H	0.252605	-0.649028	1.424701
H256	H	0.502605	-0.399028	1.674701
H257	H	-0.404699	-0.494162	0.439819
H258	H	-0.154699	-0.244162	0.689819
H259	H	0.095301	0.005838	0.939819
H260	H	0.345301	0.255838	1.189819
H261	H	-0.711973	-0.978071	0.439889
H262	H	-0.461973	-0.728071	0.689889
H263	H	-0.211973	-0.478071	0.939889
H264	H	0.038027	-0.228071	1.189889
H265	H	-0.583727	-0.978016	0.439867
H266	H	-0.333727	-0.728016	0.689867
H267	H	-0.083727	-0.478016	0.939867
H268	H	0.166273	-0.228016	1.189867
H269	H	-0.711943	-1.148938	0.269265
H270	H	-0.461943	-0.898938	0.519265
H271	H	-0.211943	-0.648938	0.769265
H272	H	0.038057	-0.398938	1.019265
Cl273	Cl	-0.228238	-0.477129	0.248544
Cl274	Cl	0.021762	-0.227129	0.498544
Cl275	Cl	0.271762	0.022871	0.748544
Cl276	Cl	0.521762	0.272871	0.998544
Cl277	Cl	-1.083390	-0.957351	0.460784
Cl278	Cl	-0.833390	-0.707351	0.710784
Cl279	Cl	-0.583390	-0.457351	0.960784
Cl280	Cl	-0.333390	-0.207351	1.210784
Cl281	Cl	-0.923812	-1.169875	0.248482
Cl282	Cl	-0.673812	-0.919875	0.498482
Cl283	Cl	-0.423812	-0.669875	0.748482
Cl284	Cl	-0.173812	-0.419875	0.998482
H285	H	-0.247430	-1.149014	0.785274
H286	H	0.002570	-0.899014	1.035274
H287	H	0.252570	-0.649014	1.285274
H288	H	0.502570	-0.399014	1.535274
H289	H	-0.404453	-0.978165	0.924627
H290	H	-0.154453	-0.728165	1.174627
H291	H	0.095547	-0.478165	1.424627
H292	H	0.345547	-0.228165	1.674627
