data_functionalizedCrystal
_audit_creation_method	'MofGen! by Chris Wilmer'
_symmetry_space_group_name_H-M	'P1'
_symmetry_Int_Tables_number	1
_symmetry_cell_setting	triclinic
loop_
_symmetry_equiv_pos_as_xyz
  x,y,z
_cell_length_a	25.639240
_cell_length_b	18.101398
_cell_length_c	18.101389
_cell_angle_alpha	90.014346
_cell_angle_beta	90.015431
_cell_angle_gamma	90.030211
loop_
_atom_site_label
_atom_site_type_symbol
_atom_site_fract_x
_atom_site_fract_y
_atom_site_fract_z
Zn1	Zn	-0.208231	1.132116	0.418657
Zn2	Zn	0.125102	1.465449	0.751990
Zn3	Zn	0.458435	1.798783	1.085324
Zn4	Zn	-0.295653	1.132010	0.294822
Zn5	Zn	0.037681	1.465343	0.628155
Zn6	Zn	0.371014	1.798676	0.961489
Zn7	Zn	-0.208230	1.008275	0.294840
Zn8	Zn	0.125103	1.341608	0.628173
Zn9	Zn	0.458436	1.674942	0.961506
Zn10	Zn	-0.295635	1.008224	0.418632
Zn11	Zn	0.037699	1.341557	0.751965
Zn12	Zn	0.371032	1.674890	1.085299
O13	O	-0.251937	1.070156	0.356738
O14	O	0.081396	1.403489	0.690071
O15	O	0.414729	1.736823	1.023404
O16	O	-0.219836	1.235735	0.402233
O17	O	0.113497	1.569068	0.735566
O18	O	0.446831	1.902401	1.068900
O19	O	-0.284063	1.115573	0.191191
O20	O	0.049270	1.448907	0.524525
O21	O	0.382604	1.782240	0.857858
O22	O	-0.135065	1.024769	0.311282
O23	O	0.198268	1.358102	0.644615
O24	O	0.531601	1.691435	0.977949
O25	O	-0.284064	1.235657	0.311252
O26	O	0.049269	1.568990	0.644585
O27	O	0.382603	1.902323	0.977918
O28	O	-0.135066	1.115754	0.402250
O29	O	0.198267	1.449087	0.735583
O30	O	0.531601	1.782421	1.068917
O31	O	-0.219834	1.024666	0.191204
O32	O	0.113499	1.357999	0.524538
O33	O	0.446832	1.691332	0.857871
O34	O	-0.219817	0.904635	0.311258
O35	O	0.113517	1.237969	0.644591
O36	O	0.446850	1.571302	0.977925
O37	O	-0.284033	1.024681	0.522268
O38	O	0.049300	1.358015	0.855602
O39	O	0.382633	1.691348	1.188935
O40	O	-0.284032	0.904598	0.402208
O41	O	0.049301	1.237931	0.735541
O42	O	0.382634	1.571264	1.068874
O43	O	-0.219819	1.115704	0.522287
O44	O	0.113515	1.449038	0.855620
O45	O	0.446848	1.782371	1.188953
O46	O	-0.368816	1.115523	0.311228
O47	O	-0.035482	1.448857	0.644561
O48	O	0.297851	1.782190	0.977894
O49	O	-0.368802	1.024578	0.402190
O50	O	-0.035469	1.357912	0.735524
O51	O	0.297864	1.691245	1.068857
C52	C	-0.251923	0.877746	0.356732
C53	C	0.081410	1.211079	0.690066
C54	C	0.414744	1.544412	1.023399
C55	C	-0.251929	0.795431	0.356748
C56	C	0.081404	1.128765	0.690081
C57	C	0.414737	1.462098	1.023414
C58	C	-0.251939	0.644723	0.356747
C59	C	0.081394	0.978056	0.690080
C60	C	0.414728	1.311390	1.023413
C61	C	-0.292404	0.613370	0.413881
C62	C	0.040929	0.946704	0.747214
C63	C	0.374263	1.280037	1.080548
C64	C	-0.292568	0.527752	0.413712
C65	C	0.040766	0.861085	0.747045
C66	C	0.374099	1.194419	1.080379
C67	C	-0.251949	0.496340	0.356747
C68	C	0.081385	0.829674	0.690080
C69	C	0.414718	1.163007	1.023413
C70	C	-0.266643	0.527393	0.278606
C71	C	0.066690	0.860726	0.611939
C72	C	0.400024	1.194060	0.945273
C73	C	-0.266931	0.613038	0.278936
C74	C	0.066402	0.946371	0.612270
C75	C	0.399736	1.279704	0.945603
C76	C	-0.196680	0.613203	0.377071
C77	C	0.136654	0.946536	0.710404
C78	C	0.469987	1.279870	1.043737
C79	C	-0.196983	0.527553	0.378792
C80	C	0.136351	0.860886	0.712125
C81	C	0.469684	1.194220	1.045458
C82	C	-0.251953	0.412481	0.356742
C83	C	0.081380	0.745814	0.690075
C84	C	0.414713	1.079148	1.023409
C85	C	-0.251936	0.728583	0.356746
C86	C	0.081397	1.061916	0.690079
C87	C	0.414731	1.395249	1.023413
C88	C	-0.387780	1.070054	0.356721
C89	C	-0.054447	1.403387	0.690054
C90	C	0.278887	1.736720	1.023387
C91	C	-0.445894	1.070078	0.356738
C92	C	-0.112561	1.403411	0.690071
C93	C	0.220773	1.736744	1.023405
C94	C	-0.697036	1.117528	0.404153
C95	C	-0.363703	1.450861	0.737486
C96	C	-0.030370	1.784195	1.070820
C97	C	-0.642432	1.117506	0.404147
C98	C	-0.309099	1.450839	0.737481
C99	C	0.024234	1.784172	1.070814
O100	O	-0.614152	1.157764	0.444437
O101	O	-0.280819	1.491098	0.777770
O102	O	0.052514	1.824431	1.111103
N103	N	-0.615168	1.070159	0.356747
N104	N	-0.281834	1.403492	0.690081
N105	N	0.051499	1.736826	1.023414
C106	C	-0.642511	1.022836	0.309344
C107	C	-0.309177	1.356170	0.642678
C108	C	0.024156	1.689503	0.976011
O109	O	-0.614306	0.982563	0.269026
O110	O	-0.280973	1.315896	0.602359
O111	O	0.052361	1.649229	0.935692
C112	C	-0.697114	1.022863	0.309347
C113	C	-0.363781	1.356196	0.642680
C114	C	-0.030447	1.689530	0.976013
C115	C	-0.724375	1.070208	0.356755
C116	C	-0.391042	1.403541	0.690089
C117	C	-0.057709	1.736874	1.023422
C118	C	-0.724298	1.164869	0.451557
C119	C	-0.390965	1.498203	0.784891
C120	C	-0.057631	1.831536	1.118224
C121	C	-0.778899	1.164891	0.451564
C122	C	-0.445565	1.498224	0.784897
C123	C	-0.112232	1.831557	1.118230
C124	C	-0.806238	1.117570	0.404166
C125	C	-0.472904	1.450904	0.737499
C126	C	-0.139571	1.784237	1.070832
C127	C	-0.778976	1.070229	0.356762
C128	C	-0.445643	1.403562	0.690095
C129	C	-0.112309	1.736895	1.023428
C130	C	-0.724456	0.975545	0.261941
C131	C	-0.391122	1.308878	0.595274
C132	C	-0.057789	1.642211	0.928607
C133	C	-0.779063	0.975576	0.261947
C134	C	-0.445729	1.308909	0.595280
C135	C	-0.112396	1.642242	0.928613
C136	C	-0.806324	1.022921	0.309355
C137	C	-0.472991	1.356254	0.642689
C138	C	-0.139658	1.689587	0.976022
C139	C	-0.860915	1.022929	0.309370
C140	C	-0.527582	1.356263	0.642704
C141	C	-0.194249	1.689596	0.976037
N142	N	-0.888180	1.070276	0.356770
N143	N	-0.554846	1.403610	0.690104
N144	N	-0.221513	1.736943	1.023437
C145	C	-0.860841	1.117597	0.404168
C146	C	-0.527508	1.450930	0.737502
C147	C	-0.194174	1.784263	1.070835
C148	C	-0.527840	1.022785	0.309342
C149	C	-0.194507	1.356119	0.642675
C150	C	0.138827	1.689452	0.976009
C151	C	-0.473238	1.022754	0.309343
C152	C	-0.139904	1.356088	0.642676
C153	C	0.193429	1.689421	0.976009
C154	C	-0.473163	1.117425	0.404145
C155	C	-0.139830	1.450758	0.737478
C156	C	0.193504	1.784092	1.070812
C157	C	-0.527766	1.117451	0.404147
C158	C	-0.194433	1.450785	0.737481
C159	C	0.138900	1.784118	1.070814
C160	C	-0.555104	1.070132	0.356742
C161	C	-0.221771	1.403465	0.690075
C162	C	0.111562	1.736799	1.023409
C163	C	-0.975506	1.117637	0.404179
C164	C	-0.642173	1.450970	0.737512
C165	C	-0.308839	1.784304	1.070845
C166	C	-1.030111	1.117652	0.404183
C167	C	-0.696778	1.450985	0.737516
C168	C	-0.363445	1.784318	1.070850
C169	C	-1.030181	1.022984	0.309378
C170	C	-0.696848	1.356318	0.642711
C171	C	-0.363514	1.689651	0.976045
C172	C	-0.975581	1.022966	0.309376
C173	C	-0.642247	1.356300	0.642709
C174	C	-0.308914	1.689633	0.976043
C175	C	-0.948244	1.070299	0.356779
C176	C	-0.614911	1.403632	0.690112
C177	C	-0.281578	1.736965	1.023446
O178	O	-0.889230	0.982693	0.269099
O179	O	-0.555897	1.316027	0.602433
O180	O	-0.222563	1.649360	0.935766
O181	O	-0.889052	1.157871	0.444473
O182	O	-0.555719	1.491204	0.777806
O183	O	-0.222385	1.824537	1.111140
C184	C	-0.115564	1.070279	0.356771
C185	C	0.217769	1.403612	0.690104
C186	C	0.551102	1.736946	1.023438
C187	C	-0.057450	1.070331	0.356785
C188	C	0.275883	1.403665	0.690118
C189	C	0.609216	1.736998	1.023452
C190	C	-0.251924	1.070199	0.549900
C191	C	0.081409	1.403532	0.883233
C192	C	0.414743	1.736866	1.216566
C193	C	-0.251918	1.070217	0.632214
C194	C	0.081415	1.403550	0.965547
C195	C	0.414748	1.736884	1.298880
C196	C	-0.251952	1.263318	0.356743
C197	C	0.081381	1.596651	0.690076
C198	C	0.414715	1.929985	1.023410
C199	C	-0.251958	1.345632	0.356746
C200	C	0.081375	1.678965	0.690079
C201	C	0.414708	2.012299	1.023412
C202	C	-0.251913	1.070156	0.164327
C203	C	0.081421	1.403489	0.497660
C204	C	0.414754	1.736823	0.830994
C205	C	-0.251771	1.070281	0.082013
C206	C	0.081562	1.403615	0.415347
C207	C	0.414896	1.736948	0.748680
C208	C	-0.251820	1.070260	0.931305
C209	C	0.081513	1.403594	1.264638
C210	C	0.414846	1.736927	1.597972
C211	C	-0.292094	1.012794	0.899968
C212	C	0.041239	1.346127	1.233301
C213	C	0.374572	1.679460	1.566635
C214	C	-0.292281	1.012949	0.814350
C215	C	0.041052	1.346282	1.147683
C216	C	0.374386	1.679616	1.481016
C217	C	-0.251869	1.070238	0.782922
C218	C	0.081464	1.403572	1.116256
C219	C	0.414798	1.736905	1.449589
C220	C	-0.266827	1.148263	0.814015
C221	C	0.066506	1.481597	1.147349
C222	C	0.399840	1.814930	1.480682
C223	C	-0.267091	1.147943	0.899661
C224	C	0.066242	1.481276	1.232994
C225	C	0.399575	1.814610	1.566327
C226	C	-0.196499	1.050380	0.899728
C227	C	0.136834	1.383714	1.233062
C228	C	0.470167	1.717047	1.566395
C229	C	-0.196819	1.048644	0.814078
C230	C	0.136514	1.381977	1.147411
C231	C	0.469848	1.715311	1.480744
C232	C	-0.251896	1.070231	0.699063
C233	C	0.081438	1.403564	1.032396
C234	C	0.414771	1.736897	1.365729
C235	C	-0.251795	1.070273	1.015164
C236	C	0.081538	1.403607	1.348498
C237	C	0.414871	1.736940	1.681831
H238	H	-0.333119	0.634857	0.400561
H239	H	0.000214	0.968191	0.733894
H240	H	0.333548	1.301524	1.067227
H241	H	-0.185898	0.507261	0.436299
H242	H	0.147436	0.840594	0.769632
H243	H	0.480769	1.173927	1.102966
O244	O	-0.694822	1.215920	0.502683
O245	O	-0.361488	1.549254	0.836016
O246	O	-0.028155	1.882587	1.169349
H247	H	-0.669954	1.182750	0.540337
H248	H	-0.336621	1.516083	0.873670
H249	H	-0.003287	1.849417	1.207003
O250	O	-0.557171	1.168516	0.455277
O251	O	-0.223837	1.501849	0.788611
O252	O	0.109496	1.835183	1.121944
H253	H	-0.546659	1.226641	0.442621
H254	H	-0.213325	1.559974	0.775954
H255	H	0.120008	1.893307	1.109288
O256	O	-0.346811	0.500568	0.395843
O257	O	-0.013477	0.833901	0.729176
O258	O	0.319856	1.167234	1.062510
H259	H	-0.361584	0.466532	0.442352
H260	H	-0.028251	0.799866	0.775685
H261	H	0.305082	1.133199	1.109018
H262	H	-0.238415	1.192230	0.793660
H263	H	0.094918	1.525563	1.126993
H264	H	0.428252	1.858897	1.460326
O265	O	-0.181866	0.972593	0.787149
O266	O	0.151468	1.305926	1.120482
O267	O	0.484801	1.639260	1.453816
H268	H	-0.213505	0.950261	0.751720
H269	H	0.119829	1.283595	1.085054
H270	H	0.453162	1.616928	1.418387
O271	O	-0.154964	1.100054	0.785753
O272	O	0.178369	1.433387	1.119086
O273	O	0.511702	1.766720	1.452420
H274	H	-0.135866	1.128089	0.833128
H275	H	0.197467	1.461422	1.166461
H276	H	0.530801	1.794755	1.499794
O277	O	-0.156748	1.105815	0.926574
O278	O	0.176585	1.439148	1.259907
O279	O	0.509919	1.772482	1.593240
H280	H	-0.176263	1.147327	0.962233
H281	H	0.157070	1.480660	1.295566
H282	H	0.490403	1.813994	1.628899
O283	O	-0.443672	1.168474	0.455262
O284	O	-0.110338	1.501808	0.788596
O285	O	0.222995	1.835141	1.121929
H286	H	-0.401124	1.160505	0.447285
H287	H	-0.067790	1.493838	0.780618
H288	H	0.265543	1.827172	1.113951
H289	H	-0.801318	0.937043	0.223342
H290	H	-0.467985	1.270376	0.556675
H291	H	-0.134652	1.603709	0.890008
O292	O	-0.946030	1.168691	0.455304
O293	O	-0.612696	1.502025	0.788637
O294	O	-0.279363	1.835358	1.121971
H295	H	-0.921159	1.135520	0.492953
H296	H	-0.587825	1.468853	0.826287
H297	H	-0.254492	1.802187	1.159620
H298	H	-0.306838	1.165408	0.792573
H299	H	0.026496	1.498741	1.125907
H300	H	0.359829	1.832075	1.459240
O301	O	-0.156748	0.640083	0.321965
O302	O	0.176585	0.973416	0.655298
O303	O	0.509919	1.306750	0.988631
H304	H	-0.126215	0.672306	0.351185
H305	H	0.207118	1.005640	0.684518
H306	H	0.540452	1.338973	1.017852
O307	O	-0.320427	0.639462	0.256189
O308	O	0.012907	0.972796	0.589522
O309	O	0.346240	1.306129	0.922856
H310	H	-0.345848	0.591070	0.245060
H311	H	-0.012515	0.924403	0.578394
H312	H	0.320819	1.257736	0.911727
H313	H	-0.283403	0.506757	0.471643
H314	H	0.049931	0.840091	0.804976
H315	H	0.383264	1.173424	1.138309
H316	H	-0.238717	0.633778	0.234906
H317	H	0.094616	0.967111	0.568240
H318	H	0.427950	1.300445	0.901573
H319	H	-1.052450	0.984455	0.270790
H320	H	-0.719117	1.317789	0.604123
H321	H	-0.385784	1.651122	0.937457
H322	H	-0.306589	0.505913	0.261136
H323	H	0.026744	0.839246	0.594469
H324	H	0.360078	1.172579	0.927802
H325	H	-0.550095	0.984245	0.270741
H326	H	-0.216762	1.317579	0.604074
H327	H	0.116571	1.650912	0.937407
H328	H	-0.238073	0.507047	0.234867
H329	H	0.095260	0.840380	0.568201
H330	H	0.428593	1.173714	0.901534
H331	H	-0.283345	0.633991	0.471992
H332	H	0.049988	0.967324	0.805325
H333	H	0.383321	1.300658	1.138659
H334	H	-0.165243	0.506173	0.340245
H335	H	0.168090	0.839506	0.673578
H336	H	0.501424	1.172840	1.006911
O337	O	-0.443836	0.971690	0.258210
O338	O	-0.110502	1.305024	0.591543
O339	O	0.222831	1.638357	0.924876
H340	H	-0.472025	0.938798	0.225250
H341	H	-0.138692	1.272131	0.558583
H342	H	0.194642	1.605464	0.891916
H343	H	-0.953384	0.984407	0.270779
H344	H	-0.620050	1.317740	0.604113
H345	H	-0.286717	1.651073	0.937446
O346	O	-0.279820	0.935918	0.927237
O347	O	0.053513	1.269251	1.260571
O348	O	0.386847	1.602585	1.593904
H349	H	-0.313548	0.914238	0.958978
H350	H	0.019785	1.247571	1.292312
H351	H	0.353118	1.580904	1.625645
H352	H	-0.282921	0.955090	0.793327
H353	H	0.050413	1.288424	1.126660
H354	H	0.383746	1.621757	1.459993
O355	O	-0.320661	1.170257	0.926133
O356	O	0.012672	1.503591	1.259466
O357	O	0.346006	1.836924	1.592799
H358	H	-0.317524	1.221006	0.960278
H359	H	0.015809	1.554339	1.293612
H360	H	0.349142	1.887673	1.626945
H361	H	-0.702267	0.936993	0.223336
H362	H	-0.368934	1.270326	0.556669
H363	H	-0.035600	1.603660	0.890003
H364	H	-0.332850	1.025788	0.921494
H365	H	0.000484	1.359122	1.254828
H366	H	0.333817	1.692455	1.588161
O367	O	-0.178887	0.641848	0.451272
O368	O	0.154446	0.975182	0.784606
O369	O	0.487779	1.308515	1.117939
H370	H	-0.209237	0.678873	0.474496
H371	H	0.124096	1.012207	0.807829
H372	H	0.457430	1.345540	1.141163
O373	O	-0.346611	1.030238	0.787208
O374	O	-0.013278	1.363572	1.120542
O375	O	0.320055	1.696905	1.453875
H376	H	-0.372850	1.038544	0.835256
H377	H	-0.039517	1.371878	1.168589
H378	H	0.293816	1.705211	1.501922
O379	O	-0.229934	1.206590	0.927131
O380	O	0.103399	1.539923	1.260464
O381	O	0.436733	1.873257	1.593797
H382	H	-0.211859	1.235058	0.879241
H383	H	0.121474	1.568392	1.212574
H384	H	0.454808	1.901725	1.545907
H385	H	-1.052305	1.156204	0.442793
H386	H	-0.718972	1.489538	0.776126
H387	H	-0.385639	1.822871	1.109460
H388	H	-0.182872	0.994473	0.921323
H389	H	0.150461	1.327807	1.254656
H390	H	0.483795	1.661140	1.587990
O391	O	-0.808300	1.215961	0.502691
O392	O	-0.474966	1.549295	0.836024
O393	O	-0.141633	1.882628	1.169357
H394	H	-0.780108	1.248863	0.535638
H395	H	-0.446775	1.582196	0.868972
H396	H	-0.113442	1.915530	1.202305
