data_functionalizedCrystal
_audit_creation_method	'MofGen! by Chris Wilmer'
_symmetry_space_group_name_H-M	'P1'
_symmetry_Int_Tables_number	1
_symmetry_cell_setting	triclinic
loop_
_symmetry_equiv_pos_as_xyz
  x,y,z
_cell_length_a	14.519710
_cell_length_b	17.699083
_cell_length_c	16.176319
_cell_angle_alpha	90.007696
_cell_angle_beta	89.993531
_cell_angle_gamma	96.518420
loop_
_atom_site_label
_atom_site_type_symbol
_atom_site_fract_x
_atom_site_fract_y
_atom_site_fract_z
O1	O	1.223449	-0.099216	-0.068730
O2	O	1.723449	0.400784	0.431270
O3	O	0.954923	-0.110899	-0.068736
O4	O	1.454923	0.389101	0.431264
O5	O	1.096773	0.005110	-0.068726
O6	O	1.596773	0.505110	0.431274
O7	O	1.081600	-0.215225	-0.068741
O8	O	1.581600	0.284775	0.431259
O9	O	1.096753	0.005118	0.068768
O10	O	1.596753	0.505118	0.568768
O11	O	0.954903	-0.110892	0.068757
O12	O	1.454903	0.389108	0.568757
O13	O	1.223430	-0.099208	0.068763
O14	O	1.723430	0.400792	0.568763
Cu15	Cu	1.089165	-0.105049	0.081314
Cu16	Cu	1.589165	0.394951	0.581314
Cu17	Cu	1.089188	-0.105058	-0.081287
Cu18	Cu	1.589188	0.394942	0.418713
O19	O	1.081580	-0.215217	0.068753
O20	O	1.581580	0.284783	0.568753
C21	C	1.096219	0.033312	0.000021
C22	C	1.596219	0.533312	0.500021
C23	C	1.094588	0.117335	0.000021
C24	C	1.594588	0.617335	0.500021
C25	C	0.920556	-0.110351	0.000010
C26	C	1.420556	0.389649	0.500010
C27	C	0.818181	-0.108719	0.000008
C28	C	1.318181	0.391281	0.500008
C29	C	1.257797	-0.099756	0.000015
C30	C	1.757797	0.400244	0.500015
C31	C	1.360171	-0.101388	0.000012
C32	C	1.860171	0.398612	0.500012
C33	C	1.735042	-0.107395	0.000011
C34	C	2.235042	0.392605	0.500011
C35	C	1.630741	-0.105727	0.000011
C36	C	2.130741	0.394273	0.500011
C37	C	1.547610	-0.104392	0.000011
C38	C	2.047610	0.395608	0.500011
C39	C	1.443302	-0.102723	0.000012
C40	C	1.943302	0.397277	0.500012
C41	C	1.082134	-0.243420	0.000004
C42	C	1.582134	0.256580	0.500004
C43	C	1.083765	-0.327442	-0.000002
C44	C	1.583765	0.172558	0.499998
N45	N	1.089155	-0.105043	0.195680
N46	N	1.589155	0.394957	0.695680
C47	C	1.177851	0.165718	0.000024
C48	C	1.677851	0.665718	0.500024
C49	C	1.176313	0.244665	0.000017
C50	C	1.676313	0.744665	0.500017
C51	C	1.091511	0.275229	0.000013
C52	C	1.591511	0.775229	0.500013
C53	C	1.008242	0.226840	0.000007
C54	C	1.508242	0.726840	0.500007
C55	C	1.009781	0.147894	0.000009
C56	C	1.509781	0.647894	0.500009
C57	C	1.002033	0.545221	0.000000
C58	C	1.502033	1.045221	0.500000
C59	C	1.000501	0.624173	0.000001
C60	C	1.500501	1.124173	0.500001
C61	C	1.168566	0.641992	0.000009
C62	C	1.668566	1.141992	0.500009
C63	C	1.170105	0.563046	0.000010
C64	C	1.670105	1.063046	0.500010
C65	C	1.086836	0.514664	0.000000
C66	C	1.586836	1.014664	0.500000
C67	C	1.088505	0.429060	0.000007
C68	C	1.588505	0.929060	0.500007
C69	C	1.089841	0.360831	0.000012
C70	C	1.589841	0.860831	0.500012
N71	N	1.089205	-0.105059	-0.195653
N72	N	1.589205	0.394941	0.304347
C73	C	1.151985	-0.053695	0.238948
C74	C	1.651985	0.446305	0.738948
C75	C	1.151990	-0.053694	0.325495
C76	C	1.651990	0.446306	0.825495
C77	C	1.089168	-0.105045	0.368772
C78	C	1.589168	0.394955	0.868772
C79	C	1.026332	-0.156396	0.325497
C80	C	1.526332	0.343604	0.825497
C81	C	1.026323	-0.156392	0.238952
C82	C	1.526323	0.343608	0.738952
C83	C	1.026363	-0.156410	0.674526
C84	C	1.526363	0.343590	1.174526
C85	C	1.026378	-0.156411	0.761077
C86	C	1.526378	0.343589	1.261077
C87	C	1.152030	-0.053712	0.761069
C88	C	1.652030	0.446288	1.261069
C89	C	1.152022	-0.053708	0.674524
C90	C	1.652022	0.446292	1.174524
C91	C	1.089182	-0.105055	0.631256
C92	C	1.589182	0.394945	1.131256
C93	C	1.089177	-0.105055	0.537412
C94	C	1.589177	0.394945	1.037412
C95	C	1.089178	-0.105050	0.462615
C96	C	1.589178	0.394950	0.962615
H97	H	1.244114	0.284056	0.000021
H98	H	1.744114	0.784056	0.500021
H99	H	0.975199	-0.198220	0.639304
H100	H	1.475199	0.301780	1.139304
N101	N	1.264468	0.134489	0.000020
N102	N	1.764468	0.634489	0.500020
N103	N	1.265834	0.064001	0.000019
N104	N	1.765834	0.564001	0.500019
H105	H	1.327009	0.041947	0.000013
H106	H	1.827009	0.541947	0.500013
N107	N	1.256736	0.531840	0.000023
N108	N	1.756736	1.031840	0.500023
N109	N	1.331073	0.575048	0.000024
N110	N	1.831073	1.075048	0.500024
H111	H	1.392259	0.553011	0.000031
H112	H	1.892259	1.053011	0.500031
H113	H	1.236367	0.681395	0.000012
H114	H	1.736367	1.181395	0.500012
H115	H	1.203150	-0.011882	0.360724
H116	H	1.703150	0.488118	0.860724
H117	H	0.931441	0.649055	-0.000001
H118	H	1.431441	1.149055	0.499999
H119	H	0.934231	0.505837	-0.000007
H120	H	1.434231	1.005837	0.499993
H121	H	0.939195	0.251731	-0.000002
H122	H	1.439195	0.751731	0.499998
H123	H	0.975177	-0.198204	0.360738
H124	H	1.475177	0.301796	0.860738
H125	H	1.203195	-0.011899	0.796307
H126	H	1.703195	0.488101	1.296307
N127	N	0.924721	0.098481	-0.000005
N128	N	1.424721	0.598481	0.499995
N129	N	0.849010	0.125777	-0.000014
N130	N	1.349010	0.625777	0.499986
H131	H	0.788933	0.090879	-0.000029
H132	H	1.288933	0.590879	0.499971
N133	N	1.216115	-0.001194	0.194759
N134	N	1.716115	0.498806	0.694759
N135	N	1.272170	0.044679	0.233407
N136	N	1.772170	0.544679	0.733407
H137	H	1.317442	0.081779	0.202201
H138	H	1.817442	0.581779	0.702201
H139	H	1.203180	-0.011896	0.639290
H140	H	1.703180	0.488104	1.139290
H141	H	0.975218	-0.198229	0.796312
H142	H	1.475218	0.301771	1.296312
H143	H	0.975160	-0.198204	0.203723
H144	H	1.475160	0.301796	0.703723
