data_functionalizedCrystal
_audit_creation_method	'MofGen! by Chris Wilmer'
_symmetry_space_group_name_H-M	'P1'
_symmetry_Int_Tables_number	1
_symmetry_cell_setting	triclinic
loop_
_symmetry_equiv_pos_as_xyz
  x,y,z
_cell_length_a	12.759401
_cell_length_b	25.639240
_cell_length_c	25.639234
_cell_angle_alpha	89.968234
_cell_angle_beta	89.984920
_cell_angle_gamma	90.033035
loop_
_atom_site_label
_atom_site_type_symbol
_atom_site_fract_x
_atom_site_fract_y
_atom_site_fract_z
Zn1	Zn	1.606088	-0.208180	-0.295550
Zn2	Zn	2.106088	0.291820	0.204450
Zn3	Zn	1.605937	-0.295608	-0.208103
Zn4	Zn	2.105937	0.204392	0.291897
Zn5	Zn	1.430400	-0.208189	-0.208132
Zn6	Zn	1.930400	0.291811	0.291868
Zn7	Zn	1.430323	-0.295587	-0.295511
Zn8	Zn	1.930323	0.204413	0.204489
O9	O	1.518187	-0.251891	-0.251824
O10	O	2.018187	0.248109	0.248176
O11	O	1.753089	-0.219783	-0.283954
O12	O	2.253089	0.280217	0.216046
O13	O	1.582621	-0.284024	-0.134942
O14	O	2.082621	0.215976	0.365058
O15	O	1.453801	-0.135023	-0.219757
O16	O	1.953801	0.364977	0.280243
O17	O	1.752978	-0.284016	-0.219707
O18	O	2.252978	0.215984	0.280293
O19	O	1.582878	-0.135016	-0.283982
O20	O	2.082878	0.364984	0.216018
O21	O	1.453655	-0.219798	-0.134963
O22	O	1.953655	0.280202	0.365037
O23	O	1.283369	-0.219777	-0.219719
O24	O	1.783369	0.280223	0.280281
O25	O	1.453669	-0.283980	-0.368682
O26	O	1.953669	0.216020	0.131318
O27	O	1.283312	-0.283988	-0.283916
O28	O	1.783312	0.216012	0.216084
O29	O	1.582803	-0.219763	-0.368710
O30	O	2.082803	0.280237	0.131290
O31	O	1.582546	-0.368771	-0.219670
O32	O	2.082546	0.131229	0.280330
O33	O	1.453523	-0.368755	-0.283888
O34	O	1.953523	0.131245	0.216112
C35	C	1.245220	-0.251882	-0.251817
C36	C	1.745220	0.248118	0.248183
C37	C	1.128443	-0.251890	-0.251826
C38	C	1.628443	0.248110	0.248174
C39	C	0.963848	-0.285384	-0.285205
C40	C	1.463848	0.214616	0.214795
C41	C	1.073572	-0.285378	-0.285199
C42	C	1.573572	0.214622	0.214801
C43	C	1.073584	-0.218410	-0.218453
C44	C	1.573584	0.281590	0.281547
C45	C	0.963862	-0.218419	-0.218456
C46	C	1.463862	0.281581	0.281544
C47	C	1.518039	-0.387734	-0.251783
C48	C	2.018039	0.112266	0.248217
C49	C	1.518071	-0.445848	-0.251783
C50	C	2.018071	0.054152	0.248217
C51	C	1.585431	-0.806169	-0.285327
C52	C	2.085431	-0.306169	0.214673
C53	C	1.585462	-0.860773	-0.285337
C54	C	2.085462	-0.360773	0.214663
O55	O	1.642556	-0.888975	-0.313815
O56	O	2.142556	-0.388975	0.186185
N57	N	1.518333	-0.888130	-0.251875
N58	N	2.018333	-0.388130	0.248125
C59	C	1.451161	-0.860880	-0.218403
C60	C	1.951161	-0.360880	0.281597
O61	O	1.394065	-0.889163	-0.189942
O62	O	1.894065	-0.389163	0.310058
C63	C	1.451125	-0.806277	-0.218396
C64	C	1.951125	-0.306277	0.281604
C65	C	1.518266	-0.778923	-0.251857
C66	C	2.018266	-0.278923	0.248143
C67	C	1.652565	-0.778815	-0.318786
C68	C	2.152565	-0.278815	0.181214
C69	C	1.652535	-0.724214	-0.318774
C70	C	2.152535	-0.224214	0.181226
C71	C	1.585371	-0.696968	-0.285304
C72	C	2.085371	-0.196968	0.214696
C73	C	1.518236	-0.724322	-0.251845
C74	C	2.018236	-0.224322	0.248155
C75	C	1.383949	-0.779027	-0.184927
C76	C	1.883949	-0.279027	0.315073
C77	C	1.383919	-0.724420	-0.184922
C78	C	1.883919	-0.224420	0.315078
C79	C	1.451060	-0.697066	-0.218383
C80	C	1.951060	-0.197066	0.281617
C81	C	1.451042	-0.642475	-0.218363
C82	C	1.951042	-0.142475	0.281637
N83	N	1.518171	-0.615118	-0.251826
N84	N	2.018171	-0.115118	0.248174
C85	C	1.585335	-0.642365	-0.285296
C86	C	2.085335	-0.142365	0.214704
C87	C	1.451239	-0.975550	-0.218422
C88	C	1.951239	-0.475550	0.281578
C89	C	1.451279	-1.030153	-0.218427
C90	C	1.951279	-0.530153	0.281573
C91	C	1.585579	-1.030043	-0.285362
C92	C	2.085579	-0.530043	0.214638
C93	C	1.585543	-0.975439	-0.285354
C94	C	2.085543	-0.475439	0.214646
C95	C	1.518368	-0.948194	-0.251885
C96	C	2.018368	-0.448194	0.248115
C97	C	1.585268	-0.527700	-0.285269
C98	C	2.085268	-0.027700	0.214731
C99	C	1.585235	-0.473094	-0.285253
C100	C	2.085235	0.026906	0.214747
C101	C	1.450933	-0.473209	-0.218321
C102	C	1.950933	0.026791	0.281679
C103	C	1.450969	-0.527810	-0.218334
C104	C	1.950969	-0.027810	0.281666
C105	C	1.518140	-0.555054	-0.251813
C106	C	2.018140	-0.055054	0.248187
O107	O	1.393973	-0.614239	-0.189902
O108	O	1.893973	-0.114239	0.310098
O109	O	1.642412	-0.614075	-0.313758
O110	O	2.142412	-0.114075	0.186242
C111	C	1.792220	-0.251901	-0.251832
C112	C	2.292220	0.248099	0.248168
C113	C	1.908997	-0.251905	-0.251835
C114	C	2.408997	0.248095	0.248165
C115	C	1.518244	-0.251868	-0.388197
C116	C	2.018244	0.248132	0.111803
C117	C	1.518268	-0.251858	-0.446311
C118	C	2.018268	0.248142	0.053689
C119	C	1.518365	-0.115518	-0.251877
C120	C	2.018365	0.384482	0.248123
C121	C	1.518440	-0.057404	-0.251899
C122	C	2.018440	0.442596	0.248101
C123	C	1.585449	-0.285258	-0.697486
C124	C	2.085449	0.214742	-0.197486
C125	C	1.585438	-0.285269	-0.642882
C126	C	2.085438	0.214731	-0.142882
O127	O	1.642508	-0.313724	-0.614629
O128	O	2.142508	0.186276	-0.114629
N129	N	1.518291	-0.251833	-0.615585
N130	N	2.018291	0.248167	-0.115585
C131	C	1.451144	-0.218387	-0.642896
C132	C	1.951144	0.281613	-0.142896
O133	O	1.394029	-0.189949	-0.614664
O134	O	1.894029	0.310051	-0.114664
C135	C	1.451150	-0.218380	-0.697499
C136	C	1.951150	0.281620	-0.197499
C137	C	1.518309	-0.251814	-0.724793
C138	C	2.018309	0.248186	-0.224793
C139	C	1.652601	-0.318690	-0.724780
C140	C	2.152601	0.181310	-0.224780
C141	C	1.652613	-0.318678	-0.779381
C142	C	2.152613	0.181322	-0.279381
C143	C	1.585473	-0.285235	-0.806687
C144	C	2.085473	0.214765	-0.306687
C145	C	1.518321	-0.251802	-0.779394
C146	C	2.018321	0.248198	-0.279394
C147	C	1.383998	-0.184937	-0.724809
C148	C	1.883998	0.315063	-0.224809
C149	C	1.384010	-0.184932	-0.779416
C150	C	1.884010	0.315068	-0.279416
C151	C	1.451169	-0.218367	-0.806710
C152	C	1.951169	0.281633	-0.306710
C153	C	1.451193	-0.218347	-0.861301
C154	C	1.951193	0.281653	-0.361301
N155	N	1.518340	-0.251783	-0.888597
N156	N	2.018340	0.248217	-0.388597
C157	C	1.585480	-0.285227	-0.861291
C158	C	2.085480	0.214773	-0.361291
C159	C	1.451134	-0.218407	-0.528225
C160	C	1.951134	0.281593	-0.028225
C161	C	1.451132	-0.218412	-0.473623
C162	C	1.951132	0.281588	0.026377
C163	C	1.585425	-0.285294	-0.473613
C164	C	2.085425	0.214706	0.026387
C165	C	1.585431	-0.285287	-0.528216
C166	C	2.085431	0.214713	-0.028216
C167	C	1.518280	-0.251843	-0.555522
C168	C	2.018280	0.248157	-0.055522
C169	C	1.585501	-0.285199	-0.975956
C170	C	2.085501	0.214801	-0.475956
C171	C	1.585510	-0.285183	-1.030561
C172	C	2.085510	0.214817	-0.530561
C173	C	1.451214	-0.218303	-1.030567
C174	C	1.951214	0.281697	-0.530567
C175	C	1.451208	-0.218317	-0.975966
C176	C	1.951208	0.281683	-0.475966
C177	C	1.518355	-0.251769	-0.948662
C178	C	2.018355	0.248231	-0.448662
O179	O	1.394149	-0.189907	-0.889588
O180	O	1.894149	0.310093	-0.389588
O181	O	1.642575	-0.313665	-0.889529
O182	O	2.142575	0.186335	-0.389529
C183	C	1.518191	-0.251876	-0.115982
C184	C	2.018191	0.248124	0.384018
C185	C	1.518370	-0.251739	-0.057868
C186	C	2.018370	0.248261	0.442132
H187	H	0.919180	-0.312651	-0.312384
H188	H	1.419180	0.187349	0.187616
F189	F	1.131943	-0.321012	-0.320715
F190	F	1.631943	0.178988	0.179285
H191	H	1.118269	-0.191146	-0.191278
H192	H	1.618269	0.308854	0.308722
F193	F	0.905482	-0.182786	-0.182936
F194	F	1.405482	0.317214	0.317064
F195	F	1.379456	-0.444202	-0.182700
F196	F	1.879456	0.055798	0.317300
F197	F	1.312485	-0.808128	-0.149314
F198	F	1.812485	-0.308128	0.350686
F199	F	1.656701	-0.443985	-0.320868
F200	F	2.156701	0.056015	0.179132
F201	F	1.656761	-0.556687	-0.320900
F202	F	2.156761	-0.056687	0.179100
F203	F	1.723990	-0.695109	-0.354391
F204	F	2.223990	-0.195109	0.145609
F205	F	1.724053	-0.807805	-0.354414
F206	F	2.224053	-0.307805	0.145586
H207	H	1.329327	-0.157698	-0.801645
H208	H	1.829327	0.342302	-0.301645
F209	F	1.657002	-0.946332	-0.320968
F210	F	2.157002	-0.446332	0.179032
H211	H	1.640266	-1.052237	-0.312616
H212	H	2.140266	-0.552237	0.187384
H213	H	1.396618	-1.052420	-0.191174
H214	H	1.896618	-0.552420	0.308826
H215	H	1.640185	-0.312436	-0.953731
H216	H	2.140185	0.187564	-0.453731
H217	H	1.396540	-0.953370	-0.191163
H218	H	1.896540	-0.453370	0.308837
F219	F	1.724083	-0.354269	-0.808422
F220	F	2.224083	0.145731	-0.308422
F221	F	1.312419	-0.695427	-0.149299
F222	F	1.812419	-0.195427	0.350701
F223	F	1.656878	-0.320891	-0.444541
F224	F	2.156878	0.179109	0.055459
F225	F	1.379524	-0.556923	-0.182715
F226	F	1.879524	-0.056923	0.317285
F227	F	1.656993	-0.320769	-1.059606
F228	F	2.156993	0.179231	-0.559606
F229	F	1.724066	-0.354289	-0.695726
F230	F	2.224066	0.145711	-0.195726
H231	H	1.640117	-0.312512	-0.550435
H232	H	2.140117	0.187488	-0.050435
F233	F	1.379666	-0.182820	-0.444581
F234	F	1.879666	0.317180	0.055419
F235	F	1.379764	-0.182710	-1.059638
F236	F	1.879764	0.317290	-0.559638
H237	H	1.396455	-0.191169	-0.550454
H238	H	1.896455	0.308831	-0.050454
F239	F	1.312517	-0.149351	-0.695772
F240	F	1.812517	0.350649	-0.195772
F241	F	1.379742	-0.182727	-0.946917
F242	F	1.879742	0.317273	-0.446917
