data_functionalizedCrystal
_audit_creation_method	'MofGen! by Chris Wilmer'
_symmetry_space_group_name_H-M	'P1'
_symmetry_Int_Tables_number	1
_symmetry_cell_setting	triclinic
loop_
_symmetry_equiv_pos_as_xyz
  x,y,z
_cell_length_a	19.805405
_cell_length_b	19.805407
_cell_length_c	19.805399
_cell_angle_alpha	90.020409
_cell_angle_beta	90.029301
_cell_angle_gamma	90.028350
loop_
_atom_site_label
_atom_site_type_symbol
_atom_site_fract_x
_atom_site_fract_y
_atom_site_fract_z
Zn1	Zn	-0.269444	1.034736	0.382727
Zn2	Zn	-0.382632	1.034651	0.269535
Zn3	Zn	-0.269466	0.921550	0.269550
Zn4	Zn	-0.382600	0.921514	0.382680
O5	O	-0.326036	0.978113	0.326123
O6	O	-0.284463	1.129441	0.367725
O7	O	-0.367643	1.019627	0.174820
O8	O	-0.174747	0.936616	0.284588
O9	O	-0.367622	1.129378	0.284564
O10	O	-0.174730	1.019772	0.367739
O11	O	-0.284501	0.936533	0.174831
O12	O	-0.284470	0.826829	0.284543
O13	O	-0.367567	0.936553	0.477403
O14	O	-0.367589	0.826802	0.367660
O15	O	-0.284431	1.019737	0.477437
O16	O	-0.477345	1.019592	0.284518
O17	O	-0.477321	0.936471	0.367646
C18	C	-0.326029	0.802257	0.326098
C19	C	-0.326042	0.727025	0.326104
C20	C	-0.282816	0.265270	0.369517
C21	C	-0.282817	0.335958	0.369513
C22	C	-0.326046	0.371263	0.326145
C23	C	-0.369281	0.335876	0.282784
C24	C	-0.369283	0.265188	0.282793
C25	C	-0.369276	0.620949	0.282748
C26	C	-0.369270	0.691641	0.282741
C27	C	-0.282810	0.691719	0.369468
C28	C	-0.282812	0.621031	0.369477
C29	C	-0.326049	0.585650	0.326119
C30	C	-0.326048	0.509002	0.326125
C31	C	-0.326044	0.447910	0.326134
C32	C	-0.501892	0.978036	0.326090
C33	C	-0.577124	0.978066	0.326099
C34	C	-0.612458	1.021389	0.282860
C35	C	-0.683146	1.021418	0.282875
C36	C	-0.718499	0.978119	0.326126
C37	C	-0.683160	0.934794	0.369370
C38	C	-0.612473	0.934769	0.369357
C39	C	-0.968233	0.934894	0.369420
C40	C	-1.038926	0.934921	0.369427
C41	C	-1.038906	1.021542	0.282937
C42	C	-0.968219	1.021518	0.282925
C43	C	-0.932886	0.978195	0.326171
C44	C	-0.856238	0.978166	0.326155
C45	C	-0.795146	0.978145	0.326139
C46	C	-0.149493	0.978207	0.326171
C47	C	-0.074261	0.978248	0.326191
C48	C	-0.325993	0.978151	0.502666
C49	C	-0.325975	0.978167	0.577898
C50	C	-0.326043	1.154655	0.326148
C51	C	-0.326046	1.229887	0.326158
C52	C	-0.326029	0.978114	0.150267
C53	C	-0.325857	0.978229	0.075035
C54	C	-0.282684	1.021481	0.613261
C55	C	-0.282664	1.021488	0.683949
C56	C	-0.325939	0.978184	0.719273
C57	C	-0.369232	0.934864	0.683905
C58	C	-0.369248	0.934854	0.613218
C59	C	-0.369169	0.934902	0.968979
C60	C	-0.369151	0.934917	1.039671
C61	C	-0.282586	1.021536	1.039710
C62	C	-0.282601	1.021527	0.969023
C63	C	-0.325891	0.978205	0.933661
C64	C	-0.325911	0.978197	0.857012
C65	C	-0.325923	0.978194	0.795921
H66	H	-0.404481	0.592150	0.247441
Br67	Br	-0.224131	0.739739	0.428314
Br68	Br	-0.223873	1.080303	0.921086
Br69	Br	-0.920291	0.876100	0.428111
H70	H	-0.404482	0.364626	0.247475
H71	H	-0.404493	0.899576	0.584426
H72	H	-0.404487	0.236381	0.247486
Br73	Br	-0.731139	0.876037	0.428074
Br74	Br	-0.427918	0.876107	0.920996
Br75	Br	-0.564485	1.080148	0.224152
Br76	Br	-0.427959	0.876088	0.731844
Br77	Br	-0.731097	1.080220	0.224195
Br78	Br	-0.920243	1.080280	0.224224
Br79	Br	-0.224139	0.217363	0.428372
H80	H	-1.067683	1.056820	0.247726
H81	H	-0.247414	1.056761	0.712739
Br82	Br	-1.086905	0.876155	0.428129
H83	H	-0.247446	1.056747	0.584505
H84	H	-0.247335	1.056809	1.068510
Br85	Br	-0.224139	0.573121	0.428332
H86	H	-0.404392	0.899650	1.068430
H87	H	-0.404475	0.720384	0.247424
Br88	Br	-0.224150	0.383975	0.428365
Br89	Br	-0.564519	0.875976	0.428046
