data_functionalizedCrystal
_audit_creation_method	'MofGen! by Chris Wilmer'
_symmetry_space_group_name_H-M	'P1'
_symmetry_Int_Tables_number	1
_symmetry_cell_setting	triclinic
loop_
_symmetry_equiv_pos_as_xyz
  x,y,z
_cell_length_a	18.050591
_cell_length_b	18.215406
_cell_length_c	18.215399
_cell_angle_alpha	90.015166
_cell_angle_beta	89.971227
_cell_angle_gamma	90.006116
loop_
_atom_site_label
_atom_site_type_symbol
_atom_site_fract_x
_atom_site_fract_y
_atom_site_fract_z
Zn1	Zn	-1.135469	-0.293128	0.416357
Zn2	Zn	-1.135429	-0.416199	0.293318
Zn3	Zn	-1.011278	-0.293136	0.293285
Zn4	Zn	-1.011296	-0.416142	0.416324
O5	O	-1.073368	-0.354651	0.354821
O6	O	-1.239388	-0.309473	0.400063
O7	O	-1.118936	-0.399901	0.190329
O8	O	-1.027762	-0.190150	0.309611
O9	O	-1.239359	-0.399893	0.309667
O10	O	-1.119004	-0.190144	0.400031
O11	O	-1.027723	-0.309488	0.190305
O12	O	-0.907356	-0.309433	0.309579
O13	O	-1.027792	-0.399797	0.519312
O14	O	-0.907369	-0.399805	0.399975
O15	O	-1.119022	-0.309418	0.519337
O16	O	-1.118953	-0.519175	0.309635
O17	O	-1.027753	-0.519134	0.400007
C18	C	-0.880416	-0.354614	0.354770
C19	C	-0.797870	-0.354616	0.354766
C20	C	-1.073371	-0.545857	0.354837
C21	C	-1.073440	-0.627656	0.354868
C22	C	-1.073413	-0.354600	0.546774
C23	C	-1.073432	-0.354579	0.628573
C24	C	-0.598391	-0.305404	0.305711
C25	C	-0.549002	-0.372526	0.287612
C26	C	-0.646740	-0.354630	0.354791
C27	C	-0.549047	-0.287524	0.372879
C28	C	-0.500755	-0.354639	0.354814
C29	C	-0.598438	-0.421788	0.336657
C30	C	-0.598487	-0.336740	0.421956
C31	C	-0.549121	-0.403909	0.403883
C32	C	-0.730838	-0.354625	0.354776
C33	C	-0.416658	-0.354652	0.354829
C34	C	-0.267074	-0.354676	0.354859
C35	C	-0.349619	-0.354654	0.354841
C36	C	-1.073385	-0.162698	0.354821
C37	C	-1.073393	-0.080899	0.354821
C38	C	-1.025906	0.107293	0.307766
C39	C	-1.025913	0.184151	0.307775
C40	C	-1.120928	0.184147	0.401929
C41	C	-1.120918	0.107289	0.401923
C42	C	-1.073408	0.068864	0.354837
C43	C	-1.073425	0.222580	0.354852
C44	C	-1.073432	0.305914	0.354862
C45	C	-1.073400	-0.014475	0.354828
C46	C	-1.073366	-0.354648	0.163615
C47	C	-1.073490	-0.354463	0.081816
C48	C	-1.120953	-0.307475	0.816781
C49	C	-1.120962	-0.307453	0.893639
C50	C	-1.025965	-0.401569	0.893603
C51	C	-1.025953	-0.401586	0.816745
C52	C	-1.073451	-0.354540	0.778336
C53	C	-1.073472	-0.354501	0.932053
C54	C	-1.073481	-0.354478	1.015386
C55	C	-1.073441	-0.354562	0.694997
H56	H	-0.620025	-0.263823	0.264164
H57	H	-0.527267	-0.387667	0.230822
H58	H	-1.159611	0.215440	0.440264
F59	F	-1.171474	0.066388	0.452031
H60	H	-0.527623	-0.445589	0.445398
F61	F	-0.975351	0.225047	0.257678
H62	H	-0.620043	-0.478559	0.321305
F63	F	-0.975341	0.066401	0.257655
F64	F	-0.975419	-0.451638	0.934487
F65	F	-0.626919	-0.316926	0.496164
F66	F	-0.975388	-0.451679	0.775828
H67	H	-0.527313	-0.230777	0.388144
H68	H	-1.159627	-0.269165	0.785510
F69	F	-1.171525	-0.257365	0.934551
