data_functionalizedCrystal
_audit_creation_method	'MofGen! by Chris Wilmer'
_symmetry_space_group_name_H-M	'P1'
_symmetry_Int_Tables_number	1
_symmetry_cell_setting	triclinic
loop_
_symmetry_equiv_pos_as_xyz
  x,y,z
_cell_length_a	18.215407
_cell_length_b	13.897448
_cell_length_c	18.215399
_cell_angle_alpha	89.973253
_cell_angle_beta	89.980650
_cell_angle_gamma	90.018140
loop_
_atom_site_label
_atom_site_type_symbol
_atom_site_fract_x
_atom_site_fract_y
_atom_site_fract_z
Zn1	Zn	1.125105	-0.384009	-0.416124
Zn2	Zn	1.458439	-0.050676	-0.082791
Zn3	Zn	1.791772	0.282657	0.250542
Zn4	Zn	1.125030	-0.545320	-0.293061
Zn5	Zn	1.458363	-0.211987	0.040272
Zn6	Zn	1.791697	0.121347	0.373605
Zn7	Zn	1.002039	-0.384042	-0.293072
Zn8	Zn	1.335372	-0.050709	0.040262
Zn9	Zn	1.668705	0.282625	0.373595
Zn10	Zn	1.002019	-0.545265	-0.416086
Zn11	Zn	1.335352	-0.211932	-0.082753
Zn12	Zn	1.668686	0.121401	0.250580
O13	O	1.063548	-0.464659	-0.354586
O14	O	1.396882	-0.131326	-0.021253
O15	O	1.730215	0.202008	0.312081
O16	O	1.228080	-0.405417	-0.399811
O17	O	1.561413	-0.072083	-0.066478
O18	O	1.894746	0.261250	0.266855
O19	O	1.108692	-0.523963	-0.190078
O20	O	1.442025	-0.190630	0.143255
O21	O	1.775359	0.142704	0.476588
O22	O	1.018404	-0.249056	-0.309415
O23	O	1.351737	0.084277	0.023918
O24	O	1.685070	0.417611	0.357252
O25	O	1.228024	-0.523931	-0.309398
O26	O	1.561358	-0.190598	0.023936
O27	O	1.894691	0.142736	0.357269
O28	O	1.108820	-0.249032	-0.399821
O29	O	1.442153	0.084301	-0.066488
O30	O	1.775487	0.417635	0.266846
O31	O	1.018331	-0.405473	-0.190086
O32	O	1.351664	-0.072139	0.143247
O33	O	1.684997	0.261194	0.476581
O34	O	0.899052	-0.405419	-0.309378
O35	O	1.232385	-0.072086	0.023955
O36	O	1.565719	0.261247	0.357289
O37	O	1.018370	-0.523838	-0.519076
O38	O	1.351703	-0.190504	-0.185742
O39	O	1.685037	0.142829	0.147591
O40	O	0.899037	-0.523869	-0.399757
O41	O	1.232371	-0.190536	-0.066423
O42	O	1.565704	0.142797	0.266910
O43	O	1.108801	-0.405364	-0.519103
O44	O	1.442134	-0.072030	-0.185770
O45	O	1.775467	0.261303	0.147563
O46	O	1.108673	-0.680294	-0.309361
O47	O	1.442006	-0.346961	0.023973
O48	O	1.775339	-0.013628	0.357306
O49	O	1.018297	-0.680254	-0.399747
O50	O	1.351630	-0.346921	-0.066413
O51	O	1.684964	-0.013587	0.266920
C52	C	0.872342	-0.464643	-0.354565
C53	C	1.205675	-0.131309	-0.021231
C54	C	1.539009	0.202024	0.312102
C55	C	0.790543	-0.464659	-0.354573
C56	C	1.123877	-0.131325	-0.021240
C57	C	1.457210	0.202008	0.312094
C58	C	0.602361	-0.526433	-0.401574
C59	C	0.935694	-0.193099	-0.068241
C60	C	1.269028	0.140234	0.265093
C61	C	0.525502	-0.526436	-0.401583
C62	C	0.858836	-0.193102	-0.068250
C63	C	1.192169	0.140231	0.265083
C64	C	0.525488	-0.402903	-0.307614
C65	C	0.858821	-0.069570	0.025720
C66	C	1.192154	0.263764	0.359053
C67	C	0.602345	-0.402896	-0.307609
C68	C	0.935678	-0.069563	0.025725
C69	C	1.269012	0.263771	0.359058
C70	C	0.640780	-0.464666	-0.354588
C71	C	0.974113	-0.131333	-0.021255
C72	C	1.307446	0.202000	0.312079
C73	C	0.487064	-0.464676	-0.354602
C74	C	0.820397	-0.131343	-0.021269
C75	C	1.153730	0.201990	0.312065
C76	C	0.403730	-0.464679	-0.354612
C77	C	0.737063	-0.131346	-0.021278
C78	C	1.070397	0.201987	0.312055
C79	C	0.724119	-0.464662	-0.354579
C80	C	1.057452	-0.131329	-0.021246
C81	C	1.390785	0.202004	0.312087
C82	C	1.063495	-0.715274	-0.354565
C83	C	1.396828	-0.381940	-0.021231
C84	C	1.730161	-0.048607	0.312102
C85	C	1.063539	-0.822487	-0.354580
C86	C	1.396872	-0.489154	-0.021247
C87	C	1.730206	-0.155821	0.312087
C88	C	1.063616	-1.018782	-0.354626
C89	C	1.396950	-0.685449	-0.021293
C90	C	1.730283	-0.352116	0.312040
C91	C	1.063571	-0.909550	-0.354603
C92	C	1.396905	-0.576217	-0.021269
C93	C	1.730238	-0.242883	0.312064
C94	C	1.255501	-0.464676	-0.354607
C95	C	1.588835	-0.131343	-0.021274
C96	C	1.922168	0.201990	0.312059
C97	C	1.337300	-0.464684	-0.354617
C98	C	1.670633	-0.131350	-0.021283
C99	C	2.003967	0.201983	0.312050
C100	C	1.063592	-0.464591	-0.546539
C101	C	1.396925	-0.131257	-0.213206
C102	C	1.730258	0.202076	0.120128
C103	C	1.063610	-0.464562	-0.628338
C104	C	1.396943	-0.131228	-0.295004
C105	C	1.730277	0.202105	0.038329
C106	C	1.063622	-0.213066	-0.354623
C107	C	1.396956	0.120267	-0.021290
C108	C	1.730289	0.453601	0.312043
C109	C	1.063654	-0.105852	-0.354639
C110	C	1.396987	0.227481	-0.021306
C111	C	1.730320	0.560814	0.312027
C112	C	1.110724	-0.402789	-0.893411
C113	C	1.444058	-0.069456	-0.560078
C114	C	1.777391	0.263878	-0.226745
C115	C	1.110716	-0.402815	-0.816552
C116	C	1.444049	-0.069482	-0.483219
C117	C	1.777382	0.263852	-0.149886
C118	C	1.016555	-0.526195	-0.816513
C119	C	1.349889	-0.192861	-0.483180
C120	C	1.683222	0.140472	-0.149846
C121	C	1.016568	-0.526173	-0.893370
C122	C	1.349901	-0.192839	-0.560037
C123	C	1.683235	0.140494	-0.226704
C124	C	1.063652	-0.464464	-0.931818
C125	C	1.396985	-0.131131	-0.598484
C126	C	1.730318	0.202202	-0.265151
C127	C	1.063630	-0.464512	-0.778101
C128	C	1.396963	-0.131179	-0.444768
C129	C	1.730297	0.202154	-0.111435
C130	C	1.063620	-0.464541	-0.694768
C131	C	1.396954	-0.131208	-0.361434
C132	C	1.730287	0.202126	-0.028101
C133	C	1.063663	-0.464437	-1.015157
C134	C	1.396996	-0.131103	-0.681823
C135	C	1.730329	0.202230	-0.348490
C136	C	1.063548	-0.464658	-0.163380
C137	C	1.396881	-0.131324	0.169954
C138	C	1.730214	0.202009	0.503287
C139	C	1.063672	-0.464415	-0.081581
C140	C	1.397005	-0.131082	0.251752
C141	C	1.730338	0.202252	0.585086
H142	H	0.633652	-0.576728	-0.439829
H143	H	0.966986	-0.243394	-0.106496
H144	H	1.300319	0.089939	0.226837
H145	H	1.149048	-0.352594	-0.785285
H146	H	1.482381	-0.019261	-0.451952
H147	H	1.815715	0.314073	-0.118619
H148	H	0.633626	-0.352592	-0.269347
H149	H	0.966960	-0.019259	0.063987
H150	H	1.300293	0.314074	0.397320
H151	H	0.978220	-0.576434	-0.785200
H152	H	1.311554	-0.243100	-0.451867
H153	H	1.644887	0.090233	-0.118533
Cl154	Cl	0.957391	-0.603720	-0.941657
Cl155	Cl	1.290724	-0.270387	-0.608323
Cl156	Cl	1.624058	0.062946	-0.274990
Cl157	Cl	0.477208	-0.604087	-0.460656
Cl158	Cl	0.810541	-0.270754	-0.127323
Cl159	Cl	1.143874	0.062580	0.206011
H160	H	0.494185	-0.352613	-0.269364
H161	H	0.827518	-0.019280	0.063970
H162	H	1.160852	0.314053	0.397303
H163	H	1.149063	-0.352542	-0.924713
H164	H	1.482396	-0.019208	-0.591379
H165	H	1.815729	0.314125	-0.258046
