data_functionalizedCrystal
_audit_creation_method	'MofGen! by Chris Wilmer'
_symmetry_space_group_name_H-M	'P1'
_symmetry_Int_Tables_number	1
_symmetry_cell_setting	triclinic
loop_
_symmetry_equiv_pos_as_xyz
  x,y,z
_cell_length_a	15.538191
_cell_length_b	16.109301
_cell_length_c	15.186229
_cell_angle_alpha	90.000894
_cell_angle_beta	89.995330
_cell_angle_gamma	65.366787
loop_
_atom_site_label
_atom_site_type_symbol
_atom_site_fract_x
_atom_site_fract_y
_atom_site_fract_z
O1	O	1.249993	-0.270055	-0.073261
O2	O	0.975705	-0.174047	-0.073253
O3	O	1.120384	-0.345355	-0.073262
O4	O	1.105314	-0.098748	-0.073252
O5	O	1.120375	-0.345353	0.073196
O6	O	0.975695	-0.174046	0.073205
O7	O	1.249984	-0.270054	0.073196
Zn8	Zn	1.112838	-0.222050	0.096454
Zn9	Zn	1.112851	-0.222052	-0.096510
O10	O	1.105305	-0.098747	0.073205
C11	C	0.940602	-0.164002	-0.000023
C12	C	0.836019	-0.134081	-0.000020
C13	C	1.119769	-0.376145	-0.000036
C14	C	1.117939	-0.467888	-0.000045
N15	N	1.112836	-0.222052	0.228146
C16	C	0.548320	-0.431335	-0.000046
C17	C	0.450045	-0.403199	-0.000045
C18	C	0.427554	-0.244941	-0.000039
C19	C	0.525828	-0.273063	-0.000035
C20	C	0.586204	-0.366262	-0.000039
C21	C	0.563712	-0.207990	-0.000029
C22	C	0.661978	-0.236111	-0.000029
C23	C	0.722360	-0.329305	-0.000036
C24	C	0.684470	-0.394382	-0.000040
C25	C	0.503335	-0.114793	-0.000030
C26	C	0.541219	-0.049719	-0.000024
C27	C	0.639487	-0.077840	-0.000019
C28	C	0.699869	-0.171034	-0.000026
C29	C	0.677377	-0.012763	-0.000015
C30	C	0.775643	-0.040883	-0.000016
C31	C	0.798135	-0.199155	-0.000027
C32	C	1.285087	-0.280100	-0.000035
C33	C	1.389670	-0.310020	-0.000044
C34	C	1.105920	-0.067957	-0.000022
C35	C	1.107750	0.023786	-0.000019
C36	C	1.026156	0.270663	-0.000029
C37	C	1.027883	0.356862	-0.000036
C38	C	1.199540	0.285227	-0.000038
C39	C	1.197812	0.199029	-0.000037
C40	C	1.111117	0.191750	-0.000029
C41	C	1.114572	0.364148	-0.000036
C42	C	1.116445	0.457609	-0.000043
C43	C	1.109243	0.098283	-0.000023
N44	N	1.112860	-0.222059	-0.228203
C45	C	1.176922	-0.297894	0.453865
C46	C	1.176925	-0.297897	0.546055
C47	C	1.048768	-0.146212	0.546072
C48	C	1.048761	-0.146212	0.453884
C49	C	1.112843	-0.222054	0.407783
C50	C	1.112853	-0.222056	0.592161
C51	C	1.112856	-0.222059	0.692117
C52	C	1.112840	-0.222053	0.307820
H53	H	0.847297	-0.275046	-0.000025
O54	O	1.239212	-0.371465	0.590916
C55	C	1.297332	-0.344449	0.644218
H56	H	1.259790	-0.268080	0.658036
H57	H	1.366952	-0.359773	0.608680
C58	C	1.363599	-0.491197	0.714811
C59	C	1.317485	-0.397401	0.731789
H60	H	1.376034	-0.523863	0.768828
H61	H	1.324445	-0.509400	0.678898
H62	H	1.421610	-0.503955	0.685194
H63	H	1.259470	-0.384643	0.761395
H64	H	1.356629	-0.379197	0.767709
O65	O	0.817823	-0.356672	-0.000192
C66	C	0.856829	-0.409496	-0.076034
H67	H	0.800008	-0.391892	-0.129051
H68	H	0.884291	-0.485090	-0.058889
C69	C	1.008888	-0.410485	-0.045309
C70	C	0.939100	-0.388857	-0.110428
H71	H	1.059639	-0.397758	-0.066524
H72	H	0.982610	-0.374900	0.005789
H73	H	1.031761	-0.473480	-0.031027
H74	H	0.916220	-0.325862	-0.124701
H75	H	0.965376	-0.424432	-0.161530
H76	H	1.267002	0.134772	-0.000040
O77	O	0.407872	-0.087426	-0.000184
C78	C	0.368879	-0.034608	-0.076025
H79	H	0.425710	-0.052217	-0.129043
H80	H	0.341414	0.040987	-0.058877
C81	C	0.216816	-0.033618	-0.045297
C82	C	0.286615	-0.055251	-0.110417
H83	H	0.166068	-0.046347	-0.066510
H84	H	0.243084	-0.069199	0.005800
H85	H	0.193939	0.029378	-0.031013
H86	H	0.309498	-0.118247	-0.124692
H87	H	0.260348	-0.019680	-0.161518
H88	H	0.733632	-0.470273	-0.000038
O89	O	0.482605	0.040819	-0.000175
C90	C	0.499800	0.082099	-0.076009
H91	H	0.533399	0.028069	-0.129030
H92	H	0.549824	0.115119	-0.058853
C93	C	0.364351	0.221930	-0.045278
C94	C	0.405612	0.155571	-0.110402
H95	H	0.306253	0.267255	-0.066491
H96	H	0.352768	0.194122	0.005815
H97	H	0.406047	0.249437	-0.030987
H98	H	0.363921	0.128058	-0.124683
H99	H	0.417186	0.183377	-0.161498
O100	O	0.606842	-0.521905	-0.000088
C101	C	0.552337	-0.573317	-0.000067
H102	H	0.478992	-0.530077	-0.027788
H103	H	0.545344	-0.594661	0.070196
C104	C	0.691404	-0.712162	-0.023460
C105	C	0.601323	-0.659057	-0.057515
H106	H	0.721622	-0.765053	-0.058893
H107	H	0.728127	-0.677526	-0.023471
H108	H	0.685565	-0.729940	0.035092
H109	H	0.607165	-0.641271	-0.116061
H110	H	0.564603	-0.693692	-0.057515
O111	O	0.986432	-0.072483	0.590720
C112	C	0.929886	-0.005537	0.530274
H113	H	0.928831	-0.039308	0.464560
H114	H	0.960450	0.047019	0.520464
C115	C	0.829552	0.083694	0.646979
C116	C	0.828250	0.042215	0.566270
H117	H	0.766860	0.113153	0.669183
H118	H	0.867650	0.038594	0.687703
H119	H	0.855026	0.127485	0.638793
H120	H	0.802788	-0.001583	0.574459
H121	H	0.790146	0.087309	0.525548
H122	H	0.955564	0.264741	-0.000019
O123	O	0.618820	0.077792	0.000100
C124	C	0.635957	0.119065	0.075965
H125	H	0.710497	0.076149	0.101260
H126	H	0.582199	0.123925	0.129074
C127	C	0.535053	0.268265	0.021856
C128	C	0.626608	0.215559	0.052920
H129	H	0.529282	0.327789	0.007644
H130	H	0.523504	0.240459	-0.029254
H131	H	0.490265	0.272306	0.066119
H132	H	0.671393	0.211510	0.008654
H133	H	0.638164	0.243366	0.104023
H134	H	0.958699	0.421112	-0.000038
H135	H	1.270124	0.291165	-0.000036
O136	O	0.413197	-0.466380	-0.000202
C137	C	0.357015	-0.454833	-0.076042
H138	H	0.380252	-0.418402	-0.129056
H139	H	0.279519	-0.412258	-0.058890
C140	C	0.340399	-0.593688	-0.045328
C141	C	0.368945	-0.548949	-0.110444
H142	H	0.347754	-0.651742	-0.066547
H143	H	0.378247	-0.601466	0.005768
H144	H	0.275821	-0.558199	-0.031041
H145	H	0.433524	-0.584432	-0.124722
H146	H	0.331108	-0.541179	-0.161543
H147	H	1.229101	-0.359650	0.416332
O148	O	0.986642	-0.072539	0.409018
C149	C	1.037075	-0.036431	0.355701
H150	H	1.110801	-0.091760	0.341882
H151	H	1.043459	0.023095	0.391226
C152	C	0.893402	0.065297	0.285111
C153	C	0.983950	-0.002661	0.268132
H154	H	0.860631	0.086132	0.231095
H155	H	0.859423	0.040973	0.321034
H156	H	0.898734	0.114893	0.314717
H157	H	0.978617	-0.052261	0.238536
H158	H	1.017927	0.021655	0.232201
H159	H	0.378383	-0.169059	-0.000039
H160	H	0.806488	0.012106	-0.000003
