data_functionalizedCrystal
_audit_creation_method	'MofGen! by Chris Wilmer'
_symmetry_space_group_name_H-M	'P1'
_symmetry_Int_Tables_number	1
_symmetry_cell_setting	triclinic
loop_
_symmetry_equiv_pos_as_xyz
  x,y,z
_cell_length_a	18.215407
_cell_length_b	21.295417
_cell_length_c	18.215399
_cell_angle_alpha	89.968895
_cell_angle_beta	89.982632
_cell_angle_gamma	90.027146
loop_
_atom_site_label
_atom_site_type_symbol
_atom_site_fract_x
_atom_site_fract_y
_atom_site_fract_z
Zn1	Zn	1.125047	-0.250659	-0.416051
Zn2	Zn	1.625047	0.249341	0.083949
Zn3	Zn	1.124945	-0.355930	-0.292978
Zn4	Zn	1.624945	0.144070	0.207022
Zn5	Zn	1.001980	-0.250674	-0.293004
Zn6	Zn	1.501980	0.249326	0.206996
Zn7	Zn	1.001935	-0.355889	-0.416008
Zn8	Zn	1.501935	0.144111	0.083992
O9	O	1.063477	-0.303288	-0.354510
O10	O	1.563477	0.196712	0.145490
O11	O	1.228018	-0.264634	-0.399733
O12	O	1.728018	0.235366	0.100267
O13	O	1.108610	-0.341991	-0.189997
O14	O	1.608610	0.158009	0.310003
O15	O	1.018366	-0.162582	-0.309355
O16	O	1.518366	0.337418	0.190645
O17	O	1.227943	-0.341976	-0.309311
O18	O	1.727943	0.158024	0.190689
O19	O	1.108783	-0.162571	-0.399758
O20	O	1.608783	0.337429	0.100242
O21	O	1.018267	-0.264659	-0.190016
O22	O	1.518267	0.235341	0.309984
O23	O	0.898990	-0.264620	-0.309314
O24	O	1.398990	0.235380	0.190686
O25	O	1.018290	-0.341907	-0.518998
O26	O	1.518290	0.158093	-0.018998
O27	O	0.898957	-0.341921	-0.399684
O28	O	1.398957	0.158079	0.100316
O29	O	1.108740	-0.264594	-0.519030
O30	O	1.608740	0.235406	-0.019030
O31	O	1.108567	-0.444014	-0.309270
O32	O	1.608567	0.055986	0.190730
O33	O	1.018192	-0.443984	-0.399660
O34	O	1.518192	0.056016	0.100340
C35	C	0.872271	-0.303268	-0.354498
C36	C	1.372271	0.196732	0.145502
C37	C	0.790472	-0.303275	-0.354510
C38	C	1.290472	0.196725	0.145490
C39	C	1.063383	-0.466839	-0.354473
C40	C	1.563383	0.033161	0.145527
C41	C	1.063410	-0.536808	-0.354482
C42	C	1.563410	-0.036808	0.145518
C43	C	0.602316	-0.263086	-0.401666
C44	C	1.102316	0.236914	0.098334
C45	C	0.525457	-0.263092	-0.401669
C46	C	1.025457	0.236908	0.098331
C47	C	0.525390	-0.343507	-0.307368
C48	C	1.025390	0.156493	0.192632
C49	C	0.602247	-0.343498	-0.307362
C50	C	1.102247	0.156502	0.192638
C51	C	0.640708	-0.303289	-0.354515
C52	C	1.140708	0.196711	0.145485
C53	C	0.486992	-0.303303	-0.354524
C54	C	0.986992	0.196697	0.145476
C55	C	0.403659	-0.303309	-0.354526
C56	C	0.903659	0.196691	0.145474
C57	C	0.724047	-0.303281	-0.354512
C58	C	1.224047	0.196719	0.145488
C59	C	1.110464	-0.569611	-0.401588
C60	C	1.610464	-0.069611	0.098412
C61	C	1.110490	-0.635354	-0.401606
C62	C	1.610490	-0.135354	0.098394
C63	C	1.063470	-0.668290	-0.354505
C64	C	1.563470	-0.168290	0.145495
C65	C	1.016408	-0.635478	-0.307396
C66	C	1.516408	-0.135478	0.192604
C67	C	1.016378	-0.569737	-0.307384
C68	C	1.516378	-0.069737	0.192616
N69	N	1.057911	-0.771552	-0.290099
N70	N	1.557911	-0.271552	0.209901
N71	N	1.057944	-0.834004	-0.290112
N72	N	1.557944	-0.334004	0.209888
C73	C	1.063556	-0.866365	-0.354538
C74	C	1.563556	-0.366365	0.145462
N75	N	1.069149	-0.833915	-0.418952
N76	N	1.569149	-0.333915	0.081048
N77	N	1.069120	-0.771458	-0.418938
N78	N	1.569120	-0.271458	0.081062
C79	C	1.063497	-0.739575	-0.354513
C80	C	1.563497	-0.239575	0.145487
C81	C	1.110640	-0.970454	-0.401668
C82	C	1.610640	-0.470454	0.098332
C83	C	1.110661	-1.036198	-0.401687
C84	C	1.610661	-0.536198	0.098313
C85	C	1.016583	-1.036321	-0.307470
C86	C	1.516583	-0.536321	0.192530
C87	C	1.016558	-0.970579	-0.307458
C88	C	1.516558	-0.470579	0.192542
C89	C	1.063591	-0.937649	-0.354555
C90	C	1.563591	-0.437649	0.145445
C91	C	1.255430	-0.303308	-0.354524
C92	C	1.755430	0.196692	0.145476
C93	C	1.337229	-0.303316	-0.354530
C94	C	1.837229	0.196684	0.145470
C95	C	1.063522	-0.303244	-0.546463
C96	C	1.563522	0.196756	-0.046463
C97	C	1.063541	-0.303226	-0.628262
C98	C	1.563541	0.196774	-0.128262
C99	C	1.063591	-0.139098	-0.354564
C100	C	1.563591	0.360902	0.145436
C101	C	1.063640	-0.069129	-0.354587
C102	C	1.563640	0.430871	0.145413
C103	C	1.110655	-0.262932	-0.816474
C104	C	1.610655	0.237068	-0.316474
C105	C	1.110664	-0.262913	-0.893333
C106	C	1.610664	0.237087	-0.393333
C107	C	1.016479	-0.343423	-0.893289
C108	C	1.516479	0.156577	-0.393289
C109	C	1.016467	-0.343438	-0.816431
C110	C	1.516467	0.156562	-0.316431
C111	C	1.063559	-0.303193	-0.778026
C112	C	1.563559	0.196807	-0.278026
C113	C	1.063580	-0.303160	-0.931742
C114	C	1.563580	0.196840	-0.431742
C115	C	1.063589	-0.303140	-1.015076
C116	C	1.563589	0.196860	-0.515076
C117	C	1.063549	-0.303211	-0.694687
C118	C	1.563549	0.196789	-0.194687
C119	C	1.063475	-0.303286	-0.163304
C120	C	1.563475	0.196714	0.336696
C121	C	1.063598	-0.303127	-0.081506
C122	C	1.563598	0.196873	0.418494
H123	H	0.633628	-0.230343	-0.440059
H124	H	1.133628	0.269657	0.059941
H125	H	1.149013	-0.230128	-0.924634
H126	H	1.649013	0.269872	-0.424634
H127	H	0.494201	-0.230354	-0.440062
H128	H	0.994201	0.269646	0.059938
H129	H	1.148758	-0.542802	-0.439940
H130	H	1.648758	-0.042802	0.060060
H131	H	0.633507	-0.376236	-0.268962
H132	H	1.133507	0.123764	0.231038
N133	N	0.486101	-0.384573	-0.259199
N134	N	0.986101	0.115427	0.240801
N135	N	0.443206	-0.362380	-0.212352
N136	N	0.943206	0.137620	0.287648
H137	H	0.415459	-0.391384	-0.178332
H138	H	0.915459	0.108616	0.321668
N139	N	0.968382	-0.384525	-0.932532
N140	N	1.468382	0.115475	-0.432532
N141	N	0.968398	-0.384507	-1.001154
N142	N	1.468398	0.115493	-0.501154
H143	H	0.934429	-0.413537	-1.028869
H144	H	1.434429	0.086463	-0.528869
H145	H	0.978111	-0.376223	-0.785126
H146	H	1.478111	0.123777	-0.285126
N147	N	1.158560	-0.668862	-0.449731
N148	N	1.658560	-0.168862	0.050269
N149	N	1.200546	-0.639453	-0.491779
N150	N	1.700546	-0.139453	0.008221
H151	H	1.234497	-0.663115	-0.525767
H152	H	1.734497	-0.163115	-0.025767
N153	N	0.968378	-0.669128	-0.259292
N154	N	1.468378	-0.169128	0.240708
N155	N	0.968411	-0.727825	-0.259308
N156	N	1.468411	-0.227825	0.240692
H157	H	0.934486	-0.751591	-0.225336
H158	H	1.434486	-0.251591	0.274664
H159	H	0.978061	-0.543028	-0.269024
H160	H	1.478061	-0.043028	0.230976
H161	H	1.148934	-0.943642	-0.440020
H162	H	1.648934	-0.443642	0.059980
H163	H	0.978294	-1.063137	-0.269124
H164	H	1.478294	-0.563137	0.230876
N165	N	1.158725	-1.069698	-0.449820
N166	N	1.658725	-0.569698	0.050180
N167	N	1.200709	-1.040286	-0.491867
N168	N	1.700709	-0.540286	0.008133
H169	H	1.234655	-1.063946	-0.525862
H170	H	1.734655	-0.563946	-0.025862
N171	N	0.968490	-0.937076	-0.259333
N172	N	1.468490	-0.437076	0.240667
N173	N	0.926508	-0.966488	-0.217284
N174	N	1.426508	-0.466488	0.282716
H175	H	0.892555	-0.942828	-0.183295
H176	H	1.392555	-0.442828	0.316705
N177	N	1.158750	-0.221811	-0.777255
N178	N	1.658750	0.278189	-0.277255
N179	N	1.153903	-0.163724	-0.785864
N180	N	1.653903	0.336276	-0.285864
H181	H	1.187869	-0.134678	-0.758167
H182	H	1.687869	0.365322	-0.258167
