data_functionalizedCrystal
_audit_creation_method	'MofGen! by Chris Wilmer'
_symmetry_space_group_name_H-M	'P1'
_symmetry_Int_Tables_number	1
_symmetry_cell_setting	triclinic
loop_
_symmetry_equiv_pos_as_xyz
  x,y,z
_cell_length_a	14.519709
_cell_length_b	14.519709
_cell_length_c	11.295483
_cell_angle_alpha	94.101713
_cell_angle_beta	85.892680
_cell_angle_gamma	83.680145
loop_
_atom_site_label
_atom_site_type_symbol
_atom_site_fract_x
_atom_site_fract_y
_atom_site_fract_z
O1	O	1.230060	0.114700	-0.098872
O2	O	0.961585	0.128935	-0.098908
O3	O	1.102940	-0.012420	-0.098878
O4	O	1.088705	0.256055	-0.098902
O5	O	1.090524	-0.000024	0.099170
O6	O	0.949169	0.141331	0.099140
O7	O	1.217644	0.127097	0.099177
Cu8	Cu	1.082273	0.135346	0.117242
Cu9	Cu	1.096956	0.120686	-0.116973
O10	O	1.076289	0.268452	0.099147
C11	C	0.921018	0.134469	0.000111
C12	C	0.818637	0.132480	0.000098
C13	C	0.443738	0.125164	0.000152
C14	C	0.548047	0.127196	0.000137
C15	C	0.631184	0.128822	0.000124
C16	C	0.735500	0.130854	0.000110
C17	C	1.096069	-0.040582	0.000146
C18	C	1.094080	-0.142963	0.000146
C19	C	1.086763	-0.517861	0.000114
C20	C	1.088795	-0.413552	0.000124
C21	C	1.090421	-0.330415	0.000132
C22	C	1.092454	-0.226100	0.000139
C23	C	1.258211	0.121562	0.000154
C24	C	1.360592	0.123551	0.000160
C25	C	1.083161	0.296613	0.000120
C26	C	1.085149	0.398994	0.000112
N27	N	1.071953	0.145656	0.281976
N28	N	1.107284	0.110368	-0.281707
C29	C	1.181575	0.036095	0.531289
C30	C	1.173783	0.043893	0.655951
C31	C	1.048571	0.169046	0.655964
C32	C	1.056364	0.161248	0.531302
C33	C	1.122869	0.094771	0.468969
C34	C	1.130665	0.086978	0.344304
C35	C	1.005450	0.212126	0.344320
C36	C	0.997657	0.219924	0.468982
H37	H	1.235733	-0.018027	0.480536
H38	H	1.221586	-0.003888	0.706688
O39	O	0.983885	0.233628	0.716341
C40	C	0.860528	0.356957	0.703215
C41	C	0.933736	0.283850	0.634690
H42	H	0.819976	0.397595	0.637230
H43	H	0.810690	0.320717	0.761540
H44	H	0.896773	0.406728	0.761618
H45	H	0.897571	0.234058	0.576222
H46	H	0.983569	0.320153	0.576440
H47	H	0.943507	0.274046	0.519748
H48	H	0.957650	0.259906	0.293565
H49	H	1.184819	0.032851	0.293554
