data_functionalizedCrystal
_audit_creation_method	'MofGen! by Chris Wilmer'
_symmetry_space_group_name_H-M	'P1'
_symmetry_Int_Tables_number	1
_symmetry_cell_setting	triclinic
loop_
_symmetry_equiv_pos_as_xyz
  x,y,z
_cell_length_a	10.540491
_cell_length_b	9.016244
_cell_length_c	10.908937
_cell_angle_alpha	90.002400
_cell_angle_beta	107.704188
_cell_angle_gamma	89.993079
loop_
_atom_site_label
_atom_site_type_symbol
_atom_site_fract_x
_atom_site_fract_y
_atom_site_fract_z
O1	O	-1.646246	0.123322	0.180321
O2	O	-1.273066	0.123327	0.197404
O3	O	-1.509123	0.123319	0.002377
O4	O	-1.410188	0.123330	0.375348
O5	O	-1.509094	-0.123362	0.002381
O6	O	-1.273036	-0.123353	0.197408
O7	O	-1.646217	-0.123359	0.180325
Cu8	Cu	-1.459624	-0.145880	0.188867
Cu9	Cu	-1.459658	0.145849	0.188862
O10	O	-1.410159	-0.123351	0.375352
C11	C	-1.226026	-0.000012	0.196138
C12	C	-1.085910	-0.000010	0.192345
N13	N	-1.459609	-0.351066	0.188870
C14	C	-0.838635	0.000564	0.327835
C15	C	-0.984342	-0.000003	0.331881
C16	C	-1.056851	-0.140875	0.120923
C17	C	-0.910762	-0.140982	0.117865
C18	C	-0.911629	0.139540	0.114954
C19	C	-1.056517	0.141391	0.121562
C20	C	-1.333093	-0.586094	0.292847
C21	C	-1.333237	-0.414203	0.293236
C22	C	-1.585644	-0.413406	0.219270
C23	C	-1.584917	-0.585351	0.220007
C24	C	-1.461481	-0.585613	0.054152
C25	C	-1.458244	-0.413659	0.055026
C26	C	-0.693250	-0.000013	0.181608
C27	C	-0.833349	0.000005	0.185452
C28	C	-1.518355	-0.000019	-0.045379
C29	C	-1.545889	-0.000014	-0.187683
N30	N	-1.459686	0.351035	0.188849
C31	C	-1.473865	-0.000008	-0.384672
C32	C	-1.445404	-0.000011	-0.237594
C33	C	-1.400928	-0.000009	0.423108
C34	C	-1.373393	-0.000005	0.565412
H35	H	-0.784730	0.101587	0.382196
H36	H	-1.580952	-0.000017	-0.450824
N37	N	-1.327573	-0.643253	0.424474
H38	H	-1.323064	-0.755156	0.424947
H39	H	-1.410008	-0.610448	0.445849
H40	H	-1.266305	-0.000014	-0.368437
H41	H	-1.365675	-0.372916	0.031983
H42	H	-1.126847	-0.146117	0.018199
H43	H	-1.652985	-0.000019	-0.253829
H44	H	-1.546621	-0.370686	-0.026080
N45	N	-1.303540	-0.000039	-0.149988
H46	H	-1.303317	-0.000048	-0.057338
H47	H	-1.256207	0.091405	-0.167063
H48	H	-1.329145	-0.373054	0.393169
H49	H	-0.912529	0.140490	0.010195
H50	H	-1.076777	-0.245705	0.170527
N51	N	-1.151202	0.152667	-0.013383
H52	H	-1.214774	0.065883	-0.030625
H53	H	-1.098891	0.151463	-0.077080
N54	N	-1.711476	-0.640452	0.123532
H55	H	-1.767496	-0.553041	0.080724
H56	H	-1.763028	-0.702543	0.169090
N57	N	-1.006936	0.133755	0.405900
H58	H	-0.943948	0.130099	0.496528
H59	H	-1.101871	0.133572	0.408586
N60	N	-0.765246	-0.132489	0.399442
H61	H	-0.728589	-0.193124	0.340052
H62	H	-0.828547	-0.195280	0.430661
N63	N	-1.588532	-0.638465	0.350171
H64	H	-1.590580	-0.550184	0.406532
H65	H	-1.506629	-0.699990	0.391639
H66	H	-1.000362	-0.101148	0.388099
H67	H	-0.859790	-0.246277	0.166683
H68	H	-0.910732	-0.147383	0.013505
H69	H	-0.859409	0.246310	0.158957
H70	H	-1.238643	-0.372058	0.274948
H71	H	-1.073711	0.245602	0.173528
H72	H	-1.238129	-0.627487	0.274840
H73	H	-1.680916	-0.372505	0.145591
H74	H	-1.554129	-0.626269	-0.023253
H75	H	-1.589161	-0.370325	0.316430
H76	H	-1.373111	-0.629060	0.025214
