data_functionalizedCrystal
_audit_creation_method	'MofGen! by Chris Wilmer'
_symmetry_space_group_name_H-M	'P1'
_symmetry_Int_Tables_number	1
_symmetry_cell_setting	triclinic
loop_
_symmetry_equiv_pos_as_xyz
  x,y,z
_cell_length_a	29.839134
_cell_length_b	12.759399
_cell_length_c	12.759393
_cell_angle_alpha	90.031477
_cell_angle_beta	89.969183
_cell_angle_gamma	89.990022
loop_
_atom_site_label
_atom_site_type_symbol
_atom_site_fract_x
_atom_site_fract_y
_atom_site_fract_z
Zn1	Zn	0.686841	0.418353	-0.594340
Zn2	Zn	0.686796	0.594071	-0.418659
Zn3	Zn	0.611712	0.418391	-0.418640
Zn4	Zn	0.611706	0.593975	-0.594261
O5	O	0.649264	0.506197	-0.506475
O6	O	0.749702	0.441687	-0.571077
O7	O	0.676820	0.570822	-0.271636
O8	O	0.621700	0.271365	-0.441972
O9	O	0.749669	0.570786	-0.442005
O10	O	0.676896	0.271337	-0.571059
O11	O	0.621656	0.441751	-0.271622
O12	O	0.548844	0.441658	-0.441896
O13	O	0.621689	0.570623	-0.741293
O14	O	0.548840	0.570659	-0.570923
O15	O	0.676890	0.441594	-0.741351
O16	O	0.676814	0.741079	-0.441928
O17	O	0.621645	0.741009	-0.570942
C18	C	0.649236	0.779165	-0.506451
C19	C	0.649266	0.895941	-0.506476
C20	C	0.532541	0.506153	-0.506399
C21	C	0.482607	0.506159	-0.506392
C22	C	0.649294	0.506094	-0.780509
C23	C	0.649307	0.506050	-0.897285
C24	C	0.172971	0.573468	-0.573578
C25	C	-0.014703	0.573497	-0.573624
O26	O	-0.038961	0.630676	-0.630703
N27	N	-0.038178	0.506236	-0.506554
C28	C	-0.014733	0.438958	-0.439473
O29	O	-0.039007	0.381741	-0.382434
C30	C	0.172939	0.438923	-0.439432
C31	C	0.196413	0.506197	-0.506499
C32	C	0.196444	0.640735	-0.640640
C33	C	0.243359	0.640731	-0.640624
C34	C	0.266801	0.573460	-0.573545
C35	C	0.243328	0.506193	-0.506483
C36	C	0.196384	0.371641	-0.372356
C37	C	0.243305	0.371636	-0.372354
C38	C	0.266778	0.438909	-0.439421
C39	C	0.313686	0.438918	-0.439387
N40	N	0.337161	0.506179	-0.506458
C41	C	0.313719	0.573450	-0.573536
C42	C	-0.113264	0.438982	-0.439497
C43	C	-0.160181	0.438991	-0.439506
C44	C	-0.160148	0.573530	-0.573659
C45	C	-0.113229	0.573525	-0.573645
C46	C	-0.089788	0.506243	-0.506567
C47	C	0.412245	0.573437	-0.573496
C48	C	0.459165	0.573430	-0.573471
C49	C	0.459127	0.438888	-0.439322
C50	C	0.412212	0.438898	-0.439343
C51	C	0.388772	0.506176	-0.506438
O52	O	0.337973	0.381761	-0.382347
O53	O	0.338001	0.630642	-0.630583
C54	C	0.126055	0.573472	-0.573594
C55	C	0.102582	0.506205	-0.506532
C56	C	0.126024	0.438934	-0.439453
C57	C	0.055664	0.506215	-0.506540
C58	C	0.032222	0.573486	-0.573619
C59	C	0.055698	0.640747	-0.640689
C60	C	0.102613	0.640743	-0.640673
C61	C	0.102548	0.371672	-0.372383
C62	C	0.055633	0.371683	-0.372404
C63	C	0.032190	0.438954	-0.439483
C64	C	0.766442	0.506243	-0.506552
C65	C	0.816377	0.506262	-0.506585
C66	C	0.649304	0.232164	-0.506522
C67	C	0.649321	0.115388	-0.506542
C68	C	0.678025	0.950805	-0.439375
C69	C	0.678053	1.060529	-0.439410
C70	C	0.620560	1.060516	-0.573651
C71	C	0.620534	0.950794	-0.573620
C72	C	0.731081	1.210419	-0.402048
C73	C	0.759836	1.265287	-0.334930
C74	C	0.766748	1.229749	-0.232423
C75	C	0.744899	1.139346	-0.197013
C76	C	0.716141	1.084484	-0.264125
C77	C	0.709237	1.120020	-0.366647
C78	C	0.567506	0.800902	-0.610972
C79	C	0.538745	0.746038	-0.678079
C80	C	0.531828	0.781574	-0.780588
C81	C	0.553669	0.871981	-0.815994
C82	C	0.582430	0.926844	-0.748887
C83	C	0.589348	0.891301	-0.646379
C84	C	0.620606	0.438793	-1.061870
C85	C	0.620594	0.438828	-0.952146
C86	C	0.678037	0.573233	-0.952154
C87	C	0.678052	0.573192	-1.061877
C88	C	0.604542	0.314972	-0.802209
C89	C	0.575807	0.247802	-0.747344
C90	C	0.531979	0.231639	-0.782933
C91	C	0.516875	0.282663	-0.873387
C92	C	0.545607	0.349842	-0.928246
C93	C	0.589442	0.365984	-0.892658
C94	C	0.694099	0.697049	-1.211816
C95	C	0.722830	0.764233	-1.266678
C96	C	0.766659	0.780407	-1.231090
C97	C	0.781761	0.729401	-1.140633
C98	C	0.753030	0.662216	-1.085772
C99	C	0.709202	0.646042	-1.121367
C100	C	0.649260	0.506225	-0.233508
C101	C	0.649334	0.505973	-0.116732
H102	H	0.478275	0.628216	-0.628086
N103	N	0.502451	0.725515	-0.849129
N104	N	0.510425	0.631948	-0.871443
H105	H	0.489679	0.592357	-0.919851
N106	N	0.707367	0.641913	-0.896135
N107	N	0.733014	0.701893	-0.945135
H108	H	0.753728	0.750404	-0.905575
N109	N	0.768462	0.610124	-0.993371
N110	N	0.807596	0.624572	-0.961600
H111	H	0.818495	0.587783	-0.896342
N112	N	0.796133	1.285755	-0.163864
N113	N	0.802308	1.254004	-0.072343
H114	H	0.823067	1.293552	-0.023930
N115	N	0.388238	0.370187	-0.370820
N116	N	0.409177	0.310132	-0.310930
H117	H	0.392249	0.261595	-0.262540
H118	H	0.177280	0.316862	-0.317740
H119	H	0.520964	0.672420	-0.649245
N120	N	0.707374	0.894790	-0.370785
N121	N	0.733049	0.943794	-0.310878
H122	H	0.753779	0.904237	-0.262434
N123	N	0.751961	1.103023	-0.092309
N124	N	0.732456	1.022303	-0.060714
H125	H	0.737446	0.996641	0.013233
H126	H	0.393166	0.628219	-0.628134
H127	H	0.817450	0.742572	-1.111655
H128	H	0.658411	0.683876	-1.240807
H129	H	0.588108	0.206258	-0.673696
H130	H	0.640232	0.328116	-0.773229
N131	N	0.502623	0.163016	-0.726916
N132	N	0.463490	0.148590	-0.758704
H133	H	0.442760	0.100119	-0.719143
N134	N	0.472105	0.266142	-0.909746
N135	N	0.465475	0.228801	-0.998989
H136	H	0.433856	0.217128	-1.024673
H137	H	0.121721	0.695523	-0.695286
H138	H	0.548037	0.900914	-0.899466
N139	N	0.530177	0.401960	-1.020627
N140	N	0.491040	0.387532	-1.052391
H141	H	0.480141	0.424337	-1.117639
N142	N	0.693818	0.992147	-0.227984
N143	N	0.651960	0.988442	-0.226913
H144	H	0.636196	0.923224	-0.201389
N145	N	0.782149	1.357627	-0.371113
N146	N	0.775979	1.389344	-0.462648
H147	H	0.791736	1.454561	-0.488198
H148	H	0.262467	0.695509	-0.695239
H149	H	0.790050	0.835120	-1.275765
N150	N	0.267247	0.302923	-0.303815
N151	N	0.293404	0.339801	-0.236786
H152	H	0.310313	0.291275	-0.188378
H153	H	0.600216	1.000455	-0.777725
H154	H	0.177362	0.695515	-0.695269
N155	N	0.724034	1.246721	-0.506765
N156	N	0.743544	1.327436	-0.538359
H157	H	0.738568	1.353078	-0.612318
N158	N	-0.089247	0.642238	-0.642142
N159	N	-0.063078	0.709139	-0.605060
H160	H	-0.046142	0.757669	-0.653439
N161	N	0.031665	0.302962	-0.303876
N162	N	0.052607	0.242906	-0.243993
H163	H	0.035682	0.194367	-0.195600
N164	N	0.126483	0.302944	-0.303855
N165	N	0.105512	0.242899	-0.243982
H166	H	0.122413	0.194358	-0.195576
H167	H	0.710530	0.805764	-1.340333
H168	H	-0.179289	0.384221	-0.384883
N169	N	-0.184105	0.642247	-0.642166
N170	N	-0.225995	0.642239	-0.642154
H171	H	-0.242918	0.690765	-0.690536
H172	H	0.597224	0.384056	-1.106530
H173	H	0.597168	1.105191	-0.628315
H174	H	-0.094182	0.384192	-0.384870
N175	N	0.483084	0.370188	-0.370806
N176	N	0.524975	0.370201	-0.370812
H177	H	0.541897	0.321677	-0.322426
N178	N	0.574582	0.764562	-0.506274
N179	N	0.555083	0.683835	-0.474680
H180	H	0.560082	0.658161	-0.400741
H181	H	0.036603	0.695524	-0.695304
