data_functionalizedCrystal
_audit_creation_method	'MofGen! by Chris Wilmer'
_symmetry_space_group_name_H-M	'P1'
_symmetry_Int_Tables_number	1
_symmetry_cell_setting	triclinic
loop_
_symmetry_equiv_pos_as_xyz
  x,y,z
_cell_length_a	33.510554
_cell_length_b	33.509711
_cell_length_c	33.506470
_cell_angle_alpha	60.004186
_cell_angle_beta	60.008358
_cell_angle_gamma	59.994760
loop_
_atom_site_label
_atom_site_type_symbol
_atom_site_fract_x
_atom_site_fract_y
_atom_site_fract_z
O1	O	0.055430	-0.583081	0.487524
O2	O	0.020931	-0.453975	0.392819
O3	O	0.102693	-0.535652	0.392731
O4	O	-0.026332	-0.501404	0.487613
O5	O	0.129823	-0.508526	0.419767
O6	O	0.048062	-0.426850	0.419856
O7	O	0.082561	-0.555956	0.514561
Cu8	Cu	0.067789	-0.488926	0.469677
Cu9	Cu	0.035703	-0.521005	0.437703
O10	O	0.000799	-0.474279	0.514649
N11	N	0.090357	-0.466366	0.492168
N12	N	0.013139	-0.543569	0.415212
C13	C	0.143028	-0.279707	0.544737
C14	C	0.143165	-0.413746	0.678712
C15	C	0.143043	-0.413725	0.544739
C16	C	0.277090	-0.413694	0.544637
C17	C	0.157791	-0.323929	0.559462
C18	C	0.157869	-0.398994	0.634489
C19	C	0.232865	-0.398963	0.559407
C20	C	0.157801	-0.398982	0.559463
C21	C	0.124237	-0.223419	0.525994
C22	C	0.124262	-0.432490	0.525997
C23	C	0.176583	-0.380217	0.578205
C24	C	0.358938	-0.399566	0.501510
C25	C	0.410104	-0.416609	0.484423
C26	C	0.410135	-0.499402	0.515995
C27	C	0.358969	-0.482358	0.533084
C28	C	0.136554	-0.197822	0.475693
C29	C	0.119469	-0.146653	0.458657
C30	C	0.077755	-0.146680	0.542223
C31	C	0.094840	-0.197850	0.559260
C32	C	0.073954	-0.420144	0.538396
C33	C	0.056884	-0.437203	0.521352
C34	C	0.140427	-0.478952	0.479524
C35	C	0.157498	-0.461894	0.496561
C36	C	0.074158	-0.420182	0.760618
C37	C	0.057149	-0.437256	0.811786
C38	C	0.140732	-0.479014	0.811717
C39	C	0.157740	-0.461942	0.760547
C40	C	0.124452	-0.432525	0.734999
C41	C	0.333372	-0.432439	0.525839
C42	C	-0.020612	-0.577650	0.170305
C43	C	-0.020943	-0.788098	0.380897
C44	C	-0.020912	-0.577638	0.380991
C45	C	-0.231336	-0.577418	0.380585
C46	C	-0.129735	-0.611383	0.346870
C47	C	-0.054722	-0.611464	0.347017
C48	C	-0.073450	-0.630202	0.328195
C49	C	-0.087616	-0.712029	0.371239
C50	C	-0.070599	-0.763199	0.388315
C51	C	0.012191	-0.763282	0.356872
C52	C	-0.004828	-0.712113	0.339795
C53	C	-0.155381	-0.623711	0.397158
C54	C	-0.206547	-0.606601	0.414133
C55	C	-0.206417	-0.564839	0.330529
C56	C	-0.155251	-0.581949	0.313554
C57	C	-0.067051	-0.561160	0.334643
C58	C	-0.050026	-0.544131	0.351759
C59	C	-0.008343	-0.627704	0.393612
C60	C	-0.025368	-0.644736	0.376502
C61	C	-0.066922	-0.561168	0.246303
C62	C	-0.049794	-0.544141	0.195134
C63	C	-0.008048	-0.627719	0.195183
C64	C	-0.025175	-0.644745	0.246352
C65	C	-0.054614	-0.611468	0.271911
C66	C	-0.054732	-0.686488	0.346980
C67	C	-0.002117	-0.558258	0.114025
C68	C	-0.002879	-0.844379	0.399940
C69	C	-0.002504	-0.558243	0.399473
C70	C	-0.287615	-0.558285	0.398601
N71	N	0.434975	-0.466279	0.491900
O72	O	0.591199	-0.470749	0.375150
O73	O	0.591395	-0.565767	0.504116
O74	O	0.591311	-0.565550	0.422329
O75	O	0.591283	-0.470966	0.456937
O76	O	0.510024	-0.538522	0.449509
O77	O	0.510108	-0.538739	0.531297
O78	O	0.509913	-0.443721	0.402330
Cu79	Cu	0.502588	-0.488762	0.469295
Cu80	Cu	0.598719	-0.520726	0.437151
O81	O	0.509997	-0.443938	0.484117
N82	N	0.666332	-0.543209	0.414541
N83	N	0.090323	-0.121809	0.492157
O84	O	-0.026342	0.034503	0.487582
O85	O	0.102626	0.034543	0.392540
O86	O	0.020797	0.034507	0.392812
O87	O	0.055487	0.034539	0.487310
O88	O	0.047933	-0.046785	0.419900
O89	O	0.129763	-0.046749	0.419628
O90	O	0.000794	-0.046789	0.514670
Cu91	Cu	0.067756	-0.054192	0.469623
Cu92	Cu	0.035664	0.041946	0.437588
O93	O	0.082623	-0.046753	0.514399
N94	N	0.013091	0.109564	0.415054
N95	N	0.090671	-0.466416	0.836606
O96	O	0.086120	-0.583065	0.992910
O97	O	-0.008880	-0.454051	0.992954
O98	O	-0.008658	-0.535864	0.992931
O99	O	0.085897	-0.501252	0.992933
O100	O	0.018407	-0.508749	0.911642
O101	O	0.018185	-0.426936	0.911665
O102	O	0.113185	-0.555949	0.911621
Cu103	Cu	0.068156	-0.488967	0.904221
Cu104	Cu	0.036148	-0.521034	1.000355
O105	O	0.112963	-0.474136	0.911644
N106	N	0.013633	-0.543590	1.067970
C107	C	0.031262	-0.424144	0.393290
C108	C	0.132513	-0.525291	0.393180
C109	C	0.072229	-0.585787	0.514090
C110	C	-0.029022	-0.484640	0.514200
C111	C	0.550775	-0.565338	0.533954
C112	C	0.550672	-0.565070	0.432670
C113	C	0.550530	-0.444149	0.372492
C114	C	0.550635	-0.444418	0.473776
C115	C	0.132408	-0.005998	0.392963
C116	C	0.031106	-0.006142	0.393333
C117	C	-0.029021	-0.006147	0.514213
C118	C	0.072314	-0.006104	0.513878
C119	C	-0.008430	-0.424240	0.952316
C120	C	-0.008150	-0.525550	0.952271
C121	C	0.112735	-0.585760	0.952260
C122	C	0.112461	-0.484444	0.952286
H123	H	0.016194	-0.427197	0.832639
C124	C	0.182338	-0.005675	0.352551
C125	C	0.192022	-0.005525	0.302456
C126	C	0.241953	-0.005202	0.262044
C127	C	0.282198	-0.005028	0.271727
C128	C	0.272515	-0.005178	0.321825
C129	C	0.222585	-0.005501	0.362237
H130	H	0.162229	-0.005654	0.295286
H131	H	0.249121	-0.005091	0.224958
H132	H	0.319160	-0.004789	0.241812
H133	H	0.302308	-0.005050	0.328995
H134	H	0.215417	-0.005612	0.399322
C135	C	0.024325	-0.664325	0.167073
C136	C	0.076291	-0.664157	0.131970
C137	C	0.108665	-0.700766	0.103861
C138	C	0.089074	-0.737543	0.110854
C139	C	0.037106	-0.737713	0.145958
C140	C	0.004731	-0.701104	0.174067
H141	H	0.090796	-0.636931	0.126793
H142	H	0.147136	-0.700640	0.077875
H143	H	0.113040	-0.764643	0.090046
H144	H	0.022601	-0.764939	0.151136
H145	H	-0.033739	-0.701230	0.200053
C146	C	0.082183	-0.635889	0.554276
C147	C	0.078684	-0.639290	0.603425
C148	C	0.088638	-0.689392	0.643611
C149	C	0.102091	-0.736093	0.634648
C150	C	0.105590	-0.732694	0.585497
C151	C	0.095636	-0.682592	0.545311
H152	H	0.068725	-0.604718	0.610062
H153	H	0.086048	-0.691909	0.679996
H154	H	0.109459	-0.773182	0.664397
H155	H	0.115549	-0.767266	0.578860
H156	H	0.098227	-0.680075	0.508926
H157	H	0.023675	-0.006147	0.363643
C158	C	0.037539	-0.387821	0.732517
C159	C	-0.017784	-0.374244	0.760698
C160	C	-0.054403	-0.341886	0.732597
C161	C	-0.035698	-0.323104	0.676314
C162	C	0.019627	-0.336681	0.648130
C163	C	0.056246	-0.369040	0.676231
H164	H	-0.031633	-0.388148	0.802364
H165	H	-0.095358	-0.331836	0.753461
H166	H	-0.062806	-0.299151	0.655512
H167	H	0.033476	-0.322778	0.606464
H168	H	0.097201	-0.379090	0.655367
H169	H	-0.066081	-0.477343	0.543993
H170	H	0.550685	-0.594783	0.425263
H171	H	0.550826	-0.595166	0.570996
H172	H	-0.097376	-0.783993	0.408060
C173	C	-0.079056	-0.006160	0.554523
C174	C	-0.119354	-0.006179	0.544788
C175	C	-0.169388	-0.006192	0.585097
C176	C	-0.179125	-0.006187	0.635141
C177	C	-0.138826	-0.006168	0.644878
C178	C	-0.088791	-0.006155	0.604569
H179	H	-0.112147	-0.006183	0.507740
H180	H	-0.199220	-0.006206	0.577889
H181	H	-0.216163	-0.006197	0.664981
H182	H	-0.146032	-0.006164	0.681926
H183	H	-0.058959	-0.006141	0.611777
H184	H	0.550467	-0.414317	0.335455
C185	C	-0.048266	-0.535534	0.952223
C186	C	-0.098397	-0.495398	0.952214
C187	C	-0.138513	-0.505382	0.952166
C188	C	-0.128497	-0.555503	0.952127
C189	C	-0.078363	-0.595642	0.952136
C190	C	-0.038247	-0.585658	0.952184
H191	H	-0.105814	-0.458293	0.952243
H192	H	-0.175625	-0.475668	0.952159
H193	H	-0.158193	-0.562893	0.952091
H194	H	-0.070946	-0.632747	0.952107
H195	H	-0.001135	-0.615372	0.952190
C196	C	0.152595	-0.474442	0.952279
C197	C	0.143574	-0.460956	0.994494
C198	C	0.183708	-0.450953	0.994486
C199	C	0.232863	-0.454436	0.952264
C200	C	0.241885	-0.467923	0.910046
C201	C	0.201751	-0.477926	0.910053
H202	H	0.107185	-0.458376	1.025752
H203	H	0.177029	-0.440969	1.025739
H204	H	0.262573	-0.447032	0.952259
H205	H	0.278274	-0.470502	0.878788
H206	H	0.208431	-0.487909	0.878801
H207	H	0.167840	-0.502959	0.832516
C208	C	0.082347	-0.006096	0.553989
C209	C	0.132479	-0.006077	0.543955
C210	C	0.142512	-0.006069	0.584067
C211	C	0.102414	-0.006079	0.634212
C212	C	0.052279	-0.006097	0.644248
C213	C	0.042246	-0.006106	0.604137
H214	H	0.162165	-0.006070	0.506832
H215	H	0.179625	-0.006055	0.576637
H216	H	0.109841	-0.006073	0.663905
H217	H	0.022593	-0.006105	0.681371
H218	H	0.005132	-0.006120	0.611567
C219	C	0.550622	-0.404276	0.483775
C220	C	0.508438	-0.385208	0.525445
C221	C	0.508424	-0.345065	0.535445
C222	C	0.550594	-0.323990	0.503774
C223	C	0.592781	-0.343058	0.462101
C224	C	0.592795	-0.383201	0.452102
H225	H	0.477219	-0.400809	0.548892
H226	H	0.477195	-0.330950	0.566294
H227	H	0.550584	-0.294274	0.511176
H228	H	0.624001	-0.327457	0.438654
H229	H	0.624024	-0.397316	0.421253
H230	H	0.169570	-0.532590	0.363385
H231	H	-0.038255	-0.387188	0.952329
H232	H	0.142562	-0.622811	0.952240
H233	H	0.198696	-0.471996	0.739692
H234	H	0.046887	-0.396202	0.562361
H235	H	0.015920	-0.427139	0.531437
H236	H	0.167497	-0.502899	0.455559
H237	H	0.338156	-0.509129	0.552896
C238	C	0.212836	-0.475460	0.482927
C239	C	0.244999	-0.529496	0.497782
C240	C	0.300335	-0.543058	0.484148
C241	C	0.323507	-0.502585	0.455659
C242	C	0.291344	-0.448546	0.440802
C243	C	0.236008	-0.434984	0.454436
H244	H	0.227846	-0.559460	0.518873
H245	H	0.324144	-0.583062	0.495147
H246	H	0.364470	-0.512625	0.445567
H247	H	0.308497	-0.418582	0.419711
H248	H	0.212198	-0.394980	0.443437
C249	C	0.438292	-0.554312	0.523961
C250	C	0.410172	-0.590475	0.550724
C251	C	0.438332	-0.645386	0.558689
C252	C	0.494613	-0.664134	0.539892
C253	C	0.522736	-0.627970	0.513128
C254	C	0.494576	-0.573060	0.505163
H255	H	0.368506	-0.576598	0.564640
H256	H	0.417512	-0.672157	0.578502
H257	H	0.515458	-0.704782	0.545789
H258	H	0.564401	-0.641848	0.499212
H259	H	0.515395	-0.546289	0.485350
H260	H	0.338097	-0.358917	0.495611
C261	C	0.438230	-0.380447	0.457657
C262	C	0.431219	-0.349352	0.483812
C263	C	0.459346	-0.313191	0.457043
C264	C	0.494483	-0.308125	0.404117
C265	C	0.501496	-0.339221	0.377959
C266	C	0.473369	-0.375382	0.404728
H267	H	0.405207	-0.353101	0.522994
H268	H	0.454155	-0.290171	0.476407
H269	H	0.515304	-0.281356	0.384301
H270	H	0.527508	-0.335472	0.338777
H271	H	0.478560	-0.398401	0.385363
C272	C	0.168888	-0.225948	0.439100
C273	C	0.182429	-0.197791	0.383769
C274	C	0.214763	-0.225919	0.347177
C275	C	0.233557	-0.282203	0.365916
C276	C	0.220016	-0.310363	0.421249
C277	C	0.187682	-0.282235	0.457842
H278	H	0.168516	-0.156123	0.369895
H279	H	0.224787	-0.205073	0.306215
H280	H	0.257493	-0.303025	0.338828
H281	H	0.233929	-0.352031	0.435123
H282	H	0.177658	-0.303082	0.498803
H283	H	0.129496	-0.125810	0.417697
H284	H	0.053825	-0.125861	0.569312
H285	H	0.084809	-0.218687	0.600218
H286	H	-0.090896	-0.534066	0.267110
C287	C	-0.063344	-0.488806	0.166970
C288	C	-0.095728	-0.452206	0.195087
C289	C	-0.109278	-0.396872	0.166922
C290	C	-0.090444	-0.378138	0.110639
C291	C	-0.058058	-0.414739	0.082520
C292	C	-0.044508	-0.470072	0.110685
H293	H	-0.109672	-0.466074	0.236753
H294	H	-0.133252	-0.369779	0.187738
H295	H	-0.100474	-0.337177	0.089790
H296	H	-0.044114	-0.400871	0.040853
H297	H	-0.020534	-0.497166	0.089868
H298	H	-0.015148	-0.685706	0.267200
H299	H	-0.090949	-0.534065	0.310634
H300	H	-0.060067	-0.503170	0.341685
H301	H	-0.015331	-0.685697	0.386578
C302	C	0.023952	-0.664312	0.426036
C303	C	0.073300	-0.701163	0.406510
C304	C	0.105597	-0.737776	0.438934
C305	C	0.088545	-0.737537	0.490884
C306	C	0.039194	-0.700684	0.510412
C307	C	0.006897	-0.664072	0.477988
H308	H	0.085926	-0.701341	0.368052
H309	H	0.142130	-0.765056	0.424478
H310	H	0.112453	-0.764640	0.514886
H311	H	0.026569	-0.700506	0.548871
H312	H	-0.029636	-0.636791	0.492444
C313	C	0.031347	-0.684016	0.313112
C314	C	0.086239	-0.712204	0.305214
C315	C	0.122414	-0.684108	0.278530
C316	C	0.103697	-0.627823	0.259744
C317	C	0.048802	-0.599632	0.267640
C318	C	0.012627	-0.627728	0.294325
H319	H	0.100097	-0.753872	0.319122
H320	H	0.163051	-0.704977	0.272685
H321	H	0.130476	-0.607025	0.239990
H322	H	0.034944	-0.557964	0.253733
H323	H	-0.028010	-0.606859	0.300170
H324	H	0.052828	-0.784146	0.351024
H325	H	-0.128252	-0.691169	0.377093
H326	H	-0.134607	-0.647683	0.424287
H327	H	-0.227429	-0.616637	0.455084
H328	H	-0.134369	-0.571905	0.272603
C329	C	-0.234493	-0.532471	0.293887
C330	C	-0.227416	-0.552064	0.257063
C331	C	-0.255493	-0.519698	0.220423
C332	C	-0.290646	-0.467738	0.220606
C333	C	-0.297724	-0.448142	0.257431
C334	C	-0.269648	-0.480509	0.294071
H335	H	-0.201392	-0.590530	0.256926
H336	H	-0.250253	-0.534204	0.193162
H337	H	-0.311430	-0.443779	0.193482
H338	H	-0.323748	-0.409676	0.257568
H339	H	-0.274888	-0.466002	0.321332
C340	C	0.021307	-0.374043	0.353103
C341	C	-0.028799	-0.333860	0.363038
C342	C	-0.038754	-0.283759	0.322851
C343	C	0.001397	-0.273841	0.272728
C344	C	0.051507	-0.314026	0.262790
C345	C	0.061462	-0.364127	0.302977
H346	H	-0.058524	-0.341200	0.400145
H347	H	-0.075849	-0.254012	0.330208
H348	H	-0.005972	-0.236754	0.242979
H349	H	0.081232	-0.306685	0.225684
H350	H	0.098557	-0.393874	0.295620
