data_functionalizedCrystal
_audit_creation_method	'MofGen! by Chris Wilmer'
_symmetry_space_group_name_H-M	'P1'
_symmetry_Int_Tables_number	1
_symmetry_cell_setting	triclinic
loop_
_symmetry_equiv_pos_as_xyz
  x,y,z
_cell_length_a	11.792241
_cell_length_b	11.026607
_cell_length_c	10.065875
_cell_angle_alpha	100.697662
_cell_angle_beta	98.849501
_cell_angle_gamma	83.610284
loop_
_atom_site_label
_atom_site_type_symbol
_atom_site_fract_x
_atom_site_fract_y
_atom_site_fract_z
O1	O	0.462836	-1.630965	-0.113504
O2	O	0.962836	-1.130965	0.386496
O3	O	0.408644	-1.277303	-0.113505
O4	O	0.908644	-0.777303	0.386495
O5	O	0.272275	-1.462715	-0.113495
O6	O	0.772275	-0.962715	0.386505
O7	O	0.599205	-1.445553	-0.113514
O8	O	1.099205	-0.945553	0.386486
O9	O	0.298412	-1.427360	0.113492
O10	O	0.798412	-0.927360	0.613492
O11	O	0.434781	-1.241948	0.113482
O12	O	0.934781	-0.741948	0.613482
O13	O	0.488973	-1.595611	0.113483
O14	O	0.988973	-1.095611	0.613483
Zn15	Zn	0.466027	-1.413166	0.149522
Zn16	Zn	0.966027	-0.913166	0.649522
Zn17	Zn	0.431590	-1.459747	-0.149543
Zn18	Zn	0.931590	-0.959747	0.350457
O19	O	0.625342	-1.410198	0.113473
O20	O	1.125342	-0.910198	0.613473
C21	C	0.242838	-1.443960	-0.000002
C22	C	0.742838	-0.943960	0.499998
C23	C	0.116183	-1.440732	-0.000003
C24	C	0.616183	-0.940732	0.499997
C25	C	0.411715	-1.214349	-0.000011
C26	C	0.911715	-0.714349	0.499989
C27	C	0.381912	-1.079439	-0.000011
C28	C	0.881912	-0.579439	0.499989
C29	C	0.485901	-1.658565	-0.000014
C30	C	0.985901	-1.158565	0.499986
C31	C	0.515703	-1.793477	-0.000023
C32	C	1.015703	-1.293477	0.499977
C33	C	-0.115710	-1.434802	-0.000026
C34	C	0.384290	-0.934802	0.499974
C35	C	0.013332	-1.438097	-0.000013
C36	C	0.513332	-0.938097	0.499987
C37	C	0.654778	-1.428954	-0.000023
C38	C	1.154778	-0.928954	0.499977
C39	C	0.781432	-1.432183	-0.000031
C40	C	1.281432	-0.932183	0.499969
N41	N	0.489530	-1.381384	0.353626
N42	N	0.989530	-0.881384	0.853626
C43	C	0.464202	-1.006175	-0.000017
C44	C	0.964202	-0.506175	0.499983
C45	C	0.433401	-0.866738	-0.000017
C46	C	0.933401	-0.366738	0.499983
N47	N	0.408079	-1.491539	-0.353647
N48	N	0.908079	-0.991539	0.146353
C49	C	0.439759	-1.448682	0.421408
C50	C	0.939759	-0.948682	0.921408
C51	C	0.457858	-1.424231	0.578574
C52	C	0.957858	-0.924231	1.078574
H53	H	0.557456	-1.046680	-0.000015
H54	H	1.057456	-0.546680	0.499985
H55	H	0.513868	-1.348504	0.636891
H56	H	1.013868	-0.848504	1.136891
Br57	Br	0.671148	-0.860961	-0.000006
Br58	Br	1.171148	-0.360961	0.499994
Br59	Br	0.346052	-1.574578	0.324213
Br60	Br	0.846052	-1.074578	0.824213
Br61	Br	0.315041	-1.618037	0.549167
Br62	Br	0.815041	-1.118037	1.049167
Br63	Br	0.582878	-1.255169	0.450821
Br64	Br	1.082878	-0.755169	0.950821
Br65	Br	0.277963	-0.799243	0.000008
Br66	Br	0.777963	-0.299243	0.500008
Br67	Br	0.226480	-1.011938	0.000013
Br68	Br	0.726480	-0.511938	0.500013
