data_functionalizedCrystal
_audit_creation_method	'MofGen! by Chris Wilmer'
_symmetry_space_group_name_H-M	'P1'
_symmetry_Int_Tables_number	1
_symmetry_cell_setting	triclinic
loop_
_symmetry_equiv_pos_as_xyz
  x,y,z
_cell_length_a	12.759401
_cell_length_b	12.645330
_cell_length_c	12.759393
_cell_angle_alpha	89.971026
_cell_angle_beta	89.979062
_cell_angle_gamma	90.019217
loop_
_atom_site_label
_atom_site_type_symbol
_atom_site_fract_x
_atom_site_fract_y
_atom_site_fract_z
Zn1	Zn	1.606245	-0.421945	-0.594031
Zn2	Zn	1.606126	-0.599246	-0.418356
Zn3	Zn	1.430543	-0.422001	-0.418366
Zn4	Zn	1.430526	-0.599172	-0.593993
O5	O	1.518360	-0.510591	-0.506187
O6	O	1.753250	-0.445472	-0.570739
O7	O	1.582793	-0.575788	-0.271336
O8	O	1.453907	-0.273647	-0.441689
O9	O	1.753163	-0.575734	-0.441671
O10	O	1.582994	-0.273605	-0.570749
O11	O	1.453793	-0.445568	-0.271344
O12	O	1.283520	-0.445496	-0.441652
O13	O	1.453878	-0.575607	-0.741019
O14	O	1.283507	-0.575662	-0.570684
O15	O	1.582977	-0.445400	-0.741047
O16	O	1.582776	-0.747583	-0.441634
O17	O	1.453763	-0.747529	-0.570674
C18	C	1.245393	-0.510578	-0.506166
C19	C	1.128616	-0.510598	-0.506182
C20	C	1.073775	-0.578479	-0.573263
C21	C	0.964051	-0.578483	-0.573284
C22	C	0.964019	-0.442722	-0.439133
C23	C	1.073741	-0.442714	-0.439118
C24	C	1.518283	-0.786021	-0.506172
C25	C	1.518347	-0.903851	-0.506201
C26	C	1.437519	-1.071424	-0.587630
C27	C	1.437106	-0.948865	-0.587368
C28	C	1.488371	-0.948453	-0.395479
C29	C	1.487878	-1.071052	-0.395973
C30	C	1.629644	-1.070935	-0.534596
C31	C	1.628962	-0.948328	-0.537017
C32	C	1.792393	-0.510605	-0.506208
C33	C	1.909170	-0.510610	-0.506217
C34	C	1.518439	-0.510489	-0.780220
C35	C	1.518472	-0.510446	-0.896997
C36	C	1.518466	-0.234086	-0.506224
C37	C	1.518511	-0.116255	-0.506241
C38	C	1.585699	-0.442636	-0.951875
C39	C	1.585717	-0.442590	-1.061599
C40	C	1.451278	-0.578173	-1.061557
C41	C	1.451255	-0.578213	-0.951835
C42	C	1.518342	-0.510616	-0.233219
C43	C	1.518512	-0.510360	-0.116443
H44	H	1.118451	-0.633752	-0.627873
Cl45	Cl	1.670196	-0.357439	-0.882939
Cl46	Cl	0.895025	-0.357390	-0.354827
Cl47	Cl	1.722810	-1.115716	-0.443091
H48	H	1.544308	-1.100712	-0.333264
Cl49	Cl	1.671861	-1.118542	-0.657132
H50	H	0.919404	-0.633756	-0.627910
Cl51	Cl	1.142689	-0.357364	-0.354787
H52	H	1.455861	-0.918705	-0.669468
H53	H	1.407979	-0.917846	-0.371023
Cl54	Cl	1.576556	-0.903443	-0.299289
H55	H	1.456102	-1.100830	-0.669999
Cl56	Cl	1.362451	-1.115360	-0.358888
H57	H	1.355645	-1.102329	-0.569085
Cl58	Cl	1.366728	-0.663461	-0.882840
H59	H	1.354717	-0.919634	-0.568583
H60	H	1.651567	-0.919171	-0.618502
H61	H	1.692482	-0.917680	-0.482054
H62	H	1.640459	-0.387371	-1.106276
Cl63	Cl	1.366787	-0.663367	-1.130504
