data_functionalizedCrystal
_audit_creation_method	'MofGen! by Chris Wilmer'
_symmetry_space_group_name_H-M	'P1'
_symmetry_Int_Tables_number	1
_symmetry_cell_setting	triclinic
loop_
_symmetry_equiv_pos_as_xyz
  x,y,z
_cell_length_a	19.188930
_cell_length_b	23.532357
_cell_length_c	22.010155
_cell_angle_alpha	89.999114
_cell_angle_beta	89.977671
_cell_angle_gamma	82.986534
loop_
_atom_site_label
_atom_site_type_symbol
_atom_site_fract_x
_atom_site_fract_y
_atom_site_fract_z
O1	O	0.925908	0.071094	-0.050728
O2	O	0.722564	0.080666	-0.050687
O3	O	0.830386	-0.007040	-0.050696
O4	O	0.818086	0.158801	-0.050719
O5	O	0.830366	-0.007027	0.050354
O6	O	0.722544	0.080680	0.050363
O7	O	0.925888	0.071108	0.050323
Cu8	Cu	0.824214	0.075895	0.059570
Cu9	Cu	0.824237	0.075879	-0.059934
O10	O	0.818066	0.158815	0.050332
C11	C	0.696544	0.080363	-0.000156
C12	C	0.619042	0.079433	-0.000140
C13	C	0.830068	-0.028251	-0.000169
C14	C	0.829143	-0.091471	-0.000163
C15	C	0.573943	0.130896	-0.000157
C16	C	0.501122	0.130022	-0.000163
C17	C	0.473404	0.077681	-0.000166
C18	C	0.518513	0.026211	-0.000146
C19	C	0.591333	0.027087	-0.000133
N20	N	0.365567	0.037669	-0.034577
N21	N	0.296391	0.036841	-0.034590
C22	C	0.254004	0.075040	-0.000203
N23	N	0.283405	0.114108	0.034191
N24	N	0.352587	0.114938	0.034202
C25	C	0.394445	0.076726	-0.000179
C26	C	0.129944	0.125559	-0.000225
C27	C	0.057122	0.124683	-0.000228
C28	C	0.074515	0.020871	-0.000216
C29	C	0.147335	0.021749	-0.000208
C30	C	0.175045	0.074094	-0.000215
C31	C	0.823347	-0.483502	-0.055277
C32	C	0.822467	-0.542904	-0.055281
O33	O	0.821998	-0.573627	-0.102126
N34	N	0.822021	-0.572608	-0.000199
C35	C	0.822446	-0.542908	0.054890
O36	O	0.821985	-0.573628	0.101741
C37	C	0.823320	-0.483507	0.054893
C38	C	0.823774	-0.453806	-0.000193
C39	C	0.823800	-0.453802	-0.110358
C40	C	0.824680	-0.394404	-0.110355
C41	C	0.825108	-0.364708	-0.055270
C42	C	0.824655	-0.394409	-0.000189
C43	C	0.823741	-0.453807	0.109981
C44	C	0.824615	-0.394402	0.109979
C45	C	0.825068	-0.364701	0.054893
C46	C	0.825963	-0.305316	0.054899
N47	N	0.826410	-0.275611	-0.000183
C48	C	0.825982	-0.305307	-0.055268
C49	C	0.820609	-0.667653	0.054880
C50	C	0.819740	-0.727053	0.054878
C51	C	0.819760	-0.727045	-0.055293
C52	C	0.820634	-0.667644	-0.055290
C53	C	0.821056	-0.637949	-0.000202
C54	C	0.827832	-0.180569	-0.055256
C55	C	0.828716	-0.121167	-0.055248
C56	C	0.828692	-0.121180	0.054923
C57	C	0.827812	-0.180578	0.054915
C58	C	0.827380	-0.210270	-0.000180
O59	O	0.826430	-0.274554	0.101720
O60	O	0.826434	-0.274579	-0.102111
C61	C	0.951908	0.071411	-0.000209
C62	C	1.029409	0.072342	-0.000229
C63	C	0.818383	0.180025	-0.000197
C64	C	0.819308	0.243246	-0.000207
N65	N	0.824203	0.075907	0.143622
C66	C	0.871983	0.037052	0.563398
C67	C	0.871986	0.037049	0.627005
O68	O	0.912583	0.004019	0.659893
N69	N	0.824236	0.075872	0.658829
C70	C	0.776475	0.114697	0.627043
O71	O	0.735860	0.147719	0.659952
C72	C	0.776469	0.114698	0.563436
C73	C	0.824227	0.075876	0.531615
C74	C	0.919736	-0.001767	0.531577
C75	C	0.919734	-0.001762	0.467973
C76	C	0.871978	0.037061	0.436191
C77	C	0.824224	0.075880	0.468012
C78	C	0.728705	0.153520	0.531650
C79	C	0.728703	0.153516	0.468040
C80	C	0.776461	0.114695	0.436219
C81	C	0.776466	0.114708	0.372626
N82	N	0.824216	0.075885	0.340802
C83	C	0.871972	0.037061	0.372585
C84	C	0.776490	0.114693	0.760620
C85	C	0.776499	0.114696	0.824226
C86	C	0.872009	0.037047	0.824184
C87	C	0.872003	0.037047	0.760577
C88	C	0.824240	0.075870	0.728796
C89	C	0.871963	0.037074	0.239013
C90	C	0.871959	0.037083	0.175404
C91	C	0.776446	0.114730	0.175452
C92	C	0.776453	0.114723	0.239055
C93	C	0.824214	0.075890	0.270834
O94	O	0.735888	0.147720	0.339698
O95	O	0.912574	0.004040	0.339667
N96	N	0.824253	0.075870	0.856013
H97	H	0.596499	0.173520	-0.000164
F98	F	0.825063	-0.362801	0.168613
H99	H	0.820954	-0.643479	0.099743
H100	H	0.464395	0.171931	-0.000175
F101	F	0.677864	0.194837	0.434220
H102	H	0.829087	-0.096988	-0.100107
F103	F	0.489013	-0.029493	-0.000145
F104	F	0.725631	0.156048	0.272920
F105	F	0.823255	-0.485403	0.168611
H106	H	0.825047	-0.370227	-0.155211
H107	H	0.827449	-0.204762	0.099770
F108	F	0.045020	-0.034834	-0.000213
H109	H	0.823449	-0.477974	-0.155217
F110	F	0.639333	-0.027690	-0.000115
H111	H	0.184056	-0.020159	-0.000197
H112	H	0.829043	-0.096991	0.099771
H113	H	0.827477	-0.204738	-0.100119
H114	H	0.819409	-0.751234	-0.100145
H115	H	0.910851	0.005470	0.149498
H116	H	0.910854	0.005452	0.264881
F117	F	0.970560	-0.043084	0.434113
F118	F	0.159437	0.181269	-0.000228
H119	H	0.020402	0.166592	-0.000238
F120	F	0.821116	-0.636040	-0.113919
H121	H	0.958625	-0.033384	0.557448
F122	F	0.819269	-0.758658	0.113508
F123	F	0.922832	-0.004273	0.726717
F124	F	0.922834	-0.004274	0.858021
H125	H	0.737618	0.146314	0.850130
H126	H	0.737598	0.146312	0.734747
H127	H	0.689816	0.185132	0.557550
F128	F	0.725624	0.156048	0.141617
