data_functionalizedCrystal
_audit_creation_method	'MofGen! by Chris Wilmer'
_symmetry_space_group_name_H-M	'P1'
_symmetry_Int_Tables_number	1
_symmetry_cell_setting	triclinic
loop_
_symmetry_equiv_pos_as_xyz
  x,y,z
_cell_length_a	19.188930
_cell_length_b	15.944551
_cell_length_c	14.421503
_cell_angle_alpha	90.003141
_cell_angle_beta	89.999163
_cell_angle_gamma	96.678240
loop_
_atom_site_label
_atom_site_type_symbol
_atom_site_fract_x
_atom_site_fract_y
_atom_site_fract_z
O1	O	0.090038	-1.114192	-0.077026
O2	O	0.101140	-0.869601	-0.077050
O3	O	-0.006048	-0.998955	-0.077019
O4	O	0.197227	-0.984838	-0.077057
O5	O	-0.006032	-0.998934	0.077204
O6	O	0.101156	-0.869580	0.077173
O7	O	0.090054	-1.114171	0.077198
Cu8	Cu	0.095607	-0.991873	0.091267
Cu9	Cu	0.095588	-0.991899	-0.091120
O10	O	0.197243	-0.984817	0.077167
C11	C	-0.032052	-0.998487	0.000095
C12	C	-0.109560	-0.997115	0.000103
C13	C	0.100687	-0.838298	0.000059
C14	C	0.099306	-0.745057	0.000050
C15	C	0.090507	-1.145474	0.000087
C16	C	0.091889	-1.238715	0.000089
C17	C	-0.154288	-1.073016	0.000115
C18	C	-0.227115	-1.071726	0.000100
C19	C	-0.255211	-0.994532	0.000092
C20	C	-0.210474	-0.918622	0.000075
C21	C	-0.137648	-0.919913	0.000080
N22	N	-0.363364	-0.935519	0.052571
N23	N	-0.432545	-0.934298	0.052568
C24	C	-0.474630	-0.990637	0.000073
N25	N	-0.444921	-1.048256	-0.052407
N26	N	-0.375733	-1.049480	-0.052400
C27	C	-0.334178	-0.993123	0.000085
C28	C	-0.598326	-1.065145	0.000067
C29	C	-0.671154	-1.063852	0.000046
C30	C	-0.654511	-0.910745	0.000030
C31	C	-0.581685	-0.912040	0.000041
C32	C	-0.553597	-0.989242	0.000064
C33	C	0.223247	-0.985285	0.000050
C34	C	0.300755	-0.986657	0.000036
C35	C	0.029563	-0.530462	0.000081
C36	C	0.061941	-0.469331	-0.075965
C37	C	0.096806	-0.574341	0.000062
C38	C	0.061973	-0.469332	0.076087
C39	C	0.094386	-0.409437	0.000077
C40	C	0.129203	-0.514438	-0.076047
C41	C	0.129225	-0.514446	0.076073
C42	C	0.161652	-0.453332	0.000008
C43	C	0.098198	-0.669338	0.000052
C44	C	0.093000	-0.314441	0.000080
N45	N	0.095619	-0.991862	0.219549
N46	N	0.095569	-0.991917	-0.219401
C47	C	0.145161	-0.932038	0.469188
C48	C	0.158716	-1.007887	0.530995
C49	C	0.095603	-0.991882	0.408710
C50	C	0.082064	-0.916052	0.530997
C51	C	0.095588	-0.991895	0.591431
C52	C	0.109189	-1.067770	0.469157
C53	C	0.032510	-0.975885	0.469153
C54	C	0.046038	-1.051789	0.530932
C55	C	0.095613	-0.991874	0.303449
C56	C	0.095578	-0.991913	0.696690
H57	H	-0.131424	-1.135880	0.000131
H58	H	-0.707571	-1.125662	0.000051
H59	H	-0.545266	-0.850233	0.000037
O60	O	-0.037009	-0.570490	0.000172
C61	C	-0.047601	-0.620858	0.080426
H62	H	-0.008678	-0.595543	0.136284
H63	H	-0.103395	-0.619022	0.106850
H64	H	-0.039296	-0.688736	0.063040
H65	H	0.033493	-0.449336	-0.140247
O66	O	-0.270475	-1.145537	0.000156
C67	C	-0.230067	-1.213953	0.000150
H68	H	-0.175714	-1.192429	0.029345
H69	H	-0.256931	-1.267107	0.044936
H70	H	-0.224881	-1.237646	-0.073833
H71	H	-0.677386	-0.847892	0.000019
O72	O	-0.571067	-1.140154	-0.000090
C73	C	-0.593931	-1.186423	-0.079954
H74	H	-0.609081	-1.141282	-0.135783
H75	H	-0.549809	-1.221994	-0.106759
H76	H	-0.641391	-1.233407	-0.061900
O77	O	-0.237846	-0.843688	-0.000056
C78	C	-0.279458	-0.838365	-0.079943
H79	H	-0.297591	-0.904640	-0.106563
H80	H	-0.327149	-0.805056	-0.061985
H81	H	-0.247286	-0.801094	-0.135878
O82	O	-0.094296	-0.846102	0.000115
C83	C	-0.134706	-0.777688	0.000075
H84	H	-0.189060	-0.799203	0.029268
H85	H	-0.107848	-0.724516	0.044846
H86	H	-0.139886	-0.754025	-0.073918
O87	O	0.163050	-0.538308	-0.152806
C88	C	0.163932	-0.626602	-0.151895
H89	H	0.119117	-0.656962	-0.106822
H90	H	0.157323	-0.652085	-0.225621
H91	H	0.216066	-0.642157	-0.122506
O92	O	0.068441	-0.839582	0.563557
C93	C	0.067974	-0.840894	0.661312
H94	H	0.099910	-0.892213	0.687053
H95	H	0.091996	-0.776961	0.688815
H96	H	0.011641	-0.854567	0.687114
O97	O	0.228307	-0.413555	-0.000214
C98	C	0.263485	-0.436563	-0.080487
H99	H	0.223396	-0.458623	-0.136262
H100	H	0.299510	-0.379741	-0.107031
H101	H	0.295996	-0.489928	-0.063077
H102	H	0.157649	-0.534462	0.140358
H103	H	0.033526	-0.449343	0.140376
O104	O	0.195287	-0.871814	0.436878
C105	C	0.261713	-0.889004	0.468410
H106	H	0.259746	-0.958996	0.485742
H107	H	0.302440	-0.872006	0.411878
H108	H	0.276667	-0.849911	0.533104
H109	H	0.212066	-1.021430	0.558159
O110	O	0.122989	-1.144219	0.436739
C111	C	0.122867	-1.143275	0.338979
H112	H	0.133792	-1.075366	0.313410
H113	H	0.165264	-1.181481	0.311999
H114	H	0.069448	-1.172213	0.312477
H115	H	0.004119	-1.102458	0.557872
H116	H	-0.020823	-0.962318	0.441967
