data_functionalizedCrystal
_audit_creation_method	'MofGen! by Chris Wilmer'
_symmetry_space_group_name_H-M	'P1'
_symmetry_Int_Tables_number	1
_symmetry_cell_setting	triclinic
loop_
_symmetry_equiv_pos_as_xyz
  x,y,z
_cell_length_a	19.188940
_cell_length_b	10.908937
_cell_length_c	9.482900
_cell_angle_alpha	96.963629
_cell_angle_beta	80.697423
_cell_angle_gamma	71.617335
loop_
_atom_site_label
_atom_site_type_symbol
_atom_site_fract_x
_atom_site_fract_y
_atom_site_fract_z
O1	O	-0.121165	1.724533	0.120934
O2	O	0.378835	2.224533	0.620934
O3	O	-0.066609	1.350368	0.120929
O4	O	0.433391	1.850368	0.620929
O5	O	-0.196776	1.548240	0.120921
O6	O	0.303224	2.048240	0.620921
O7	O	0.009002	1.526661	0.120943
O8	O	0.509002	2.026661	0.620943
O9	O	-0.170249	1.508047	-0.120870
O10	O	0.329751	2.008047	0.379130
O11	O	-0.040082	1.310175	-0.120862
O12	O	0.459918	1.810175	0.379138
O13	O	-0.094638	1.684340	-0.120856
O14	O	0.405362	2.184340	0.379144
Cu15	Cu	-0.064938	1.493588	-0.142936
Cu16	Cu	0.435062	1.993588	0.357064
Cu17	Cu	-0.096309	1.541120	0.143009
Cu18	Cu	0.403691	2.041120	0.643009
O19	O	0.035529	1.486468	-0.120848
O20	O	0.535529	1.986468	0.379152
C21	C	-0.048247	1.282402	0.000033
C22	C	0.451753	1.782402	0.500033
C23	C	-0.033064	1.139766	0.000031
C24	C	0.466936	1.639766	0.500031
C25	C	-0.072782	0.943648	0.000053
C26	C	0.427218	1.443648	0.500053
C27	C	-0.088474	1.091067	0.000033
C28	C	0.411526	1.591067	0.500033
C29	C	-0.209443	1.527442	0.000026
C30	C	0.290557	2.027442	0.500026
C31	C	-0.286707	1.525338	0.000026
C32	C	0.213293	2.025338	0.500026
C33	C	-0.823796	1.488464	-0.131740
C34	C	-0.323796	1.988464	0.368260
C35	C	-0.751196	1.490426	-0.131748
C36	C	-0.251196	1.990426	0.368252
C37	C	-0.729349	1.513323	0.000051
C38	C	-0.229349	2.013323	0.500051
C39	C	-0.780104	1.534226	0.131867
C40	C	-0.280104	2.034226	0.631867
C41	C	-0.852700	1.532250	0.131871
C42	C	-0.352700	2.032250	0.631871
N43	N	-0.639811	1.605850	0.098152
N44	N	-0.139811	2.105850	0.598152
N45	N	-0.570847	1.607728	0.098139
N46	N	-0.070847	2.107728	0.598139
C47	C	-0.510620	1.519273	0.000046
C48	C	-0.010620	2.019273	0.500046
N49	N	-0.521964	1.428881	-0.098056
N50	N	-0.021964	1.928881	0.401944
N51	N	-0.590935	1.427008	-0.098047
N52	N	-0.090935	1.927008	0.401953
C53	C	-0.650632	1.515466	0.000061
C54	C	-0.150632	2.015466	0.500061
C55	C	-0.381152	1.500489	-0.131771
C56	C	0.118848	2.000489	0.368229
C57	C	-0.308549	1.502444	-0.131773
C58	C	0.191451	2.002444	0.368227
C59	C	-0.337461	1.546257	0.131845
C60	C	0.162539	2.046257	0.631845
C61	C	-0.410060	1.544289	0.131844
C62	C	0.089940	2.044289	0.631844
C63	C	-0.431901	1.521410	0.000032
C64	C	0.068099	2.021410	0.500032
C65	C	0.048196	1.507266	0.000050
C66	C	0.548196	2.007266	0.500050
C67	C	0.125458	1.509372	0.000059
C68	C	0.625458	2.009372	0.500059
C69	C	-0.113000	1.752306	0.000043
C70	C	0.387000	2.252306	0.500043
C71	C	-0.128185	1.894944	0.000055
C72	C	0.371815	2.394944	0.500055
N73	N	-0.042874	1.460165	-0.344055
N74	N	0.457126	1.960165	0.155945
C75	C	-0.089804	1.531253	-0.416257
C76	C	0.410196	2.031253	0.083743
C77	C	-0.071443	1.503455	-0.583674
C78	C	0.428557	2.003455	-0.083674
N79	N	-0.118380	1.574553	0.344128
N80	N	0.381620	2.074553	0.844128
H81	H	-0.841574	1.469834	-0.239071
H82	H	-0.341574	1.969834	0.260929
C83	C	-0.191028	1.684580	-0.571972
C84	C	0.308972	2.184580	-0.071972
H85	H	-0.218092	1.725567	-0.638984
H86	H	0.281908	2.225567	-0.138984
H87	H	-0.178678	1.747883	-0.512573
H88	H	0.321322	2.247883	-0.012573
H89	H	-0.221140	1.648155	-0.512614
H90	H	0.278860	2.148155	-0.012614
H91	H	-0.709866	1.473376	-0.239078
H92	H	-0.209866	1.973376	0.260922
H93	H	0.025990	1.072331	0.000047
H94	H	0.525990	1.572331	0.500047
H95	H	0.010896	1.378719	-0.406182
H96	H	0.510896	1.878719	0.093818
H97	H	-0.187235	0.962386	0.000051
H98	H	0.312765	1.462386	0.500051
C99	C	0.006990	0.852553	0.000066
C100	C	0.506990	1.352553	0.500066
H101	H	0.007073	0.765420	0.000066
H102	H	0.507073	1.265420	0.500066
H103	H	0.022308	0.882039	0.084380
H104	H	0.522308	1.382039	0.584380
H105	H	0.040806	0.853987	-0.084266
H106	H	0.540806	1.353987	0.415734
H107	H	-0.762311	1.552863	0.239178
H108	H	-0.262311	2.052863	0.739178
H109	H	-0.894019	1.549275	0.239201
H110	H	-0.394019	2.049275	0.739201
H111	H	-0.147528	1.158505	0.000029
H112	H	0.352472	1.658505	0.500029
H113	H	-0.398934	1.481849	-0.239100
H114	H	0.101066	1.981849	0.260900
H115	H	-0.267230	1.485414	-0.239104
H116	H	0.232770	1.985414	0.260896
H117	H	-0.319672	1.564884	0.239158
H118	H	0.180328	2.064884	0.739158
C119	C	-0.465885	1.567303	0.276825
C120	C	0.034115	2.067303	0.776825
H121	H	-0.442480	1.581231	0.355320
H122	H	0.057520	2.081231	0.855320
H123	H	-0.480786	1.492532	0.282303
H124	H	0.019214	1.992532	0.782303
H125	H	-0.508828	1.642368	0.282307
H126	H	-0.008828	2.142368	0.782307
C127	C	0.001196	1.393409	-0.667577
C128	C	0.501196	1.893409	-0.167577
H129	H	0.028254	1.352402	-0.600568
H130	H	0.528254	1.852402	-0.100568
H131	H	0.031314	1.429800	-0.726956
H132	H	0.531314	1.929800	-0.226956
H133	H	-0.011173	1.330111	-0.726955
H134	H	0.488827	1.830111	-0.226955
H135	H	-0.143579	1.612690	-0.354133
H136	H	0.356421	2.112690	0.145867
