data_functionalizedCrystal
_audit_creation_method	'MofGen! by Chris Wilmer'
_symmetry_space_group_name_H-M	'P1'
_symmetry_Int_Tables_number	1
_symmetry_cell_setting	triclinic
loop_
_symmetry_equiv_pos_as_xyz
  x,y,z
_cell_length_a	8.597340
_cell_length_b	14.519709
_cell_length_c	12.996460
_cell_angle_alpha	89.998766
_cell_angle_beta	97.695834
_cell_angle_gamma	84.511855
loop_
_atom_site_label
_atom_site_type_symbol
_atom_site_fract_x
_atom_site_fract_y
_atom_site_fract_z
O1	O	2.082780	0.137656	0.099084
O2	O	2.416114	0.470989	0.432418
O3	O	2.749447	0.804323	0.765751
O4	O	1.625887	0.148214	0.058575
O5	O	1.959220	0.481547	0.391908
O6	O	2.292554	0.814880	0.725242
O7	O	1.866448	0.008794	0.079913
O8	O	2.199781	0.342127	0.413246
O9	O	2.533114	0.675461	0.746580
O10	O	1.842220	0.277076	0.077746
O11	O	2.175553	0.610409	0.411080
O12	O	2.508887	0.943742	0.744413
O13	O	1.866417	0.008802	0.251044
O14	O	2.199750	0.342135	0.584377
O15	O	2.533083	0.675469	0.917711
O16	O	1.625856	0.148222	0.229706
O17	O	1.959189	0.481555	0.563039
O18	O	2.292523	0.814888	0.896373
O19	O	2.082749	0.137664	0.270215
O20	O	2.416083	0.470997	0.603549
O21	O	2.749416	0.804331	0.936882
Cu22	Cu	1.854300	0.142944	0.265586
Cu23	Cu	2.187633	0.476277	0.598920
Cu24	Cu	2.520967	0.809610	0.932253
Cu25	Cu	1.854337	0.142934	0.063204
Cu26	Cu	2.187670	0.476267	0.396537
Cu27	Cu	2.521003	0.809601	0.729871
O28	O	1.842189	0.277084	0.248877
O29	O	2.175522	0.610417	0.582211
O30	O	2.508856	0.943750	0.915544
C31	C	1.567398	0.147083	0.138956
C32	C	1.900731	0.480417	0.472290
C33	C	2.234065	0.813750	0.805623
C34	C	1.393166	0.143692	0.123509
C35	C	1.726499	0.477025	0.456842
C36	C	2.059833	0.810359	0.790175
C37	C	1.865303	-0.025571	0.165379
C38	C	2.198636	0.307762	0.498712
C39	C	2.531970	0.641096	0.832045
C40	C	1.861919	-0.127979	0.165079
C41	C	2.195253	0.205354	0.498412
C42	C	2.528586	0.538687	0.831746
C43	C	1.849463	-0.502976	0.163948
C44	C	2.182797	-0.169642	0.497281
C45	C	2.516130	0.163691	0.830615
C46	C	1.852922	-0.398640	0.164262
C47	C	2.186256	-0.065306	0.497596
C48	C	2.519589	0.268027	0.830929
C49	C	1.855691	-0.315481	0.164514
C50	C	2.189024	0.017853	0.497848
C51	C	2.522358	0.351186	0.831181
C52	C	1.859151	-0.211138	0.164827
C53	C	2.192484	0.122195	0.498160
C54	C	2.525817	0.455528	0.831494
C55	C	2.141238	0.138794	0.189832
C56	C	2.474572	0.472128	0.523165
C57	C	2.807905	0.805461	0.856498
C58	C	2.315471	0.142186	0.205273
C59	C	2.648804	0.475519	0.538606
C60	C	2.982137	0.808852	0.871939
C61	C	1.843334	0.311449	0.163409
C62	C	2.176667	0.644782	0.496743
C63	C	2.510000	0.978115	0.830076
C64	C	1.846717	0.413857	0.163702
C65	C	2.180050	0.747190	0.497035
C66	C	2.513384	1.080524	0.830369
N67	N	1.854286	0.142950	0.407932
N68	N	2.187619	0.476283	0.741265
N69	N	2.520952	0.809616	1.074599
N70	N	1.854363	0.142921	-0.079141
N71	N	2.187697	0.476254	0.254193
N72	N	2.521030	0.809587	0.587526
C73	C	1.854293	0.142952	0.501039
C74	C	2.187626	0.476285	0.834372
C75	C	2.520959	0.809619	1.167705
C76	C	1.854307	0.142946	0.617845
C77	C	2.187640	0.476279	0.951178
C78	C	2.520974	0.809613	1.284512
C79	C	1.854327	0.142936	0.710945
C80	C	2.187660	0.476269	1.044278
C81	C	2.520993	0.809603	1.377612
C82	C	1.854344	0.142931	0.827759
C83	C	2.187677	0.476264	1.161093
C84	C	2.521010	0.809598	1.494426
H85	H	1.326383	0.142387	0.041680
H86	H	1.659717	0.475720	0.375013
H87	H	1.993050	0.809054	0.708347
H88	H	1.382247	0.143484	0.287096
H89	H	1.715580	0.476817	0.620429
H90	H	2.048913	0.810150	0.953763
