data_functionalizedCrystal
_audit_creation_method	'MofGen! by Chris Wilmer'
_symmetry_space_group_name_H-M	'P1'
_symmetry_Int_Tables_number	1
_symmetry_cell_setting	triclinic
loop_
_symmetry_equiv_pos_as_xyz
  x,y,z
_cell_length_a	29.839134
_cell_length_b	21.295417
_cell_length_c	21.295411
_cell_angle_alpha	90.021644
_cell_angle_beta	90.025746
_cell_angle_gamma	90.008818
loop_
_atom_site_label
_atom_site_type_symbol
_atom_site_fract_x
_atom_site_fract_y
_atom_site_fract_z
Zn1	Zn	-0.686808	0.251045	-0.355931
Zn2	Zn	-0.353475	0.584379	-0.022598
Zn3	Zn	-0.020141	0.917712	0.310735
Zn4	Zn	-0.686738	0.356297	-0.250657
Zn5	Zn	-0.353405	0.689630	0.082677
Zn6	Zn	-0.020072	1.022964	0.416010
Zn7	Zn	-0.611675	0.251006	-0.250674
Zn8	Zn	-0.278341	0.584339	0.082659
Zn9	Zn	0.054992	0.917672	0.415993
Zn10	Zn	-0.611653	0.356241	-0.355886
Zn11	Zn	-0.278320	0.689574	-0.022553
Zn12	Zn	0.055014	1.022907	0.310781
O13	O	-0.649219	0.303647	-0.303287
O14	O	-0.315885	0.636980	0.030046
O15	O	0.017448	0.970314	0.363380
O16	O	-0.749666	0.265047	-0.341978
O17	O	-0.416333	0.598380	-0.008644
O18	O	-0.082999	0.931714	0.324689
O19	O	-0.676761	0.342337	-0.162569
O20	O	-0.343428	0.675670	0.170764
O21	O	-0.010094	1.009004	0.504097
O22	O	-0.621680	0.162922	-0.264663
O23	O	-0.288346	0.496255	0.068671
O24	O	0.044987	0.829588	0.402004
O25	O	-0.749615	0.342375	-0.264633
O26	O	-0.416281	0.675709	0.068700
O27	O	-0.082948	1.009042	0.402034
O28	O	-0.676880	0.162951	-0.341995
O29	O	-0.343546	0.496284	-0.008661
O30	O	-0.010213	0.829617	0.324672
O31	O	-0.621612	0.264980	-0.162582
O32	O	-0.288279	0.598313	0.170751
O33	O	0.045055	0.931647	0.504084
O34	O	-0.548805	0.264925	-0.264619
O35	O	-0.215471	0.598259	0.068714
O36	O	0.117862	0.931592	0.402048
O37	O	-0.621642	0.342279	-0.443982
O38	O	-0.288309	0.675612	-0.110648
O39	O	0.045024	1.008946	0.222685
O40	O	-0.548789	0.342241	-0.341918
O41	O	-0.215455	0.675574	-0.008585
O42	O	0.117878	1.008908	0.324749
O43	O	-0.676859	0.264992	-0.444015
O44	O	-0.343525	0.598326	-0.110681
O45	O	-0.010192	0.931659	0.222652
O46	O	-0.676740	0.444379	-0.264589
O47	O	-0.343407	0.777712	0.068744
O48	O	-0.010073	1.111046	0.402077
O49	O	-0.621575	0.444337	-0.341901
O50	O	-0.288242	0.777671	-0.008568
O51	O	0.045092	1.111004	0.324766
C52	C	-0.532496	0.303573	-0.303266
C53	C	-0.199163	0.636907	0.030067
C54	C	0.134171	0.970240	0.363401
C55	C	-0.482562	0.303557	-0.303272
C56	C	-0.149228	0.636890	0.030061
C57	C	0.184105	0.970223	0.363395
C58	C	-0.125997	0.263437	-0.343623
C59	C	0.207336	0.596771	-0.010290
C60	C	0.540670	0.930104	0.323043
C61	C	-0.313670	0.263397	-0.343615
C62	C	0.019663	0.596731	-0.010281
C63	C	0.352997	0.930064	0.323052
O64	O	-0.337954	0.229224	-0.377930
O65	O	-0.004620	0.562558	-0.044597
O66	O	0.328713	0.895891	0.288736
N67	N	-0.337116	0.303590	-0.303282
N68	N	-0.003783	0.636923	0.030051
N69	N	0.329550	0.970257	0.363385
C70	C	-0.313642	0.343799	-0.262952
C71	C	0.019692	0.677132	0.070382
C72	C	0.353025	1.010465	0.403715
O73	O	-0.337891	0.377989	-0.228651
O74	O	-0.004557	0.711322	0.104683
O75	O	0.328776	1.044655	0.438016
C76	C	-0.125970	0.343842	-0.262964
C77	C	0.207364	0.677175	0.070369
C78	C	0.540697	1.010508	0.403703
C79	C	-0.102526	0.303642	-0.303295
C80	C	0.230808	0.636975	0.030039
C81	C	0.564141	0.970308	0.363372
C82	C	-0.102553	0.223241	-0.383951
C83	C	0.230780	0.556575	-0.050618
C84	C	0.564114	0.889908	0.282715
C85	C	-0.055637	0.223249	-0.383951
C86	C	0.277696	0.556583	-0.050617
C87	C	0.611029	0.889916	0.282716
C88	C	-0.032166	0.263454	-0.343622
C89	C	0.301167	0.596787	-0.010289
C90	C	0.634501	0.930120	0.323045
C91	C	-0.055610	0.303650	-0.303294
C92	C	0.277723	0.636983	0.030039
C93	C	0.611057	0.970316	0.363372
C94	C	-0.102496	0.384053	-0.222637
C95	C	0.230838	0.717386	0.110696
C96	C	0.564171	1.050720	0.444029
C97	C	-0.055575	0.384061	-0.222645
C98	C	0.277759	0.717394	0.110688
C99	C	0.611092	1.050728	0.444022
C100	C	-0.032131	0.343861	-0.262976
C101	C	0.301203	0.677195	0.070357
C102	C	0.634536	1.010528	0.403691
C103	C	0.014777	0.343862	-0.262965
C104	C	0.348110	0.677195	0.070368
C105	C	0.681443	1.010529	0.403702
N106	N	0.038223	0.303669	-0.303298
N107	N	0.371557	0.637002	0.030036
N108	N	0.704890	0.970336	0.363369
C109	C	0.014752	0.263465	-0.343626
C110	C	0.348085	0.596798	-0.010293
C111	C	0.681418	0.930132	0.323041
C112	C	-0.412172	0.343772	-0.262947
C113	C	-0.078839	0.677106	0.070386
C114	C	0.254494	1.010439	0.403719
C115	C	-0.459090	0.343761	-0.262943
C116	C	-0.125757	0.677094	0.070390
C117	C	0.207576	1.010428	0.403723
C118	C	-0.459115	0.263360	-0.343607
C119	C	-0.125782	0.596694	-0.010274
C120	C	0.207551	0.930027	0.323059
C121	C	-0.412197	0.263369	-0.343608
C122	C	-0.078863	0.596702	-0.010274
C123	C	0.254470	0.930036	0.323059
C124	C	-0.388726	0.303580	-0.303280
C125	C	-0.055393	0.636913	0.030053
C126	C	0.277941	0.970246	0.363387
C127	C	0.113278	0.263485	-0.343621
C128	C	0.446611	0.596818	-0.010288
C129	C	0.779944	0.930151	0.323045
C130	C	0.160197	0.263494	-0.343615
C131	C	0.493531	0.596828	-0.010282
C132	C	0.826864	0.930161	0.323051
C133	C	0.160218	0.343897	-0.262954
C134	C	0.493552	0.677230	0.070379
C135	C	0.826885	1.010564	0.403713
C136	C	0.113303	0.343885	-0.262957
C137	C	0.446636	0.677219	0.070376
C138	C	0.779969	1.010552	0.403709
C139	C	0.089834	0.303677	-0.303296
C140	C	0.423167	0.637010	0.030037
C141	C	0.756500	0.970344	0.363370
O142	O	0.039089	0.378022	-0.228672
O143	O	0.372423	0.711355	0.104661
O144	O	0.705756	1.044689	0.437994
O145	O	0.039009	0.229290	-0.377932
O146	O	0.372342	0.562623	-0.044598
O147	O	0.705675	0.895957	0.288735
C148	C	-0.172912	0.263429	-0.343624
C149	C	0.160421	0.596763	-0.010291
C150	C	0.493754	0.930096	0.323043
C151	C	-0.196356	0.303626	-0.303296
C152	C	0.136977	0.636959	0.030037
C153	C	0.470310	0.970292	0.363371
C154	C	-0.172885	0.343830	-0.262968
C155	C	0.160448	0.677163	0.070366
C156	C	0.493782	1.010496	0.403699
C157	C	-0.243274	0.303614	-0.303292
C158	C	0.090059	0.636947	0.030041
C159	C	0.423392	0.970281	0.363375
C160	C	-0.266746	0.263410	-0.343621
C161	C	0.066588	0.596743	-0.010287
C162	C	0.399921	0.930077	0.323046
C163	C	-0.243299	0.223217	-0.383953
C164	C	0.090034	0.556551	-0.050620
C165	C	0.423367	0.889884	0.282713
C166	C	-0.196384	0.223225	-0.383953
C167	C	0.136950	0.556559	-0.050619
C168	C	0.470283	0.889892	0.282714
C169	C	-0.196331	0.384022	-0.222635
C170	C	0.137002	0.717356	0.110698
C171	C	0.470335	1.050689	0.444032
C172	C	-0.243247	0.384011	-0.222638
C173	C	0.090086	0.717344	0.110695
C174	C	0.423420	1.050677	0.444028
C175	C	-0.266718	0.343806	-0.262967
C176	C	0.066615	0.677140	0.070366
C177	C	0.399948	1.010473	0.403700
C178	C	-0.649160	0.467199	-0.303252
C179	C	-0.315826	0.800532	0.030081
C180	C	0.017507	1.133865	0.363415
C181	C	-0.649176	0.537167	-0.303258
C182	C	-0.315842	0.870500	0.030075
C183	C	0.017491	1.203834	0.363408
C184	C	-0.649256	0.303634	-0.467477
C185	C	-0.315923	0.636967	-0.134144
C186	C	0.017411	0.970301	0.199189
C187	C	-0.649272	0.303628	-0.537445
C188	C	-0.315938	0.636962	-0.204112
C189	C	0.017395	0.970295	0.129221
C190	C	0.233603	0.303708	-0.303301
C191	C	0.566936	0.637041	0.030033
C192	C	0.900270	0.970375	0.363366
C193	C	0.183669	0.303698	-0.303287
C194	C	0.517002	0.637032	0.030047
C195	C	0.850335	0.970365	0.363380
C196	C	-0.649290	0.139457	-0.303336
C197	C	-0.315957	0.472790	0.029998
C198	C	0.017377	0.806124	0.363331
C199	C	-0.649320	0.069489	-0.303357
C200	C	-0.315987	0.402822	0.029977
C201	C	0.017346	0.736155	0.363310
C202	C	-0.677926	0.570034	-0.263043
C203	C	-0.344592	0.903368	0.070290
C204	C	-0.011259	1.236701	0.403623
C205	C	-0.677947	0.635777	-0.263057
C206	C	-0.344613	0.969110	0.070276
C207	C	-0.011280	1.302443	0.403609
C208	C	-0.649210	0.668649	-0.303280
C209	C	-0.315876	1.001983	0.030053
C210	C	0.017457	1.335316	0.363387
C211	C	-0.620458	0.635774	-0.343503
C212	C	-0.287124	0.969107	-0.010169
C213	C	0.046209	1.302441	0.323164
C214	C	-0.620441	0.570033	-0.343492
C215	C	-0.287107	0.903366	-0.010159
C216	C	0.046226	1.236700	0.323175
N217	N	-0.609910	0.771895	-0.308072
N218	N	-0.276576	1.105228	0.025262
N219	N	0.056757	1.438562	0.358595
N220	N	-0.609927	0.834347	-0.308078
N221	N	-0.276594	1.167680	0.025255
N222	N	0.056739	1.501013	0.358588
C223	C	-0.649260	0.866724	-0.303316
C224	C	-0.315927	1.200057	0.030017
C225	C	0.017407	1.533391	0.363351
N226	N	-0.688575	0.834291	-0.298534
N227	N	-0.355242	1.167624	0.034799
N228	N	-0.021909	1.500958	0.368132
N229	N	-0.688557	0.771834	-0.298525
N230	N	-0.355224	1.105167	0.034809
N231	N	-0.021891	1.438500	0.368142
C232	C	-0.649225	0.739935	-0.303296
C233	C	-0.315892	1.073268	0.030037
C234	C	0.017442	1.406601	0.363370
C235	C	-0.678035	0.970877	-0.263114
C236	C	-0.344702	1.304210	0.070219
C237	C	-0.011369	1.637544	0.403552
C238	C	-0.678057	1.036621	-0.263133
C239	C	-0.344724	1.369954	0.070200
C240	C	-0.011390	1.703287	0.403534
C241	C	-0.620564	1.036617	-0.343575
C242	C	-0.287231	1.369950	-0.010242
C243	C	0.046103	1.703283	0.323092
C244	C	-0.620546	0.970874	-0.343560
C245	C	-0.287213	1.304208	-0.010226
C246	C	0.046120	1.637541	0.323107
C247	C	-0.649281	0.938008	-0.303326
C248	C	-0.315948	1.271342	0.030007
C249	C	0.017385	1.604675	0.363341
C250	C	-0.678022	0.263383	-0.570330
C251	C	-0.344688	0.596717	-0.236997
C252	C	-0.011355	0.930050	0.096336
C253	C	-0.678021	0.263356	-0.636073
C254	C	-0.344688	0.596689	-0.302740
C255	C	-0.011354	0.930023	0.030594
C256	C	-0.649275	0.303585	-0.668928
C257	C	-0.315942	0.636918	-0.335595
C258	C	0.017391	0.970252	-0.002261
C259	C	-0.620520	0.343833	-0.636035
C260	C	-0.287186	0.677166	-0.302702
C261	C	0.046147	1.010499	0.030631
C262	C	-0.620518	0.343854	-0.570294
C263	C	-0.287185	0.677188	-0.236961
C264	C	0.046149	1.010521	0.096373
N265	N	-0.645809	0.358651	-0.772143
N266	N	-0.312476	0.691984	-0.438810
N267	N	0.020858	1.025317	-0.105477
N268	N	-0.645813	0.358628	-0.834595
N269	N	-0.312480	0.691962	-0.501261
N270	N	0.020853	1.025295	-0.167928
C271	C	-0.649278	0.303521	-0.867003
C272	C	-0.315945	0.636854	-0.533670
C273	C	0.017389	0.970188	-0.200336
N274	N	-0.652747	0.248436	-0.834600
N275	N	-0.319414	0.581769	-0.501267
N276	N	0.013920	0.915102	-0.167934
N277	N	-0.652745	0.248459	-0.772143
N278	N	-0.319412	0.581792	-0.438810
N279	N	0.013922	0.915125	-0.105476
C280	C	-0.649274	0.303566	-0.740213
C281	C	-0.315940	0.636899	-0.406880
C282	C	0.017393	0.970232	-0.073547
C283	C	-0.678029	0.263243	-0.971173
C284	C	-0.344695	0.596576	-0.637840
C285	C	-0.011362	0.929910	-0.304507
C286	C	-0.678025	0.263215	-1.036917
C287	C	-0.344692	0.596548	-0.703584
C288	C	-0.011358	0.929881	-0.370250
C289	C	-0.620526	0.343697	-1.036878
C290	C	-0.287193	0.677030	-0.703545
C291	C	0.046140	1.010364	-0.370211
C292	C	-0.620528	0.343720	-0.971136
C293	C	-0.287194	0.677053	-0.637802
C294	C	0.046139	1.010386	-0.304469
C295	C	-0.649281	0.303494	-0.938287
C296	C	-0.315948	0.636827	-0.604954
C297	C	0.017385	0.970160	-0.271621
C298	C	-0.649207	0.303615	-0.139735
C299	C	-0.315874	0.636948	0.193598
C300	C	0.017459	0.970282	0.526931
C301	C	-0.649278	0.303443	-0.069768
C302	C	-0.315945	0.636777	0.263566
C303	C	0.017388	0.970110	0.596899
H304	H	0.094175	0.230743	-0.376469
H305	H	0.427508	0.564076	-0.043135
H306	H	0.760841	0.897409	0.290198
F307	F	-0.708661	1.071600	-0.220332
F308	F	-0.375328	1.404934	0.113001
F309	F	-0.041995	1.738267	0.446334
H310	H	-0.701439	0.230485	-0.944427
H311	H	-0.368106	0.563818	-0.611093
H312	H	-0.034773	0.897152	-0.277760
F313	F	-0.589929	0.386507	-1.071841
F314	F	-0.256596	0.719841	-0.738507
F315	F	0.076737	1.053174	-0.405174
H316	H	-0.036553	0.190517	-0.416795
H317	H	0.296780	0.523851	-0.083462
H318	H	0.630113	0.857184	0.249872
F319	F	0.088351	0.386672	-0.220035
F320	F	0.421684	0.720005	0.113298
F321	F	0.755018	1.053339	0.446632
H322	H	-0.597168	1.063381	-0.376328
H323	H	-0.263835	1.396714	-0.042994
H324	H	0.069499	1.730048	0.290339
H325	H	-0.597029	0.543272	-0.376240
H326	H	-0.263695	0.876605	-0.042907
H327	H	0.069638	1.209938	0.290426
F328	F	0.185146	0.220705	-0.386542
F329	F	0.518479	0.554039	-0.053208
F330	F	0.851812	0.887372	0.280125
F331	F	-0.127526	0.180448	-0.426880
F332	F	0.205807	0.513781	-0.093546
F333	F	0.539141	0.847115	0.239787
H334	H	-0.597133	0.944112	-0.376304
H335	H	-0.263800	1.277445	-0.042970
H336	H	0.069533	1.610779	0.290363
H337	H	-0.597113	0.376585	-0.662790
H338	H	-0.263780	0.709919	-0.329457
H339	H	0.069553	1.043252	0.003877
F340	F	-0.387199	0.386566	-0.220015
F341	F	-0.053865	0.719899	0.113318
F342	F	0.279468	1.053233	0.446652
H343	H	-0.701324	0.543277	-0.230284
H344	H	-0.367991	0.876610	0.103049
H345	H	-0.034658	1.209943	0.436382
F346	F	-0.127436	0.426832	-0.179703
F347	F	0.205897	0.760165	0.153630
F348	F	0.539230	1.093499	0.486964
H349	H	-0.036467	0.416808	-0.189806
H350	H	0.296866	0.750141	0.143527
H351	H	0.630199	1.083475	0.476860
F352	F	-0.589929	0.386557	-0.936136
F353	F	-0.256596	0.719890	-0.602802
F354	F	0.076737	1.053224	-0.269469
F355	F	-0.708547	0.670764	-0.220253
F356	F	-0.375214	1.004097	0.113080
F357	F	-0.041880	1.337430	0.446414
H358	H	-0.393112	0.230634	-0.376448
H359	H	-0.059778	0.563967	-0.043115
H360	H	0.273555	0.897301	0.290219
F361	F	-0.171358	0.426810	-0.179704
F362	F	0.161976	0.760144	0.153629
F363	F	0.495309	1.093477	0.486963
H364	H	-0.597061	0.662543	-0.376253
H365	H	-0.263727	0.995877	-0.042920
H366	H	0.069606	1.329210	0.290413
H367	H	-0.478234	0.230623	-0.376443
H368	H	-0.144900	0.563956	-0.043110
H369	H	0.188433	0.897290	0.290224
F370	F	-0.708622	0.220568	-0.535374
F371	F	-0.375289	0.553902	-0.202041
F372	F	-0.041955	0.887235	0.131292
H373	H	-0.478174	0.376489	-0.230095
H374	H	-0.144841	0.709822	0.103238
H375	H	0.188492	1.043156	0.436572
H376	H	-0.701432	0.230580	-0.662853
H377	H	-0.368098	0.563914	-0.329520
H378	H	-0.034765	0.897247	0.003814
F379	F	0.185206	0.386681	-0.220034
F380	F	0.518540	0.720015	0.113299
F381	F	0.851873	1.053348	0.446633
H382	H	-0.597104	0.376626	-0.543519
H383	H	-0.263771	0.709959	-0.210186
H384	H	0.069562	1.043292	0.123147
F385	F	-0.268288	0.180427	-0.426872
F386	F	0.065046	0.513760	-0.093539
F387	F	0.398379	0.847094	0.239795
F388	F	-0.708631	0.220385	-1.071916
F389	F	-0.375298	0.553719	-0.738582
F390	F	-0.041965	0.887052	-0.405249
H391	H	-0.701434	0.944116	-0.230356
H392	H	-0.368101	1.277450	0.102978
H393	H	-0.034768	1.610783	0.436311
F394	F	-0.171439	0.180440	-0.426880
F395	F	0.161895	0.513773	-0.093546
F396	F	0.495228	0.847106	0.239787
H397	H	-0.262331	0.416745	-0.189790
H398	H	0.071002	0.750079	0.143543
H399	H	0.404336	1.083412	0.476876
