data_functionalizedCrystal
_audit_creation_method	'MofGen! by Chris Wilmer'
_symmetry_space_group_name_H-M	'P1'
_symmetry_Int_Tables_number	1
_symmetry_cell_setting	triclinic
loop_
_symmetry_equiv_pos_as_xyz
  x,y,z
_cell_length_a	14.971482
_cell_length_b	8.597304
_cell_length_c	14.048226
_cell_angle_alpha	82.293729
_cell_angle_beta	89.994098
_cell_angle_gamma	84.477641
loop_
_atom_site_label
_atom_site_type_symbol
_atom_site_fract_x
_atom_site_fract_y
_atom_site_fract_z
O1	O	1.188614	0.204505	-0.095917
O2	O	1.688614	0.704505	0.404083
O3	O	0.928413	0.229004	-0.097930
O4	O	1.428413	0.729004	0.402070
O5	O	1.063633	-0.011704	-0.078185
O6	O	1.563633	0.488296	0.421815
O7	O	1.053394	0.445213	-0.115663
O8	O	1.553394	0.945213	0.384337
O9	O	1.063616	-0.011718	0.080138
O10	O	1.563616	0.488282	0.580138
O11	O	0.928396	0.228990	0.060392
O12	O	1.428396	0.728990	0.560392
O13	O	1.188597	0.204491	0.062405
O14	O	1.688597	0.704491	0.562405
Zn15	Zn	1.058494	0.216738	0.086536
Zn16	Zn	1.558494	0.716738	0.586536
Zn17	Zn	1.058516	0.216757	-0.122061
Zn18	Zn	1.558516	0.716757	0.377939
O19	O	1.053377	0.445199	0.042659
O20	O	1.553377	0.945199	0.542659
C21	C	0.895071	0.227902	-0.018680
C22	C	1.395071	0.727902	0.481320
C23	C	0.795747	0.224622	-0.018413
C24	C	1.295747	0.724622	0.481587
C25	C	1.062524	-0.070185	0.005771
C26	C	1.562524	0.429815	0.505771
C27	C	1.059235	-0.244419	0.020056
C28	C	1.559235	0.255581	0.520056
C29	C	0.749080	0.223070	0.068017
C30	C	1.249080	0.723070	0.568017
C31	C	0.655757	0.219962	0.068273
C32	C	1.155757	0.719962	0.568273
C33	C	0.609100	0.218419	-0.017903
C34	C	1.109100	0.718419	0.482097
C35	C	0.655773	0.219967	-0.104338
C36	C	1.155773	0.719967	0.395662
C37	C	0.749096	0.223063	-0.104592
C38	C	1.249096	0.723063	0.395408
C39	C	0.461259	0.213518	-0.103803
C40	C	0.961259	0.713518	0.396197
C41	C	0.367929	0.210425	-0.103550
C42	C	0.867929	0.710425	0.396450
C43	C	0.367920	0.210418	0.069062
C44	C	0.867920	0.710418	0.569062
C45	C	0.461242	0.213513	0.068808
C46	C	0.961242	0.713513	0.568808
C47	C	0.507909	0.215064	-0.017629
C48	C	1.007909	0.715064	0.482371
C49	C	1.221939	0.205592	-0.016847
C50	C	1.721939	0.705592	0.483153
C51	C	1.321263	0.208873	-0.017121
C52	C	1.821263	0.708873	0.482879
C53	C	1.054486	0.503680	-0.041298
C54	C	1.554486	1.003680	0.458702
C55	C	1.057775	0.677914	-0.055590
C56	C	1.557775	1.177914	0.444410
N57	N	1.058486	0.216724	0.228898
N58	N	1.558486	0.716724	0.728898
N59	N	1.058531	0.216758	-0.264422
N60	N	1.558531	0.716758	0.235578
C61	C	1.118381	0.110183	0.287456
C62	C	1.618381	0.610183	0.787456
C63	C	1.118387	0.110182	0.387113
C64	C	1.618387	0.610182	0.887113
C65	C	1.058501	0.216731	0.428211
C66	C	1.558501	0.716731	0.928211
C67	C	0.998600	0.323278	0.369645
C68	C	1.498600	0.823278	0.869645
C69	C	0.998590	0.323270	0.269990
C70	C	1.498590	0.823270	0.769990
C71	C	0.998626	0.323289	0.577359
C72	C	1.498626	0.823289	1.077359
C73	C	0.998636	0.323300	0.677020
C74	C	1.498636	0.823300	1.177020
C75	C	1.118422	0.110201	0.694482
C76	C	1.618422	0.610201	1.194482
C77	C	1.118412	0.110193	0.594827
C78	C	1.618412	0.610193	1.094827
C79	C	1.058512	0.216742	0.536268
C80	C	1.558512	0.716742	1.036268
H81	H	0.787061	0.224339	0.138190
H82	H	1.287061	0.724339	0.638190
H83	H	0.949817	0.410025	0.222312
H84	H	1.449817	0.910025	0.722312
H85	H	0.617767	0.218672	0.138654
H86	H	1.117767	0.718672	0.638654
O87	O	0.605462	0.218296	-0.197291
O88	O	1.105462	0.718296	0.302709
H89	H	0.555910	0.323784	-0.210082
H90	H	1.055910	0.823784	0.289918
H91	H	0.499227	0.214780	0.138978
H92	H	0.999227	0.714780	0.638978
H93	H	0.949871	0.410062	0.710476
H94	H	1.449871	0.910062	1.210476
H95	H	0.949845	0.410048	0.529683
H96	H	1.449845	0.910048	1.029683
O97	O	0.799436	0.224748	-0.197812
O98	O	1.299436	0.724748	0.302188
H99	H	0.751315	0.223171	-0.257695
H100	H	1.251315	0.723171	0.242305
O101	O	1.183028	-0.004712	0.757646
O102	O	1.683028	0.495288	1.257646
H103	H	1.252924	0.015517	0.736851
H104	H	1.752924	0.515517	1.236851
O105	O	0.317591	0.208803	0.162289
O106	O	0.817591	0.708803	0.662289
H107	H	0.244859	0.206395	0.147991
H108	H	0.744859	0.706395	0.647991
H109	H	0.949836	0.410027	0.403113
H110	H	1.449836	0.910027	0.903113
O111	O	1.057550	-0.332889	0.120339
O112	O	1.557550	0.167111	0.620339
H113	H	1.118940	-0.315422	0.160315
H114	H	1.618940	0.184578	0.660315
H115	H	0.329944	0.209170	-0.173722
H116	H	0.829944	0.709170	0.326278
H117	H	0.499252	0.214782	-0.174189
H118	H	0.999252	0.714782	0.325811
H119	H	1.167157	0.023427	0.434792
H120	H	1.667157	0.523427	0.934792
O121	O	1.059457	-0.233622	-0.155867
O122	O	1.559457	0.266378	0.344133
H123	H	1.061874	-0.106067	-0.151735
H124	H	1.561874	0.393933	0.348265
O125	O	1.182968	-0.004745	0.243130
O126	O	1.682968	0.495255	0.743130
H127	H	1.224610	-0.078842	0.300597
H128	H	1.724610	0.421158	0.800597
O129	O	1.182998	-0.004729	0.550494
O130	O	1.682998	0.495271	1.050494
H131	H	1.224645	-0.078830	0.607955
H132	H	1.724645	0.421170	1.107955
