data_functionalizedCrystal
_audit_creation_method	'MofGen! by Chris Wilmer'
_symmetry_space_group_name_H-M	'P1'
_symmetry_Int_Tables_number	1
_symmetry_cell_setting	triclinic
loop_
_symmetry_equiv_pos_as_xyz
  x,y,z
_cell_length_a	10.723023
_cell_length_b	15.995292
_cell_length_c	9.798715
_cell_angle_alpha	90.000045
_cell_angle_beta	89.996770
_cell_angle_gamma	83.968082
loop_
_atom_site_label
_atom_site_type_symbol
_atom_site_fract_x
_atom_site_fract_y
_atom_site_fract_z
O1	O	1.655653	0.117435	-0.113466
O2	O	1.292354	0.128676	-0.113471
O3	O	1.483972	0.001222	-0.113471
O4	O	1.464035	0.244889	-0.113467
O5	O	1.483958	0.001221	0.113511
O6	O	1.292340	0.128676	0.113511
O7	O	1.655639	0.117434	0.113516
Zn8	Zn	1.473987	0.123055	0.149552
Zn9	Zn	1.474006	0.123055	-0.149507
O10	O	1.464020	0.244889	0.113515
C11	C	1.245858	0.127858	0.000019
C12	C	1.107335	0.125411	0.000017
C13	C	1.045570	0.124320	0.117599
C14	C	0.902400	0.121790	0.117600
C15	C	1.483154	-0.029979	0.000017
C16	C	1.480721	-0.122946	0.000007
C17	C	1.471778	-0.460735	0.000019
C18	C	1.610083	-0.436629	0.000528
C19	C	1.612711	-0.339938	0.000011
C20	C	1.476215	-0.293154	0.000014
C21	C	1.407077	-0.322652	-0.129601
C22	C	1.405412	-0.419452	-0.129705
C23	C	1.402572	-0.419326	0.128417
C24	C	1.407697	-0.322804	0.130125
C25	C	1.478716	-0.198444	0.000006
C26	C	1.469273	-0.555446	0.000017
C27	C	1.702135	0.118252	0.000022
C28	C	1.840657	0.120700	0.000016
C29	C	1.464839	0.276089	0.000025
C30	C	1.467272	0.369056	0.000026
N31	N	1.473983	0.123054	0.353651
N32	N	1.474019	0.123050	-0.353607
C33	C	1.554442	0.069304	0.421428
C34	C	1.554462	0.069301	0.578591
H35	H	0.893765	0.121643	-0.100656
H36	H	1.054222	0.124470	-0.100649
C37	C	1.273096	-0.279050	0.140711
C38	C	1.233642	-0.224396	0.265949
C39	C	1.099033	-0.180644	0.276524
C40	C	1.003879	-0.191547	0.161862
C41	C	1.043332	-0.246204	0.036615
C42	C	1.177940	-0.289955	0.026039
H43	H	1.304082	-0.216322	0.350837
H44	H	1.069829	-0.140184	0.369241
H45	H	0.904234	-0.159160	0.169690
H46	H	0.972891	-0.254277	-0.048274
H47	H	1.207145	-0.330415	-0.066677
C48	C	1.685877	-0.313811	0.125513
C49	C	1.742314	-0.380988	0.226910
C50	C	1.815495	-0.354866	0.352409
C51	C	1.832238	-0.261568	0.376511
C52	C	1.775799	-0.194385	0.275112
C53	C	1.702618	-0.220506	0.149613
H54	H	1.729922	-0.450058	0.209070
H55	H	1.857275	-0.404600	0.427471
H56	H	1.886410	-0.242231	0.469413
H57	H	1.788192	-0.125314	0.292951
H58	H	1.660839	-0.170772	0.074550
C59	C	1.647525	0.007129	0.657320
C60	C	1.647452	0.007242	0.814476
C61	C	1.740519	-0.054932	0.893208
C62	C	1.833659	-0.117218	0.814784
C63	C	1.833736	-0.117333	0.657618
C64	C	1.740669	-0.055159	0.578887
H65	H	1.578502	0.053352	0.872539
H66	H	1.740462	-0.054846	1.009553
H67	H	1.902553	-0.163242	0.873066
H68	H	1.902687	-0.163443	0.599556
H69	H	1.740726	-0.055244	0.462542
H70	H	1.663386	-0.464320	0.093480
H71	H	1.300769	-0.433901	0.129291
H72	H	1.405136	0.169073	0.588117
C73	C	1.470122	-0.455316	-0.260589
C74	C	1.522949	-0.395846	-0.364287
C75	C	1.587663	-0.431705	-0.495173
C76	C	1.599551	-0.527033	-0.522359
C77	C	1.546723	-0.586509	-0.418657
C78	C	1.482009	-0.550650	-0.287772
H79	H	1.514150	-0.325273	-0.344165
H80	H	1.626769	-0.387677	-0.571939
H81	H	1.647456	-0.553578	-0.619248
H82	H	1.555522	-0.657082	-0.438779
H83	H	1.442902	-0.594678	-0.211005
H84	H	1.405110	0.169067	0.411976
H85	H	1.623307	0.023284	0.363106
H86	H	0.849283	0.120857	0.218266
C87	C	1.117320	0.125593	0.253595
C88	C	1.192645	0.199760	0.287478
C89	C	1.264396	0.201035	0.423474
C90	C	1.260824	0.128143	0.525588
C91	C	1.185497	0.053971	0.491707
C92	C	1.113745	0.052695	0.355711
H93	H	1.195292	0.253723	0.211885
H94	H	1.320159	0.255943	0.448554
H95	H	1.313939	0.129087	0.626261
H96	H	1.182849	0.000007	0.567300
H97	H	1.057983	-0.002212	0.330631
C98	C	1.681720	-0.475409	-0.124337
C99	C	1.737279	-0.418143	-0.229547
C100	C	1.808915	-0.456924	-0.354412
C101	C	1.824993	-0.552971	-0.374067
C102	C	1.769433	-0.610243	-0.268854
C103	C	1.697797	-0.571462	-0.143989
H104	H	1.725379	-0.347037	-0.215000
H105	H	1.850044	-0.414526	-0.432298
H106	H	1.878022	-0.581679	-0.466500
H107	H	1.781333	-0.681349	-0.283401
H108	H	1.656668	-0.613859	-0.066104
C109	C	1.268435	-0.439919	-0.137686
C110	C	1.174610	-0.408783	-0.025123
C111	C	1.037640	-0.429254	-0.033123
C112	C	0.994497	-0.480862	-0.153686
C113	C	1.088324	-0.512001	-0.266258
C114	C	1.225294	-0.491530	-0.258258
H115	H	1.206546	-0.370577	0.064133
H116	H	0.968183	-0.406202	0.050211
H117	H	0.893104	-0.496015	-0.159608
H118	H	1.056388	-0.550207	-0.355514
H119	H	1.294751	-0.514582	-0.341592
C120	C	1.471952	-0.295190	-0.259919
C121	C	1.587567	-0.246038	-0.248996
C122	C	1.652450	-0.218578	-0.379311
C123	C	1.601718	-0.240271	-0.520548
C124	C	1.486096	-0.289425	-0.531477
C125	C	1.421213	-0.316885	-0.401162
H126	H	1.625128	-0.229977	-0.144439
H127	H	1.738041	-0.182191	-0.371220
H128	H	1.649748	-0.219943	-0.617014
H129	H	1.448535	-0.305485	-0.636034
H130	H	1.335623	-0.353272	-0.409253
H131	H	1.667190	-0.321221	-0.093063
H132	H	1.306635	-0.291361	-0.134418
H133	H	1.446121	-0.447164	0.226664
H134	H	1.458040	-0.303949	0.226013
