data_functionalizedCrystal
_audit_creation_method	'MofGen! by Chris Wilmer'
_symmetry_space_group_name_H-M	'P1'
_symmetry_Int_Tables_number	1
_symmetry_cell_setting	triclinic
loop_
_symmetry_equiv_pos_as_xyz
  x,y,z
_cell_length_a	9.065215
_cell_length_b	19.188930
_cell_length_c	7.540329
_cell_angle_alpha	89.991297
_cell_angle_beta	89.997574
_cell_angle_gamma	84.079739
loop_
_atom_site_label
_atom_site_type_symbol
_atom_site_fract_x
_atom_site_fract_y
_atom_site_fract_z
O1	O	1.956850	0.102360	-0.147485
O2	O	1.527273	0.110759	-0.147495
O3	O	1.754458	0.005000	-0.147455
O4	O	1.729665	0.208119	-0.147525
O5	O	1.754445	0.004999	0.147510
O6	O	1.527259	0.110757	0.147470
O7	O	1.956836	0.102358	0.147480
Cu8	Cu	1.742047	0.106558	0.174407
Cu9	Cu	1.742063	0.106559	-0.174423
O10	O	1.729651	0.208117	0.147440
C11	C	1.472308	0.109951	-0.000013
C12	C	1.308548	0.107539	-0.000016
C13	C	1.753648	-0.021018	0.000032
C14	C	1.751238	-0.098541	0.000047
C15	C	1.884543	-0.142430	0.000059
C16	C	1.882279	-0.215272	0.000031
C17	C	1.746702	-0.244221	0.000026
C18	C	1.613380	-0.200322	0.000005
C19	C	1.615648	-0.127482	0.000015
N20	N	1.643065	-0.353031	0.100406
N21	N	1.640920	-0.422226	0.100400
C22	C	1.739860	-0.463683	-0.000010
N23	N	1.841050	-0.433331	-0.100391
N24	N	1.843200	-0.364130	-0.100376
C25	C	1.744228	-0.323202	0.000013
C26	C	1.870719	-0.586555	-0.000032
C27	C	1.868449	-0.659397	-0.000071
C28	C	1.599546	-0.644446	-0.000079
C29	C	1.601820	-0.571605	-0.000058
C30	C	1.737410	-0.542664	-0.000025
C31	C	2.011802	0.103166	-0.000006
C32	C	2.175561	0.105578	-0.000015
C33	C	1.730461	0.234135	-0.000052
C34	C	1.732871	0.311659	-0.000079
N35	N	1.742046	0.106556	0.419756
N36	N	1.742075	0.106556	-0.419771
H37	H	1.990835	-0.251013	0.000033
C38	C	2.015092	-0.707676	-0.000055
H39	H	2.096163	-0.680004	-0.000017
H40	H	2.019815	-0.736393	-0.102920
H41	H	2.019778	-0.736409	0.102814
C42	C	2.019855	-0.554713	-0.000019
H43	H	2.002114	-0.505046	0.000011
H44	H	2.074729	-0.569710	-0.102881
H45	H	2.074718	-0.569732	0.102853
C46	C	2.033686	-0.110598	0.000063
H47	H	2.112754	-0.147174	0.000048
H48	H	2.040163	-0.082499	0.102921
H49	H	2.040160	-0.082490	-0.102814
C50	C	1.450414	-0.676282	-0.000090
H51	H	1.468153	-0.725949	-0.000087
H52	H	1.395549	-0.661263	-0.102950
H53	H	1.395541	-0.661283	0.102785
C54	C	1.464250	-0.232163	0.000006
H55	H	1.481990	-0.281830	0.000020
H56	H	1.409382	-0.217149	-0.102855
H57	H	1.409378	-0.217161	0.102880
C58	C	1.455183	-0.523326	-0.000040
H59	H	1.374112	-0.550997	-0.000032
H60	H	1.450478	-0.494589	-0.102893
H61	H	1.450480	-0.494612	0.102842
H62	H	1.507091	-0.091747	0.000006
