data_functionalizedCrystal
_audit_creation_method	'MofGen! by Chris Wilmer'
_symmetry_space_group_name_H-M	'P1'
_symmetry_Int_Tables_number	1
_symmetry_cell_setting	triclinic
loop_
_symmetry_equiv_pos_as_xyz
  x,y,z
_cell_length_a	13.897448
_cell_length_b	12.827893
_cell_length_c	12.827885
_cell_angle_alpha	90.019272
_cell_angle_beta	90.032276
_cell_angle_gamma	90.017853
loop_
_atom_site_label
_atom_site_type_symbol
_atom_site_fract_x
_atom_site_fract_y
_atom_site_fract_z
Zn1	Zn	-0.383964	1.597653	0.590831
Zn2	Zn	0.116036	2.097653	1.090831
Zn3	Zn	-0.545290	1.597540	0.416083
Zn4	Zn	-0.045290	2.097540	0.916083
Zn5	Zn	-0.384012	1.422894	0.416104
Zn6	Zn	0.115988	1.922894	0.916104
Zn7	Zn	-0.545219	1.422873	0.590783
Zn8	Zn	-0.045219	1.922873	1.090783
O9	O	-0.464621	1.510240	0.503450
O10	O	0.035379	2.010240	1.003450
O11	O	-0.405374	1.743874	0.567661
O12	O	0.094626	2.243874	1.067661
O13	O	-0.523946	1.574335	0.269850
O14	O	-0.023946	2.074335	0.769850
O15	O	-0.249024	1.446133	0.439311
O16	O	0.250976	1.946133	0.939311
O17	O	-0.523900	1.743791	0.439275
O18	O	-0.023900	2.243791	0.939275
O19	O	-0.248989	1.574527	0.567681
O20	O	0.251011	2.074527	1.067681
O21	O	-0.405455	1.446023	0.269865
O22	O	0.094545	1.946023	0.769865
O23	O	-0.405386	1.276655	0.439265
O24	O	0.094614	1.776655	0.939265
O25	O	-0.523779	1.446096	0.737026
O26	O	-0.023779	1.946096	1.237026
O27	O	-0.523825	1.276639	0.567601
O28	O	-0.023825	1.776639	1.067601
O29	O	-0.405305	1.574506	0.737060
O30	O	0.094695	2.074506	1.237060
O31	O	-0.680263	1.574314	0.439229
O32	O	-0.180263	2.074314	0.939229
O33	O	-0.680210	1.445986	0.567580
O34	O	-0.180210	1.945986	1.067580
C35	C	-0.464604	1.238730	0.503430
C36	C	0.035396	1.738730	1.003430
C37	C	-0.464619	1.122577	0.503447
C38	C	0.035381	1.622577	1.003447
C39	C	-0.406073	1.070833	0.567075
C40	C	0.093927	1.570833	1.067075
C41	C	-0.406088	0.950783	0.567093
C42	C	0.093912	1.450783	1.067093
C43	C	-0.715236	1.510164	0.503420
C44	C	-0.215236	2.010164	1.003420
C45	C	-0.822450	1.510227	0.503442
C46	C	-0.322450	2.010227	1.003442
C47	C	-1.018745	1.510336	0.503508
C48	C	-0.518745	2.010336	1.003508
C49	C	-0.909512	1.510272	0.503474
C50	C	-0.409512	2.010272	1.003474
C51	C	-0.213028	1.510345	0.503504
C52	C	0.286972	2.010345	1.003504
C53	C	-0.105814	1.510390	0.503526
C54	C	0.394186	2.010390	1.003526
C55	C	-0.464529	1.510311	0.776021
C56	C	0.035471	2.010311	1.276021
C57	C	-0.464489	1.510341	0.892174
C58	C	0.035511	2.010341	1.392174
C59	C	-0.464640	1.782810	0.503471
C60	C	0.035360	2.282810	1.003471
C61	C	-0.464648	1.898963	0.503480
C62	C	0.035352	2.398963	1.003480
C63	C	-0.464644	1.510229	0.231940
C64	C	0.035356	2.010229	0.731940
C65	C	-0.464412	1.510401	0.115788
C66	C	0.035588	2.010401	0.615788
C67	C	-0.405853	1.573890	0.943976
C68	C	0.094147	2.073890	1.443976
C69	C	-0.405811	1.573923	1.064026
C70	C	0.094189	2.073923	1.564026
H71	H	-0.514779	0.943455	0.449008
H72	H	-0.014779	1.443455	0.949008
H73	H	-0.514618	1.455996	1.071246
H74	H	-0.014618	1.955996	1.571246
F75	F	-0.340256	1.644952	0.885781
F76	F	0.159744	2.144952	1.385781
F77	F	-0.530146	1.064317	0.432254
F78	F	-0.030146	1.564317	0.932254
F79	F	-0.340538	1.129093	0.638260
F80	F	0.159462	1.629093	1.138260
F81	F	-0.340575	0.892624	0.638304
F82	F	0.159425	1.392624	1.138304
H83	H	-0.355614	1.628332	1.108575
H84	H	0.144386	2.128332	1.608575
H85	H	-0.514652	1.455953	0.936701
H86	H	-0.014652	1.955953	1.436701
