data_functionalizedCrystal
_audit_creation_method	'MofGen! by Chris Wilmer'
_symmetry_space_group_name_H-M	'P1'
_symmetry_Int_Tables_number	1
_symmetry_cell_setting	triclinic
loop_
_symmetry_equiv_pos_as_xyz
  x,y,z
_cell_length_a	19.288864
_cell_length_b	11.026607
_cell_length_c	17.766277
_cell_angle_alpha	89.996915
_cell_angle_beta	89.976791
_cell_angle_gamma	95.861131
loop_
_atom_site_label
_atom_site_type_symbol
_atom_site_fract_x
_atom_site_fract_y
_atom_site_fract_z
O1	O	0.940539	0.151279	-0.062839
O2	O	0.740867	0.171687	-0.062788
O3	O	0.824155	-0.015080	-0.062806
O4	O	0.857252	0.338046	-0.062820
O5	O	0.824135	-0.015089	0.062382
O6	O	0.740847	0.171677	0.062401
O7	O	0.940520	0.151270	0.062350
Cu8	Cu	0.840682	0.161473	0.073806
Cu9	Cu	0.840705	0.161484	-0.074244
O10	O	0.857232	0.338036	0.062368
C11	C	0.714897	0.171025	-0.000187
C12	C	0.637544	0.169054	-0.000167
C13	C	0.606746	0.278640	-0.000183
C14	C	0.534064	0.276788	-0.000191
C15	C	0.492182	0.165344	-0.000198
C16	C	0.522988	0.055744	-0.000178
C17	C	0.595669	0.057599	-0.000162
C18	C	0.372816	0.077740	-0.044079
C19	C	0.300137	0.075890	-0.044100
C20	C	0.268011	0.159618	-0.000244
C21	C	0.308573	0.245218	0.043623
C22	C	0.381254	0.247073	0.043639
C23	C	0.413372	0.163320	-0.000215
C24	C	0.158403	0.267204	-0.000268
C25	C	0.085720	0.265347	-0.000271
C26	C	0.074645	0.044300	-0.000266
C27	C	0.147327	0.046159	-0.000255
C28	C	0.189202	0.157615	-0.000259
C29	C	0.818039	-0.060262	-0.000211
C30	C	0.799837	-0.194876	-0.000209
C31	C	0.850095	-0.268957	-0.000223
C32	C	0.831284	-0.408088	-0.000221
C33	C	0.966489	0.151931	-0.000253
C34	C	1.043843	0.153902	-0.000277
C35	C	0.863348	0.383218	-0.000228
C36	C	0.881550	0.517833	-0.000235
N37	N	0.840670	0.161464	0.177936
N38	N	0.840721	0.161483	-0.178374
C39	C	0.877570	0.078804	0.217315
C40	C	0.877573	0.078799	0.296117
C41	C	0.840686	0.161474	0.335537
C42	C	0.803778	0.244140	0.296149
C43	C	0.803770	0.244135	0.217349
C44	C	0.845401	0.271967	0.460372
C45	C	0.845414	0.271973	0.539171
C46	C	0.840706	0.161488	0.578583
C47	C	0.836000	0.050992	0.539187
C48	C	0.835992	0.050987	0.460387
C49	C	0.840690	0.161488	0.420983
C50	C	0.877612	0.078816	0.703408
C51	C	0.877610	0.078808	0.782211
C52	C	0.803819	0.244160	0.782242
C53	C	0.803816	0.244157	0.703440
C54	C	0.840716	0.161486	0.664028
H55	H	0.508984	0.366029	-0.000202
Br56	Br	0.416408	-0.035905	-0.103602
Br57	Br	0.976486	-0.416221	-0.000266
H58	H	0.267117	0.006194	-0.079822
Br59	Br	0.753738	0.356346	0.649991
Br60	Br	0.927685	-0.033392	0.835658
H61	H	0.832166	-0.038976	0.571275
H62	H	0.040545	-0.046440	-0.000318
H63	H	0.414277	0.316767	0.079359
H64	H	0.907050	-0.229377	-0.000233
H65	H	0.192500	0.357957	-0.000261
Br66	Br	0.851860	0.421929	0.406892
Br67	Br	0.264983	0.358862	0.103144
Br68	Br	0.043922	0.414085	-0.000287
H69	H	0.907656	0.011496	0.671317
H70	H	0.773781	0.311471	0.814337
Br71	Br	0.851808	0.421930	0.592629
H72	H	0.774326	-0.447663	-0.000211
H73	H	0.907614	0.011486	0.185228
H74	H	0.742883	-0.234456	-0.000200
Br75	Br	0.466151	-0.095503	-0.000180
H76	H	0.620743	-0.031642	-0.000150
Br77	Br	0.753709	0.356334	0.349644
Br78	Br	0.189127	-0.102573	-0.000235
H79	H	0.773720	0.311447	0.185286
H80	H	0.907623	0.011485	0.328185
Br81	Br	0.663573	0.429900	-0.000188
Br82	Br	0.829599	-0.098964	0.406923
