data_functionalizedCrystal
_audit_creation_method	'MofGen! by Chris Wilmer'
_symmetry_space_group_name_H-M	'P1'
_symmetry_Int_Tables_number	1
_symmetry_cell_setting	triclinic
loop_
_symmetry_equiv_pos_as_xyz
  x,y,z
_cell_length_a	6.817900
_cell_length_b	11.102244
_cell_length_c	16.015572
_cell_angle_alpha	76.743270
_cell_angle_beta	104.485554
_cell_angle_gamma	108.604870
loop_
_atom_site_label
_atom_site_type_symbol
_atom_site_fract_x
_atom_site_fract_y
_atom_site_fract_z
V1	V	-3.999219	-0.051261	-0.269392
O2	O	-3.960395	0.130657	-0.264266
O3	O	-3.976759	-0.224934	-0.267548
O4	O	-3.927019	0.005776	-0.386885
O5	O	-4.010479	-0.101651	-0.144103
V6	V	-4.482569	-0.036148	-0.254407
O7	O	-4.260855	-0.084413	-0.302264
O8	O	-4.671130	-0.002996	-0.221536
O9	O	-4.281823	0.137525	-0.256252
O10	O	-4.638790	-0.218066	-0.259533
O11	O	-4.588707	0.014242	-0.379696
O12	O	-4.331562	-0.093186	-0.136915
C13	C	-3.828840	-0.269029	-0.263297
C14	C	-3.891604	-0.410647	-0.262572
C15	C	-3.893904	-0.495627	-0.183111
C16	C	-3.952888	-0.628690	-0.182440
C17	C	-4.007263	-0.591778	-0.340698
C18	C	-3.948294	-0.458718	-0.341368
C19	C	-3.862503	-0.516939	-0.091742
C20	C	-3.921487	-0.650002	-0.091071
C21	C	-3.765392	0.025266	-0.415522
C22	C	-3.787816	0.070751	-0.511573
C23	C	-4.136751	-0.332976	-0.889201
C24	C	-4.157820	-0.290194	-0.979451
C25	C	-4.047773	-0.068856	-0.954746
C26	C	-4.026684	-0.111619	-0.864492
C27	C	-4.071179	-0.243681	-0.831727
C28	C	-3.961112	-0.022324	-0.807019
C29	C	-3.940036	-0.065084	-0.716773
C30	C	-3.984531	-0.197140	-0.684001
C31	C	-4.050103	-0.286441	-0.741481
C32	C	-3.916632	0.109736	-0.839786
C33	C	-3.851060	0.199032	-0.782313
C34	C	-3.829969	0.156272	-0.692065
C35	C	-3.874464	0.024216	-0.659292
C36	C	-3.764397	0.245573	-0.634584
C37	C	-3.743321	0.202812	-0.544338
C38	C	-3.853388	-0.018544	-0.569046
C39	C	-4.093085	0.181612	-0.260500
C40	C	-4.009558	0.323231	-0.261230
C41	C	-4.156534	-0.112681	-0.108272
C42	C	-4.113347	-0.158161	-0.012221
H43	H	-4.053425	-0.630934	-0.404851
H44	H	-3.690139	-0.478730	-0.060186
H45	H	-3.728195	0.353097	-0.661276
C46	C	-3.737858	-0.705209	-0.038972
C47	C	-3.652492	-0.691395	0.057936
C48	C	-3.468873	-0.746604	0.110030
C49	C	-3.370619	-0.815627	0.065217
C50	C	-3.455985	-0.829445	-0.031696
C51	C	-3.639604	-0.774236	-0.083791
H52	H	-3.725226	-0.640297	0.091113
H53	H	-3.405681	-0.736375	0.181772
H54	H	-3.234694	-0.856496	0.103781
H55	H	-3.383251	-0.880542	-0.064874
H56	H	-3.702796	-0.784465	-0.155532
H57	H	-3.974333	-0.492454	-0.060148
C58	C	-3.671184	0.301033	-0.481110
C59	C	-3.648010	0.253996	-0.381844
C60	C	-3.575882	0.352219	-0.318615
C61	C	-3.526928	0.497479	-0.354653
C62	C	-3.550101	0.544524	-0.453925
C63	C	-3.622229	0.446301	-0.517153
H64	H	-3.684249	0.146459	-0.355162
H65	H	-3.558728	0.317393	-0.245128
H66	H	-3.473535	0.570190	-0.307848
H67	H	-3.513861	0.652061	-0.480607
H68	H	-3.639382	0.481127	-0.590641
H69	H	-3.946442	-0.389531	-0.406073
C70	C	-4.099036	-0.431710	-0.705427
C71	C	-4.320874	-0.521252	-0.732204
C72	C	-4.369806	-0.666514	-0.696147
C73	C	-4.196900	-0.722232	-0.633313
C74	C	-3.975047	-0.632689	-0.606533
C75	C	-3.926115	-0.487428	-0.642590
H76	H	-4.448882	-0.480007	-0.778721
H77	H	-4.534037	-0.732799	-0.715972
H78	H	-4.233122	-0.829763	-0.606622
H79	H	-3.847038	-0.673934	-0.560016
H80	H	-3.761884	-0.421142	-0.622765
C81	C	-3.802113	0.344294	-0.818361
C82	C	-3.580265	0.433822	-0.791578
C83	C	-3.531308	0.579086	-0.827625
C84	C	-3.704200	0.634824	-0.890453
C85	C	-3.926063	0.545295	-0.917239
C86	C	-3.975020	0.400030	-0.881193
H87	H	-3.452267	0.392563	-0.745066
H88	H	-3.367069	0.645361	-0.807796
H89	H	-3.667959	0.742357	-0.917137
H90	H	-4.054061	0.586554	-0.963752
H91	H	-4.139258	0.333756	-0.901022
H92	H	-4.172956	-0.440513	-0.862521
H93	H	-3.967373	-0.231954	-0.610516
H94	H	-4.074373	-0.701433	-0.065922
H95	H	-3.889593	-0.126081	-0.542367
H96	H	-4.211210	-0.362920	-1.026244
H97	H	-4.011558	0.038669	-0.981437
H98	H	-3.933765	0.144548	-0.913270
