data_functionalizedCrystal
_audit_creation_method	'MofGen! by Chris Wilmer'
_symmetry_space_group_name_H-M	'P1'
_symmetry_Int_Tables_number	1
_symmetry_cell_setting	triclinic
loop_
_symmetry_equiv_pos_as_xyz
  x,y,z
_cell_length_a	21.395362
_cell_length_b	19.805405
_cell_length_c	21.395356
_cell_angle_alpha	89.972988
_cell_angle_beta	89.964230
_cell_angle_gamma	90.042288
loop_
_atom_site_label
_atom_site_type_symbol
_atom_site_fract_x
_atom_site_fract_y
_atom_site_fract_z
Zn1	Zn	0.957828	-0.269207	-0.354580
Zn2	Zn	1.457828	0.230793	0.145420
Zn3	Zn	0.957753	-0.382391	-0.249799
Zn4	Zn	1.457753	0.117609	0.250201
Zn5	Zn	0.853058	-0.269253	-0.249781
Zn6	Zn	1.353058	0.230747	0.250219
Zn7	Zn	0.853020	-0.382391	-0.354504
Zn8	Zn	1.353020	0.117609	0.145496
O9	O	0.905414	-0.325811	-0.302166
O10	O	1.405414	0.174189	0.197834
O11	O	1.045496	-0.284202	-0.340720
O12	O	1.545496	0.215798	0.159280
O13	O	0.943849	-0.367402	-0.162119
O14	O	1.443849	0.132598	0.337881
O15	O	0.867003	-0.174530	-0.263706
O16	O	1.367003	0.325470	0.236294
O17	O	1.045441	-0.367358	-0.263738
O18	O	1.545441	0.132642	0.236262
O19	O	0.943977	-0.174497	-0.340701
O20	O	1.443977	0.325503	0.159299
O21	O	0.866930	-0.284280	-0.162105
O22	O	1.366930	0.215720	0.337895
O23	O	0.765375	-0.284280	-0.263633
O24	O	1.265375	0.215720	0.236367
O25	O	0.866938	-0.367358	-0.442192
O26	O	1.366938	0.132642	0.057808
O27	O	0.765347	-0.367402	-0.340573
O28	O	1.265347	0.132598	0.159427
O29	O	0.943940	-0.284202	-0.442247
O30	O	1.443940	0.215798	0.057753
O31	O	0.943813	-0.477108	-0.263665
O32	O	1.443813	0.022892	0.236335
O33	O	0.866866	-0.477108	-0.340591
O34	O	1.366866	0.022892	0.159409
C35	C	0.742627	-0.325846	-0.302093
C36	C	1.242627	0.174154	0.197907
C37	C	0.672985	-0.325878	-0.302077
C38	C	1.172985	0.174122	0.197923
C39	C	0.905344	-0.501667	-0.302136
C40	C	1.405344	-0.001667	0.197864
C41	C	0.905371	-0.576899	-0.302144
C42	C	1.405371	-0.076899	0.197856
C43	C	0.640274	-0.369217	-0.342080
C44	C	1.140274	0.130783	0.157920
C45	C	0.574839	-0.369200	-0.342108
C46	C	1.074839	0.130800	0.157892
C47	C	0.542117	-0.325852	-0.302122
C48	C	1.042117	0.174148	0.197878
C49	C	0.574836	-0.282504	-0.262116
C50	C	1.074836	0.217496	0.237884
C51	C	0.640270	-0.282517	-0.262094
C52	C	1.140270	0.217483	0.237906
C53	C	0.438400	-0.320407	-0.245717
C54	C	0.938400	0.179593	0.254283
C55	C	0.372967	-0.320398	-0.245738
C56	C	0.872967	0.179602	0.254262
C57	C	0.340297	-0.325808	-0.302191
C58	C	0.840297	0.174192	0.197809
C59	C	0.373067	-0.331240	-0.358624
C60	C	0.873067	0.168760	0.141376
C61	C	0.438501	-0.331253	-0.358602
C62	C	0.938501	0.168747	0.141398
C63	C	0.471165	-0.325833	-0.302142
C64	C	0.971165	0.174167	0.197858
C65	C	0.236633	-0.369131	-0.342227
C66	C	0.736633	0.130869	0.157773
C67	C	0.171196	-0.369110	-0.342256
C68	C	0.671196	0.130890	0.157744
C69	C	0.171195	-0.282417	-0.262259
C70	C	0.671195	0.217583	0.237741
C71	C	0.236630	-0.282435	-0.262236
C72	C	0.736630	0.217565	0.237764
C73	C	0.269345	-0.325796	-0.302219
C74	C	0.769345	0.174204	0.197781
C75	C	0.945476	-0.612220	-0.262130
C76	C	1.445476	-0.112220	0.237870
C77	C	0.945503	-0.682909	-0.262144
C78	C	1.445503	-0.182909	0.237856
C79	C	0.905421	-0.718274	-0.302169
C80	C	1.405421	-0.218274	0.197831
C81	C	0.865314	-0.682947	-0.342187
C82	C	1.365314	-0.182947	0.157813
C83	C	0.865291	-0.612260	-0.342175
C84	C	1.365291	-0.112260	0.157825
C85	C	0.865406	-0.968021	-0.342233
C86	C	1.365406	-0.468021	0.157767
C87	C	0.865431	-1.038713	-0.342240
C88	C	1.365431	-0.538713	0.157760
C89	C	0.945618	-1.038669	-0.262202
C90	C	1.445618	-0.538669	0.237798
C91	C	0.945595	-0.967982	-0.262191
C92	C	1.445595	-0.467982	0.237809
C93	C	0.905491	-0.932661	-0.302210
C94	C	1.405491	-0.432661	0.197790
C95	C	0.905463	-0.856013	-0.302196
C96	C	1.405463	-0.356013	0.197804
C97	C	0.905445	-0.794921	-0.302181
C98	C	1.405445	-0.294921	0.197819
C99	C	1.068838	-0.325775	-0.302239
C100	C	1.568838	0.174225	0.197761
C101	C	1.138479	-0.325760	-0.302271
C102	C	1.638479	0.174240	0.197729
C103	C	0.905443	-0.325775	-0.465589
C104	C	1.405443	0.174225	0.034411
C105	C	0.905455	-0.325760	-0.535231
C106	C	1.405455	0.174240	-0.035231
C107	C	0.905502	-0.149268	-0.302210
C108	C	1.405502	0.350732	0.197790
C109	C	0.905540	-0.074036	-0.302229
C110	C	1.405540	0.425964	0.197771
C111	C	0.945578	-0.368900	-1.037035
C112	C	1.445578	0.131100	-0.537035
C113	C	0.945566	-0.368921	-0.971599
C114	C	1.445566	0.131079	-0.471599
C115	C	0.905515	-0.325652	-0.938869
C116	C	1.405515	0.174348	-0.438869
C117	C	0.865461	-0.282371	-0.971580
C118	C	1.365461	0.217629	-0.471580
C119	C	0.865469	-0.282356	-1.037014
C120	C	1.365469	0.217644	-0.537014
C121	C	0.900585	-0.264697	-0.835214
C122	C	1.400585	0.235303	-0.335214
C123	C	0.900582	-0.264711	-0.769781
C124	C	1.400582	0.235289	-0.269781
C125	C	0.905487	-0.325700	-0.737048
C126	C	1.405487	0.174300	-0.237048
C127	C	0.910409	-0.386677	-0.769757
C128	C	1.410409	0.113323	-0.269757
C129	C	0.910417	-0.386662	-0.835191
C130	C	1.410417	0.113338	-0.335191
C131	C	0.905502	-0.325665	-0.867917
C132	C	1.405502	0.174335	-0.367917
C133	C	0.945523	-0.369005	-0.633393
C134	C	1.445523	0.130995	-0.133393
C135	C	0.945508	-0.369028	-0.567956
C136	C	1.445508	0.130972	-0.067956
C137	C	0.865406	-0.282472	-0.567938
C138	C	1.365406	0.217528	-0.067938
C139	C	0.865418	-0.282456	-0.633374
C140	C	1.365418	0.217544	-0.133374
C141	C	0.905480	-0.325721	-0.666097
C142	C	1.405480	0.174279	-0.166097
C143	C	0.905422	-0.325797	-0.139378
C144	C	1.405422	0.174203	0.360622
C145	C	0.905531	-0.325622	-0.069738
C146	C	1.405531	0.174378	0.430262
H147	H	0.548200	-0.404492	-0.374685
H148	H	1.048200	0.095508	0.125315
N149	N	0.988829	-0.929836	-0.219025
N150	N	1.488829	-0.429836	0.280975
H151	H	0.979136	-0.942178	-0.174247
H152	H	1.479136	-0.442178	0.325753
H153	H	1.033575	-0.942095	-0.228873
H154	H	1.533575	-0.442095	0.271127
N155	N	0.895291	-0.198912	-0.870515
N156	N	1.395291	0.301088	-0.370515
H157	H	0.892177	-0.160288	-0.839867
H158	H	1.392177	0.339712	-0.339867
H159	H	0.933472	-0.192611	-0.897685
H160	H	1.433472	0.307389	-0.397685
N161	N	0.988756	-0.721007	-0.218984
N162	N	1.488756	-0.221007	0.281016
H163	H	1.017788	-0.750280	-0.244486
H164	H	1.517788	-0.250280	0.255514
H165	H	1.014099	-0.687834	-0.193633
H166	H	1.514099	-0.187834	0.306367
H167	H	0.832681	-0.711748	-0.374778
H168	H	1.332681	-0.211748	0.125222
N169	N	0.915703	-0.452465	-0.734464
N170	N	1.415703	0.047535	-0.234464
H171	H	0.914949	-0.443225	-0.688048
H172	H	1.414949	0.056775	-0.188048
H173	H	0.879459	-0.482732	-0.745879
H174	H	1.379459	0.017268	-0.245879
N175	N	0.473843	-0.337108	-0.419466
N176	N	0.973843	0.162892	0.080534
H177	H	0.462517	-0.298008	-0.447575
H178	H	0.962517	0.201992	0.052425
H179	H	0.520240	-0.336316	-0.410831
H180	H	1.020240	0.163684	0.089169
H181	H	0.832792	-1.067505	-0.374837
H182	H	1.332792	-0.567505	0.125163
H183	H	0.832751	-0.939268	-0.374817
H184	H	1.332751	-0.439268	0.125183
N185	N	0.988874	-1.076764	-0.219034
N186	N	1.488874	-0.576764	0.280966
H187	H	0.982810	-1.126911	-0.225112
H188	H	1.482810	-0.626911	0.274888
H189	H	1.033613	-1.064349	-0.228834
H190	H	1.533613	-0.564349	0.271166
N191	N	0.988761	-0.415603	-0.936319
N192	N	1.488761	0.084397	-0.436319
H193	H	1.014139	-0.443008	-0.966981
H194	H	1.514139	0.056992	-0.466981
H195	H	1.017763	-0.388046	-0.909192
H196	H	1.517763	0.111954	-0.409192
N197	N	0.895272	-0.198952	-0.734499
N198	N	1.395272	0.301048	-0.234499
H199	H	0.933441	-0.192599	-0.707373
H200	H	1.433441	0.307401	-0.207373
H201	H	0.892137	-0.160350	-0.765196
H202	H	1.392137	0.339650	-0.265196
N203	N	0.271924	-0.415893	-0.385351
N204	N	0.771924	0.084107	0.114649
H205	H	0.241270	-0.443343	-0.410701
H206	H	0.741270	0.056657	0.089299
H207	H	0.299128	-0.388390	-0.414381
H208	H	0.799128	0.111610	0.085619
N209	N	0.988778	-0.415573	-1.072327
N210	N	1.488778	0.084427	-0.572327
H211	H	0.982708	-0.408998	-1.118743
H212	H	1.482708	0.091002	-0.618743
H213	H	1.033529	-0.405028	-1.060915
H214	H	1.533529	0.094972	-0.560915
H215	H	0.832634	-0.583502	-0.374759
H216	H	1.332634	-0.083502	0.125241
N217	N	0.915722	-0.452423	-0.870471
N218	N	1.415722	0.047577	-0.370471
H219	H	0.918828	-0.491065	-0.839811
H220	H	1.418828	0.008935	-0.339811
H221	H	0.877546	-0.458708	-0.897599
H222	H	1.377546	0.041292	-0.397599
N223	N	0.988729	-0.415669	-0.668693
N224	N	1.488729	0.084331	-0.168693
H225	H	1.014094	-0.443094	-0.638044
H226	H	1.514094	0.056906	-0.138044
H227	H	0.963215	-0.446991	-0.695825
H228	H	1.463215	0.053009	-0.195825
H229	H	0.978115	-0.404277	-0.541331
H230	H	1.478115	0.095723	-0.041331
H231	H	0.832794	-0.247244	-0.541290
H232	H	1.332794	0.252756	-0.041290
N233	N	0.822226	-0.235775	-0.668651
N234	N	1.322226	0.264225	-0.168651
H235	H	0.796851	-0.208367	-0.637989
H236	H	1.296851	0.291633	-0.137989
H237	H	0.847748	-0.204439	-0.695820
H238	H	1.347748	0.295561	-0.195820
H239	H	0.832850	-0.247143	-0.944927
H240	H	1.332850	0.252857	-0.444927
N241	N	0.822274	-0.235673	-1.072288
N242	N	1.322274	0.264327	-0.572288
H243	H	0.847753	-0.204293	-1.099456
H244	H	1.347753	0.295707	-0.599456
H245	H	0.793240	-0.263232	-1.099380
H246	H	1.293240	0.236768	-0.599380
H247	H	0.666907	-0.404524	-0.374638
H248	H	1.166907	0.095476	0.125362
H249	H	0.144564	-0.404400	-0.374835
H250	H	0.644564	0.095600	0.125165
N251	N	0.337840	-0.337078	-0.419519
N252	N	0.837840	0.162922	0.080481
H253	H	0.291416	-0.336243	-0.410973
H254	H	0.791416	0.163757	0.089027
H255	H	0.349342	-0.297981	-0.447592
H256	H	0.849342	0.202019	0.052408
H257	H	0.263264	-0.247147	-0.229658
H258	H	0.763264	0.252853	0.270342
N259	N	0.135912	-0.235656	-0.219135
N260	N	0.635912	0.264344	0.280865
H261	H	0.089495	-0.242222	-0.225220
H262	H	0.589495	0.257778	0.274780
H263	H	0.147296	-0.246127	-0.174365
H264	H	0.647296	0.253873	0.325635
H265	H	0.346291	-0.315980	-0.199786
H266	H	0.846291	0.184020	0.300214
N267	N	0.473632	-0.314569	-0.184823
N268	N	0.973632	0.185431	0.315177
H269	H	0.462185	-0.353665	-0.156723
H270	H	0.962185	0.146335	0.343277
H271	H	0.520045	-0.315379	-0.193425
H272	H	1.020045	0.184621	0.306575
N273	N	0.539548	-0.235757	-0.218980
N274	N	1.039548	0.264243	0.281020
H275	H	0.493132	-0.242330	-0.225059
H276	H	0.993132	0.257670	0.274941
H277	H	0.550941	-0.246239	-0.174215
H278	H	1.050941	0.253761	0.325785
H279	H	0.666904	-0.247223	-0.229519
H280	H	1.166904	0.252777	0.270481
H281	H	0.978113	-0.583430	-0.229535
H282	H	1.478113	-0.083430	0.270465
