data_functionalizedCrystal
_audit_creation_method	'MofGen! by Chris Wilmer'
_symmetry_space_group_name_H-M	'P1'
_symmetry_Int_Tables_number	1
_symmetry_cell_setting	triclinic
loop_
_symmetry_equiv_pos_as_xyz
  x,y,z
_cell_length_a	19.077068
_cell_length_b	19.077241
_cell_length_c	19.076919
_cell_angle_alpha	90.113904
_cell_angle_beta	94.470751
_cell_angle_gamma	85.292229
loop_
_atom_site_label
_atom_site_type_symbol
_atom_site_fract_x
_atom_site_fract_y
_atom_site_fract_z
Zn1	Zn	-0.256332	-1.047582	-0.450414
Zn2	Zn	-0.006332	-0.797582	-0.200414
Zn3	Zn	0.243668	-0.547582	0.049586
Zn4	Zn	0.493668	-0.297582	0.299586
Zn5	Zn	-0.369488	-1.047495	-0.337255
Zn6	Zn	-0.119488	-0.797495	-0.087255
Zn7	Zn	0.130512	-0.547495	0.162745
Zn8	Zn	0.380512	-0.297495	0.412745
Zn9	Zn	-0.255959	-0.934813	-0.328177
Zn10	Zn	-0.005959	-0.684813	-0.078177
Zn11	Zn	0.244041	-0.434813	0.171823
Zn12	Zn	0.494041	-0.184813	0.421823
Zn13	Zn	-0.378906	-0.924921	-0.450353
Zn14	Zn	-0.128906	-0.674921	-0.200353
Zn15	Zn	0.121094	-0.424921	0.049647
Zn16	Zn	0.371094	-0.174921	0.299647
O17	O	-0.315171	-0.988703	-0.391550
O18	O	-0.065171	-0.738703	-0.141550
O19	O	0.184829	-0.488703	0.108450
O20	O	0.434829	-0.238703	0.358450
O21	O	-0.267556	-1.146062	-0.439228
O22	O	-0.017556	-0.896062	-0.189228
O23	O	0.232444	-0.646062	0.060772
O24	O	0.482444	-0.396062	0.310772
O25	O	-0.350331	-1.036651	-0.237563
O26	O	-0.100331	-0.786651	0.012437
O27	O	0.149669	-0.536651	0.262437
O28	O	0.399669	-0.286651	0.512437
O29	O	-0.157199	-0.953949	-0.340619
O30	O	0.092801	-0.703949	-0.090619
O31	O	0.342801	-0.453949	0.159381
O32	O	0.592801	-0.203949	0.409381
O33	O	-0.350692	-1.145999	-0.356091
O34	O	-0.100692	-0.895999	-0.106091
O35	O	0.149308	-0.645999	0.143909
O36	O	0.399308	-0.395999	0.393909
O37	O	-0.157472	-1.036800	-0.430426
O38	O	0.092528	-0.786800	-0.180426
O39	O	0.342528	-0.536800	0.069574
O40	O	0.592528	-0.286800	0.319574
O41	O	-0.266922	-0.953864	-0.230893
O42	O	-0.016922	-0.703864	0.019107
O43	O	0.233078	-0.453864	0.269107
O44	O	0.483078	-0.203864	0.519107
O45	O	-0.276054	-0.835009	-0.340559
O46	O	-0.026054	-0.585009	-0.090559
O47	O	0.223946	-0.335009	0.159441
O48	O	0.473946	-0.085009	0.409441
O49	O	-0.366744	-0.937089	-0.548849
O50	O	-0.116744	-0.687089	-0.298849
O51	O	0.133256	-0.437089	-0.048849
O52	O	0.383256	-0.187089	0.201151
O53	O	-0.366383	-0.827742	-0.430321
O54	O	-0.116383	-0.577742	-0.180321
O55	O	0.133617	-0.327742	0.069679
O56	O	0.383617	-0.077742	0.319679
O57	O	-0.276689	-1.027207	-0.548894
O58	O	-0.026689	-0.777207	-0.298894
O59	O	0.223311	-0.527207	-0.048894
O60	O	0.473311	-0.277207	0.201106
O61	O	-0.469548	-1.027059	-0.356031
O62	O	-0.219548	-0.777059	-0.106031
O63	O	0.030452	-0.527059	0.143969
O64	O	0.280452	-0.277059	0.393969
O65	O	-0.476467	-0.937004	-0.439123
O66	O	-0.226467	-0.687004	-0.189123
O67	O	0.023533	-0.437004	0.060877
O68	O	0.273533	-0.187004	0.310877
C69	C	-0.322201	-0.805838	-0.384449
C70	C	-0.072201	-0.555838	-0.134449
C71	C	0.177799	-0.305838	0.115551
C72	C	0.427799	-0.055838	0.365551
C73	C	-0.325226	-0.727606	-0.381428
C74	C	-0.075226	-0.477606	-0.131428
C75	C	0.174774	-0.227606	0.118572
C76	C	0.424774	0.022394	0.368572
C77	C	-0.283437	-0.690880	-0.423366
C78	C	-0.033437	-0.440880	-0.173366
C79	C	0.216563	-0.190880	0.076634
C80	C	0.466563	0.059120	0.326634
C81	C	-0.286276	-0.617373	-0.420521
C82	C	-0.036276	-0.367373	-0.170521
C83	C	0.213724	-0.117373	0.079479
C84	C	0.463724	0.132627	0.329479
C85	C	-0.330907	-0.580593	-0.375743
C86	C	-0.080907	-0.330593	-0.125743
C87	C	0.169093	-0.080593	0.124257
C88	C	0.419093	0.169407	0.374257
C89	C	-0.372697	-0.617324	-0.333801
C90	C	-0.122697	-0.367324	-0.083801
C91	C	0.127303	-0.117324	0.166199
C92	C	0.377303	0.132676	0.416199
C93	C	-0.369855	-0.690829	-0.336642
C94	C	-0.119855	-0.440829	-0.086642
C95	C	0.130145	-0.190829	0.163358
C96	C	0.380145	0.059171	0.413358
C97	C	-0.344039	-0.360751	-0.362593
C98	C	-0.094039	-0.110751	-0.112593
C99	C	0.155961	0.139249	0.137407
C100	C	0.405961	0.389249	0.387407
C101	C	-0.346880	-0.287240	-0.359757
C102	C	-0.096880	-0.037240	-0.109757
C103	C	0.153120	0.212760	0.140243
C104	C	0.403120	0.462760	0.390243
C105	C	-0.260457	-0.287295	-0.446477
C106	C	-0.010457	-0.037295	-0.196477
C107	C	0.239543	0.212705	0.053523
C108	C	0.489543	0.462705	0.303523
C109	C	-0.257622	-0.360802	-0.449317
C110	C	-0.007622	-0.110802	-0.199317
C111	C	0.242378	0.139198	0.050683
C112	C	0.492378	0.389198	0.300683
C113	C	-0.299409	-0.397526	-0.407372
C114	C	-0.049409	-0.147526	-0.157372
C115	C	0.200591	0.102474	0.092628
C116	C	0.450591	0.352474	0.342628
N117	N	-0.333811	-0.505457	-0.372836
N118	N	-0.083811	-0.255457	-0.122836
N119	N	0.166189	-0.005457	0.127164
N120	N	0.416189	0.244543	0.377164
N121	N	-0.296501	-0.472661	-0.410276
N122	N	-0.046501	-0.222661	-0.160276
N123	N	0.203499	0.027339	0.089724
N124	N	0.453499	0.277339	0.339724
C125	C	-0.498628	-0.980967	-0.398572
C126	C	-0.248628	-0.730967	-0.148572
C127	C	0.001372	-0.480967	0.101428
C128	C	0.251372	-0.230967	0.351428
C129	C	-0.577110	-0.977721	-0.401602
C130	C	-0.327110	-0.727721	-0.151602
C131	C	-0.077110	-0.477721	0.098398
C132	C	0.172890	-0.227721	0.348398
C133	C	-0.610355	-1.023116	-0.359802
C134	C	-0.360355	-0.773116	-0.109802
C135	C	-0.110355	-0.523116	0.140198
C136	C	0.139645	-0.273116	0.390198
C137	C	-0.684097	-1.020067	-0.362657
C138	C	-0.434097	-0.770067	-0.112657
C139	C	-0.184097	-0.520067	0.137343
C140	C	0.065903	-0.270067	0.387343
C141	C	-0.724593	-0.971619	-0.407307
C142	C	-0.474593	-0.721619	-0.157307
C143	C	-0.224593	-0.471619	0.092693
C144	C	0.025407	-0.221619	0.342693
C145	C	-0.691343	-0.926222	-0.449111
C146	C	-0.441343	-0.676222	-0.199111
C147	C	-0.191343	-0.426222	0.050889
C148	C	0.058657	-0.176222	0.300889
C149	C	-0.617602	-0.929275	-0.446260
C150	C	-0.367602	-0.679275	-0.196260
C151	C	-0.117602	-0.429275	0.053740
C152	C	0.132398	-0.179275	0.303740
C153	C	-0.945524	-0.957461	-0.420472
C154	C	-0.695524	-0.707461	-0.170472
C155	C	-0.445524	-0.457461	0.079528
C156	C	-0.195524	-0.207461	0.329528
C157	C	-1.019270	-0.954410	-0.423319
C158	C	-0.769270	-0.704410	-0.173319
C159	C	-0.519270	-0.454410	0.076681
C160	C	-0.269270	-0.204410	0.326681
C161	C	-1.012019	-1.048256	-0.336865
C162	C	-0.762019	-0.798256	-0.086865
C163	C	-0.512019	-0.548256	0.163135
C164	C	-0.262019	-0.298256	0.413135
C165	C	-0.938277	-1.051302	-0.334015
C166	C	-0.688277	-0.801302	-0.084015
C167	C	-0.438277	-0.551302	0.165985
C168	C	-0.188277	-0.301302	0.415985
C169	C	-0.905033	-1.005907	-0.375821
C170	C	-0.655033	-0.755907	-0.125821
C171	C	-0.405033	-0.505907	0.124179
C172	C	-0.155033	-0.255907	0.374179
N173	N	-0.799970	-0.968500	-0.410224
N174	N	-0.549970	-0.718500	-0.160224
N175	N	-0.299970	-0.468500	0.089776
N176	N	-0.049970	-0.218500	0.339776
N177	N	-0.829658	-1.009030	-0.372908
N178	N	-0.579658	-0.759030	-0.122908
N179	N	-0.329658	-0.509030	0.127092
N180	N	-0.079658	-0.259030	0.377092
C181	C	-0.130999	-0.996487	-0.384516
C182	C	0.119001	-0.746487	-0.134516
C183	C	0.369001	-0.496487	0.115484
C184	C	0.619001	-0.246487	0.365484
C185	C	-0.052515	-0.999805	-0.381519
C186	C	0.197485	-0.749805	-0.131519
C187	C	0.447485	-0.499805	0.118481
C188	C	0.697485	-0.249805	0.368481
C189	C	-0.322808	-0.981054	-0.575122
C190	C	-0.072808	-0.731054	-0.325122
C191	C	0.177192	-0.481054	-0.075122
C192	C	0.427192	-0.231054	0.174878
C193	C	-0.326063	-0.977795	-0.653350
C194	C	-0.076063	-0.727795	-0.403350
C195	C	0.173937	-0.477795	-0.153350
C196	C	0.423937	-0.227795	0.096650
C197	C	-0.308111	-0.172283	-0.398673
C198	C	-0.058111	0.077717	-0.148673
C199	C	0.191889	0.327717	0.101327
C200	C	0.441889	0.577717	0.351327
C201	C	-0.305092	-0.250515	-0.401694
C202	C	-0.055092	-0.000515	-0.151694
C203	C	0.194908	0.249485	0.098306
C204	C	0.444908	0.499485	0.348306
C205	C	-0.280707	-1.023181	-0.690126
C206	C	-0.030707	-0.773181	-0.440126
C207	C	0.219293	-0.523181	-0.190126
C208	C	0.469293	-0.273181	0.059874
C209	C	-0.283762	-1.020110	-0.763629
C210	C	-0.033762	-0.770110	-0.513629
C211	C	0.216238	-0.520110	-0.263629
C212	C	0.466238	-0.270110	-0.013629
C213	C	-0.332177	-0.971656	-0.800354
C214	C	-0.082177	-0.721656	-0.550354
C215	C	0.167823	-0.471656	-0.300354
C216	C	0.417823	-0.221656	-0.050354
C217	C	-0.377535	-0.926265	-0.763573
C218	C	-0.127535	-0.676265	-0.513573
C219	C	0.122465	-0.426265	-0.263573
C220	C	0.372465	-0.176265	-0.013573
C221	C	-0.374476	-0.929333	-0.690071
C222	C	-0.124476	-0.679333	-0.440071
C223	C	0.125524	-0.429333	-0.190071
C224	C	0.375524	-0.179333	0.059929
C225	C	-0.346352	-0.957446	-1.020178
C226	C	-0.096352	-0.707446	-0.770178
C227	C	0.153648	-0.457446	-0.520178
C228	C	0.403648	-0.207446	-0.270178
C229	C	-0.349409	-0.954382	-1.093685
C230	C	-0.099409	-0.704382	-0.843685
C231	C	0.150591	-0.454382	-0.593685
C232	C	0.400591	-0.204382	-0.343685
C233	C	-0.255635	-1.048227	-1.093736
C234	C	-0.005635	-0.798227	-0.843736
C235	C	0.244365	-0.548227	-0.593736
C236	C	0.494365	-0.298227	-0.343736
C237	C	-0.252583	-1.051294	-1.020233
C238	C	-0.002583	-0.801294	-0.770233
C239	C	0.247417	-0.551294	-0.520233
C240	C	0.497417	-0.301294	-0.270233
C241	C	-0.297938	-1.005900	-0.983458
C242	C	-0.047938	-0.755900	-0.733458
C243	C	0.202062	-0.505900	-0.483458
C244	C	0.452062	-0.255900	-0.233458
N245	N	-0.335303	-0.968517	-0.875486
N246	N	-0.085303	-0.718517	-0.625486
N247	N	0.164697	-0.468517	-0.375486
N248	N	0.414697	-0.218517	-0.125486
N249	N	-0.294808	-1.009036	-0.908327
N250	N	-0.044808	-0.759036	-0.658327
N251	N	0.205192	-0.509036	-0.408327
N252	N	0.455192	-0.259036	-0.158327
C253	C	-0.307512	-0.996364	-0.208691
C254	C	-0.057512	-0.746364	0.041309
C255	C	0.192488	-0.496364	0.291309
C256	C	0.442488	-0.246364	0.541309
C257	C	-0.304053	-0.999769	-0.130461
C258	C	-0.054053	-0.749769	0.119539
C259	C	0.195947	-0.499769	0.369539
C260	C	0.445947	-0.249769	0.619539
H261	H	-0.221281	-0.390743	-0.485783
H262	H	0.028719	-0.140743	-0.235783
H263	H	0.278719	0.109257	0.014217
H264	H	0.528719	0.359257	0.264217
Cl265	Cl	-1.070178	-0.893490	-0.479445
Cl266	Cl	-0.820178	-0.643490	-0.229445
Cl267	Cl	-0.570178	-0.393490	0.020555
Cl268	Cl	-0.320178	-0.143490	0.270555
Cl269	Cl	-0.742252	-0.865320	-0.505248
Cl270	Cl	-0.492252	-0.615320	-0.255248
Cl271	Cl	-0.242252	-0.365320	-0.005248
Cl272	Cl	0.007748	-0.115320	0.244752
H273	H	-0.252248	-0.587474	-0.454673
H274	H	-0.002248	-0.337474	-0.204673
H275	H	0.247752	-0.087474	0.045327
H276	H	0.497752	0.162526	0.295327
Cl277	Cl	-0.403010	-0.241001	-0.303476
Cl278	Cl	-0.153010	0.008999	-0.053476
Cl279	Cl	0.096990	0.258999	0.196524
Cl280	Cl	0.346990	0.508999	0.446524
Cl281	Cl	-0.207926	-0.241123	-0.499202
Cl282	Cl	0.042074	0.008877	-0.249202
Cl283	Cl	0.292074	0.258877	0.000798
Cl284	Cl	0.542074	0.508877	0.250798
H285	H	-0.246830	-1.057070	-0.793569
H286	H	0.003170	-0.807070	-0.543569
H287	H	0.253170	-0.557070	-0.293569
H288	H	0.503170	-0.307070	-0.043569
Cl289	Cl	-0.410275	-0.893460	-1.139853
Cl290	Cl	-0.160275	-0.643460	-0.889853
Cl291	Cl	0.089725	-0.393460	-0.639853
Cl292	Cl	0.339725	-0.143460	-0.389853
Cl293	Cl	-0.191716	-1.112211	-0.974069
Cl294	Cl	0.058284	-0.862211	-0.724069
Cl295	Cl	0.308284	-0.612211	-0.474069
Cl296	Cl	0.558284	-0.362211	-0.224069
Cl297	Cl	-0.198618	-1.105287	-1.139971
Cl298	Cl	0.051382	-0.855287	-0.889971
Cl299	Cl	0.301382	-0.605287	-0.639971
Cl300	Cl	0.551382	-0.355287	-0.389971
Cl301	Cl	-0.575808	-0.872207	-0.498813
Cl302	Cl	-0.325808	-0.622207	-0.248813
Cl303	Cl	-0.075808	-0.372207	0.001187
Cl304	Cl	0.174192	-0.122207	0.251187
H305	H	-0.411403	-0.892368	-0.660129
H306	H	-0.161403	-0.642368	-0.410129
H307	H	0.088597	-0.392368	-0.160129
H308	H	0.338597	-0.142368	0.089871
H309	H	-0.241284	-1.062640	-0.660230
H310	H	0.008716	-0.812640	-0.410230
H311	H	0.258716	-0.562640	-0.160230
H312	H	0.508716	-0.312640	0.089770
H313	H	-0.378066	-0.390643	-0.328439
H314	H	-0.128066	-0.140643	-0.078439
H315	H	0.121934	0.109357	0.171561
H316	H	0.371934	0.359357	0.421561
H317	H	-0.383293	-0.920493	-0.990245
H318	H	-0.133293	-0.670493	-0.740245
H319	H	0.116707	-0.420493	-0.490245
H320	H	0.366707	-0.170493	-0.240245
Cl321	Cl	-0.428802	-0.571086	-0.277503
Cl322	Cl	-0.178802	-0.321086	-0.027503
Cl323	Cl	0.071198	-0.071086	0.222497
Cl324	Cl	0.321198	0.178914	0.472497
Cl325	Cl	-0.438398	-0.865348	-0.809742
Cl326	Cl	-0.188398	-0.615348	-0.559742
Cl327	Cl	0.061602	-0.365348	-0.309742
Cl328	Cl	0.311602	-0.115348	-0.059742
Cl329	Cl	-0.559453	-1.084021	-0.303663
Cl330	Cl	-0.309453	-0.834021	-0.053663
Cl331	Cl	-0.059453	-0.584021	0.196337
Cl332	Cl	0.190547	-0.334021	0.446337
Cl333	Cl	-0.422392	-0.736999	-0.283918
Cl334	Cl	-0.172392	-0.486999	-0.033918
Cl335	Cl	0.077608	-0.236999	0.216082
Cl336	Cl	0.327608	0.013001	0.466082
H337	H	-0.247095	-0.720821	-0.459831
H338	H	0.002905	-0.470821	-0.209831
H339	H	0.252905	-0.220821	0.040169
H340	H	0.502905	0.029179	0.290169
Cl341	Cl	-0.887373	-1.112220	-0.277891
Cl342	Cl	-0.637373	-0.862220	-0.027891
Cl343	Cl	-0.387373	-0.612220	0.222109
Cl344	Cl	-0.137373	-0.362220	0.472109
H345	H	-1.039094	-1.085214	-0.302829
H346	H	-0.789094	-0.835214	-0.052829
H347	H	-0.539094	-0.585214	0.197171
H348	H	-0.289094	-0.335214	0.447171
Cl349	Cl	-0.725888	-1.077140	-0.310109
Cl350	Cl	-0.475888	-0.827140	-0.060109
Cl351	Cl	-0.225888	-0.577140	0.189891
Cl352	Cl	0.024112	-0.327140	0.439891
H353	H	-0.918463	-0.920497	-0.454512
H354	H	-0.668463	-0.670497	-0.204512
H355	H	-0.418463	-0.420497	0.045488
H356	H	-0.168463	-0.170497	0.295488
