data_functionalizedCrystal
_audit_creation_method	'MofGen! by Chris Wilmer'
_symmetry_space_group_name_H-M	'P1'
_symmetry_Int_Tables_number	1
_symmetry_cell_setting	triclinic
loop_
_symmetry_equiv_pos_as_xyz
  x,y,z
_cell_length_a	16.974813
_cell_length_b	11.792254
_cell_length_c	16.053811
_cell_angle_alpha	92.600538
_cell_angle_beta	88.912778
_cell_angle_gamma	96.203981
loop_
_atom_site_label
_atom_site_type_symbol
_atom_site_fract_x
_atom_site_fract_y
_atom_site_fract_z
O1	O	0.104775	-1.511058	-0.076531
O2	O	0.115898	-1.180654	-0.077278
O3	O	-0.004358	-1.354533	-0.069151
O4	O	0.225031	-1.337179	-0.084658
O5	O	0.002235	-1.344961	0.069262
O6	O	0.122490	-1.171082	0.061135
O7	O	0.111367	-1.501486	0.061883
Zn8	Zn	0.117976	-1.334764	0.083485
Zn9	Zn	0.109290	-1.347376	-0.098881
O10	O	0.231623	-1.327607	0.053756
C11	C	0.118494	-1.133581	-0.008024
C12	C	0.116396	-1.007580	-0.007881
C13	C	0.114692	-0.905254	-0.007768
C14	C	0.112562	-0.776879	-0.007622
C15	C	-0.030429	-1.348909	0.002039
C16	C	-0.117933	-1.346399	0.007949
C17	C	-0.162632	-1.350440	-0.064723
C18	C	-0.244850	-1.348073	-0.059168
C19	C	-0.282370	-1.341674	0.019061
C20	C	-0.237665	-1.337630	0.091738
C21	C	-0.155447	-1.339988	0.086182
C22	C	-0.527879	-1.334055	0.043769
C23	C	-0.610104	-1.331701	0.049320
C24	C	-0.617283	-1.342142	-0.101586
C25	C	-0.535064	-1.344507	-0.107136
C26	C	-0.490366	-1.340456	-0.034458
N27	N	-0.366411	-1.339259	0.024741
N28	N	-0.406325	-1.342863	-0.040140
C29	C	0.257694	-1.333231	-0.017436
C30	C	0.345198	-1.335742	-0.023352
N31	N	0.123903	-1.326165	0.207945
C32	C	0.108772	-0.548558	-0.007369
C33	C	0.110869	-0.674559	-0.007506
C34	C	0.072752	-1.400178	0.255095
C35	C	0.076906	-1.394173	0.342222
C36	C	0.132215	-1.314161	0.382195
C37	C	0.183367	-1.240141	0.335038
C38	C	0.179209	-1.246141	0.247914
C39	C	0.150355	-1.287954	0.642379
C40	C	0.154511	-1.281962	0.729509
C41	C	0.048048	-1.435994	0.736687
C42	C	0.043898	-1.441991	0.649560
C43	C	0.095048	-1.367967	0.602411
N44	N	0.136464	-1.308024	0.471252
N45	N	0.090795	-1.374099	0.513356
N46	N	0.103361	-1.355974	0.776660
H47	H	-0.132090	-1.355656	-0.128425
H48	H	0.220860	-1.185871	0.209524
H49	H	-0.001138	-1.507143	0.617016
N50	N	0.021743	-1.474013	0.393074
H51	H	0.032766	-1.458071	0.454333
H52	H	-0.034959	-1.461791	0.381637
H53	H	-0.281241	-1.351369	-0.118345
H54	H	-0.640648	-1.326484	0.113027
H55	H	0.228398	-1.174988	0.367589
H56	H	-0.491497	-1.330779	0.102949
H57	H	-0.268219	-1.332413	0.155434
H58	H	0.192005	-1.227683	0.603996
H59	H	-0.504522	-1.349719	-0.170838
H60	H	0.027718	-1.465336	0.222555
N61	N	-0.665493	-1.346513	-0.179970
H62	H	-0.693680	-1.275475	-0.181446
H63	H	-0.629197	-1.350967	-0.230322
N64	N	-0.107231	-1.335624	0.164563
H65	H	-0.143474	-1.331214	0.214964
H66	H	-0.079046	-1.406668	0.165957
H67	H	0.006404	-1.496259	0.775084
H68	H	0.199553	-1.216803	0.762051
