data_functionalizedCrystal
_audit_creation_method	'MofGen! by Chris Wilmer'
_symmetry_space_group_name_H-M	'P1'
_symmetry_Int_Tables_number	1
_symmetry_cell_setting	triclinic
loop_
_symmetry_equiv_pos_as_xyz
  x,y,z
_cell_length_a	8.559649
_cell_length_b	11.892095
_cell_length_c	8.634740
_cell_angle_alpha	85.502181
_cell_angle_beta	85.174486
_cell_angle_gamma	93.349364
loop_
_atom_site_label
_atom_site_type_symbol
_atom_site_fract_x
_atom_site_fract_y
_atom_site_fract_z
O1	O	2.120760	0.093986	-0.062244
O2	O	1.667597	0.093990	0.015966
O3	O	1.872727	0.093986	-0.245074
O4	O	1.915630	0.093990	0.198797
O5	O	1.855619	-0.094021	-0.223339
O6	O	1.650489	-0.094017	0.037702
O7	O	2.103652	-0.094021	-0.040509
Zn8	Zn	1.874354	-0.123869	0.002048
Zn9	Zn	1.896895	0.123838	-0.026590
O10	O	1.898522	-0.094018	0.220532
C11	C	1.600426	-0.000013	0.032761
C12	C	1.425762	-0.000011	0.050403
N13	N	1.858982	-0.292923	0.021589
C14	C	2.019229	-0.529574	-0.182212
C15	C	2.008497	-0.647916	-0.168543
C16	C	1.826779	-0.647950	0.062589
C17	C	1.837511	-0.529609	0.048920
C18	C	1.933741	-0.470425	-0.073483
C19	C	1.944480	-0.352081	-0.087145
C20	C	1.762755	-0.352118	0.143980
C21	C	1.752023	-0.470459	0.157649
C22	C	2.170823	-0.000016	-0.057303
C23	C	2.345488	-0.000010	-0.074947
C24	C	1.854455	-0.000015	-0.290506
C25	C	1.825477	-0.000009	-0.458258
N26	N	1.912277	0.292892	-0.046145
C27	C	1.916795	-0.000013	0.265963
C28	C	1.945773	-0.000012	0.433715
H29	H	1.410385	-0.000006	-0.195762
H30	H	1.360858	-0.000004	0.171225
C31	C	1.668712	-0.287049	0.263590
C32	C	1.562870	-0.352149	0.398229
C33	C	1.468837	-0.287078	0.517840
C34	C	1.480647	-0.156907	0.502811
C35	C	1.586493	-0.091799	0.368166
C36	C	1.680526	-0.156870	0.248556
H37	H	1.554124	-0.448516	0.409360
H38	H	1.390483	-0.335276	0.617512
H39	H	1.411038	-0.108738	0.591353
H40	H	1.595239	0.004568	0.357036
H41	H	1.758880	-0.108672	0.148883
H42	H	2.022840	-0.303894	-0.186808
H43	H	1.700317	-0.000004	-0.494107
H44	H	2.097595	-0.481386	-0.281869
H45	H	2.078108	-0.696072	-0.257082
H46	H	1.748419	-0.696153	0.162239
H47	H	2.070946	0.000029	-0.530436
H48	H	1.673670	-0.518661	0.257305
