data_functionalizedCrystal
_audit_creation_method	'MofGen! by Chris Wilmer'
_symmetry_space_group_name_H-M	'P1'
_symmetry_Int_Tables_number	1
_symmetry_cell_setting	triclinic
loop_
_symmetry_equiv_pos_as_xyz
  x,y,z
_cell_length_a	10.540539
_cell_length_b	16.109301
_cell_length_c	15.186229
_cell_angle_alpha	89.998755
_cell_angle_beta	90.002140
_cell_angle_gamma	96.006514
loop_
_atom_site_label
_atom_site_type_symbol
_atom_site_fract_x
_atom_site_fract_y
_atom_site_fract_z
O1	O	0.163160	-1.104129	0.073169
O2	O	0.663160	-0.604129	0.573169
O3	O	0.183464	-0.862191	0.073182
O4	O	0.683464	-0.362191	0.573182
O5	O	-0.011473	-0.988680	0.073174
O6	O	0.488527	-0.488680	0.573174
O7	O	0.358097	-0.977640	0.073177
O8	O	0.858097	-0.477640	0.573177
O9	O	-0.011478	-0.988670	-0.073283
O10	O	0.488522	-0.488670	0.426717
O11	O	0.183460	-0.862181	-0.073275
O12	O	0.683460	-0.362181	0.426725
O13	O	0.163155	-1.104119	-0.073289
O14	O	0.663155	-0.604119	0.426711
Zn15	Zn	0.173307	-0.983149	-0.096535
Zn16	Zn	0.673307	-0.483149	0.403465
Zn17	Zn	0.173313	-0.983162	0.096429
Zn18	Zn	0.673313	-0.483162	0.596429
O19	O	0.358093	-0.977631	-0.073280
O20	O	0.858093	-0.477631	0.426720
C21	C	0.182640	-0.831206	-0.000045
C22	C	0.682640	-0.331206	0.499955
C23	C	0.180174	-0.738896	-0.000039
C24	C	0.680174	-0.238896	0.499961
C25	C	-0.058767	-0.987847	-0.000053
C26	C	0.441233	-0.487847	0.499947
C27	C	-0.199679	-0.985370	-0.000048
C28	C	0.300321	-0.485370	0.499952
C29	C	0.163980	-1.135104	-0.000060
C30	C	0.663980	-0.635104	0.499940
C31	C	0.166446	-1.227414	-0.000059
C32	C	0.666446	-0.727414	0.499941
C33	C	-0.381753	-0.890460	0.000286
C34	C	0.118247	-0.390460	0.500286
C35	C	-0.235171	-0.892971	-0.000044
C36	C	0.264829	-0.392971	0.499956
C37	C	-0.261973	-1.029831	-0.083685
C38	C	0.238027	-0.529831	0.416315
C39	C	-0.408473	-1.026678	-0.083755
C40	C	0.091527	-0.526678	0.416245
C41	C	-0.409013	-1.028568	0.082794
C42	C	0.090987	-0.528568	0.582794
C43	C	-0.262043	-1.029419	0.083900
C44	C	0.237957	-0.529419	0.583900
C45	C	0.405386	-0.978463	-0.000052
C46	C	0.905386	-0.478463	0.499948
C47	C	0.546299	-0.980940	-0.000051
C48	C	1.046299	-0.480940	0.499949
N49	N	0.173302	-0.983146	-0.228228
N50	N	0.673302	-0.483146	0.271772
C51	C	0.290112	-0.517296	-0.000049
C52	C	0.790112	-0.017296	0.499951
C53	C	0.287785	-0.430561	-0.000054
C54	C	0.787785	0.069439	0.499946
C55	C	0.056499	-0.449021	-0.000053
C56	C	0.556499	0.050979	0.499947
C57	C	0.058827	-0.535754	-0.000053
C58	C	0.558827	-0.035754	0.499947
C59	C	0.175637	-0.569889	-0.000047
C60	C	0.675637	-0.069889	0.499953
C61	C	0.170982	-0.396421	-0.000052
C62	C	0.670982	0.103579	0.499948
C63	C	0.168459	-0.302380	-0.000058
C64	C	0.668459	0.197620	0.499942
C65	C	0.178162	-0.663936	-0.000042
C66	C	0.678162	-0.163936	0.499958
C67	C	0.087012	-1.039178	-0.546150
C68	C	0.587012	-0.539178	-0.046150
C69	C	0.087013	-1.039176	-0.453960
C70	C	0.587013	-0.539176	0.046040
C71	C	0.259606	-0.927136	-0.453963
C72	C	0.759606	-0.427136	0.046037
C73	C	0.259611	-0.927143	-0.546151
C74	C	0.759611	-0.427143	-0.046151
C75	C	0.173307	-0.983163	-0.592242
C76	C	0.673307	-0.483163	-0.092242
C77	C	0.173303	-0.983154	-0.407864
C78	C	0.673303	-0.483154	0.092136
C79	C	0.173304	-0.983151	-0.307908
C80	C	0.673304	-0.483151	0.192092
C81	C	0.173307	-0.983167	-0.692205
C82	C	0.673307	-0.483167	-0.192205
N83	N	0.173308	-0.983171	0.228121
N84	N	0.673308	-0.483171	0.728121
H85	H	-0.192067	-0.857987	0.059910
H86	H	0.307933	-0.357987	0.559910
H87	H	0.381003	-0.387743	-0.000058
H88	H	0.881003	0.112257	0.499942
H89	H	-0.220719	-0.996888	0.145772
H90	H	0.279281	-0.496888	0.645772
F91	F	-0.420988	-0.842816	-0.077451
F92	F	0.079012	-0.342816	0.422549
F93	F	0.351450	-0.867516	-0.404904
F94	F	0.851450	-0.367516	0.095096
H95	H	-0.192914	-0.857733	-0.060094
H96	H	0.307086	-0.357733	0.439906
H97	H	-0.409831	-0.853965	0.060263
H98	H	0.090169	-0.353965	0.560263
F99	F	-0.063020	-0.591732	-0.000057
F100	F	0.436980	-0.091732	0.499943
H101	H	0.016740	-1.084794	-0.583675
H102	H	0.516740	-0.584794	-0.083675
F103	F	-0.004831	-1.098796	-0.404908
F104	F	0.495169	-0.598796	0.095092
H105	H	-0.457389	-1.093129	-0.087553
H106	H	0.042611	-0.593129	0.412447
F107	F	0.351467	-0.867525	-0.595210
F108	F	0.851467	-0.367525	-0.095210
H109	H	-0.436206	-0.993811	-0.146272
H110	H	0.063794	-0.493811	0.353728
F111	F	-0.231634	-1.117471	0.090502
F112	F	0.268366	-0.617471	0.590502
H113	H	-0.240587	-1.097686	-0.086798
H114	H	0.259413	-0.597686	0.413202
H115	H	-0.038605	-0.421218	-0.000063
H116	H	0.461395	0.078782	0.499937
F117	F	-0.205724	-0.989453	-0.165034
F118	F	0.294276	-0.489453	0.334966
F119	F	-0.449681	-0.989480	0.165652
F120	F	0.050319	-0.489480	0.665652
F121	F	-0.471985	-1.115800	0.083527
F122	F	0.028015	-0.615800	0.583527
F123	F	0.414432	-0.553622	-0.000046
F124	F	0.914432	-0.053622	0.499954
