data_functionalizedCrystal
_audit_creation_method	'MofGen! by Chris Wilmer'
_symmetry_space_group_name_H-M	'P1'
_symmetry_Int_Tables_number	1
_symmetry_cell_setting	triclinic
loop_
_symmetry_equiv_pos_as_xyz
  x,y,z
_cell_length_a	11.792254
_cell_length_b	11.792254
_cell_length_c	8.140239
_cell_angle_alpha	89.996301
_cell_angle_beta	89.997328
_cell_angle_gamma	84.198598
loop_
_atom_site_label
_atom_site_type_symbol
_atom_site_fract_x
_atom_site_fract_y
_atom_site_fract_z
O1	O	1.506905	0.155634	-0.136613
O2	O	2.006905	0.655634	0.363387
O3	O	1.176566	0.171652	-0.136617
O4	O	1.676566	0.671652	0.363383
O5	O	1.349744	-0.001527	-0.136603
O6	O	1.849744	0.498473	0.363397
O7	O	1.333726	0.328812	-0.136626
O8	O	1.833726	0.828812	0.363374
O9	O	1.349735	-0.001529	0.136624
O10	O	1.849735	0.498471	0.636624
O11	O	1.176556	0.171649	0.136611
O12	O	1.676556	0.671649	0.636611
O13	O	1.506895	0.155632	0.136614
O14	O	2.006895	0.655632	0.636614
Zn15	Zn	1.341724	0.163640	0.179993
Zn16	Zn	1.841724	0.663640	0.679993
Zn17	Zn	1.341737	0.163643	-0.179995
Zn18	Zn	1.841737	0.663643	0.320005
O19	O	1.333717	0.328810	0.136601
O20	O	1.833717	0.828810	0.636601
C21	C	1.134271	0.170642	-0.000003
C22	C	1.634271	0.670642	0.499997
C23	C	1.008257	0.167621	-0.000005
C24	C	1.508257	0.667621	0.499995
C25	C	0.905921	0.165168	-0.000011
C26	C	1.405921	0.665168	0.499989
C27	C	0.777534	0.162099	-0.000012
C28	C	1.277534	0.662099	0.499988
C29	C	1.348730	-0.043818	0.000010
C30	C	1.848730	0.456182	0.500010
C31	C	1.345710	-0.169832	0.000008
C32	C	1.845710	0.330168	0.500008
C33	C	1.343256	-0.272168	0.000003
C34	C	1.843256	0.227832	0.500003
C35	C	1.340188	-0.400555	-0.000013
C36	C	1.840188	0.099445	0.499987
C37	C	1.549190	0.156642	-0.000003
C38	C	2.049190	0.656642	0.499997
C39	C	1.675204	0.159662	-0.000012
C40	C	2.175204	0.659662	0.499988
C41	C	1.334731	0.371102	-0.000016
C42	C	1.834731	0.871102	0.499984
C43	C	1.337751	0.497115	-0.000025
C44	C	1.837751	0.997115	0.499975
N45	N	1.341724	0.163638	0.425676
N46	N	1.841724	0.663638	0.925676
N47	N	1.341746	0.163636	-0.425678
N48	N	1.841746	0.663636	0.074322
