data_functionalizedCrystal
_audit_creation_method	'MofGen! by Chris Wilmer'
_symmetry_space_group_name_H-M	'P1'
_symmetry_Int_Tables_number	1
_symmetry_cell_setting	triclinic
loop_
_symmetry_equiv_pos_as_xyz
  x,y,z
_cell_length_a	15.995292
_cell_length_b	14.044220
_cell_length_c	12.503572
_cell_angle_alpha	86.156832
_cell_angle_beta	86.481317
_cell_angle_gamma	91.671253
loop_
_atom_site_label
_atom_site_type_symbol
_atom_site_fract_x
_atom_site_fract_y
_atom_site_fract_z
O1	O	1.124542	-0.116429	-0.089353
O2	O	0.881891	-0.131574	-0.089349
O3	O	0.999574	0.013982	-0.089340
O4	O	1.006860	-0.261984	-0.089362
O5	O	0.990725	0.003017	0.089301
O6	O	0.873042	-0.142539	0.089292
O7	O	1.115693	-0.127393	0.089288
Cu8	Cu	0.993560	-0.135967	0.105602
Cu9	Cu	1.004025	-0.123000	-0.105662
O10	O	0.998010	-0.272949	0.089280
C11	C	0.846225	-0.136440	-0.000028
C12	C	0.753134	-0.134592	-0.000026
C13	C	0.414889	-0.127798	-0.000038
C14	C	0.446068	-0.232831	-0.000445
C15	C	0.542873	-0.234853	-0.000038
C16	C	0.582696	-0.131169	-0.000033
C17	C	0.544618	-0.084906	0.101981
C18	C	0.447729	-0.083646	0.102062
C19	C	0.457776	-0.069032	-0.101087
C20	C	0.554626	-0.072843	-0.102431
C21	C	0.677534	-0.133069	-0.000026
C22	C	0.320051	-0.125895	-0.000037
C23	C	0.991961	0.043813	-0.000019
C24	C	0.982450	0.149037	-0.000018
C25	C	1.151359	-0.122527	-0.000035
C26	C	1.244451	-0.124375	-0.000044
C27	C	1.005624	-0.302780	-0.000044
C28	C	1.015135	-0.408003	-0.000052
N29	N	0.986205	-0.145087	0.254193
C30	C	0.965062	0.341695	-0.000033
C31	C	1.032519	0.399344	-0.000037
C32	C	1.022844	0.506546	-0.000046
C33	C	0.974736	0.234483	-0.000024
N34	N	1.011385	-0.113873	-0.254254
C35	C	0.975387	-0.158510	0.473308
C36	C	1.022201	-0.100452	0.526638
C37	C	1.016182	-0.107921	0.648561
C38	C	0.981405	-0.151043	0.351374
H39	H	0.424721	-0.268835	-0.073604
H40	H	0.416454	-0.277566	0.072297
C41	C	0.591933	0.029913	-0.110743
N42	N	0.620030	0.107313	-0.116995
C43	C	1.082464	-0.025735	0.464619
N44	N	1.127857	0.030535	0.417902
H45	H	0.579791	-0.106454	-0.177899
H46	H	1.097540	0.368193	-0.000110
C47	C	0.915137	-0.233232	0.535326
N48	N	0.869758	-0.289512	0.582051
C49	C	0.577627	-0.284302	-0.098868
N50	N	0.603800	-0.321531	-0.173324
C51	C	0.410066	-0.139129	0.205065
N52	N	0.381702	-0.180927	0.282646
C53	C	0.567013	-0.296819	0.098926
N54	N	0.585194	-0.343492	0.173472
C55	C	0.428107	-0.107090	-0.205546
N56	N	0.405762	-0.135768	-0.284220
H57	H	0.570599	-0.008841	0.105778
H58	H	0.900050	0.372849	-0.000035
H59	H	0.563641	-0.126040	0.177895
C60	C	0.431113	0.035493	-0.102016
N61	N	0.411024	0.114218	-0.102709
C62	C	0.419986	0.020030	0.108332
N63	N	0.399094	0.098117	0.113061
