data_functionalizedCrystal
_audit_creation_method	'MofGen! by Chris Wilmer'
_symmetry_space_group_name_H-M	'P1'
_symmetry_Int_Tables_number	1
_symmetry_cell_setting	triclinic
loop_
_symmetry_equiv_pos_as_xyz
  x,y,z
_cell_length_a	14.971486
_cell_length_b	27.732048
_cell_length_c	14.048226
_cell_angle_alpha	89.988614
_cell_angle_beta	89.998499
_cell_angle_gamma	83.128392
loop_
_atom_site_label
_atom_site_type_symbol
_atom_site_fract_x
_atom_site_fract_y
_atom_site_fract_z
O1	O	1.185952	0.062991	-0.079062
O2	O	1.685952	0.562991	0.420938
O3	O	0.925432	0.070534	-0.079089
O4	O	1.425432	0.570534	0.420911
O5	O	1.063783	-0.003597	-0.079057
O6	O	1.563783	0.496403	0.420943
O7	O	1.047601	0.137122	-0.079094
O8	O	1.547601	0.637122	0.420906
O9	O	1.063767	-0.003601	0.079265
O10	O	1.563767	0.496399	0.579265
O11	O	0.925416	0.070530	0.079232
O12	O	1.425416	0.570530	0.579232
O13	O	1.185935	0.062986	0.079259
O14	O	1.685935	0.562986	0.579259
Zn15	Zn	1.055673	0.066757	0.104383
Zn16	Zn	1.555673	0.566757	0.604383
Zn17	Zn	1.055695	0.066763	-0.104212
Zn18	Zn	1.555695	0.566763	0.395788
O19	O	1.047584	0.137117	0.079227
O20	O	1.547584	0.637117	0.579227
C21	C	0.892105	0.070195	0.000068
C22	C	1.392105	0.570195	0.500068
C23	C	0.792824	0.069184	0.000059
C24	C	1.292824	0.569184	0.500059
C25	C	1.063435	-0.021608	0.000107
C26	C	1.563435	0.478392	0.500107
C27	C	1.062412	-0.075267	0.000114
C28	C	1.562412	0.424733	0.500114
C29	C	0.734910	0.112734	0.000048
C30	C	1.234910	0.612734	0.500048
C31	C	0.641626	0.111781	0.000063
C32	C	1.141626	0.611781	0.500063
C33	C	0.606257	0.067278	0.000081
C34	C	1.106257	0.567278	0.500081
C35	C	0.664178	0.023724	0.000094
C36	C	1.164178	0.523724	0.500094
C37	C	0.757460	0.024678	0.000086
C38	C	1.257460	0.524678	0.500086
C39	C	0.469746	0.021740	0.000108
C40	C	0.969746	0.521740	0.500108
C41	C	0.376457	0.020787	0.000114
C42	C	0.876457	0.520787	0.500114
C43	C	0.353912	0.108844	0.000084
C44	C	0.853912	0.608844	0.500084
C45	C	0.447195	0.109797	0.000076
C46	C	0.947195	0.609797	0.500076
C47	C	0.505109	0.066243	0.000088
C48	C	1.005109	0.566243	0.500088
C49	C	1.137729	-0.413735	0.000073
C50	C	1.637729	0.086265	0.500073
C51	C	1.133934	-0.615412	0.000060
C52	C	1.633934	-0.115412	0.500060
O53	O	1.202806	-0.646350	0.000025
O54	O	1.702806	-0.146350	0.500025
N55	N	1.051898	-0.634914	0.000052
N56	N	1.551898	-0.134914	0.500052
C57	C	0.970804	-0.603994	0.000042
C58	C	1.470804	-0.103994	0.500042
O59	O	0.900940	-0.625209	0.000025
O60	O	1.400940	-0.125209	0.500025
C61	C	0.974601	-0.402318	0.000048
C62	C	1.474601	0.097682	0.500048
C63	C	1.056642	-0.382818	0.000066
C64	C	1.556642	0.117182	0.500066
C65	C	1.219764	-0.394235	0.000090
C66	C	1.719764	0.105765	0.500090
C67	C	1.220712	-0.343819	0.000098
C68	C	1.720712	0.156181	0.500098
C69	C	1.139625	-0.312902	0.000091
C70	C	1.639625	0.187098	0.500091
C71	C	1.057590	-0.332402	0.000074
C72	C	1.557590	0.167598	0.500074
C73	C	0.893508	-0.371398	0.000031
C74	C	1.393508	0.128602	0.500031
C75	C	0.894464	-0.320976	0.000030
C76	C	1.394464	0.179024	0.500030
C77	C	0.976506	-0.301477	0.000048
C78	C	1.476506	0.198523	0.500048
C79	C	0.977451	-0.251069	0.000075
C80	C	1.477451	0.248931	0.500075
N81	N	1.059487	-0.231567	0.000083
N82	N	1.559487	0.268433	0.500083
C83	C	1.140574	-0.262483	0.000091
C84	C	1.640574	0.237517	0.500091
C85	C	0.968817	-0.709877	0.000040
C86	C	1.468817	-0.209877	0.500040
C87	C	0.967868	-0.760296	0.000040
C88	C	1.467868	-0.260296	0.500040
C89	C	1.130998	-0.771710	0.000056
C90	C	1.630998	-0.271710	0.500056
C91	C	1.131946	-0.721291	0.000063
C92	C	1.631946	-0.221291	0.500063
C93	C	1.050854	-0.690375	0.000048
C94	C	1.550854	-0.190375	0.500048
C95	C	1.142559	-0.156605	0.000110
C96	C	1.642559	0.343395	0.500110
C97	C	1.143500	-0.106184	0.000122
C98	C	1.643500	0.393816	0.500122
C99	C	0.980370	-0.094773	0.000101
C100	C	1.480370	0.405227	0.500101
C101	C	0.979429	-0.145190	0.000093
C102	C	1.479429	0.354810	0.500093
C103	C	1.060530	-0.176105	0.000094
C104	C	1.560530	0.323895	0.500094
O105	O	0.908616	-0.220103	0.000099
O106	O	1.408616	0.279897	0.500099
O107	O	1.210428	-0.241258	0.000086
O108	O	1.710428	0.258742	0.500086
C109	C	1.136781	-0.464151	0.000065
C110	C	1.636781	0.035849	0.500065
C111	C	1.054746	-0.483651	0.000049
C112	C	1.554746	0.016349	0.500049
C113	C	0.973659	-0.452734	0.000041
C114	C	1.473659	0.047266	0.500041
C115	C	1.053797	-0.534070	0.000049
C116	C	1.553797	-0.034070	0.500049
C117	C	1.134884	-0.564986	0.000056
C118	C	1.634884	-0.064986	0.500056
C119	C	1.216921	-0.545484	0.000064
C120	C	1.716921	-0.045484	0.500064
C121	C	1.217868	-0.495067	0.000072
C122	C	1.717868	0.004933	0.500072
C123	C	0.891623	-0.472237	0.000033
C124	C	1.391623	0.027763	0.500033
C125	C	0.890682	-0.522654	0.000026
C126	C	1.390682	-0.022654	0.500026
C127	C	0.971769	-0.553570	0.000033
C128	C	1.471769	-0.053570	0.500033
C129	C	1.219263	0.063326	0.000100
C130	C	1.719263	0.563326	0.500100
C131	C	1.318544	0.064337	0.000103
C132	C	1.818544	0.564337	0.500103
C133	C	1.047932	0.155128	0.000062
C134	C	1.547932	0.655128	0.500062
C135	C	1.048955	0.208788	0.000048
C136	C	1.548955	0.708788	0.500048
N137	N	1.055665	0.066753	0.246743
N138	N	1.555665	0.566753	0.746743
N139	N	1.055710	0.066764	-0.246573
N140	N	1.555710	0.566764	0.253427
C141	C	1.116945	0.033942	0.296576
C142	C	1.616945	0.533942	0.796576
C143	C	1.116951	0.033941	0.396234
C144	C	1.616951	0.533941	0.896234
C145	C	1.055680	0.066755	0.446057
C146	C	1.555680	0.566755	0.946057
C147	C	0.994393	0.099569	0.396217
C148	C	1.494393	0.599569	0.896217
C149	C	0.994384	0.099566	0.296562
C150	C	1.494384	0.599566	0.796562
C151	C	0.994419	0.099572	0.603932
C152	C	1.494419	0.599572	1.103932
C153	C	0.994429	0.099575	0.703594
C154	C	1.494429	0.599575	1.203594
C155	C	1.116987	0.033947	0.703604
C156	C	1.616987	0.533947	1.203604
C157	C	1.116977	0.033945	0.603948
C158	C	1.616977	0.533945	1.103948
C159	C	1.055691	0.066759	0.554115
C160	C	1.555691	0.566759	1.054115
H161	H	0.763700	0.148973	0.000033
H162	H	1.263700	0.648973	0.500033
Br163	Br	0.328456	-0.039611	0.000170
Br164	Br	0.828456	0.460389	0.500170
H165	H	1.210310	-0.090310	0.000139
H166	H	1.710310	0.409690	0.500139
H167	H	0.944501	0.126285	0.436789
H168	H	1.444501	0.626285	0.936789
Br169	Br	1.200110	-0.010591	0.228969
Br170	Br	1.700110	0.489409	0.728969
H171	H	1.166850	0.007223	0.436807
H172	H	1.666850	0.507223	0.936807
Br173	Br	0.911239	0.144104	0.536305
Br174	Br	1.411239	0.644104	1.036305
Br175	Br	0.868086	-0.171655	0.000092
Br176	Br	1.368086	0.328345	0.500092
Br177	Br	1.252626	-0.198553	0.000110
Br178	Br	1.752626	0.301447	0.500110
Br179	Br	1.332060	-0.317363	0.000095
Br180	Br	1.832060	0.182637	0.500095
H181	H	0.901062	-0.776167	0.000042
H182	H	1.401062	-0.276167	0.500042
Br183	Br	0.275315	0.167952	0.000067
Br184	Br	0.775315	0.667952	0.500067
Br185	Br	0.858751	-0.667926	0.000017
Br186	Br	1.358751	-0.167926	0.500017
Br187	Br	0.911207	0.144095	0.228932
Br188	Br	1.411207	0.644095	0.728932
Br189	Br	0.779329	-0.549110	0.000010
Br190	Br	1.279329	-0.049110	0.500010
H191	H	0.914351	-0.069592	0.000098
H192	H	1.414351	0.430408	0.500098
H193	H	1.284675	-0.479196	0.000086
H194	H	1.784675	0.020804	0.500086
Br195	Br	1.200138	-0.010584	0.536327
Br196	Br	1.700138	0.489416	1.036327
Br197	Br	0.616178	-0.036674	0.000128
Br198	Br	1.116178	0.463326	0.500128
Br199	Br	0.495196	0.170195	0.000038
Br200	Br	0.995196	0.670195	0.500038
Br201	Br	0.548344	-0.037368	0.000128
Br202	Br	1.048344	0.462632	0.500128
Br203	Br	1.329827	-0.436184	0.000099
Br204	Br	1.829827	0.063816	0.500099
Br205	Br	0.563031	0.170887	0.000046
Br206	Br	1.063031	0.670887	0.500046
Br207	Br	1.200163	-0.010583	0.771236
Br208	Br	1.700163	0.489417	1.271236
Br209	Br	0.836059	-0.034428	0.000109
Br210	Br	1.336059	0.465572	0.500109
Br211	Br	1.243292	-0.694833	0.000089
Br212	Br	1.743292	-0.194833	0.500089
H213	H	0.826701	-0.387265	0.000011
H214	H	1.326701	0.112735	0.500011
Br215	Br	0.784403	-0.279021	0.000005
Br216	Br	1.284403	0.220979	0.500005
H217	H	1.197022	-0.796891	0.000063
H218	H	1.697022	-0.296891	0.500063
Br219	Br	1.326966	-0.587452	0.000082
Br220	Br	1.826966	-0.087452	0.500082
Br221	Br	0.911272	0.144111	0.771205
Br222	Br	1.411272	0.644111	1.271205
H223	H	0.825590	-0.447069	0.000025
H224	H	1.325590	0.052931	0.500025
