data_functionalizedCrystal
_audit_creation_method	'MofGen! by Chris Wilmer'
_symmetry_space_group_name_H-M	'P1'
_symmetry_Int_Tables_number	1
_symmetry_cell_setting	triclinic
loop_
_symmetry_equiv_pos_as_xyz
  x,y,z
_cell_length_a	13.897447
_cell_length_b	12.645331
_cell_length_c	13.897441
_cell_angle_alpha	89.974213
_cell_angle_beta	90.029327
_cell_angle_gamma	89.986216
loop_
_atom_site_label
_atom_site_type_symbol
_atom_site_fract_x
_atom_site_fract_y
_atom_site_fract_z
Zn1	Zn	-0.384132	-1.620712	0.545520
Zn2	Zn	-0.545454	-1.620589	0.384225
Zn3	Zn	-0.384158	-1.443428	0.384224
Zn4	Zn	-0.545371	-1.443402	0.545463
O5	O	-0.464779	-1.532033	0.464858
O6	O	-0.405555	-1.769043	0.524148
O7	O	-0.524103	-1.597048	0.249243
O8	O	-0.249173	-1.467007	0.405643
O9	O	-0.524078	-1.768953	0.405645
O10	O	-0.249154	-1.597256	0.524147
O11	O	-0.405600	-1.466888	0.249242
O12	O	-0.405519	-1.295077	0.405589
O13	O	-0.523936	-1.466963	0.680452
O14	O	-0.523961	-1.295058	0.524050
O15	O	-0.405475	-1.597231	0.680494
O16	O	-0.680424	-1.597023	0.405590
O17	O	-0.680363	-1.466845	0.524051
C18	C	-0.464735	-1.256603	0.464814
C19	C	-0.464740	-1.138773	0.464818
C20	C	-0.715393	-1.531947	0.464835
C21	C	-0.822607	-1.532007	0.464858
C22	C	-0.389872	-0.971185	0.390695
C23	C	-0.390075	-1.093745	0.390375
C24	C	-0.566350	-1.094249	0.437046
C25	C	-0.565932	-0.971651	0.436533
C26	C	-0.438935	-0.971623	0.566976
C27	C	-0.436674	-1.094229	0.566416
C28	C	-0.909677	-1.532058	0.464880
C29	C	-1.018909	-1.532132	0.464905
C30	C	-0.213186	-1.532148	0.464901
C31	C	-0.105972	-1.532197	0.464920
C32	C	-0.464693	-1.532108	0.716451
C33	C	-0.464657	-1.532140	0.823665
C34	C	-0.464804	-0.808538	0.464888
C35	C	-0.464767	-0.926368	0.464863
C36	C	-0.464794	-1.532019	0.214243
C37	C	-0.464558	-1.532192	0.107030
C38	C	-0.464592	-1.532169	1.019960
C39	C	-0.464631	-1.532150	0.910728
H40	H	-0.314727	-1.123848	0.407783
H41	H	-0.588637	-1.124905	0.363201
H42	H	-0.487249	-1.124885	0.624637
O43	O	-0.504065	-0.936917	0.632793
C44	C	-0.572698	-0.872096	0.586846
H45	H	-0.540703	-0.838573	0.517753
H46	H	-0.639275	-0.920901	0.568850
C47	C	-0.640249	-0.821817	0.739159
C48	C	-0.600950	-0.780637	0.654302
H49	H	-0.657680	-0.765403	0.780769
H50	H	-0.594012	-0.865491	0.770115
H51	H	-0.695725	-0.862487	0.724149
H52	H	-0.545468	-0.739979	0.669311
H53	H	-0.647178	-0.736954	0.623350
H54	H	-0.406757	-0.940338	0.315470
O55	O	-0.591927	-0.937340	0.347480
C56	C	-0.516897	-0.876201	0.307915
H57	H	-0.470087	-0.843548	0.368375
H58	H	-0.471209	-0.927744	0.258529
C59	C	-0.617379	-0.823999	0.175479
C60	C	-0.559892	-0.783888	0.249738
H61	H	-0.643899	-0.767059	0.139589
H62	H	-0.667928	-0.865193	0.202132
H63	H	-0.579297	-0.866952	0.134334
H64	H	-0.597977	-0.740947	0.290887
H65	H	-0.509350	-0.742685	0.223090
H66	H	-0.623648	-1.123416	0.489375
O67	O	-0.410574	-1.128808	0.300176
C68	C	-0.495081	-1.190425	0.302512
H69	H	-0.506353	-1.222611	0.378307
H70	H	-0.559311	-1.139402	0.281245
C71	C	-0.471559	-1.243644	0.138311
C72	C	-0.485399	-1.283184	0.231402
H73	H	-0.465590	-1.300860	0.094445
H74	H	-0.414627	-1.202129	0.136736
H75	H	-0.525087	-1.201126	0.120603
H76	H	-0.431867	-1.325691	0.249114
H77	H	-0.542322	-1.324709	0.232979
H78	H	-0.366129	-0.940729	0.592228
O79	O	-0.347477	-1.129082	0.591277
C80	C	-0.310545	-1.193415	0.517139
H81	H	-0.372540	-1.226658	0.472744
H82	H	-0.261603	-1.144287	0.468825
C83	C	-0.176423	-1.244319	0.615919
C84	C	-0.252568	-1.285155	0.561396
H85	H	-0.140656	-1.300906	0.643217
H86	H	-0.201303	-1.200973	0.665866
H87	H	-0.135649	-1.203379	0.575648
H88	H	-0.293346	-1.326083	0.601670
H89	H	-0.227693	-1.328510	0.511457
O90	O	-0.299749	-0.935872	0.411186
C91	C	-0.298240	-0.824480	0.406979
H92	H	-0.359790	-0.795521	0.359537
H93	H	-0.306924	-0.790834	0.482570
C94	C	-0.126117	-0.822939	0.422628
C95	C	-0.201710	-0.787372	0.364352
H96	H	-0.066571	-0.800047	0.396338
H97	H	-0.127133	-0.897986	0.425466
H98	H	-0.133367	-0.794897	0.485616
H99	H	-0.194465	-0.815424	0.301369
H100	H	-0.200690	-0.712328	0.361502
H101	H	-0.623624	-0.942004	0.488198
