data_functionalizedCrystal
_audit_creation_method	'MofGen! by Chris Wilmer'
_symmetry_space_group_name_H-M	'P1'
_symmetry_Int_Tables_number	1
_symmetry_cell_setting	triclinic
loop_
_symmetry_equiv_pos_as_xyz
  x,y,z
_cell_length_a	10.654550
_cell_length_b	9.730223
_cell_length_c	10.654550
_cell_angle_alpha	89.995747
_cell_angle_beta	95.515069
_cell_angle_gamma	90.000043
loop_
_atom_site_label
_atom_site_type_symbol
_atom_site_fract_x
_atom_site_fract_y
_atom_site_fract_z
O1	O	1.667839	0.114187	-0.176399
O2	O	1.302361	0.114212	-0.193205
O3	O	1.493503	0.114190	-0.002062
O4	O	1.476697	0.114209	-0.367541
O5	O	1.493490	-0.114390	-0.002057
O6	O	1.302348	-0.114368	-0.193199
O7	O	1.667827	-0.114393	-0.176393
Zn8	Zn	1.485085	-0.150672	-0.184796
Zn9	Zn	1.485102	0.150492	-0.184802
O10	O	1.476684	-0.114371	-0.367536
C11	C	1.255556	-0.000075	-0.191968
C12	C	1.116113	-0.000065	-0.188276
N13	N	1.485083	-0.356209	-0.184790
C14	C	1.036628	-0.000064	-0.300818
C15	C	0.905607	-0.000088	-0.297341
C16	C	0.933570	-0.000109	-0.068772
C17	C	1.064588	-0.000095	-0.072250
C18	C	1.569750	-0.428144	-0.100188
C19	C	1.569763	-0.572027	-0.100189
C20	C	1.400438	-0.572026	-0.269404
C21	C	1.400420	-0.428146	-0.269396
C22	C	1.714631	-0.000103	-0.177630
C23	C	1.854074	-0.000104	-0.181322
C24	C	1.492263	-0.000099	0.044738
C25	C	1.488571	-0.000096	0.184181
N26	N	1.485114	0.356028	-0.184798
C27	C	1.477925	-0.000079	-0.414336
C28	C	1.481617	-0.000072	-0.553779
C29	C	1.601112	-0.000104	0.263667
C30	C	1.597636	-0.000087	0.394688
C31	C	1.369066	-0.000061	0.366725
C32	C	1.372544	-0.000068	0.235706
H33	H	1.078574	-0.000049	-0.395294
H34	H	1.129309	-0.000100	0.019401
H35	H	1.331468	-0.369572	-0.338290
H36	H	1.331508	-0.630612	-0.338290
Br37	Br	1.684648	-0.330520	0.014637
H38	H	1.638705	-0.630593	-0.031297
Br39	Br	0.797737	-0.000092	-0.450083
Br40	Br	1.758576	-0.000143	0.193744
Br41	Br	0.863635	-0.000145	0.088685
H42	H	1.689279	-0.000090	0.459401
H43	H	1.274601	-0.000041	0.408693
H44	H	1.280893	-0.000058	0.170985
