data_functionalizedCrystal
_audit_creation_method	'MofGen! by Chris Wilmer'
_symmetry_space_group_name_H-M	'P1'
_symmetry_Int_Tables_number	1
_symmetry_cell_setting	triclinic
loop_
_symmetry_equiv_pos_as_xyz
  x,y,z
_cell_length_a	16.974800
_cell_length_b	10.654550
_cell_length_c	15.455425
_cell_angle_alpha	87.037529
_cell_angle_beta	90.650735
_cell_angle_gamma	83.936244
loop_
_atom_site_label
_atom_site_type_symbol
_atom_site_fract_x
_atom_site_fract_y
_atom_site_fract_z
O1	O	1.049956	0.159860	0.001603
O2	O	0.820558	0.181356	-0.014508
O3	O	0.940531	-0.012240	-0.006079
O4	O	0.929983	0.353455	-0.006826
O5	O	0.934306	-0.021969	0.137744
O6	O	0.814332	0.171626	0.129315
O7	O	1.043731	0.150131	0.145426
Cu8	Cu	0.928463	0.159990	0.150503
Cu9	Cu	0.935825	0.171496	-0.019585
O10	O	0.923758	0.343726	0.136997
C11	C	0.788072	0.175858	0.055341
C12	C	0.700548	0.173955	0.049194
C13	C	0.936644	-0.063886	0.065777
C14	C	0.934327	-0.203282	0.065611
C15	C	0.656040	0.167754	0.124706
C16	C	0.573803	0.165946	0.118933
C17	C	0.536075	0.170348	0.037647
C18	C	0.580589	0.176545	-0.037870
C19	C	0.662825	0.178344	-0.032096
C20	C	0.290491	0.165528	0.011972
C21	C	0.208249	0.163732	0.006204
C22	C	0.201469	0.153131	0.163009
C23	C	0.283706	0.154938	0.168775
C24	C	0.328214	0.161129	0.093258
N25	N	0.452016	0.168504	0.031744
N26	N	0.412272	0.162963	0.099161
C27	C	1.004965	-0.284212	0.070575
C28	C	1.002784	-0.415188	0.070416
C29	C	0.859318	-0.384291	0.060333
C30	C	0.861501	-0.253317	0.060486
C31	C	1.077791	-0.234177	0.075701
C32	C	1.148435	-0.315108	0.080665
C33	C	1.146254	-0.446084	0.080506
C34	C	1.073427	-0.496128	0.075382
C35	C	1.076217	0.155629	0.075575
C36	C	1.163742	0.157532	0.081716
C37	C	0.927645	0.395373	0.065139
C38	C	0.929962	0.534769	0.065299
N39	N	0.923291	0.151897	0.270133
N40	N	0.941004	0.179580	-0.139215
C41	C	0.894736	0.106770	0.812126
C42	C	0.898643	0.112939	0.721594
C43	C	0.948814	0.191926	0.679722
C44	C	0.995086	0.264739	0.728389
C45	C	0.991183	0.258562	0.818920
C46	C	0.965661	0.218532	0.409330
C47	C	0.969559	0.224707	0.318793
C48	C	0.873116	0.072905	0.312004
C49	C	0.869214	0.066740	0.402536
C50	C	0.915490	0.139548	0.451195
N51	N	0.952806	0.198237	0.587184
N52	N	0.911501	0.133229	0.543732
H53	H	0.686751	0.164180	0.190898
F54	F	0.710193	0.184939	-0.112467
F55	F	1.040430	0.336052	0.870707
F56	F	0.323853	0.150260	0.255291
H57	H	1.003341	0.277818	0.448937
H58	H	0.177533	0.167321	-0.059992
H59	H	0.549865	0.180120	-0.104055
F60	F	0.823872	-0.004580	0.260212
F61	F	1.080119	-0.094783	0.075873
F62	F	1.048485	0.348797	0.683824
H63	H	0.165223	0.148089	0.224491
H64	H	1.010412	0.289036	0.284704
F65	F	1.225938	-0.261844	0.086109
F66	F	1.221438	-0.532213	0.085781
F67	F	0.337849	0.172118	-0.068401
H68	H	0.537570	0.160876	0.180423
H69	H	1.071657	-0.602778	0.075244
H70	H	0.800027	-0.425048	0.056162
F71	F	0.786320	-0.167181	0.055203
H72	H	0.853878	0.042457	0.846210
F73	F	0.849380	0.035475	0.669809
F74	F	0.815813	-0.017323	0.447092
