data_functionalizedCrystal
_audit_creation_method	'MofGen! by Chris Wilmer'
_symmetry_space_group_name_H-M	'P1'
_symmetry_Int_Tables_number	1
_symmetry_cell_setting	triclinic
loop_
_symmetry_equiv_pos_as_xyz
  x,y,z
_cell_length_a	12.837942
_cell_length_b	10.723024
_cell_length_c	9.198806
_cell_angle_alpha	89.996604
_cell_angle_beta	90.002880
_cell_angle_gamma	90.351595
loop_
_atom_site_label
_atom_site_type_symbol
_atom_site_fract_x
_atom_site_fract_y
_atom_site_fract_z
O1	O	0.145513	-1.672991	0.120882
O2	O	0.645513	-1.172991	0.620882
O3	O	0.159442	-1.311352	0.120887
O4	O	0.659442	-0.811352	0.620887
O5	O	0.001518	-1.484153	0.120876
O6	O	0.501518	-0.984153	0.620876
O7	O	0.303437	-1.500190	0.120894
O8	O	0.803437	-1.000190	0.620894
O9	O	0.001516	-1.484138	-0.120909
O10	O	0.501516	-0.984138	0.379091
O11	O	0.159440	-1.311337	-0.120898
O12	O	0.659440	-0.811337	0.379102
O13	O	0.145512	-1.672977	-0.120903
O14	O	0.645512	-1.172977	0.379097
Cu15	Cu	0.152476	-1.492156	-0.142977
Cu16	Cu	0.652476	-0.992156	0.357023
Cu17	Cu	0.152478	-1.492173	0.142962
Cu18	Cu	0.652478	-0.992173	0.642962
O19	O	0.303436	-1.500176	-0.120892
O20	O	0.803436	-1.000176	0.379108
C21	C	-0.037142	-1.478728	-0.000016
C22	C	0.462858	-0.978728	0.499984
C23	C	-0.152334	-1.462569	-0.000013
C24	C	0.347666	-0.962569	0.499987
C25	C	0.158427	-1.264735	-0.000005
C26	C	0.658427	-0.764735	0.499995
C27	C	0.155395	-1.125851	-0.000003
C28	C	0.655395	-0.625851	0.499997
C29	C	0.146526	-1.719594	-0.000008
C30	C	0.646526	-1.219594	0.499992
C31	C	0.149559	-1.858478	0.000000
C32	C	0.649559	-1.358478	0.500000
C33	C	-0.391911	-1.656825	0.000015
C34	C	0.108089	-1.156825	0.500015
C35	C	-0.500145	-1.641648	0.000017
C36	C	-0.000145	-1.141648	0.500017
C37	C	-0.477037	-1.417040	0.000005
C38	C	0.022963	-0.917040	0.500005
C39	C	-0.368804	-1.432217	0.000002
C40	C	0.131196	-0.932217	0.500002
C41	C	-0.326245	-1.552113	0.000005
C42	C	0.173755	-1.052113	0.500005
C43	C	-0.218009	-1.567289	-0.000008
C44	C	0.281991	-1.067289	0.499992
C45	C	-0.194904	-1.342681	-0.000010
C46	C	0.305096	-0.842681	0.499990
C47	C	-0.303137	-1.327505	-0.000007
C48	C	0.196863	-0.827505	0.499993
C49	C	0.342096	-1.505601	0.000003
C50	C	0.842096	-1.005601	0.500003
C51	C	0.457288	-1.521760	0.000010
C52	C	0.957288	-1.021760	0.500010
N53	N	0.152474	-1.492153	-0.344091
N54	N	0.652474	-0.992153	0.155909
C55	C	0.243761	-1.060466	0.000003
C56	C	0.743761	-0.560466	0.500003
C57	C	0.240629	-0.916922	0.000005
C58	C	0.740629	-0.416922	0.500005
C59	C	0.086023	-1.564889	-0.583697
C60	C	0.586023	-1.064889	-0.083697
C61	C	0.086024	-1.564872	-0.416285
C62	C	0.586024	-1.064872	0.083715
N63	N	0.152471	-1.492185	0.344076
N64	N	0.652471	-0.992185	0.844076
H65	H	-0.183360	-1.664914	-0.000011
H66	H	0.316640	-1.164914	0.499989
H67	H	0.316277	-0.860706	0.000016
H68	H	0.816277	-0.360706	0.500016
H69	H	-0.511708	-1.319426	0.000019
H70	H	-0.011708	-0.819426	0.500019
Br71	Br	-0.334147	-1.819535	-0.000027
Br72	Br	0.165853	-1.319535	0.499973
Br73	Br	0.023461	-0.952159	0.000009
Br74	Br	0.523461	-0.452159	0.500009
Br75	Br	-0.589262	-1.783764	0.000040
Br76	Br	-0.089262	-1.283764	0.500040
Br77	Br	-0.008796	-1.668673	-0.687187
Br78	Br	0.491204	-1.168673	-0.187187
H79	H	0.209365	-1.429933	-0.593823
H80	H	0.709365	-0.929933	-0.093823
Br81	Br	-0.360906	-1.164796	0.000008
Br82	Br	0.139094	-0.664796	0.500008
Br83	Br	-0.008809	-1.668613	-0.312768
Br84	Br	0.491191	-1.168613	0.187232
H85	H	-0.141426	-1.257417	-0.000029
H86	H	0.358574	-0.757417	0.499971
Br87	Br	0.373728	-1.144273	0.000001
Br88	Br	0.873728	-0.644273	0.500001
H89	H	0.077423	-1.075561	0.000030
H90	H	0.577423	-0.575561	0.500030
H91	H	0.209363	-1.429900	-0.406194
H92	H	0.709363	-0.929900	0.093806
