data_functionalizedCrystal
_audit_creation_method	'MofGen! by Chris Wilmer'
_symmetry_space_group_name_H-M	'P1'
_symmetry_Int_Tables_number	1
_symmetry_cell_setting	triclinic
loop_
_symmetry_equiv_pos_as_xyz
  x,y,z
_cell_length_a	10.654541
_cell_length_b	8.597187
_cell_length_c	9.730217
_cell_angle_alpha	82.294502
_cell_angle_beta	89.995122
_cell_angle_gamma	84.909458
loop_
_atom_site_label
_atom_site_type_symbol
_atom_site_fract_x
_atom_site_fract_y
_atom_site_fract_z
O1	O	0.187482	2.084510	-0.361121
O2	O	0.201860	1.627725	-0.307035
O3	O	0.011987	1.866622	-0.335313
O4	O	0.377355	1.845613	-0.332842
O5	O	0.011980	1.866605	-0.106731
O6	O	0.201852	1.627708	-0.078453
O7	O	0.187474	2.084493	-0.132539
Zn8	Zn	0.194662	1.856098	-0.069203
Zn9	Zn	0.194672	1.856120	-0.370370
O10	O	0.377347	1.845596	-0.104260
C11	C	0.200311	1.569227	-0.185818
C12	C	0.195693	1.394947	-0.165182
C13	C	-0.034823	1.865072	-0.220840
C14	C	-0.174291	1.860459	-0.220297
C15	C	-0.200743	2.146125	-0.254104
C16	C	-0.279489	2.286784	-0.270747
C17	C	-0.410531	2.282441	-0.270237
C18	C	-0.462827	2.137422	-0.253086
C19	C	-0.384080	1.996762	-0.236443
C20	C	-0.253038	2.001122	-0.236950
C21	C	-0.357628	1.711100	-0.202646
C22	C	-0.226587	1.715440	-0.203145
C23	C	-0.409925	1.566081	-0.185494
C24	C	-0.331178	1.425418	-0.168841
C25	C	-0.200129	1.429768	-0.169350
C26	C	-0.147841	1.574781	-0.186502
C27	C	0.424157	1.847146	-0.218736
C28	C	0.563625	1.851759	-0.219289
C29	C	0.189023	2.142991	-0.253759
C30	C	0.193642	2.317271	-0.274404
N31	N	0.194654	1.856094	0.136334
N32	N	0.194670	1.856137	-0.575909
C33	C	0.039857	1.664066	0.159134
C34	C	-0.037544	1.568070	0.242473
C35	C	-0.037544	1.568093	0.386350
C36	C	0.039868	1.664120	0.446891
C37	C	0.117269	1.760117	0.363553
C38	C	0.117258	1.760086	0.219673
C39	C	0.272071	1.952133	0.340753
C40	C	0.272066	1.952121	0.196875
C41	C	0.349483	2.048160	0.401294
C42	C	0.426879	2.144168	0.317955
C43	C	0.426875	2.144142	0.174069
C44	C	0.349467	2.048117	0.113537
H45	H	-0.094044	2.149676	-0.254502
H46	H	0.195420	1.384106	-0.383699
F47	F	-0.223823	2.441117	-0.289007
F48	F	-0.494341	2.432145	-0.287962
H49	H	-0.136020	1.315225	-0.155802
H50	H	-0.100569	1.489884	0.193164
F51	F	-0.602293	2.132806	-0.252620
F52	F	-0.119916	1.465916	0.475048
H53	H	-0.516626	1.562554	-0.185089
H54	H	0.039873	1.664116	0.564046
H55	H	-0.373769	1.307355	-0.154886
H56	H	-0.041142	1.578336	-0.186910
H57	H	0.039840	1.664049	0.041982
F58	F	0.349490	2.048172	0.554423
H59	H	0.489909	2.222337	0.367261
H60	H	0.489912	2.222306	0.106224
H61	H	0.349453	2.048091	-0.003615
H62	H	0.193929	1.328117	-0.055893
