data_functionalizedCrystal
_audit_creation_method	'MofGen! by Chris Wilmer'
_symmetry_space_group_name_H-M	'P1'
_symmetry_Int_Tables_number	1
_symmetry_cell_setting	triclinic
loop_
_symmetry_equiv_pos_as_xyz
  x,y,z
_cell_length_a	20.919287
_cell_length_b	14.560438
_cell_length_c	14.560438
_cell_angle_alpha	60.005799
_cell_angle_beta	86.844015
_cell_angle_gamma	58.212896
loop_
_atom_site_label
_atom_site_type_symbol
_atom_site_fract_x
_atom_site_fract_y
_atom_site_fract_z
Zr1	Zr	0.616781	1.005198	-0.169160
O2	O	0.514560	1.196784	-0.307696
O3	O	0.648113	0.813613	-0.126711
O4	O	0.648118	1.005201	-0.318287
O5	O	0.514555	1.005194	0.035021
O6	O	0.753475	1.005201	-0.326620
O7	O	0.514555	1.005196	-0.116120
O8	O	0.753466	0.662485	0.016075
O9	O	0.514565	1.347910	-0.307674
O10	O	0.740107	0.892414	-0.114802
O11	O	0.661481	0.892412	0.004211
O12	O	0.661487	1.117982	-0.221346
O13	O	0.582860	1.117980	-0.102332
Zr14	Zr	0.784813	1.005195	0.058602
Zr15	Zr	0.784813	1.005199	-0.182450
Zr16	Zr	0.616781	1.005194	0.071892
Zr17	Zr	0.616788	1.246225	-0.169125
Zr18	Zr	0.784807	0.764167	0.058567
O19	O	0.753481	1.196780	0.016153
O20	O	0.753481	1.196786	-0.326593
O21	O	0.514561	1.196779	0.035049
O22	O	0.887034	0.813608	0.197138
O23	O	0.887034	0.813614	-0.145607
O24	O	0.648113	0.813607	0.216034
O25	O	0.887039	1.005199	-0.145579
O26	O	0.753476	1.005192	0.207729
O27	O	0.648119	1.005191	0.216062
O28	O	0.887039	1.005196	0.005561
O29	O	0.648128	1.347911	-0.318238
O30	O	0.753466	0.662482	0.207680
O31	O	0.887030	0.662483	0.197116
O32	O	0.887030	0.662486	0.005512
O33	O	0.514565	1.347907	-0.116070
O34	O	0.648128	1.347908	-0.126634
O35	O	0.740108	0.892411	0.110787
O36	O	0.818734	0.892413	-0.008226
O37	O	0.740114	1.117981	-0.114769
O38	O	0.661487	1.117978	0.004244
C39	C	0.700789	0.703708	-0.055323
C40	C	0.700786	0.601385	-0.055337
C41	C	0.642748	0.636513	-0.133969
C42	C	0.642761	0.540324	-0.133913
C43	C	0.758852	0.373880	0.023415
C44	C	0.758842	0.470069	0.023354
C45	C	0.575722	0.732607	-0.224798
C46	C	0.575735	0.636418	-0.224743
C47	C	0.490614	1.005195	-0.038656
C48	C	0.419280	1.005194	-0.033014
C49	C	0.385767	1.005199	-0.113630
C50	C	0.318743	1.005192	-0.108324
C51	C	0.285231	1.005189	-0.022404
C52	C	0.318750	1.005181	0.058220
C53	C	0.385776	1.005179	0.052917
C54	C	0.082859	1.005187	-0.002223
C55	C	0.015828	1.005194	0.003072
C56	C	0.015826	1.005203	-0.163471
C57	C	0.082850	1.005208	-0.168770
C58	C	0.116366	1.005193	-0.088143
C59	C	0.216720	1.005186	-0.016980
C60	C	0.184879	1.005186	-0.093564
C61	C	0.910980	1.005198	-0.071903
C62	C	0.982314	1.005198	-0.077544
C63	C	0.700797	1.005202	-0.356799
C64	C	0.700797	1.005203	-0.459132
C65	C	0.700806	1.306685	-0.055236
C66	C	0.700808	1.409008	-0.055221
C67	C	0.659755	1.122945	-0.562822
C68	C	0.659757	1.122939	-0.658971
C69	C	0.741845	0.887439	-0.547725
C70	C	0.741847	0.887446	-0.451579
C71	C	0.612359	1.258910	-0.627050
C72	C	0.612361	1.258903	-0.723199
C73	C	0.700797	1.005191	0.246240
C74	C	0.700797	1.005190	0.348573
C75	C	0.910972	0.703709	-0.071946
C76	C	0.982303	0.601387	-0.077603
C77	C	0.700789	0.703702	0.246197
C78	C	0.700786	0.601378	0.348515
C79	C	0.910972	0.703704	0.229573
C80	C	0.982303	0.601380	0.326250
C81	C	0.490622	1.306689	-0.340132
C82	C	0.419291	1.409013	-0.436808
C83	C	0.490623	1.306684	-0.038612
C84	C	0.419291	1.409006	-0.032955
C85	C	0.700805	1.306690	-0.356755
C86	C	0.700808	1.409015	-0.459073
C87	C	0.974758	0.553336	-0.135901
C88	C	1.041775	0.457207	-0.141238
C89	C	1.116336	0.409124	-0.088270
C90	C	1.123879	0.457184	-0.029969
C91	C	1.056863	0.553318	-0.024640
C92	C	1.056851	0.553329	0.309526
C93	C	1.123880	0.457198	0.400354
C94	C	1.116361	0.409114	0.507905
C95	C	1.041806	0.457175	0.524627
C96	C	0.974778	0.553310	0.433800
C97	C	0.344744	1.457075	-0.420084
C98	C	0.277714	1.553236	-0.510912
C99	C	0.285233	1.601325	-0.618463
C100	C	0.359788	1.553259	-0.635185
C101	C	0.426816	1.457107	-0.544358
C102	C	0.426836	1.457067	0.025333
C103	C	0.359819	1.553222	0.030643
C104	C	0.285258	1.601309	-0.022329
C105	C	0.277715	1.553244	-0.080624
C106	C	0.344731	1.457097	-0.085940
C107	C	0.741828	0.553300	0.452216
C108	C	0.741820	0.457161	0.548351
C109	C	0.659725	0.457182	0.437071
C110	C	0.659730	0.553326	0.340939
C111	C	0.789228	0.553284	0.516463
C112	C	0.789219	0.457144	0.612599
H113	H	0.587445	0.636386	-0.302127
C114	C	0.422640	1.005174	0.141601
N115	N	0.450406	1.005166	0.208403
H116	H	0.291463	1.005170	0.128182
C117	C	0.422625	1.005201	-0.208149
N118	N	0.450386	1.005197	-0.279340
C119	C	0.873994	0.335531	0.676393
N120	N	0.937845	0.243934	0.724441
C121	C	0.119737	1.005115	0.086496
N122	N	0.147523	1.005040	0.153334
H123	H	1.184595	0.418021	0.013154
C124	C	0.614569	0.404311	0.428749
N125	N	0.580557	0.364487	0.422479
H126	H	0.365901	1.592426	-0.722764
C127	C	0.746986	0.505940	0.684750
N128	N	0.715176	0.542691	0.739095
H129	H	0.487514	1.417975	-0.557989
H130	H	0.365976	1.592340	0.078117
C131	C	0.195691	1.606135	-0.138870
N132	N	0.133908	1.645966	-0.182730
C133	C	0.654637	1.315846	-0.795307
N134	N	0.686493	1.358708	-0.849609
C135	C	0.221749	1.005176	-0.188066
N136	N	0.249525	1.005169	-0.259246
H137	H	1.170898	0.330845	-0.092617
C138	C	1.205884	0.404338	0.381934
N139	N	1.267646	0.364523	0.368058
C140	C	0.211492	1.707086	-0.718364
N141	N	0.155947	1.786739	-0.793606
H142	H	0.518496	0.647231	-0.211906
H143	H	0.291457	1.005195	-0.173967
C144	C	0.527583	1.329411	-0.786997
N145	N	0.463730	1.382513	-0.835047
C146	C	0.892748	0.606217	-0.194183
N147	N	0.830979	0.646047	-0.238092
C148	C	0.892777	0.606153	0.452216
N149	N	0.831015	0.645951	0.466095
C150	C	0.195711	1.606089	-0.492492
N151	N	0.133948	1.645896	-0.478616
C152	C	0.822693	0.431419	0.109845
N153	N	0.870789	0.402304	0.174993
C154	C	1.033548	0.404257	0.642943
N155	N	1.027330	0.364389	0.732062
H156	H	0.487541	1.417922	0.068477
C157	C	0.211546	1.707068	-0.016464
N158	N	0.156028	1.786723	-0.012039
C159	C	0.753627	0.674872	0.519321
N160	N	0.726815	0.766450	0.521475
H161	H	0.338578	1.417968	-0.133402
C162	C	1.190102	0.303352	0.607806
N163	N	1.245647	0.223687	0.683048
H164	H	0.626300	0.592480	0.256504
C165	C	0.871204	0.504481	0.498179
N166	N	0.932948	0.467722	0.484405
H167	H	0.806118	0.266954	0.087483
H168	H	0.189428	1.005187	0.052976
C169	C	1.065175	0.606151	0.039508
N170	N	1.071442	0.645938	0.087829
C171	C	0.583523	0.817681	-0.336366
N172	N	0.589401	0.881756	-0.420395
H173	H	0.338606	1.417926	-0.332518
H174	H	0.522416	0.792279	-0.203786
H175	H	0.110135	1.005210	-0.238733
H176	H	-0.011456	1.005192	0.073042
C177	C	-0.021041	1.005204	-0.252148
N178	N	-0.048808	1.005198	-0.318939
C179	C	0.647979	1.329433	-0.629877
N180	N	0.674809	1.382547	-0.632004
H181	H	0.775276	0.791569	-0.367153
H182	H	1.035618	0.418088	-0.188711
H183	H	0.775266	0.791565	-0.541590
H184	H	0.551679	1.301102	-0.613517
H185	H	1.062988	0.592465	0.221960
