data_functionalizedCrystal
_audit_creation_method	'MofGen! by Chris Wilmer'
_symmetry_space_group_name_H-M	'P1'
_symmetry_Int_Tables_number	1
_symmetry_cell_setting	triclinic
loop_
_symmetry_equiv_pos_as_xyz
  x,y,z
_cell_length_a	12.827893
_cell_length_b	12.759400
_cell_length_c	12.827885
_cell_angle_alpha	89.969506
_cell_angle_beta	89.980538
_cell_angle_gamma	90.014655
loop_
_atom_site_label
_atom_site_type_symbol
_atom_site_fract_x
_atom_site_fract_y
_atom_site_fract_z
Zn1	Zn	1.597677	-0.418216	-0.590844
Zn2	Zn	1.597572	-0.593932	-0.416102
Zn3	Zn	1.422918	-0.418267	-0.416117
Zn4	Zn	1.422906	-0.593854	-0.590802
O5	O	1.510268	-0.506067	-0.503466
O6	O	1.743899	-0.441537	-0.567675
O7	O	1.574365	-0.570684	-0.269868
O8	O	1.446148	-0.271240	-0.439319
O9	O	1.743822	-0.570634	-0.439293
O10	O	1.574543	-0.271202	-0.567690
O11	O	1.446047	-0.441624	-0.269879
O12	O	1.276680	-0.441548	-0.439278
O13	O	1.446128	-0.570501	-0.737043
O14	O	1.276671	-0.570550	-0.567618
O15	O	1.574532	-0.441461	-0.737074
O16	O	1.574354	-0.740942	-0.439252
O17	O	1.446027	-0.740885	-0.567603
C18	C	1.238758	-0.506047	-0.503446
C19	C	1.122605	-0.506064	-0.503462
C20	C	1.070844	-0.569998	-0.566871
C21	C	0.950793	-0.570017	-0.566889
C22	C	1.510206	-0.779035	-0.503444
C23	C	1.510275	-0.895811	-0.503470
C24	C	1.577169	-0.950668	-0.436711
C25	C	1.577233	-1.060392	-0.436743
C26	C	1.443500	-1.060393	-0.570296
C27	C	1.443442	-0.950671	-0.570268
C28	C	1.644002	-0.895809	-0.369913
C29	C	1.710900	-0.950666	-0.303148
C30	C	1.710965	-1.060390	-0.303180
C31	C	1.644130	-1.115257	-0.369977
C32	C	1.782838	-0.506088	-0.503487
C33	C	1.898991	-0.506097	-0.503495
C34	C	1.510340	-0.505966	-0.776036
C35	C	1.510371	-0.505923	-0.892190
C36	C	1.510359	-0.232034	-0.503511
C37	C	1.510397	-0.115257	-0.503530
C38	C	1.446895	-0.442048	-0.943980
C39	C	1.446925	-0.442002	-1.064030
C40	C	1.510256	-0.506092	-0.231956
C41	C	1.510428	-0.505839	-0.115803
H42	H	1.078043	-0.451337	-0.449194
H43	H	1.644196	-1.204602	-0.370006
O44	O	1.643937	-0.777465	-0.369860
H45	H	1.565110	-0.748627	-0.348655
H46	H	0.943498	-0.451362	-0.449202
H47	H	1.115405	-0.624717	-0.621148
O48	O	0.891835	-0.642611	-0.638715
H49	H	0.948049	-0.689466	-0.685113
H50	H	1.765321	-0.905988	-0.248770
H51	H	1.765444	-1.105052	-0.248825
O52	O	1.582428	-0.578284	-1.056832
H53	H	1.535585	-0.631716	-1.007096
O54	O	1.371400	-1.119563	-0.642321
H55	H	1.382668	-1.205076	-0.631113
H56	H	1.388972	-0.906006	-0.624630
H57	H	1.564736	-0.560577	-0.936727
O58	O	1.374878	-0.369651	-0.884992
H59	H	1.328381	-0.322858	-0.941191
O60	O	1.374948	-0.369543	-1.123013
H61	H	1.386269	-0.380875	-1.208048
