data_functionalizedCrystal
_audit_creation_method	'MofGen! by Chris Wilmer'
_symmetry_space_group_name_H-M	'P1'
_symmetry_Int_Tables_number	1
_symmetry_cell_setting	triclinic
loop_
_symmetry_equiv_pos_as_xyz
  x,y,z
_cell_length_a	22.010155
_cell_length_b	23.532407
_cell_length_c	23.532407
_cell_angle_alpha	82.848678
_cell_angle_beta	89.999577
_cell_angle_gamma	89.996931
loop_
_atom_site_label
_atom_site_type_symbol
_atom_site_fract_x
_atom_site_fract_y
_atom_site_fract_z
O1	O	0.050455	-0.755264	-0.069127
O2	O	0.550455	-0.255264	0.430873
O3	O	0.050474	-0.589400	-0.079130
O4	O	0.550474	-0.089400	0.420870
O5	O	0.050453	-0.677334	0.008803
O6	O	0.550453	-0.177334	0.508803
O7	O	0.050476	-0.667330	-0.157060
O8	O	0.550476	-0.167330	0.342940
O9	O	-0.050597	-0.677318	0.008790
O10	O	0.449403	-0.177318	0.508790
O11	O	-0.050576	-0.589384	-0.079143
O12	O	0.449424	-0.089384	0.420857
O13	O	-0.050595	-0.755248	-0.069140
O14	O	0.449405	-0.255248	0.430860
Cu15	Cu	-0.059812	-0.672315	-0.074143
Cu16	Cu	0.440188	-0.172315	0.425857
Cu17	Cu	0.059691	-0.672333	-0.074127
Cu18	Cu	0.559691	-0.172333	0.425873
O19	O	-0.050574	-0.667314	-0.157073
O20	O	0.449426	-0.167314	0.342927
C21	C	-0.000049	-0.568176	-0.078882
C22	C	0.499951	-0.068176	0.421118
C23	C	-0.000042	-0.504959	-0.078116
C24	C	0.499958	-0.004959	0.421884
C25	C	-0.000074	-0.677071	0.030013
C26	C	0.499926	-0.177071	0.530013
C27	C	-0.000078	-0.676305	0.093230
C28	C	0.499922	-0.176305	0.593230
N29	N	-0.143865	-0.672305	-0.074153
N30	N	0.356135	-0.172305	0.425847
C31	C	-0.563653	-0.711273	-0.035196
C32	C	-0.063653	-0.211273	0.464804
C33	C	-0.627261	-0.711275	-0.035192
C34	C	-0.127261	-0.211275	0.464808
O35	O	-0.660160	-0.744384	-0.002076
O36	O	-0.160160	-0.244384	0.497924
N37	N	-0.659072	-0.672333	-0.074115
N38	N	-0.159072	-0.172333	0.425885
C39	C	-0.627272	-0.633382	-0.113041
C40	C	-0.127272	-0.133382	0.386959
O41	O	-0.660170	-0.600259	-0.146148
O42	O	-0.160170	-0.100259	0.353852
C43	C	-0.563665	-0.633377	-0.113042
C44	C	-0.063665	-0.133377	0.386958
C45	C	-0.531858	-0.672326	-0.074120
C46	C	-0.031858	-0.172326	0.425880
C47	C	-0.531846	-0.750217	0.003723
C48	C	-0.031846	-0.250217	0.503723
C49	C	-0.468243	-0.750215	0.003719
C50	C	0.031757	-0.250215	0.503719
C51	C	-0.436447	-0.711268	-0.035205
C52	C	0.063553	-0.211268	0.464795
C53	C	-0.468255	-0.672324	-0.074125
C54	C	0.031745	-0.172324	0.425875
C55	C	-0.531866	-0.594424	-0.151965
C56	C	-0.031866	-0.094424	0.348035
C57	C	-0.468256	-0.594422	-0.151962
C58	C	0.031744	-0.094422	0.348038
C59	C	-0.436448	-0.633370	-0.113040
C60	C	0.063552	-0.133370	0.386960
C61	C	-0.372856	-0.633374	-0.113054
C62	C	0.127144	-0.133374	0.386946
N63	N	-0.341045	-0.672317	-0.074130
N64	N	0.158955	-0.172317	0.425870
C65	C	-0.372841	-0.711263	-0.035206
C66	C	0.127159	-0.211263	0.464794
C67	C	-0.760850	-0.633395	-0.113036
C68	C	-0.260850	-0.133395	0.386964
C69	C	-0.824455	-0.633402	-0.113039
C70	C	-0.324455	-0.133402	0.386961
C71	C	-0.824440	-0.711294	-0.035188
C72	C	-0.324440	-0.211294	0.464812
C73	C	-0.760833	-0.711290	-0.035189
C74	C	-0.260833	-0.211290	0.464811
C75	C	-0.729039	-0.672337	-0.074113
C76	C	-0.229039	-0.172337	0.425887
C77	C	-0.239269	-0.711256	-0.035220
C78	C	0.260731	-0.211256	0.464780
C79	C	-0.175660	-0.711252	-0.035229
C80	C	0.324340	-0.211252	0.464771
C81	C	-0.175681	-0.633358	-0.113077
C82	C	0.324319	-0.133358	0.386923
C83	C	-0.239284	-0.633364	-0.113070
C84	C	0.260716	-0.133364	0.386930
C85	C	-0.271077	-0.672315	-0.074136
C86	C	0.228923	-0.172315	0.425864
O87	O	-0.339916	-0.600282	-0.146151
O88	O	0.160084	-0.100282	0.353849
O89	O	-0.339935	-0.744376	-0.002100
O90	O	0.160065	-0.244376	0.497900
N91	N	0.143744	-0.672347	-0.074112
N92	N	0.643744	-0.172347	0.425888
C93	C	-0.000071	-0.776472	-0.069388
C94	C	0.499929	-0.276472	0.430612
C95	C	-0.000073	-0.839689	-0.070154
C96	C	0.499927	-0.339689	0.429846
C97	C	-0.000063	-0.105856	-0.125350
C98	C	0.499937	0.394144	0.374650
C99	C	-0.000067	-0.046456	-0.124638
C100	C	0.499933	0.453544	0.375362
O101	O	-0.000083	-0.009711	-0.168424
O102	O	0.499917	0.490289	0.331576
N103	N	-0.000073	-0.023830	-0.072362
N104	N	0.499927	0.476170	0.427638
C105	C	-0.000082	-0.060607	-0.020794
C106	C	0.499918	0.439393	0.479206
O107	O	-0.000088	-0.035908	0.023737
O108	O	0.499912	0.464092	0.523737
C109	C	-0.000082	-0.120006	-0.021506
C110	C	0.499918	0.379994	0.478494
C111	C	-0.000070	-0.142629	-0.073785
C112	C	0.499930	0.357371	0.426215
C113	C	-0.000051	-0.128479	-0.177625
C114	C	0.499949	0.371521	0.322375
C115	C	-0.000046	-0.187876	-0.178336
C116	C	0.499954	0.312124	0.321664
C117	C	-0.000053	-0.224649	-0.126772
C118	C	0.499947	0.275351	0.373228
C119	C	-0.000065	-0.202025	-0.074497
C120	C	0.499935	0.297975	0.425503
C121	C	-0.000096	-0.156783	0.030062
C122	C	0.499904	0.343217	0.530062
C123	C	-0.000097	-0.216185	0.029345
C124	C	0.499903	0.283815	0.529345
C125	C	-0.000084	-0.238808	-0.022934
C126	C	0.499916	0.261192	0.477066
C127	C	-0.000067	-0.298194	-0.023643
C128	C	0.499933	0.201806	0.476357
N129	N	-0.000061	-0.320820	-0.075920
N130	N	0.499939	0.179180	0.424080
C131	C	-0.000054	-0.284048	-0.127484
C132	C	0.499946	0.215952	0.372516
C133	C	-0.000082	0.064135	-0.019302
C134	C	0.499918	0.564135	0.480698
C135	C	-0.000077	0.123533	-0.018589
C136	C	0.499923	0.623533	0.481411
C137	C	-0.000063	0.137680	-0.122434
C138	C	0.499937	0.637680	0.377566
C139	C	-0.000064	0.078281	-0.123146
C140	C	0.499936	0.578281	0.376854
C141	C	-0.000076	0.041509	-0.071578
C142	C	0.499924	0.541509	0.428422
C143	C	-0.000043	-0.408784	-0.128974
C144	C	0.499957	0.091216	0.371026
C145	C	-0.000035	-0.468186	-0.129680
C146	C	0.499965	0.031814	0.370320
C147	C	-0.000052	-0.482329	-0.025836
C148	C	0.499948	0.017671	0.474164
C149	C	-0.000057	-0.422932	-0.025129
C150	C	0.499943	0.077068	0.474871
C151	C	-0.000054	-0.386160	-0.076702
C152	C	0.499946	0.113840	0.423298
O153	O	-0.000054	-0.334974	0.020119
O154	O	0.499946	0.165026	0.520119
O155	O	-0.000055	-0.308755	-0.172007
O156	O	0.499945	0.191245	0.327993
C157	C	-0.000046	-0.667577	-0.178283
C158	C	0.499954	-0.167577	0.321717
C159	C	-0.000037	-0.668343	-0.241500
C160	C	0.499963	-0.168343	0.258500
C161	C	-0.000050	-0.723539	0.492333
C162	C	0.499950	-0.223539	0.992333
C163	C	-0.000046	-0.722827	0.551733
C164	C	0.499954	-0.222827	1.051733
O165	O	-0.000028	-0.766613	0.588478
O166	O	0.499972	-0.266613	1.088478
N167	N	-0.000040	-0.670551	0.574359
N168	N	0.499960	-0.170551	1.074359
C169	C	-0.000033	-0.618983	0.537582
C170	C	0.499967	-0.118983	1.037582
O171	O	-0.000027	-0.574452	0.562281
O172	O	0.499973	-0.074452	1.062281
C173	C	-0.000033	-0.619695	0.478182
C174	C	0.499967	-0.119695	0.978182
C175	C	-0.000045	-0.671974	0.455560
C176	C	0.499955	-0.171974	0.955560
C177	C	-0.000061	-0.775814	0.469710
C178	C	0.499939	-0.275814	0.969710
C179	C	-0.000067	-0.776525	0.410313
C180	C	0.499933	-0.276525	0.910313
C181	C	-0.000062	-0.724961	0.373540
C182	C	0.499938	-0.224961	0.873540
C183	C	-0.000051	-0.672685	0.396164
C184	C	0.499949	-0.172685	0.896164
C185	C	-0.000022	-0.568127	0.441406
C186	C	0.499978	-0.068127	0.941406
C187	C	-0.000022	-0.568844	0.382004
C188	C	0.499978	-0.068844	0.882004
C189	C	-0.000034	-0.621123	0.359381
C190	C	0.499966	-0.121123	0.859381
C191	C	-0.000052	-0.621832	0.299995
C192	C	0.499948	-0.121832	0.799995
N193	N	-0.000057	-0.674109	0.277368
N194	N	0.499943	-0.174109	0.777368
C195	C	-0.000062	-0.725673	0.314141
C196	C	0.499938	-0.225673	0.814141
C197	C	-0.000031	-0.617491	0.662324
C198	C	0.499969	-0.117491	1.162324
C199	C	-0.000035	-0.616778	0.721722
C200	C	0.499965	-0.116778	1.221722
C201	C	-0.000047	-0.720623	0.735869
C202	C	0.499953	-0.220623	1.235869
C203	C	-0.000047	-0.721335	0.676470
C204	C	0.499953	-0.221335	1.176470
C205	C	-0.000037	-0.669767	0.639698
C206	C	0.499963	-0.169767	1.139698
C207	C	-0.000075	-0.727163	0.189405
C208	C	0.499925	-0.227163	0.689405
C209	C	-0.000083	-0.727869	0.130003
C210	C	0.499917	-0.227869	0.630003
C211	C	-0.000069	-0.624025	0.115860
C212	C	0.499931	-0.124025	0.615860
C213	C	-0.000064	-0.623318	0.175257
C214	C	0.499936	-0.123318	0.675257
C215	C	-0.000065	-0.674891	0.212029
C216	C	0.499935	-0.174891	0.712029
O217	O	-0.000067	-0.578070	0.263215
O218	O	0.499933	-0.078070	0.763215
O219	O	-0.000060	-0.770196	0.289433
O220	O	0.499940	-0.270196	0.789433
H221	H	-0.149765	-0.742971	-0.003534
H222	H	0.350235	-0.242971	0.496466
N223	N	-0.000022	-0.513218	0.342350
N224	N	0.499978	-0.013218	0.842350
H225	H	-0.037485	-0.511191	0.317395
H226	H	0.462515	-0.011191	0.817395
H227	H	0.037458	-0.511229	0.317422
H228	H	0.537458	-0.011229	0.817422
N229	N	-0.433940	-0.792219	0.045704
N230	N	0.066060	-0.292219	0.545704
H231	H	-0.407548	-0.817313	0.024073
H232	H	0.092452	-0.317313	0.524073
H233	H	-0.463781	-0.816848	0.070350
H234	H	0.036219	-0.316848	0.570350
N235	N	-0.000045	-0.776242	0.775536
N236	N	0.499955	-0.276242	1.275536
H237	H	-0.037507	-0.799062	0.768298
H238	H	0.462493	-0.299062	1.268298
H239	H	-0.000017	-0.767807	0.816580
H240	H	0.499983	-0.267807	1.316580
N241	N	-0.273554	-0.753270	0.006768
N242	N	0.226446	-0.253270	0.506768
H243	H	-0.243745	-0.777940	0.031418
H244	H	0.256255	-0.277940	0.531418
H245	H	-0.299940	-0.778323	-0.014910
H246	H	0.200060	-0.278323	0.485090
N247	N	-0.566134	-0.792237	0.045701
N248	N	-0.066134	-0.292237	0.545701
H249	H	-0.536323	-0.816906	0.070348
H250	H	-0.036323	-0.316906	0.570348
H251	H	-0.592512	-0.817289	0.024014
H252	H	-0.092512	-0.317289	0.524014
H253	H	-0.000056	-0.763906	0.658056
H254	H	0.499944	-0.263906	1.158056
N255	N	-0.000094	-0.784261	0.105608
N256	N	0.499906	-0.284261	0.605608
H257	H	0.037362	-0.786879	0.081275
H258	H	0.537362	-0.286879	0.581275
H259	H	-0.037582	-0.786833	0.081311
H260	H	0.462418	-0.286833	0.581311
N261	N	-0.000060	-0.566933	0.199662
N262	N	0.499940	-0.066933	0.699662
H263	H	-0.000059	-0.534375	0.167351
H264	H	0.499941	-0.034375	0.667351
H265	H	0.037406	-0.564382	0.223993
H266	H	0.537406	-0.064382	0.723993
N267	N	-0.000035	-0.369123	-0.184594
N268	N	0.499965	0.130877	0.315406
H269	H	-0.037496	-0.344162	-0.186620
H270	H	0.462504	0.155838	0.313380
H271	H	-0.000003	-0.392509	-0.217786
H272	H	0.499997	0.107491	0.282214
N273	N	-0.000105	-0.255849	0.084965
N274	N	0.499895	0.244151	0.584965
H275	H	-0.037563	-0.280808	0.086979
H276	H	0.462437	0.219192	0.586979
H277	H	-0.000089	-0.232461	0.118157
H278	H	0.499911	0.267539	0.618157
H279	H	-0.000063	-0.817806	0.499645
H280	H	0.499937	-0.317806	0.999645
H281	H	-0.000074	-0.819097	0.391900
H282	H	0.499926	-0.319097	0.891900
H283	H	-0.000036	-0.574207	0.740136
H284	H	0.499964	-0.074207	1.240136
H285	H	-0.734939	-0.743004	-0.003495
H286	H	-0.234939	-0.243004	0.496505
N287	N	-0.858756	-0.591393	-0.155020
N288	N	-0.358756	-0.091393	0.344980
H289	H	-0.903876	-0.597300	-0.149116
H290	H	-0.403876	-0.097300	0.350884
H291	H	-0.847637	-0.597741	-0.195390
H292	H	-0.347637	-0.097741	0.304610
N293	N	-0.726559	-0.591381	-0.155022
N294	N	-0.226559	-0.091381	0.344978
H295	H	-0.756367	-0.566715	-0.179677
H296	H	-0.256367	-0.066715	0.320323
H297	H	-0.700165	-0.613034	-0.180093
H298	H	-0.200165	-0.113034	0.319907
N299	N	-0.000026	-0.561868	0.622664
N300	N	0.499974	-0.061868	1.122664
H301	H	-0.000023	-0.528647	0.646015
H302	H	0.499977	-0.028647	1.146015
H303	H	-0.037487	-0.559894	0.597711
H304	H	0.462513	-0.059894	1.097711
N305	N	-0.000078	-0.088822	-0.233245
N306	N	0.499922	0.411178	0.266755
H307	H	-0.000082	-0.112176	-0.266464
H308	H	0.499918	0.387824	0.233536
H309	H	0.037373	-0.063858	-0.235231
H310	H	0.537373	0.436142	0.264769
N311	N	-0.000080	-0.568411	0.076193
N312	N	0.499920	-0.068411	0.576193
H313	H	-0.000087	-0.576799	0.035132
H314	H	0.499913	-0.076799	0.535132
H315	H	0.037382	-0.545612	0.083476
H316	H	0.537382	-0.045612	0.583476
N317	N	-0.000017	-0.511739	0.465797
N318	N	0.499983	-0.011739	0.965797
H319	H	-0.000013	-0.479187	0.433480
H320	H	0.499987	0.020813	0.933480
H321	H	0.037443	-0.509182	0.490133
H322	H	0.537443	-0.009182	0.990133
H323	H	-0.850339	-0.743006	-0.003493
H324	H	-0.350339	-0.243006	0.496507
N325	N	-0.000119	-0.132395	0.086451
N326	N	0.499881	0.367605	0.586451
H327	H	-0.000119	-0.089185	0.079088
H328	H	0.499881	0.410815	0.579088
H329	H	0.037336	-0.145872	0.109008
H330	H	0.537336	0.354128	0.609008
N331	N	-0.566163	-0.552406	-0.193937
N332	N	-0.066163	-0.052406	0.306063
H333	H	-0.536360	-0.527731	-0.218586
H334	H	-0.036360	-0.027731	0.281414
H335	H	-0.592548	-0.527359	-0.172249
H336	H	-0.092548	-0.027359	0.327751
H337	H	-0.000058	-0.404512	0.017441
H338	H	0.499942	0.095488	0.517441
N339	N	-0.000058	0.053880	-0.179531
N340	N	0.499942	0.553880	0.320469
H341	H	0.037401	0.029548	-0.182138
H342	H	0.537401	0.529548	0.317862
H343	H	-0.000076	0.086224	-0.212054
H344	H	0.499924	0.586224	0.287946
N345	N	-0.433963	-0.552405	-0.193942
N346	N	0.066037	-0.052405	0.306058
H347	H	-0.463769	-0.527735	-0.218596
H348	H	0.036231	-0.027735	0.281404
H349	H	-0.407571	-0.574058	-0.219015
H350	H	0.092429	-0.074058	0.280985
H351	H	-0.000056	-0.512280	0.016146
H352	H	0.499944	-0.012280	0.516146
N353	N	-0.273596	-0.591366	-0.155058
N354	N	0.226404	-0.091366	0.344942
H355	H	-0.243799	-0.566696	-0.179719
H356	H	0.256201	-0.066696	0.320281
H357	H	-0.299986	-0.566312	-0.133382
H358	H	0.200014	-0.066312	0.366618
H359	H	-0.000060	0.167632	-0.164421
H360	H	0.499940	0.667632	0.335579
H361	H	-0.149783	-0.601650	-0.144771
H362	H	0.350217	-0.101650	0.355229
N363	N	-0.000016	-0.492586	-0.186070
N364	N	0.499984	0.007414	0.313930
H365	H	-0.000013	-0.460274	-0.218626
H366	H	0.499987	0.039726	0.281374
H367	H	-0.037472	-0.516924	-0.188636
H368	H	0.462528	-0.016924	0.311364
N369	N	-0.000030	-0.212272	-0.234724
N370	N	0.499970	0.287728	0.265276
H371	H	-0.000026	-0.179956	-0.267277
H372	H	0.499974	0.320044	0.232723
H373	H	-0.037488	-0.236607	-0.237292
H374	H	0.462512	0.263393	0.262708
H375	H	-0.000073	-0.769159	0.219337
H376	H	0.499927	-0.269159	0.719337
H377	H	-0.000078	0.141947	0.023982
H378	H	0.499922	0.641947	0.523982
H379	H	-0.000086	0.034198	0.022693
H380	H	0.499914	0.534198	0.522693
