data_functionalizedCrystal
_audit_creation_method	'MofGen! by Chris Wilmer'
_symmetry_space_group_name_H-M	'P1'
_symmetry_Int_Tables_number	1
_symmetry_cell_setting	triclinic
loop_
_symmetry_equiv_pos_as_xyz
  x,y,z
_cell_length_a	27.731994
_cell_length_b	26.210047
_cell_length_c	16.109301
_cell_angle_alpha	90.003078
_cell_angle_beta	96.958992
_cell_angle_gamma	90.002872
loop_
_atom_site_label
_atom_site_type_symbol
_atom_site_fract_x
_atom_site_fract_y
_atom_site_fract_z
O1	O	0.641361	0.042358	-0.098700
O2	O	1.141361	0.542358	0.401300
O3	O	0.500627	0.042375	-0.113789
O4	O	1.000627	0.542375	0.386211
O5	O	0.574861	0.042361	0.014836
O6	O	1.074861	0.542361	0.514836
O7	O	0.567128	0.042372	-0.227324
O8	O	1.067128	0.542372	0.272676
O9	O	0.574846	-0.042497	0.014816
O10	O	1.074846	0.457503	0.514816
O11	O	0.500613	-0.042483	-0.113809
O12	O	1.000613	0.457517	0.386191
O13	O	0.641347	-0.042500	-0.098720
O14	O	1.141347	0.457500	0.401280
Cu15	Cu	0.570979	-0.050240	-0.106266
Cu16	Cu	1.070979	0.449760	0.393734
Cu17	Cu	0.570996	0.050115	-0.106242
Cu18	Cu	1.070996	0.550115	0.393758
O19	O	0.567114	-0.042486	-0.227344
O20	O	1.067114	0.457514	0.272656
C21	C	0.482612	-0.000052	-0.113489
C22	C	0.982612	0.499948	0.386511
C23	C	0.428951	-0.000045	-0.112556
C24	C	0.928951	0.499955	0.387444
C25	C	0.096200	-0.046321	-0.106692
C26	C	0.596200	0.453679	0.393308
C27	C	-0.105473	-0.046327	-0.103146
C28	C	0.394527	0.453673	0.396854
O29	O	-0.131554	-0.085666	-0.102661
O30	O	0.368446	0.414334	0.397339
N31	N	-0.130681	-0.000071	-0.102695
N32	N	0.369319	0.499929	0.397305
C33	C	-0.105469	0.046189	-0.103125
C34	C	0.394531	0.546189	0.396875
O35	O	-0.131537	0.085533	-0.102651
O36	O	0.368463	0.585533	0.397349
C37	C	0.096204	0.046195	-0.106665
C38	C	0.596204	0.546195	0.393335
C39	C	0.121410	-0.000064	-0.107124
C40	C	0.621410	0.499936	0.392876
C41	C	0.121406	-0.092577	-0.107151
C42	C	0.621406	0.407423	0.392849
C43	C	0.171821	-0.092575	-0.108042
C44	C	0.671821	0.407425	0.391958
C45	C	0.197030	-0.046318	-0.108474
C46	C	0.697030	0.453682	0.391526
C47	C	0.171824	-0.000062	-0.108015
C48	C	0.671824	0.499938	0.391985
C49	C	0.121416	0.092455	-0.107088
C50	C	0.621416	0.592455	0.392912
C51	C	0.171838	0.092452	-0.107971
C52	C	0.671838	0.592452	0.392029
C53	C	0.197044	0.046193	-0.108431
C54	C	0.697044	0.546193	0.391569
C55	C	0.247449	0.046197	-0.109338
C56	C	0.747449	0.546197	0.390662
N57	N	0.272657	-0.000059	-0.109790
N58	N	0.772657	0.499941	0.390210
C59	C	0.247448	-0.046316	-0.109358
C60	C	0.747448	0.453684	0.390642
C61	C	-0.211350	0.046183	-0.101268
C62	C	0.288650	0.546183	0.398732
C63	C	-0.261768	0.046182	-0.100384
C64	C	0.238232	0.546182	0.399616
C65	C	-0.261768	-0.046335	-0.100404
C66	C	0.238232	0.453665	0.399596
C67	C	-0.211350	-0.046333	-0.101294
C68	C	0.288650	0.453667	0.398706
C69	C	-0.186141	-0.000073	-0.101719
C70	C	0.313859	0.499927	0.398281
C71	C	0.353323	-0.046309	-0.111229
C72	C	0.853323	0.453691	0.388771
C73	C	0.403742	-0.046303	-0.112124
C74	C	0.903742	0.453697	0.387876
C75	C	0.403738	0.046214	-0.112099
C76	C	0.903738	0.546214	0.387901
C77	C	0.353323	0.046208	-0.111209
C78	C	0.853323	0.546208	0.388791
C79	C	0.328117	-0.000057	-0.110772
C80	C	0.828117	0.499943	0.389228
O81	O	0.273562	0.085515	-0.109815
O82	O	0.773562	0.585515	0.390185
O83	O	0.273527	-0.085654	-0.109813
O84	O	0.773527	0.414346	0.390187
C85	C	0.045786	-0.046323	-0.105801
C86	C	0.545786	0.453677	0.394199
C87	C	0.020580	-0.000068	-0.105342
C88	C	0.520580	0.499932	0.394658
C89	C	0.045789	0.046189	-0.105775
C90	C	0.545789	0.546189	0.394225
C91	C	-0.029838	-0.000069	-0.104459
C92	C	0.470162	0.499931	0.395541
C93	C	-0.055047	-0.046327	-0.104027
C94	C	0.444953	0.453673	0.395973
C95	C	-0.029838	-0.092583	-0.104478
C96	C	0.470162	0.407417	0.395522
C97	C	0.020576	-0.092581	-0.105369
C98	C	0.520576	0.407419	0.394631
C99	C	0.020580	0.092445	-0.105323
C100	C	0.520580	0.592445	0.394677
C101	C	-0.029835	0.092439	-0.104433
C102	C	0.470165	0.592439	0.395567
C103	C	-0.055044	0.046182	-0.104001
C104	C	0.444956	0.546182	0.395999
N105	N	0.570970	-0.120824	-0.106282
N106	N	1.070970	0.379176	0.393718
C107	C	0.603863	-0.473344	-0.049300
C108	C	1.103863	0.026656	0.450700
C109	C	0.603873	-0.687003	-0.049288
C110	C	1.103873	-0.187003	0.450712
O111	O	0.631821	-0.714630	-0.000844
O112	O	1.131821	-0.214630	0.499156
N113	N	0.570998	-0.713718	-0.106224
N114	N	1.070998	-0.213718	0.393776
C115	C	0.538116	-0.687015	-0.163163
C116	C	1.038116	-0.187015	0.336837
O117	O	0.510151	-0.714640	-0.211584
O118	O	1.010151	-0.214640	0.288416
C119	C	0.538103	-0.473357	-0.163170
C120	C	1.038103	0.026643	0.336830
C121	C	0.570984	-0.446645	-0.106236
C122	C	1.070984	0.053355	0.393764
C123	C	0.636740	-0.446632	0.007630
C124	C	1.136740	0.053368	0.507630
C125	C	0.636739	-0.393220	0.007623
C126	C	1.136739	0.106780	0.507623
C127	C	0.603860	-0.366521	-0.049313
C128	C	1.103860	0.133479	0.450687
C129	C	0.570983	-0.393233	-0.106243
C130	C	1.070983	0.106767	0.393757
C131	C	0.505219	-0.446655	-0.220104
C132	C	1.005219	0.053345	0.279896
C133	C	0.505218	-0.393237	-0.220100
C134	C	1.005218	0.106763	0.279900
C135	C	0.538099	-0.366525	-0.163166
C136	C	1.038099	0.133475	0.336834
C137	C	0.538103	-0.313123	-0.163185
C138	C	1.038103	0.186877	0.336815
N139	N	0.570978	-0.286408	-0.106250
N140	N	1.070978	0.213592	0.393750
C141	C	0.603857	-0.313107	-0.049314
C142	C	1.103857	0.186893	0.450686
C143	C	0.538126	-0.799188	-0.163156
C144	C	1.038126	-0.299188	0.336844
C145	C	0.538129	-0.852602	-0.163156
C146	C	1.038129	-0.352602	0.336844
C147	C	0.603886	-0.852586	-0.049280
C148	C	1.103886	-0.352586	0.450720
C149	C	0.603884	-0.799171	-0.049285
C150	C	1.103884	-0.299171	0.450715
C151	C	0.571001	-0.772473	-0.106221
C152	C	1.071001	-0.272473	0.393779
C153	C	0.603852	-0.200939	-0.049332
C154	C	1.103852	0.299061	0.450668
C155	C	0.603849	-0.147523	-0.049346
C156	C	1.103849	0.352477	0.450654
C157	C	0.538091	-0.147543	-0.163218
C158	C	1.038091	0.352457	0.336782
C159	C	0.538095	-0.200955	-0.163208
C160	C	1.038095	0.299045	0.336792
C161	C	0.570977	-0.227651	-0.106258
C162	C	1.070977	0.272349	0.393742
O163	O	0.510166	-0.285463	-0.211598
O164	O	1.010166	0.214537	0.288402
O165	O	0.631811	-0.285473	-0.000887
O166	O	1.131811	0.214527	0.499113
C167	C	0.603864	-0.526755	-0.049294
C168	C	1.103864	-0.026755	0.450706
C169	C	0.570986	-0.553468	-0.106223
C170	C	1.070986	-0.053468	0.393777
C171	C	0.538108	-0.526769	-0.163159
C172	C	1.038108	-0.026769	0.336841
C173	C	0.570990	-0.606882	-0.106223
C174	C	1.070990	-0.106882	0.393777
C175	C	0.603869	-0.633581	-0.049287
C176	C	1.103869	-0.133581	0.450713
C177	C	0.636744	-0.606866	0.007649
C178	C	1.136744	-0.106866	0.507649
C179	C	0.636743	-0.553455	0.007643
C180	C	1.136743	-0.053455	0.507643
C181	C	0.505233	-0.553483	-0.220095
C182	C	1.005233	-0.053483	0.279905
C183	C	0.505237	-0.606895	-0.220084
C184	C	1.005237	-0.106895	0.279916
C185	C	0.538116	-0.633594	-0.163148
C186	C	1.038116	-0.133594	0.336852
C187	C	0.659363	-0.000072	-0.099019
C188	C	1.159363	0.499928	0.400981
C189	C	0.713023	-0.000075	-0.099952
C190	C	1.213023	0.499925	0.400048
C191	C	0.574540	-0.000068	0.045797
C192	C	1.074540	0.499932	0.545797
C193	C	0.573601	-0.000069	0.138080
C194	C	1.073601	0.499931	0.638080
N195	N	0.571008	0.120699	-0.106219
N196	N	1.071008	0.620699	0.393781
C197	C	0.567434	-0.000056	-0.258305
C198	C	1.067434	0.499944	0.241695
C199	C	0.568373	-0.000052	-0.350589
C200	C	1.068373	0.499948	0.149411
C201	C	0.615466	-0.000066	0.360885
C202	C	1.115466	0.499934	0.860885
C203	C	0.614580	-0.000062	0.447594
C204	C	1.114580	0.499938	0.947594
C205	C	0.526505	-0.000053	0.426600
C206	C	1.026505	0.499947	0.926600
C207	C	0.527392	-0.000054	0.339892
C208	C	1.027392	0.499946	0.839892
C209	C	0.571874	-0.000063	0.307038
C210	C	1.071874	0.499937	0.807038
C211	C	0.570101	-0.000058	0.480454
C212	C	1.070101	0.499942	0.980454
C213	C	0.569140	-0.000053	0.574468
C214	C	1.069140	0.499947	1.074468
C215	C	0.572835	-0.000066	0.213018
C216	C	1.072835	0.499934	0.713018
H217	H	0.332806	-0.083983	-0.110880
H218	H	0.832806	0.416017	0.389120
F219	F	0.638878	-0.881011	0.011316
F220	F	1.138878	-0.381011	0.511316
F221	F	-0.184527	0.095424	-0.101721
F222	F	0.315473	0.595424	0.398279
H223	H	-0.050373	-0.130247	-0.104130
H224	H	0.449627	0.369753	0.395870
F225	F	0.430565	-0.095540	-0.112616
F226	F	0.930565	0.404460	0.387384
H227	H	0.041094	-0.130250	-0.105743
H228	H	0.541094	0.369750	0.394257
F229	F	0.638849	-0.229344	0.011281
F230	F	1.138849	0.270656	0.511281
F231	F	0.503139	-0.881026	-0.223762
F232	F	1.003139	-0.381026	0.276238
F233	F	0.479167	-0.000043	0.461574
F234	F	0.979167	0.499957	0.961574
F235	F	0.047403	0.141681	-0.105782
F236	F	0.547403	0.641681	0.394218
H237	H	0.511347	-0.777454	-0.209522
H238	H	1.011347	-0.277454	0.290478
H239	H	0.491891	-0.000049	0.296047
H240	H	0.991891	0.499951	0.796047
H241	H	0.630626	-0.125775	-0.002984
H242	H	1.130626	0.374225	0.497016
F243	F	0.094602	0.141691	-0.106597
F244	F	0.594602	0.641691	0.393403
F245	F	0.671733	-0.364796	0.068223
F246	F	1.171733	0.135204	0.568223
F247	F	0.198664	0.141691	-0.108421
F248	F	0.698664	0.641691	0.391579
H249	H	0.192339	-0.130244	-0.108411
H250	H	0.692339	0.369756	0.391589
H251	H	0.100886	-0.130247	-0.106797
H252	H	0.600886	0.369753	0.393203
H253	H	0.332799	0.083876	-0.110849
H254	H	0.832799	0.583876	0.389151
H255	H	0.650078	-0.000063	0.491434
H256	H	1.150078	0.499937	0.991434
H257	H	-0.190831	-0.084001	-0.101669
H258	H	0.309169	0.415999	0.398331
H259	H	0.424273	0.083876	-0.112455
H260	H	0.924273	0.583876	0.387545
H261	H	-0.282302	-0.084000	-0.100054
H262	H	0.217698	0.416000	0.399946
H263	H	-0.050353	0.130112	-0.104066
H264	H	0.449647	0.630112	0.395934
H265	H	-0.282287	0.083851	-0.100023
H266	H	0.217713	0.583851	0.399977
H267	H	0.663514	-0.468366	0.053998
H268	H	1.163514	0.031634	0.553998
H269	H	0.630658	-0.777425	-0.002925
H270	H	1.130658	-0.277425	0.497075
H271	H	0.478458	-0.531749	-0.266458
H272	H	0.978458	-0.031749	0.233542
F273	F	0.470223	-0.475075	-0.280700
F274	F	0.970223	0.024925	0.219300
H275	H	0.511325	-0.222704	-0.209576
H276	H	1.011325	0.277296	0.290424
F277	F	0.470217	-0.364827	-0.280699
F278	F	0.970217	0.135173	0.219301
F279	F	0.662808	-0.000075	0.325921
F280	F	1.162808	0.499925	0.825921
F281	F	0.503101	-0.119120	-0.223813
F282	F	1.003101	0.380880	0.276187
F283	F	0.671738	-0.635291	0.068242
F284	F	1.171738	-0.135291	0.568242
F285	F	0.671739	-0.525032	0.068240
F286	F	1.171739	-0.025032	0.568240
F287	F	0.470241	-0.635319	-0.280689
F288	F	0.970241	-0.135319	0.219311
