data_functionalizedCrystal
_audit_creation_method	'MofGen! by Chris Wilmer'
_symmetry_space_group_name_H-M	'P1'
_symmetry_Int_Tables_number	1
_symmetry_cell_setting	triclinic
loop_
_symmetry_equiv_pos_as_xyz
  x,y,z
_cell_length_a	14.044220
_cell_length_b	10.540539
_cell_length_c	12.503572
_cell_angle_alpha	93.560877
_cell_angle_beta	86.164750
_cell_angle_gamma	88.857185
loop_
_atom_site_label
_atom_site_type_symbol
_atom_site_fract_x
_atom_site_fract_y
_atom_site_fract_z
O1	O	1.265193	0.299541	-0.089197
O2	O	0.989150	0.288487	-0.089224
O3	O	1.133469	0.109945	-0.089208
O4	O	1.120874	0.478084	-0.089212
O5	O	1.122616	0.123396	0.089432
O6	O	0.978297	0.301939	0.089417
O7	O	1.254339	0.312993	0.089444
Cu8	Cu	1.115327	0.308694	0.105742
Cu9	Cu	1.128163	0.292786	-0.105522
O10	O	1.110020	0.491536	0.089428
C11	C	0.948377	0.290375	0.000093
C12	C	0.843054	0.275945	0.000082
C13	C	0.650213	0.249566	0.000104
C14	C	0.593272	0.351908	0.000107
C15	C	0.485969	0.337231	0.000119
C16	C	0.757526	0.264241	0.000092
C17	C	1.127098	0.069272	0.000110
C18	C	1.124272	-0.071962	0.000104
C19	C	1.016008	-0.266368	-0.000308
C20	C	1.018848	-0.119430	0.000095
C21	C	1.168809	-0.120809	0.102122
C22	C	1.165206	-0.267711	0.102207
C23	C	1.179693	-0.283309	-0.100941
C24	C	1.180746	-0.136331	-0.102289
C25	C	1.295113	0.311105	0.000125
C26	C	1.400436	0.325535	0.000129
C27	C	1.116392	0.532208	0.000108
C28	C	1.119218	0.673442	0.000107
N29	N	1.106306	0.319883	0.254333
N30	N	1.137191	0.281588	-0.254113
C31	C	1.093036	0.336354	0.473447
C32	C	1.150458	0.265121	0.526780
C33	C	1.143074	0.274286	0.648703
C34	C	1.100419	0.327191	0.351513
H35	H	0.983371	-0.086369	-0.073036
H36	H	0.974198	-0.076223	0.073339
O37	O	1.020584	0.426263	0.534241
H38	H	1.026093	0.419453	0.621850
H39	H	0.625111	0.450550	0.000101
O40	O	0.955209	-0.304651	0.096052
H41	H	0.998180	-0.366359	0.144239
O42	O	0.608043	0.118910	0.000103
H43	H	0.627600	0.072064	0.072914
H44	H	0.978808	-0.304687	-0.073467
O45	O	1.265260	-0.320635	0.108379
H46	H	1.268705	-0.373936	0.181895
O47	O	1.222923	0.175220	0.465982
H48	H	1.272521	0.230054	0.414750
H49	H	1.150270	-0.324134	-0.178263
H50	H	1.245999	-0.090342	0.105922
H51	H	1.123078	-0.293959	0.178460
H52	H	1.148208	-0.104908	-0.177759
H53	H	1.257982	-0.104802	-0.108442
O54	O	1.116025	-0.061530	0.202680
H55	H	1.039841	-0.087783	0.203683
O56	O	1.280613	-0.335740	-0.101857
H57	H	1.287714	-0.392333	-0.030736
