data_functionalizedCrystal
_audit_creation_method	'MofGen! by Chris Wilmer'
_symmetry_space_group_name_H-M	'P1'
_symmetry_Int_Tables_number	1
_symmetry_cell_setting	triclinic
loop_
_symmetry_equiv_pos_as_xyz
  x,y,z
_cell_length_a	19.188933
_cell_length_b	19.188930
_cell_length_c	8.965430
_cell_angle_alpha	89.995304
_cell_angle_beta	89.997623
_cell_angle_gamma	83.145175
loop_
_atom_site_label
_atom_site_type_symbol
_atom_site_fract_x
_atom_site_fract_y
_atom_site_fract_z
O1	O	0.926144	0.087169	-0.124006
O2	O	1.426144	0.587169	0.375994
O3	O	0.722833	0.098902	-0.124022
O4	O	1.222833	0.598902	0.375978
O5	O	0.830355	-0.008620	-0.123985
O6	O	1.330355	0.491380	0.376015
O7	O	0.818621	0.194691	-0.124044
O8	O	1.318621	0.694691	0.375956
O9	O	0.830346	-0.008613	0.124094
O10	O	1.330346	0.491387	0.624094
O11	O	0.722824	0.098909	0.124056
O12	O	1.222824	0.598909	0.624056
O13	O	0.926135	0.087176	0.124073
O14	O	1.426135	0.587176	0.624073
Cu15	Cu	0.824478	0.093043	0.146716
Cu16	Cu	1.324478	0.593043	0.646716
Cu17	Cu	0.824489	0.093035	-0.146666
Cu18	Cu	1.324489	0.593035	0.353334
O19	O	0.818612	0.194698	0.124035
O20	O	1.318612	0.694698	0.624035
C21	C	0.696817	0.098525	0.000015
C22	C	1.196817	0.598525	0.500015
C23	C	0.619313	0.097384	0.000010
C24	C	1.119313	0.597384	0.500010
C25	C	0.066062	0.089235	-0.135199
C26	C	0.566062	0.589235	0.364801
C27	C	0.138887	0.090303	-0.135205
C28	C	0.638887	0.590303	0.364795
C29	C	0.175299	0.090844	0.000022
C30	C	0.675299	0.590844	0.500022
C31	C	0.138883	0.090299	0.135266
C32	C	0.638883	0.590299	0.635266
C33	C	0.066061	0.089224	0.135268
C34	C	0.566061	0.589224	0.635268
N35	N	0.284315	0.132265	0.100666
N36	N	0.784315	0.632265	0.600666
N37	N	0.353493	0.133288	0.100655
N38	N	0.853493	0.633288	0.600655
C39	C	0.394707	0.094082	0.000024
C40	C	0.894707	0.594082	0.500024
N41	N	0.364130	0.053823	-0.100618
N42	N	0.864130	0.553823	0.399382
N43	N	0.294945	0.052803	-0.100611
N44	N	0.794945	0.552803	0.399389
C45	C	0.254262	0.092009	0.000035
C46	C	0.754262	0.592009	0.500035
C47	C	0.510079	0.095780	-0.135218
C48	C	1.010079	0.595780	0.364782
C49	C	0.582906	0.096844	-0.135218
C50	C	1.082906	0.596844	0.364782
C51	C	0.582899	0.096847	0.135256
C52	C	1.082899	0.596847	0.635256
C53	C	0.510076	0.095776	0.135253
C54	C	1.010076	0.595776	0.635253
C55	C	0.473669	0.095246	0.000012
C56	C	0.973669	0.595246	0.500012
C57	C	0.829971	-0.034628	0.000059
C58	C	1.329971	0.465372	0.500059
C59	C	0.828830	-0.112132	0.000072
C60	C	1.328830	0.387868	0.500072
C61	C	0.891921	-0.157056	0.000084
C62	C	1.391921	0.342944	0.500084
C63	C	0.890849	-0.229880	0.000060
C64	C	1.390849	0.270120	0.500060
C65	C	0.826683	-0.257777	0.000054
C66	C	1.326683	0.242223	0.500054
C67	C	0.763584	-0.212843	0.000033
C68	C	1.263584	0.287157	0.500033
C69	C	0.764658	-0.140021	0.000042
C70	C	1.264658	0.359979	0.500042
N71	N	0.777633	-0.365780	0.084476
N72	N	1.277633	0.134220	0.584476
N73	N	0.776617	-0.434958	0.084470
N74	N	1.276617	0.065042	0.584470
C75	C	0.823445	-0.477185	0.000023
C76	C	1.323445	0.022815	0.500023
N77	N	0.871337	-0.447622	-0.084400
N78	N	1.371337	0.052378	0.415600
N79	N	0.872355	-0.378437	-0.084388
N80	N	1.372355	0.121563	0.415612
C81	C	0.825512	-0.336739	0.000043
C82	C	1.325512	0.163261	0.500043
C83	C	0.885378	-0.601073	0.000007
C84	C	1.385378	-0.101073	0.500007
C85	C	0.884304	-0.673898	-0.000026
C86	C	1.384304	-0.173898	0.499974
C87	C	0.757037	-0.656860	-0.000038
C88	C	1.257037	-0.156860	0.499962
C89	C	0.758113	-0.584037	-0.000019
C90	C	1.258113	-0.084037	0.499981
C91	C	0.822286	-0.556148	0.000010
C92	C	1.322286	-0.056148	0.500010
C93	C	0.952150	0.087553	0.000031
C94	C	1.452150	0.587553	0.500031
C95	C	1.029655	0.088694	0.000027
C96	C	1.529655	0.588694	0.500027
C97	C	0.818997	0.220705	-0.000012
C98	C	1.318997	0.720705	0.499988
C99	C	0.820137	0.298210	-0.000035
C100	C	1.320137	0.798210	0.499965
N101	N	0.824476	0.093049	0.353065
N102	N	1.324476	0.593049	0.853065
N103	N	0.824497	0.093024	-0.353015
N104	N	1.324497	0.593024	0.146985
C105	C	0.774735	0.142758	0.450354
C106	C	1.274735	0.642758	0.950354
C107	C	0.837787	0.156114	0.549768
C108	C	1.337787	0.656114	1.049768
C109	C	0.761451	0.079698	0.549779
C110	C	1.261451	0.579698	1.049779
C111	C	0.887559	0.106436	0.450290
C112	C	1.387559	0.606436	0.950290
C113	C	0.811182	0.029993	0.450292
C114	C	1.311182	0.529993	0.950292
C115	C	0.874279	0.043322	0.549662
C116	C	1.374279	0.543322	1.049662
H117	H	0.036425	0.088800	-0.245323
H118	H	0.536425	0.588800	0.254677
O119	O	0.694374	-0.242925	0.000043
O120	O	1.194374	0.257075	0.500043
H121	H	0.704226	-0.301111	0.000060
H122	H	1.204226	0.198889	0.500060
O123	O	0.622175	0.097421	-0.281082
O124	O	1.122175	0.597421	0.218918
H125	H	0.678931	0.098247	-0.258368
H126	H	1.178931	0.598247	0.241632
H127	H	0.799903	-0.023303	0.406564
H128	H	1.299903	0.476697	0.906564
H129	H	0.480432	0.095338	0.245368
H130	H	0.980432	0.595338	0.745368
H131	H	0.036418	0.088786	0.245388
H132	H	0.536418	0.588786	0.745388
H133	H	0.732709	0.184833	0.406750
H134	H	1.232709	0.684833	0.906750
O135	O	0.696608	-0.091560	0.000055
O136	O	1.196608	0.408440	0.500055
H137	H	0.651807	-0.123190	0.000057
H138	H	1.151807	0.376810	0.500057
H139	H	0.708143	0.068418	0.593483
H140	H	1.208143	0.568418	1.093483
O141	O	0.961132	-0.126972	0.000103
O142	O	1.461132	0.373028	0.500103
H143	H	0.964664	-0.094193	-0.101002
H144	H	1.464664	0.405807	0.398998
H145	H	0.940879	0.117780	0.406773
H146	H	1.440879	0.617780	0.906773
H147	H	0.942227	-0.266463	0.000064
H148	H	1.442227	0.233537	0.500064
O149	O	0.954588	-0.570984	0.000009
O150	O	1.454588	-0.070984	0.500009
H151	H	0.998281	-0.614460	-0.000015
H152	H	1.498281	-0.114460	0.499985
H153	H	0.706738	-0.547459	-0.000021
H154	H	1.206738	-0.047459	0.499979
O155	O	0.930068	-0.012378	0.607069
O156	O	1.430068	0.487622	1.107069
H157	H	0.905105	-0.050852	0.675204
H158	H	1.405105	0.449148	1.175204
H159	H	0.480436	0.095346	-0.245339
H160	H	0.980436	0.595346	0.254661
H161	H	0.935682	-0.710475	-0.000024
H162	H	1.435682	-0.210475	0.499976
H163	H	0.168535	0.090747	-0.245325
H164	H	0.668535	0.590747	0.254675
H165	H	0.168534	0.090739	0.245368
H166	H	0.668534	0.590739	0.745368
H167	H	0.612546	0.097285	0.245361
H168	H	1.112546	0.597285	0.745361
H169	H	0.849046	0.209427	0.593461
H170	H	1.349046	0.709427	1.093461
H171	H	0.704792	-0.679573	-0.000050
H172	H	1.204792	-0.179573	0.499950
