data_functionalizedCrystal
_audit_creation_method	'MofGen! by Chris Wilmer'
_symmetry_space_group_name_H-M	'P1'
_symmetry_Int_Tables_number	1
_symmetry_cell_setting	triclinic
loop_
_symmetry_equiv_pos_as_xyz
  x,y,z
_cell_length_a	16.109301
_cell_length_b	16.109301
_cell_length_c	8.140239
_cell_angle_alpha	89.995060
_cell_angle_beta	89.999998
_cell_angle_gamma	83.461481
loop_
_atom_site_label
_atom_site_type_symbol
_atom_site_fract_x
_atom_site_fract_y
_atom_site_fract_z
O1	O	1.103130	0.106866	-0.136515
O2	O	1.603130	0.606866	0.363485
O3	O	0.861068	0.120165	-0.136542
O4	O	1.361068	0.620165	0.363458
O5	O	0.988749	-0.007515	-0.136511
O6	O	1.488749	0.492485	0.363489
O7	O	0.975449	0.234547	-0.136546
O8	O	1.475449	0.734547	0.363454
O9	O	0.988742	-0.007517	0.136716
O10	O	1.488742	0.492483	0.636716
O11	O	0.861061	0.120164	0.136686
O12	O	1.361061	0.620164	0.636686
O13	O	1.103123	0.106864	0.136712
O14	O	1.603123	0.606864	0.636712
Zn15	Zn	0.982091	0.113514	0.180080
Zn16	Zn	1.482091	0.613514	0.680080
Zn17	Zn	0.982100	0.113516	-0.179909
Zn18	Zn	1.482100	0.613516	0.320091
O19	O	0.975442	0.234545	0.136681
O20	O	1.475442	0.734545	0.636681
C21	C	0.830090	0.119626	0.000069
C22	C	1.330090	0.619626	0.500069
C23	C	0.737794	0.118011	0.000059
C24	C	1.237794	0.618011	0.500059
C25	C	0.515522	0.190018	0.000068
C26	C	1.015522	0.690018	0.500068
C27	C	0.428801	0.188494	0.000078
C28	C	0.928801	0.688494	0.500078
C29	C	0.448676	0.037006	0.000094
C30	C	0.948676	0.537006	0.500094
C31	C	0.535394	0.038530	0.000094
C32	C	1.035394	0.538530	0.500094
C33	C	0.568815	0.115039	0.000073
C34	C	1.068815	0.615039	0.500073
C35	C	0.395376	0.111990	0.000083
C36	C	0.895376	0.611990	0.500083
C37	C	0.301350	0.110337	0.000095
C38	C	0.801350	0.610337	0.500095
C39	C	0.662847	0.116693	0.000065
C40	C	1.162847	0.616693	0.500065
C41	C	0.988206	-0.038491	0.000104
C42	C	1.488206	0.461509	0.500104
C43	C	0.986591	-0.130786	0.000106
C44	C	1.486591	0.369214	0.500106
C45	C	1.058599	-0.353059	0.000088
C46	C	1.558599	0.146941	0.500088
C47	C	1.057075	-0.439779	0.000074
C48	C	1.557075	0.060221	0.500074
C49	C	0.905586	-0.419905	0.000064
C50	C	1.405586	0.080095	0.500064
C51	C	0.907111	-0.333186	0.000066
C52	C	1.407111	0.166814	0.500066
C53	C	0.983620	-0.299766	0.000086
C54	C	1.483620	0.200234	0.500086
C55	C	0.980571	-0.473205	0.000070
C56	C	1.480571	0.026795	0.500070
C57	C	0.978918	-0.567231	0.000056
C58	C	1.478918	-0.067231	0.500056
C59	C	0.985273	-0.205734	0.000098
C60	C	1.485273	0.294266	0.500098
C61	C	1.134101	0.107404	0.000098
C62	C	1.634101	0.607404	0.500098
C63	C	1.226397	0.109019	0.000097
C64	C	1.726397	0.609019	0.500097
C65	C	0.975984	0.265521	0.000064
C66	C	1.475984	0.765521	0.500064
C67	C	0.977600	0.357816	0.000051
C68	C	1.477600	0.857816	0.500051
N69	N	0.982090	0.113512	0.425762
N70	N	1.482090	0.613512	0.925762
N71	N	0.982107	0.113511	-0.425591
N72	N	1.482107	0.613511	0.074409
H73	H	0.385413	0.249550	0.000077
H74	H	0.885413	0.749550	0.500077
Cl75	Cl	1.154781	-0.311047	0.000109
Cl76	Cl	1.654781	0.188953	0.500109
Cl77	Cl	0.557533	0.286200	0.000051
Cl78	Cl	1.057533	0.786200	0.500051
Cl79	Cl	0.406655	-0.059172	0.000109
Cl80	Cl	0.906655	0.440828	0.500109
Cl81	Cl	0.812844	-0.266184	0.000049
Cl82	Cl	1.312844	0.233816	0.500049
Cl83	Cl	0.602397	-0.055737	0.000115
Cl84	Cl	1.102397	0.444263	0.500115
Cl85	Cl	0.809409	-0.461926	0.000039
Cl86	Cl	1.309409	0.038074	0.500039
Cl87	Cl	1.151339	-0.506773	0.000073
Cl88	Cl	1.651339	-0.006773	0.500073
