data_functionalizedCrystal
_audit_creation_method	'MofGen! by Chris Wilmer'
_symmetry_space_group_name_H-M	'P1'
_symmetry_Int_Tables_number	1
_symmetry_cell_setting	triclinic
loop_
_symmetry_equiv_pos_as_xyz
  x,y,z
_cell_length_a	25.639242
_cell_length_b	25.639239
_cell_length_c	25.639234
_cell_angle_alpha	89.975416
_cell_angle_beta	89.973588
_cell_angle_gamma	90.033587
loop_
_atom_site_label
_atom_site_type_symbol
_atom_site_fract_x
_atom_site_fract_y
_atom_site_fract_z
Zn1	Zn	0.799250	-0.208255	-0.295734
Zn2	Zn	1.299250	0.291745	0.204266
Zn3	Zn	0.799166	-0.295683	-0.208298
Zn4	Zn	1.299166	0.204317	0.291702
Zn5	Zn	0.711819	-0.208256	-0.208299
Zn6	Zn	1.211819	0.291744	0.291701
Zn7	Zn	0.711771	-0.295654	-0.295689
Zn8	Zn	1.211771	0.204346	0.204311
O9	O	0.755502	-0.251962	-0.252005
O10	O	1.255502	0.248038	0.247995
O11	O	0.872404	-0.219865	-0.284154
O12	O	1.372404	0.280135	0.215846
O13	O	0.787564	-0.284098	-0.135133
O14	O	1.287564	0.215902	0.364867
O15	O	0.723472	-0.135090	-0.219917
O16	O	1.223472	0.364910	0.280083
O17	O	0.872342	-0.284098	-0.219915
O18	O	1.372342	0.215902	0.280085
O19	O	0.787707	-0.135090	-0.284155
O20	O	1.287707	0.364910	0.215845
O21	O	0.723390	-0.219865	-0.135134
O22	O	1.223390	0.280135	0.364866
O23	O	0.638647	-0.219837	-0.219873
O24	O	1.138647	0.280163	0.280127
O25	O	0.723391	-0.284048	-0.368860
O26	O	1.223391	0.215952	0.131140
O27	O	0.638613	-0.284048	-0.284078
O28	O	1.138613	0.215952	0.215922
O29	O	0.787661	-0.219837	-0.368893
O30	O	1.287661	0.280163	0.131107
O31	O	0.787518	-0.368844	-0.219872
O32	O	1.287518	0.131156	0.280128
O33	O	0.723309	-0.368823	-0.284078
O34	O	1.223309	0.131177	0.215922
C35	C	0.619659	-0.251940	-0.251971
C36	C	1.119659	0.248060	0.248029
C37	C	0.561545	-0.251943	-0.251969
C38	C	1.061545	0.248057	0.248031
C39	C	0.310361	-0.218471	-0.218631
C40	C	0.810361	0.281529	0.281369
C41	C	0.364965	-0.218467	-0.218625
C42	C	0.864965	0.281533	0.281375
O43	O	0.393210	-0.189977	-0.190250
O44	O	0.893210	0.310023	0.309750
N45	N	0.392271	-0.251950	-0.251995
N46	N	0.892271	0.248050	0.248005
C47	C	0.364970	-0.285436	-0.285378
C48	C	0.864970	0.214564	0.214622
O49	O	0.393210	-0.313915	-0.313762
O50	O	0.893210	0.186085	0.186238
C51	C	0.310367	-0.285437	-0.285387
C52	C	0.810367	0.214563	0.214613
C53	C	0.283063	-0.251956	-0.252011
C54	C	0.783063	0.248044	0.247989
C55	C	0.283058	-0.184992	-0.185258
C56	C	0.783058	0.315008	0.314742
C57	C	0.228457	-0.184998	-0.185264
C58	C	0.728457	0.315002	0.314736
C59	C	0.201160	-0.218483	-0.218644
C60	C	0.701160	0.281517	0.281356
C61	C	0.228463	-0.251962	-0.252017
C62	C	0.728463	0.248038	0.247983
C63	C	0.283066	-0.318921	-0.318773
C64	C	0.783066	0.181079	0.181227
C65	C	0.228459	-0.318919	-0.318779
C66	C	0.728459	0.181081	0.181221
C67	C	0.201156	-0.285438	-0.285403
C68	C	0.701156	0.214562	0.214597
C69	C	0.146565	-0.285452	-0.285402
C70	C	0.646565	0.214548	0.214598
N71	N	0.119259	-0.251969	-0.252032
N72	N	0.619259	0.248031	0.247968
C73	C	0.146557	-0.218485	-0.218652
C74	C	0.646557	0.281515	0.281348
C75	C	0.479640	-0.285429	-0.285358
C76	C	0.979640	0.214571	0.214642
C77	C	0.534243	-0.285430	-0.285347
C78	C	1.034243	0.214570	0.214653
C79	C	0.534234	-0.218460	-0.218594
C80	C	1.034234	0.281540	0.281406
C81	C	0.479631	-0.218462	-0.218602
C82	C	0.979631	0.281538	0.281398
C83	C	0.452335	-0.251946	-0.251987
C84	C	0.952335	0.248054	0.248013
C85	C	0.031891	-0.218499	-0.218667
C86	C	0.531891	0.281501	0.281333
C87	C	-0.022714	-0.218509	-0.218675
C88	C	0.477286	0.281491	0.281325
C89	C	-0.022701	-0.285477	-0.285430
C90	C	0.477299	0.214523	0.214570
C91	C	0.031900	-0.285469	-0.285421
C92	C	0.531900	0.214531	0.214579
C93	C	0.059195	-0.251976	-0.252038
C94	C	0.559195	0.248024	0.247962
O95	O	0.118286	-0.313926	-0.313764
O96	O	0.618286	0.186074	0.186236
O97	O	0.118310	-0.190006	-0.190278
O98	O	0.618310	0.309994	0.309722
C99	C	0.755414	-0.387805	-0.251981
C100	C	1.255414	0.112195	0.248019
C101	C	0.755424	-0.445919	-0.251989
C102	C	1.255424	0.054081	0.248011
C103	C	0.789022	-0.806280	-0.218630
C104	C	1.289022	-0.306280	0.281370
C105	C	0.789042	-0.860885	-0.218637
C106	C	1.289042	-0.360885	0.281363
O107	O	0.817518	-0.889120	-0.190249
O108	O	1.317518	-0.389120	0.309751
N109	N	0.755593	-0.888201	-0.252040
N110	N	1.255593	-0.388201	0.247960
C111	C	0.722126	-0.860910	-0.285441
C112	C	1.222126	-0.360910	0.214559
O113	O	0.693677	-0.889159	-0.313854
O114	O	1.193677	-0.389159	0.186146
C115	C	0.722109	-0.806307	-0.285437
C116	C	1.222109	-0.306307	0.214563
C117	C	0.755556	-0.778993	-0.252028
C118	C	1.255556	-0.278993	0.247972
C119	C	0.822467	-0.778967	-0.185225
C120	C	1.322467	-0.278967	0.314775
C121	C	0.822446	-0.724366	-0.185217
C122	C	1.322446	-0.224366	0.314783
C123	C	0.788980	-0.697079	-0.218615
C124	C	1.288980	-0.197079	0.281385
C125	C	0.755535	-0.724393	-0.252021
C126	C	1.255535	-0.224393	0.247979
C127	C	0.688644	-0.779017	-0.318840
C128	C	1.188644	-0.279017	0.181160
C129	C	0.688630	-0.724410	-0.318833
C130	C	1.188630	-0.224410	0.181167
C131	C	0.722077	-0.697097	-0.285425
C132	C	1.222077	-0.197097	0.214575
C133	C	0.722048	-0.642505	-0.285411
C134	C	1.222048	-0.142505	0.214589
N135	N	0.755497	-0.615189	-0.252008
N136	N	1.255497	-0.115189	0.247992
C137	C	0.788963	-0.642476	-0.218610
C138	C	1.288963	-0.142476	0.281390
C139	C	0.722165	-0.975581	-0.285449
C140	C	1.222165	-0.475581	0.214551
C141	C	0.722179	-1.030183	-0.285452
C142	C	1.222179	-0.530183	0.214548
C143	C	0.789097	-1.030154	-0.218648
C144	C	1.289097	-0.530154	0.281352
C145	C	0.789080	-0.975550	-0.218644
C146	C	1.289080	-0.475550	0.281356
C147	C	0.755614	-0.948264	-0.252047
C148	C	1.255614	-0.448264	0.247953
C149	C	0.788916	-0.527811	-0.218597
C150	C	1.288916	-0.027811	0.281403
C151	C	0.788890	-0.473205	-0.218591
C152	C	1.288890	0.026795	0.281409
C153	C	0.721975	-0.473240	-0.285396
C154	C	1.221975	0.026760	0.214604
C155	C	0.721998	-0.527840	-0.285400
C156	C	1.221998	-0.027840	0.214600
C157	C	0.755473	-0.555125	-0.251999
C158	C	1.255473	-0.055125	0.248001
O159	O	0.693588	-0.614235	-0.313786
O160	O	1.193588	-0.114235	0.186214
O161	O	0.817412	-0.614220	-0.190208
O162	O	1.317412	-0.114220	0.309792
C163	C	0.891875	-0.251985	-0.252040
C164	C	1.391875	0.248015	0.247960
C165	C	0.949989	-0.251994	-0.252054
C166	C	1.449989	0.248006	0.247946
C167	C	0.755530	-0.251939	-0.388378
C168	C	1.255530	0.248061	0.111622
C169	C	0.755542	-0.251929	-0.446492
C170	C	1.255542	0.248071	0.053508
C171	C	0.755604	-0.115589	-0.252041
C172	C	1.255604	0.384411	0.247959
C173	C	0.755648	-0.057475	-0.252056
C174	C	1.255648	0.442525	0.247944
C175	C	0.788971	-0.285332	-0.697678
C176	C	1.288971	0.214668	-0.197678
C177	C	0.788965	-0.285343	-0.643074
C178	C	1.288965	0.214657	-0.143074
O179	O	0.817364	-0.313801	-0.614830
O180	O	1.317364	0.186199	-0.114830
N181	N	0.755553	-0.251904	-0.615766
N182	N	1.255553	0.248096	-0.115766
C183	C	0.722141	-0.218455	-0.643066
C184	C	1.222141	0.281545	-0.143066
O185	O	0.693720	-0.190014	-0.614825
O186	O	1.193720	0.309986	-0.114825
C187	C	0.722144	-0.218447	-0.697669
C188	C	1.222144	0.281553	-0.197669
C189	C	0.755562	-0.251885	-0.724974
C190	C	1.255562	0.248115	-0.224974
C191	C	0.822386	-0.318767	-0.724983
C192	C	1.322386	0.181233	-0.224983
C193	C	0.822392	-0.318756	-0.779583
C194	C	1.322392	0.181244	-0.279583
C195	C	0.788983	-0.285309	-0.806879
C196	C	1.288983	0.214691	-0.306879
C197	C	0.755568	-0.251873	-0.779575
C198	C	1.255568	0.248127	-0.279575
C199	C	0.688729	-0.185002	-0.724968
C200	C	1.188729	0.314998	-0.224968
C201	C	0.688735	-0.184997	-0.779575
C202	C	1.188735	0.315003	-0.279575
C203	C	0.722153	-0.218435	-0.806880
C204	C	1.222153	0.281565	-0.306880
C205	C	0.722165	-0.218414	-0.861471
C206	C	1.222165	0.281586	-0.361471
N207	N	0.755578	-0.251854	-0.888778
N208	N	1.255578	0.248146	-0.388778
C209	C	0.788986	-0.285301	-0.861483
C210	C	1.288986	0.214699	-0.361483
C211	C	0.722136	-0.218475	-0.528395
C212	C	1.222136	0.281525	-0.028395
C213	C	0.722135	-0.218480	-0.473793
C214	C	1.222135	0.281520	0.026207
C215	C	0.788959	-0.285368	-0.473804
C216	C	1.288959	0.214632	0.026196
C217	C	0.788962	-0.285361	-0.528408
C218	C	1.288962	0.214639	-0.028408
C219	C	0.755548	-0.251914	-0.555703
C220	C	1.255548	0.248086	-0.055703
C221	C	0.788997	-0.285273	-0.976148
C222	C	1.288997	0.214727	-0.476148
C223	C	0.789002	-0.285257	-1.030753
C224	C	1.289002	0.214743	-0.530753
C225	C	0.722176	-0.218370	-1.030737
C226	C	1.222176	0.281630	-0.530737
C227	C	0.722173	-0.218385	-0.976136
C228	C	1.222173	0.281615	-0.476136
C229	C	0.755585	-0.251840	-0.948843
C230	C	1.255585	0.248160	-0.448843
O231	O	0.693780	-0.189972	-0.889749
O232	O	1.193780	0.310028	-0.389749
O233	O	0.817397	-0.313742	-0.889730
O234	O	1.317397	0.186258	-0.389730
C235	C	0.755503	-0.251947	-0.116163
C236	C	1.255503	0.248053	0.383837
C237	C	0.755593	-0.251810	-0.058049
C238	C	1.255593	0.248190	0.441951
H239	H	0.054108	-0.191224	-0.191486
H240	H	0.554108	0.308776	0.308514
H241	H	-0.044942	-0.191244	-0.191494
H242	H	0.455058	0.308756	0.308506
C243	C	0.859144	-0.355546	-0.809612
C244	C	1.359144	0.144454	-0.309612
H245	H	0.879032	-0.375469	-0.785528
H246	H	1.379032	0.124531	-0.285528
H247	H	0.881946	-0.335555	-0.830929
H248	H	1.381946	0.164445	-0.330929
H249	H	0.839121	-0.378322	-0.830894
H250	H	1.339121	0.121678	-0.330894
C251	C	0.825761	-0.322039	-1.060788
C252	C	1.325761	0.177961	-0.560788
H253	H	0.820986	-0.317241	-1.097217
H254	H	1.320986	0.182759	-0.597217
H255	H	0.818083	-0.357169	-1.051828
H256	H	1.318083	0.142831	-0.551828
H257	H	0.860897	-0.314391	-1.051851
H258	H	1.360897	0.185609	-0.551851
H259	H	0.694909	-0.953367	-0.312649
H260	H	1.194909	-0.453367	0.187351
C261	C	0.825908	-1.060176	-0.181910
C262	C	1.325908	-0.560176	0.318090
H263	H	0.821128	-1.096607	-0.186702
H264	H	1.321128	-0.596607	0.313298
H265	H	0.818274	-1.051255	-0.146771
H266	H	1.318274	-0.551255	0.353229
H267	H	0.861033	-1.051195	-0.189598
H268	H	1.361033	-0.551195	0.310402
C269	C	-0.052735	-0.322305	-0.322147
C270	C	0.447265	0.177695	0.177853
H271	H	-0.089164	-0.317505	-0.317372
H272	H	0.410836	0.182495	0.182628
H273	H	-0.043813	-0.357425	-0.314437
H274	H	0.456187	0.142575	0.185563
H275	H	-0.043763	-0.314693	-0.357290
H276	H	0.456237	0.185307	0.142710
H277	H	0.849722	-0.801178	-0.158028
H278	H	1.349722	-0.301178	0.341972
H279	H	0.816127	-0.450968	-0.191384
H280	H	1.316127	0.049032	0.308616
C281	C	0.685385	-0.181674	-0.558415
C282	C	1.185385	0.318326	-0.058415
H283	H	0.665492	-0.161759	-0.534328
H284	H	1.165492	0.338241	-0.034328
H285	H	0.662587	-0.201662	-0.579703
H286	H	1.162587	0.298338	-0.079703
H287	H	0.705408	-0.158890	-0.579728
H288	H	1.205408	0.341110	-0.079728
C289	C	0.198434	-0.355752	-0.355502
C290	C	0.698434	0.144248	0.144498
H291	H	0.162003	-0.350960	-0.350731
H292	H	0.662003	0.149040	0.149269
H293	H	0.207362	-0.390870	-0.347788
H294	H	0.707362	0.109130	0.152212
H295	H	0.207408	-0.348142	-0.390645
H296	H	0.707408	0.151858	0.109355
C297	C	0.685427	-0.181582	-1.060767
C298	C	1.185427	0.318418	-0.560767
H299	H	0.665525	-0.161665	-1.036688
H300	H	1.165525	0.338335	-0.536688
H301	H	0.662637	-0.201579	-1.082054
H302	H	1.162637	0.298421	-0.582054
H303	H	0.705449	-0.158799	-1.082081
H304	H	1.205449	0.341201	-0.582081
H305	H	0.816208	-0.312512	-0.953932
H306	H	1.316208	0.187488	-0.453932
C307	C	0.564269	-0.181622	-0.181881
C308	C	1.064269	0.318378	0.318119
H309	H	0.600698	-0.186414	-0.186663
H310	H	1.100698	0.313586	0.313337
H311	H	0.555299	-0.189220	-0.146737
H312	H	1.055299	0.310780	0.353263
H313	H	0.555344	-0.146502	-0.189605
H314	H	1.055344	0.353498	0.310395
C315	C	0.825733	-0.557816	-0.181852
C316	C	1.325733	-0.057816	0.318148
H317	H	0.845642	-0.533722	-0.161955
H318	H	1.345642	-0.033722	0.338045
H319	H	0.848514	-0.579085	-0.201873
H320	H	1.348514	-0.079085	0.298127
H321	H	0.805750	-0.579146	-0.159050
H322	H	1.305750	-0.079146	0.340950
H323	H	0.694938	-1.052417	-0.312652
H324	H	1.194938	-0.552417	0.187348
H325	H	0.816316	-0.953315	-0.191440
H326	H	1.316316	-0.453315	0.308560
C327	C	0.061934	-0.322300	-0.322131
C328	C	0.561934	0.177700	0.177869
H329	H	0.037854	-0.342241	-0.342012
H330	H	0.537854	0.157759	0.157988
H331	H	0.083216	-0.345050	-0.302090
H332	H	0.583216	0.154950	0.197910
H333	H	0.083254	-0.302324	-0.344949
H334	H	0.583254	0.197676	0.155051
H335	H	0.661379	-0.702197	-0.346036
H336	H	1.161379	-0.202197	0.153964
H337	H	0.661405	-0.801247	-0.346043
H338	H	1.161405	-0.301247	0.153957
H339	H	0.305287	-0.346185	-0.345951
H340	H	0.805287	0.153815	0.154049
C341	C	0.685207	-0.557887	-0.322148
C342	C	1.185207	-0.057887	0.177852
H343	H	0.665275	-0.533813	-0.342039
H344	H	1.165275	-0.033813	0.157961
H345	H	0.662446	-0.579225	-0.302131
H346	H	1.162446	-0.079225	0.197869
H347	H	0.705208	-0.579150	-0.344956
H348	H	1.205208	-0.079150	0.155044
H349	H	0.661516	-0.157774	-0.702746
H350	H	1.161516	0.342226	-0.202746
H351	H	0.661525	-0.157760	-0.801796
H352	H	1.161525	0.342240	-0.301796
C353	C	0.859142	-0.355560	-0.694965
C354	C	1.359142	0.144440	-0.194965
H355	H	0.879042	-0.375465	-0.719055
H356	H	1.379042	0.124535	-0.219055
H357	H	0.839131	-0.378345	-0.673648
H358	H	1.339131	0.121655	-0.173648
H359	H	0.881941	-0.335562	-0.673683
H360	H	1.381941	0.164438	-0.173683
C361	C	0.685167	-0.443217	-0.322133
C362	C	1.185167	0.056783	0.177867
H363	H	0.689953	-0.406786	-0.317345
H364	H	1.189953	0.093214	0.182655
H365	H	0.650043	-0.452199	-0.314451
H366	H	1.150043	0.047801	0.185549
H367	H	0.692809	-0.452138	-0.357273
H368	H	1.192809	0.047862	0.142727
C369	C	0.825703	-0.322165	-0.443772
C370	C	1.325703	0.177835	0.056228
H371	H	0.820908	-0.317383	-0.407342
H372	H	1.320908	0.182617	0.092658
H373	H	0.860841	-0.314524	-0.452731
H374	H	1.360841	0.185476	0.047269
H375	H	0.818019	-0.357293	-0.452708
H376	H	1.318019	0.142707	0.047292
H377	H	0.694929	-0.191246	-0.451566
H378	H	1.194929	0.308754	0.048434
C379	C	0.825719	-0.322144	-0.558438
C380	C	1.325719	0.177856	-0.058438
H381	H	0.845613	-0.342064	-0.534356
H382	H	1.345613	0.157936	-0.034356
H383	H	0.848517	-0.302146	-0.579755
H384	H	1.348517	0.197854	-0.079755
H385	H	0.805702	-0.344923	-0.579722
H386	H	1.305702	0.155077	-0.079722
H387	H	0.206232	-0.157734	-0.158086
H388	H	0.706232	0.342266	0.341914
C389	C	0.313077	-0.148159	-0.148535
C390	C	0.813077	0.351841	0.351465
H391	H	0.288988	-0.128226	-0.128661
H392	H	0.788988	0.371774	0.371339
H393	H	0.334405	-0.125400	-0.168565
H394	H	0.834405	0.374600	0.331435
H395	H	0.334349	-0.168131	-0.125710
H396	H	0.834349	0.331869	0.374290
C397	C	0.449603	-0.181628	-0.181893
C398	C	0.949603	0.318372	0.318107
H399	H	0.473685	-0.161686	-0.162016
H400	H	0.973685	0.338314	0.337984
H401	H	0.428274	-0.201594	-0.159078
H402	H	0.928274	0.298406	0.340922
H403	H	0.428330	-0.158872	-0.201942
H404	H	0.928330	0.341128	0.298058
H405	H	0.694968	-0.191150	-0.953904
H406	H	1.194968	0.308850	-0.453904
H407	H	0.457419	-0.312700	-0.312543
H408	H	0.957419	0.187300	0.187457
C409	C	0.564270	-0.322263	-0.322057
C410	C	1.064270	0.177737	0.177943
H411	H	0.540188	-0.342201	-0.341939
H412	H	1.040188	0.157799	0.158061
H413	H	0.585549	-0.345015	-0.302016
H414	H	1.085549	0.154985	0.197984
H415	H	0.585592	-0.302290	-0.344876
H416	H	1.085592	0.197710	0.155124
C417	C	0.859245	-0.694328	-0.148474
C418	C	1.359245	-0.194328	0.351526
H419	H	0.879181	-0.718406	-0.128592
H420	H	1.379181	-0.218406	0.371408
H421	H	0.839259	-0.673055	-0.125666
H422	H	1.339259	-0.173055	0.374334
H423	H	0.882010	-0.672999	-0.168501
H424	H	1.382010	-0.172999	0.331499
