data_functionalizedCrystal
_audit_creation_method	'MofGen! by Chris Wilmer'
_symmetry_space_group_name_H-M	'P1'
_symmetry_Int_Tables_number	1
_symmetry_cell_setting	triclinic
loop_
_symmetry_equiv_pos_as_xyz
  x,y,z
_cell_length_a	14.472311
_cell_length_b	15.538191
_cell_length_c	15.995292
_cell_angle_alpha	65.370355
_cell_angle_beta	89.994907
_cell_angle_gamma	89.992311
loop_
_atom_site_label
_atom_site_type_symbol
_atom_site_fract_x
_atom_site_fract_y
_atom_site_fract_z
O1	O	0.076868	-1.249976	0.271968
O2	O	0.076861	-0.975694	0.175278
O3	O	0.076866	-1.120361	0.347801
O4	O	0.076863	-1.105309	0.099445
O5	O	-0.076816	-1.120348	0.347810
O6	O	-0.076821	-0.975681	0.175287
O7	O	-0.076814	-1.249963	0.271976
Cu8	Cu	-0.090850	-1.112821	0.223632
Cu9	Cu	0.090897	-1.112836	0.223622
O10	O	-0.076819	-1.105296	0.099453
C11	C	0.000020	-0.940590	0.165166
C12	C	0.000017	-0.836009	0.135033
N13	N	-0.218681	-1.112817	0.223642
C14	C	0.000029	-1.285067	0.282088
C15	C	0.000037	-1.389648	0.312221
C16	C	-0.407181	-1.112827	0.223635
C17	C	-0.446380	-1.190254	0.315930
C18	C	-0.553468	-1.190534	0.315833
C19	C	-0.592772	-1.112838	0.223629
C20	C	-0.553879	-1.133880	0.142549
C21	C	-0.446758	-1.134429	0.143125
C22	C	-0.446674	-1.014127	0.211561
C23	C	-0.553802	-1.014795	0.213743
C24	C	-0.697660	-1.112841	0.223619
C25	C	-0.302293	-1.112825	0.223639
N26	N	0.218728	-1.112848	0.223621
C27	C	0.000027	-1.119742	0.378815
C28	C	0.000034	-1.117906	0.471210
C29	C	0.000036	-0.548289	0.434397
C30	C	0.000036	-0.450016	0.406061
C31	C	0.000034	-0.427536	0.246680
C32	C	0.000029	-0.525809	0.275002
C33	C	0.000031	-0.586178	0.368862
C34	C	0.000024	-0.563698	0.209467
C35	C	0.000024	-0.661962	0.237787
C36	C	0.000029	-0.722337	0.331643
C37	C	0.000031	-0.684442	0.397182
C38	C	0.000029	-0.503327	0.115608
C39	C	0.000024	-0.541216	0.050072
C40	C	0.000017	-0.639481	0.078392
C41	C	0.000022	-0.699856	0.172248
C42	C	0.000015	-0.677376	0.012853
C43	C	0.000015	-0.775640	0.041174
C44	C	0.000022	-0.798120	0.200568
C45	C	0.000022	-1.105915	0.068439
C46	C	0.000021	-1.107752	-0.023955
C47	C	0.000026	-1.111154	0.806896
C48	C	-0.000315	-1.215570	0.815319
C49	C	0.000034	-1.217555	0.719246
C50	C	0.000029	-1.114504	0.640358
C51	C	0.087785	-1.062308	0.653589
C52	C	0.087855	-1.061051	0.749997
C53	C	-0.086910	-1.058904	0.749216
C54	C	-0.088066	-1.062773	0.653899
C55	C	0.000035	-1.116392	0.546236
C56	C	0.000027	-1.109262	0.901017
H57	H	-0.579765	-1.178068	0.377057
F58	F	0.000035	-0.826919	0.361784
F59	F	-0.586958	-1.286281	0.329909
H60	H	-0.420609	-1.178008	0.377437
F61	F	0.173600	-1.108319	0.799410
H62	H	0.000032	-0.597446	0.510827
H63	H	0.063053	-1.258686	0.713337
H64	H	-0.580554	-0.954511	0.148606
F65	F	-0.587150	-1.062107	0.052218
H66	H	0.000032	-0.423315	0.092552
F67	F	-0.414087	-1.228497	0.151136
H68	H	-0.420826	-1.080004	0.073982
H69	H	-0.087505	-0.982045	0.739847
H70	H	0.091828	-0.984492	0.741279
F71	F	0.000029	-0.409697	0.475820
H72	H	-0.421324	-0.956513	0.143908
H73	H	-0.153429	-1.091781	0.787302
F74	F	-0.588933	-1.226871	0.149737
F75	F	0.173153	-1.109699	0.641769
H76	H	0.091044	-0.986476	0.598673
H77	H	-0.152987	-1.100780	0.646890
H78	H	-0.419666	-0.993801	0.267826
H79	H	0.062267	-1.255599	0.856497
H80	H	-0.093370	-0.987556	0.598070
H81	H	-0.419441	-1.263092	0.326752
F82	F	0.000037	-0.363278	0.146790
F83	F	-0.587046	-0.993898	0.291496
H84	H	0.000018	-0.847277	0.276998
H85	H	0.000026	-0.492050	-0.026348
F86	F	0.000023	-0.748697	0.497079
H87	H	0.000023	-0.628209	-0.063567
F88	F	0.000012	-0.815967	-0.028576
H89	H	-0.062871	-1.258434	0.712650
F90	F	-0.082575	-1.268173	0.867906
