data_functionalizedCrystal
_audit_creation_method	'MofGen! by Chris Wilmer'
_symmetry_space_group_name_H-M	'P1'
_symmetry_Int_Tables_number	1
_symmetry_cell_setting	triclinic
loop_
_symmetry_equiv_pos_as_xyz
  x,y,z
_cell_length_a	11.026607
_cell_length_b	22.010155
_cell_length_c	10.967829
_cell_angle_alpha	102.132269
_cell_angle_beta	96.380563
_cell_angle_gamma	90.015027
loop_
_atom_site_label
_atom_site_type_symbol
_atom_site_fract_x
_atom_site_fract_y
_atom_site_fract_z
O1	O	1.614571	0.105337	0.523519
O2	O	1.260765	0.099097	0.463906
O3	O	1.445819	0.083387	0.313894
O4	O	1.429517	0.121047	0.673531
O5	O	1.445762	-0.017664	0.313881
O6	O	1.260709	-0.001955	0.463893
O7	O	1.614514	0.004286	0.523506
Cu8	Cu	1.437606	-0.008062	0.493698
Cu9	Cu	1.437673	0.111444	0.493714
O10	O	1.429461	0.019995	0.673518
C11	C	1.215434	0.047419	0.452902
C12	C	1.080445	0.043987	0.420118
N13	N	1.437568	-0.092115	0.493689
C14	C	1.007398	0.053467	0.510640
C15	C	0.867880	0.049920	0.476759
C16	C	1.512046	-0.502215	0.586133
C17	C	1.512060	-0.565822	0.586133
O18	O	1.575340	-0.590486	0.664714
N19	N	1.437697	-0.607320	0.493705
C20	C	1.363323	-0.585209	0.401263
O21	O	1.300073	-0.626347	0.322645
C22	C	1.363316	-0.521603	0.401258
C23	C	1.437675	-0.480107	0.493700
C24	C	1.586401	-0.460719	0.678566
C25	C	1.586384	-0.397116	0.678567
C26	C	1.512013	-0.375008	0.586135
C27	C	1.437659	-0.416504	0.493701
C28	C	1.288949	-0.499494	0.308812
C29	C	1.288949	-0.435882	0.308815
C30	C	1.363309	-0.394386	0.401257
C31	C	1.363272	-0.330792	0.401269
N32	N	1.437636	-0.289294	0.493698
C33	C	1.512007	-0.311402	0.586130
C34	C	1.363345	-0.718785	0.401278
C35	C	1.363344	-0.782390	0.401286
C36	C	1.512084	-0.762999	0.586155
C37	C	1.512077	-0.699393	0.586151
C38	C	1.437708	-0.677287	0.493706
C39	C	1.511966	-0.177831	0.586126
C40	C	1.511939	-0.114223	0.586121
C41	C	1.363205	-0.133620	0.401249
C42	C	1.363226	-0.197222	0.401256
C43	C	1.437616	-0.219326	0.493701
O44	O	1.300028	-0.306085	0.322725
O45	O	1.575258	-0.270258	0.664726
C46	C	1.659845	0.055964	0.534510
C47	C	1.794834	0.059400	0.567294
C48	C	1.444600	0.027967	0.267130
C49	C	1.441039	0.013381	0.127806
N50	N	1.437720	0.195496	0.493715
C51	C	1.439480	0.059227	0.065704
C52	C	1.435799	0.044154	-0.078295
C53	C	1.430679	0.075417	0.720282
C54	C	1.434241	0.090006	0.859606
H55	H	0.827134	0.039193	0.374169
H56	H	1.434401	-0.006259	-0.131730
H57	H	0.835578	0.070139	0.669884
H58	H	1.039694	0.033261	0.317536
H59	H	1.646941	-0.363335	0.753839
O60	O	1.584292	-0.074002	0.675981
C61	C	1.649914	-0.107158	0.757576
H62	H	1.656585	-0.157750	0.707413
H63	H	1.600649	-0.104839	0.844428
C64	C	1.770943	-0.016032	0.858755
C65	C	1.779145	-0.078168	0.797141
H66	H	1.850657	0.001852	0.883166
H67	H	1.726729	0.006307	0.803786
H68	H	1.729883	-0.014107	0.931124
H69	H	1.820189	-0.080091	0.724765
H70	H	1.823368	-0.100507	0.852099
H71	H	1.302651	-0.115608	0.325995
O72	O	1.584051	-0.199360	0.675961
C73	C	1.510639	-0.228965	0.744597
H74	H	1.420117	-0.244722	0.685370
H75	H	1.492793	-0.195048	0.834372
C76	C	1.688018	-0.266484	0.851051
C77	C	1.576840	-0.285842	0.778303
H78	H	1.728854	-0.301566	0.871848
H79	H	1.737477	-0.246537	0.804813
H80	H	1.673130	-0.238219	0.925855
H81	H	1.591730	-0.314100	0.703495
H82	H	1.527385	-0.305795	0.824530
H83	H	1.646969	-0.478711	0.753838
H84	H	1.572626	-0.665610	0.661426
O85	O	1.439162	-0.046771	0.064107
C86	C	1.334864	-0.077957	0.086552
H87	H	1.262339	-0.042664	0.116005
H88	H	1.360551	-0.104181	0.164585
C89	C	1.373280	-0.167622	-0.070304
C90	C	1.284200	-0.124275	-0.034139
H91	H	1.342030	-0.196195	-0.144748
H92	H	1.443550	-0.146612	-0.085422
H93	H	1.394678	-0.189468	-0.005266
H94	H	1.262815	-0.102424	-0.099169
H95	H	1.213924	-0.145281	-0.019034
H96	H	1.048149	0.064205	0.613223
O97	O	1.584512	-0.784416	0.675909
C98	C	1.707624	-0.769585	0.669036
H99	H	1.712433	-0.728354	0.621732
H100	H	1.751841	-0.811343	0.612041
C101	C	1.769974	-0.803314	0.860520
C102	C	1.775880	-0.752670	0.802429
H103	H	1.812080	-0.792883	0.942801
H104	H	1.687032	-0.813309	0.865148
H105	H	1.806819	-0.838108	0.813011
H106	H	1.739022	-0.717880	0.849930
H107	H	1.858818	-0.742669	0.797812
H108	H	1.440865	0.109637	0.119142
O109	O	1.291068	-0.822615	0.311374
C110	C	1.225403	-0.789453	0.229816
H111	H	1.275665	-0.743680	0.233863
H112	H	1.130403	-0.779562	0.259828
C113	C	1.152375	-0.884641	0.089749
C114	C	1.214113	-0.828424	0.094711
H115	H	1.145405	-0.908681	0.006410
H116	H	1.196611	-0.906983	0.144698
H117	H	1.073215	-0.876391	0.114765
H118	H	1.293276	-0.836675	0.069710
H119	H	1.169890	-0.806085	0.039755
O120	O	1.291006	-0.697232	0.311647
C121	C	1.208655	-0.654442	0.369196
H122	H	1.247273	-0.634290	0.470472
H123	H	1.117444	-0.679129	0.367776
C124	C	1.142314	-0.626326	0.172782
C125	C	1.189751	-0.601571	0.297168
H126	H	1.130647	-0.593714	0.128349
H127	H	1.197792	-0.655156	0.134008
H128	H	1.066309	-0.646898	0.171616
H129	H	1.265760	-0.581007	0.298332
H130	H	1.134285	-0.572737	0.335940
H131	H	1.228399	-0.533270	0.233535
H132	H	1.435617	0.140419	-0.086963
H133	H	1.228389	-0.417889	0.233533
H134	H	1.302661	-0.231010	0.325995
