data_functionalizedCrystal
_audit_creation_method	'MofGen! by Chris Wilmer'
_symmetry_space_group_name_H-M	'P1'
_symmetry_Int_Tables_number	1
_symmetry_cell_setting	triclinic
loop_
_symmetry_equiv_pos_as_xyz
  x,y,z
_cell_length_a	13.032831
_cell_length_b	14.908520
_cell_length_c	13.033288
_cell_angle_alpha	93.494687
_cell_angle_beta	105.167499
_cell_angle_gamma	86.522975
loop_
_atom_site_label
_atom_site_type_symbol
_atom_site_fract_x
_atom_site_fract_y
_atom_site_fract_z
Zn1	Zn	1.673121	-0.451732	0.833185
Zn2	Zn	1.640641	-0.617393	0.665380
Zn3	Zn	1.472985	-0.451678	0.633072
Zn4	Zn	1.487624	-0.583795	0.818436
O5	O	1.568592	-0.526149	0.737518
O6	O	1.816608	-0.487791	0.830619
O7	O	1.598681	-0.609449	0.513292
O8	O	1.507000	-0.327064	0.652269
O9	O	1.792745	-0.609501	0.707333
O10	O	1.654039	-0.327104	0.799291
O11	O	1.475505	-0.487698	0.489555
O12	O	1.327131	-0.455119	0.637967
O13	O	1.531950	-0.552238	0.968195
O14	O	1.337886	-0.552185	0.774153
O15	O	1.668234	-0.455212	0.979031
O16	O	1.612876	-0.737557	0.693032
O17	O	1.500455	-0.712873	0.805481
C18	C	1.294187	-0.500001	0.700955
C19	C	1.176797	-0.488834	0.685339
C20	C	1.129792	-0.531978	0.745668
C21	C	1.008463	-0.520437	0.729530
C22	C	1.554761	-0.757528	0.751189
C23	C	1.548945	-0.856519	0.757085
C24	C	1.655234	-1.068179	0.651199
C25	C	1.649773	-1.161191	0.656736
C26	C	1.532568	-1.135555	0.773702
C27	C	1.538029	-1.042544	0.768165
C28	C	1.599363	-1.008860	0.706910
C29	C	1.604818	-0.915846	0.701367
C30	C	1.487620	-0.890213	0.818339
C31	C	1.482158	-0.983224	0.823876
C32	C	1.844070	-0.552400	0.774225
C33	C	1.961462	-0.563587	0.789868
C34	C	1.605348	-0.499984	1.013008
C35	C	1.621011	-0.488833	1.130406
C36	C	1.582510	-0.293867	0.723821
C37	C	1.588440	-0.194882	0.717985
C38	C	1.576748	-0.520349	1.298720
C39	C	1.560557	-0.531874	1.177384
C40	C	1.531970	-0.552233	1.463100
C41	C	1.516303	-0.563384	1.345702
H42	H	1.011038	-0.609065	0.853476
O43	O	1.117722	-0.434444	0.609575
C44	C	1.153005	-0.346047	0.631111
H45	H	1.194940	-0.336511	0.719253
H46	H	1.081834	-0.296042	0.609911
H47	H	1.210772	-0.334105	0.581586
H48	H	1.496820	-0.577256	1.127781
H49	H	1.654756	-0.888422	0.651487
H50	H	1.640488	-0.474978	1.348328
H51	H	1.482641	-1.162998	0.823581
H52	H	1.179373	-0.577455	0.809269
O53	O	0.949163	-0.466249	0.653658
C54	C	0.841225	-0.466784	0.654439
H55	H	0.826777	-0.530866	0.691004
H56	H	0.789029	-0.464202	0.569422
H57	H	0.820588	-0.405719	0.703521
O58	O	1.714887	-1.035602	0.591678
C59	C	1.763001	-1.107906	0.543661
H60	H	1.768511	-1.170428	0.591356
H61	H	1.846308	-1.089959	0.541938
H62	H	1.713092	-1.121797	0.458863
O63	O	1.696912	-0.434576	1.189587
C64	C	1.648680	-0.365322	1.242009
H65	H	1.561412	-0.355046	1.197297
H66	H	1.691156	-0.300296	1.244405
H67	H	1.654472	-0.384624	1.326711
H68	H	1.442122	-0.841903	0.863699
H69	H	1.695271	-1.209486	0.611372
H70	H	1.432225	-1.010663	0.873752
O71	O	1.440395	-0.617588	1.286434
C72	C	1.488633	-0.686866	1.234054
H73	H	1.568380	-0.664631	1.226454
H74	H	1.434620	-0.702021	1.151411
H75	H	1.501906	-0.749965	1.281938
