data_functionalizedCrystal
_audit_creation_method	'MofGen! by Chris Wilmer'
_symmetry_space_group_name_H-M	'P1'
_symmetry_Int_Tables_number	1
_symmetry_cell_setting	triclinic
loop_
_symmetry_equiv_pos_as_xyz
  x,y,z
_cell_length_a	10.540514
_cell_length_b	15.995292
_cell_length_c	14.472310
_cell_angle_alpha	90.002121
_cell_angle_beta	89.986421
_cell_angle_gamma	83.991888
loop_
_atom_site_label
_atom_site_type_symbol
_atom_site_fract_x
_atom_site_fract_y
_atom_site_fract_z
O1	O	1.684265	0.117894	-0.076845
O2	O	1.314691	0.129035	-0.076844
O3	O	1.509619	0.001634	-0.076846
O4	O	1.489337	0.245295	-0.076843
O5	O	1.509569	0.001641	0.076836
O6	O	1.314641	0.129042	0.076838
O7	O	1.684215	0.117902	0.076837
Cu8	Cu	1.499423	0.123472	0.090870
Cu9	Cu	1.499483	0.123464	-0.090877
O10	O	1.489287	0.245303	0.076839
C11	C	1.267374	0.128207	-0.000003
C12	C	1.126460	0.125721	-0.000003
C13	C	1.054473	0.216837	-0.000003
C14	C	0.907896	0.214281	-0.000357
C15	C	0.934847	0.076164	-0.087598
C16	C	1.081342	0.079365	-0.087666
C17	C	1.081706	0.078025	0.087105
C18	C	0.934739	0.077146	0.088251
C19	C	1.508768	-0.029563	-0.000007
C20	C	1.506294	-0.122531	-0.000014
C21	C	1.497196	-0.460323	-0.000006
C22	C	1.637889	-0.436178	0.000337
C23	C	1.640564	-0.339487	-0.000013
C24	C	1.501710	-0.292741	-0.000010
C25	C	1.431399	-0.322262	-0.087766
C26	C	1.429705	-0.419063	-0.087837
C27	C	1.426775	-0.418929	0.086929
C28	C	1.431988	-0.322405	0.088085
C29	C	1.504254	-0.198029	-0.000015
C30	C	1.494648	-0.555034	-0.000007
C31	C	1.731532	0.118729	-0.000006
C32	C	1.872446	0.121215	-0.000013
C33	C	1.490137	0.276499	-0.000002
C34	C	1.492612	0.369467	-0.000001
N35	N	1.499391	0.123478	0.218701
N36	N	1.499525	0.123452	-0.218708
C37	C	1.499481	0.123460	0.592792
C38	C	1.394829	0.191397	0.553627
C39	C	1.395070	0.191649	0.446539
C40	C	1.499435	0.123469	0.407201
C41	C	1.631876	0.143335	0.446038
C42	C	1.631288	0.143819	0.553159
C43	C	1.472873	0.035461	0.553320
C44	C	1.469836	0.036029	0.446193
C45	C	1.499418	0.123472	0.302313
C46	C	1.499507	0.123459	0.697680
H47	H	0.865689	0.249558	-0.063510
H48	H	1.478441	-0.445594	-0.153439
C49	C	1.574428	-0.032073	0.587141
C50	C	1.516588	-0.092239	0.637909
C51	C	1.610100	-0.154461	0.669074
H52	H	1.633455	-0.007248	0.625342
H53	H	1.618058	-0.058305	0.535635
H54	H	1.472978	-0.066010	0.689408
H55	H	1.457569	-0.117086	0.599726
H56	H	1.653730	-0.180693	0.617568
H57	H	1.669121	-0.129628	0.707272
H58	H	1.570867	-0.195295	0.703516
H59	H	1.112752	0.108359	0.153512
C60	C	1.295217	-0.280458	-0.091987
C61	C	1.271955	-0.227299	-0.015632
C62	C	1.146526	-0.188766	-0.019494
H63	H	1.237560	-0.322288	-0.091129
H64	H	1.283578	-0.248533	-0.147257
H65	H	1.283582	-0.259223	0.039624
H66	H	1.329581	-0.185455	-0.016474
H67	H	1.134886	-0.156841	-0.074764
H68	H	1.088880	-0.230602	-0.018638
H69	H	1.130730	-0.152688	0.032306
H70	H	1.323213	-0.433532	0.087522
C71	C	1.263014	0.175829	0.587873
C72	C	1.172203	0.237328	0.551750
C73	C	1.050757	0.223004	0.583270
H74	H	1.261121	0.178380	0.653439
H75	H	1.244116	0.121845	0.568174
H76	H	1.191096	0.291300	0.571454
H77	H	1.174055	0.234789	0.486186
H78	H	1.031859	0.169019	0.563571
H79	H	1.048877	0.225554	0.648836
H80	H	0.989125	0.264724	0.558758
C81	C	0.879388	0.120877	0.174734
C82	C	0.820577	0.063392	0.228766
C83	C	0.769576	0.103644	0.308443
H84	H	0.818216	0.166103	0.157699
H85	H	0.945872	0.141938	0.209177
H86	H	0.754101	0.042343	0.194330
H87	H	0.881723	0.018164	0.245825
H88	H	0.836060	0.124706	0.342886
H89	H	0.708409	0.148870	0.291399
H90	H	0.729677	0.064646	0.345117
H91	H	0.864713	0.249715	0.062413
C92	C	1.145809	-0.011629	0.088383
C93	C	1.105176	-0.053451	0.166239
C94	C	1.164194	-0.136040	0.167433
H95	H	1.235741	-0.010861	0.090692
H96	H	1.123452	-0.040057	0.034072
H97	H	1.127543	-0.025030	0.220537
H98	H	1.015253	-0.054242	0.163948
H99	H	1.141836	-0.164468	0.113122
H100	H	1.254124	-0.135264	0.169739
H101	H	1.136624	-0.164429	0.220253
H102	H	1.130290	0.012435	-0.091407
C103	C	1.499999	-0.297183	0.174740
C104	C	1.415606	-0.244114	0.228572
C105	C	1.478209	-0.220870	0.308410
H106	H	1.571060	-0.268533	0.157888
H107	H	1.528633	-0.346070	0.209245
H108	H	1.386991	-0.195236	0.194074
H109	H	1.344544	-0.272747	0.245449
H110	H	1.506843	-0.269757	0.342915
H111	H	1.549268	-0.192224	0.291549
H112	H	1.420955	-0.184867	0.344949
H113	H	1.480266	-0.301915	-0.153077
H114	H	1.082472	0.253802	0.062795
C115	C	1.340039	0.015780	0.412300
C116	C	1.354491	-0.058914	0.361152
C117	C	1.234949	-0.077596	0.329919
H118	H	1.303166	0.060299	0.374330
H119	H	1.286020	0.009240	0.463785
H120	H	1.408490	-0.052370	0.309674
H121	H	1.391343	-0.103450	0.399103
H122	H	1.180930	-0.084135	0.381404
H123	H	1.198085	-0.033072	0.291953
H124	H	1.244737	-0.128281	0.295219
C125	C	1.714465	-0.314338	-0.083972
C126	C	1.717090	-0.227003	-0.084493
C127	C	1.785163	-0.203807	-0.161824
H128	H	1.674111	-0.331098	-0.138620
H129	H	1.799230	-0.341077	-0.081417
H130	H	1.632341	-0.200274	-0.087056
H131	H	1.757454	-0.210222	-0.029863
H132	H	1.869929	-0.230547	-0.159269
H133	H	1.744803	-0.220572	-0.216466
H134	H	1.786964	-0.144550	-0.162183
H135	H	1.471061	-0.446752	0.153448
H136	H	1.411583	0.256316	0.580537
C137	C	1.709974	-0.474555	-0.082994
C138	C	1.815127	-0.528452	-0.053001
C139	C	1.881548	-0.563827	-0.129740
H140	H	1.738575	-0.431124	-0.119882
H141	H	1.655096	-0.505439	-0.118501
H142	H	1.869995	-0.497570	-0.017509
H143	H	1.786562	-0.571898	-0.016122
H144	H	1.826670	-0.594711	-0.165247
H145	H	1.910140	-0.520390	-0.166623
H146	H	1.952894	-0.600406	-0.109400
C147	C	1.710179	-0.472918	0.084326
C148	C	1.751255	-0.407714	0.137424
C149	C	1.817841	-0.441532	0.214808
H150	H	1.782007	-0.509434	0.064709
H151	H	1.655640	-0.503562	0.120430
H152	H	1.805792	-0.377083	0.101327
H153	H	1.679453	-0.371192	0.157064
H154	H	1.763302	-0.472176	0.250912
H155	H	1.889663	-0.478048	0.195183
H156	H	1.845709	-0.397296	0.250849
H157	H	1.412059	0.256935	0.420906
H158	H	1.326548	-0.434224	-0.091810
H159	H	1.330637	-0.290036	0.093387
H160	H	1.296624	0.179697	0.420283
H161	H	1.654739	0.208021	0.578136
H162	H	1.084209	0.253255	-0.062718
H163	H	1.711593	0.096330	0.579064
C164	C	0.877409	0.117218	-0.174876
C165	C	0.820074	0.057592	-0.226799
C166	C	0.767138	0.095388	-0.307196
H167	H	0.942684	0.138450	-0.210434
H168	H	0.815095	0.162068	-0.158630
H169	H	0.882382	0.012757	-0.243047
H170	H	0.754783	0.036356	-0.191269
H171	H	0.704824	0.140238	-0.290950
H172	H	0.832420	0.116619	-0.342746
H173	H	0.728220	0.054940	-0.342432
C174	C	1.663973	0.228019	0.410449
C175	C	1.678265	0.281692	0.485301
C176	C	1.707842	0.359708	0.452556
H177	H	1.597062	0.251933	0.371678
H178	H	1.741275	0.220617	0.376242
H179	H	1.600973	0.289096	0.519494
H180	H	1.745180	0.257805	0.524079
H181	H	1.785144	0.352306	0.418349
H182	H	1.640926	0.383613	0.413786
H183	H	1.717554	0.396132	0.503338
C184	C	0.906184	-0.014945	-0.091484
C185	C	0.831773	-0.032300	-0.015071
C186	C	0.805327	-0.116217	-0.018625
H187	H	0.983871	-0.050860	-0.090486
H188	H	0.861006	-0.024179	-0.146725
H189	H	0.876950	-0.023074	0.040155
H190	H	0.754070	0.003593	-0.016053
H191	H	0.760150	-0.125451	-0.073866
H192	H	0.883021	-0.152124	-0.017630
H193	H	0.754828	-0.128000	0.033214
H194	H	1.109125	0.112263	-0.153387
H195	H	1.711610	0.095203	0.420554
H196	H	0.911507	0.009310	0.093800
H197	H	1.695631	-0.320132	0.062893
H198	H	1.378396	0.016553	0.580388
H199	H	1.541110	-0.016956	0.419418
