data_functionalizedCrystal
_audit_creation_method	'MofGen! by Chris Wilmer'
_symmetry_space_group_name_H-M	'P1'
_symmetry_Int_Tables_number	1
_symmetry_cell_setting	triclinic
loop_
_symmetry_equiv_pos_as_xyz
  x,y,z
_cell_length_a	15.298068
_cell_length_b	13.897447
_cell_length_c	15.296720
_cell_angle_alpha	99.647031
_cell_angle_beta	88.354818
_cell_angle_gamma	99.679582
loop_
_atom_site_label
_atom_site_type_symbol
_atom_site_fract_x
_atom_site_fract_y
_atom_site_fract_z
Zn1	Zn	1.253390	-0.286949	-0.727372
Zn2	Zn	1.278657	-0.416495	-0.580907
Zn3	Zn	1.132270	-0.277576	-0.555539
Zn4	Zn	1.106889	-0.470571	-0.701932
O5	O	1.192802	-0.362898	-0.641438
O6	O	1.379317	-0.285425	-0.729207
O7	O	1.280435	-0.371514	-0.454980
O8	O	1.148384	-0.143834	-0.578363
O9	O	1.397881	-0.380603	-0.621600
O10	O	1.237371	-0.150720	-0.704608
O11	O	1.172885	-0.269451	-0.436342
O12	O	1.006328	-0.321885	-0.553695
O13	O	1.105126	-0.472766	-0.827869
O14	O	0.987681	-0.463678	-0.661249
O15	O	1.212760	-0.337860	-0.846560
O16	O	1.255824	-0.558653	-0.596931
O17	O	1.129627	-0.598382	-0.685848
C18	C	0.965222	-0.397633	-0.601959
C19	C	0.867859	-0.412521	-0.585091
C20	C	1.192734	-0.613518	-0.641405
C21	C	1.192780	-0.720729	-0.641434
C22	C	0.554688	-0.256735	-0.762000
C23	C	0.646165	-0.242751	-0.777854
C24	C	0.701593	-0.285192	-0.729664
C25	C	0.665535	-0.341620	-0.665619
C26	C	0.574048	-0.355612	-0.649768
C27	C	0.720953	-0.384069	-0.617432
C28	C	0.684895	-0.440497	-0.553387
C29	C	0.593418	-0.454485	-0.537539
C30	C	0.537990	-0.412044	-0.585729
C31	C	0.812440	-0.370077	-0.633283
C32	C	0.831800	-0.468954	-0.521051
C33	C	0.740323	-0.482937	-0.505198
C34	C	1.192819	-0.807797	-0.641462
C35	C	1.192876	-0.917025	-0.641495
C36	C	1.421270	-0.328027	-0.681071
C37	C	1.518629	-0.313168	-0.697960
C38	C	1.153293	-0.412390	-0.869882
C39	C	1.136457	-0.433481	-0.967232
C40	C	1.192890	-0.111299	-0.641494
C41	C	1.192928	-0.004082	-0.641518
C42	C	1.313164	-0.211984	-1.280571
C43	C	1.328987	-0.192169	-1.189107
C44	C	1.280856	-0.252495	-1.133634
C45	C	1.216899	-0.332640	-1.169633
C46	C	1.201078	-0.352462	-1.261107
C47	C	1.168771	-0.392973	-1.114170
C48	C	1.104813	-0.473118	-1.150169
C49	C	1.088995	-0.492935	-1.241634
C50	C	1.137126	-0.432609	-1.297107
C51	C	1.184591	-0.373151	-1.022696
C52	C	1.072506	-0.513629	-1.003232
C53	C	1.056682	-0.533444	-1.094696
C54	C	1.232206	-0.313520	-0.413891
C55	C	1.249212	-0.292132	-0.316571
H56	H	0.841789	-0.324131	-0.685428
H57	H	0.463500	-0.423435	-0.572830
H58	H	0.564062	-0.500441	-0.485396
C59	C	1.398299	-0.105012	-1.150065
C60	C	1.375384	-0.017315	-1.169025
C61	C	1.439207	0.063005	-1.133070
H62	H	1.454591	-0.113252	-1.175235
H63	H	1.400833	-0.101766	-1.087635
H64	H	1.372860	-0.020562	-1.231442
H65	H	1.319103	-0.009043	-1.143854
H66	H	1.441742	0.066252	-1.070640
H67	H	1.495495	0.054755	-1.158243
H68	H	1.423665	0.122518	-1.145922
H69	H	1.236665	-0.307896	-0.993395
H70	H	0.710952	-0.528883	-0.453052
H71	H	0.776077	-0.273799	-0.742573
H72	H	0.876929	-0.503518	-0.481815
H73	H	0.675516	-0.196811	-0.830002
H74	H	1.124246	-0.448739	-1.371585
H75	H	0.509551	-0.222192	-0.801234
C76	C	1.298127	-0.230788	-1.034345
C77	C	1.364421	-0.147673	-1.014688
C78	C	1.380344	-0.127632	-0.923228
H79	H	1.316876	-0.286154	-1.016156
H80	H	1.245206	-0.218187	-1.003826
H81	H	1.417331	-0.160279	-1.045196
H82	H	1.345690	-0.092289	-1.032855
H83	H	1.327424	-0.115032	-0.892708
H84	H	1.399090	-0.183004	-0.905047
H85	H	1.425320	-0.071233	-0.909877
C86	C	1.365297	-0.146586	-1.340939
C87	C	1.337739	-0.181090	-1.428745
C88	C	1.385743	-0.120859	-1.484380
H89	H	1.426754	-0.148433	-1.336266
H90	H	1.355080	-0.080471	-1.323798
H91	H	1.347963	-0.247187	-1.445881
H92	H	1.276290	-0.179239	-1.433446
H93	H	1.375526	-0.054744	-1.467239
H94	H	1.447197	-0.122711	-1.479699
H95	H	1.367046	-0.144255	-1.543961
C96	C	1.019493	-0.579970	-1.280547
C97	C	0.980710	-0.628545	-1.212391
C98	C	0.916673	-0.708717	-1.248201
H99	H	1.046714	-0.624720	-1.322017
H100	H	0.975127	-0.556649	-1.309591
H101	H	1.025068	-0.651867	-1.183361
H102	H	0.953471	-0.583823	-1.170915
H103	H	0.872307	-0.685396	-1.277244
H104	H	0.943902	-0.753458	-1.289671
H105	H	0.890345	-0.741679	-1.201962
H106	H	1.004607	-0.598698	-1.124020
C107	C	1.020303	-0.578987	-0.942861
C108	C	1.047828	-0.544458	-0.855050
C109	C	0.999757	-0.604629	-0.799406
H110	H	1.030469	-0.645115	-0.959942
H111	H	0.958852	-0.577082	-0.947591
H112	H	1.109264	-0.546373	-0.850323
H113	H	1.037660	-0.478338	-0.837942
H114	H	0.938306	-0.602725	-0.804136
H115	H	1.009926	-0.670755	-0.816494
H116	H	1.018420	-0.581205	-0.739819
