data_functionalizedCrystal
_audit_creation_method	'MofGen! by Chris Wilmer'
_symmetry_space_group_name_H-M	'P1'
_symmetry_Int_Tables_number	1
_symmetry_cell_setting	triclinic
loop_
_symmetry_equiv_pos_as_xyz
  x,y,z
_cell_length_a	6.817900
_cell_length_b	14.125469
_cell_length_c	16.305550
_cell_angle_alpha	95.884114
_cell_angle_beta	103.455250
_cell_angle_gamma	100.398878
loop_
_atom_site_label
_atom_site_type_symbol
_atom_site_fract_x
_atom_site_fract_y
_atom_site_fract_z
V1	V	-4.010572	-0.133925	-0.262704
O2	O	-4.014497	0.005600	-0.258038
O3	O	-3.946712	-0.264747	-0.260584
O4	O	-3.962176	-0.132231	-0.377425
O5	O	-3.998925	-0.127833	-0.140389
V6	V	-4.496202	-0.117193	-0.248113
O7	O	-4.267207	-0.170628	-0.294709
O8	O	-4.689764	-0.080489	-0.216107
O9	O	-4.336856	0.013629	-0.250232
O10	O	-4.609674	-0.256718	-0.252778
O11	O	-4.625245	-0.123285	-0.370428
O12	O	-4.321392	-0.118886	-0.133392
C13	C	-3.787951	-0.296627	-0.256357
C14	C	-3.817025	-0.403578	-0.255389
C15	C	-3.870323	-0.599398	-0.253629
C16	C	-4.055817	-0.651731	-0.257190
C17	C	-4.085475	-0.760692	-0.256211
C18	C	-3.840658	-0.490427	-0.254608
C19	C	-3.807677	-0.127589	-0.405397
C20	C	-3.849289	-0.127070	-0.499180
C21	C	-4.000611	-0.125059	-0.839931
C22	C	-3.765262	-0.119090	-0.799017
C23	C	-3.721959	-0.120028	-0.701520
C24	C	-3.925537	-0.126056	-0.670880
C25	C	-4.081450	-0.221074	-0.721274
C26	C	-4.123376	-0.220536	-0.818825
C27	C	-4.065699	-0.036771	-0.794304
C28	C	-4.017858	-0.036019	-0.696463
C29	C	-3.883121	-0.126623	-0.575341
C30	C	-4.043036	-0.124499	-0.935471
C31	C	-4.158957	0.045504	-0.254457
C32	C	-4.109122	0.152455	-0.255431
C33	C	-4.139232	-0.123532	-0.105415
C34	C	-4.076859	-0.124046	-0.011631
H35	H	-4.192349	-0.614702	-0.260973
H36	H	-4.237352	-0.040300	-0.821111
C37	C	-4.356884	-0.231786	-0.856620
H38	H	-4.384064	-0.231528	-0.916439
H39	H	-4.428162	-0.291526	-0.845751
H40	H	-4.402475	-0.179230	-0.830992
C41	C	-3.622100	-0.206710	-0.679287
H42	H	-3.595249	-0.207576	-0.619554
H43	H	-3.713167	-0.265685	-0.708711
H44	H	-3.496248	-0.200337	-0.695868
H45	H	-3.905037	0.034261	-0.662257
C46	C	-4.287105	-0.231687	-0.695698
H47	H	-4.279686	-0.178139	-0.653955
H48	H	-4.395968	-0.232897	-0.744510
H49	H	-4.312514	-0.290571	-0.672830
H50	H	-3.733802	-0.636425	-0.249844
C51	C	-3.694302	-0.204780	-0.841363
H52	H	-3.551942	-0.200619	-0.816273
H53	H	-3.771941	-0.264450	-0.833261
H54	H	-3.715220	-0.202126	-0.900684
H55	H	-3.603457	-0.051711	-0.666663
C56	C	-3.632715	-0.026372	-0.815953
H57	H	-3.719710	0.009528	-0.848133
H58	H	-3.557109	0.012491	-0.763168
H59	H	-3.539571	-0.043939	-0.847031
H60	H	-4.079409	-0.287373	-0.849043
C61	C	-3.996000	-0.311391	-0.698350
H62	H	-3.865396	-0.291392	-0.658106
H63	H	-4.088686	-0.351422	-0.674418
H64	H	-3.981157	-0.347069	-0.748391
C65	C	-3.953599	0.060487	-0.812591
H66	H	-3.866041	0.048156	-0.848228
H67	H	-4.052295	0.094142	-0.840426
H68	H	-3.873248	0.099158	-0.760396
C69	C	-4.216997	-0.034407	-0.667616
H70	H	-4.246585	-0.088871	-0.639474
H71	H	-4.199115	0.023936	-0.629583
H72	H	-4.328170	-0.037313	-0.716003
