data_functionalizedCrystal
_audit_creation_method	'MofGen! by Chris Wilmer'
_symmetry_space_group_name_H-M	'P1'
_symmetry_Int_Tables_number	1
_symmetry_cell_setting	triclinic
loop_
_symmetry_equiv_pos_as_xyz
  x,y,z
_cell_length_a	13.897448
_cell_length_b	15.297475
_cell_length_c	15.296720
_cell_angle_alpha	91.617114
_cell_angle_beta	80.353909
_cell_angle_gamma	99.679517
loop_
_atom_site_label
_atom_site_type_symbol
_atom_site_fract_x
_atom_site_fract_y
_atom_site_fract_z
Zn1	Zn	-0.750725	-1.253455	0.726608
Zn2	Zn	-0.250725	-0.753455	1.226608
Zn3	Zn	-0.889621	-1.278728	0.580126
Zn4	Zn	-0.389621	-0.778728	1.080126
Zn5	Zn	-0.696535	-1.132329	0.554848
Zn6	Zn	-0.196535	-0.632329	1.054848
Zn7	Zn	-0.880140	-1.106953	0.701254
Zn8	Zn	-0.380140	-0.606953	1.201254
O9	O	-0.804255	-1.192866	0.640709
O10	O	-0.304255	-0.692866	1.140709
O11	O	-0.795796	-1.379388	0.728367
O12	O	-0.295796	-0.879388	1.228367
O13	O	-0.845298	-1.280504	0.454198
O14	O	-0.345298	-0.780504	0.954198
O15	O	-0.568756	-1.148440	0.577665
O16	O	-0.068756	-0.648440	1.077665
O17	O	-0.897843	-1.397955	0.620747
O18	O	-0.397843	-0.897955	1.120747
O19	O	-0.608569	-1.237431	0.703856
O20	O	-0.108569	-0.737431	1.203856
O21	O	-0.703438	-1.172946	0.435627
O22	O	-0.203438	-0.672946	0.935627
O23	O	-0.694244	-1.006383	0.553080
O24	O	-0.194244	-0.506383	1.053080
O25	O	-0.881683	-1.105191	0.827192
O26	O	-0.381683	-0.605191	1.327192
O27	O	-0.829138	-0.987740	0.660644
O28	O	-0.329138	-0.487740	1.160644
O29	O	-0.786602	-1.212825	0.845820
O30	O	-0.286602	-0.712825	1.345820
O31	O	-1.023331	-1.255899	0.596162
O32	O	-0.523331	-0.755899	1.096162
O33	O	-1.016365	-1.129697	0.685154
O34	O	-0.516365	-0.629697	1.185154
C35	C	-1.054852	-1.192807	0.640673
C36	C	-0.554852	-0.692807	1.140673
C37	C	-1.162080	-1.192856	0.640700
C38	C	-0.662080	-0.692856	1.140700
C39	C	-0.754783	-0.965278	0.601368
C40	C	-0.254783	-0.465278	1.101368
C41	C	-0.733644	-0.867911	0.584559
C42	C	-0.233644	-0.367911	1.084559
C43	C	-0.839129	-1.153358	0.869177
C44	C	-0.339129	-0.653358	1.369177
C45	C	-0.853991	-1.136522	0.966536
C46	C	-0.353991	-0.636522	1.466536
C47	C	-1.358403	-1.192939	0.640771
C48	C	-0.858403	-0.692939	1.140771
C49	C	-1.249155	-1.192890	0.640734
C50	C	-0.749155	-0.692890	1.140734
C51	C	-0.552688	-1.192947	0.640769
C52	C	-0.052688	-0.692947	1.140769
C53	C	-0.445485	-1.192981	0.640795
C54	C	0.054515	-0.692981	1.140795
C55	C	-0.853922	-1.421344	0.680204
C56	C	-0.353922	-0.921344	1.180204
C57	C	-0.875087	-1.518707	0.697035
C58	C	-0.375087	-1.018707	1.197035
C59	C	-0.955341	-0.554781	0.760852
C60	C	-0.455341	-0.054781	1.260852
C61	C	-0.975208	-0.646262	0.776642
C62	C	-0.475208	-0.146262	1.276642
C63	C	-0.914818	-0.701679	0.728623
C64	C	-0.414818	-0.201679	1.228623
C65	C	-0.834559	-0.665605	0.664810
C66	C	-0.334559	-0.165605	1.164810
C67	C	-0.814694	-0.574115	0.649012
C68	C	-0.314694	-0.074115	1.149012
C69	C	-0.774172	-0.721013	0.616784
C70	C	-0.274172	-0.221013	1.116784
C71	C	-0.693913	-0.684939	0.552970
C72	C	-0.193913	-0.184939	1.052970
C73	C	-0.674051	-0.593458	0.537176
C74	C	-0.174051	-0.093458	1.037176
C75	C	-0.734441	-0.538042	0.585196
C76	C	-0.234441	-0.038042	1.085196
C77	C	-0.794037	-0.812503	0.632581
C78	C	-0.294037	-0.312503	1.132581
C79	C	-0.653391	-0.831837	0.520742
C80	C	-0.153391	-0.331837	1.020742
C81	C	-0.633523	-0.740356	0.504951
C82	C	-0.133523	-0.240356	1.004951
C83	C	-0.769458	-1.232271	0.413139
C84	C	-0.269458	-0.732271	0.913139
C85	C	-0.754362	-1.249277	0.315809
C86	C	-0.254362	-0.749277	0.815809
C87	C	-0.697877	-1.313229	1.279771
C88	C	-0.197877	-0.813229	1.779771
C89	C	-0.683917	-1.329053	1.188298
C90	C	-0.183917	-0.829053	1.688298
C91	C	-0.726434	-1.280921	1.132853
C92	C	-0.226434	-0.780921	1.632853
C93	C	-0.782914	-1.216964	1.168890
C94	C	-0.282914	-0.716964	1.668890
C95	C	-0.796882	-1.201143	1.260373
C96	C	-0.296882	-0.701143	1.760373
C97	C	-0.825439	-1.168836	1.113455
C98	C	-0.325439	-0.668836	1.613455
C99	C	-0.881919	-1.104878	1.149492
C100	C	-0.381919	-0.604878	1.649492
C101	C	-0.895883	-1.089060	1.240966
C102	C	-0.395883	-0.589060	1.740966
C103	C	-0.853367	-1.137191	1.296411
C104	C	-0.353367	-0.637191	1.796411
C105	C	-0.811471	-1.184656	1.021973
C106	C	-0.311471	-0.684656	1.521973
C107	C	-0.910475	-1.072570	1.002574
C108	C	-0.410475	-0.572570	1.502574
C109	C	-0.924435	-1.056746	1.094047
C110	C	-0.424435	-0.556746	1.594047
H111	H	-0.859385	-0.841865	0.684539
H112	H	-0.359385	-0.341865	1.184539
H113	H	-1.040557	-0.675627	0.828598
H114	H	-0.540557	-0.175627	1.328598
O115	O	-0.623009	-1.398034	1.149432
O116	O	-0.123009	-0.898034	1.649432
H117	H	-0.546723	-1.380002	1.164404
H118	H	-0.046723	-0.880002	1.664404
O119	O	-1.020469	-0.495015	0.812641
O120	O	-0.520469	0.004985	1.312641
H121	H	-0.993167	-0.425340	0.790937
H122	H	-0.493167	0.074660	1.290937
O123	O	-0.936240	-0.800349	0.745650
O124	O	-0.436240	-0.300349	1.245650
H125	H	-1.002190	-0.816124	0.798094
H126	H	-0.502190	-0.316124	1.298094
O127	O	-0.956805	-1.020079	1.279831
O128	O	-0.456805	-0.520079	1.779831
H129	H	-1.020768	-1.052060	1.328266
H130	H	-0.520768	-0.552060	1.828266
O131	O	-0.588245	-0.891590	0.468936
O132	O	-0.088245	-0.391590	0.968936
H133	H	-0.554274	-0.926488	0.515413
H134	H	-0.054274	-0.426488	1.015413
O135	O	-0.956306	-1.020641	0.942767
O136	O	-0.456306	-0.520641	1.442767
H137	H	-0.927485	-0.948865	0.948455
H138	H	-0.427485	-0.448865	1.448455
H139	H	-0.718267	-0.463549	0.572344
H140	H	-0.218267	0.036451	1.072344
H141	H	-0.608707	-0.564092	0.485206
H142	H	-0.108707	-0.064092	0.985206
H143	H	-0.970421	-1.004671	1.123402
H144	H	-0.470421	-0.504671	1.623402
O145	O	-0.546982	-0.701450	0.436100
O146	O	-0.046982	-0.201450	0.936100
H147	H	-0.543330	-0.628528	0.433176
H148	H	-0.043330	-0.128528	0.933176
H149	H	-0.715064	-1.293809	1.058373
H150	H	-0.215064	-0.793809	1.558373
H151	H	-0.765483	-1.236730	0.992640
H152	H	-0.265483	-0.736730	1.492640
H153	H	-0.663273	-1.352416	1.324923
H154	H	-0.163273	-0.852416	1.824923
H155	H	-0.864730	-1.124311	1.370897
H156	H	-0.364730	-0.624311	1.870897
