data_functionalizedCrystal
_audit_creation_method	'MofGen! by Chris Wilmer'
_symmetry_space_group_name_H-M	'P1'
_symmetry_Int_Tables_number	1
_symmetry_cell_setting	triclinic
loop_
_symmetry_equiv_pos_as_xyz
  x,y,z
_cell_length_a	10.540539
_cell_length_b	19.288865
_cell_length_c	18.366186
_cell_angle_alpha	90.011479
_cell_angle_beta	90.006974
_cell_angle_gamma	83.830870
loop_
_atom_site_label
_atom_site_type_symbol
_atom_site_fract_x
_atom_site_fract_y
_atom_site_fract_z
O1	O	-1.683714	-0.097883	-0.060525
O2	O	-1.314095	-0.107106	-0.060535
O3	O	-1.509585	-0.001436	-0.060515
O4	O	-1.488224	-0.203554	-0.060544
O5	O	-1.509552	-0.001430	0.060584
O6	O	-1.314062	-0.107100	0.060565
O7	O	-1.683681	-0.097878	0.060575
Zn8	Zn	-1.498866	-0.102488	0.079797
Zn9	Zn	-1.498910	-0.102495	-0.079757
O10	O	-1.488191	-0.203548	0.060555
C11	C	-1.266791	-0.106411	0.000014
C12	C	-1.125889	-0.104342	0.000011
C13	C	-1.508881	0.024448	0.000037
C14	C	-1.506818	0.101566	0.000043
C15	C	-1.730985	-0.098572	0.000024
C16	C	-1.871887	-0.100641	0.000023
C17	C	-0.944230	-0.025053	0.000305
C18	C	-1.090801	-0.027151	0.000024
C19	C	-1.063408	-0.141493	-0.069145
C20	C	-0.916922	-0.138859	-0.069196
C21	C	-0.916361	-0.140423	0.068517
C22	C	-1.063327	-0.141134	0.069423
C23	C	-1.488895	-0.229432	0.000002
C24	C	-1.490958	-0.306549	-0.000010
N25	N	-1.498846	-0.102483	0.188688
C26	C	-1.621522	0.145496	0.000050
C27	C	-1.619584	0.217956	0.000038
C28	C	-1.502935	0.246482	0.000035
C29	C	-1.388215	0.202542	0.000024
C30	C	-1.390157	0.130083	0.000028
C31	C	-1.411223	0.355384	0.042451
C32	C	-1.409286	0.427841	0.042451
C33	C	-1.496941	0.469968	0.000018
C34	C	-1.586555	0.439630	-0.042405
C35	C	-1.588496	0.367172	-0.042401
C36	C	-1.500816	0.325051	0.000030
C37	C	-1.609552	0.592469	0.000011
C38	C	-1.607609	0.664930	-0.000005
C39	C	-1.376237	0.649513	-0.000012
C40	C	-1.378183	0.577054	-0.000003
C41	C	-1.494844	0.548536	0.000012
N42	N	-1.498941	-0.102495	-0.188648
C43	C	-1.585437	-0.055716	0.226797
C44	C	-1.585445	-0.055713	0.303025
C45	C	-1.498874	-0.102489	0.341141
C46	C	-1.412267	-0.149260	0.303022
C47	C	-1.412253	-0.149257	0.226796
C48	C	-1.481882	-0.165663	0.461892
C49	C	-1.481905	-0.165667	0.538117
C50	C	-1.498910	-0.102498	0.576248
C51	C	-1.515919	-0.039322	0.538146
C52	C	-1.515905	-0.039319	0.461919
C53	C	-1.498879	-0.102497	0.423795
C54	C	-1.585514	-0.055723	0.697012
C55	C	-1.585514	-0.055719	0.773241
C56	C	-1.412342	-0.149273	0.773238
C57	C	-1.412336	-0.149271	0.697010
C58	C	-1.498930	-0.102497	0.658902
H59	H	-1.134053	0.002081	0.049599
F60	F	-1.677612	-0.005934	0.343590
H61	H	-1.336312	0.452536	0.076990
H62	H	-1.284778	0.541284	-0.000004
F63	F	-1.745684	0.115150	0.000050
H64	H	-1.341738	-0.187341	0.195767
F65	F	-1.091003	-0.215582	-0.072533
H66	H	-1.468013	-0.217107	0.430851
H67	H	-1.339841	0.321089	0.077008
H68	H	-1.701019	0.700698	-0.000003
F69	F	-1.677591	-0.005933	0.186241
F70	F	-0.907731	0.014809	0.065132
F71	F	-1.093343	-0.214695	0.074870
F72	F	-1.264069	0.232902	0.000015
F73	F	-1.677669	-0.005940	0.656454
H74	H	-0.867716	-0.194374	-0.072342
H75	H	-0.914713	0.005310	-0.049006
F76	F	-1.741673	0.264720	0.000044
H77	H	-1.341777	-0.187345	0.334060
F78	F	-1.533996	0.027915	0.421370
F79	F	-1.268067	0.083327	0.000021
H80	H	-1.661460	0.342474	-0.076945
F81	F	-1.146208	0.011165	-0.064977
F82	F	-0.880863	-0.102975	-0.136754
F83	F	-1.117514	-0.105603	0.136295
H84	H	-1.281259	0.672738	-0.000018
F85	F	-1.320199	-0.199051	0.813800
F86	F	-1.679850	0.484459	-0.087570
H87	H	-1.529766	0.012117	0.569191
F88	F	-1.677673	-0.005937	0.813802
F89	F	-1.320180	-0.199050	0.656448
H90	H	-1.106585	-0.115690	-0.120606
F91	F	-0.853010	-0.213298	0.069118
H92	H	-0.885357	-0.115439	0.120937
H93	H	-1.468063	-0.217109	0.569134
F94	F	-1.733711	0.562116	0.000031
