data_functionalizedCrystal
_audit_creation_method	'MofGen! by Chris Wilmer'
_symmetry_space_group_name_H-M	'P1'
_symmetry_Int_Tables_number	1
_symmetry_cell_setting	triclinic
loop_
_symmetry_equiv_pos_as_xyz
  x,y,z
_cell_length_a	17.699083
_cell_length_b	17.699083
_cell_length_c	16.176319
_cell_angle_alpha	89.992304
_cell_angle_beta	90.006703
_cell_angle_gamma	96.717152
loop_
_atom_site_label
_atom_site_type_symbol
_atom_site_fract_x
_atom_site_fract_y
_atom_site_fract_z
O1	O	-1.004079	0.095710	-0.068734
O2	O	-0.783701	0.108163	-0.068739
O3	O	-0.900116	-0.008252	-0.068729
O4	O	-0.887664	0.212126	-0.068744
O5	O	-0.900100	-0.008260	0.068764
O6	O	-0.783685	0.108156	0.068754
O7	O	-1.004063	0.095703	0.068759
Cu8	Cu	-0.893872	0.101929	0.081311
Cu9	Cu	-0.893891	0.101937	-0.081291
O10	O	-0.887648	0.212119	0.068749
C11	C	-0.755496	0.107713	0.000007
C12	C	-0.671478	0.106375	0.000005
C13	C	-0.632002	0.105740	0.074954
C14	C	-0.553059	0.104471	0.074954
C15	C	-0.513594	0.103841	0.000006
C16	C	-0.553075	0.104474	-0.074948
C17	C	-0.632017	0.105738	-0.074948
C18	C	-0.234713	0.099375	-0.074950
C19	C	-0.155765	0.098113	-0.074945
C20	C	-0.155755	0.098107	0.074952
C21	C	-0.234697	0.099372	0.074952
C22	C	-0.274172	0.100000	-0.000001
C23	C	-0.359771	0.101375	-0.000001
C24	C	-0.427996	0.102472	0.000005
C25	C	-0.899662	-0.036453	0.000017
C26	C	-0.898323	-0.120471	0.000018
C27	C	-0.966657	-0.169092	0.000020
C28	C	-0.965395	-0.248036	0.000013
C29	C	-0.895798	-0.278356	0.000009
C30	C	-0.827459	-0.229729	0.000004
C31	C	-0.828722	-0.150787	0.000005
C32	C	-0.822364	-0.548092	-0.000003
C33	C	-0.821106	-0.627040	-0.000002
C34	C	-0.959036	-0.645341	0.000005
C35	C	-0.960299	-0.566399	0.000006
C36	C	-0.891961	-0.517778	-0.000003
C37	C	-0.893331	-0.432179	0.000003
C38	C	-0.894428	-0.363954	0.000009
C39	C	-0.032269	0.096148	0.000010
C40	C	-0.116289	0.097472	0.000004
C41	C	-0.888102	0.240319	0.000001
C42	C	-0.889441	0.324337	-0.000005
N43	N	-0.893865	0.101922	0.195676
N44	N	-0.893905	0.101938	-0.195656
C45	C	-0.945429	0.050394	0.238945
C46	C	-0.945433	0.050393	0.325492
C47	C	-0.893875	0.101925	0.368769
C48	C	-0.842306	0.153455	0.325494
C49	C	-0.842299	0.153452	0.238948
C50	C	-0.842332	0.153469	0.674522
C51	C	-0.842344	0.153470	0.761074
C52	C	-0.945466	0.050411	0.761065
C53	C	-0.945459	0.050408	0.674520
C54	C	-0.893887	0.101935	0.631253
C55	C	-0.893882	0.101934	0.537409
C56	C	-0.893883	0.101930	0.462611
H57	H	-0.123605	0.097592	0.135983
O58	O	-0.755019	-0.098343	0.000013
H59	H	-0.721708	-0.109102	-0.056023
O60	O	-1.001027	-0.005192	0.192262
H61	H	-1.060013	0.004364	0.208853
O62	O	-0.746037	-0.659745	-0.000005
H63	H	-0.742177	-0.695276	-0.056039
O64	O	-0.113209	0.097422	-0.155793
H65	H	-0.070404	0.148415	-0.159398
H66	H	-0.800323	0.195410	0.360735
H67	H	-0.987420	0.008435	0.360721
H68	H	-1.014680	-0.684937	0.000008
O69	O	-0.786732	0.209061	0.807743
H70	H	-0.750016	0.177254	0.847200
H71	H	-0.987444	0.008449	0.639286
H72	H	-0.266845	0.099884	-0.135982
H73	H	-1.016972	-0.541717	0.000014
O74	O	-0.510514	0.103798	-0.155789
H75	H	-0.448987	0.102821	-0.143200
O76	O	-0.277266	0.100054	0.155788
H77	H	-0.306379	0.152200	0.159364
H78	H	-0.664157	0.106256	-0.135979
O79	O	-1.001086	-0.005176	0.807730
H80	H	-0.992427	0.003474	0.875182
O81	O	-0.748660	-0.495655	0.000008
H82	H	-0.700056	-0.530004	0.000020
H83	H	-1.021039	-0.287620	0.000017
H84	H	-1.023330	-0.144412	0.000029
O85	O	-0.786713	0.209049	0.627865
H86	H	-0.818499	0.245789	0.588414
H87	H	-0.800309	0.195410	0.203720
H88	H	-0.664128	0.106259	0.135986
O89	O	-0.752394	-0.262431	0.000009
H90	H	-0.748526	-0.297961	-0.056025
O91	O	-0.510477	0.103794	0.155791
H92	H	-0.551181	0.104457	0.207906
