data_functionalizedCrystal
_audit_creation_method	'MofGen! by Chris Wilmer'
_symmetry_space_group_name_H-M	'P1'
_symmetry_Int_Tables_number	1
_symmetry_cell_setting	triclinic
loop_
_symmetry_equiv_pos_as_xyz
  x,y,z
_cell_length_a	11.792241
_cell_length_b	23.532407
_cell_length_c	22.010155
_cell_angle_alpha	90.000423
_cell_angle_beta	90.004313
_cell_angle_gamma	83.521047
loop_
_atom_site_label
_atom_site_type_symbol
_atom_site_fract_x
_atom_site_fract_y
_atom_site_fract_z
O1	O	1.505080	0.078047	0.050473
O2	O	1.174549	0.086091	0.050488
O3	O	1.349782	-0.000804	0.050469
O4	O	1.329847	0.164941	0.050492
O5	O	1.349750	-0.000791	-0.050582
O6	O	1.174518	0.086104	-0.050563
O7	O	1.505048	0.078060	-0.050577
Cu8	Cu	1.339780	0.082083	-0.059797
Cu9	Cu	1.339818	0.082068	0.059707
O10	O	1.329816	0.164954	-0.050558
C11	C	1.132254	0.085592	-0.000036
C12	C	1.006276	0.084080	-0.000030
C13	C	1.349258	-0.022016	-0.000058
C14	C	1.347732	-0.085242	-0.000063
C15	C	0.775630	0.081299	-0.000048
C16	C	0.903978	0.082844	-0.000038
C17	C	1.441858	-0.483788	-0.000033
C18	C	1.440440	-0.543196	-0.000029
O19	O	1.527696	-0.579424	-0.000010
N20	N	1.336265	-0.566440	-0.000025
C21	C	1.233500	-0.530271	-0.000019
O22	O	1.144761	-0.555497	-0.000014
C23	C	1.234919	-0.470864	-0.000019
C24	C	1.339102	-0.447624	-0.000030
C25	C	1.546032	-0.460547	-0.000043
C26	C	1.547449	-0.401142	-0.000049
C27	C	1.444693	-0.364979	-0.000045
C28	C	1.340519	-0.388219	-0.000035
C29	C	1.132156	-0.434696	-0.000009
C30	C	1.133584	-0.375285	-0.000009
C31	C	1.237766	-0.352045	-0.000019
C32	C	1.239180	-0.292651	-0.000037
N33	N	1.343355	-0.269407	-0.000041
C34	C	1.446112	-0.305571	-0.000045
C35	C	1.230528	-0.655031	-0.000017
C36	C	1.229108	-0.714438	-0.000021
C37	C	1.436049	-0.727359	-0.000030
C38	C	1.437468	-0.667951	-0.000030
C39	C	1.334704	-0.631788	-0.000021
C40	C	1.449080	-0.180817	-0.000058
C41	C	1.450489	-0.121406	-0.000066
C42	C	1.243549	-0.108491	-0.000054
C43	C	1.242140	-0.167896	-0.000049
C44	C	1.344915	-0.204058	-0.000049
O45	O	1.151970	-0.256388	-0.000053
O46	O	1.534837	-0.280337	-0.000042
C47	C	1.547343	0.078558	-0.000053
C48	C	1.673321	0.080071	-0.000054
C49	C	1.330339	0.186167	-0.000030
C50	C	1.331865	0.249393	-0.000022
N51	N	1.339762	0.082094	-0.143849
C52	C	1.417415	0.043596	-0.563637
C53	C	1.417420	0.043592	-0.627245
O54	O	1.483398	0.010868	-0.660143
N55	N	1.339817	0.082056	-0.659056
C56	C	1.262196	0.120522	-0.627257
O57	O	1.196188	0.153237	-0.660156
C58	C	1.262186	0.120522	-0.563651
C59	C	1.339802	0.082060	-0.531842
C60	C	1.495024	0.005137	-0.531828
C61	C	1.495019	0.005142	-0.468225
C62	C	1.417406	0.043606	-0.436431
C63	C	1.339798	0.082065	-0.468239
C64	C	1.184560	0.158985	-0.531853
C65	C	1.184557	0.158982	-0.468242
C66	C	1.262173	0.120520	-0.436433
C67	C	1.262181	0.120534	-0.372841
N68	N	1.339784	0.082071	-0.341029
C69	C	1.417397	0.043606	-0.372824
C70	C	1.262221	0.120517	-0.760835
C71	C	1.262235	0.120519	-0.824440
C72	C	1.417459	0.043589	-0.824423
C73	C	1.417449	0.043590	-0.760817
C74	C	1.339824	0.082053	-0.729023
C75	C	1.417383	0.043620	-0.239253
C76	C	1.417375	0.043629	-0.175644
C77	C	1.262148	0.120557	-0.175666
C78	C	1.262159	0.120550	-0.239270
C79	C	1.339781	0.082076	-0.271061
O80	O	1.196233	0.153240	-0.339902
O81	O	1.483383	0.010891	-0.339917
N82	N	1.339845	0.082053	0.143760
H83	H	1.532770	-0.210254	-0.000056
H84	H	1.629714	-0.489986	-0.000044
O85	O	1.129779	-0.192971	-0.000045
H86	H	1.080454	-0.178469	0.041145
H87	H	1.199012	0.151843	-0.734952
H88	H	1.198959	0.151876	-0.149769
O89	O	1.178458	0.162036	-0.273585
H90	H	1.090072	0.154477	-0.261382
H91	H	1.522302	-0.649034	-0.000038
H92	H	1.480583	0.012309	-0.149747
H93	H	1.519719	-0.756814	-0.000031
O94	O	1.132720	-0.069481	-0.000049
H95	H	1.151219	-0.024268	-0.000048
H96	H	1.144273	-0.733354	-0.000023
H97	H	1.535330	-0.102488	-0.000076
H98	H	1.121358	0.190304	-0.557742
O99	O	1.501174	0.002097	-0.858718
H100	H	1.453715	-0.025746	-0.887695
H101	H	1.558218	-0.026179	-0.442331
O102	O	1.119680	-0.616030	-0.000025
H103	H	1.069795	-0.624338	0.041159
O104	O	1.659817	-0.376079	-0.000043
H105	H	1.731022	-0.411214	-0.000034
O106	O	1.019787	-0.459754	0.000004
H107	H	0.948585	-0.424618	0.000015
H108	H	1.558225	-0.026188	-0.557710
H109	H	1.049899	-0.345843	-0.000001
H110	H	1.480588	0.012290	-0.265130
H111	H	1.480650	0.012270	-0.734922
H112	H	1.199045	0.151844	-0.850334
H113	H	1.121342	0.190304	-0.442358
