data_functionalizedCrystal
_audit_creation_method	'MofGen! by Chris Wilmer'
_symmetry_space_group_name_H-M	'P1'
_symmetry_Int_Tables_number	1
_symmetry_cell_setting	triclinic
loop_
_symmetry_equiv_pos_as_xyz
  x,y,z
_cell_length_a	6.817900
_cell_length_b	11.102244
_cell_length_c	17.982968
_cell_angle_alpha	94.232195
_cell_angle_beta	102.451960
_cell_angle_gamma	108.604870
loop_
_atom_site_label
_atom_site_type_symbol
_atom_site_fract_x
_atom_site_fract_y
_atom_site_fract_z
V1	V	-4.041367	-0.177029	-0.237546
O2	O	-4.001741	0.007282	-0.233027
O3	O	-4.018618	-0.349840	-0.235920
O4	O	-3.987550	-0.174843	-0.341150
O5	O	-4.033024	-0.168927	-0.127068
V6	V	-4.522373	-0.154920	-0.224333
O7	O	-4.308146	-0.225527	-0.266532
O8	O	-4.705791	-0.106421	-0.195347
O9	O	-4.321915	0.017892	-0.225959
O10	O	-4.679396	-0.339231	-0.228853
O11	O	-4.648112	-0.163022	-0.334811
O12	O	-4.352983	-0.157105	-0.120730
C13	C	-3.870034	-0.391951	-0.232172
C14	C	-3.932685	-0.533230	-0.231533
C15	C	-3.922552	-0.581114	-0.161465
C16	C	-3.981432	-0.713863	-0.160873
C17	C	-4.060567	-0.750835	-0.300423
C18	C	-4.001702	-0.618088	-0.301014
C19	C	-3.876856	-0.559769	-0.080897
C20	C	-3.935736	-0.692519	-0.080305
C21	C	-3.830402	-0.168724	-0.366402
C22	C	-3.867854	-0.168080	-0.451098
C23	C	-4.068315	-0.174146	-0.494770
C24	C	-4.103492	-0.173541	-0.574350
C25	C	-3.938211	-0.166878	-0.610259
C26	C	-3.737732	-0.160808	-0.566581
C27	C	-3.702553	-0.161404	-0.487001
C28	C	-3.879603	-0.158401	-0.887518
C29	C	-3.914801	-0.157809	-0.967104
C30	C	-4.280542	-0.170538	-0.974867
C31	C	-4.245363	-0.171134	-0.895287
C32	C	-4.044885	-0.165057	-0.851616
C33	C	-4.006742	-0.165711	-0.765325
C34	C	-3.976356	-0.166233	-0.696549
C35	C	-4.133842	0.059996	-0.229705
C36	C	-4.050429	0.201274	-0.230349
C37	C	-4.173474	-0.163229	-0.095473
C38	C	-4.115259	-0.163866	-0.010776
H39	H	-4.084687	-0.732209	-0.058129
F40	F	-4.012521	-0.567134	-0.375590
F41	F	-4.421283	-0.178232	-0.857076
F42	F	-4.244241	-0.181246	-0.456561
F43	F	-4.493910	-0.177000	-1.021352
H44	H	-3.793759	-0.715367	-0.046297
H45	H	-3.983743	-0.520534	-0.053038
F46	F	-4.134024	-0.841157	-0.374365
F47	F	-3.561828	-0.153716	-0.604799
F48	F	-3.738873	-0.150716	-1.005318
F49	F	-3.666254	-0.151960	-0.841052
F50	F	-3.489192	-0.154938	-0.440522
F51	F	-4.316854	-0.180010	-0.620827
H52	H	-3.699556	-0.506828	-0.053071
