data_functionalizedCrystal
_audit_creation_method	'MofGen! by Chris Wilmer'
_symmetry_space_group_name_H-M	'P1'
_symmetry_Int_Tables_number	1
_symmetry_cell_setting	triclinic
loop_
_symmetry_equiv_pos_as_xyz
  x,y,z
_cell_length_a	14.809374
_cell_length_b	21.606444
_cell_length_c	14.809374
_cell_angle_alpha	67.427760
_cell_angle_beta	91.387536
_cell_angle_gamma	52.845983
loop_
_atom_site_label
_atom_site_type_symbol
_atom_site_fract_x
_atom_site_fract_y
_atom_site_fract_z
Zr1	Zr	0.992058	0.526530	-0.008484
O2	O	0.846094	0.655650	-0.154440
O3	O	1.036805	0.397411	0.036255
O4	O	1.058046	0.497765	-0.133203
O5	O	0.808097	0.577986	0.148694
O6	O	1.225234	0.475074	-0.116448
O7	O	0.824854	0.555296	0.015019
O8	O	1.187239	0.295559	0.186682
O9	O	0.846092	0.757502	-0.154435
O10	O	1.180658	0.433586	0.067845
O11	O	1.043382	0.467453	0.155101
O12	O	1.068389	0.585608	-0.044414
O13	O	0.931113	0.619475	0.042842
Zr14	Zr	1.231979	0.526530	0.231436
Zr15	Zr	1.258704	0.490342	0.018239
Zr16	Zr	0.965332	0.562719	0.204713
Zr17	Zr	0.992054	0.688972	-0.008478
Zr18	Zr	1.231982	0.364089	0.231430
O19	O	1.187231	0.655650	0.186697
O20	O	1.225231	0.604194	-0.116442
O21	O	0.808094	0.707106	0.148700
O22	O	1.377942	0.397411	0.377391
O23	O	1.415942	0.345955	0.074252
O24	O	0.998805	0.448867	0.339394
O25	O	1.415939	0.475074	0.074257
O26	O	1.165990	0.555296	0.356155
O27	O	0.998802	0.577986	0.339400
O28	O	1.399182	0.497765	0.207933
O29	O	1.058040	0.728736	-0.133194
O30	O	1.165996	0.324324	0.356146
O31	O	1.377944	0.295559	0.377387
O32	O	1.399187	0.266794	0.207924
O33	O	0.824849	0.786267	0.015028
O34	O	1.036797	0.757502	0.036270
O35	O	1.155647	0.467453	0.267366
O36	O	1.292923	0.433586	0.180110
O37	O	1.180655	0.585608	0.067851
O38	O	1.043378	0.619475	0.155107
C39	C	1.112023	0.323340	0.111468
C40	C	1.112024	0.254380	0.111465
C41	C	1.183679	0.204304	0.065916
C42	C	1.183682	0.139504	0.065923
C43	C	1.112024	0.124787	0.111473
C44	C	1.040367	0.174867	0.157028
C45	C	1.040371	0.239660	0.157027
C46	C	1.040351	-0.086439	0.157035
C47	C	1.040350	-0.151237	0.157030
C48	C	1.183663	-0.186595	0.065931
C49	C	1.183667	-0.121802	0.065930
C50	C	1.112015	-0.071731	0.111490
C51	C	1.112013	-0.001469	0.111483
C52	C	1.112018	0.054531	0.111474
C53	C	0.778484	0.571797	0.078049
C54	C	0.665286	0.587160	0.066704
C55	C	0.670511	0.518597	0.117335
C56	C	0.553516	0.534474	0.105610
C57	C	1.445552	0.481264	0.144903
C58	C	1.558751	0.465900	0.156248
C59	C	1.145448	0.481264	-0.155202
C60	C	1.156794	0.465900	-0.245709
C61	C	1.112014	0.729720	0.111484
C62	C	1.112012	0.798681	0.111487
C63	C	1.106159	0.534464	-0.341749
C64	C	1.117884	0.518587	-0.435295
C65	C	1.078588	0.571797	0.378153
C66	C	1.067243	0.587160	0.468661
C67	C	1.445557	0.278074	0.144895
C68	C	1.558757	0.193750	0.156236
C69	C	1.078593	0.368607	0.378145
C70	C	1.067249	0.315010	0.468650
C71	C	1.412127	0.323340	0.411572
C72	C	1.513981	0.254380	0.513422
C73	C	0.811909	0.729720	-0.188620
C74	C	0.710055	0.798681	-0.290470
C75	C	0.778479	0.774987	0.078057
C76	C	0.665279	0.859311	0.066715
C77	C	1.145443	0.684454	-0.155193
C78	C	1.156787	0.738051	-0.245698
C79	C	1.553317	0.154149	0.102953
C80	C	1.659672	0.074924	0.113589
C81	C	1.771466	0.035299	0.177515
C82	C	1.776904	0.074907	0.230800
C83	C	1.670550	0.154133	0.220158
C84	C	1.120522	0.289841	0.569763
C85	C	1.109857	0.239491	0.654809
C86	C	1.045926	0.214306	0.638742
C87	C	0.992646	0.239480	0.537619
C88	C	1.003304	0.289834	0.452574
C89	C	1.633481	0.204315	0.515706
C90	C	1.729195	0.139525	0.611398
C91	C	1.705407	0.124797	0.704804
C92	C	1.585895	0.174870	0.702517
C93	C	1.490183	0.239662	0.606826
C94	C	0.590555	0.848754	-0.292754
C95	C	0.494841	0.913564	-0.388446
C96	C	0.518629	0.928295	-0.481852
C97	C	0.638142	0.878218	-0.479565
C98	C	0.733853	0.813414	-0.383874
C99	C	0.670721	0.898917	0.119990
C100	C	0.564368	0.978156	0.109331
C101	C	0.452574	1.017783	0.045402
C102	C	0.447136	0.978172	-0.007880
C103	C	0.553488	0.898939	0.002775
C104	C	1.220727	0.763220	-0.229598
C105	C	1.231409	0.813570	-0.314627
C106	C	1.178144	0.838756	-0.415755
C107	C	1.114202	0.813582	-0.431854
C108	C	1.103528	0.763227	-0.346825
H109	H	1.242013	-0.109819	0.028835
H110	H	0.549041	0.866695	-0.040607
O111	O	0.791160	0.425268	0.186256
H112	H	0.805818	0.380608	0.157270
H113	H	0.657497	0.890222	-0.555628
O114	O	1.260967	0.085501	0.016788
H115	H	1.326378	0.013179	0.076574
H116	H	1.015211	0.657619	-0.544315
H117	H	0.462427	0.604933	0.053583
O118	O	1.225747	0.372569	-0.228521
H119	H	1.261072	0.324757	-0.143938
H120	H	1.566543	0.162868	0.778581
H121	H	0.571163	0.836766	-0.216708
H122	H	1.392883	0.280419	0.604980
O123	O	0.544632	0.680488	-0.002211
H124	H	0.558600	0.728298	-0.037511
H125	H	0.440684	0.981065	-0.559762
O126	O	0.570256	1.020855	0.166820
H127	H	0.477529	1.082615	0.148671
H128	H	1.655221	0.042686	0.070195
O129	O	1.432747	0.196886	0.033990
H130	H	1.446853	0.156036	-0.001280
H131	H	0.649838	0.395442	0.208282
H132	H	0.982028	0.162874	0.194122
O133	O	1.186808	0.425253	-0.418092
H134	H	1.185194	0.427429	-0.494266
O135	O	1.056778	0.840718	-0.540921
H136	H	0.957758	0.882352	-0.559621
O137	O	0.963080	0.293680	0.206147
H138	H	0.913241	0.272569	0.237811
O139	O	1.300373	0.840717	-0.297243
H140	H	1.298870	0.879953	-0.373350
O141	O	0.862750	0.759416	-0.381400
H142	H	0.909800	0.687090	-0.339980
H143	H	1.051457	0.742741	-0.359950
H144	H	1.054134	0.604917	-0.354716
O145	O	1.278189	0.736058	-0.120529
H146	H	1.344994	0.661811	-0.072085
H147	H	1.242010	-0.227374	0.028839
O148	O	0.365946	0.967553	-0.390902
H149	H	0.365495	0.946401	-0.309872
O150	O	1.886173	-0.050158	0.188999
H151	H	1.863596	-0.071037	0.141212
O152	O	1.189658	0.893074	-0.507457
H153	H	1.141884	0.906360	-0.580488
H154	H	1.867941	0.042632	0.282848
O155	O	0.791294	0.856194	0.188929
H156	H	0.777192	0.897066	0.224162
H157	H	0.356099	1.010449	-0.059931
O158	O	0.337864	1.103223	0.033946
H159	H	0.360439	1.124089	0.081755
O160	O	0.963034	-0.167098	0.206136
H161	H	0.913208	-0.121394	0.237814
H162	H	1.242025	0.216284	0.028819
O163	O	1.676421	0.196834	0.277649
H164	H	1.772028	0.155957	0.323896
O165	O	1.808644	0.054902	0.808012
H166	H	1.895733	0.022560	0.793897
O167	O	0.963054	-0.032433	0.206158
H168	H	0.897666	0.039889	0.146369
H169	H	1.172580	0.310342	0.582865
H170	H	1.153250	0.219000	0.737141
O171	O	1.034458	0.159977	0.730476
H172	H	1.082263	0.146699	0.803484
H173	H	0.940594	0.218967	0.524552
H174	H	0.959926	0.310318	0.370247
H175	H	1.652873	0.216294	0.439660
H176	H	1.826500	0.098760	0.613242
