data_functionalizedCrystal
_audit_creation_method	'MofGen! by Chris Wilmer'
_symmetry_space_group_name_H-M	'P1'
_symmetry_Int_Tables_number	1
_symmetry_cell_setting	triclinic
loop_
_symmetry_equiv_pos_as_xyz
  x,y,z
_cell_length_a	19.805407
_cell_length_b	16.959454
_cell_length_c	19.805399
_cell_angle_alpha	89.978568
_cell_angle_beta	90.017803
_cell_angle_gamma	89.979748
loop_
_atom_site_label
_atom_site_type_symbol
_atom_site_fract_x
_atom_site_fract_y
_atom_site_fract_z
Zn1	Zn	1.034752	0.314756	0.382717
Zn2	Zn	1.534752	0.814756	0.882717
Zn3	Zn	1.034674	0.446939	0.269540
Zn4	Zn	1.534674	0.946939	0.769540
Zn5	Zn	0.921567	0.314772	0.269545
Zn6	Zn	1.421567	0.814772	0.769545
Zn7	Zn	0.921537	0.446891	0.382691
Zn8	Zn	1.421537	0.946891	0.882691
O9	O	0.978132	0.380840	0.326123
O10	O	1.478132	0.880840	0.826123
O11	O	1.129458	0.332304	0.367713
O12	O	1.629458	0.832304	0.867713
O13	O	1.019649	0.429433	0.174824
O14	O	1.519649	0.929433	0.674824
O15	O	0.936626	0.204159	0.284570
O16	O	1.436626	0.704159	0.784570
O17	O	1.129401	0.429418	0.284563
O18	O	1.629401	0.929418	0.784563
O19	O	1.019783	0.204148	0.367717
O20	O	1.519783	0.704148	0.867717
O21	O	0.936550	0.332331	0.174828
O22	O	1.436550	0.832331	0.674828
O23	O	0.826846	0.332284	0.284545
O24	O	1.326846	0.832284	0.784545
O25	O	0.936576	0.429336	0.477411
O26	O	1.436576	0.929336	0.977411
O27	O	0.826824	0.429351	0.367673
O28	O	1.326824	0.929351	0.867673
O29	O	1.019754	0.332258	0.477430
O30	O	1.519754	0.832258	0.977430
O31	O	1.019621	0.557543	0.284538
O32	O	1.519621	1.057543	0.784538
O33	O	0.936500	0.557508	0.367669
O34	O	1.436500	1.057508	0.867669
C35	C	0.802276	0.380815	0.326107
C36	C	1.302276	0.880815	0.826107
C37	C	0.727044	0.380823	0.326116
C38	C	1.227044	0.880823	0.826116
C39	C	0.691731	0.330345	0.369478
C40	C	1.191731	0.830345	0.869478
C41	C	0.621042	0.330350	0.369480
C42	C	1.121042	0.830350	0.869480
C43	C	0.585669	0.380836	0.326124
C44	C	1.085669	0.880836	0.826124
C45	C	0.620987	0.431316	0.282757
C46	C	1.120987	0.931316	0.782757
C47	C	0.691674	0.431307	0.282751
C48	C	1.191674	0.931307	0.782751
C49	C	0.335914	0.431352	0.282778
C50	C	0.835914	0.931352	0.782778
C51	C	0.265222	0.431358	0.282788
C52	C	0.765222	0.931358	0.782788
C53	C	0.265282	0.330394	0.369507
C54	C	0.765282	0.830394	0.869507
C55	C	0.335969	0.330385	0.369501
C56	C	0.835969	0.830385	0.869501
C57	C	0.371281	0.380862	0.326132
C58	C	0.871281	0.880862	0.826132
C59	C	0.447930	0.380856	0.326129
C60	C	0.947930	0.880856	0.826129
C61	C	0.509022	0.380847	0.326130
C62	C	1.009022	0.880847	0.826130
C63	C	0.978067	0.586206	0.326115
C64	C	1.478067	1.086206	0.826115
C65	C	0.978101	0.674062	0.326133
C66	C	1.478101	1.174062	0.826133
C67	C	0.934886	1.045549	0.369414
C68	C	1.434886	1.545549	0.869414
C69	C	1.021511	1.045526	0.282920
C70	C	1.521511	1.545526	0.782920
C71	C	1.021491	0.962981	0.282912
C72	C	1.521491	1.462981	0.782912
C73	C	0.978167	0.921715	0.326156
C74	C	1.478167	1.421715	0.826156
C75	C	0.934863	0.962996	0.369407
C76	C	1.434863	1.462996	0.869407
C77	C	1.064789	0.921694	0.239658
C78	C	1.564789	1.421694	0.739658
C79	C	1.064770	0.839143	0.239648
C80	C	1.564770	1.339143	0.739648
C81	C	1.021449	0.797876	0.282895
C82	C	1.521449	1.297876	0.782895
C83	C	0.978144	0.839162	0.326148
C84	C	1.478144	1.339162	0.826148
C85	C	0.934820	0.797897	0.369392
C86	C	1.434820	1.297897	0.869392
C87	C	0.891518	0.839181	0.412649
C88	C	1.391518	1.339181	0.912649
C89	C	0.891542	0.921729	0.412654
C90	C	1.391542	1.421729	0.912654
C91	C	1.021425	0.715328	0.282890
C92	C	1.521425	1.215328	0.782890
C93	C	0.934797	0.715343	0.369384
C94	C	1.434797	1.215343	0.869384
C95	C	1.154675	0.380865	0.326140
C96	C	1.654675	0.880865	0.826140
C97	C	1.229907	0.380876	0.326147
C98	C	1.729907	0.880876	0.826147
C99	C	0.978170	0.380790	0.502666
C100	C	1.478170	0.880790	1.002666
C101	C	0.978186	0.380769	0.577898
C102	C	1.478186	0.880769	1.077898
C103	C	0.978206	1.174671	0.326150
C104	C	1.478206	1.674671	0.826150
C105	C	0.978210	1.086815	0.326171
C106	C	1.478210	1.586815	0.826171
C107	C	0.978133	0.380832	0.150267
C108	C	1.478133	0.880832	0.650267
C109	C	0.978248	0.380631	0.075036
C110	C	1.478248	0.880631	0.575036
C111	C	1.021499	0.330217	0.613253
C112	C	1.521499	0.830217	1.113253
C113	C	1.021505	0.330194	0.683942
C114	C	1.521505	0.830194	1.183942
C115	C	0.978203	0.380727	0.719274
C116	C	1.478203	0.880727	1.219274
C117	C	0.934886	0.431281	0.683913
C118	C	1.434886	0.931281	1.183913
C119	C	0.934877	0.431299	0.613226
C120	C	1.434877	0.931299	1.113226
C121	C	0.934925	0.431207	0.968987
C122	C	1.434925	0.931207	1.468987
C123	C	0.934939	0.431186	1.039679
C124	C	1.434939	0.931186	1.539679
C125	C	1.021554	0.330102	1.039702
C126	C	1.521554	0.830102	1.539702
C127	C	1.021544	0.330121	0.969015
C128	C	1.521544	0.830121	1.469015
C129	C	0.978225	0.380671	0.933661
C130	C	1.478225	0.880671	1.433661
C131	C	0.978217	0.380694	0.857013
C132	C	1.478217	0.880694	1.357013
C133	C	0.978214	0.380709	0.795921
C134	C	1.478214	0.880709	1.295921
H135	H	0.364657	0.472454	0.247465
H136	H	0.864657	0.972454	0.747465
H137	H	1.100056	0.955298	0.204446
H138	H	1.600056	1.455298	0.704446
H139	H	0.899627	0.472423	0.712686
H140	H	1.399627	0.972423	1.212686
H141	H	1.056779	1.079129	0.247709
H142	H	1.556779	1.579129	0.747709
H143	H	1.100029	0.805534	0.204427
H144	H	1.600029	1.305534	0.704427
H145	H	0.592180	0.472419	0.247452
H146	H	1.092180	0.972419	0.747452
F147	F	1.067656	0.276299	1.077334
F148	F	1.567656	0.776299	1.577334
F149	F	1.067500	0.671394	0.236850
F150	F	1.567500	1.171394	0.736850
H151	H	1.056762	0.289070	0.584491
H152	H	1.556762	0.789070	1.084491
F153	F	0.729257	0.485033	0.236600
F154	F	1.229257	0.985033	0.736600
F155	F	0.888688	0.671432	0.415415
F156	F	1.388688	1.171432	0.915415
F157	F	1.067627	0.276418	0.721566
F158	F	1.567627	0.776418	1.221566
F159	F	1.067634	0.276340	0.931416
F160	F	1.567634	0.776340	1.431416
F161	F	0.888805	1.089486	0.415452
F162	F	1.388805	1.589486	0.915452
H163	H	0.236423	0.472472	0.247479
H164	H	0.736423	0.972472	0.747479
H165	H	0.856240	0.805573	0.447855
H166	H	1.356240	1.305573	0.947855
H167	H	0.856287	0.955350	0.447871
H168	H	1.356287	1.455350	0.947871
H169	H	0.364767	0.289277	0.404809
H170	H	0.864767	0.789277	0.904809
H171	H	0.236522	0.289290	0.404817
H172	H	0.736522	0.789290	0.904817
H173	H	0.899675	0.472338	1.068444
H174	H	1.399675	0.972338	1.568444
H175	H	0.899601	0.472455	0.584441
H176	H	1.399601	0.972455	1.084441
F177	F	0.729372	0.276614	0.415628
F178	F	1.229372	0.776614	0.915628
F179	F	0.583462	0.276626	0.415634
F180	F	1.083462	0.776626	0.915634
H181	H	0.899662	0.472380	0.940210
H182	H	1.399662	0.972380	1.440210
