data_functionalizedCrystal
_audit_creation_method	'MofGen! by Chris Wilmer'
_symmetry_space_group_name_H-M	'P1'
_symmetry_Int_Tables_number	1
_symmetry_cell_setting	triclinic
loop_
_symmetry_equiv_pos_as_xyz
  x,y,z
_cell_length_a	6.817900
_cell_length_b	15.301126
_cell_length_c	16.305550
_cell_angle_alpha	95.166946
_cell_angle_beta	103.455250
_cell_angle_gamma	104.177575
loop_
_atom_site_label
_atom_site_type_symbol
_atom_site_fract_x
_atom_site_fract_y
_atom_site_fract_z
V1	V	-4.029811	-0.125521	-0.263289
O2	O	-4.013692	0.005249	-0.258014
O3	O	-3.984745	-0.248133	-0.261742
O4	O	-3.981172	-0.123933	-0.378003
O5	O	-4.017289	-0.119811	-0.140948
V6	V	-4.513038	-0.109838	-0.248625
O7	O	-4.291719	-0.159920	-0.295456
O8	O	-4.701327	-0.075438	-0.216459
O9	O	-4.334898	0.012774	-0.250172
O10	O	-4.646554	-0.240608	-0.253901
O11	O	-4.642956	-0.115548	-0.370967
O12	O	-4.338470	-0.111426	-0.133912
C13	C	-3.830564	-0.278012	-0.257654
C14	C	-3.875002	-0.378252	-0.257154
C15	C	-4.078108	-0.429950	-0.261137
C16	C	-4.119853	-0.524136	-0.260672
C17	C	-3.958486	-0.566622	-0.256218
C18	C	-3.755365	-0.514917	-0.252238
C19	C	-3.713626	-0.420734	-0.252709
C20	C	-3.842374	-0.711225	-0.251254
C21	C	-3.884115	-0.805415	-0.250781
C22	C	-4.248601	-0.814627	-0.259217
C23	C	-4.206862	-0.720444	-0.259688
C24	C	-4.003742	-0.668746	-0.255706
C25	C	-3.826006	-0.119582	-0.405955
C26	C	-3.867544	-0.119096	-0.499736
C27	C	-4.018577	-0.117211	-0.840478
C28	C	-3.782370	-0.111616	-0.799538
C29	C	-3.739201	-0.112495	-0.702045
C30	C	-3.943646	-0.118146	-0.671432
C31	C	-4.113209	-0.207200	-0.722241
C32	C	-4.155058	-0.206697	-0.819790
C33	C	-4.070982	-0.034464	-0.794464
C34	C	-4.023032	-0.033759	-0.696620
C35	C	-3.901311	-0.118677	-0.575895
C36	C	-4.060921	-0.116686	-0.936016
C37	C	-4.152420	0.042649	-0.254258
C38	C	-4.087220	0.142887	-0.254764
C39	C	-4.156979	-0.115779	-0.105955
C40	C	-4.094679	-0.116261	-0.012173
H41	H	-3.610885	-0.048466	-0.666890
N42	N	-4.385608	-0.217036	-0.856894
H43	H	-4.470576	-0.276562	-0.845630
H44	H	-4.414376	-0.216749	-0.920478
H45	H	-3.623983	-0.549518	-0.248617
H46	H	-3.674404	-0.047284	-0.811769
H47	H	-3.548241	-0.378643	-0.249470
H48	H	-4.120692	-0.269339	-0.850300
N49	N	-3.947388	0.054919	-0.811986
H50	H	-3.856167	0.042675	-0.849935
H51	H	-3.856159	0.093446	-0.756299
H52	H	-3.738968	-0.171067	-0.831172
H53	H	-3.676979	-0.669137	-0.248018
N54	N	-3.653385	-0.192127	-0.680610
H55	H	-3.643506	-0.226800	-0.734532
H56	H	-3.749874	-0.233979	-0.653415
N57	N	-4.316369	-0.216952	-0.697219
H58	H	-4.300406	-0.163608	-0.652598
H59	H	-4.352367	-0.275651	-0.673224
H60	H	-4.413984	-0.856722	-0.262446
H61	H	-4.338262	-0.685854	-0.263309
N62	N	-3.860194	0.053491	-0.650914
H63	H	-3.834159	0.054794	-0.587194
H64	H	-3.912231	0.107481	-0.667430
H65	H	-3.752726	-0.840008	-0.247180
N66	N	-4.042164	-0.290205	-0.700146
H67	H	-3.900271	-0.270321	-0.657262
H68	H	-4.031950	-0.325756	-0.753533
H69	H	-4.209513	-0.395363	-0.264755
N70	N	-4.217994	-0.032242	-0.668282
H71	H	-4.257814	-0.086484	-0.638592
H72	H	-4.336608	-0.035085	-0.719726
N73	N	-4.299012	-0.038825	-0.829990
H74	H	-4.390186	-0.097751	-0.820382
H75	H	-4.327679	-0.036117	-0.893197
N76	N	-4.338918	-0.579897	-0.264970
H77	H	-4.434805	-0.538690	-0.267858
H78	H	-4.336642	-0.610268	-0.212401
