data_functionalizedCrystal
_audit_creation_method	'MofGen! by Chris Wilmer'
_symmetry_space_group_name_H-M	'P1'
_symmetry_Int_Tables_number	1
_symmetry_cell_setting	triclinic
loop_
_symmetry_equiv_pos_as_xyz
  x,y,z
_cell_length_a	10.967926
_cell_length_b	23.532357
_cell_length_c	10.065875
_cell_angle_alpha	98.726510
_cell_angle_beta	93.120479
_cell_angle_gamma	83.791997
loop_
_atom_site_label
_atom_site_type_symbol
_atom_site_fract_x
_atom_site_fract_y
_atom_site_fract_z
O1	O	1.611670	0.099285	0.265538
O2	O	1.261606	0.100911	0.183202
O3	O	1.447221	0.017420	0.226888
O4	O	1.426055	0.182777	0.221853
O5	O	1.411826	0.033407	0.445546
O6	O	1.226211	0.116899	0.401861
O7	O	1.576275	0.115273	0.484197
Zn8	Zn	1.395623	0.118624	0.477746
Zn9	Zn	1.442258	0.097560	0.189654
O10	O	1.390660	0.198764	0.440512
C11	C	1.199131	0.107579	0.282000
C12	C	1.065710	0.103620	0.250621
C13	C	0.987890	0.110137	0.349902
C14	C	0.849992	0.106045	0.317472
C15	C	1.428994	0.004185	0.336096
C16	C	1.427399	-0.059071	0.335734
C17	C	1.436707	-0.460042	0.214121
C18	C	1.435195	-0.519478	0.213758
O19	O	1.450780	-0.557625	0.112197
N20	N	1.415151	-0.540492	0.332770
C21	C	1.396605	-0.502066	0.452151
O22	O	1.379416	-0.525398	0.553347
C23	C	1.398109	-0.442631	0.452511
C24	C	1.418167	-0.421621	0.333494
C25	C	1.456762	-0.439030	0.095113
C26	C	1.458277	-0.379598	0.095478
C27	C	1.439737	-0.341177	0.214850
C28	C	1.419682	-0.362189	0.333858
C29	C	1.379556	-0.404206	0.571889
C30	C	1.381061	-0.344767	0.572238
C31	C	1.401119	-0.323757	0.453221
C32	C	1.402656	-0.264336	0.453595
N33	N	1.422701	-0.243321	0.334583
C34	C	1.441241	-0.281742	0.215210
C35	C	1.393446	-0.626885	0.451385
C36	C	1.391950	-0.686320	0.451029
C37	C	1.430538	-0.703727	0.212634
C38	C	1.432042	-0.644292	0.212994
C39	C	1.413490	-0.605871	0.332373
C40	C	1.444421	-0.156930	0.215985
C41	C	1.445939	-0.097492	0.216362
C42	C	1.407346	-0.080090	0.454754
C43	C	1.405834	-0.139523	0.454380
C44	C	1.424369	-0.177942	0.334984
O45	O	1.387076	-0.226154	0.555103
O46	O	1.458411	-0.258401	0.114028
C47	C	1.638750	0.108605	0.385396
C48	C	1.772173	0.112564	0.416767
C49	C	1.408888	0.211999	0.331300
C50	C	1.410484	0.275254	0.331654
N51	N	1.363805	0.133000	0.674363
N52	N	1.474086	0.083180	-0.006961
C53	C	1.431180	0.102558	0.757998
C54	C	1.406701	0.113626	0.909404
H55	H	1.462276	-0.080389	0.119440
O56	O	0.803051	0.094637	0.173060
H57	H	0.735659	0.131085	0.151343
O58	O	1.373469	-0.585450	0.580163
H59	H	1.282001	-0.589350	0.617993
H60	H	1.330887	0.147883	0.949882
O61	O	1.384223	-0.162181	0.582761
H62	H	1.464552	-0.192179	0.607576
H63	H	1.471856	-0.470308	-0.002101
H64	H	1.549891	0.048919	0.952559
H65	H	1.392256	-0.048797	0.551945
O66	O	1.018731	0.092210	0.106229
H67	H	1.063163	0.050182	0.057341
H68	H	1.474605	-0.362498	-0.001440
O69	O	1.531562	0.057162	0.704383
H70	H	1.535023	0.055586	0.593873
H71	H	1.363225	-0.421301	0.668806
O72	O	1.361056	-0.303331	0.701007
H73	H	1.365467	-0.258470	0.681274
O74	O	1.263393	0.178381	0.727971
H75	H	1.259931	0.179957	0.838481
O76	O	1.450505	-0.745167	0.083861
H77	H	1.532667	-0.776009	0.097246
O78	O	1.034848	0.121544	0.494302
H79	H	1.135789	0.122973	0.497113
O80	O	0.819113	0.123976	0.561178
H81	H	0.886519	0.087534	0.582900
O82	O	1.464402	-0.198363	0.087211
H83	H	1.478604	-0.173759	0.004530
O84	O	1.453654	-0.621630	0.084624
H85	H	1.466283	-0.658337	0.001561
O86	O	1.370338	-0.708982	0.579398
H87	H	1.279437	-0.690063	0.617346
