data_functionalizedCrystal
_audit_creation_method	'MofGen! by Chris Wilmer'
_symmetry_space_group_name_H-M	'P1'
_symmetry_Int_Tables_number	1
_symmetry_cell_setting	triclinic
loop_
_symmetry_equiv_pos_as_xyz
  x,y,z
_cell_length_a	18.101389
_cell_length_b	12.827893
_cell_length_c	12.827892
_cell_angle_alpha	89.986398
_cell_angle_beta	89.985749
_cell_angle_gamma	90.018746
loop_
_atom_site_label
_atom_site_type_symbol
_atom_site_fract_x
_atom_site_fract_y
_atom_site_fract_z
Zn1	Zn	-0.418750	-1.597646	-0.416193
Zn2	Zn	0.081250	-1.097646	0.083807
Zn3	Zn	-0.294917	-1.597547	-0.590923
Zn4	Zn	0.205083	-1.097547	-0.090923
Zn5	Zn	-0.294923	-1.422895	-0.416191
Zn6	Zn	0.205077	-0.922895	0.083809
Zn7	Zn	-0.418718	-1.422873	-0.590887
Zn8	Zn	0.081282	-0.922873	-0.090887
O9	O	-0.356827	-1.510240	-0.503548
O10	O	0.143173	-1.010240	-0.003548
O11	O	-0.402334	-1.743869	-0.439387
O12	O	0.097666	-1.243869	0.060613
O13	O	-0.191285	-1.574347	-0.567758
O14	O	0.308715	-1.074347	-0.067758
O15	O	-0.311365	-1.446126	-0.269955
O16	O	0.188635	-0.946126	0.230045
O17	O	-0.311355	-1.743796	-0.567760
O18	O	0.188645	-1.243796	-0.067760
O19	O	-0.402340	-1.574516	-0.269956
O20	O	0.097660	-1.074516	0.230044
O21	O	-0.191289	-1.446030	-0.439383
O22	O	0.308711	-0.946030	0.060617
O23	O	-0.311334	-1.276656	-0.439349
O24	O	0.188666	-0.776656	0.060651
O25	O	-0.522355	-1.446089	-0.567699
O26	O	-0.022355	-0.946089	-0.067699
O27	O	-0.402285	-1.276640	-0.567697
O28	O	0.097715	-0.776640	-0.067697
O29	O	-0.522379	-1.574495	-0.439352
O30	O	-0.022379	-1.074495	0.060648
O31	O	-0.311324	-1.574326	-0.737154
O32	O	0.188676	-1.074326	-0.237154
O33	O	-0.402280	-1.445993	-0.737128
O34	O	0.097720	-0.945993	-0.237128
C35	C	-0.356807	-1.238730	-0.503520
C36	C	0.143193	-0.738730	-0.003520
C37	C	-0.356816	-1.122577	-0.503533
C38	C	0.143184	-0.622577	-0.003533
C39	C	-0.401760	-0.950768	-0.567153
C40	C	0.098240	-0.450768	-0.067153
C41	C	-0.401751	-1.070818	-0.567141
C42	C	0.098249	-0.570818	-0.067141
C43	C	-0.549989	-1.510301	-0.503522
C44	C	-0.049989	-1.010301	-0.003522
C45	C	-0.632303	-1.510326	-0.503510
C46	C	-0.132303	-1.010326	-0.003510
C47	C	-0.931394	-1.510387	-0.503315
C48	C	-0.431394	-1.010387	-0.003315
C49	C	-0.900054	-1.429320	-0.583810
C50	C	-0.400054	-0.929320	-0.083810
C51	C	-0.814436	-1.429539	-0.584184
C52	C	-0.314436	-0.929539	-0.084184
C53	C	-0.783012	-1.510356	-0.503412
C54	C	-0.283012	-1.010356	-0.003412
C55	C	-0.814111	-1.620466	-0.533308
C56	C	-0.314111	-1.120466	-0.033308
C57	C	-0.899756	-1.620014	-0.533836
C58	C	-0.399756	-1.120014	-0.033836
C59	C	-0.899815	-1.482302	-0.392744
C60	C	-0.399815	-0.982302	0.107256
C61	C	-0.814164	-1.479853	-0.393382
C62	C	-0.314164	-0.979853	0.106618
C63	C	-0.699152	-1.510345	-0.503465
C64	C	-0.199152	-1.010345	-0.003465
C65	C	-1.015254	-1.510405	-0.503264
C66	C	-0.515254	-1.010405	-0.003264
C67	C	-0.164417	-1.510240	-0.503499
C68	C	0.335583	-1.010240	-0.003499
C69	C	-0.082103	-1.510417	-0.503216
C70	C	0.417897	-1.010417	-0.003216
C71	C	-0.356814	-1.510175	-0.775058
C72	C	0.143186	-1.010175	-0.275058
C73	C	-0.356833	-1.510243	-0.891211
C74	C	0.143167	-1.010243	-0.391211
C75	C	-0.356842	-0.782810	-0.503569
C76	C	0.143158	-0.282810	-0.003569
C77	C	-0.356833	-0.898964	-0.503556
C78	C	0.143167	-0.398964	-0.003556
C79	C	-0.311875	-1.573821	-0.942974
C80	C	0.188125	-1.073821	-0.442974
C81	C	-0.311894	-1.573892	-1.063025
C82	C	0.188106	-1.073892	-0.563025
C83	C	-0.356856	-1.510334	-0.230978
C84	C	0.143144	-1.010334	0.269022
C85	C	-0.356869	-1.510374	-0.114825
C86	C	0.143131	-1.010374	0.385175
H87	H	-0.440227	-0.906243	-0.621613
H88	H	0.059773	-0.406243	-0.121613
N89	N	-0.263584	-1.642050	-0.887069
N90	N	0.236416	-1.142050	-0.387069
N91	N	-0.263642	-1.641903	-0.789627
N92	N	0.236358	-1.141903	-0.289627
H93	H	-0.229537	-1.690094	-0.750143
H94	H	0.270463	-1.190094	-0.250143
N95	N	-0.924849	-1.649878	-0.635224
N96	N	-0.424849	-1.149878	-0.135224
N97	N	-0.964437	-1.729006	-0.645965
N98	N	-0.464437	-1.229006	-0.145965
H99	H	-0.982158	-1.750097	-0.717572
H100	H	-0.482158	-1.250097	-0.217572
N101	N	-0.925888	-1.326579	-0.560600
N102	N	-0.425888	-0.826579	-0.060600
N103	N	-0.963110	-1.277507	-0.626375
N104	N	-0.463110	-0.777507	-0.126375
H105	H	-0.981360	-1.204943	-0.609985
H106	H	-0.481360	-0.704943	-0.109985
H107	H	-0.273402	-1.628321	-1.107540
H108	H	0.226598	-1.128321	-0.607540
N109	N	-0.927071	-1.452352	-0.685994
N110	N	-0.427071	-0.952352	-0.185994
N111	N	-0.969306	-1.528212	-0.699792
N112	N	-0.469306	-1.028212	-0.199792
H113	H	-0.988388	-1.544482	-0.771958
H114	H	-0.488388	-1.044482	-0.271958
H115	H	-0.395358	-1.455935	-1.070317
H116	H	0.104642	-0.955935	-0.570317
N117	N	-0.308582	-0.954811	-0.435220
N118	N	0.191418	-0.454811	0.064780
N119	N	-0.313609	-0.942722	-0.338793
N120	N	0.186391	-0.442722	0.161207
H121	H	-0.279533	-0.982162	-0.290526
H122	H	0.220467	-0.482162	0.209474
H123	H	-0.793957	-1.448083	-0.666142
H124	H	-0.293957	-0.948083	-0.166142
N125	N	-0.405128	-1.442019	-0.947118
N126	N	0.094872	-0.942019	-0.447118
N127	N	-0.378996	-1.375545	-1.008118
N128	N	0.121004	-0.875545	-0.508118
H129	H	-0.413105	-1.327360	-1.047602
H130	H	0.086895	-0.827360	-0.547602
H131	H	-0.793408	-1.347889	-0.565475
H132	H	-0.293408	-0.847889	-0.065475
N133	N	-0.925760	-1.698357	-0.463477
N134	N	-0.425760	-1.198357	0.036523
N135	N	-0.880653	-1.753196	-0.414145
N136	N	-0.380653	-1.253196	0.085855
H137	H	-0.899014	-1.808527	-0.364455
H138	H	-0.399014	-1.308527	0.135545
H139	H	-0.440219	-1.115369	-0.621584
H140	H	0.059781	-0.615369	-0.121584
H141	H	-0.318354	-1.078034	-0.449078
H142	H	0.181646	-0.578034	0.050922
N143	N	-0.787235	-1.650840	-0.633640
N144	N	-0.287235	-1.150840	-0.133640
N145	N	-0.831665	-1.668758	-0.706035
N146	N	-0.331665	-1.168758	-0.206035
H147	H	-0.812686	-1.690204	-0.776899
H148	H	-0.312686	-1.190204	-0.276899
H149	H	-0.793758	-1.682490	-0.476521
H150	H	-0.293758	-1.182490	0.023479
H151	H	-0.921405	-1.403405	-0.365506
H152	H	-0.421405	-0.903405	0.134494
H153	H	-0.793837	-1.398822	-0.370837
H154	H	-0.293837	-0.898822	0.129163
N155	N	-0.787324	-1.548520	-0.314157
N156	N	-0.287324	-1.048520	0.185843
N157	N	-0.744612	-1.621387	-0.337604
N158	N	-0.244612	-1.121387	0.162396
H159	H	-0.725655	-1.669892	-0.281654
H160	H	-0.225655	-1.169892	0.218346
H161	H	-0.920084	-1.541348	-0.332770
H162	H	-0.420084	-1.041348	0.167230
