data_functionalizedCrystal
_audit_creation_method	'MofGen! by Chris Wilmer'
_symmetry_space_group_name_H-M	'P1'
_symmetry_Int_Tables_number	1
_symmetry_cell_setting	triclinic
loop_
_symmetry_equiv_pos_as_xyz
  x,y,z
_cell_length_a	16.974800
_cell_length_b	10.723024
_cell_length_c	16.053934
_cell_angle_alpha	87.402214
_cell_angle_beta	96.214647
_cell_angle_gamma	83.927745
loop_
_atom_site_label
_atom_site_type_symbol
_atom_site_fract_x
_atom_site_fract_y
_atom_site_fract_z
O1	O	1.050084	0.158832	0.001551
O2	O	1.550084	0.658832	0.501551
O3	O	0.819246	0.180290	-0.014053
O4	O	1.319246	0.680290	0.485947
O5	O	0.939990	-0.012124	-0.005888
O6	O	1.439990	0.487876	0.494112
O7	O	0.929340	0.351246	-0.006614
O8	O	1.429340	0.851246	0.493386
O9	O	0.946600	-0.022678	0.133416
O10	O	1.446600	0.477322	0.633416
O11	O	0.825856	0.169736	0.125250
O12	O	1.325856	0.669736	0.625250
O13	O	1.056694	0.148277	0.140855
O14	O	1.556694	0.648277	0.640855
Zn15	Zn	0.942324	0.157331	0.155170
Zn16	Zn	1.442324	0.657331	0.655170
Zn17	Zn	0.933616	0.171237	-0.028368
Zn18	Zn	1.433616	0.671237	0.471632
O19	O	0.935950	0.340692	0.132690
O20	O	1.435950	0.840692	0.632690
C21	C	0.792993	0.174396	0.053601
C22	C	1.292993	0.674396	0.553601
C23	C	0.704921	0.172543	0.047647
C24	C	1.204921	0.672543	0.547647
C25	C	0.667152	0.165917	0.120786
C26	C	1.167152	0.665917	0.620786
C27	C	0.584401	0.164156	0.115195
C28	C	1.084401	0.664156	0.615195
C29	C	0.539419	0.169031	0.036463
C30	C	1.039419	0.669031	0.536463
C31	C	0.577193	0.175654	-0.036681
C32	C	1.077193	0.675654	0.463319
C33	C	0.659944	0.177406	-0.031089
C34	C	1.159944	0.677406	0.468911
C35	C	0.291544	0.164400	0.011595
C36	C	0.791544	0.664400	0.511595
C37	C	0.208787	0.162651	0.006008
C38	C	0.708787	0.662651	0.506008
C39	C	0.216001	0.151151	0.157885
C40	C	0.716001	0.651151	0.657885
C41	C	0.298752	0.152910	0.163470
C42	C	0.798752	0.652910	0.663470
C43	C	0.336520	0.159527	0.090326
C44	C	0.836520	0.659527	0.590326
N45	N	0.454833	0.167235	0.030746
N46	N	0.954833	0.667235	0.530746
N47	N	0.421105	0.161314	0.096044
N48	N	0.921105	0.661314	0.596044
C49	C	0.942520	-0.063885	0.063711
C50	C	1.442520	0.436115	0.563711
C51	C	0.940201	-0.202392	0.063551
C52	C	1.440201	0.297608	0.563551
C53	C	1.007763	-0.278751	0.068117
C54	C	1.507763	0.221249	0.568117
C55	C	1.005368	-0.421906	0.067952
C56	C	1.505368	0.078094	0.567952
C57	C	1.082947	0.154171	0.073199
C58	C	1.582947	0.654171	0.573199
C59	C	1.171019	0.156025	0.079147
C60	C	1.671019	0.656025	0.579147
C61	C	0.933420	0.392453	0.063089
C62	C	1.433420	0.892453	0.563089
C63	C	0.935739	0.530960	0.063244
C64	C	1.435739	1.030960	0.563244
N65	N	0.948274	0.147840	0.280430
N66	N	1.448274	0.647840	0.780430
N67	N	0.927673	0.180718	-0.153628
N68	N	1.427673	0.680718	0.346372
C69	C	0.896887	0.229682	0.320670
C70	C	1.396887	0.729682	0.820670
C71	C	0.901071	0.223037	0.408358
C72	C	1.401071	0.723037	0.908358
C73	C	0.956640	0.134544	0.455805
C74	C	1.456640	0.634544	0.955805
C75	C	1.008032	0.052697	0.415559
C76	C	1.508032	0.552697	0.915559
C77	C	1.003851	0.059349	0.327873
C78	C	1.503851	0.559349	0.827873
C79	C	0.974884	0.105523	0.718441
C80	C	1.474884	0.605523	1.218441
C81	C	0.979060	0.098875	0.806133
C82	C	1.479060	0.598875	1.306133
C83	C	0.872099	0.269218	0.798925
C84	C	1.372099	0.769218	1.298925
C85	C	0.867920	0.275856	0.711237
C86	C	1.367920	0.775856	1.211237
C87	C	0.919315	0.194015	0.671000
C88	C	1.419315	0.694015	1.171000
N89	N	0.960917	0.127747	0.545436
N90	N	1.460917	0.627747	1.045436
N91	N	0.915041	0.200818	0.581370
N92	N	1.415041	0.700818	1.081370
H93	H	0.553655	0.158739	0.174753
H94	H	1.053655	0.658739	0.674753
H95	H	0.880586	-0.242998	0.059516
H96	H	1.380586	0.257002	0.559516
H97	H	1.016730	0.038882	0.685686
H98	H	1.516730	0.538882	1.185686
H99	H	0.335372	0.148935	0.227582
H100	H	0.835372	0.648935	0.727582
H101	H	1.053281	-0.019352	0.454196
H102	H	1.553281	0.480648	0.954196
H103	H	0.859229	0.289681	0.441120
H104	H	1.359229	0.789681	0.941120
H105	H	0.822671	0.347915	0.672608
H106	H	1.322671	0.847915	1.172608
H107	H	0.830257	0.335851	0.831695
H108	H	1.330257	0.835851	1.331695
H109	H	0.851634	0.301738	0.282044
H110	H	1.351634	0.801738	0.782044
H111	H	0.185242	0.145761	0.217435
H112	H	0.685242	0.645761	0.717435
H113	H	1.045696	-0.007294	0.295111
H114	H	1.545696	0.492706	0.795111
H115	H	0.690693	0.182805	-0.090647
H116	H	1.190693	0.682805	0.409353
H117	H	0.703771	0.161957	0.184898
H118	H	1.203771	0.661957	0.684898
H119	H	0.322285	0.169784	-0.047964
H120	H	0.822285	0.669784	0.452036
H121	H	0.172164	0.166625	-0.058108
H122	H	0.672164	0.666625	0.441892
H123	H	1.067378	-0.238145	0.072152
H124	H	1.567378	0.261855	0.572152
H125	H	1.024312	0.026808	0.844760
H126	H	1.524312	0.526808	1.344760
H127	H	0.540563	0.179615	-0.100786
H128	H	1.040563	0.679615	0.399214
H129	H	1.063206	-0.487517	0.071864
H130	H	1.563206	0.012483	0.571864
H131	H	0.877898	-0.403437	0.059340
H132	H	1.377898	0.096563	0.559340
