data_functionalizedCrystal
_audit_creation_method	'MofGen! by Chris Wilmer'
_symmetry_space_group_name_H-M	'P1'
_symmetry_Int_Tables_number	1
_symmetry_cell_setting	triclinic
loop_
_symmetry_equiv_pos_as_xyz
  x,y,z
_cell_length_a	14.044220
_cell_length_b	16.992695
_cell_length_c	16.053802
_cell_angle_alpha	87.258926
_cell_angle_beta	87.184754
_cell_angle_gamma	88.071450
loop_
_atom_site_label
_atom_site_type_symbol
_atom_site_fract_x
_atom_site_fract_y
_atom_site_fract_z
O1	O	1.275871	-0.187006	-0.069429
O2	O	1.609205	0.146328	0.263904
O3	O	1.942538	0.479661	0.597238
O4	O	0.999383	-0.180148	-0.069431
O5	O	1.332716	0.153186	0.263902
O6	O	1.666049	0.486519	0.597236
O7	O	1.136518	-0.069357	-0.069423
O8	O	1.469852	0.263977	0.263910
O9	O	1.803185	0.597310	0.597243
O10	O	1.138736	-0.297797	-0.069437
O11	O	1.472069	0.035537	0.263897
O12	O	1.805402	0.368870	0.597230
O13	O	1.128968	-0.075428	0.069435
O14	O	1.462301	0.257906	0.402768
O15	O	1.795634	0.591239	0.736102
O16	O	0.991832	-0.186218	0.069427
O17	O	1.325166	0.147115	0.402761
O18	O	1.658499	0.480448	0.736094
O19	O	1.268321	-0.193076	0.069429
O20	O	1.601654	0.140257	0.402763
O21	O	1.934988	0.473590	0.736096
Zn22	Zn	1.128878	-0.190611	0.091475
Zn23	Zn	1.462211	0.142722	0.424809
Zn24	Zn	1.795544	0.476055	0.758142
Zn25	Zn	1.138826	-0.182613	-0.091477
Zn26	Zn	1.472159	0.150721	0.241856
Zn27	Zn	1.805492	0.484054	0.575190
O28	O	1.131185	-0.303867	0.069422
O29	O	1.464519	0.029466	0.402755
O30	O	1.797852	0.362799	0.736088
C31	C	1.129891	-0.042980	0.000006
C32	C	1.463225	0.290353	0.333339
C33	C	1.796558	0.623687	0.666672
C34	C	1.121383	0.044659	0.000005
C35	C	1.454716	0.377993	0.333339
C36	C	1.788049	0.711326	0.666672
C37	C	0.960066	-0.180181	-0.000002
C38	C	1.293399	0.153152	0.333331
C39	C	1.626732	0.486485	0.666665
C40	C	0.854162	-0.171227	-0.000003
C41	C	1.187495	0.162106	0.333331
C42	C	1.520828	0.495440	0.666664
C43	C	1.307638	-0.193043	-0.000001
C44	C	1.640971	0.140291	0.333332
C45	C	1.974305	0.473624	0.666665
C46	C	1.413542	-0.201997	-0.000006
C47	C	1.746876	0.131337	0.333327
C48	C	2.080209	0.464670	0.666660
C49	C	1.607444	-0.218367	-0.000006
C50	C	1.940777	0.114967	0.333327
C51	C	2.274110	0.448300	0.666660
C52	C	1.660266	-0.154861	-0.000003
C53	C	1.993599	0.178473	0.333331
C54	C	2.326933	0.511806	0.666664
C55	C	1.768160	-0.163969	-0.000003
C56	C	2.101493	0.169364	0.333331
C57	C	2.434826	0.502698	0.666664
C58	C	1.499540	-0.209259	-0.000006
C59	C	1.832874	0.124074	0.333327
C60	C	2.166207	0.457407	0.666660
C61	C	1.137812	-0.330244	-0.000009
C62	C	1.471146	0.003089	0.333324
C63	C	1.804479	0.336423	0.666657
C64	C	1.146321	-0.417883	-0.000014
C65	C	1.479655	-0.084550	0.333319
C66	C	1.812988	0.248784	0.666652
N67	N	1.122095	-0.196070	0.216335
N68	N	1.455429	0.137263	0.549668
N69	N	1.788762	0.470597	0.883002
C70	C	1.203479	0.089157	0.000007
C71	C	1.536813	0.422491	0.333340
C72	C	1.870146	0.755824	0.666674
C73	C	1.195479	0.171504	-0.000001
C74	C	1.528813	0.504837	0.333332
C75	C	1.862146	0.838171	0.666666
C76	C	1.105381	0.209350	-0.000005
C77	C	1.438715	0.542684	0.333329
C78	C	1.772048	0.876017	0.666662
C79	C	1.023279	0.164846	-0.000009
C80	C	1.356612	0.498180	0.333325
C81	C	1.689946	0.831513	0.666658
C82	C	1.031280	0.082501	-0.000007
C83	C	1.364613	0.415835	0.333327
C84	C	1.697947	0.749168	0.666660
C85	C	1.072220	0.455268	-0.000016
C86	C	1.405553	0.788601	0.333317
C87	C	1.738886	1.121935	0.666650
C88	C	1.064225	0.537619	-0.000016
C89	C	1.397558	0.870952	0.333317
C90	C	1.730891	1.204285	0.666651
C91	C	1.236426	0.544271	-0.000010
C92	C	1.569759	0.877604	0.333323
C93	C	1.903093	1.210938	0.666657
C94	C	1.244419	0.461924	-0.000003
C95	C	1.577752	0.795257	0.333330
C96	C	1.911086	1.128591	0.666664
C97	C	1.162317	0.417427	-0.000011
C98	C	1.495650	0.750761	0.333322
C99	C	1.828983	1.084094	0.666655
N100	N	1.097202	0.293522	-0.000010
N101	N	1.430535	0.626855	0.333323
N102	N	1.763869	0.960188	0.666657
N103	N	1.170497	0.333258	-0.000012
N104	N	1.503831	0.666591	0.333322
N105	N	1.837164	0.999925	0.666655
N106	N	1.145615	-0.177148	-0.216337
N107	N	1.478948	0.156185	0.116997
N108	N	1.812282	0.489518	0.450330
C109	C	1.180471	-0.148948	0.260032
C110	C	1.513804	0.184385	0.593366
C111	C	1.847138	0.517718	0.926699
C112	C	1.175736	-0.152775	0.347439
C113	C	1.509069	0.180558	0.680772
C114	C	1.842403	0.513892	1.014105
C115	C	1.112630	-0.203728	0.391147
C116	C	1.445963	0.129605	0.724480
C117	C	1.779297	0.462939	1.057813
C118	C	1.054248	-0.250852	0.347443
C119	C	1.387581	0.082482	0.680777
C120	C	1.720915	0.415815	1.014110
C121	C	1.058979	-0.247020	0.260038
C122	C	1.392312	0.086313	0.593372
C123	C	1.725645	0.419646	0.926705
C124	C	1.091964	-0.220441	0.652555
C125	C	1.425297	0.112893	0.985888
C126	C	1.758631	0.446226	1.319222
C127	C	1.087240	-0.224270	0.739966
C128	C	1.420573	0.109063	1.073299
C129	C	1.753906	0.442397	1.406633
C130	C	1.208727	-0.126192	0.739956
C131	C	1.542060	0.207141	1.073289
C132	C	1.875394	0.540475	1.406622
C133	C	1.213456	-0.122369	0.652549
C134	C	1.546789	0.210965	0.985882
C135	C	1.880123	0.544298	1.319216
C136	C	1.155071	-0.169489	0.608853
C137	C	1.488404	0.163844	0.942187
C138	C	1.821737	0.497177	1.275520
N139	N	1.107791	-0.207642	0.480490
N140	N	1.441124	0.125691	0.813823
N141	N	1.774457	0.459024	1.147157
N142	N	1.159906	-0.165570	0.519511
N143	N	1.493239	0.167763	0.852845
N144	N	1.826572	0.501096	1.186178
H145	H	1.624461	-0.093648	-0.000060
H146	H	1.957795	0.239685	0.333274
H147	H	2.291128	0.573019	0.666607
Br148	Br	1.366701	0.410568	-0.000025
Br149	Br	1.700034	0.743901	0.333308
Br150	Br	2.033367	1.077235	0.666642
Br151	Br	1.287959	-0.062244	0.799260
Br152	Br	1.621292	0.271089	1.132593
Br153	Br	1.954625	0.604423	1.465926
H154	H	1.276846	0.058349	0.000015
H155	H	1.610180	0.391682	0.333348
H156	H	1.943513	0.725016	0.666681
Br157	Br	1.667123	-0.320382	-0.000018
Br158	Br	2.000456	0.012952	0.333315
Br159	Br	2.333790	0.346285	0.666649
Br160	Br	1.012731	-0.284390	0.593258
Br161	Br	1.346064	0.048944	0.926592
Br162	Br	1.679398	0.382277	1.259925
H163	H	1.262331	0.207731	0.000002
H164	H	1.595665	0.541064	0.333335
H165	H	1.928998	0.874398	0.666669
H166	H	1.303269	0.580509	-0.000005
H167	H	1.636602	0.913842	0.333329
H168	H	1.969936	1.247176	0.666662
H169	H	1.223269	-0.114404	0.383017
H170	H	1.556603	0.218929	0.716350
H171	H	1.889936	0.552263	1.049683
H172	H	0.990852	0.568430	-0.000005
H173	H	1.324185	0.901763	0.333328
H174	H	1.657518	1.235097	0.666661
H175	H	1.005366	0.419049	-0.000023
H176	H	1.338699	0.752382	0.333310
H177	H	1.672032	1.085715	0.666644
Br178	Br	0.979745	-0.310969	0.200735
Br179	Br	1.313078	0.022365	0.534068
Br180	Br	1.646411	0.355698	0.867402
Br181	Br	1.266127	-0.079800	0.200724
Br182	Br	1.599460	0.253533	0.534057
Br183	Br	1.932794	0.586866	0.867390
H184	H	1.002861	-0.292336	0.383035
H185	H	1.336194	0.040998	0.716368
H186	H	1.669527	0.374331	1.049702
H187	H	0.949919	0.195668	-0.000017
H188	H	1.283253	0.529001	0.333317
H189	H	1.616586	0.862334	0.666650
Br190	Br	1.299104	-0.053221	0.593230
Br191	Br	1.632438	0.280112	0.926563
Br192	Br	1.965771	0.613445	1.259897
Br193	Br	0.919859	0.022110	-0.000015
Br194	Br	1.253192	0.355443	0.333318
Br195	Br	1.586526	0.688776	0.666651
H196	H	1.035848	-0.265765	0.775549
H197	H	1.369182	0.067568	1.108882
H198	H	1.702515	0.400901	1.442216
