data_functionalizedCrystal
_audit_creation_method	'MofGen! by Chris Wilmer'
_symmetry_space_group_name_H-M	'P1'
_symmetry_Int_Tables_number	1
_symmetry_cell_setting	triclinic
loop_
_symmetry_equiv_pos_as_xyz
  x,y,z
_cell_length_a	10.654559
_cell_length_b	10.654562
_cell_length_c	9.130313
_cell_angle_alpha	90.003070
_cell_angle_beta	90.000240
_cell_angle_gamma	95.510620
loop_
_atom_site_label
_atom_site_type_symbol
_atom_site_fract_x
_atom_site_fract_y
_atom_site_fract_z
O1	O	0.176468	-1.667831	-0.121890
O2	O	0.193258	-1.302355	-0.121872
O3	O	0.002125	-1.493490	-0.121877
O4	O	0.367601	-1.476696	-0.121885
O5	O	0.002130	-1.493487	0.121721
O6	O	0.193263	-1.302352	0.121727
O7	O	0.176474	-1.667828	0.121708
Cu8	Cu	0.184869	-1.485090	0.143960
Cu9	Cu	0.184863	-1.485093	-0.144124
O10	O	0.367606	-1.476693	0.121714
C11	C	0.192024	-1.255556	-0.000070
C12	C	0.188326	-1.116113	-0.000063
C13	C	-0.044670	-1.492253	-0.000080
C14	C	-0.184113	-1.488556	-0.000086
C15	C	0.177707	-1.714627	-0.000097
C16	C	0.181405	-1.854070	-0.000113
C17	C	-0.235658	-1.372545	-0.000087
C18	C	-0.366680	-1.369079	-0.000084
C19	C	-0.394602	-1.597647	-0.000085
C20	C	-0.263582	-1.601111	-0.000078
C21	C	-0.528968	-1.227045	0.085255
C22	C	-0.580516	-1.111027	0.085229
C23	C	-0.525664	-1.011254	-0.000127
C24	C	-0.419265	-1.027494	-0.085493
C25	C	-0.367723	-1.143513	-0.085481
C26	C	-0.422573	-1.243282	-0.000090
C27	C	-0.101292	-1.743138	-0.085429
C28	C	-0.049748	-1.859159	-0.085426
C29	C	-0.104599	-1.958943	-0.000079
C30	C	-0.211004	-1.942715	0.085265
C31	C	-0.262548	-1.826694	0.085263
C32	C	-0.207688	-1.726910	-0.000082
C33	C	0.414402	-1.477930	-0.000087
C34	C	0.553844	-1.481626	-0.000090
N35	N	0.184872	-1.485097	0.346583
C36	C	0.186604	-1.050581	0.132711
C37	C	0.183139	-0.919559	0.132687
C38	C	0.183124	-0.919611	-0.132898
C39	C	0.186580	-1.050632	-0.132872
C40	C	0.186618	-1.050549	0.286045
C41	C	0.183153	-0.919527	0.286021
N42	N	0.184849	-1.485095	-0.346746
C43	C	0.100268	-1.569754	0.423232
C44	C	0.100253	-1.569750	0.576569
C45	C	0.269458	-1.400430	0.576594
C46	C	0.269466	-1.400428	0.423260
C47	C	0.002582	-1.667513	0.423220
C48	C	0.002567	-1.667510	0.576556
H49	H	-0.170957	-1.280895	-0.000088
C50	C	0.043907	-1.790687	0.358946
H51	H	0.042514	-1.786482	0.255029
H52	H	-0.012223	-1.859872	0.391062
H53	H	0.126948	-1.801681	0.391078
H54	H	-0.459322	-1.689285	-0.000081
H55	H	0.187963	-1.103986	-0.240990
H56	H	-0.093951	-1.646067	0.381603
C57	C	0.181214	-0.847577	-0.278975
H58	H	0.178916	-0.760159	-0.259977
H59	H	0.108673	-0.877989	-0.333533
H60	H	0.254899	-0.860130	-0.333530
H61	H	0.338346	-1.331484	0.360853
C62	C	-0.047900	-2.086564	-0.000078
H63	H	0.023328	-2.081944	-0.063127
H64	H	-0.109294	-2.150670	-0.033623
H65	H	-0.022733	-2.105798	0.096531
H66	H	0.091560	-0.889935	0.333602
C67	C	-0.271353	-2.052470	0.179150
H68	H	-0.342112	-2.026191	0.229966
H69	H	-0.211328	-2.077042	0.247780
H70	H	-0.297874	-2.121892	0.117606
C71	C	0.069368	-1.113047	0.365574
H72	H	0.018795	-1.049840	0.398252
H73	H	0.095037	-1.159448	0.447327
H74	H	0.021923	-1.168399	0.300183
C75	C	0.362510	-1.307309	0.660942
H76	H	0.350394	-1.319438	0.763241
H77	H	0.348090	-1.223376	0.635815
H78	H	0.446464	-1.321685	0.635821
C79	C	0.300412	-0.856991	0.365513
H80	H	0.350994	-0.920182	0.398208
H81	H	0.274752	-0.810561	0.447251
H82	H	0.347846	-0.801662	0.300095
C83	C	-0.040953	-1.633370	-0.179308
H84	H	-0.086880	-1.561944	-0.167072
H85	H	-0.042654	-1.657642	-0.279455
H86	H	0.043902	-1.612790	-0.149291
H87	H	0.024090	-1.764022	0.618167
C88	C	0.310342	-1.090517	0.350333
H89	H	0.363046	-1.017650	0.378950
H90	H	0.352290	-1.135613	0.278467
H91	H	0.292017	-1.142932	0.433269
C92	C	-0.120670	-1.626309	0.640805
H93	H	-0.175543	-1.607969	0.563312
H94	H	-0.102230	-1.553172	0.699377
H95	H	-0.160277	-1.692391	0.699350
H96	H	-0.281095	-1.156736	-0.154983
H97	H	-0.374619	-0.946249	-0.155009
H98	H	-0.567644	-0.916790	-0.000147
H99	H	0.036896	-1.872365	-0.154923
C100	C	-0.589296	-1.336792	0.179162
H101	H	-0.543354	-1.408211	0.166964
H102	H	-0.674148	-1.357379	0.149161
H103	H	-0.587587	-1.312496	0.279310
C104	C	-0.379586	-1.808839	0.179150
H105	H	-0.404870	-1.884879	0.229992
H106	H	-0.446320	-1.787741	0.117622
H107	H	-0.359758	-1.742887	0.247781
H108	H	-0.667148	-1.097812	0.154744
