data_functionalizedCrystal
_audit_creation_method	'MofGen! by Chris Wilmer'
_symmetry_space_group_name_H-M	'P1'
_symmetry_Int_Tables_number	1
_symmetry_cell_setting	triclinic
loop_
_symmetry_equiv_pos_as_xyz
  x,y,z
_cell_length_a	10.654541
_cell_length_b	10.967926
_cell_length_c	9.730217
_cell_angle_alpha	102.126239
_cell_angle_beta	90.000443
_cell_angle_gamma	84.599937
loop_
_atom_site_label
_atom_site_type_symbol
_atom_site_fract_x
_atom_site_fract_y
_atom_site_fract_z
O1	O	0.176156	1.657183	0.278205
O2	O	0.193013	1.294039	0.192194
O3	O	0.001844	1.483962	0.237186
O4	O	0.367325	1.467260	0.233214
O5	O	0.001856	1.483949	0.465763
O6	O	0.193025	1.294026	0.420771
O7	O	0.176168	1.657170	0.506782
Zn8	Zn	0.184598	1.475596	0.500068
Zn9	Zn	0.184583	1.475613	0.198908
O10	O	0.367337	1.467247	0.461791
C11	C	0.191792	1.247533	0.295469
C12	C	0.188120	1.108981	0.262653
C13	C	0.186488	1.047203	0.366432
C14	C	0.182693	0.904002	0.332518
C15	C	-0.044948	1.482729	0.351184
C16	C	-0.184391	1.479062	0.350313
C17	C	-0.212394	1.706167	0.404120
C18	C	-0.291904	1.817991	0.430617
C19	C	-0.422922	1.814537	0.429795
C20	C	-0.474431	1.699248	0.402469
C21	C	-0.394920	1.587423	0.375971
C22	C	-0.263901	1.590889	0.376801
C23	C	-0.366918	1.360322	0.322155
C24	C	-0.235900	1.363773	0.322986
C25	C	-0.418427	1.245032	0.294828
C26	C	-0.338916	1.133205	0.268340
C27	C	-0.207891	1.136664	0.269165
C28	C	-0.156390	1.251948	0.296489
C29	C	0.414129	1.468479	0.347790
C30	C	0.553572	1.472146	0.348652
C31	C	0.177389	1.703675	0.403504
C32	C	0.181062	1.842227	0.436312
N33	N	0.184608	1.475593	0.705604
N34	N	0.184563	1.475625	-0.006625
C35	C	0.030809	1.322964	0.957214
C36	C	-0.046053	1.246619	0.867190
C37	C	-0.046029	1.246595	0.723305
C38	C	0.030862	1.322927	0.669443
C39	C	0.107723	1.399272	0.759466
C40	C	0.107694	1.399285	0.903352
C41	C	0.261469	1.551938	0.795628
C42	C	0.261454	1.551957	0.939512
C43	C	0.338360	1.628271	0.741765
C44	C	0.415229	1.704611	0.831788
C45	C	0.415204	1.704630	0.975681
C46	C	0.338315	1.628302	1.029536
H47	H	0.181276	0.850882	0.218553
H48	H	0.187895	1.100330	0.480389
H49	H	0.182471	0.895347	0.550277
H50	H	0.186703	1.055856	0.148696
H51	H	-0.049710	1.254775	0.297171
H52	H	-0.105714	1.708990	0.404811
H53	H	-0.249951	1.911858	0.452878
O54	O	-0.508691	1.935142	0.458383
H55	H	-0.450870	2.015890	0.477532
O56	O	-0.615742	1.695515	0.401580
H57	H	-0.662376	1.792641	0.424601
H58	H	0.338290	1.628307	1.146691
O59	O	0.338398	1.628247	0.586575
H60	H	0.272047	1.562326	0.533019
O61	O	0.030790	1.322972	1.112401
H62	H	0.097161	1.388875	1.165949
O63	O	0.498092	1.786988	1.072781
H64	H	0.565027	1.727762	1.124343
O65	O	-0.128981	1.164300	0.925301
H66	H	-0.229108	1.190602	0.903899
O67	O	0.498162	1.786927	0.773698
H68	H	0.485268	1.774082	0.658521
H69	H	-0.143160	1.045602	0.247582
H70	H	-0.525109	1.242228	0.294152
H71	H	-0.380866	1.039346	0.246084
H72	H	-0.108619	1.184431	0.650007
O73	O	0.030889	1.322911	0.514254
H74	H	-0.035472	1.256998	0.460704
