data_functionalizedCrystal
_audit_creation_method	'MofGen! by Chris Wilmer'
_symmetry_space_group_name_H-M	'P1'
_symmetry_Int_Tables_number	1
_symmetry_cell_setting	triclinic
loop_
_symmetry_equiv_pos_as_xyz
  x,y,z
_cell_length_a	19.288864
_cell_length_b	23.532357
_cell_length_c	18.366186
_cell_angle_alpha	89.988209
_cell_angle_beta	89.977106
_cell_angle_gamma	82.982267
loop_
_atom_site_label
_atom_site_type_symbol
_atom_site_fract_x
_atom_site_fract_y
_atom_site_fract_z
O1	O	0.921118	0.071047	-0.060792
O2	O	1.254451	0.404380	0.272542
O3	O	1.587785	0.737714	0.605875
O4	O	0.718826	0.080631	-0.060743
O5	O	1.052159	0.413964	0.272590
O6	O	1.385493	0.747298	0.605923
O7	O	0.826090	-0.007082	-0.060754
O8	O	1.159424	0.326251	0.272579
O9	O	1.492757	0.659585	0.605913
O10	O	0.813854	0.158760	-0.060781
O11	O	1.147187	0.492093	0.272552
O12	O	1.480520	0.825427	0.605886
O13	O	0.826072	-0.007086	0.060345
O14	O	1.159405	0.326247	0.393679
O15	O	1.492739	0.659580	0.727012
O16	O	0.718808	0.080627	0.060356
O17	O	1.052141	0.413960	0.393690
O18	O	1.385474	0.747293	0.727023
O19	O	0.921100	0.071043	0.060308
O20	O	1.254433	0.404376	0.393641
O21	O	1.587767	0.737709	0.726974
Zn22	Zn	0.819951	0.075834	0.079559
Zn23	Zn	1.153284	0.409167	0.412892
Zn24	Zn	1.486618	0.742501	0.746226
Zn25	Zn	0.819975	0.075840	-0.079995
Zn26	Zn	1.153308	0.409173	0.253339
Zn27	Zn	1.486642	0.742506	0.586672
O28	O	0.813836	0.158756	0.060318
O29	O	1.147169	0.492089	0.393652
O30	O	1.480502	0.825422	0.726985
C31	C	0.692941	0.080320	-0.000187
C32	C	1.026275	0.413654	0.333146
C33	C	1.359608	0.746987	0.666480
C34	C	0.615841	0.079395	-0.000168
C35	C	0.949174	0.412728	0.333165
C36	C	1.282508	0.746061	0.666499
C37	C	0.825775	-0.028301	-0.000202
C38	C	1.159108	0.305032	0.333131
C39	C	1.492442	0.638365	0.666465
C40	C	0.824855	-0.091522	-0.000195
C41	C	1.158188	0.241811	0.333138
C42	C	1.491522	0.575145	0.666472
C43	C	0.570975	0.130861	-0.000188
C44	C	0.904308	0.464194	0.333146
C45	C	1.237641	0.797527	0.666479
C46	C	0.498530	0.129991	-0.000196
C47	C	0.831864	0.463324	0.333138
C48	C	1.165197	0.796658	0.666471
C49	C	0.470956	0.077652	-0.000198
C50	C	0.804289	0.410986	0.333135
C51	C	1.137622	0.744319	0.666468
C52	C	0.515832	0.026180	-0.000174
C53	C	0.849165	0.359513	0.333159
C54	C	1.182498	0.692846	0.666492
C55	C	0.588274	0.027051	-0.000159
C56	C	0.921608	0.360384	0.333174
C57	C	1.254941	0.693717	0.666508
C58	C	0.362836	0.036510	-0.042643
C59	C	0.696169	0.369843	0.290691
C60	C	1.029503	0.703177	0.624024
C61	C	0.290394	0.035641	-0.042662
C62	C	0.623728	0.368974	0.290671
C63	C	0.957061	0.702308	0.624004
C64	C	0.247519	0.074963	-0.000242
C65	C	0.580852	0.408297	0.333091
C66	C	0.914186	0.741630	0.666425
C67	C	0.277093	0.115164	0.042189
C68	C	0.610426	0.448498	0.375522
C69	C	0.943759	0.781831	0.708855
C70	C	0.349535	0.116036	0.042204
C71	C	0.682869	0.449369	0.375537
C72	C	1.016202	0.782702	0.708871
C73	C	0.392405	0.076702	-0.000214
C74	C	0.725738	0.410035	0.333119
C75	C	1.059071	0.743369	0.666452
C76	C	0.124100	0.125490	-0.000269
C77	C	0.457433	0.458823	0.333064
C78	C	0.790767	0.792157	0.666397
C79	C	0.051655	0.124618	-0.000273
C80	C	0.384988	0.457951	0.333061
C81	C	0.718321	0.791285	0.666394
C82	C	0.068958	0.020805	-0.000259
C83	C	0.402291	0.354138	0.333075
C84	C	0.735624	0.687472	0.666408
C85	C	0.141401	0.021678	-0.000248
C86	C	0.474735	0.355012	0.333085
C87	C	0.808068	0.688345	0.666419
C88	C	0.168968	0.074022	-0.000257
C89	C	0.502301	0.407356	0.333077
C90	C	0.835634	0.740689	0.666410
C91	C	0.819088	-0.483543	-0.066244
C92	C	1.152421	-0.150210	0.267089
C93	C	1.485754	0.183124	0.600423
C94	C	0.818213	-0.542944	-0.066248
C95	C	1.151546	-0.209611	0.267085
C96	C	1.484880	0.123723	0.600419
O97	O	0.817745	-0.573659	-0.122388
O98	O	1.151079	-0.240326	0.210945
O99	O	1.484412	0.093007	0.544279
N100	N	0.817769	-0.572659	-0.000238
N101	N	1.151103	-0.239325	0.333096
N102	N	1.484436	0.094008	0.666429
C103	C	0.818193	-0.542968	0.065781
C104	C	1.151527	-0.209635	0.399114
C105	C	1.484860	0.123699	0.732448
O106	O	0.817735	-0.573697	0.121928
O107	O	1.151068	-0.240363	0.455261
O108	O	1.484402	0.092970	0.788594
C109	C	0.819063	-0.483567	0.065784
C110	C	1.152396	-0.150234	0.399118
C111	C	1.485730	0.183100	0.732451
C112	C	0.819514	-0.453857	-0.000230
C113	C	1.152847	-0.120523	0.333103
C114	C	1.486181	0.212810	0.666436
C115	C	0.819538	-0.453832	-0.132254
C116	C	1.152871	-0.120499	0.201080
C117	C	1.486204	0.212835	0.534413
C118	C	0.820414	-0.394435	-0.132249
C119	C	1.153747	-0.061102	0.201084
C120	C	1.487080	0.272232	0.534417
C121	C	0.820840	-0.364749	-0.066236
C122	C	1.154173	-0.031415	0.267098
C123	C	1.487506	0.301918	0.600431
C124	C	0.820390	-0.394460	-0.000226
C125	C	1.153723	-0.061126	0.333107
C126	C	1.487057	0.272207	0.666440
C127	C	0.819482	-0.453877	0.131802
C128	C	1.152816	-0.120544	0.465136
C129	C	1.486149	0.212790	0.798469
C130	C	0.820351	-0.394472	0.131800
C131	C	1.153685	-0.061139	0.465133
C132	C	1.487018	0.272195	0.798466
C133	C	0.820802	-0.364762	0.065785
C134	C	1.154136	-0.031428	0.399118
C135	C	1.487469	0.301905	0.732452
C136	C	0.821692	-0.305376	0.065792
C137	C	1.155025	0.027957	0.399125
C138	C	1.488359	0.361290	0.732458
N139	N	0.822136	-0.275662	-0.000219
N140	N	1.155469	0.057672	0.333114
N141	N	1.488802	0.391005	0.666448
C142	C	0.821710	-0.305348	-0.066233
C143	C	1.155043	0.027985	0.267101
C144	C	1.488376	0.361319	0.600434
C145	C	0.816366	-0.667713	0.065769
C146	C	1.149699	-0.334380	0.399103
C147	C	1.483032	-0.001047	0.732436
C148	C	0.815501	-0.727113	0.065767
C149	C	1.148834	-0.393780	0.399100
C150	C	1.482168	-0.060447	0.732434
C151	C	0.815519	-0.727085	-0.066262
C152	C	1.148853	-0.393752	0.267071
C153	C	1.482186	-0.060419	0.600404
C154	C	0.816389	-0.667685	-0.066259
C155	C	1.149722	-0.334351	0.267074
C156	C	1.483056	-0.001018	0.600407
C157	C	0.816809	-0.637999	-0.000241
C158	C	1.150143	-0.304665	0.333092
C159	C	1.483476	0.028668	0.666426
C160	C	0.823550	-0.180610	-0.066219
C161	C	1.156883	0.152723	0.267115
C162	C	1.490216	0.486057	0.600448
C163	C	0.824429	-0.121208	-0.066209
C164	C	1.157762	0.212125	0.267125
C165	C	1.491095	0.545458	0.600458
C166	C	0.824407	-0.121241	0.065820
C167	C	1.157740	0.212092	0.399154
C168	C	1.491073	0.545426	0.732487
C169	C	0.823531	-0.180638	0.065811
C170	C	1.156865	0.152695	0.399144
C171	C	1.490198	0.486029	0.732477
C172	C	0.823101	-0.210321	-0.000215
C173	C	1.156434	0.123012	0.333119
C174	C	1.489767	0.456346	0.666452
O175	O	0.822157	-0.274623	0.121903
O176	O	1.155491	0.058710	0.455236
O177	O	1.488824	0.392044	0.788570
O178	O	0.822159	-0.274611	-0.122370
O179	O	1.155492	0.058722	0.210964
O180	O	1.488825	0.392056	0.544297
C181	C	0.946985	0.071353	-0.000250
C182	C	1.280318	0.404686	0.333083
C183	C	1.613651	0.738020	0.666416
C184	C	1.024085	0.072279	-0.000274
C185	C	1.357418	0.405612	0.333059
C186	C	1.690752	0.738946	0.666393
C187	C	0.814151	0.179975	-0.000235
C188	C	1.147484	0.513308	0.333098
C189	C	1.480817	0.846642	0.666431
C190	C	0.815071	0.243196	-0.000247
C191	C	1.148404	0.576529	0.333086
C192	C	1.481738	0.909862	0.666420
N193	N	0.819940	0.075830	0.188450
N194	N	1.153273	0.409163	0.521783
N195	N	1.486606	0.742496	0.855117
N196	N	0.819992	0.075839	-0.188886
N197	N	1.153325	0.409173	0.144448
N198	N	1.486658	0.742506	0.477781
C199	C	0.867452	0.037009	0.226546
C200	C	1.200785	0.370343	0.559879
C201	C	1.534119	0.703676	0.893212
C202	C	0.867456	0.037007	0.302774
C203	C	1.200790	0.370340	0.636107
C204	C	1.534123	0.703674	0.969440
C205	C	0.819955	0.075834	0.340903
C206	C	1.153289	0.409168	0.674236
C207	C	1.486622	0.742501	1.007570
C208	C	0.772434	0.114658	0.302798
C209	C	1.105768	0.447991	0.636131
C210	C	1.439101	0.781324	0.969465
C211	C	0.772427	0.114655	0.226572
C212	C	1.105760	0.447989	0.559905
C213	C	1.439093	0.781322	0.893238
C214	C	0.810486	0.127727	0.461656
C215	C	1.143819	0.461060	0.794989
C216	C	1.477152	0.794394	1.128323
C217	C	0.810498	0.127730	0.537881
C218	C	1.143832	0.461063	0.871214
C219	C	1.477165	0.794397	1.204548
C220	C	0.819975	0.075842	0.576010
C221	C	1.153308	0.409175	0.909344
C222	C	1.486642	0.742508	1.242677
C223	C	0.829454	0.023948	0.537905
C224	C	1.162787	0.357281	0.871239
C225	C	1.496121	0.690615	1.204572
C226	C	0.829446	0.023946	0.461679
C227	C	1.162780	0.357279	0.795012
C228	C	1.496113	0.690612	1.128346
C229	C	0.819958	0.075841	0.423558
C230	C	1.153291	0.409174	0.756891
C231	C	1.486625	0.742508	1.090224
C232	C	0.867494	0.037015	0.696761
C233	C	1.200828	0.370349	1.030094
C234	C	1.534161	0.703682	1.363428
C235	C	0.867494	0.037012	0.772990
C236	C	1.200827	0.370345	1.106323
C237	C	1.534161	0.703679	1.439657
C238	C	0.772475	0.114668	0.773013
C239	C	1.105809	0.448001	1.106347
C240	C	1.439142	0.781334	1.439680
C241	C	0.772472	0.114666	0.696785
C242	C	1.105806	0.448000	1.030119
C243	C	1.439139	0.781333	1.363452
C244	C	0.819986	0.075841	0.658664
C245	C	1.153319	0.409174	0.991997
C246	C	1.486652	0.742507	1.325331
H247	H	0.593414	0.173483	-0.000196
H248	H	0.926747	0.506817	0.333137
H249	H	1.260081	0.840150	0.666470
F250	F	0.918061	-0.004311	0.813536
F251	F	1.251394	0.329023	1.146869
F252	F	1.584728	0.662356	1.480203
F253	F	0.823091	-0.212193	-0.136490
F254	F	1.156425	0.121141	0.196843
F255	F	1.489758	0.454474	0.530176
H256	H	0.819188	-0.477996	-0.186013
H257	H	1.152521	-0.144663	0.147321
H258	H	1.485855	0.188671	0.480654
F259	F	0.153441	0.181198	-0.000273
F260	F	0.486774	0.514531	0.333060
F261	F	0.820107	0.847865	0.666394
H262	H	0.242185	0.147184	0.076732
H263	H	0.575518	0.480518	0.410065
H264	H	0.908851	0.813851	0.743399
H265	H	0.820778	-0.370250	-0.186005
H266	H	1.154111	-0.036916	0.147328
H267	H	1.487445	0.296417	0.480661
H268	H	0.624805	-0.014860	-0.000143
H269	H	0.958139	0.318473	0.333190
H270	H	1.291472	0.651806	0.666523
H271	H	0.733736	0.146268	0.195554
H272	H	1.067069	0.479601	0.528887
H273	H	1.400402	0.812935	0.862220
F274	F	0.721907	0.155987	0.656238
F275	F	1.055240	0.489320	0.989571
F276	F	1.388573	0.822653	1.322905
H277	H	0.802784	0.169985	0.568900
H278	H	1.136118	0.503318	0.902234
H279	H	1.469451	0.836651	1.235567
H280	H	0.816755	-0.643498	-0.120014
H281	H	1.150088	-0.310165	0.213319
H282	H	1.483422	0.023169	0.546652
F283	F	0.721917	0.155987	0.813590
F284	F	1.055250	0.489321	1.146923
F285	F	1.388584	0.822654	1.480256
F286	F	0.450772	0.184770	-0.000215
F287	F	0.784105	0.518104	0.333119
F288	F	1.117438	0.851437	0.666452
H289	H	0.815170	-0.751267	-0.120014
H290	H	1.148503	-0.417933	0.213319
H291	H	1.481837	-0.084600	0.546652
H292	H	0.820683	-0.370304	0.185561
H293	H	1.154017	-0.036971	0.518894
H294	H	1.487350	0.296363	0.852228
F295	F	0.408461	-0.005346	-0.087795
F296	F	0.741794	0.327988	0.245539
F297	F	1.075128	0.661321	0.578872
F298	F	0.839528	-0.031282	0.421128
F299	F	1.172862	0.302052	0.754461
F300	F	1.506195	0.635385	1.087794
F301	F	0.815034	-0.758729	0.136029
F302	F	1.148367	-0.425395	0.469362
F303	F	1.481700	-0.092062	0.802696
H304	H	0.373611	0.148767	0.076755
H305	H	0.706944	0.482100	0.410088
H306	H	1.040278	0.815434	0.743421
F307	F	0.800449	0.182959	0.421083
F308	F	1.133783	0.516292	0.754417
F309	F	1.467116	0.849625	1.087750
F310	F	0.721878	0.155979	0.343378
F311	F	1.055211	0.489312	0.676712
F312	F	1.388545	0.822646	1.010045
H313	H	0.015124	0.166530	-0.000285
H314	H	0.348458	0.499863	0.333049
H315	H	0.681791	0.833196	0.666382
H316	H	0.046507	-0.021810	-0.000306
H317	H	0.379841	0.311523	0.333027
H318	H	0.713174	0.644857	0.666361
F319	F	0.823064	-0.212261	0.136071
F320	F	1.156398	0.121073	0.469404
F321	F	1.489731	0.454406	0.802737
H322	H	0.177933	-0.020231	-0.000236
H323	H	0.511266	0.313102	0.333097
H324	H	0.844599	0.646436	0.666431
H325	H	0.266321	0.002909	-0.077215
H326	H	0.599654	0.336242	0.256119
H327	H	0.932988	0.669576	0.589452
H328	H	0.816710	-0.643547	0.119533
H329	H	1.150043	-0.310214	0.452866
H330	H	1.483377	0.023120	0.786199
F331	F	0.824910	-0.089592	-0.136474
F332	F	1.158244	0.243742	0.196860
F333	F	1.491577	0.577075	0.530193
F334	F	0.486484	-0.029523	-0.000174
F335	F	0.819817	0.303810	0.333160
F336	F	1.153151	0.637144	0.666493
H337	H	0.819116	-0.478057	0.185559
H338	H	1.152450	-0.144724	0.518892
H339	H	1.485783	0.188609	0.852225
H340	H	0.824757	-0.097060	0.119567
H341	H	1.158090	0.236273	0.452900
H342	H	1.491424	0.569607	0.786234
F343	F	0.918028	-0.004313	0.343324
F344	F	1.251361	0.329020	0.676658
F345	F	1.584694	0.662353	1.009991
F346	F	0.918016	-0.004314	0.185976
F347	F	1.251350	0.329020	0.519309
F348	F	1.584683	0.662353	0.852642
H349	H	0.837170	-0.018305	0.568949
H350	H	1.170504	0.315029	0.902282
H351	H	1.503837	0.648362	1.235615
H352	H	0.906181	0.005399	0.665721
H353	H	1.239514	0.338733	0.999054
H354	H	1.572847	0.672066	1.332388
