data_functionalizedCrystal
_audit_creation_method	'MofGen! by Chris Wilmer'
_symmetry_space_group_name_H-M	'P1'
_symmetry_Int_Tables_number	1
_symmetry_cell_setting	triclinic
loop_
_symmetry_equiv_pos_as_xyz
  x,y,z
_cell_length_a	6.817900
_cell_length_b	10.943925
_cell_length_c	19.453114
_cell_angle_alpha	94.442802
_cell_angle_beta	101.709288
_cell_angle_gamma	108.844289
loop_
_atom_site_label
_atom_site_type_symbol
_atom_site_fract_x
_atom_site_fract_y
_atom_site_fract_z
V1	V	-4.034417	-0.179977	-0.218989
O2	O	-3.993628	0.007265	-0.214831
O3	O	-4.012961	-0.355534	-0.217482
O4	O	-3.977000	-0.177816	-0.314502
O5	O	-4.029838	-0.171683	-0.117139
V6	V	-4.515721	-0.157509	-0.206808
O7	O	-4.300540	-0.229263	-0.245709
O8	O	-4.699795	-0.108223	-0.180088
O9	O	-4.313970	0.018048	-0.208315
O10	O	-4.673907	-0.344751	-0.210967
O11	O	-4.637697	-0.165803	-0.308659
O12	O	-4.349932	-0.159670	-0.111295
C13	C	-3.864808	-0.398312	-0.214025
C14	C	-3.928493	-0.541836	-0.213429
C15	C	-4.194765	-0.718587	-0.216384
C16	C	-4.027529	-0.612221	-0.156728
C17	C	-4.094916	-0.646289	-0.273067
C18	C	-3.874593	-0.691169	-0.152659
C19	C	-3.942042	-0.725260	-0.269050
C20	C	-3.774675	-0.618924	-0.209377
C21	C	-3.818935	-0.171613	-0.337783
C22	C	-3.853453	-0.171007	-0.415866
C23	C	-4.052446	-0.177203	-0.456122
C24	C	-4.084879	-0.176635	-0.529489
C25	C	-3.918320	-0.169895	-0.562598
C26	C	-3.719295	-0.163691	-0.522332
C27	C	-3.686862	-0.164247	-0.448965
N28	N	-3.869042	-0.238079	-0.681384
N29	N	-3.899866	-0.237554	-0.751079
C30	C	-4.016029	-0.168217	-0.783647
N31	N	-4.100241	-0.099443	-0.743888
N32	N	-4.069422	-0.099974	-0.674186
C33	C	-3.953468	-0.169291	-0.642152
C34	C	-4.250201	-0.173795	-0.903456
C35	C	-4.282623	-0.173218	-0.976824
C36	C	-3.917040	-0.160287	-0.969666
C37	C	-3.884618	-0.160852	-0.896299
C38	C	-4.051209	-0.167612	-0.863199
C39	C	-4.125466	0.060819	-0.211771
C40	C	-4.041020	0.204342	-0.212371
C41	C	-4.171339	-0.165877	-0.088011
C42	C	-4.116059	-0.166476	-0.009928
H43	H	-4.372901	-0.762099	-0.219267
H44	H	-4.188098	-0.182703	-0.429177
F45	F	-3.672828	-0.154274	-0.853454
F46	F	-3.753629	-0.717598	-0.086073
H47	H	-3.583682	-0.158200	-0.549294
H48	H	-4.063008	-0.563013	-0.109244
H49	H	-3.596459	-0.575619	-0.206401
F50	F	-3.475060	-0.157656	-0.406120
H51	H	-4.187452	-0.625899	-0.323958
H52	H	-3.781419	-0.154789	-0.996622
H53	H	-3.906646	-0.774499	-0.316538
F54	F	-4.296681	-0.183223	-0.572341
F55	F	-4.427493	-0.180981	-0.868226
H56	H	-4.444666	-0.178254	-1.009599
