data_functionalizedCrystal
_audit_creation_method	'MofGen! by Chris Wilmer'
_symmetry_space_group_name_H-M	'P1'
_symmetry_Int_Tables_number	1
_symmetry_cell_setting	triclinic
loop_
_symmetry_equiv_pos_as_xyz
  x,y,z
_cell_length_a	8.597340
_cell_length_b	14.044190
_cell_length_c	7.681481
_cell_angle_alpha	83.728840
_cell_angle_beta	103.474906
_cell_angle_gamma	89.225172
loop_
_atom_site_label
_atom_site_type_symbol
_atom_site_fract_x
_atom_site_fract_y
_atom_site_fract_z
O1	O	2.118487	0.131086	0.174962
O2	O	1.656574	0.146189	0.104875
O3	O	1.880595	0.000651	0.138901
O4	O	1.894467	0.276624	0.140936
O5	O	1.908163	-0.017303	0.435946
O6	O	1.684142	0.128235	0.401920
O7	O	2.146055	0.113132	0.472007
Zn8	Zn	1.919475	0.117833	0.484126
Zn9	Zn	1.883154	0.141488	0.092756
O10	O	1.922034	0.258670	0.437981
C11	C	1.610886	0.136590	0.244374
C12	C	1.433677	0.134726	0.217488
C13	C	1.888308	-0.043641	0.286507
C14	C	1.870199	-0.148867	0.283775
C15	C	1.965524	-0.399152	0.298170
C16	C	1.837111	-0.341520	0.278698
C17	C	1.855526	-0.234318	0.281523
C18	C	1.947112	-0.506364	0.295344
C19	C	2.191743	0.122731	0.332504
C20	C	2.368951	0.124596	0.359378
C21	C	1.914321	0.302962	0.290371
C22	C	1.932428	0.408189	0.293091
N23	N	1.944275	0.101689	0.751227
N24	N	1.858366	0.157625	-0.174343
H25	H	1.449108	0.117342	0.501433
H26	H	1.713343	-0.372690	0.259908
H27	H	1.353511	0.141974	0.075423
H28	H	1.770669	0.214719	0.737140
H29	H	2.089283	-0.367984	0.316966
H30	H	2.031991	0.044597	0.839755
