data_functionalizedCrystal
_audit_creation_method	'MofGen! by Chris Wilmer'
_symmetry_space_group_name_H-M	'P1'
_symmetry_Int_Tables_number	1
_symmetry_cell_setting	triclinic
loop_
_symmetry_equiv_pos_as_xyz
  x,y,z
_cell_length_a	16.959454
_cell_length_b	19.805407
_cell_length_c	19.805399
_cell_angle_alpha	90.017803
_cell_angle_beta	90.022387
_cell_angle_gamma	90.017392
loop_
_atom_site_label
_atom_site_type_symbol
_atom_site_fract_x
_atom_site_fract_y
_atom_site_fract_z
Zn1	Zn	-0.314756	1.034765	0.382712
Zn2	Zn	0.185244	1.534765	0.882712
Zn3	Zn	-0.446939	1.034693	0.269534
Zn4	Zn	0.053061	1.534693	0.769534
Zn5	Zn	-0.314772	0.921580	0.269540
Zn6	Zn	0.185228	1.421580	0.769540
Zn7	Zn	-0.446891	0.921556	0.382684
Zn8	Zn	0.053109	1.421556	0.882684
O9	O	-0.380840	0.978149	0.326118
O10	O	0.119160	1.478149	0.826118
O11	O	-0.332304	1.129472	0.367708
O12	O	0.167696	1.629472	0.867708
O13	O	-0.429433	1.019668	0.174818
O14	O	0.070567	1.519668	0.674818
O15	O	-0.204159	0.936635	0.284567
O16	O	0.295841	1.436635	0.784567
O17	O	-0.429418	1.129419	0.284556
O18	O	0.070582	1.629419	0.784556
O19	O	-0.204148	1.019792	0.367714
O20	O	0.295852	1.519792	0.867714
O21	O	-0.332331	0.936564	0.174823
O22	O	0.167669	1.436564	0.674823
O23	O	-0.332284	0.826860	0.284540
O24	O	0.167716	1.326860	0.784540
O25	O	-0.429336	0.936594	0.477405
O26	O	0.070664	1.436594	0.977405
O27	O	-0.429351	0.826843	0.367666
O28	O	0.070649	1.326843	0.867666
O29	O	-0.332258	1.019768	0.477425
O30	O	0.167742	1.519768	0.977425
O31	O	-0.557543	1.019645	0.284530
O32	O	-0.057543	1.519645	0.784530
O33	O	-0.557508	0.936524	0.367661
O34	O	-0.057508	1.436524	0.867661
C35	C	-0.380815	0.802293	0.326101
C36	C	0.119185	1.302293	0.826101
C37	C	-0.380823	0.727061	0.326110
C38	C	0.119177	1.227061	0.826110
C39	C	-0.330345	0.691745	0.369473
C40	C	0.169655	1.191745	0.869473
C41	C	-0.330350	0.621056	0.369476
C42	C	0.169650	1.121056	0.869476
C43	C	-0.380836	0.585685	0.326118
C44	C	0.119164	1.085685	0.826118
C45	C	-0.431316	0.621006	0.282751
C46	C	0.068684	1.121006	0.782751
C47	C	-0.431307	0.691693	0.282745
C48	C	0.068693	1.191693	0.782745
C49	C	-0.431352	0.335932	0.282772
C50	C	0.068648	0.835932	0.782772
C51	C	-0.431358	0.265240	0.282782
C52	C	0.068642	0.765240	0.782782
C53	C	-0.330394	0.265296	0.369502
C54	C	0.169606	0.765296	0.869502
C55	C	-0.330385	0.335983	0.369496
C56	C	0.169615	0.835983	0.869496
C57	C	-0.380862	0.371298	0.326127
C58	C	0.119138	0.871298	0.826127
C59	C	-0.380856	0.447946	0.326123
C60	C	0.119144	0.947946	0.826123
C61	C	-0.380847	0.509038	0.326125
C62	C	0.119153	1.009038	0.826125
C63	C	-0.586206	0.978092	0.326106
C64	C	-0.086206	1.478092	0.826106
C65	C	-0.674062	0.978130	0.326124
C66	C	-0.174062	1.478130	0.826124
C67	C	-1.045549	0.934930	0.369399
C68	C	-0.545549	1.434930	0.869399
C69	C	-1.045526	1.021555	0.282905
C70	C	-0.545526	1.521555	0.782905
C71	C	-0.962981	1.021532	0.282899
C72	C	-0.462981	1.521532	0.782899
C73	C	-0.921715	0.978206	0.326143
C74	C	-0.421715	1.478206	0.826143
C75	C	-0.962996	0.934904	0.369393
C76	C	-0.462996	1.434904	0.869393
C77	C	-0.921694	1.064828	0.239644
C78	C	-0.421694	1.564828	0.739644
C79	C	-0.839143	1.064806	0.239636
C80	C	-0.339143	1.564806	0.739636
C81	C	-0.797876	1.021483	0.282884
C82	C	-0.297876	1.521483	0.782884
C83	C	-0.839162	0.978180	0.326136
C84	C	-0.339162	1.478180	0.826136
C85	C	-0.797897	0.934854	0.369380
C86	C	-0.297897	1.434854	0.869380
C87	C	-0.839181	0.891553	0.412637
C88	C	-0.339181	1.391553	0.912637
C89	C	-0.921729	0.891581	0.412641
C90	C	-0.421729	1.391581	0.912641
C91	C	-0.715328	1.021455	0.282880
C92	C	-0.215328	1.521455	0.782880
C93	C	-0.715343	0.934827	0.369374
C94	C	-0.215343	1.434827	0.869374
C95	C	-0.174671	0.978224	0.326144
C96	C	0.325329	1.478224	0.826144
C97	C	-0.086815	0.978256	0.326155
C98	C	0.413185	1.478256	0.826155
C99	C	-0.380790	0.978187	0.502660
C100	C	0.119210	1.478187	1.002660
C101	C	-0.380769	0.978203	0.577892
C102	C	0.119231	1.478203	1.077892
C103	C	-0.380865	1.154691	0.326135
C104	C	0.119135	1.654691	0.826135
C105	C	-0.380876	1.229923	0.326142
C106	C	0.119124	1.729923	0.826142
C107	C	-0.380832	0.978150	0.150262
C108	C	0.119168	1.478150	0.650262
C109	C	-0.380631	0.978265	0.075030
C110	C	0.119369	1.478265	0.575030
C111	C	-0.330217	1.021513	0.613248
C112	C	0.169783	1.521513	1.113248
C113	C	-0.330194	1.021520	0.683937
C114	C	0.169806	1.521520	1.183937
C115	C	-0.380727	0.978220	0.719268
C116	C	0.119273	1.478220	1.219268
C117	C	-0.431281	0.934905	0.683907
C118	C	0.068719	1.434905	1.183907
C119	C	-0.431299	0.934895	0.613220
C120	C	0.068701	1.434895	1.113220
C121	C	-0.431207	0.934943	0.968981
C122	C	0.068793	1.434943	1.468981
C123	C	-0.431186	0.934958	1.039673
C124	C	0.068814	1.434958	1.539673
C125	C	-0.330102	1.021568	1.039697
C126	C	0.169898	1.521568	1.539697
C127	C	-0.330121	1.021558	0.969010
C128	C	0.169879	1.521558	1.469010
C129	C	-0.380671	0.978241	0.933656
C130	C	0.119329	1.478241	1.433656
C131	C	-0.380694	0.978233	0.857007
C132	C	0.119306	1.478233	1.357007
C133	C	-0.380709	0.978230	0.795915
C134	C	0.119291	1.478230	1.295915
H135	H	-0.289247	0.592306	0.404787
H136	H	0.210753	1.092306	0.904787
O137	O	-0.485685	0.888244	1.077780
O138	O	0.014315	1.388244	1.577780
H139	H	-0.525905	0.918523	1.109980
H140	H	-0.025905	1.418523	1.609980
O141	O	-0.485766	0.582859	0.235981
O142	O	0.014234	1.082859	0.735981
H143	H	-0.526039	0.550663	0.266216
H144	H	-0.026039	1.050663	0.766216
O145	O	-0.794621	1.111516	0.192991
O146	O	-0.294621	1.611516	0.692991
H147	H	-0.757054	1.081238	0.158519
H148	H	-0.257054	1.581238	0.658519
H149	H	-0.472380	0.899682	0.940204
H150	H	0.027620	1.399682	1.440204
O151	O	-0.485804	0.227085	0.236008
O152	O	0.014196	0.727085	0.736008
H153	H	-0.520895	0.263516	0.205843
H154	H	-0.020895	0.763516	0.705843
H155	H	-1.079167	0.899678	0.404620
H156	H	-0.579167	1.399678	0.904620
H157	H	-0.472423	0.899647	0.712680
H158	H	0.027577	1.399647	1.212680
H159	H	-0.681718	1.056707	0.247658
H160	H	-0.181718	1.556707	0.747658
O161	O	-0.275887	0.729895	0.416233
O162	O	0.224113	1.229895	0.916233
H163	H	-0.240781	0.693459	0.446380
H164	H	0.259219	1.193459	0.946380
O165	O	-0.275926	0.374136	0.416253
O166	O	0.224074	0.874136	0.916253
H167	H	-0.240817	0.337702	0.446401
H168	H	0.259183	0.837702	0.946401
H169	H	-0.289070	1.056775	0.584487
H170	H	0.210930	1.556775	1.084487
O171	O	-0.275936	0.227208	0.416272
O172	O	0.224064	0.727208	0.916272
H173	H	-0.284412	0.172112	0.408988
H174	H	0.215588	0.672112	0.908988
H175	H	-0.472454	0.364677	0.247458
H176	H	0.027546	0.864677	0.747458
H177	H	-0.472411	0.720446	0.247434
H178	H	0.027589	1.220446	0.747434
O179	O	-0.275676	1.068236	0.722073
O180	O	0.224324	1.568236	1.222073
H181	H	-0.240550	1.098350	0.685630
H182	H	0.259450	1.598350	1.185630
H183	H	-0.681750	0.899549	0.404591
H184	H	-0.181750	1.399549	0.904591
O185	O	-0.485811	0.888174	0.575081
O186	O	0.014189	1.388174	1.075081
H187	H	-0.520948	0.858066	0.611523
H188	H	-0.020948	1.358066	1.111523
O189	O	-0.794672	0.844824	0.459280
O190	O	-0.294672	1.344824	0.959280
H191	H	-0.730336	0.852085	0.452006
H192	H	-0.230336	1.352085	0.952006
H193	H	-1.079129	1.056825	0.247694
H194	H	-0.579129	1.556825	0.747694
H195	H	-0.955298	1.100097	0.204432
H196	H	-0.455298	1.600097	0.704432
O197	O	-0.966254	0.844868	0.459280
O198	O	-0.466254	1.344868	0.959280
H199	H	-1.030587	0.852157	0.452009
H200	H	-0.530587	1.352157	0.952009
H201	H	-0.288974	1.056819	0.940247
H202	H	0.211026	1.556819	1.440247
H203	H	-0.288939	1.056836	1.068492
H204	H	0.211061	1.556836	1.568492
