data_functionalizedCrystal
_audit_creation_method	'MofGen! by Chris Wilmer'
_symmetry_space_group_name_H-M	'P1'
_symmetry_Int_Tables_number	1
_symmetry_cell_setting	triclinic
loop_
_symmetry_equiv_pos_as_xyz
  x,y,z
_cell_length_a	10.654556
_cell_length_b	9.730223
_cell_length_c	10.654550
_cell_angle_alpha	90.004253
_cell_angle_beta	84.486234
_cell_angle_gamma	90.001632
loop_
_atom_site_label
_atom_site_type_symbol
_atom_site_fract_x
_atom_site_fract_y
_atom_site_fract_z
O1	O	1.667834	0.114238	0.176437
O2	O	1.302357	0.114252	0.193234
O3	O	1.493499	0.114236	0.002097
O4	O	1.476693	0.114254	0.367575
O5	O	1.493486	-0.114344	0.002091
O6	O	1.302345	-0.114328	0.193229
O7	O	1.667822	-0.114342	0.176431
Zn8	Zn	1.485081	-0.150627	0.184829
Zn9	Zn	1.485098	0.150537	0.184836
O10	O	1.476680	-0.114326	0.367569
C11	C	1.255553	-0.000037	0.191997
C12	C	1.116110	-0.000031	0.188302
C13	C	0.919571	0.124557	0.183102
C14	C	1.050594	0.124565	0.186566
C15	C	1.050599	-0.124645	0.186560
C16	C	0.919580	-0.124652	0.183087
N17	N	1.485079	-0.356164	0.184824
C18	C	1.569746	-0.428097	0.100224
C19	C	1.569759	-0.571980	0.100225
C20	C	1.400434	-0.571984	0.269436
C21	C	1.400416	-0.428104	0.269428
C22	C	1.714626	-0.000051	0.177669
C23	C	1.854069	-0.000047	0.181364
C24	C	1.492258	-0.000054	-0.044704
C25	C	1.488567	-0.000051	-0.184147
N26	N	1.485109	0.356073	0.184832
C27	C	1.601108	-0.000055	-0.263630
C28	C	1.597631	-0.000038	-0.394651
C29	C	1.369063	-0.000019	-0.366693
C30	C	1.372540	-0.000026	-0.235675
C31	C	1.477920	-0.000034	0.414370
C32	C	1.481612	-0.000027	0.553813
H33	H	1.103920	0.226031	0.187979
O34	O	1.309081	-0.350521	0.360681
H35	H	1.247575	-0.285007	0.307227
H36	H	1.103954	-0.226094	0.187965
O37	O	0.848915	-0.259052	0.181220
H38	H	0.916475	-0.345697	0.183023
H39	H	1.638682	-0.369527	0.031332
H40	H	1.689274	-0.000038	-0.459362
O41	O	1.661092	-0.649552	0.008980
H42	H	1.607717	-0.715112	-0.052571
O43	O	1.309143	-0.649585	0.360700
H44	H	1.250261	-0.575389	0.419522
H45	H	1.280890	-0.000019	-0.170956
H46	H	0.866236	0.226018	0.181698
H47	H	1.695584	-0.000072	-0.221681
H48	H	1.274598	-0.000002	-0.408664
