data_functionalizedCrystal
_audit_creation_method	'MofGen! by Chris Wilmer'
_symmetry_space_group_name_H-M	'P1'
_symmetry_Int_Tables_number	1
_symmetry_cell_setting	triclinic
loop_
_symmetry_equiv_pos_as_xyz
  x,y,z
_cell_length_a	10.654550
_cell_length_b	15.995350
_cell_length_c	9.130313
_cell_angle_alpha	90.000982
_cell_angle_beta	89.996220
_cell_angle_gamma	83.988639
loop_
_atom_site_label
_atom_site_type_symbol
_atom_site_fract_x
_atom_site_fract_y
_atom_site_fract_z
O1	O	1.666298	0.117599	-0.121912
O2	O	1.300673	0.128803	-0.121888
O3	O	1.493480	0.001371	-0.121899
O4	O	1.473491	0.245030	-0.121900
O5	O	1.493478	0.001375	0.121700
O6	O	1.300671	0.128807	0.121711
O7	O	1.666295	0.117602	0.121687
Cu8	Cu	1.483483	0.123205	0.143942
Cu9	Cu	1.483486	0.123201	-0.144142
O10	O	1.473488	0.245034	0.121698
C11	C	1.253885	0.127982	-0.000085
C12	C	1.114473	0.125521	-0.000076
C13	C	1.034008	0.200551	-0.000098
C14	C	0.903017	0.198233	-0.000123
C15	C	0.932971	0.045849	-0.000111
C16	C	1.063959	0.048168	-0.000075
C17	C	1.016713	0.288528	-0.000111
C18	C	0.885722	0.286211	-0.000137
C19	C	1.492652	-0.029827	-0.000102
C20	C	1.490175	-0.122791	-0.000110
C21	C	1.481278	-0.460591	-0.000105
C22	C	1.343964	-0.413954	-0.000642
C23	C	1.346442	-0.317249	-0.000093
C24	C	1.485691	-0.293004	-0.000108
C25	C	1.553417	-0.333687	0.138991
C26	C	1.549968	-0.430342	0.139108
C27	C	1.552807	-0.430688	-0.137910
C28	C	1.552775	-0.333743	-0.139748
C29	C	1.488192	-0.198292	-0.000106
C30	C	1.478780	-0.555303	-0.000098
C31	C	1.713084	0.118423	-0.000119
C32	C	1.852495	0.120884	-0.000137
C33	C	1.474316	0.276232	-0.000101
C34	C	1.476793	0.369197	-0.000103
N35	N	1.483490	0.123207	0.346564
N36	N	1.483488	0.123192	-0.346765
C37	C	1.568887	0.066800	0.423211
C38	C	1.568883	0.066789	0.576548
C39	C	1.398083	0.179602	0.576578
C40	C	1.398081	0.179607	0.423244
C41	C	1.667501	0.001671	0.423195
C42	C	1.667497	0.001661	0.576532
H43	H	1.293204	-0.289138	-0.099805
H44	H	1.654321	-0.317791	-0.148158
H45	H	0.891826	-0.017130	-0.000133
H46	H	1.052003	0.316540	-0.105283
H47	H	1.654048	-0.461861	-0.138855
N48	N	1.494426	-0.298436	0.268882
N49	N	1.556943	-0.260939	0.358885
H50	H	1.515275	-0.236044	0.450619
N51	N	0.832826	0.327760	-0.128063
N52	N	0.866388	0.301391	-0.252380
H53	H	0.829027	0.330725	-0.342733
H54	H	1.328544	0.225521	0.639026
N55	N	1.275077	-0.437604	-0.125749
N56	N	1.163569	-0.406771	-0.144842
H57	H	1.114913	-0.423480	-0.233201
N58	N	1.310864	0.237224	0.344927
N59	N	1.310876	0.237225	0.208023
H60	H	1.249278	0.277920	0.152709
N61	N	1.641613	-0.079056	0.370996
N62	N	1.623366	-0.135936	0.459963
H63	H	1.605064	-0.192945	0.423099
N64	N	1.052942	0.331656	0.127826
N65	N	0.971049	0.360136	0.217941
H66	H	0.996639	0.390577	0.308313
N67	N	1.496490	-0.456796	-0.270161
N68	N	1.402939	-0.497764	-0.264452
H69	H	1.363154	-0.516206	-0.357848
N70	N	0.827985	0.319596	0.131771
N71	N	0.746456	0.381681	0.126473
H72	H	0.705680	0.405264	0.219629
N73	N	1.146155	-0.028473	-0.000066
N74	N	1.222617	-0.044188	-0.102727
H75	H	1.280670	-0.098318	-0.102721
H76	H	1.655720	-0.318967	0.144153
N77	N	1.275385	-0.438897	0.123804
N78	N	1.176388	-0.473287	0.106229
H79	H	1.127952	-0.490896	0.194124
N80	N	1.676427	-0.470072	0.147068
N81	N	1.709319	-0.517505	0.252098
H82	H	1.798629	-0.545563	0.257731
H83	H	1.292844	-0.289694	0.099796
H84	H	1.500580	-0.448929	0.243098
H85	H	1.503258	-0.306783	-0.242650
N86	N	1.781539	0.027283	0.363535
N87	N	1.866943	0.046456	0.447082
H88	H	1.947477	0.064557	0.404948
H89	H	1.637779	-0.059156	0.624082
H90	H	1.763822	0.016007	0.618142
