data_functionalizedCrystal
_audit_creation_method	'MofGen! by Chris Wilmer'
_symmetry_space_group_name_H-M	'P1'
_symmetry_Int_Tables_number	1
_symmetry_cell_setting	triclinic
loop_
_symmetry_equiv_pos_as_xyz
  x,y,z
_cell_length_a	19.188930
_cell_length_b	14.044220
_cell_length_c	12.503572
_cell_angle_alpha	86.156832
_cell_angle_beta	93.520160
_cell_angle_gamma	88.166828
loop_
_atom_site_label
_atom_site_type_symbol
_atom_site_fract_x
_atom_site_fract_y
_atom_site_fract_z
O1	O	-0.937478	-0.112788	-0.089673
O2	O	-0.735191	-0.128718	-0.089600
O3	O	-0.833298	0.017218	-0.089625
O4	O	-0.839371	-0.258724	-0.089648
O5	O	-0.825920	0.006225	0.089019
O6	O	-0.727814	-0.139712	0.089044
O7	O	-0.930100	-0.123781	0.088971
Cu8	Cu	-0.828284	-0.132750	0.105319
Cu9	Cu	-0.837008	-0.119749	-0.105948
O10	O	-0.831994	-0.269718	0.088996
C11	C	-0.705458	-0.133700	-0.000269
C12	C	-0.627852	-0.132153	-0.000240
C13	C	-0.826951	0.047025	-0.000302
C14	C	-0.819022	0.152218	-0.000297
C15	C	-0.959834	-0.118799	-0.000363
C16	C	-1.037440	-0.120345	-0.000398
C17	C	-0.588455	-0.217782	-0.000265
C18	C	-0.515538	-0.216327	-0.000276
C19	C	-0.482022	-0.129237	-0.000285
C20	C	-0.521428	-0.043597	-0.000255
C21	C	-0.594343	-0.045056	-0.000233
N22	N	-0.372258	-0.058924	-0.061123
N23	N	-0.302991	-0.057544	-0.061147
C24	C	-0.262332	-0.124838	-0.000351
N25	N	-0.293556	-0.193577	0.060457
N26	N	-0.362829	-0.194959	0.060475
C27	C	-0.402958	-0.127646	-0.000309
C28	C	-0.143870	-0.208894	-0.000386
C29	C	-0.070951	-0.207436	-0.000391
C30	C	-0.076843	-0.034704	-0.000381
C31	C	-0.149759	-0.036165	-0.000365
C32	C	-0.183269	-0.123263	-0.000373
C33	C	-0.838341	-0.299524	-0.000330
C34	C	-0.846270	-0.404716	-0.000341
N35	N	-0.822152	-0.141894	0.253913
C36	C	-0.804527	0.344819	-0.000308
C37	C	-0.860762	0.402687	-0.000331
C38	C	-0.852697	0.509858	-0.000337
C39	C	-0.812591	0.237639	-0.000302
N40	N	-0.843144	-0.110598	-0.254542
C41	C	-0.813134	-0.155352	0.473030
C42	C	-0.852161	-0.097143	0.526347
C43	C	-0.847142	-0.104631	0.648272
C44	C	-0.818151	-0.147865	0.351095
H45	H	-0.615734	-0.288704	-0.000273
Cl46	Cl	-0.755735	-0.240976	0.543924
H47	H	-0.889342	-0.041684	0.480425
H48	H	-0.483454	-0.286058	-0.000293
H49	H	-0.494135	0.027313	-0.000277
H50	H	-0.914967	0.371747	-0.000423
H51	H	-0.049557	0.036211	-0.000455
Cl52	Cl	-0.643874	0.062601	-0.000203
Cl53	Cl	-0.021422	-0.315094	-0.000416
Cl54	Cl	-0.199290	0.071489	-0.000341
Cl55	Cl	-0.185998	-0.318387	-0.000385
Cl56	Cl	-0.720847	0.392594	-0.000283
