data_functionalizedCrystal
_audit_creation_method	'MofGen! by Chris Wilmer'
_symmetry_space_group_name_H-M	'P1'
_symmetry_Int_Tables_number	1
_symmetry_cell_setting	triclinic
loop_
_symmetry_equiv_pos_as_xyz
  x,y,z
_cell_length_a	17.077404
_cell_length_b	12.759400
_cell_length_c	17.077396
_cell_angle_alpha	89.973580
_cell_angle_beta	89.982756
_cell_angle_gamma	90.014910
loop_
_atom_site_label
_atom_site_type_symbol
_atom_site_fract_x
_atom_site_fract_y
_atom_site_fract_z
Zn1	Zn	1.200082	-0.418251	-0.443859
Zn2	Zn	1.200013	-0.593954	-0.312599
Zn3	Zn	1.068819	-0.418291	-0.312606
Zn4	Zn	1.068800	-0.593890	-0.443823
O5	O	1.134429	-0.506097	-0.378222
O6	O	1.309920	-0.441569	-0.426459
O7	O	1.182589	-0.570696	-0.202753
O8	O	1.086268	-0.271264	-0.330035
O9	O	1.309869	-0.570658	-0.330023
O10	O	1.182706	-0.271236	-0.426466
O11	O	1.086201	-0.441637	-0.202759
O12	O	0.958970	-0.441574	-0.330001
O13	O	1.086236	-0.570547	-0.553674
O14	O	0.958956	-0.570585	-0.426405
O15	O	1.182688	-0.441506	-0.553701
O16	O	1.182571	-0.740967	-0.329988
O17	O	1.086170	-0.740919	-0.426398
C18	C	0.930481	-0.506077	-0.378200
C19	C	0.843231	-0.506095	-0.378209
C20	C	1.134382	-0.779064	-0.378205
C21	C	1.134434	-0.895841	-0.378225
C22	C	0.802254	-0.573372	-0.428326
C23	C	0.720274	-0.573375	-0.428339
C24	C	0.679271	-0.506104	-0.378230
C25	C	0.720254	-0.438819	-0.328111
C26	C	0.802233	-0.438812	-0.328103
C27	C	0.549384	-0.438839	-0.328130
C28	C	0.467399	-0.438847	-0.328136
C29	C	0.467425	-0.573402	-0.428366
C30	C	0.549404	-0.573395	-0.428358
C31	C	0.590380	-0.506111	-0.378237
C32	C	1.184686	-0.950692	-0.328080
C33	C	1.184734	-1.060416	-0.328104
C34	C	1.084272	-1.060427	-0.428420
C35	C	1.084228	-0.950705	-0.428399
C36	C	1.242684	-0.950687	-0.270160
C37	C	1.242733	-1.060411	-0.270185
C38	C	1.339173	-0.506116	-0.378244
C39	C	1.426423	-0.506125	-0.378253
C40	C	1.134468	-0.506015	-0.582966
C41	C	1.134485	-0.505980	-0.670216
C42	C	1.134497	-0.232063	-0.378255
C43	C	1.134526	-0.115287	-0.378270
C44	C	1.084311	-0.438771	-0.711208
C45	C	1.084324	-0.438747	-0.793189
C46	C	1.134515	-0.505928	-0.834175
C47	C	1.184691	-0.573145	-0.793177
C48	C	1.184674	-0.573173	-0.711198
C49	C	1.184725	-0.573079	-0.964047
C50	C	1.184743	-0.573050	-1.046032
C51	C	1.084375	-0.438653	-1.046038
C52	C	1.084358	-0.438682	-0.964059
C53	C	1.134535	-0.505897	-0.923066
C54	C	1.134434	-0.506102	-0.174274
C55	C	1.134570	-0.505840	-0.087025
H56	H	0.835632	-0.628156	-0.469129
H57	H	1.225614	-0.627754	-1.079401
C58	C	1.220799	-1.100756	-0.188050
H59	H	1.220841	-1.175214	-0.188068
H60	H	1.170139	-1.076019	-0.174419
H61	H	1.257899	-1.075938	-0.150993
H62	H	1.225553	-0.627850	-0.826555
H63	H	0.582786	-0.628179	-0.469157
C64	C	0.422294	-0.364862	-0.273013
H65	H	0.367602	-0.374518	-0.280188
H66	H	0.435734	-0.294285	-0.284584
H67	H	0.435711	-0.380160	-0.220249
C68	C	1.239863	-0.647101	-0.666103
H69	H	1.232659	-0.637505	-0.611410
H70	H	1.292613	-0.631732	-0.679543
H71	H	1.228352	-0.717688	-0.679528
H72	H	0.686914	-0.628160	-0.469149
H73	H	1.220928	-0.916733	-0.212385
C74	C	0.847307	-0.364805	-0.272975
H75	H	0.811148	-0.324746	-0.243129
H76	H	0.879304	-0.319078	-0.303062
H77	H	0.879269	-0.404935	-0.238714
C78	C	0.594457	-0.364824	-0.273001
H79	H	0.558297	-0.324767	-0.243154
H80	H	0.626455	-0.319097	-0.303086
H81	H	0.626417	-0.404958	-0.238741
C82	C	1.324778	-0.910346	-0.292229
H83	H	1.358569	-0.968213	-0.301327
H84	H	1.344988	-0.869003	-0.250633
H85	H	1.321422	-0.868946	-0.338356
H86	H	1.043397	-1.105111	-0.469271
H87	H	1.300489	-1.094358	-0.292013
H88	H	1.225591	-0.627804	-0.930674
C89	C	1.029093	-0.364880	-0.666130
H90	H	0.999207	-0.324859	-0.702288
H91	H	1.059117	-0.319113	-0.634156
H92	H	0.994873	-0.405092	-0.634146
H93	H	1.043491	-0.383972	-0.930690
C94	C	0.422354	-0.647407	-0.483502
H95	H	0.367658	-0.637769	-0.476339
H96	H	0.435772	-0.717977	-0.471921
H97	H	0.435816	-0.632114	-0.536264
C98	C	1.029137	-0.364811	-0.838277
H99	H	0.999251	-0.324795	-0.802126
H100	H	0.994928	-0.404979	-0.870248
H101	H	1.059191	-0.319026	-0.870266
C102	C	1.029157	-0.364750	-1.091126
H103	H	1.036341	-0.374370	-1.145820
H104	H	1.040642	-0.294156	-1.077715
H105	H	0.976413	-0.380155	-1.077670
H106	H	1.043316	-0.906045	-0.469238
H107	H	0.686863	-0.384041	-0.287314
