data_functionalizedCrystal
_audit_creation_method	'MofGen! by Chris Wilmer'
_symmetry_space_group_name_H-M	'P1'
_symmetry_Int_Tables_number	1
_symmetry_cell_setting	triclinic
loop_
_symmetry_equiv_pos_as_xyz
  x,y,z
_cell_length_a	6.817900
_cell_length_b	14.125369
_cell_length_c	17.110486
_cell_angle_alpha	96.591968
_cell_angle_beta	99.060439
_cell_angle_gamma	100.397648
loop_
_atom_site_label
_atom_site_type_symbol
_atom_site_fract_x
_atom_site_fract_y
_atom_site_fract_z
V1	V	-3.961347	-0.132827	-0.246410
O2	O	-3.966155	0.006678	-0.242039
O3	O	-3.897876	-0.263658	-0.244417
O4	O	-3.891460	-0.130655	-0.354018
O5	O	-3.972616	-0.127246	-0.131679
V6	V	-4.449713	-0.116156	-0.232724
O7	O	-4.211984	-0.169397	-0.276430
O8	O	-4.649273	-0.079587	-0.202705
O9	O	-4.289977	0.014674	-0.234718
O10	O	-4.562302	-0.255661	-0.237095
O11	O	-4.555840	-0.121737	-0.347455
O12	O	-4.296394	-0.118329	-0.125116
C13	C	-3.739906	-0.295555	-0.240450
C14	C	-3.769154	-0.402510	-0.239538
C15	C	-4.007634	-0.650649	-0.241240
C16	C	-3.822804	-0.598335	-0.237897
C17	C	-3.792954	-0.489368	-0.238810
C18	C	-4.037492	-0.759626	-0.240327
C19	C	-3.731720	-0.125896	-0.380256
C20	C	-3.755763	-0.124985	-0.468225
C21	C	-3.947792	-0.129359	-0.513572
C22	C	-3.970371	-0.128503	-0.596228
C23	C	-3.800920	-0.123280	-0.633534
C24	C	-3.608875	-0.118902	-0.588180
C25	C	-3.586296	-0.119752	-0.505526
C26	C	-3.860048	-0.120469	-0.882896
C27	C	-3.882643	-0.119623	-0.965557
C28	C	-4.244138	-0.129221	-0.973598
C29	C	-4.221544	-0.130076	-0.890942
C30	C	-4.029500	-0.125694	-0.845595
C31	C	-3.823996	-0.122407	-0.718022
C32	C	-4.006425	-0.126559	-0.761108
C33	C	-4.111289	0.046567	-0.238682
C34	C	-4.061278	0.153521	-0.239599
C35	C	-4.119476	-0.123091	-0.098874
C36	C	-4.074672	-0.123997	-0.010905
H37	H	-4.085784	-0.133619	-0.483204
C38	C	-4.407938	-0.135807	-0.849909
H39	H	-4.525537	-0.138279	-0.888753
H40	H	-4.424307	-0.192692	-0.824924
H41	H	-4.388971	-0.079970	-0.810739
C42	C	-3.422545	-0.113375	-0.629239
H43	H	-3.304963	-0.110949	-0.590399
H44	H	-3.441781	-0.169276	-0.668359
H45	H	-3.405935	-0.056539	-0.654287
C46	C	-4.191099	-0.600603	-0.246022
H47	H	-4.146642	-0.532867	-0.246007
H48	H	-4.285284	-0.627747	-0.293838
H49	H	-4.254533	-0.610300	-0.201154
C50	C	-3.375067	-0.114946	-0.455644
H51	H	-3.277383	-0.111723	-0.489700
H52	H	-3.341089	-0.058722	-0.416137
H53	H	-3.376405	-0.171443	-0.430331
H54	H	-4.144388	-0.130809	-0.730729
H55	H	-4.126736	-0.132059	-0.633146
C56	C	-3.637702	-0.116963	-0.759097
H57	H	-3.520118	-0.114567	-0.720265
H58	H	-3.657056	-0.172888	-0.798202
H59	H	-3.621008	-0.060145	-0.784165
C60	C	-3.639315	-0.648375	-0.233086
H61	H	-3.683753	-0.716108	-0.233082
H62	H	-3.575823	-0.638681	-0.277935
H63	H	-3.545181	-0.621215	-0.185254
C64	C	-4.455364	-0.134029	-1.023480
H65	H	-4.444548	-0.132766	-1.078048
H66	H	-4.543590	-0.192493	-1.018683
H67	H	-4.508257	-0.079772	-1.004487
H68	H	-3.744644	-0.115366	-0.995929
H69	H	-3.703689	-0.116935	-0.845988
