data_functionalizedCrystal
_audit_creation_method	'MofGen! by Chris Wilmer'
_symmetry_space_group_name_H-M	'P1'
_symmetry_Int_Tables_number	1
_symmetry_cell_setting	triclinic
loop_
_symmetry_equiv_pos_as_xyz
  x,y,z
_cell_length_a	10.723022
_cell_length_b	15.944551
_cell_length_c	9.198806
_cell_angle_alpha	89.995864
_cell_angle_beta	89.996352
_cell_angle_gamma	83.982982
loop_
_atom_site_label
_atom_site_type_symbol
_atom_site_fract_x
_atom_site_fract_y
_atom_site_fract_z
O1	O	1.655701	0.117802	-0.120886
O2	O	1.292405	0.129080	-0.120892
O3	O	1.483974	0.001223	-0.120876
O4	O	1.464132	0.245659	-0.120902
O5	O	1.483959	0.001222	0.120909
O6	O	1.292390	0.129079	0.120893
O7	O	1.655685	0.117801	0.120899
Cu8	Cu	1.474037	0.123440	0.142973
Cu9	Cu	1.474054	0.123441	-0.142966
O10	O	1.464117	0.245659	0.120883
C11	C	1.245909	0.128259	0.000000
C12	C	1.107385	0.125804	-0.000001
C13	C	1.059756	0.052074	0.000006
C14	C	0.916585	0.049535	0.000004
C15	C	1.483143	-0.030076	0.000017
C16	C	1.480673	-0.123336	0.000018
C17	C	1.356027	-0.338906	-0.000004
C18	C	1.413901	-0.399592	0.119211
C19	C	1.476206	-0.294088	0.000006
C20	C	1.413945	-0.399575	-0.119170
C21	C	1.471881	-0.459025	-0.000011
C22	C	1.534112	-0.353546	0.119320
C23	C	1.534139	-0.353522	-0.119168
C24	C	1.592100	-0.414191	0.000077
C25	C	1.478693	-0.199071	0.000018
C26	C	1.469403	-0.554040	-0.000011
C27	C	1.702182	0.118622	0.000003
C28	C	1.840706	0.121077	-0.000005
C29	C	1.464948	0.276957	-0.000013
C30	C	1.467418	0.370218	-0.000024
N31	N	1.474033	0.123440	0.344087
N32	N	1.474068	0.123435	-0.344080
C33	C	1.554470	0.069519	0.416290
C34	C	1.554489	0.069516	0.583703
H35	H	1.124972	-0.009170	0.000006
H36	H	1.405203	0.169604	0.593837
C37	C	0.861668	-0.034560	-0.000064
C38	C	0.730582	-0.020360	-0.000103
C39	C	0.679948	-0.097810	-0.000186
H40	H	0.888909	-0.065675	0.084231
H41	H	0.888986	-0.065614	-0.084412
H42	H	0.703275	0.010680	0.084237
H43	H	0.703306	0.010742	-0.084391
H44	H	0.707267	-0.128864	-0.084534
H45	H	0.707198	-0.128919	0.084110
H46	H	0.591002	-0.088186	-0.000226
C47	C	1.646254	0.007823	0.666301
C48	C	1.625709	-0.074799	0.629368
C49	C	1.710230	-0.131656	0.705417
H50	H	1.634149	0.015885	0.767839
H51	H	1.729638	0.017230	0.641379
H52	H	1.542345	-0.084203	0.654300
H53	H	1.637824	-0.082889	0.527843
H54	H	1.793615	-0.122249	0.680495
H55	H	1.698119	-0.123586	0.806952
H56	H	1.696310	-0.187721	0.680359
H57	H	0.881711	0.184208	-0.000002
C58	C	1.222928	-0.295407	0.000222
C59	C	1.137846	-0.356283	0.001632
C60	C	1.015228	-0.316243	0.001869
H61	H	1.209834	-0.261550	-0.084482
H62	H	1.210553	-0.260815	0.084153
H63	H	1.150215	-0.390860	-0.082291
H64	H	1.150899	-0.390143	0.086330
H65	H	1.002853	-0.281652	0.085800
H66	H	1.002147	-0.282388	-0.082836
H67	H	0.957485	-0.357542	0.002839
C68	C	1.020293	0.207407	-0.000240
C69	C	0.944695	0.210473	-0.124618
C70	C	0.864442	0.285630	-0.124878
H71	H	1.068584	0.254063	-0.000319
H72	H	0.968823	0.209646	0.084030
H73	H	0.996159	0.208243	-0.208866
H74	H	0.896378	0.163835	-0.124566
H75	H	0.812973	0.287869	-0.040608
H76	H	0.912744	0.332280	-0.124953
H77	H	0.813132	0.287717	-0.209260
C78	C	1.382160	0.184859	0.427093
C79	C	1.305671	0.139750	0.514524
C80	C	1.221031	0.196303	0.591021
H81	H	1.331570	0.218712	0.360253
H82	H	1.427228	0.219959	0.486544
H83	H	1.260606	0.104665	0.455079
H84	H	1.356226	0.105900	0.581391
H85	H	1.266100	0.231403	0.650471
H86	H	1.170451	0.230153	0.524170
H87	H	1.169131	0.165705	0.650361
C88	C	1.646509	0.008007	0.333695
C89	C	1.769233	0.022135	0.370654
C90	C	1.854067	-0.034523	0.294632
H91	H	1.634498	0.016116	0.232152
H92	H	1.632829	-0.048125	0.358621
H93	H	1.782908	0.078253	0.345718
H94	H	1.781284	0.014020	0.472183
H95	H	1.840387	-0.090655	0.319558
H96	H	1.842045	-0.026410	0.193094
H97	H	1.937344	-0.024951	0.319708
C98	C	1.346217	-0.426973	0.253541
C99	C	1.345832	-0.514755	0.252419
C100	C	1.283498	-0.540006	0.376142
H101	H	1.262322	-0.401039	0.253541
H102	H	1.388110	-0.410500	0.338238
H103	H	1.303936	-0.531220	0.167744
H104	H	1.429709	-0.540710	0.252441
H105	H	1.325391	-0.523532	0.460839
H106	H	1.199607	-0.514066	0.376130
H107	H	1.283239	-0.599568	0.375404
C108	C	1.602057	-0.326579	0.253739
C109	C	1.725234	-0.365661	0.253870
C110	C	1.787861	-0.340828	0.377663
H111	H	1.559802	-0.342711	0.338399
H112	H	1.603257	-0.267085	0.252949
H113	H	1.724028	-0.425141	0.254674
H114	H	1.767523	-0.349534	0.169239
H115	H	1.789061	-0.281335	0.376872
H116	H	1.745596	-0.356961	0.462312
H117	H	1.871446	-0.367335	0.377761
C118	C	1.725211	-0.457668	-0.000169
C119	C	1.744036	-0.507488	-0.125167
C120	C	1.866651	-0.547532	-0.125460
H121	H	1.737857	-0.492319	0.083644
H122	H	1.782976	-0.416380	0.000584
H123	H	1.686288	-0.548771	-0.125907
H124	H	1.731416	-0.472857	-0.209001
H125	H	1.924416	-0.506243	-0.124706
H126	H	1.879286	-0.582178	-0.041641
H127	H	1.879443	-0.581333	-0.210275
C128	C	1.346172	-0.426583	-0.253685
C129	C	1.305306	-0.355364	-0.336707
C130	C	1.242876	-0.380208	-0.460635
H131	H	1.275966	-0.454420	-0.225222
H132	H	1.401764	-0.463902	-0.309915
H133	H	1.249717	-0.318060	-0.280488
H134	H	1.375486	-0.327519	-0.365208
H135	H	1.298468	-0.417527	-0.516865
H136	H	1.172676	-0.408046	-0.432158
H137	H	1.215151	-0.331891	-0.516987
H138	H	1.584932	-0.333101	-0.219959
