data_functionalizedCrystal
_audit_creation_method	'MofGen! by Chris Wilmer'
_symmetry_space_group_name_H-M	'P1'
_symmetry_Int_Tables_number	1
_symmetry_cell_setting	triclinic
loop_
_symmetry_equiv_pos_as_xyz
  x,y,z
_cell_length_a	14.519709
_cell_length_b	15.995350
_cell_length_c	12.996460
_cell_angle_alpha	89.996249
_cell_angle_beta	89.999498
_cell_angle_gamma	83.586260
loop_
_atom_site_label
_atom_site_type_symbol
_atom_site_fract_x
_atom_site_fract_y
_atom_site_fract_z
O1	O	1.223670	0.109760	-0.085428
O2	O	1.473670	0.359760	0.164572
O3	O	1.723670	0.609760	0.414572
O4	O	1.973670	0.859760	0.664572
O5	O	0.955170	0.122685	-0.085458
O6	O	1.205170	0.372685	0.164542
O7	O	1.455170	0.622685	0.414542
O8	O	1.705170	0.872685	0.664542
O9	O	1.096760	-0.005654	-0.085441
O10	O	1.346760	0.244346	0.164559
O11	O	1.596760	0.494346	0.414559
O12	O	1.846760	0.744346	0.664559
O13	O	1.082080	0.238099	-0.085445
O14	O	1.332080	0.488099	0.164555
O15	O	1.582080	0.738099	0.414555
O16	O	1.832080	0.988099	0.664555
O17	O	1.096743	-0.005661	0.085693
O18	O	1.346743	0.244339	0.335693
O19	O	1.596743	0.494339	0.585693
O20	O	1.846743	0.744339	0.835693
O21	O	0.955154	0.122679	0.085675
O22	O	1.205154	0.372679	0.335675
O23	O	1.455154	0.622679	0.585675
O24	O	1.705154	0.872679	0.835675
O25	O	1.223654	0.109753	0.085706
O26	O	1.473654	0.359753	0.335706
O27	O	1.723654	0.609753	0.585706
O28	O	1.973654	0.859753	0.835706
Cu29	Cu	1.089402	0.116215	0.101317
Cu30	Cu	1.339402	0.366215	0.351317
Cu31	Cu	1.589402	0.616215	0.601317
Cu32	Cu	1.839402	0.866215	0.851317
Cu33	Cu	1.089421	0.116223	-0.101069
Cu34	Cu	1.339421	0.366223	0.148931
Cu35	Cu	1.589421	0.616223	0.398931
Cu36	Cu	1.839421	0.866223	0.648931
O37	O	1.082064	0.238093	0.085689
O38	O	1.332064	0.488093	0.335689
O39	O	1.582064	0.738093	0.585689
O40	O	1.832064	0.988093	0.835689
C41	C	0.920803	0.122080	0.000104
C42	C	1.170803	0.372080	0.250104
C43	C	1.420803	0.622080	0.500104
C44	C	1.670803	0.872080	0.750104
C45	C	0.818425	0.120275	0.000092
C46	C	1.068425	0.370275	0.250092
C47	C	1.318425	0.620275	0.500092
C48	C	1.568425	0.870275	0.750092
C49	C	1.096145	-0.036853	0.000124
C50	C	1.346145	0.213147	0.250124
C51	C	1.596145	0.463147	0.500124
C52	C	1.846145	0.713147	0.750124
C53	C	1.094325	-0.129806	0.000118
C54	C	1.344325	0.120194	0.250118
C55	C	1.594325	0.370194	0.500118
C56	C	1.844325	0.620194	0.750118
C57	C	0.443541	0.113629	0.000139
C58	C	0.693541	0.363629	0.250139
C59	C	0.943541	0.613629	0.500139
C60	C	1.193541	0.863629	0.750139
C61	C	0.547846	0.115475	0.000126
C62	C	0.797846	0.365475	0.250126
C63	C	1.047846	0.615475	0.500126
C64	C	1.297846	0.865475	0.750126
C65	C	0.630980	0.116952	0.000115
C66	C	0.880980	0.366952	0.250115
C67	C	1.130980	0.616952	0.500115
C68	C	1.380980	0.866952	0.750115
C69	C	0.735291	0.118797	0.000104
C70	C	0.985291	0.368797	0.250104
C71	C	1.235291	0.618797	0.500104
C72	C	1.485291	0.868797	0.750104
C73	C	1.087791	-0.467563	0.000120
C74	C	1.337791	-0.217563	0.250120
C75	C	1.587791	0.032437	0.500120
C76	C	1.837791	0.282437	0.750120
C77	C	0.986954	-0.420280	-0.000275
C78	C	1.236954	-0.170280	0.249725
C79	C	1.486954	0.079720	0.499725
C80	C	1.736954	0.329720	0.749725
C81	C	0.988773	-0.323587	0.000111
C82	C	1.238773	-0.073587	0.250111
C83	C	1.488773	0.176413	0.500111
C84	C	1.738773	0.426413	0.750111
C85	C	1.091032	-0.299998	0.000118
C86	C	1.341032	-0.049998	0.250118
C87	C	1.591032	0.200002	0.500118
C88	C	1.841032	0.450002	0.750118
C89	C	1.140760	-0.341005	0.097848
C90	C	1.390760	-0.091005	0.347848
C91	C	1.640760	0.158995	0.597848
C92	C	1.890760	0.408995	0.847848
C93	C	1.138227	-0.437644	0.097930
C94	C	1.388227	-0.187644	0.347930
C95	C	1.638227	0.062356	0.597930
C96	C	1.888227	0.312356	0.847930
C97	C	1.140328	-0.437992	-0.096681
C98	C	1.390328	-0.187992	0.153319
C99	C	1.640328	0.062008	0.403319
C100	C	1.890328	0.312008	0.653319
C101	C	1.140304	-0.341046	-0.097973
C102	C	1.390304	-0.091046	0.152027
C103	C	1.640304	0.158954	0.402027
C104	C	1.890304	0.408954	0.652027
C105	C	1.092869	-0.205298	0.000121
C106	C	1.342869	0.044702	0.250121
C107	C	1.592869	0.294702	0.500121
C108	C	1.842869	0.544702	0.750121
C109	C	1.085957	-0.562264	0.000125
C110	C	1.335957	-0.312264	0.250125
C111	C	1.585957	-0.062264	0.500125
C112	C	1.835957	0.187736	0.750125
C113	C	1.258021	0.110359	0.000141
C114	C	1.508021	0.360359	0.250141
C115	C	1.758021	0.610359	0.500141
C116	C	2.008021	0.860359	0.750141
C117	C	1.360399	0.112164	0.000146
C118	C	1.610399	0.362164	0.250146
C119	C	1.860399	0.612164	0.500146
C120	C	2.110399	0.862164	0.750146
C121	C	1.082679	0.269292	0.000122
C122	C	1.332679	0.519292	0.250122
C123	C	1.582679	0.769292	0.500122
C124	C	1.832679	1.019292	0.750122
C125	C	1.084498	0.362245	0.000121
C126	C	1.334498	0.612245	0.250121
C127	C	1.584498	0.862245	0.500121
C128	C	1.834498	1.112245	0.750121
N129	N	1.089395	0.116209	0.243664
N130	N	1.339395	0.366209	0.493664
N131	N	1.589395	0.616209	0.743664
N132	N	1.839395	0.866209	0.993664
C133	C	1.089413	0.116226	0.663478
C134	C	1.339413	0.366226	0.913478
C135	C	1.589413	0.616226	1.163478
C136	C	1.839413	0.866226	1.413478
C137	C	1.089406	0.116225	0.546673
C138	C	1.339406	0.366225	0.796673
C139	C	1.589406	0.616225	1.046673
C140	C	1.839406	0.866225	1.296673
C141	C	1.089405	0.116219	0.453575
C142	C	1.339405	0.366219	0.703575
C143	C	1.589405	0.616219	0.953575
C144	C	1.839405	0.866219	1.203575
C145	C	1.089396	0.116215	0.336762
C146	C	1.339396	0.366215	0.586762
C147	C	1.589396	0.616215	0.836762
C148	C	1.839396	0.866215	1.086762
N149	N	1.089427	0.116226	0.756584
N150	N	1.339427	0.366226	1.006584
N151	N	1.589427	0.616226	1.256584
N152	N	1.839427	0.866226	1.506584
H153	H	0.949684	-0.295221	-0.069946
H154	H	1.199684	-0.045221	0.180054
H155	H	1.449684	0.204779	0.430054
H156	H	1.699684	0.454779	0.680054
H157	H	0.946657	-0.438870	-0.070359
H158	H	1.196657	-0.188870	0.179641
H159	H	1.446657	0.061130	0.429641
H160	H	1.696657	0.311130	0.679641
H161	H	1.106208	-0.312678	0.170570
H162	H	1.356208	-0.062678	0.420570
H163	H	1.606208	0.187322	0.670570
H164	H	1.856208	0.437322	0.920570
N165	N	1.240269	-0.322138	0.102685
N166	N	1.490269	-0.072138	0.352685
N167	N	1.740269	0.177862	0.602685
N168	N	1.990269	0.427862	0.852685
H169	H	1.270880	-0.349103	0.166106
H170	H	1.520880	-0.099103	0.416106
H171	H	1.770880	0.150897	0.666106
H172	H	2.020880	0.400897	0.916106
H173	H	1.274353	-0.345404	0.039342
H174	H	1.524353	-0.095404	0.289342
H175	H	1.774353	0.154596	0.539342
H176	H	2.024353	0.404596	0.789342
N177	N	1.092229	-0.304957	-0.193755
N178	N	1.342229	-0.054957	0.056245
N179	N	1.592229	0.195043	0.306245
N180	N	1.842229	0.445043	0.556245
H181	H	1.068138	-0.351649	-0.234580
H182	H	1.318138	-0.101649	0.015420
H183	H	1.568138	0.148351	0.265420
H184	H	1.818138	0.398351	0.515420
H185	H	1.038789	-0.262183	-0.173626
H186	H	1.288789	-0.012183	0.076374
H187	H	1.538789	0.237817	0.326374
H188	H	1.788789	0.487817	0.576374
H189	H	1.107366	-0.458578	-0.170754
H190	H	1.357366	-0.208578	0.079246
H191	H	1.607366	0.041422	0.329246
H192	H	1.857366	0.291422	0.579246
H193	H	0.949408	-0.295784	0.070278
H194	H	1.199408	-0.045784	0.320278
H195	H	1.449408	0.204216	0.570278
H196	H	1.699408	0.454216	0.820278
N197	N	0.933787	-0.446309	0.092028
N198	N	1.183787	-0.196309	0.342028
N199	N	1.433787	0.053691	0.592028
N200	N	1.683787	0.303691	0.842028
H201	H	0.974737	-0.488597	0.134098
H202	H	1.224737	-0.238597	0.384098
H203	H	1.474737	0.011403	0.634098
H204	H	1.724737	0.261403	0.884098
H205	H	0.913674	-0.395231	0.135586
H206	H	1.163674	-0.145231	0.385586
H207	H	1.413674	0.104769	0.635586
H208	H	1.663674	0.354769	0.885586
H209	H	1.214876	-0.325573	-0.103868
H210	H	1.464876	-0.075573	0.146132
H211	H	1.714876	0.174427	0.396132
H212	H	1.964876	0.424427	0.646132
H213	H	1.101952	-0.456003	0.170979
H214	H	1.351952	-0.206003	0.420979
H215	H	1.601952	0.043997	0.670979
H216	H	1.851952	0.293997	0.920979
H217	H	1.212260	-0.469782	0.102369
H218	H	1.462260	-0.219782	0.352369
H219	H	1.712260	0.030218	0.602369
H220	H	1.962260	0.280218	0.852369
N221	N	1.238810	-0.479909	-0.097552
N222	N	1.488810	-0.229909	0.152448
N223	N	1.738810	0.020091	0.402448
N224	N	1.988810	0.270091	0.652448
H225	H	1.249383	-0.517873	-0.035581
H226	H	1.499383	-0.267873	0.214419
H227	H	1.749383	-0.017873	0.464419
H228	H	1.999383	0.232127	0.714419
H229	H	1.249831	-0.514334	-0.162424
H230	H	1.499831	-0.264334	0.087576
H231	H	1.749831	-0.014334	0.337576
H232	H	1.999831	0.235666	0.587576
