data_functionalizedCrystal
_audit_creation_method	'MofGen! by Chris Wilmer'
_symmetry_space_group_name_H-M	'P1'
_symmetry_Int_Tables_number	1
_symmetry_cell_setting	triclinic
loop_
_symmetry_equiv_pos_as_xyz
  x,y,z
_cell_length_a	12.759401
_cell_length_b	18.101395
_cell_length_c	12.759393
_cell_angle_alpha	89.966505
_cell_angle_beta	89.980163
_cell_angle_gamma	90.032629
loop_
_atom_site_label
_atom_site_type_symbol
_atom_site_fract_x
_atom_site_fract_y
_atom_site_fract_z
Zn1	Zn	1.606135	-0.294755	-0.594006
Zn2	Zn	1.605979	-0.418617	-0.418321
Zn3	Zn	1.430437	-0.294797	-0.418342
Zn4	Zn	1.430376	-0.418563	-0.593958
O5	O	1.518232	-0.356683	-0.506157
O6	O	1.753136	-0.311191	-0.570713
O7	O	1.582654	-0.402232	-0.271302
O8	O	1.453835	-0.191159	-0.441673
O9	O	1.753021	-0.402192	-0.441637
O10	O	1.582920	-0.191128	-0.570733
O11	O	1.453684	-0.311262	-0.271318
O12	O	1.283408	-0.311210	-0.441626
O13	O	1.453730	-0.402099	-0.740986
O14	O	1.283363	-0.402140	-0.570651
O15	O	1.582860	-0.311139	-0.741021
O16	O	1.582594	-0.522243	-0.441590
O17	O	1.453579	-0.522203	-0.570630
C18	C	1.245265	-0.356674	-0.506136
C19	C	1.128488	-0.356688	-0.506152
C20	C	1.518091	-0.549094	-0.506126
C21	C	1.518127	-0.631408	-0.506148
C22	C	1.073630	-0.404107	-0.573229
C23	C	0.963906	-0.404110	-0.573250
C24	C	0.963908	-0.309272	-0.439107
C25	C	1.073630	-0.309266	-0.439092
C26	C	1.518358	-0.930499	-0.506204
C27	C	1.437373	-0.899179	-0.587594
C28	C	1.436988	-0.813561	-0.587340
C29	C	1.518243	-0.782116	-0.506177
C30	C	1.488263	-0.813277	-0.395451
C31	C	1.487741	-0.898922	-0.395938
C32	C	1.629500	-0.898838	-0.534565
C33	C	1.628847	-0.813187	-0.536994
C34	C	1.518181	-0.698257	-0.506155
C35	C	1.518418	-1.014358	-0.506219
C36	C	1.792265	-0.356693	-0.506178
C37	C	1.909042	-0.356697	-0.506187
C38	C	1.518305	-0.356608	-0.780190
C39	C	1.518337	-0.356576	-0.896967
C40	C	1.518402	-0.163521	-0.506211
C41	C	1.518474	-0.081207	-0.506234
C42	C	1.451206	-0.309200	-0.951836
C43	C	1.451230	-0.309177	-1.061561
C44	C	1.585525	-0.403910	-1.061536
C45	C	1.585495	-0.403936	-0.951814
C46	C	1.518219	-0.356704	-0.233189
C47	C	1.518392	-0.356528	-0.116413
H48	H	1.118292	-0.442720	-0.627836
Cl49	Cl	0.894946	-0.463725	-0.657582
H50	H	1.689837	-0.919091	-0.475286
H51	H	1.640163	-0.442518	-0.907138
Cl52	Cl	1.466038	-0.930896	-0.714768
Cl53	Cl	1.663758	-0.781739	-0.662805
Cl54	Cl	0.894935	-0.249662	-0.354806
Cl55	Cl	1.142599	-0.249644	-0.354766
H56	H	1.545393	-0.792910	-0.333156
Cl57	Cl	1.366775	-0.249666	-0.882890
H58	H	1.640203	-0.442467	-1.106206
Cl59	Cl	1.465943	-0.781026	-0.714100
Cl60	Cl	1.310958	-0.932527	-0.558979
H61	H	1.354607	-0.793141	-0.568554
H62	H	1.406496	-0.918968	-0.371913
H63	H	1.544168	-0.919643	-0.333229
Cl64	Cl	1.671700	-0.932094	-0.657100
H65	H	1.692377	-0.791778	-0.482034
Cl66	Cl	1.364153	-0.780272	-0.357692
H67	H	1.396565	-0.270599	-1.106230
