data_functionalizedCrystal
_audit_creation_method	'MofGen! by Chris Wilmer'
_symmetry_space_group_name_H-M	'P1'
_symmetry_Int_Tables_number	1
_symmetry_cell_setting	triclinic
loop_
_symmetry_equiv_pos_as_xyz
  x,y,z
_cell_length_a	27.732066
_cell_length_b	27.731993
_cell_length_c	15.455313
_cell_angle_alpha	92.646914
_cell_angle_beta	87.353257
_cell_angle_gamma	82.635246
loop_
_atom_site_label
_atom_site_type_symbol
_atom_site_fract_x
_atom_site_fract_y
_atom_site_fract_z
O1	O	-0.055267	-0.643076	-0.071890
O2	O	-0.064039	-0.502280	-0.071942
O3	O	0.010744	-0.577046	-0.071917
O4	O	-0.130050	-0.568310	-0.071915
O5	O	0.006485	-0.572771	0.072343
O6	O	-0.068298	-0.498005	0.072318
O7	O	-0.059526	-0.638800	0.072370
Cu8	Cu	-0.064301	-0.568012	0.085516
Cu9	Cu	-0.059264	-0.573068	-0.085089
O10	O	-0.134309	-0.564034	0.072345
C11	C	-0.065988	-0.482136	0.000181
C12	C	-0.065445	-0.428480	0.000161
C13	C	0.026621	-0.574724	0.000210
C14	C	0.080276	-0.574168	0.000203
C15	C	0.457339	-0.526198	0.000185
C16	C	0.255680	-0.528245	0.000183
O17	O	0.224421	-0.491025	0.000134
N18	N	0.236560	-0.572580	0.000199
C19	C	0.267860	-0.616407	0.000210
O20	O	0.246971	-0.654164	0.000214
C21	C	0.469519	-0.614359	0.000206
C22	C	0.488635	-0.570021	0.000199
C23	C	0.476456	-0.481863	0.000177
C24	C	0.526868	-0.481352	0.000182
C25	C	0.558163	-0.525175	0.000196
C26	C	0.539046	-0.569509	0.000204
C27	C	0.500817	-0.658185	0.000211
C28	C	0.551235	-0.657669	0.000208
C29	C	0.570350	-0.613331	0.000200
C30	C	0.620753	-0.612821	0.000223
N31	N	0.639873	-0.568486	0.000207
C32	C	0.608577	-0.524663	0.000193
C33	C	0.161985	-0.617479	0.000214
C34	C	0.111571	-0.617991	0.000216
C35	C	0.099394	-0.529829	0.000187
C36	C	0.149810	-0.529317	0.000191
C37	C	0.181105	-0.573144	0.000198
C38	C	0.714446	-0.523592	0.000205
C39	C	0.764863	-0.523084	0.000214
C40	C	0.777035	-0.611245	0.000238
C41	C	0.726623	-0.611753	0.000234
C42	C	0.695329	-0.567923	0.000215
O43	O	0.652041	-0.650021	0.000262
O44	O	0.629476	-0.486912	0.000170
C45	C	0.406927	-0.526709	0.000180
C46	C	0.387811	-0.571044	0.000188
C47	C	0.419106	-0.614867	0.000202
C48	C	0.337396	-0.571556	0.000191
C49	C	0.306101	-0.527733	0.000177
C50	C	0.325220	-0.483398	0.000161
C51	C	0.375632	-0.482886	0.000166
C52	C	0.399987	-0.659202	0.000218
C53	C	0.349575	-0.659710	0.000213
C54	C	0.318279	-0.615887	0.000200
C55	C	-0.057577	-0.658945	0.000245
C56	C	-0.058120	-0.712601	0.000259
C57	C	0.849813	-0.566355	0.000218
C58	C	0.796158	-0.566907	0.000228
C59	C	-0.059194	-0.047649	-0.078433
C60	C	-0.061261	-0.249307	-0.078457
O61	O	-0.059534	-0.277362	-0.145336
N62	N	-0.063841	-0.272197	0.000178
C63	C	-0.065901	-0.244669	0.078824
O64	O	-0.068138	-0.268766	0.145707
C65	C	-0.063831	-0.043012	0.078847
C66	C	-0.061256	-0.020125	0.000207
C67	C	-0.056619	-0.024761	-0.157067
C68	C	-0.056105	0.025651	-0.157060
C69	C	-0.058167	0.053175	-0.078420
C70	C	-0.060742	0.030287	0.000213
C71	C	-0.065888	-0.015486	0.157492
C72	C	-0.065369	0.034931	0.157491
C73	C	-0.062794	0.057818	0.078851
C74	C	-0.062290	0.108223	0.078860
N75	N	-0.059710	0.131113	0.000226
C76	C	-0.057648	0.103589	-0.078415
C77	C	-0.066989	-0.350542	0.078807
C78	C	-0.067507	-0.400956	0.078801
C79	C	-0.062865	-0.405590	-0.078480
C80	C	-0.062351	-0.355175	-0.078474
C81	C	-0.064409	-0.327652	0.000172
C82	C	-0.056570	0.209458	-0.078395
C83	C	-0.056058	0.259875	-0.078381
C84	C	-0.060697	0.264504	0.078900
C85	C	-0.061211	0.214092	0.078887
C86	C	-0.059146	0.186570	0.000232
O87	O	-0.064010	0.136308	0.145704
O88	O	-0.055401	0.127694	-0.145288
C89	C	-0.059708	-0.098061	-0.078440
C90	C	-0.062284	-0.120949	0.000193
C91	C	-0.064346	-0.093425	0.078834
C92	C	-0.062802	-0.171362	0.000188
C93	C	-0.060740	-0.198886	-0.078452
C94	C	-0.058160	-0.175996	-0.157087
C95	C	-0.057646	-0.125585	-0.157080
C96	C	-0.066926	-0.116314	0.157468
C97	C	-0.067440	-0.166726	0.157455
C98	C	-0.065378	-0.194250	0.078815
N99	N	-0.067843	-0.564460	0.205511
N100	N	-0.055718	-0.576625	-0.205083
C101	C	-0.036084	-0.596234	0.250915
C102	C	-0.038768	-0.593551	0.341722
C103	C	-0.073212	-0.559097	0.387123
C104	C	-0.104972	-0.527320	0.341712
C105	C	-0.102287	-0.530000	0.250907
C106	C	-0.084793	-0.547528	0.658701
C107	C	-0.087477	-0.544851	0.749512
C108	C	-0.021271	-0.611082	0.749517
C109	C	-0.018590	-0.613762	0.658709
C110	C	-0.050349	-0.581983	0.613306
N111	N	-0.075957	-0.556356	0.479942
N112	N	-0.047602	-0.584722	0.520489
H113	H	0.780424	-0.486977	0.000212
H114	H	-0.069612	-0.419585	0.142838
H115	H	0.073905	-0.494147	0.000180
H116	H	-0.054888	0.187055	-0.142442
H117	H	-0.128147	-0.504126	0.213939
H118	H	0.711058	-0.647857	0.000252
H119	H	0.009457	-0.641817	0.621746
H120	H	0.096011	-0.654095	0.000235
H121	H	-0.062378	0.286924	0.142926
H122	H	0.542427	-0.445247	0.000169
H123	H	-0.115528	-0.516792	0.786473
H124	H	0.165370	-0.493213	0.000189
H125	H	-0.053962	0.278508	-0.142422
H126	H	-0.110653	-0.521653	0.621741
H127	H	0.004586	-0.636955	0.786492
H128	H	-0.012907	-0.619424	0.378691
H129	H	-0.133017	-0.499264	0.378682
H130	H	0.688972	-0.487900	0.000189
H131	H	-0.054005	0.044281	-0.221097
H132	H	-0.069541	-0.185356	0.221498
H133	H	0.450980	-0.446175	0.000163
H134	H	0.485262	-0.694290	0.000216
H135	H	0.187462	-0.653170	0.000220
H136	H	0.576713	-0.693359	0.000208
H137	H	0.802525	-0.646925	0.000253
H138	H	0.391191	-0.446781	0.000161
H139	H	0.299731	-0.447715	0.000155
H140	H	-0.055549	-0.106954	-0.221117
H141	H	-0.056484	-0.198415	-0.221118
H142	H	-0.063318	0.195457	0.142922
H143	H	-0.068602	-0.093909	0.221508
H144	H	0.334016	-0.695818	0.000226
H145	H	-0.068663	-0.328137	0.142853
H146	H	0.425463	-0.694889	0.000228
H147	H	-0.054938	-0.047166	-0.221109
H148	H	-0.060254	-0.336543	-0.142509
H149	H	-0.067984	-0.034113	0.221529
H150	H	-0.061188	-0.428009	-0.142512
H151	H	-0.008038	-0.624292	0.213956
H152	H	-0.067050	0.057338	0.221535
