data_functionalizedCrystal
_audit_creation_method	'MofGen! by Chris Wilmer'
_symmetry_space_group_name_H-M	'P1'
_symmetry_Int_Tables_number	1
_symmetry_cell_setting	triclinic
loop_
_symmetry_equiv_pos_as_xyz
  x,y,z
_cell_length_a	27.732048
_cell_length_b	14.519731
_cell_length_c	12.996460
_cell_angle_alpha	90.007128
_cell_angle_beta	90.000094
_cell_angle_gamma	83.165754
loop_
_atom_site_label
_atom_site_type_symbol
_atom_site_fract_x
_atom_site_fract_y
_atom_site_fract_z
O1	O	-0.641457	-0.109732	-0.085437
O2	O	-0.500744	-0.126416	-0.085468
O3	O	-0.574826	0.016228	-0.085442
O4	O	-0.567375	-0.252376	-0.085463
O5	O	-0.574818	0.016236	0.085692
O6	O	-0.500736	-0.126409	0.085666
O7	O	-0.641449	-0.109724	0.085697
Cu8	Cu	-0.571092	-0.118066	0.101307
Cu9	Cu	-0.571101	-0.118075	-0.101078
O10	O	-0.567367	-0.252368	0.085671
C11	C	-0.574473	0.050585	0.000125
C12	C	-0.573426	0.152947	0.000125
C13	C	-0.482731	-0.126062	0.000095
C14	C	-0.429071	-0.125008	0.000083
C15	C	-0.659461	-0.110078	0.000132
C16	C	-0.713121	-0.111133	0.000137
C17	C	-0.090630	-0.202662	0.000122
C18	C	0.111048	-0.198749	0.000131
O19	O	0.141962	-0.269758	0.000171
N20	N	0.130580	-0.114167	0.000136
C21	C	0.099688	-0.030557	0.000145
O22	O	0.120928	0.041475	0.000160
C23	C	-0.101990	-0.034471	0.000143
C24	C	-0.121518	-0.119058	0.000128
C25	C	-0.110159	-0.287242	0.000108
C26	C	-0.160576	-0.288220	0.000100
C27	C	-0.191464	-0.204616	0.000106
C28	C	-0.171935	-0.120036	0.000120
C29	C	-0.132880	0.049138	0.000159
C30	C	-0.183302	0.048152	0.000161
C31	C	-0.202831	-0.036435	0.000146
C32	C	-0.253239	-0.037410	0.000118
N33	N	-0.272771	-0.121992	0.000113
C34	C	-0.241883	-0.205595	0.000107
C35	C	0.205572	-0.028508	0.000144
C36	C	0.255991	-0.027529	0.000143
C37	C	0.267348	-0.195722	0.000131
C38	C	0.216928	-0.196699	0.000125
C39	C	0.186040	-0.113090	0.000139
C40	C	-0.347762	-0.207641	0.000090
C41	C	-0.398183	-0.208611	0.000077
C42	C	-0.409536	-0.040419	0.000094
C43	C	-0.359119	-0.039449	0.000101
C44	C	-0.328232	-0.123067	0.000102
O45	O	-0.284181	0.033562	0.000090
O46	O	-0.263133	-0.277617	0.000115
C47	C	-0.040214	-0.201684	0.000130
C48	C	-0.020685	-0.117104	0.000144
C49	C	-0.051572	-0.033500	0.000150
C50	C	0.029734	-0.116125	0.000142
C51	C	0.060622	-0.199728	0.000137
C52	C	0.041091	-0.284311	0.000132
C53	C	-0.009326	-0.285288	0.000124
C54	C	-0.032041	0.051082	0.000154
C55	C	0.018376	0.052052	0.000161
C56	C	0.049264	-0.031551	0.000155
C57	C	-0.567720	-0.286726	0.000102
C58	C	-0.568766	-0.389088	0.000095
C59	C	-0.572576	0.236076	0.000123
C60	C	-0.571514	0.340367	0.000115
C61	C	-0.570671	0.423491	0.000108
C62	C	-0.569609	0.527788	0.000102
N63	N	-0.571089	-0.118059	0.243654
N64	N	-0.571108	-0.118074	-0.243425
C65	C	-0.571100	-0.118076	0.663469
C66	C	-0.571096	-0.118074	0.546664
C67	C	-0.571095	-0.118068	0.453565
C68	C	-0.571090	-0.118065	0.336753
H69	H	-0.414080	-0.277495	0.000064
C70	C	-0.443519	0.051540	0.000104
C71	C	-0.479744	0.073982	0.088974
C72	C	-0.513729	0.165941	0.088992
C73	C	-0.511490	0.235459	0.000140
C74	C	-0.475264	0.213019	-0.088737
C75	C	-0.441279	0.121060	-0.088755
H76	H	-0.481403	0.022519	0.154754
H77	H	-0.540546	0.182552	0.154785
H78	H	-0.536648	0.303533	0.000154
H79	H	-0.473605	0.264482	-0.154516
H80	H	-0.414462	0.104449	-0.154548
C81	C	0.195449	-0.289747	0.000117
C82	C	0.162350	-0.313561	-0.088748
C83	C	0.140875	-0.406613	-0.088754
C84	C	0.152499	-0.475850	0.000105
C85	C	0.185600	-0.452037	0.088976
C86	C	0.207075	-0.358985	0.088982
H87	H	0.153744	-0.262306	-0.154533
H88	H	0.116372	-0.424240	-0.154543
H89	H	0.136602	-0.544732	0.000100
H90	H	0.194206	-0.503292	0.154761
H91	H	0.231578	-0.341358	0.154771
H92	H	0.066248	-0.352383	0.000123
H93	H	0.180427	0.039581	0.000156
C94	C	0.039853	0.145108	0.000176
C95	C	0.028226	0.214344	0.089054
C96	C	0.049700	0.307396	0.089079
C97	C	0.082802	0.331212	0.000226
C98	C	0.094430	0.261974	-0.088658
C99	C	0.072956	0.168922	-0.088683
H100	H	0.003720	0.196715	0.154833
H101	H	0.041092	0.358650	0.154877
H102	H	0.098698	0.400095	0.000245
H103	H	0.118935	0.279602	-0.154438
H104	H	0.081564	0.117667	-0.154482
C105	C	-0.076187	-0.379216	0.000095
C106	C	-0.039962	-0.401692	0.088952
C107	C	-0.005993	-0.493671	0.088929
C108	C	-0.008250	-0.563175	0.000049
C109	C	-0.044476	-0.540701	-0.088814
C110	C	-0.078445	-0.448721	-0.088791
H111	H	-0.038290	-0.350239	0.154752
H112	H	0.020824	-0.510308	0.154712
H113	H	0.016896	-0.631264	0.000032
H114	H	-0.046148	-0.592153	-0.154614
H115	H	-0.105262	-0.432085	-0.154574
C116	C	-0.337632	0.053594	0.000115
C117	C	-0.349256	0.122834	0.088990
C118	C	-0.327773	0.215877	0.089018
C119	C	-0.294666	0.239680	0.000170
C120	C	-0.283040	0.170439	-0.088712
C121	C	-0.304523	0.077396	-0.088739
H122	H	-0.373766	0.105215	0.154766
H123	H	-0.336379	0.267134	0.154815
H124	H	-0.278762	0.308556	0.000191
H125	H	-0.258530	0.188058	-0.154488
H126	H	-0.295917	0.026139	-0.154536
C127	C	-0.111410	0.142190	0.000185
C128	C	-0.078317	0.165999	0.089062
C129	C	-0.056849	0.259058	0.089091
C130	C	-0.068475	0.328308	0.000244
C131	C	-0.101570	0.304500	-0.088638
C132	C	-0.123038	0.211441	-0.088668
H133	H	-0.069709	0.114735	0.154837
H134	H	-0.032350	0.276682	0.154889
H135	H	-0.052583	0.397195	0.000266
H136	H	-0.110178	0.355764	-0.154414
H137	H	-0.147537	0.193817	-0.154466
C138	C	0.277469	0.065518	0.000147
C139	C	0.310567	0.089326	-0.088715
C140	C	0.332043	0.182376	-0.088704
C141	C	0.320422	0.251618	0.000171
C142	C	0.287322	0.227812	0.089040
C143	C	0.265846	0.134762	0.089028
H144	H	0.319171	0.038067	-0.154511
H145	H	0.356546	0.199999	-0.154491
H146	H	0.336320	0.320500	0.000179
H147	H	0.278718	0.279071	0.154836
H148	H	0.241344	0.117139	0.154815
C149	C	0.301330	-0.287688	0.000132
C150	C	0.337558	-0.310151	-0.088727
C151	C	0.371542	-0.402112	-0.088716
C152	C	0.369297	-0.471610	0.000153
C153	C	0.333068	-0.449149	0.089019
C154	C	0.299084	-0.357188	0.089009
H155	H	0.339221	-0.258703	-0.154519
H156	H	0.398362	-0.418739	-0.154501
H157	H	0.394454	-0.539686	0.000161
H158	H	0.331405	-0.500597	0.154812
H159	H	0.272264	-0.340561	0.154793
H160	H	-0.322620	-0.275731	0.000094
H161	H	-0.176471	-0.357100	0.000087
H162	H	-0.208449	0.116239	0.000174
H163	H	-0.025221	-0.354168	0.000113
H164	H	-0.057186	0.119163	0.000162
