data_functionalizedCrystal
_audit_creation_method	'MofGen! by Chris Wilmer'
_symmetry_space_group_name_H-M	'P1'
_symmetry_Int_Tables_number	1
_symmetry_cell_setting	triclinic
loop_
_symmetry_equiv_pos_as_xyz
  x,y,z
_cell_length_a	25.639234
_cell_length_b	12.759401
_cell_length_c	12.759399
_cell_angle_alpha	90.018746
_cell_angle_beta	89.985906
_cell_angle_gamma	89.992794
loop_
_atom_site_label
_atom_site_type_symbol
_atom_site_fract_x
_atom_site_fract_y
_atom_site_fract_z
Zn1	Zn	-0.295593	1.606136	-0.418287
Zn2	Zn	0.204407	2.106136	0.081713
Zn3	Zn	-0.208168	1.606060	-0.593957
Zn4	Zn	0.291832	2.106060	-0.093957
Zn5	Zn	-0.208176	1.430471	-0.418302
Zn6	Zn	0.291824	1.930471	0.081698
Zn7	Zn	-0.295577	1.430424	-0.593934
Zn8	Zn	0.204423	1.930424	-0.093934
O9	O	-0.251878	1.518273	-0.506120
O10	O	0.248122	2.018273	-0.006120
O11	O	-0.283999	1.753147	-0.441594
O12	O	0.216001	2.253147	0.058406
O13	O	-0.135004	1.582756	-0.570672
O14	O	0.364996	2.082756	-0.070672
O15	O	-0.219782	1.453825	-0.271279
O16	O	0.280218	1.953825	0.228721
O17	O	-0.219768	1.753091	-0.570658
O18	O	0.280232	2.253091	-0.070658
O19	O	-0.284007	1.582886	-0.271268
O20	O	0.215993	2.082886	0.228732
O21	O	-0.135010	1.453751	-0.441619
O22	O	0.364990	1.953751	0.058381
O23	O	-0.219767	1.283444	-0.441596
O24	O	0.280233	1.783444	0.058404
O25	O	-0.368744	1.453744	-0.570618
O26	O	0.131256	1.953744	-0.070618
O27	O	-0.283980	1.283409	-0.570632
O28	O	0.216020	1.783409	-0.070632
O29	O	-0.368756	1.582840	-0.441571
O30	O	0.131244	2.082840	0.058429
O31	O	-0.219753	1.582710	-0.740975
O32	O	0.280247	2.082710	-0.240975
O33	O	-0.283972	1.453670	-0.740958
O34	O	0.216028	1.953670	-0.240958
C35	C	-0.251873	1.245306	-0.506114
C36	C	0.248127	1.745306	-0.006114
C37	C	-0.251882	1.128529	-0.506137
C38	C	0.248118	1.628529	-0.006137
C39	C	-0.251871	1.518205	-0.779087
C40	C	0.248129	2.018205	-0.279087
C41	C	-0.251885	1.518272	-0.895864
C42	C	0.248115	2.018272	-0.395864
C43	C	-0.388251	1.518295	-0.506090
C44	C	0.111749	2.018295	-0.006090
C45	C	-0.446365	1.518305	-0.506078
C46	C	0.053635	2.018305	-0.006078
C47	C	-0.697547	1.451155	-0.573140
C48	C	-0.197547	1.951155	-0.073140
C49	C	-0.642943	1.451137	-0.573164
C50	C	-0.142943	1.951137	-0.073164
O51	O	-0.614696	1.393943	-0.630288
O52	O	-0.114696	1.893943	-0.130288
N53	N	-0.615639	1.518345	-0.505993
N54	N	-0.115639	2.018345	-0.005993
C55	C	-0.642943	1.585569	-0.438786
C56	C	-0.142943	2.085569	0.061214
O57	O	-0.614705	1.642732	-0.381653
O58	O	-0.114705	2.142732	0.118347
C59	C	-0.697546	1.585581	-0.438758
C60	C	-0.197546	2.085581	0.061242
C61	C	-0.724847	1.518376	-0.505941
C62	C	-0.224847	2.018376	-0.005941
C63	C	-0.724848	1.383954	-0.640317
C64	C	-0.224848	1.883954	-0.140317
C65	C	-0.779448	1.383974	-0.640294
C66	C	-0.279448	1.883974	-0.140294
C67	C	-0.806748	1.451195	-0.573095
C68	C	-0.306748	1.951195	-0.073095
C69	C	-0.779447	1.518396	-0.505918
C70	C	-0.279447	2.018396	-0.005918
C71	C	-0.724849	1.652798	-0.371547
C72	C	-0.224849	2.152798	0.128453
C73	C	-0.779456	1.652804	-0.371524
C74	C	-0.279456	2.152804	0.128476
C75	C	-0.806757	1.585599	-0.438707
C76	C	-0.306757	2.085599	0.061293
C77	C	-0.861348	1.585636	-0.438697
C78	C	-0.361348	2.085636	0.061303
N79	N	-0.888651	1.518428	-0.505868
N80	N	-0.388651	2.018428	-0.005868
C81	C	-0.861352	1.451207	-0.573067
C82	C	-0.361352	1.951207	-0.073067
C83	C	-0.528272	1.585536	-0.438849
C84	C	-0.028272	2.085536	0.061151
C85	C	-0.473670	1.585530	-0.438882
C86	C	0.026330	2.085530	0.061118
C87	C	-0.473673	1.451096	-0.573258
C88	C	0.026327	1.951096	-0.073258
C89	C	-0.528277	1.451109	-0.573230
C90	C	-0.028277	1.951109	-0.073230
C91	C	-0.555576	1.518328	-0.506020
C92	C	-0.055576	2.018328	-0.006020
C93	C	-0.976017	1.451255	-0.573015
C94	C	-0.476017	1.951255	-0.073015
C95	C	-1.030622	1.451284	-0.572990
C96	C	-0.530622	1.951284	-0.072990
C97	C	-1.030614	1.585714	-0.438610
C98	C	-0.530614	2.085714	0.061390
C99	C	-0.976013	1.585689	-0.438639
C100	C	-0.476013	2.085689	0.061361
C101	C	-0.948716	1.518451	-0.505845
C102	C	-0.448716	2.018451	-0.005845
O103	O	-0.889629	1.642798	-0.381599
O104	O	-0.389629	2.142798	0.118401
O105	O	-0.889596	1.394044	-0.630180
O106	O	-0.389596	1.894044	-0.130180
C107	C	-0.116036	1.518311	-0.506074
C108	C	0.383964	2.018311	-0.006074
C109	C	-0.057922	1.518505	-0.505790
C110	C	0.442078	2.018505	-0.005790
C111	C	-0.251884	1.792306	-0.506127
C112	C	0.248116	2.292306	-0.006127
C113	C	-0.251887	1.909083	-0.506130
C114	C	0.248113	2.409083	-0.006130
C115	C	-0.285325	1.963976	-0.438932
C116	C	0.214675	2.463976	0.061068
C117	C	-0.285325	2.073700	-0.438938
C118	C	0.214675	2.573700	0.061062
C119	C	-0.218443	2.073628	-0.573342
C120	C	0.281557	2.573628	-0.073342
C121	C	-0.218446	1.963906	-0.573340
C122	C	0.281554	2.463906	-0.073340
C123	C	-0.323937	1.964018	-0.361332
C124	C	0.176063	2.464018	0.138668
C125	C	-0.323937	2.073742	-0.361338
C126	C	0.176063	2.573742	0.138662
C127	C	-0.218427	1.451164	-0.950815
C128	C	0.281573	1.951164	-0.450815
C129	C	-0.218435	1.451236	-1.060539
C130	C	0.281565	1.951236	-0.560539
C131	C	-0.285365	1.585526	-1.060352
C132	C	0.214635	2.085526	-0.560352
C133	C	-0.285354	1.585459	-0.950630
C134	C	0.214646	2.085459	-0.450630
C135	C	-0.179787	1.373630	-0.950923
C136	C	0.320213	1.873630	-0.450923
C137	C	-0.179795	1.373701	-1.060647
C138	C	0.320205	1.873701	-0.560647
C139	C	-0.251897	1.518369	-0.232087
C140	C	0.248103	2.018369	0.267913
C141	C	-0.251905	1.518411	-0.115310
C142	C	0.248095	2.018411	0.384690
H143	H	-1.052848	1.396557	-0.627702
H144	H	-0.552848	1.896557	-0.127702
H145	H	-0.309439	1.930006	-0.284042
H146	H	0.190561	2.430006	0.215958
H147	H	-0.139298	1.395460	-0.921164
H148	H	0.360702	1.895460	-0.421164
H149	H	-0.191222	1.919217	-0.628068
H150	H	0.308778	2.419217	-0.128068
H151	H	-0.191217	2.118279	-0.628064
H152	H	0.308783	2.618279	-0.128064
H153	H	-0.362401	2.107776	-0.390473
H154	H	0.137599	2.607776	0.109527
N155	N	-0.309577	2.113232	-0.253565
N156	N	0.190423	2.613232	0.246435
H157	H	-0.303165	2.051713	-0.205469
H158	H	0.196835	2.551713	0.294531
H159	H	-0.276919	2.157227	-0.258334
H160	H	0.223081	2.657227	0.241666
H161	H	-0.953784	1.640420	-0.383940
H162	H	-0.453784	2.140420	0.116060
N163	N	-0.321436	1.657850	-0.891359
N164	N	0.178564	2.157850	-0.391359
H165	H	-0.342639	1.700418	-0.942705
H166	H	0.157361	2.200418	-0.442705
H167	H	-0.345611	1.615025	-0.845853
H168	H	0.154389	2.115025	-0.345853
H169	H	-0.194256	1.296296	-0.916950
H170	H	0.305744	1.796296	-0.416950
H171	H	-0.801680	1.707539	-0.316787
H172	H	-0.301680	2.207539	0.183213
H173	H	-0.801672	1.329246	-0.694999
H174	H	-0.301672	1.829246	-0.194999
H175	H	-0.312614	1.640228	-1.104955
H176	H	0.187386	2.140228	-0.604955
N177	N	-0.377571	1.924574	-0.390194
N178	N	0.122429	2.424574	0.109806
H179	H	-0.401503	1.986114	-0.403080
H180	H	0.098497	2.486114	0.096920
H181	H	-0.375195	1.880550	-0.455818
H182	H	0.124805	2.380550	0.044182
N183	N	-0.128865	1.412405	-1.105747
N184	N	0.371135	1.912405	-0.605747
H185	H	-0.104249	1.431051	-1.046835
H186	H	0.395751	1.931051	-0.546835
H187	H	-0.112786	1.355563	-1.150393
H188	H	0.387214	1.855563	-0.650393
N189	N	-0.194120	1.265928	-1.100195
N190	N	0.305880	1.765928	-0.600195
H191	H	-0.200510	1.217784	-1.038701
H192	H	0.299490	1.717784	-0.538701
H193	H	-0.226782	1.270670	-1.144169
H194	H	0.273218	1.770670	-0.644169
H195	H	-0.953798	1.396495	-0.627731
H196	H	-0.453798	1.896495	-0.127731
H197	H	-0.451446	1.640266	-0.384186
H198	H	0.048554	2.140266	0.115814
N199	N	-0.695417	1.311426	-0.712796
N200	N	-0.195417	1.811426	-0.212796
H201	H	-0.704925	1.327717	-0.787855
H202	H	-0.204925	1.827717	-0.287855
H203	H	-0.656689	1.321622	-0.702551
H204	H	-0.156689	1.821622	-0.202551
N205	N	-0.557721	1.378624	-0.645690
N206	N	-0.057721	1.878624	-0.145690
H207	H	-0.532136	1.336044	-0.688263
H208	H	-0.032136	1.836044	-0.188263
H209	H	-0.580374	1.330019	-0.602914
H210	H	-0.080374	1.830019	-0.102914
H211	H	-1.052851	1.640446	-0.383901
H212	H	-0.552851	2.140446	0.116099
N213	N	-0.444223	1.378591	-0.645740
N214	N	0.055777	1.878591	-0.145740
H215	H	-0.405491	1.388784	-0.635556
H216	H	0.094509	1.888784	-0.135556
H217	H	-0.453766	1.303564	-0.629380
H218	H	0.046234	1.803564	-0.129380
H219	H	-0.550496	1.640282	-0.384120
H220	H	-0.050496	2.140282	0.115880
H221	H	-0.702630	1.707525	-0.316840
H222	H	-0.202630	2.207525	0.183160
