data_functionalizedCrystal
_audit_creation_method	'MofGen! by Chris Wilmer'
_symmetry_space_group_name_H-M	'P1'
_symmetry_Int_Tables_number	1
_symmetry_cell_setting	triclinic
loop_
_symmetry_equiv_pos_as_xyz
  x,y,z
_cell_length_a	17.077404
_cell_length_b	16.120444
_cell_length_c	17.077396
_cell_angle_alpha	87.130511
_cell_angle_beta	90.018362
_cell_angle_gamma	92.924506
loop_
_atom_site_label
_atom_site_type_symbol
_atom_site_fract_x
_atom_site_fract_y
_atom_site_fract_z
Zn1	Zn	1.184186	-0.331953	0.459656
Zn2	Zn	1.517520	0.001380	0.792989
Zn3	Zn	1.850853	0.334713	1.126323
Zn4	Zn	1.177428	-0.471378	0.335042
Zn5	Zn	1.510762	-0.138044	0.668375
Zn6	Zn	1.844095	0.195289	1.001708
Zn7	Zn	1.052917	-0.331977	0.328408
Zn8	Zn	1.386250	0.001356	0.661741
Zn9	Zn	1.719584	0.334690	0.995074
Zn10	Zn	1.046224	-0.471323	0.466265
Zn11	Zn	1.379557	-0.137989	0.799598
Zn12	Zn	1.712890	0.195344	1.132932
O13	O	1.115189	-0.401658	0.397343
O14	O	1.448522	-0.068324	0.730676
O15	O	1.781855	0.265009	1.064009
O16	O	1.293136	-0.350461	0.443136
O17	O	1.626469	-0.017128	0.776469
O18	O	1.959803	0.316205	1.109803
O19	O	1.160885	-0.452919	0.224316
O20	O	1.494218	-0.119585	0.557649
O21	O	1.827551	0.213748	0.890983
O22	O	1.075959	-0.215308	0.340276
O23	O	1.409293	0.118025	0.673609
O24	O	1.742626	0.451359	1.006942
O25	O	1.288171	-0.452896	0.351582
O26	O	1.621504	-0.119562	0.684916
O27	O	1.954838	0.213771	1.018249
O28	O	1.172402	-0.215290	0.436703
O29	O	1.505736	0.118043	0.770036
O30	O	1.839069	0.451376	1.103370
O31	O	1.069407	-0.350502	0.219442
O32	O	1.402740	-0.017169	0.552775
O33	O	1.736073	0.316165	0.886109
O34	O	0.942183	-0.350449	0.346684
O35	O	1.275516	-0.017115	0.680018
O36	O	1.608849	0.316218	1.013351
O37	O	1.064552	-0.452802	0.575234
O38	O	1.397885	-0.119469	0.908567
O39	O	1.731218	0.213865	1.241900
O40	O	0.937265	-0.452825	0.447968
O41	O	1.270599	-0.119492	0.781301
O42	O	1.603932	0.213842	1.114634
O43	O	1.165912	-0.350408	0.570378
O44	O	1.499246	-0.017075	0.903711
O45	O	1.832579	0.316259	1.237045
O46	O	1.154395	-0.588036	0.357991
O47	O	1.487728	-0.254703	0.691324
O48	O	1.821061	0.078630	1.024658
O49	O	1.057999	-0.587996	0.454400
O50	O	1.391332	-0.254663	0.787734
O51	O	1.724666	0.078671	1.121067
C52	C	0.911242	-0.401634	0.397324
C53	C	1.244575	-0.068301	0.730657
C54	C	1.577909	0.265033	1.063990
C55	C	0.823992	-0.401644	0.397335
C56	C	1.157325	-0.068311	0.730669
C57	C	1.490658	0.265023	1.064002
C58	C	0.785583	-0.348401	0.445088
C59	C	1.118916	-0.015068	0.778422
C60	C	1.452250	0.318265	1.111755
C61	C	0.703602	-0.348407	0.445092
C62	C	1.036936	-0.015073	0.778426
C63	C	1.370269	0.318260	1.111759
C64	C	0.660032	-0.401660	0.397347
C65	C	0.993365	-0.068326	0.730680
C66	C	1.326698	0.265007	1.064013
C67	C	0.698446	-0.454905	0.349588
C68	C	1.031779	-0.121571	0.682922
C69	C	1.365113	0.211762	1.016255
C70	C	0.780425	-0.454894	0.349581
C71	C	1.113759	-0.121561	0.682914
C72	C	1.447092	0.211772	1.016247
C73	C	0.527575	-0.454924	0.349609
C74	C	0.860908	-0.121590	0.682942
C75	C	1.194242	0.211743	1.016275
C76	C	0.445590	-0.454935	0.349617
C77	C	0.778923	-0.121602	0.682950
C78	C	1.112257	0.211732	1.016284
C79	C	0.450752	-0.348436	0.445120
C80	C	0.784085	-0.015102	0.778454
C81	C	1.117419	0.318231	1.111787
C82	C	0.532731	-0.348426	0.445113
C83	C	0.866065	-0.015092	0.778446
C84	C	1.199398	0.318241	1.111779
C85	C	0.571140	-0.401672	0.397355
C86	C	0.904473	-0.068339	0.730688
C87	C	1.237807	0.264995	1.064022
C88	C	1.104758	-0.618266	0.407650
C89	C	1.438092	-0.284933	0.740983
C90	C	1.771425	0.048400	1.074317
C91	C	1.100368	-0.710932	0.412086
C92	C	1.433701	-0.377599	0.745419
C93	C	1.767035	-0.044266	1.078752
C94	C	1.138156	-0.921875	0.374500
C95	C	1.471489	-0.588542	0.707834
C96	C	1.804823	-0.255208	1.041167
C97	C	1.092367	-0.880589	0.420193
C98	C	1.425700	-0.547256	0.753526
C99	C	1.759034	-0.213923	1.086859
C100	C	1.096820	-0.786183	0.415681
C101	C	1.430154	-0.452850	0.749014
C102	C	1.763487	-0.119517	1.082347
C103	C	1.133704	-1.016289	0.379012
C104	C	1.467037	-0.682956	0.712345
C105	C	1.800371	-0.349623	1.045678
C106	C	1.319932	-0.401682	0.397362
C107	C	1.653265	-0.068349	0.730695
C108	C	1.986599	0.264985	1.064028
C109	C	1.407181	-0.401692	0.397370
C110	C	1.740514	-0.068359	0.730703
C111	C	2.073848	0.264974	1.064037
C112	C	1.115239	-0.401596	0.602084
C113	C	1.448573	-0.068263	0.935417
C114	C	1.781906	0.265070	1.268751
C115	C	1.115261	-0.401570	0.689333
C116	C	1.448594	-0.068237	1.022666
C117	C	1.781927	0.265097	1.355999
C118	C	1.125681	-0.184203	0.387012
C119	C	1.459015	0.149130	0.720345
C120	C	1.792348	0.482464	1.053679
C121	C	1.130153	-0.091537	0.382610
C122	C	1.463486	0.241796	0.715943
C123	C	1.796819	0.575130	1.049277
C124	C	1.115187	-0.401659	0.193395
C125	C	1.448520	-0.068325	0.526728
C126	C	1.781853	0.265008	0.860061
C127	C	1.115328	-0.401450	0.106135
C128	C	1.448662	-0.068117	0.439469
C129	C	1.781995	0.265217	0.772802
C130	C	1.168041	-0.348249	0.727795
C131	C	1.501374	-0.014916	1.061129
C132	C	1.834708	0.318418	1.394462
C133	C	1.168052	-0.348221	0.809775
C134	C	1.501385	-0.014888	1.143108
C135	C	1.834719	0.318445	1.476441
C136	C	1.115285	-0.401519	0.853290
C137	C	1.448619	-0.068186	1.186623
C138	C	1.781952	0.265147	1.519956
C139	C	1.062499	-0.454843	0.814821
C140	C	1.395833	-0.121509	1.148155
C141	C	1.729166	0.211824	1.481488
C142	C	1.062485	-0.454866	0.732843
C143	C	1.395819	-0.121532	1.066177
C144	C	1.729152	0.211801	1.399510
C145	C	1.062533	-0.454793	0.985689
C146	C	1.395867	-0.121459	1.319022
C147	C	1.729200	0.211874	1.652356
C148	C	1.062548	-0.454771	1.067673
C149	C	1.395881	-0.121438	1.401006
C150	C	1.729215	0.211896	1.734339
C151	C	1.168100	-0.348148	1.062620
C152	C	1.501433	-0.014815	1.395954
C153	C	1.834767	0.318518	1.729287
C154	C	1.168086	-0.348171	0.980642
C155	C	1.501419	-0.014838	1.313976
C156	C	1.834753	0.318495	1.647309
C157	C	1.115301	-0.401496	0.942180
C158	C	1.448634	-0.068163	1.275513
C159	C	1.781967	0.265171	1.608846
H160	H	0.821053	-0.305039	0.483971
H161	H	1.154386	0.028295	0.817304
H162	H	1.487719	0.361628	1.150637
H163	H	1.049821	-0.916144	0.462700
H164	H	1.383154	-0.582811	0.796033
H165	H	1.716488	-0.249478	1.129366
H166	H	1.019538	-0.498202	0.954375
H167	H	1.352872	-0.164869	1.287708
H168	H	1.686205	0.168464	1.621042
N169	N	1.191526	-0.877266	0.321186
N170	N	1.524859	-0.543933	0.654519
N171	N	1.858192	-0.210600	0.987852
N172	N	1.195110	-0.799528	0.317555
N173	N	1.528443	-0.466195	0.650888
N174	N	1.861776	-0.132861	0.984221
H175	H	1.232801	-0.768013	0.279901
H176	H	1.566134	-0.434680	0.613235
H177	H	1.899467	-0.101346	0.946568
H178	H	1.211012	-0.304850	0.692371
H179	H	1.544345	0.028483	1.025704
H180	H	1.877679	0.361817	1.359038
H181	H	1.211033	-0.304804	0.841087
H182	H	1.544366	0.028529	1.174420
H183	H	1.877699	0.361863	1.507754
N184	N	1.221997	-0.293733	0.936203
N185	N	1.555331	0.039600	1.269537
N186	N	1.888664	0.372933	1.602870
N187	N	1.269124	-0.246128	0.970552
N188	N	1.602457	0.087205	1.303885
N189	N	1.935790	0.420538	1.637219
H190	H	1.307200	-0.207680	0.939168
H191	H	1.640533	0.125653	1.272501
H192	H	1.973867	0.458987	1.605834
N193	N	1.008581	-0.509269	0.859263
N194	N	1.341914	-0.175936	1.192597
N195	N	1.675247	0.157397	1.525930
N196	N	0.936416	-0.503714	0.849830
N197	N	1.269749	-0.170381	1.183164
N198	N	1.603082	0.162952	1.516497
H199	H	0.898331	-0.542150	0.881218
H200	H	1.231664	-0.208817	1.214552
H201	H	1.564998	0.124517	1.547885
H202	H	1.211078	-0.304728	1.093940
H203	H	1.544412	0.028605	1.427274
H204	H	1.877745	0.361939	1.760607
H205	H	0.558845	-0.498280	0.310717
H206	H	0.892178	-0.164947	0.644050
H207	H	1.225511	0.168386	0.977384
H208	H	1.019579	-0.498169	1.103101
H209	H	1.352913	-0.164836	1.436434
H210	H	1.686246	0.168498	1.769767
H211	H	1.019499	-0.498277	0.701528
H212	H	1.352832	-0.164943	1.034861
H213	H	1.686165	0.168390	1.368194
N214	N	0.653942	-0.509313	0.300828
N215	N	0.987275	-0.175980	0.634161
N216	N	1.320609	0.157353	0.967494
N217	N	0.659406	-0.586248	0.309578
N218	N	0.992740	-0.252915	0.642911
N219	N	1.326073	0.080418	0.976244
H220	H	0.627977	-0.624679	0.275141
H221	H	0.961310	-0.291346	0.608475
H222	H	1.294643	0.041988	0.941808
N223	N	0.664383	-0.293992	0.493853
N224	N	0.997716	0.039341	0.827187
N225	N	1.331049	0.372675	1.160520
N226	N	0.703294	-0.246438	0.536469
N227	N	1.036628	0.086895	0.869802
N228	N	1.369961	0.420228	1.203135
H229	H	0.675597	-0.207996	0.570901
H230	H	1.008930	0.125337	0.904234
H231	H	1.342264	0.458670	1.237567
H232	H	0.568205	-0.305067	0.483996
H233	H	0.901538	0.028266	0.817330
H234	H	1.234871	0.361600	1.150663
N235	N	0.819650	-0.509280	0.300791
N236	N	1.152983	-0.175946	0.634124
N237	N	1.486316	0.157387	0.967458
N238	N	0.780741	-0.556821	0.258161
N239	N	1.114074	-0.223488	0.591495
N240	N	1.447407	0.109846	0.924828
H241	H	0.808441	-0.595229	0.223698
H242	H	1.141775	-0.261896	0.557031
H243	H	1.475108	0.071437	0.890365
N244	N	0.411511	-0.294054	0.493903
N245	N	0.744844	0.039279	0.827237
N246	N	1.078177	0.372613	1.160570
N247	N	0.338315	-0.294067	0.493905
N248	N	0.671649	0.039266	0.827239
N249	N	1.004982	0.372599	1.160572
H250	H	0.310596	-0.255665	0.528360
H251	H	0.643930	0.077668	0.861693
H252	H	0.977263	0.411001	1.195027
H253	H	0.410116	-0.498299	0.310739
H254	H	0.743450	-0.164966	0.644072
H255	H	1.076783	0.168368	0.977405
