data_functionalizedCrystal
_audit_creation_method	'MofGen! by Chris Wilmer'
_symmetry_space_group_name_H-M	'P1'
_symmetry_Int_Tables_number	1
_symmetry_cell_setting	triclinic
loop_
_symmetry_equiv_pos_as_xyz
  x,y,z
_cell_length_a	17.917603
_cell_length_b	21.606444
_cell_length_c	21.606444
_cell_angle_alpha	60.003871
_cell_angle_beta	57.010312
_cell_angle_gamma	90.001446
loop_
_atom_site_label
_atom_site_type_symbol
_atom_site_fract_x
_atom_site_fract_y
_atom_site_fract_z
Zr1	Zr	0.754898	-0.052708	0.620466
O2	O	0.629772	-0.156248	0.759024
O3	O	0.793257	-0.020970	0.488454
O4	O	0.793256	-0.150083	0.617567
O5	O	0.629773	0.074714	0.629916
O6	O	0.922213	-0.145216	0.607833
O7	O	0.629774	-0.027136	0.629912
O8	O	0.922216	0.085743	0.376874
O9	O	0.629771	-0.156245	0.860875
O10	O	0.905855	-0.003799	0.533064
O11	O	0.809615	0.068579	0.540331
O12	O	0.809613	-0.083435	0.692345
O13	O	0.713374	-0.011058	0.699612
Zr14	Zr	0.960570	0.117493	0.604950
Zr15	Zr	0.960570	-0.044946	0.604943
Zr16	Zr	0.754898	0.109731	0.620473
Zr17	Zr	0.754896	-0.052703	0.782907
Zr18	Zr	0.960572	0.117487	0.442509
O19	O	0.922211	0.085755	0.736962
O20	O	0.922211	-0.145212	0.736952
O21	O	0.629772	0.074718	0.759034
O22	O	1.085696	0.221033	0.466391
O23	O	1.085696	-0.009934	0.466381
O24	O	0.793257	0.209997	0.488464
O25	O	1.085695	-0.009929	0.595500
O26	O	0.922212	0.214868	0.607849
O27	O	0.793255	0.210001	0.617582
O28	O	1.085694	0.091920	0.595504
O29	O	0.793253	-0.150075	0.848536
O30	O	0.922215	0.214860	0.376880
O31	O	1.085697	0.221030	0.364540
O32	O	1.085697	0.091913	0.364535
O33	O	0.629770	-0.027128	0.860881
O34	O	0.793252	-0.020958	0.848542
O35	O	0.905854	0.148220	0.533071
O36	O	1.002094	0.075843	0.525803
O37	O	0.905853	-0.003794	0.685084
O38	O	0.809613	0.068583	0.692352
C39	C	0.600470	0.022683	0.632126
C40	C	0.513156	0.019388	0.638716
C41	C	0.857737	0.032386	0.409520
C42	C	0.857738	0.032384	0.340559
C43	C	0.857734	0.235578	0.612717
C44	C	0.857733	0.304538	0.612720
C45	C	0.353312	0.013370	0.650754
C46	C	0.362149	0.051412	0.574666
C47	C	0.273206	0.048064	0.581364
C48	C	0.442261	0.016718	0.644057
C49	C	1.114998	0.042101	0.593290
C50	C	1.202311	0.045397	0.586700
C51	C	0.857734	-0.170793	0.612699
C52	C	0.857734	-0.239753	0.612696
C53	C	0.807498	0.295368	0.695862
C54	C	0.807494	0.360165	0.695860
C55	C	0.857731	0.434131	0.612714
C56	C	0.907968	0.443300	0.529565
C57	C	0.907966	0.378503	0.529569
C58	C	0.907976	0.704619	0.529550
C59	C	0.907976	0.769417	0.529552
C60	C	0.807503	0.686280	0.695841
C61	C	0.807502	0.621483	0.695844
C62	C	0.857734	0.630657	0.612696
C63	C	0.857736	0.560396	0.612700
C64	C	0.857735	0.504392	0.612709
C65	C	0.907971	-0.005398	0.304369
C66	C	0.907975	-0.005392	0.239568
C67	C	0.857738	0.032390	0.210965
C68	C	0.807503	0.070176	0.247159
C69	C	0.807506	0.070175	0.311953
C70	C	0.807492	0.070182	-0.014150
C71	C	0.807490	0.070178	-0.078947
C72	C	0.907961	-0.005386	-0.086534
C73	C	0.907964	-0.005387	-0.021740
C74	C	0.857733	0.032403	0.014444
C75	C	0.857731	0.032398	0.084707
C76	C	0.857734	0.032391	0.140709
C77	C	0.857731	0.032399	0.815896
C78	C	0.857730	0.032401	0.884856
C79	C	1.115001	0.042095	0.390102
C80	C	1.202315	0.045388	0.314552
C81	C	0.857736	0.235572	0.409528
C82	C	0.857737	0.304529	0.340571
C83	C	1.115001	0.245281	0.390111
C84	C	1.202315	0.317533	0.314563
C85	C	0.600467	-0.180496	0.835305
C86	C	0.513153	-0.252748	0.910852
C87	C	0.600467	0.022690	0.835314
C88	C	0.513153	0.019397	0.910864
C89	C	0.857732	-0.170787	0.815887
C90	C	0.857731	-0.239744	0.884845
C91	C	1.193083	0.005355	0.282862
C92	C	1.275116	0.008434	0.211884
C93	C	1.366380	0.051550	0.172592
C94	C	1.375611	0.091583	0.204288
C95	C	1.293578	0.088500	0.275269
C96	C	0.907973	0.378491	0.304398
C97	C	0.907970	0.443289	0.239615
C98	C	0.857736	0.434125	0.211001
C99	C	0.807494	0.360155	0.247181
C100	C	0.807492	0.295358	0.311968
C101	C	1.293563	0.313684	0.275291
C102	C	1.375611	0.381567	0.204315
C103	C	1.366410	0.453298	0.172607
C104	C	1.275152	0.457146	0.211886
C105	C	1.193105	0.389264	0.282866
C106	C	0.421905	-0.248899	0.950132
C107	C	0.339856	-0.316782	1.021129
C108	C	0.349058	-0.388513	1.052840
C109	C	0.440316	-0.392361	1.013557
C110	C	0.522363	-0.324479	0.942566
C111	C	0.522385	0.059422	0.942560
C112	C	0.440352	0.056326	1.013556
C113	C	0.349088	0.013208	1.052850
C114	C	0.339857	-0.026823	1.021152
C115	C	0.421889	-0.023730	0.950161
C116	C	0.907975	-0.230555	0.913437
C117	C	0.907993	-0.295341	0.978220
C118	C	0.857761	-0.369315	1.014414
C119	C	0.807515	-0.378503	0.985815
C120	C	0.807503	-0.313718	0.921028
H121	H	0.436512	0.086496	0.504495
Br122	Br	0.739306	0.121457	-0.117764
H123	H	0.948907	-0.287845	1.001498
H124	H	1.449929	0.126687	0.172286
Br125	Br	0.976146	0.717077	0.416706
H126	H	0.948887	0.503513	0.210164
Br127	Br	1.306126	0.142840	0.318263
H128	H	0.265539	-0.061929	1.053156
H129	H	0.766618	-0.438742	1.015294
Br130	Br	0.229375	-0.045102	0.767704
H131	H	0.766585	-0.321211	0.897756
H132	H	0.414359	-0.056322	0.924357
Br133	Br	0.739324	0.194988	0.808708
Br134	Br	0.452902	0.110660	1.056558
H135	H	0.766595	0.352705	0.223874
Br136	Br	0.237767	0.009019	1.149195
Br137	Br	0.739328	0.673832	0.808687
H138	H	0.948880	0.385967	0.327688
Br139	Br	0.976155	-0.130169	0.864331
Br140	Br	0.739272	0.347713	0.808704
H141	H	0.948886	0.829646	0.461841
H142	H	0.948867	0.503530	0.461867
Br143	Br	0.739325	0.521101	0.808688
Br144	Br	1.262566	-0.045900	0.168882
Br145	Br	0.739311	0.194983	0.361049
H146	H	0.766594	0.100956	0.015301
H147	H	0.948870	0.385975	0.461866
H148	H	0.948875	-0.036168	0.327657
Br149	Br	0.646234	0.117944	0.889250
Br150	Br	0.646197	-0.329717	0.889261
Br151	Br	1.306078	0.216343	0.318311
H152	H	0.857746	0.486893	0.158247
H153	H	0.857778	-0.422061	1.067167
H154	H	1.449910	0.378420	0.172341
Br155	Br	0.452788	-0.489717	1.056602
Br156	Br	0.976131	-0.056688	0.190473
Br157	Br	1.477770	0.545418	0.076276
H158	H	0.948867	-0.036156	0.001550
H159	H	1.267674	0.515559	0.186059
Br160	Br	1.069271	0.394502	0.336152
Br161	Br	1.477701	0.055726	0.076260
Br162	Br	0.409390	-0.151558	0.907110
Br163	Br	0.216019	-0.311542	1.074425
H164	H	0.282243	-0.443781	1.110645
H165	H	0.766605	0.100944	0.223860
Br166	Br	0.976134	-0.056671	-0.135646
H167	H	0.766597	0.100938	0.341421
Br168	Br	1.069234	-0.053167	0.336174
