data_functionalizedCrystal
_audit_creation_method	'MofGen! by Chris Wilmer'
_symmetry_space_group_name_H-M	'P1'
_symmetry_Int_Tables_number	1
_symmetry_cell_setting	triclinic
loop_
_symmetry_equiv_pos_as_xyz
  x,y,z
_cell_length_a	16.120484
_cell_length_b	16.959455
_cell_length_c	16.120728
_cell_angle_alpha	92.881112
_cell_angle_beta	84.367400
_cell_angle_gamma	87.079026
loop_
_atom_site_label
_atom_site_type_symbol
_atom_site_fract_x
_atom_site_fract_y
_atom_site_fract_z
Zn1	Zn	-0.357027	-1.167594	0.489646
Zn2	Zn	0.142973	-0.667594	0.989646
Zn3	Zn	-0.489673	-1.167521	0.356954
Zn4	Zn	0.010327	-0.667521	0.856954
Zn5	Zn	-0.349904	-1.042501	0.349870
Zn6	Zn	0.150096	-0.542501	0.849870
Zn7	Zn	-0.496746	-1.028320	0.496657
Zn8	Zn	0.003254	-0.528320	0.996657
O9	O	-0.423337	-1.101484	0.423282
O10	O	0.076663	-0.601484	0.923282
O11	O	-0.374643	-1.278193	0.472074
O12	O	0.125357	-0.778193	0.972074
O13	O	-0.465191	-1.156841	0.239051
O14	O	0.034809	-0.656841	0.739051
O15	O	-0.233882	-1.065060	0.362512
O16	O	0.266118	-0.565060	0.862512
O17	O	-0.472097	-1.278139	0.374586
O18	O	0.027903	-0.778139	0.874586
O19	O	-0.239115	-1.156966	0.465205
O20	O	0.260885	-0.656966	0.965205
O21	O	-0.362503	-1.064989	0.233847
O22	O	0.137497	-0.564989	0.733847
O23	O	-0.369362	-0.930011	0.369311
O24	O	0.130638	-0.430011	0.869311
O25	O	-0.484153	-1.040891	0.612690
O26	O	0.015847	-0.540891	1.112690
O27	O	-0.477246	-0.919592	0.477155
O28	O	0.022754	-0.419592	0.977155
O29	O	-0.381502	-1.143215	0.607539
O30	O	0.118498	-0.643215	1.107539
O31	O	-0.607577	-1.143090	0.381385
O32	O	-0.107577	-0.643090	0.881385
O33	O	-0.612774	-1.040819	0.484024
O34	O	-0.112774	-0.540819	0.984024
C35	C	-0.423299	-0.896122	0.423225
C36	C	0.076701	-0.396122	0.923225
C37	C	-0.423304	-0.808265	0.423222
C38	C	0.076696	-0.308265	0.923222
C39	C	-0.474000	-0.436754	0.372448
C40	C	0.026000	0.063246	0.872448
C41	C	-0.372695	-0.436815	0.474137
C42	C	0.127305	0.063185	0.974137
C43	C	-0.372683	-0.519362	0.474122
C44	C	0.127317	-0.019362	0.974122
C45	C	-0.423332	-0.560609	0.423269
C46	C	0.076668	-0.060609	0.923269
C47	C	-0.473992	-0.519309	0.372433
C48	C	0.026008	-0.019309	0.872433
C49	C	-0.322030	-0.560668	0.524963
C50	C	0.177970	-0.060668	1.024963
C51	C	-0.322018	-0.643220	0.524950
C52	C	0.177982	-0.143220	1.024950
C53	C	-0.372662	-0.684469	0.474093
C54	C	0.127338	-0.184469	0.974093
C55	C	-0.423324	-0.643164	0.423254
C56	C	0.076676	-0.143164	0.923254
C57	C	-0.473973	-0.684410	0.372401
C58	C	0.026027	-0.184410	0.872401
C59	C	-0.524631	-0.643107	0.321557
C60	C	-0.024631	-0.143107	0.821557
C61	C	-0.524637	-0.560557	0.321575
C62	C	-0.024637	-0.060557	0.821575
C63	C	-0.372656	-0.767018	0.474074
C64	C	0.127344	-0.267018	0.974074
C65	C	-0.473965	-0.766965	0.372386
C66	C	0.026035	-0.266965	0.872386
C67	C	-0.640505	-1.090428	0.434252
C68	C	-0.140505	-0.590428	0.934252
C69	C	-0.733411	-1.085770	0.438973
C70	C	-0.233411	-0.585770	0.938973
C71	C	-0.903513	-1.077268	0.447610
C72	C	-0.403513	-0.577268	0.947610
C73	C	-0.942321	-1.125841	0.398967
C74	C	-0.442321	-0.625841	0.898967
C75	C	-1.036972	-1.121110	0.403772
C76	C	-0.536972	-0.621110	0.903772
C77	C	-0.808854	-1.081997	0.442806
C78	C	-0.308854	-0.581997	0.942806
C79	C	-0.205323	-1.112603	0.412286
C80	C	0.294677	-0.612603	0.912286
C81	C	-0.112418	-1.117341	0.407601
C82	C	0.387582	-0.617341	0.907601
C83	C	-0.434411	-1.090479	0.641289
C84	C	0.065589	-0.590479	1.141289
C85	C	-0.439130	-1.085790	0.734191
C86	C	0.060870	-0.585790	1.234191
C87	C	-0.423366	-0.307649	0.423323
C88	C	0.076634	0.192351	0.923323
C89	C	-0.423352	-0.395507	0.423301
C90	C	0.076648	0.104493	0.923301
C91	C	-0.447727	-1.077200	0.904283
C92	C	0.052273	-0.577200	1.404283
C93	C	-0.399028	-1.125739	0.943136
C94	C	0.100972	-0.625739	1.443136
C95	C	-0.403811	-1.120960	1.037781
C96	C	0.096189	-0.620960	1.537781
C97	C	-0.442945	-1.081978	0.809629
C98	C	0.057055	-0.581978	1.309629
C99	C	-0.412329	-1.112445	1.206123
C100	C	0.087671	-0.612445	1.706123
C101	C	-0.407622	-1.117152	1.113222
C102	C	0.092378	-0.617152	1.613222
H103	H	-0.565873	-0.676701	0.280158
H104	H	-0.065873	-0.176701	0.780158
H105	H	-0.565880	-0.526921	0.280180
H106	H	-0.065880	-0.026921	0.780180
N107	N	-0.894839	-1.182450	0.342169
N108	N	-0.394839	-0.682450	0.842169
N109	N	-0.900643	-1.180664	0.265525
N110	N	-0.400643	-0.680664	0.765525
H111	H	-0.867109	-1.220640	0.225407
H112	H	-0.367109	-0.720640	0.725407
N113	N	-0.951014	-1.020652	0.504376
N114	N	-0.451014	-0.520652	1.004376
N115	N	-1.028949	-1.016846	0.508243
N116	N	-0.528949	-0.516846	1.008243
H117	H	-1.062506	-0.976861	0.548332
H118	H	-0.562506	-0.476861	1.048332
H119	H	-0.353742	-1.170884	0.905319
H120	H	0.146258	-0.670884	1.405319
H121	H	-0.515242	-0.403121	0.331050
H122	H	-0.015242	0.096879	0.831050
N123	N	-0.504521	-1.020561	0.951723
N124	N	-0.004521	-0.520561	1.451723
N125	N	-0.477508	-0.969287	0.998946
N126	N	0.022492	-0.469287	1.498946
H127	H	-0.517617	-0.929286	1.032462
H128	H	-0.017617	-0.429286	1.532462
N129	N	-0.525700	-0.809083	0.320427
N130	N	-0.025700	-0.309083	0.820427
N131	N	-0.570919	-0.772195	0.275036
N132	N	-0.070919	-0.272195	0.775036
H133	H	-0.607456	-0.801940	0.238338
H134	H	-0.107456	-0.301940	0.738338
H135	H	-0.280800	-0.527078	0.566370
H136	H	0.219200	-0.027078	1.066370
H137	H	-0.280768	-0.676842	0.566350
H138	H	0.219232	-0.176842	1.066350
H139	H	-0.331464	-0.403226	0.515544
H140	H	0.168536	0.096774	1.015544
H141	H	-0.331413	-0.800644	0.515473
H142	H	0.168587	-0.300644	1.015473
