data_functionalizedCrystal
_audit_creation_method	'MofGen! by Chris Wilmer'
_symmetry_space_group_name_H-M	'P1'
_symmetry_Int_Tables_number	1
_symmetry_cell_setting	triclinic
loop_
_symmetry_equiv_pos_as_xyz
  x,y,z
_cell_length_a	10.654550
_cell_length_b	12.996460
_cell_length_c	14.519709
_cell_angle_alpha	89.992910
_cell_angle_beta	95.917462
_cell_angle_gamma	90.002324
loop_
_atom_site_label
_atom_site_type_symbol
_atom_site_fract_x
_atom_site_fract_y
_atom_site_fract_z
O1	O	1.666597	0.085493	-0.129534
O2	O	2.166597	0.585493	0.370466
O3	O	1.301000	0.085512	-0.141875
O4	O	1.801000	0.585512	0.358125
O5	O	1.493492	0.085492	-0.001516
O6	O	1.993492	0.585492	0.498484
O7	O	1.474106	0.085512	-0.269893
O8	O	1.974106	0.585512	0.230107
O9	O	1.493472	-0.085641	-0.001509
O10	O	1.993472	0.414359	0.498491
O11	O	1.300980	-0.085622	-0.141867
O12	O	1.800980	0.414378	0.358133
O13	O	1.666577	-0.085641	-0.129526
O14	O	2.166577	0.414359	0.370474
Cu15	Cu	1.483777	-0.101258	-0.135696
Cu16	Cu	1.983777	0.398742	0.364304
Cu17	Cu	1.483801	0.101128	-0.135705
Cu18	Cu	1.983801	0.601128	0.364295
O19	O	1.474085	-0.085622	-0.269885
O20	O	1.974085	0.414378	0.230115
C21	C	1.254201	-0.000053	-0.140965
C22	C	1.754201	0.499947	0.359035
C23	C	1.114784	-0.000046	-0.138254
C24	C	1.614784	0.499954	0.361746
N25	N	1.483769	-0.243605	-0.135689
N26	N	1.983769	0.256395	0.364311
C27	C	1.034504	-0.000043	-0.220895
C28	C	1.534504	0.499957	0.279105
C29	C	0.903507	-0.000061	-0.218342
C30	C	1.403507	0.499939	0.281658
C31	C	0.933084	-0.000081	-0.050500
C32	C	1.433084	0.499919	0.449500
C33	C	1.064078	-0.000070	-0.053054
C34	C	1.564078	0.499930	0.446946
C35	C	0.706724	-0.060023	-0.315671
C36	C	1.206724	0.439977	0.184329
C37	C	0.626439	-0.060002	-0.398316
C38	C	1.126439	0.439998	0.101684
C39	C	0.655893	-0.000022	-0.473239
C40	C	1.155893	0.499978	0.026761
C41	C	0.765629	0.059961	-0.465520
C42	C	1.265629	0.559961	0.034480
C43	C	0.845908	0.059950	-0.382873
C44	C	1.345908	0.559950	0.117127
C45	C	0.816456	-0.000054	-0.307954
C46	C	1.316456	0.499946	0.192046
C47	C	1.260862	0.059900	0.044269
C48	C	1.760862	0.559900	0.544269
C49	C	1.341144	0.059896	0.126917
C50	C	1.841144	0.559896	0.626917
C51	C	1.311694	-0.000077	0.201847
C52	C	1.811694	0.499923	0.701847
C53	C	1.201955	-0.060045	0.194138
C54	C	1.701955	0.439955	0.694138
C55	C	1.121673	-0.060041	0.111490
C56	C	1.621673	0.439959	0.611490
C57	C	1.151132	-0.000070	0.036559
C58	C	1.651132	0.499930	0.536559
C59	C	1.483799	-0.663419	-0.135706
C60	C	1.983799	-0.163419	0.364294
C61	C	1.483787	-0.546614	-0.135705
C62	C	1.983787	-0.046614	0.364295
C63	C	1.483785	-0.453516	-0.135698
C64	C	1.983785	0.046484	0.364302
C65	C	1.483772	-0.336703	-0.135695
C66	C	1.983772	0.163297	0.364305
C67	C	1.713377	-0.000074	-0.130436
C68	C	2.213377	0.499926	0.369564
C69	C	1.852794	-0.000075	-0.133147
C70	C	2.352794	0.499925	0.366853
C71	C	1.492579	-0.000075	0.032852
C72	C	1.992579	0.499925	0.532852
C73	C	1.489871	-0.000075	0.135247
C74	C	1.989871	0.499925	0.635247
N75	N	1.483818	0.243475	-0.135705
N76	N	1.983818	0.743475	0.364295
C77	C	1.474999	-0.000053	-0.304253
C78	C	1.974999	0.499947	0.195747
C79	C	1.477706	-0.000045	-0.406649
C80	C	1.977706	0.499955	0.093351
C81	C	1.479904	-0.000048	0.510195
C82	C	1.979904	0.499952	1.010195
C83	C	1.482672	-0.000056	0.405872
C84	C	1.982672	0.499944	0.905872
C85	C	1.484887	-0.000062	0.322724
C86	C	1.984887	0.499938	0.822724
C87	C	1.487656	-0.000068	0.218395
C88	C	1.987656	0.499932	0.718395
H89	H	1.075783	-0.000031	-0.290270
H90	H	1.575783	0.499969	0.209730
C91	C	0.798017	0.125945	-0.547944
C92	C	1.298017	0.625945	-0.047944
N93	N	0.822417	0.175640	-0.610029
N94	N	1.322417	0.675640	-0.110029
C95	C	1.461851	0.125876	0.135399
C96	C	1.961851	0.625876	0.635399
N97	N	1.552767	0.175573	0.141789
N98	N	2.052767	0.675573	0.641789
C99	C	0.966617	0.125920	-0.374382
C100	C	1.466617	0.625920	0.125618
N101	N	1.057542	0.175605	-0.367992
N102	N	1.557542	0.675605	0.132008
H103	H	0.590515	-0.000007	-0.540531
H104	H	1.090515	0.499993	-0.040531
C105	C	0.674321	-0.126016	-0.233258
C106	C	1.174321	0.373984	0.266742
N107	N	0.649908	-0.175722	-0.171183
N108	N	1.149908	0.324278	0.328817
H109	H	0.537092	-0.108847	-0.404595
H110	H	1.037092	0.391153	0.095405
H111	H	0.891783	-0.000107	0.018867
H112	H	1.391783	0.499893	0.518867
C113	C	1.000978	-0.126037	0.103001
C114	C	1.500978	0.373963	0.603001
N115	N	0.910079	-0.175753	0.096603
N116	N	1.410079	0.324247	0.596603
H117	H	1.177973	-0.108877	0.255154
H118	H	1.677973	0.391123	0.755154
H119	H	1.284856	0.108733	-0.016746
H120	H	1.784856	0.608733	0.483254
H121	H	1.377064	-0.000064	0.269147
H122	H	1.877064	0.499936	0.769147
