data_functionalizedCrystal
_audit_creation_method	'MofGen! by Chris Wilmer'
_symmetry_space_group_name_H-M	'P1'
_symmetry_Int_Tables_number	1
_symmetry_cell_setting	triclinic
loop_
_symmetry_equiv_pos_as_xyz
  x,y,z
_cell_length_a	16.120530
_cell_length_b	18.101395
_cell_length_c	16.120297
_cell_angle_alpha	87.130194
_cell_angle_beta	89.871860
_cell_angle_gamma	87.127367
loop_
_atom_site_label
_atom_site_type_symbol
_atom_site_fract_x
_atom_site_fract_y
_atom_site_fract_z
Zn1	Zn	1.247379	-0.375189	0.534544
Zn2	Zn	1.254311	-0.493081	0.395480
Zn3	Zn	1.115371	-0.362675	0.388463
Zn4	Zn	1.108267	-0.492399	0.527449
O5	O	1.181332	-0.430836	0.461484
O6	O	1.364664	-0.396350	0.522003
O7	O	1.241754	-0.470830	0.278184
O8	O	1.132955	-0.260707	0.407873
O9	O	1.369756	-0.482965	0.419833
O10	O	1.229940	-0.269901	0.515199
O11	O	1.139676	-0.375022	0.273028
O12	O	0.998064	-0.374360	0.400994
O13	O	1.120847	-0.481802	0.644756
O14	O	0.992844	-0.469668	0.503107
O15	O	1.223051	-0.395689	0.649968
O16	O	1.234865	-0.596619	0.412954
O17	O	1.127568	-0.596117	0.509911
C18	C	0.965282	-0.420583	0.450519
C19	C	0.872853	-0.416215	0.445848
C20	C	0.703625	-0.408224	0.437327
C21	C	0.659876	-0.453505	0.485701
C22	C	0.565712	-0.449058	0.480960
C23	C	0.797798	-0.412669	0.442067
C24	C	1.181219	-0.623239	0.461443
C25	C	1.181246	-0.705555	0.461457
C26	C	1.181340	-0.856270	0.461495
C27	C	1.113800	-0.887336	0.522447
C28	C	1.114030	-0.972977	0.522730
C29	C	1.181431	-1.004658	0.461532
C30	C	1.267903	-0.978638	0.489547
C31	C	1.267455	-0.892992	0.489973
C32	C	1.163200	-0.883074	0.372414
C33	C	1.161296	-0.968658	0.372806
C34	C	1.181487	-1.088521	0.461552
C35	C	1.181289	-0.772407	0.461477
C36	C	1.398226	-0.441129	0.472492
C37	C	1.490653	-0.445516	0.477183
C38	C	1.170383	-0.440065	0.678378
C39	C	1.165718	-0.443999	0.770805
C40	C	1.181467	-0.237683	0.461545
C41	C	1.181524	-0.155372	0.461570
C42	C	1.192286	-0.421591	0.245437
C43	C	1.197113	-0.417457	0.153018
C44	C	1.157169	-0.451162	0.940029
C45	C	1.205659	-0.410296	0.983799
C46	C	1.200902	-0.414281	1.077961
C47	C	1.161924	-0.447177	0.845858
H48	H	1.049777	-0.990355	0.504703
C49	C	1.032681	-0.806106	0.428377
C50	C	1.026735	-0.854613	0.498332
H51	H	0.978928	-0.785898	0.413494
H52	H	1.055741	-0.832304	0.383490
H53	H	1.067396	-0.767212	0.440712
H54	H	0.992024	-0.893511	0.485996
H55	H	1.003662	-0.828415	0.543229
C56	C	1.310449	-0.322014	0.997661
C57	C	1.266531	-0.359027	0.938927
H58	H	1.348024	-0.290363	0.969955
H59	H	1.340550	-0.357195	1.033153
H60	H	1.272555	-0.293370	1.029700
H61	H	1.304424	-0.387676	0.906892
H62	H	1.236428	-0.323841	0.903421
H63	H	0.693142	-0.495609	0.530678
H64	H	1.319267	-0.872671	0.447739
H65	H	1.284165	-1.003677	0.554112
H66	H	1.101426	-0.857643	0.347722
H67	H	0.670362	-0.366123	0.392355
H68	H	1.125310	-0.869239	0.587984
H69	H	1.319432	-0.999364	0.446722
C70	C	1.103331	-0.496510	1.070849
C71	C	1.096313	-0.502437	0.984903
H72	H	1.065767	-0.528170	1.098558
H73	H	1.090487	-0.446771	1.084416
H74	H	1.158498	-0.510582	1.087862
H75	H	1.041147	-0.488359	0.967889
H76	H	1.109152	-0.552187	0.971330
H77	H	1.125755	-0.996915	0.588651
H78	H	1.283324	-0.876618	0.555216
H79	H	1.097679	-0.985231	0.351756
H80	H	1.207258	-0.989944	0.324630
H81	H	1.212441	-0.862953	0.326948
