data_functionalizedCrystal
_audit_creation_method	'MofGen! by Chris Wilmer'
_symmetry_space_group_name_H-M	'P1'
_symmetry_Int_Tables_number	1
_symmetry_cell_setting	triclinic
loop_
_symmetry_equiv_pos_as_xyz
  x,y,z
_cell_length_a	19.121321
_cell_length_b	19.120786
_cell_length_c	18.101390
_cell_angle_alpha	87.524889
_cell_angle_beta	92.421694
_cell_angle_gamma	90.133760
loop_
_atom_site_label
_atom_site_type_symbol
_atom_site_fract_x
_atom_site_fract_y
_atom_site_fract_z
Zn1	Zn	1.059822	-0.324751	-0.356401
Zn2	Zn	1.559822	0.175249	0.143599
Zn3	Zn	1.054732	-0.442006	-0.227509
Zn4	Zn	1.554732	0.057994	0.272491
Zn5	Zn	0.942588	-0.319789	-0.238075
Zn6	Zn	1.442588	0.180211	0.261925
Zn7	Zn	0.937555	-0.436965	-0.356811
Zn8	Zn	1.437555	0.063035	0.143189
O9	O	0.998674	-0.380878	-0.294699
O10	O	1.498674	0.119122	0.205301
O11	O	1.157248	-0.344491	-0.334710
O12	O	1.657248	0.155509	0.165290
O13	O	1.039832	-0.425827	-0.125277
O14	O	1.539832	0.074173	0.374723
O15	O	0.962376	-0.222337	-0.258021
O16	O	1.462376	0.277663	0.241979
O17	O	1.153509	-0.430639	-0.240014
O18	O	1.653509	0.069361	0.259986
O19	O	1.048507	-0.225982	-0.344955
O20	O	1.548507	0.274018	0.155045
O21	O	0.957440	-0.336035	-0.133040
O22	O	1.457440	0.163965	0.366960
O23	O	0.843819	-0.331146	-0.258419
O24	O	1.343819	0.168854	0.241581
O25	O	0.953798	-0.422046	-0.460390
O26	O	1.453798	0.077954	0.039610
O27	O	0.840122	-0.417235	-0.345654
O28	O	1.340122	0.082765	0.154346
O29	O	1.043627	-0.339603	-0.460089
O30	O	1.543627	0.160397	0.039911
O31	O	1.034952	-0.539448	-0.240411
O32	O	1.534952	-0.039448	0.259589
O33	O	0.948863	-0.535744	-0.335409
O34	O	1.448863	-0.035744	0.164591
C35	C	0.816534	-0.373105	-0.303228
C36	C	1.316534	0.126895	0.196772
C37	C	0.738612	-0.369797	-0.306893
C38	C	1.238612	0.130203	0.193107
C39	C	0.298006	-0.348785	-0.330138
C40	C	0.798006	0.151215	0.169862
C41	C	0.371220	-0.351907	-0.326689
C42	C	0.871220	0.148093	0.173311
C43	C	0.405875	-0.398246	-0.275588
C44	C	0.905875	0.101754	0.224412
C45	C	0.367311	-0.441471	-0.227937
C46	C	0.867311	0.058529	0.272063
C47	C	0.294097	-0.438353	-0.231390
C48	C	0.794097	0.061647	0.268610
C49	C	0.626835	-0.409905	-0.262695
C50	C	1.126835	0.090095	0.237305
C51	C	0.700054	-0.413018	-0.259245
C52	C	1.200054	0.086982	0.240755
C53	C	0.703958	-0.323454	-0.357998
C54	C	1.203958	0.176546	0.142002
C55	C	0.630743	-0.320337	-0.361443
C56	C	1.130743	0.179663	0.138557
C57	C	0.592185	-0.363565	-0.313795
C58	C	1.092185	0.136435	0.186205
C59	C	0.480712	-0.401436	-0.272060
C60	C	0.980712	0.098564	0.227940
C61	C	0.517349	-0.360378	-0.317327
C62	C	1.017349	0.139622	0.182673
C63	C	0.990828	-0.563035	-0.286823
C64	C	1.490828	-0.063035	0.213177
C65	C	0.987536	-0.640966	-0.283476
C66	C	1.487536	-0.140966	0.216524
C67	C	1.030799	-0.679414	-0.327205
C68	C	1.530799	-0.179414	0.172795
C69	C	1.027703	-0.752638	-0.324061
C70	C	1.527703	-0.252638	0.175939
C71	C	0.981346	-0.787413	-0.277183
C72	C	1.481346	-0.287413	0.222817
C73	C	0.938077	-0.748959	-0.233453
C74	C	1.438077	-0.248959	0.266547
C75	C	0.941171	-0.675736	-0.236601
C76	C	1.441171	-0.175736	0.263399
C77	C	0.969760	-1.008406	-0.265414
C78	C	1.469760	-0.508406	0.234586
C79	C	0.966672	-1.081634	-0.262268
C80	C	1.466672	-0.581634	0.237732
C81	C	1.056296	-1.085308	-0.352878
C82	C	1.556296	-0.585308	0.147122
C83	C	1.059389	-1.012083	-0.356018
C84	C	1.559389	-0.512083	0.143982
C85	C	1.016118	-0.973636	-0.312291
C86	C	1.516118	-0.473636	0.187709
C87	C	0.978181	-0.862259	-0.273967
C88	C	1.478181	-0.362259	0.226033
C89	C	1.019279	-0.898791	-0.315511
C90	C	1.519279	-0.398791	0.184489
C91	C	1.181526	-0.388681	-0.286138
C92	C	1.681526	0.111319	0.213862
C93	C	1.259447	-0.392006	-0.282489
C94	C	1.759447	0.107994	0.217511
C95	C	0.998719	-0.380815	-0.487862
C96	C	1.498719	0.119185	0.012138
C97	C	0.998738	-0.380789	-0.570176
C98	C	1.498738	0.119211	-0.070176
C99	C	1.006570	-0.198010	-0.302621
C100	C	1.506570	0.301990	0.197379
C101	C	1.009935	-0.120082	-0.305997
C102	C	1.509935	0.379918	0.194003
C103	C	0.998777	-0.380747	-0.869268
C104	C	1.498777	0.119253	-0.369268
C105	C	1.055465	-0.329074	-0.837736
C106	C	1.555465	0.170926	-0.337736
C107	C	1.055304	-0.328867	-0.752135
C108	C	1.555304	0.171133	-0.252135
C109	C	0.998758	-0.380768	-0.720885
C110	C	1.498758	0.119232	-0.220885
C111	C	0.925760	-0.357548	-0.756290
C112	C	1.425760	0.142452	-0.256290
C113	C	0.926103	-0.357157	-0.841938
C114	C	1.426103	0.142843	-0.341938
C115	C	1.014431	-0.455751	-0.833598
C116	C	1.514431	0.044249	-0.333598
C117	C	1.016068	-0.455441	-0.747888
C118	C	1.516068	0.044559	-0.247888
C119	C	0.998743	-0.380781	-0.637026
C120	C	1.498743	0.119219	-0.137026
C121	C	0.998788	-0.380732	-0.953127
C122	C	1.498788	0.119268	-0.453127
C123	C	0.998673	-0.380891	-0.102288
C124	C	1.498673	0.119109	0.397712
C125	C	0.998798	-0.380726	-0.019976
C126	C	1.498798	0.119274	0.480024
H127	H	0.262703	-0.473549	-0.192591
H128	H	0.762703	0.026451	0.307409
Cl129	Cl	1.039690	-0.243177	-0.725082
Cl130	Cl	1.539690	0.256823	-0.225082
H131	H	1.091524	-1.116619	-0.388479
H132	H	1.591524	-0.616619	0.111521
Cl133	Cl	0.743618	-0.471291	-0.195012
Cl134	Cl	1.243618	0.028709	0.304988
Cl135	Cl	0.905012	-0.272373	-0.877573
Cl136	Cl	1.405012	0.227627	-0.377573
Cl137	Cl	1.077551	-0.855073	-0.374445
Cl138	Cl	1.577551	-0.355073	0.125555
Cl139	Cl	0.904214	-0.273662	-0.727948
Cl140	Cl	1.404214	0.226338	-0.227948
H141	H	0.900330	-0.777278	-0.195287
H142	H	1.400330	-0.277278	0.304713
Cl143	Cl	0.410876	-0.499730	-0.163698
Cl144	Cl	0.910876	0.000270	0.336302
Cl145	Cl	0.915356	-0.960082	-0.210449
Cl146	Cl	1.415356	-0.460082	0.289551
Cl147	Cl	0.858928	-0.412459	-0.874447
Cl148	Cl	1.358928	0.087541	-0.374447
Cl149	Cl	0.524284	-0.459687	-0.207818
Cl150	Cl	1.024284	0.040313	0.292182
Cl151	Cl	1.089083	-0.635705	-0.386136
Cl152	Cl	1.589083	-0.135705	0.113864
H153	H	1.097136	-0.983772	-0.394190
H154	H	1.597136	-0.483772	0.105810
Cl155	Cl	0.908392	-1.125350	-0.203329
Cl156	Cl	1.408392	-0.625350	0.296671
Cl157	Cl	0.578372	-0.464228	-0.202774
Cl158	Cl	1.078372	0.035772	0.297226
Cl159	Cl	0.858988	-0.413656	-0.725317
Cl160	Cl	1.358988	0.086344	-0.225317
H161	H	1.062938	-0.783940	-0.359664
H162	H	1.562938	-0.283940	0.140336
Cl163	Cl	1.094952	-0.487422	-0.861902
Cl164	Cl	1.594952	0.012578	-0.361902
Cl165	Cl	1.098987	-0.482387	-0.711592
Cl166	Cl	1.598987	0.017613	-0.211592
Cl167	Cl	0.919901	-0.905982	-0.215041
Cl168	Cl	1.419901	-0.405982	0.284959
H169	H	1.109533	-0.343770	-0.728014
H170	H	1.609533	0.156230	-0.228014
Cl171	Cl	0.254447	-0.290524	-0.394379
Cl172	Cl	0.754447	0.209476	0.105621
Cl173	Cl	0.419691	-0.297573	-0.386597
Cl174	Cl	0.919691	0.202427	0.113403
Cl175	Cl	0.587183	-0.262082	-0.425690
Cl176	Cl	1.087183	0.237918	0.074310
H177	H	0.905940	-0.644432	-0.200993
H178	H	1.405940	-0.144432	0.299007
Cl179	Cl	0.752435	-0.269118	-0.417898
Cl180	Cl	1.252435	0.230882	0.082102
H181	H	0.489130	-0.322651	-0.358936
H182	H	0.989130	0.177349	0.141064
Cl183	Cl	0.956563	-0.518471	-0.714672
Cl184	Cl	1.456563	-0.018471	-0.214672
H185	H	1.109879	-0.343830	-0.855224
H186	H	1.609879	0.156170	-0.355224
Cl187	Cl	0.950624	-0.515252	-0.865044
Cl188	Cl	1.450624	-0.015252	-0.365044
Cl189	Cl	1.040079	-0.243867	-0.875516
Cl190	Cl	1.540079	0.256133	-0.375516
