data_functionalizedCrystal
_audit_creation_method	'MofGen! by Chris Wilmer'
_symmetry_space_group_name_H-M	'P1'
_symmetry_Int_Tables_number	1
_symmetry_cell_setting	triclinic
loop_
_symmetry_equiv_pos_as_xyz
  x,y,z
_cell_length_a	15.944545
_cell_length_b	23.532357
_cell_length_c	14.421503
_cell_angle_alpha	89.998741
_cell_angle_beta	89.995153
_cell_angle_gamma	83.162232
loop_
_atom_site_label
_atom_site_type_symbol
_atom_site_fract_x
_atom_site_fract_y
_atom_site_fract_z
O1	O	1.113894	0.073427	-0.077063
O2	O	0.869265	0.082486	-0.077080
O3	O	0.998979	-0.004949	-0.077052
O4	O	0.984181	0.160862	-0.077091
O5	O	0.998957	-0.004936	0.077172
O6	O	0.869244	0.082499	0.077144
O7	O	1.113873	0.073440	0.077160
Cu8	Cu	0.991556	0.077971	0.091234
Cu9	Cu	0.991582	0.077955	-0.091153
O10	O	0.984160	0.160875	0.077132
C11	C	0.837964	0.082117	0.000030
C12	C	0.744727	0.080992	0.000025
C13	C	0.474595	0.023432	0.000048
C14	C	0.524925	0.051189	0.076084
C15	C	0.409118	0.076977	0.000042
C16	C	0.524926	0.051190	-0.075968
C17	C	0.574015	0.078947	0.000032
C18	C	0.458220	0.104720	0.076140
C19	C	0.458218	0.104714	-0.075980
C20	C	0.508515	0.132510	0.000074
C21	C	0.314126	0.075841	0.000048
C22	C	0.669004	0.080087	0.000032
C23	C	0.998598	-0.026160	0.000063
C24	C	0.997485	-0.089383	0.000071
C25	C	0.990511	-0.481428	-0.084046
C26	C	0.989453	-0.540832	-0.084052
O27	O	0.988887	-0.571557	-0.155548
N28	N	0.988916	-0.570538	0.000014
C29	C	0.989429	-0.540837	0.084091
O30	O	0.988875	-0.571559	0.155595
C31	C	0.990481	-0.481434	0.084096
C32	C	0.991026	-0.451732	0.000024
C33	C	0.991054	-0.451726	-0.168111
C34	C	0.992114	-0.392327	-0.168105
C35	C	0.992629	-0.362630	-0.084035
C36	C	0.992085	-0.392332	0.000030
C37	C	0.990988	-0.451733	0.168171
C38	C	0.992039	-0.392326	0.168169
C39	C	0.992584	-0.362624	0.084097
C40	C	0.993660	-0.303236	0.084106
N41	N	0.994196	-0.273530	0.000040
C42	C	0.993681	-0.303227	-0.084031
C43	C	0.987219	-0.665587	0.084075
C44	C	0.986173	-0.724989	0.084072
C45	C	0.986195	-0.724980	-0.084071
C46	C	0.987247	-0.665577	-0.084067
C47	C	0.987755	-0.635881	0.000009
C48	C	0.995906	-0.178484	-0.084012
C49	C	0.996969	-0.119080	-0.083999
C50	C	0.996943	-0.119094	0.084144
C51	C	0.995885	-0.178493	0.084131
C52	C	0.995364	-0.208187	0.000046
O53	O	0.994223	-0.272474	0.155565
O54	O	0.994224	-0.272497	-0.155523
C55	C	1.145174	0.073809	0.000048
C56	C	1.238411	0.074934	0.000048
C57	C	0.984541	0.182086	0.000016
C58	C	0.985653	0.245309	0.000001
N59	N	0.991545	0.077981	0.219515
N60	N	0.991600	0.077940	-0.219434
C61	C	0.931555	0.118393	0.469156
C62	C	1.007359	0.129448	0.530961
C63	C	0.991565	0.077968	0.408676
C64	C	0.915781	0.066925	0.530966
C65	C	0.991578	0.077956	0.591398
C66	C	1.067407	0.089049	0.469120
C67	C	0.975779	0.026503	0.469120
C68	C	1.051638	0.037537	0.530897
C69	C	0.991556	0.077976	0.303415
C70	C	0.991596	0.077947	0.696657
H71	H	0.429205	0.127322	0.140492
Br72	Br	0.985454	-0.765294	0.198174
Br73	Br	0.987915	-0.625291	0.198190
H74	H	0.459342	-0.022682	0.000133
Br75	Br	0.990246	-0.492028	0.282276
Br76	Br	0.987986	-0.625273	-0.198167
Br77	Br	1.136320	-0.019455	0.575804
H78	H	0.992554	-0.368148	-0.236565
H79	H	0.962391	-0.017000	0.441935
Br80	Br	0.533666	0.209429	0.000121
H81	H	0.851685	0.057591	0.558134
H82	H	1.131516	0.098435	0.442068
H83	H	0.554043	0.028581	0.140377
Br84	Br	0.409656	0.142364	-0.183144
H85	H	0.992441	-0.368149	0.236635
H86	H	0.880857	0.152607	0.442047
Br87	Br	1.029638	0.201978	0.576234
H88	H	0.995449	-0.202679	0.152589
Br89	Br	0.997714	-0.078774	-0.198104
Br90	Br	0.573471	0.013477	-0.183101
H91	H	0.995478	-0.202653	-0.152483
Br92	Br	0.990354	-0.492018	-0.282222
H93	H	0.985773	-0.749170	-0.152526
H94	H	0.997367	-0.094904	0.152592
