data_functionalizedCrystal
_audit_creation_method	'MofGen! by Chris Wilmer'
_symmetry_space_group_name_H-M	'P1'
_symmetry_Int_Tables_number	1
_symmetry_cell_setting	triclinic
loop_
_symmetry_equiv_pos_as_xyz
  x,y,z
_cell_length_a	19.805407
_cell_length_b	16.625546
_cell_length_c	19.805399
_cell_angle_alpha	90.027867
_cell_angle_beta	90.019573
_cell_angle_gamma	90.022468
loop_
_atom_site_label
_atom_site_type_symbol
_atom_site_fract_x
_atom_site_fract_y
_atom_site_fract_z
Zn1	Zn	1.034754	-0.321020	0.382718
Zn2	Zn	1.534754	0.178980	0.882718
Zn3	Zn	1.034677	-0.455857	0.269529
Zn4	Zn	1.534677	0.044143	0.769529
Zn5	Zn	0.921569	-0.321043	0.269543
Zn6	Zn	1.421569	0.178957	0.769543
Zn7	Zn	0.921540	-0.455815	0.382676
Zn8	Zn	1.421540	0.044185	0.882676
O9	O	0.978135	-0.388434	0.326117
O10	O	1.478135	0.111566	0.826117
O11	O	1.129461	-0.338915	0.367716
O12	O	1.629461	0.161085	0.867716
O13	O	1.019652	-0.438001	0.174815
O14	O	1.519652	0.061999	0.674815
O15	O	0.936628	-0.208207	0.284579
O16	O	1.436628	0.291793	0.784579
O17	O	1.129404	-0.437980	0.284556
O18	O	1.629404	0.062020	0.784556
O19	O	1.019784	-0.208191	0.367729
O20	O	1.519784	0.291809	0.867729
O21	O	0.936553	-0.338953	0.174825
O22	O	1.436553	0.161047	0.674825
O23	O	0.826848	-0.338912	0.284538
O24	O	1.326848	0.161088	0.784538
O25	O	0.936579	-0.437907	0.477398
O26	O	1.436579	0.062093	0.977398
O27	O	0.826827	-0.437928	0.367657
O28	O	1.326827	0.062072	0.867657
O29	O	1.019756	-0.338874	0.477429
O30	O	1.519756	0.161126	0.977429
O31	O	1.019625	-0.568684	0.284515
O32	O	1.519625	-0.068684	0.784515
O33	O	0.936504	-0.568653	0.367644
O34	O	1.436504	-0.068653	0.867644
C35	C	0.802279	-0.388418	0.326095
C36	C	1.302279	0.111582	0.826095
C37	C	0.727047	-0.388431	0.326102
C38	C	1.227047	0.111569	0.826102
C39	C	0.978071	-0.597925	0.326088
C40	C	1.478071	-0.097925	0.826088
C41	C	0.978105	-0.687546	0.326099
C42	C	1.478105	-0.187546	0.826099
C43	C	0.691710	-0.440067	0.369311
C44	C	1.191710	0.059933	0.869311
C45	C	0.621021	-0.440068	0.369321
C46	C	1.121021	0.059932	0.869321
C47	C	0.585671	-0.388437	0.326117
C48	C	1.085671	0.111563	0.826117
C49	C	0.621014	-0.336796	0.282905
C50	C	1.121014	0.163204	0.782905
C51	C	0.691701	-0.336791	0.282899
C52	C	1.191701	0.163209	0.782899
C53	C	0.335941	-0.336814	0.282927
C54	C	0.835941	0.163186	0.782927
C55	C	0.265248	-0.336825	0.282935
C56	C	0.765248	0.163175	0.782935
C57	C	0.265261	-0.440091	0.369349
C58	C	0.765261	0.059909	0.869349
C59	C	0.335948	-0.440086	0.369343
C60	C	0.835948	0.059914	0.869343
C61	C	0.371284	-0.388442	0.326134
C62	C	0.871284	0.111558	0.826134
C63	C	0.447932	-0.388440	0.326125
C64	C	0.947932	0.111560	0.826125
C65	C	0.509024	-0.388443	0.326122
C66	C	1.009024	0.111557	0.826122
C67	C	0.978224	-1.015721	0.326169
C68	C	1.478224	-0.515721	0.826169
C69	C	0.978189	-0.924413	0.326152
C70	C	1.478189	-0.424413	0.826152
C71	C	0.978164	-0.851636	0.326134
C72	C	1.478164	-0.351636	0.826134
C73	C	0.978130	-0.760322	0.326117
C74	C	1.478130	-0.260322	0.826117
C75	C	1.154678	-0.388450	0.326139
C76	C	1.654678	0.111550	0.826139
C77	C	1.229910	-0.388457	0.326149
C78	C	1.729910	0.111543	0.826149
C79	C	0.978173	-0.388383	0.502660
C80	C	1.478173	0.111617	1.002660
C81	C	0.978189	-0.388361	0.577892
C82	C	1.478189	0.111639	1.077892
C83	C	0.978218	-0.178125	0.326160
C84	C	1.478218	0.321875	0.826160
C85	C	0.978253	-0.088504	0.326178
C86	C	1.478253	0.411496	0.826178
C87	C	0.978136	-0.388426	0.150261
C88	C	1.478136	0.111574	0.650261
C89	C	0.978251	-0.388221	0.075029
C90	C	1.478251	0.111779	0.575029
C91	C	1.021501	-0.336792	0.613253
C92	C	1.521501	0.163208	1.113253
C93	C	1.021508	-0.336769	0.683941
C94	C	1.521508	0.163231	1.183941
C95	C	0.978206	-0.388319	0.719267
C96	C	1.478206	0.111681	1.219267
C97	C	0.934889	-0.439890	0.683901
C98	C	1.434889	0.060110	1.183901
C99	C	0.934880	-0.439909	0.613214
C100	C	1.434880	0.060091	1.113214
C101	C	0.934928	-0.439815	0.968974
C102	C	1.434928	0.060185	1.468974
C103	C	0.934942	-0.439794	1.039667
C104	C	1.434942	0.060206	1.539667
C105	C	1.021556	-0.336675	1.039702
C106	C	1.521556	0.163325	1.539702
C107	C	1.021546	-0.336694	0.969015
C108	C	1.521546	0.163306	1.469015
C109	C	0.978227	-0.388262	0.933655
C110	C	1.478227	0.111738	1.433655
C111	C	0.978219	-0.388285	0.857006
C112	C	1.478219	0.111715	1.357006
C113	C	0.978217	-0.388300	0.795914
C114	C	1.478217	0.111700	1.295914
H115	H	0.720486	-0.482113	0.404491
H116	H	1.220486	0.017887	0.904491
H117	H	0.364726	-0.482132	0.404522
H118	H	0.864726	0.017868	0.904522
Cl119	Cl	0.380354	-0.271888	0.228609
Cl120	Cl	0.880354	0.228112	0.728609
H121	H	0.592253	-0.482116	0.404506
H122	H	1.092253	0.017884	0.904506
H123	H	0.236481	-0.482139	0.404534
H124	H	0.736481	0.017861	0.904534
H125	H	0.592226	-0.294754	0.247730
H126	H	1.092226	0.205246	0.747730
Cl127	Cl	1.075987	-0.271888	0.924609
Cl128	Cl	1.575987	0.228112	1.424609
H129	H	0.899665	-0.481817	0.940193
H130	H	1.399665	0.018183	1.440193
Cl131	Cl	0.880450	-0.504694	0.728311
Cl132	Cl	1.380450	-0.004694	1.228311
Cl133	Cl	0.736125	-0.271873	0.228578
Cl134	Cl	1.236125	0.228127	0.728578
Cl135	Cl	1.075944	-0.271986	0.568850
Cl136	Cl	1.575944	0.228014	1.068850
Cl137	Cl	1.075989	-0.271972	0.728393
Cl138	Cl	1.575989	0.228028	1.228393
H139	H	1.056826	-0.294683	1.068501
H140	H	1.556826	0.205317	1.568501
H141	H	0.899604	-0.481894	0.584423
H142	H	1.399604	0.018106	1.084423
Cl143	Cl	0.220810	-0.271911	0.228618
Cl144	Cl	0.720810	0.228089	0.728618
Cl145	Cl	0.880501	-0.504605	1.084075
Cl146	Cl	1.380501	-0.004605	1.584075
