data_functionalizedCrystal
_audit_creation_method	'MofGen! by Chris Wilmer'
_symmetry_space_group_name_H-M	'P1'
_symmetry_Int_Tables_number	1
_symmetry_cell_setting	triclinic
loop_
_symmetry_equiv_pos_as_xyz
  x,y,z
_cell_length_a	14.519731
_cell_length_b	14.519709
_cell_length_c	10.268362
_cell_angle_alpha	90.002293
_cell_angle_beta	90.004709
_cell_angle_gamma	83.684499
loop_
_atom_site_label
_atom_site_type_symbol
_atom_site_fract_x
_atom_site_fract_y
_atom_site_fract_z
O1	O	1.223856	0.120980	0.108306
O2	O	1.723856	0.620980	0.608306
O3	O	0.955382	0.135196	0.108308
O4	O	1.455382	0.635196	0.608308
O5	O	1.096737	-0.006150	0.108295
O6	O	1.596737	0.493850	0.608295
O7	O	1.082501	0.262326	0.108319
O8	O	1.582501	0.762326	0.608319
O9	O	1.096724	-0.006145	-0.108305
O10	O	1.596724	0.493855	0.391695
O11	O	0.955368	0.135201	-0.108292
O12	O	1.455368	0.635201	0.391708
O13	O	1.223842	0.120985	-0.108295
O14	O	1.723842	0.620985	0.391705
Cu15	Cu	1.089604	0.128093	-0.128071
Cu16	Cu	1.589604	0.628093	0.371929
Cu17	Cu	1.089620	0.128088	0.128084
Cu18	Cu	1.589620	0.628088	0.628084
O19	O	1.082487	0.262331	-0.108282
O20	O	1.582487	0.762331	0.391718
C21	C	0.921016	0.134532	0.000008
C22	C	1.421016	0.634532	0.500008
C23	C	0.818635	0.132536	0.000009
C24	C	1.318635	0.632536	0.500009
C25	C	0.735491	0.130915	0.000014
C26	C	1.235491	0.630915	0.500014
C27	C	0.631182	0.128888	0.000014
C28	C	1.131182	0.628888	0.500014
C29	C	0.548043	0.127280	0.000014
C30	C	1.048043	0.627280	0.500014
C31	C	0.443728	0.125253	0.000017
C32	C	0.943728	0.625253	0.500017
C33	C	1.096067	-0.040507	-0.000005
C34	C	1.596067	0.459493	0.499995
C35	C	1.094079	-0.142889	-0.000006
C36	C	1.594079	0.357111	0.499994
C37	C	1.086759	-0.517785	0.000028
C38	C	1.586759	-0.017785	0.500028
C39	C	1.088792	-0.413477	0.000018
C40	C	1.588792	0.086523	0.500018
C41	C	1.090419	-0.330340	0.000010
C42	C	1.590419	0.169660	0.500010
C43	C	1.092452	-0.226025	0.000002
C44	C	1.592452	0.273975	0.500002
C45	C	1.258209	0.121649	0.000008
C46	C	1.758209	0.621649	0.500008
C47	C	1.360589	0.123645	0.000016
C48	C	1.860589	0.623645	0.500016
C49	C	1.083157	0.296688	0.000022
C50	C	1.583157	0.796688	0.500022
C51	C	1.085146	0.399070	0.000031
C52	C	1.585146	0.899070	0.500031
N53	N	1.089600	0.128097	-0.308237
N54	N	1.589600	0.628097	0.191763
C55	C	1.089606	0.128097	-0.426079
C56	C	1.589606	0.628097	0.073921
C57	C	1.089618	0.128089	-0.573917
C58	C	1.589618	0.628089	-0.073917
N59	N	1.089632	0.128077	0.308250
N60	N	1.589632	0.628077	0.808250
