data_functionalizedCrystal
_audit_creation_method	'MofGen! by Chris Wilmer'
_symmetry_space_group_name_H-M	'P1'
_symmetry_Int_Tables_number	1
_symmetry_cell_setting	triclinic
loop_
_symmetry_equiv_pos_as_xyz
  x,y,z
_cell_length_a	10.489741
_cell_length_b	16.974897
_cell_length_c	15.455313
_cell_angle_alpha	83.675220
_cell_angle_beta	92.692689
_cell_angle_gamma	83.968987
loop_
_atom_site_label
_atom_site_type_symbol
_atom_site_fract_x
_atom_site_fract_y
_atom_site_fract_z
O1	O	0.151333	1.057023	-0.146252
O2	O	0.651333	1.557023	0.353748
O3	O	0.173272	0.826166	-0.130065
O4	O	0.673272	1.326166	0.369935
O5	O	-0.023409	0.946847	-0.138522
O6	O	0.476591	1.446847	0.361478
O7	O	0.348015	0.936342	-0.137795
O8	O	0.848015	1.436342	0.362205
O9	O	-0.012208	0.939946	0.006224
O10	O	0.487792	1.439946	0.506224
O11	O	0.184473	0.819265	0.014680
O12	O	0.684473	1.319265	0.514680
O13	O	0.162534	1.050121	-0.001506
O14	O	0.662534	1.550121	0.498494
Cu15	Cu	0.174527	0.934063	0.019804
Cu16	Cu	0.674527	1.434063	0.519804
Cu17	Cu	0.161280	0.942224	-0.151375
Cu18	Cu	0.661280	1.442224	0.348625
O19	O	0.359216	0.929440	0.006950
O20	O	0.859216	1.429440	0.506950
C21	C	0.178243	0.793154	-0.055620
C22	C	0.678243	1.293154	0.444380
C23	C	0.176352	0.705071	-0.049444
C24	C	0.676352	1.205071	0.450556
C25	C	0.169361	0.667444	-0.125436
C26	C	0.669361	1.167444	0.374564
C27	C	0.167605	0.584678	-0.119620
C28	C	0.667605	1.084678	0.380380
C29	C	0.172830	0.539542	-0.037811
C30	C	0.672830	1.039542	0.462189
C31	C	0.179826	0.577175	0.038188
C32	C	0.679826	1.077175	0.538188
C33	C	0.181591	0.659938	0.032371
C34	C	0.681591	1.159938	0.532371
C35	C	0.168215	0.291613	-0.011954
C36	C	0.668215	0.791613	0.488046
C37	C	0.166445	0.208844	-0.006143
C38	C	0.666445	0.708844	0.493857
C39	C	0.154227	0.216353	-0.163952
C40	C	0.654227	0.716353	0.336048
C41	C	0.155985	0.299118	-0.169761
C42	C	0.655985	0.799118	0.330239
C43	C	0.162987	0.336743	-0.093763
C44	C	0.662987	0.836743	0.406237
N45	N	0.171032	0.454943	-0.031864
N46	N	0.671032	0.954943	0.468136
N47	N	0.164795	0.421340	-0.099710
N48	N	0.664795	0.921340	0.400290
C49	C	-0.065323	0.942603	-0.066094
C50	C	0.434677	1.442603	0.433906
C51	C	-0.206901	0.940229	-0.065929
C52	C	0.293099	1.440229	0.434071
C53	C	-0.273363	0.863443	-0.060551
C54	C	0.226637	1.363443	0.439449
C55	C	-0.360756	0.896314	0.008273
C56	C	0.139244	1.396314	0.508273
C57	C	-0.371774	0.903136	-0.134437
C58	C	0.128226	1.403136	0.365563
C59	C	-0.292424	0.973128	0.002952
C60	C	0.207576	1.473128	0.502952
C61	C	-0.303438	0.979943	-0.139821
C62	C	0.196562	1.479943	0.360179
C63	C	-0.390803	1.012868	-0.070984
C64	C	0.109197	1.512868	0.429016
C65	C	0.401130	0.933684	-0.065480
C66	C	0.901130	1.433684	0.434520
C67	C	0.542707	0.936059	-0.065650
C68	C	1.042707	1.436059	0.434350
C69	C	0.157563	1.083133	-0.075954
C70	C	0.657563	1.583133	0.424046
C71	C	0.159455	1.171217	-0.082135
C72	C	0.659455	1.671217	0.417865
N73	N	0.183843	0.928328	0.140201
N74	N	0.683843	1.428328	0.640201
N75	N	0.151954	0.947965	-0.271773
N76	N	0.651954	1.447965	0.228227
C77	C	0.100316	0.979616	0.182001
C78	C	0.600316	1.479616	0.682001
C79	C	0.107373	0.975286	0.273113
C80	C	0.607373	1.475286	0.773113
C81	C	0.197964	0.919672	0.322422
C82	C	0.697964	1.419672	0.822422
C83	C	0.281494	0.868379	0.280615
C84	C	0.781494	1.368379	0.780615
C85	C	0.274430	0.872706	0.189506
C86	C	0.774430	1.372706	0.689506
C87	C	0.228420	0.900999	0.595312
C88	C	0.728420	1.400999	1.095312
C89	C	0.235481	0.896678	0.686427
C90	C	0.735481	1.396678	1.186427
C91	C	0.061357	1.003584	0.678918
C92	C	0.561357	1.503584	1.178918
C93	C	0.054306	1.007909	0.587807
C94	C	0.554306	1.507909	1.087807
C95	C	0.137832	0.956613	0.546009
C96	C	0.637832	1.456613	1.046009
N97	N	0.205182	0.915247	0.415552
N98	N	0.705182	1.415247	0.915552
N99	N	0.130607	0.961035	0.452880
N100	N	0.630607	1.461035	0.952880
H101	H	0.165101	0.704188	-0.192055
H102	H	0.665101	1.204188	0.307945
F103	F	-0.269888	1.026135	-0.221663
F104	F	0.230112	1.526135	0.278337
H105	H	-0.441605	1.076056	-0.075374
H106	H	0.058395	1.576056	0.424626
F107	F	-0.027535	1.058172	0.723408
F108	F	0.472465	1.558172	1.223408
H109	H	0.173908	0.322237	0.049930
H110	H	0.673908	0.822237	0.549930
H111	H	0.296433	0.859233	0.561287
H112	H	0.796433	1.359233	1.061287
H113	H	-0.406697	0.873513	-0.192499
H114	H	0.093303	1.373513	0.307501
H115	H	-0.222326	0.800307	-0.056053
H116	H	0.277674	1.300307	0.443947
H117	H	-0.386388	0.860947	0.070886
H118	H	0.113612	1.360947	0.570886
F119	F	0.377904	0.809186	0.333095
F120	F	0.877904	1.309186	0.833095
H121	H	0.170737	0.172093	0.060480
H122	H	0.670737	0.672093	0.560480
F123	F	0.003901	1.038812	0.129531
F124	F	0.503901	1.538812	0.629531
F125	F	0.185397	0.529135	0.125256
F126	F	0.685397	1.029135	0.625256
F127	F	0.160166	0.544636	-0.200503
F128	F	0.660166	1.044636	0.299497
H129	H	0.148529	0.185710	-0.225825
H130	H	0.648529	0.685710	0.274175
F131	F	0.018473	1.029871	0.317600
F132	F	0.518473	1.529871	0.817600
F133	F	0.189036	0.699983	0.113253
F134	F	0.689036	1.199983	0.613253
H135	H	-0.257628	1.002710	0.061079
H136	H	0.242372	1.502710	0.561079
F137	F	0.331909	0.837483	0.738900
F138	F	0.831909	1.337483	1.238900
F139	F	0.150417	0.347150	-0.256834
F140	F	0.650417	0.847150	0.243166
F141	F	-0.042109	1.067100	0.535329
F142	F	0.457891	1.567100	1.035329
F143	F	0.363328	0.818115	0.145021
F144	F	0.863328	1.318115	0.645021
