data_functionalizedCrystal
_audit_creation_method	'MofGen! by Chris Wilmer'
_symmetry_space_group_name_H-M	'P1'
_symmetry_Int_Tables_number	1
_symmetry_cell_setting	triclinic
loop_
_symmetry_equiv_pos_as_xyz
  x,y,z
_cell_length_a	9.065215
_cell_length_b	12.784905
_cell_length_c	8.140239
_cell_angle_alpha	89.996744
_cell_angle_beta	89.997429
_cell_angle_gamma	79.061008
loop_
_atom_site_label
_atom_site_type_symbol
_atom_site_fract_x
_atom_site_fract_y
_atom_site_fract_z
O1	O	0.009230	1.410401	-0.136623
O2	O	0.509230	1.910401	0.363377
O3	O	0.072332	1.101553	-0.136623
O4	O	0.572332	1.601553	0.363377
O5	O	-0.174799	1.262363	-0.136616
O6	O	0.325201	1.762363	0.363384
O7	O	0.256361	1.249592	-0.136630
O8	O	0.756361	1.749592	0.363370
O9	O	-0.174801	1.262354	0.136611
O10	O	0.325199	1.762354	0.636611
O11	O	0.072331	1.101544	0.136604
O12	O	0.572331	1.601544	0.636604
O13	O	0.009228	1.410392	0.136604
O14	O	0.509228	1.910392	0.636604
Zn15	Zn	0.040779	1.255967	0.179985
Zn16	Zn	0.540779	1.755967	0.679985
Zn17	Zn	0.040781	1.255979	-0.180004
Zn18	Zn	0.540781	1.755979	0.319996
O19	O	0.256360	1.249583	0.136597
O20	O	0.756360	1.749583	0.636597
C21	C	0.076436	1.061989	-0.000009
C22	C	0.576436	1.561989	0.499991
C23	C	0.088647	0.944113	-0.000009
C24	C	0.588647	1.444113	0.499991
C25	C	-0.160139	0.745335	-0.000031
C26	C	0.339861	1.245335	0.499969
C27	C	-0.148673	0.634581	-0.000031
C28	C	0.351327	1.134581	0.499969
C29	C	0.123044	0.611847	-0.000021
C30	C	0.623044	1.111847	0.499979
C31	C	0.111578	0.722601	-0.000021
C32	C	0.611578	1.222601	0.499979
C33	C	-0.030019	0.789342	-0.000023
C34	C	0.469981	1.289342	0.499977
C35	C	-0.041484	0.900099	-0.000012
C36	C	0.458516	1.400099	0.499988
C37	C	0.230232	0.877363	-0.000014
C38	C	0.730232	1.377363	0.499986
C39	C	0.241699	0.766608	-0.000014
C40	C	0.741699	1.266608	0.499986
C41	C	-0.229607	1.261131	-0.000004
C42	C	0.270393	1.761131	0.499996
C43	C	-0.392911	1.257464	-0.000009
C44	C	0.107089	1.757464	0.499991
C45	C	0.311167	1.250814	-0.000018
C46	C	0.811167	1.750814	0.499982
C47	C	0.474472	1.254482	-0.000024
C48	C	0.974472	1.754482	0.499976
C49	C	0.005125	1.449957	-0.000013
C50	C	0.505125	1.949957	0.499987
C51	C	-0.007086	1.567833	-0.000024
C52	C	0.492914	2.067833	0.499976
N53	N	0.040776	1.255966	0.425667
N54	N	0.540776	1.755966	0.925667
N55	N	0.040772	1.255987	-0.425686
N56	N	0.540772	1.755987	0.074314
H57	H	-0.156779	0.954438	-0.000011
H58	H	0.343221	1.454438	0.499989
H59	H	0.238325	0.557488	-0.000041
H60	H	0.738325	1.057488	0.499959
H61	H	0.336187	0.913204	0.000000
H62	H	0.836187	1.413204	0.500000
H63	H	-0.275433	0.799677	-0.000021
H64	H	0.224567	1.299677	0.499979
H65	H	-0.254631	0.598755	-0.000040
H66	H	0.245369	1.098755	0.499960
H67	H	0.356982	0.712253	-0.000019
H68	H	0.856982	1.212253	0.499981
