data_functionalizedCrystal
_audit_creation_method	'MofGen! by Chris Wilmer'
_symmetry_space_group_name_H-M	'P1'
_symmetry_Int_Tables_number	1
_symmetry_cell_setting	triclinic
loop_
_symmetry_equiv_pos_as_xyz
  x,y,z
_cell_length_a	11.026607
_cell_length_b	15.944551
_cell_length_c	9.482900
_cell_angle_alpha	99.334197
_cell_angle_beta	78.636152
_cell_angle_gamma	96.042377
loop_
_atom_site_label
_atom_site_type_symbol
_atom_site_fract_x
_atom_site_fract_y
_atom_site_fract_z
O1	O	1.629108	0.341447	-0.120915
O2	O	1.275798	0.301394	-0.120914
O3	O	1.462099	0.200605	-0.120901
O4	O	1.442807	0.442235	-0.120927
O5	O	1.424257	0.221183	0.120889
O6	O	1.237956	0.321972	0.120876
O7	O	1.591266	0.362024	0.120875
Cu8	Cu	1.411156	0.343877	0.142953
Cu9	Cu	1.455908	0.319541	-0.142992
O10	O	1.404965	0.462813	0.120862
C11	C	1.211666	0.304294	-0.000019
C12	C	1.076950	0.282267	-0.000019
C13	C	1.003151	0.343086	-0.000026
C14	C	0.863914	0.320322	-0.000026
C15	C	1.442377	0.179479	-0.000006
C16	C	1.439975	0.085870	-0.000005
C17	C	1.318759	-0.147313	-0.000025
C18	C	1.356391	-0.189675	0.119192
C19	C	1.435632	-0.085514	-0.000016
C20	C	1.393728	-0.209942	-0.119194
C21	C	1.431430	-0.251064	-0.000034
C22	C	1.473281	-0.126634	0.119299
C23	C	1.510618	-0.146907	-0.119194
C24	C	1.548331	-0.189236	0.000052
C25	C	1.438050	0.009855	-0.000005
C26	C	1.429020	-0.346429	-0.000034
C27	C	1.655399	0.359124	-0.000023
C28	C	1.790116	0.381150	-0.000033
C29	C	1.424688	0.483939	-0.000036
C30	C	1.427091	0.577547	-0.000046
N31	N	1.379688	0.360994	0.344071
N32	N	1.487386	0.302419	-0.344110
C33	C	1.446618	0.324584	0.416275
C34	C	1.420446	0.338834	0.583690
H35	H	1.037058	0.213341	-0.000048
N36	N	1.324228	0.391161	0.661607
N37	N	1.235555	0.360417	0.746585
H38	H	1.167600	0.397370	0.801615
N39	N	1.053191	0.429550	-0.000061
N40	N	1.045422	0.468362	-0.101990
H41	H	1.080761	0.529430	-0.102016
N42	N	1.515413	-0.081413	0.245883
N43	N	1.446885	-0.031893	0.334660
H44	H	1.476634	0.000048	0.424062
H45	H	1.291183	-0.208678	0.219980
N46	N	0.813859	0.233858	0.000003
N47	N	0.700822	0.215489	0.000012
H48	H	0.665466	0.154425	0.000035
H49	H	0.830006	0.450078	-0.000031
H50	H	1.645417	-0.207711	0.000119
N51	N	1.283496	0.413342	0.421970
N52	N	1.220560	0.447582	0.354172
H53	H	1.152621	0.484554	0.409184
N54	N	1.592364	-0.123055	-0.245648
N55	N	1.571889	-0.153881	-0.369343
H56	H	1.629616	-0.137037	-0.458664
H57	H	1.221729	-0.128660	0.000094
H58	H	1.360054	-0.246072	-0.219990
N59	N	1.542798	0.272239	0.338331
N60	N	1.563919	0.260735	0.202444
H61	H	1.631848	0.223764	0.147396
N62	N	1.583571	0.250071	0.577955
N63	N	1.604695	0.238565	0.442068
H64	H	1.672624	0.201593	0.387023
