data_functionalizedCrystal
_audit_creation_method	'MofGen! by Chris Wilmer'
_symmetry_space_group_name_H-M	'P1'
_symmetry_Int_Tables_number	1
_symmetry_cell_setting	triclinic
loop_
_symmetry_equiv_pos_as_xyz
  x,y,z
_cell_length_a	14.044220
_cell_length_b	16.109302
_cell_length_c	12.503572
_cell_angle_alpha	86.480786
_cell_angle_beta	86.154684
_cell_angle_gamma	91.674671
loop_
_atom_site_label
_atom_site_type_symbol
_atom_site_fract_x
_atom_site_fract_y
_atom_site_fract_z
O1	O	-0.116351	1.116586	-0.089367
O2	O	0.216982	1.449920	0.243966
O3	O	0.550315	1.783253	0.577299
O4	O	-0.131513	0.875652	-0.089359
O5	O	0.201820	1.208985	0.243975
O6	O	0.535153	1.542319	0.577308
O7	O	0.014051	0.992502	-0.089358
O8	O	0.347384	1.325836	0.243975
O9	O	0.680718	1.659169	0.577308
O10	O	-0.261915	0.999736	-0.089368
O11	O	0.071418	1.333069	0.243965
O12	O	0.404751	1.666402	0.577299
O13	O	0.003086	0.983716	0.089284
O14	O	0.336419	1.317049	0.422617
O15	O	0.669752	1.650383	0.755950
O16	O	-0.142479	0.866865	0.089283
O17	O	0.190855	1.200199	0.422616
O18	O	0.524188	1.533532	0.755950
O19	O	-0.127317	1.107800	0.089275
O20	O	0.206017	1.441133	0.422608
O21	O	0.539350	1.774466	0.755941
Cu22	Cu	-0.135899	0.986530	0.105590
Cu23	Cu	0.197434	1.319864	0.438924
Cu24	Cu	0.530768	1.653197	0.772257
Cu25	Cu	-0.122931	0.996921	-0.105674
Cu26	Cu	0.210402	1.330255	0.227659
Cu27	Cu	0.543736	1.663588	0.560992
O28	O	-0.272881	0.990949	0.089274
O29	O	0.060452	1.324283	0.422607
O30	O	0.393786	1.657616	0.755941
C31	C	-0.136382	0.840238	-0.000037
C32	C	0.196952	1.173571	0.333297
C33	C	0.530285	1.506905	0.666630
C34	C	-0.134540	0.747806	-0.000033
C35	C	0.198793	1.081139	0.333300
C36	C	0.532126	1.414472	0.666633
C37	C	-0.136259	0.530359	0.097334
C38	C	0.197075	0.863692	0.430667
C39	C	0.530408	1.197026	0.764001
C40	C	-0.134518	0.443510	0.097330
C41	C	0.198816	0.776843	0.430664
C42	C	0.532149	1.110176	0.763997
C43	C	-0.122568	0.453100	-0.097435
C44	C	0.210766	0.786433	0.235898
C45	C	0.544099	1.119767	0.569232
C46	C	-0.124302	0.539948	-0.097430
C47	C	0.209032	0.873281	0.235903
C48	C	0.542365	1.206615	0.569236
C49	C	-0.131152	0.578575	-0.000043
C50	C	0.202181	0.911908	0.333291
C51	C	0.535515	1.245241	0.666624
C52	C	-0.127677	0.404877	-0.000051
C53	C	0.205656	0.738211	0.333282
C54	C	0.538989	1.071544	0.666616
C55	C	-0.125790	0.310711	-0.000056
C56	C	0.207544	0.644045	0.333278
C57	C	0.540877	0.977378	0.666611
C58	C	-0.133038	0.672747	-0.000037
C59	C	0.200295	1.006080	0.333296
C60	C	0.533629	1.339413	0.666629
C61	C	-0.302712	0.998509	-0.000048
C62	C	0.030622	1.331842	0.333285
C63	C	0.363955	1.665175	0.666618
C64	C	-0.407934	1.007953	-0.000053
C65	C	-0.074601	1.341286	0.333281
C66	C	0.258733	1.674619	0.666614
C67	C	-0.600590	1.025218	-0.000048
C68	C	-0.267257	1.358551	0.333285
C69	C	0.066076	1.691884	0.666618
C70	C	-0.658244	0.958238	-0.000045
C71	C	-0.324911	1.291572	0.333288
C72	C	0.008422	1.624905	0.666622
C73	C	-0.765445	0.967845	-0.000043
C74	C	-0.432112	1.301178	0.333290
C75	C	-0.098778	1.634511	0.666624
C76	C	-0.493380	1.015612	-0.000051
C77	C	-0.160047	1.348946	0.333283
C78	C	0.173287	1.682279	0.666616
C79	C	0.043882	0.984943	-0.000038
C80	C	0.377215	1.318277	0.333295
C81	C	0.710548	1.651610	0.666628
C82	C	0.149105	0.975500	-0.000041
C83	C	0.482438	1.308833	0.333292
C84	C	0.815772	1.642166	0.666626
C85	C	-0.122448	1.143214	-0.000050
C86	C	0.210885	1.476547	0.333283
C87	C	0.544219	1.809880	0.666617
C88	C	-0.124289	1.235647	-0.000060
C89	C	0.209044	1.568980	0.333273
C90	C	0.542378	1.902313	0.666606
N91	N	-0.145019	0.979228	0.254182
N92	N	0.188314	1.312561	0.587516
N93	N	0.521647	1.645894	0.920849
N94	N	-0.113803	1.004230	-0.254267
N95	N	0.219530	1.337563	0.079067
N96	N	0.552863	1.670897	0.412400
C97	C	-0.158444	0.968486	0.473298
C98	C	0.174890	1.301819	0.806631
C99	C	0.508223	1.635153	1.139964
C100	C	-0.100382	1.014969	0.526625
C101	C	0.232951	1.348302	0.859958
C102	C	0.566285	1.681636	1.193292
C103	C	-0.107851	1.008992	0.648548
C104	C	0.225482	1.342326	0.981882
C105	C	0.558815	1.675659	1.315215
C106	C	-0.150975	0.974462	0.351363
C107	C	0.182358	1.307795	0.684697
C108	C	0.515691	1.641129	1.018030
H109	H	-0.138676	0.404255	0.176624
H110	H	0.194657	0.737589	0.509957
H111	H	0.527990	1.070922	0.843291
H112	H	-0.631740	1.089770	-0.000047
H113	H	-0.298407	1.423103	0.333287
H114	H	0.034927	1.756437	0.666620
C115	C	-0.025660	1.074806	0.464602
C116	C	0.307673	1.408139	0.797935
C117	C	0.641007	1.741472	1.131269
N118	N	0.030613	1.119878	0.417881
N119	N	0.363946	1.453211	0.751215
N120	N	0.697280	1.786544	1.084548
C121	C	-0.233169	0.908663	0.535320
C122	C	0.100164	1.241996	0.868654
C123	C	0.433497	1.575329	1.201987
N124	N	-0.289453	0.863605	0.582048
N125	N	0.043880	1.196938	0.915382
N126	N	0.377214	1.530271	1.248715
C127	C	-0.143783	0.572846	0.204463
C128	C	0.189550	0.906179	0.537796
C129	C	0.522884	1.239512	0.871130
N130	N	-0.149446	0.604844	0.285156
N131	N	0.183887	0.938178	0.618489
N132	N	0.517220	1.271511	0.951823
C133	C	-0.115040	0.410602	-0.204556
C134	C	0.218293	0.743935	0.128778
C135	C	0.551627	1.077268	0.462111
N136	N	-0.109374	0.378593	-0.285241
N137	N	0.223960	0.711926	0.048092
N138	N	0.557293	1.045259	0.381425
H139	H	-0.120140	0.579207	-0.176731
H140	H	0.213193	0.912540	0.156603
H141	H	0.546526	1.245874	0.489936
C142	C	-0.616163	0.871022	-0.000034
C143	C	-0.282830	1.204356	0.333299
C144	C	0.050503	1.537689	0.666633
N145	N	-0.584463	0.805334	-0.000020
N146	N	-0.251130	1.138667	0.333313
N147	N	0.082203	1.472000	0.666646
