data_functionalizedCrystal
_audit_creation_method	'MofGen! by Chris Wilmer'
_symmetry_space_group_name_H-M	'P1'
_symmetry_Int_Tables_number	1
_symmetry_cell_setting	triclinic
loop_
_symmetry_equiv_pos_as_xyz
  x,y,z
_cell_length_a	10.967819
_cell_length_b	9.482944
_cell_length_c	19.288865
_cell_angle_alpha	100.460747
_cell_angle_beta	83.940062
_cell_angle_gamma	112.345149
loop_
_atom_site_label
_atom_site_type_symbol
_atom_site_fract_x
_atom_site_fract_y
_atom_site_fract_z
O1	O	1.735090	0.555626	0.142190
O2	O	1.358152	0.461193	0.143904
O3	O	1.557508	0.511109	0.042202
O4	O	1.535733	0.505711	0.243891
O5	O	1.521414	0.260268	0.021994
O6	O	1.322058	0.210353	0.123696
O7	O	1.698995	0.304786	0.121982
Cu8	Cu	1.507231	0.234666	0.120994
Cu9	Cu	1.549917	0.531313	0.144892
O10	O	1.499639	0.254870	0.223683
C11	C	1.291881	0.323691	0.132148
C12	C	1.148189	0.287691	0.127216
C13	C	0.954321	0.364405	0.130398
C14	C	1.102834	0.401604	0.135490
N15	N	1.477217	0.026022	0.104185
C16	C	1.541055	-0.030175	0.139933
C17	C	1.516094	-0.203850	0.125942
C18	C	1.765267	0.442291	0.133738
C19	C	1.908960	0.478301	0.138671
C20	C	1.538760	0.385508	0.006203
C21	C	1.536654	0.384968	-0.070957
N22	N	1.579940	0.739960	0.161696
C23	C	1.653628	0.414266	-0.112559
C24	C	1.651655	0.413795	-0.185056
C25	C	1.532696	0.383993	-0.215952
C26	C	1.415707	0.354700	-0.174340
C27	C	1.417686	0.355187	-0.101843
C28	C	1.426537	0.272701	-0.333792
C29	C	1.424562	0.272205	-0.406289
C30	C	1.526589	0.382496	-0.439556
C31	C	1.630610	0.493267	-0.400321
C32	C	1.632589	0.493755	-0.327823
C33	C	1.530537	0.383462	-0.294562
C34	C	1.641432	0.411287	-0.559768
C35	C	1.639455	0.410824	-0.632266
C36	C	1.403502	0.351713	-0.621549
C37	C	1.405485	0.352192	-0.549052
C38	C	1.524452	0.381973	-0.518166
C39	C	1.518388	0.380474	0.259683
C40	C	1.520496	0.381024	0.336844
H41	H	1.442960	-0.284308	0.084973
O42	O	1.777826	0.445382	-0.229937
H43	H	1.767830	0.344327	-0.271468
O44	O	1.003141	0.643953	0.153047
H45	H	0.998537	0.706030	0.110428
H46	H	1.614193	0.050291	0.180894
O47	O	1.676817	-0.153486	0.215966
H48	H	1.681214	-0.033798	0.218445
H49	H	1.077079	0.162631	0.116368
H50	H	1.404088	-0.054442	0.063219
O51	O	1.781943	0.446427	-0.079241
H52	H	1.862955	0.466743	-0.120352
H53	H	1.717284	0.583951	-0.295880
H54	H	0.883206	0.239354	0.119551
O55	O	1.740661	0.612246	-0.436187
H56	H	1.721806	0.593318	-0.493188
H57	H	1.738304	0.435543	-0.534619
O58	O	1.765624	0.442413	-0.677143
H59	H	1.848673	0.463182	-0.643485
H60	H	1.306645	0.327455	-0.646703
O61	O	1.197014	0.567265	0.149855
H62	H	1.298885	0.570488	0.151591
O63	O	1.279314	0.320554	-0.504177
H64	H	1.196257	0.299733	-0.537839
O65	O	1.312378	0.152736	-0.448607
H66	H	1.241752	0.076144	-0.413294
O67	O	1.316492	0.153732	-0.297913
H68	H	1.243844	0.076610	-0.337376
O69	O	1.287394	0.322538	-0.207658
H70	H	1.305666	0.327100	-0.265061
H71	H	1.322428	0.331327	-0.067971
