data_functionalizedCrystal
_audit_creation_method	'MofGen! by Chris Wilmer'
_symmetry_space_group_name_H-M	'P1'
_symmetry_Int_Tables_number	1
_symmetry_cell_setting	triclinic
loop_
_symmetry_equiv_pos_as_xyz
  x,y,z
_cell_length_a	10.654563
_cell_length_b	10.654550
_cell_length_c	9.130313
_cell_angle_alpha	90.000110
_cell_angle_beta	89.998536
_cell_angle_gamma	95.512357
loop_
_atom_site_label
_atom_site_type_symbol
_atom_site_fract_x
_atom_site_fract_y
_atom_site_fract_z
O1	O	1.667824	-0.176473	-0.121837
O2	O	1.302348	-0.193262	-0.121831
O3	O	1.493489	-0.002129	-0.121829
O4	O	1.476683	-0.367606	-0.121839
O5	O	1.493487	-0.002134	0.121770
O6	O	1.302346	-0.193267	0.121768
O7	O	1.667822	-0.176478	0.121762
Cu8	Cu	1.485084	-0.184873	0.144008
Cu9	Cu	1.485086	-0.184867	-0.144076
O10	O	1.476681	-0.367611	0.121760
C11	C	1.255549	-0.192028	-0.000030
C12	C	1.116107	-0.188329	-0.000028
C13	C	1.492254	0.044667	-0.000031
C14	C	1.488562	0.184110	-0.000036
C15	C	1.714621	-0.177712	-0.000042
C16	C	1.854063	-0.181411	-0.000054
C17	C	2.050587	-0.186606	0.132753
C18	C	1.919565	-0.183142	0.132740
C19	C	1.919593	-0.183130	-0.132845
C20	C	2.050614	-0.186585	-0.132831
C21	C	2.050569	-0.186618	0.286086
C22	C	1.919547	-0.183154	0.286074
C23	C	1.477916	-0.414407	-0.000041
C24	C	1.481608	-0.553850	-0.000046
N25	N	1.485091	-0.184877	0.346630
C26	C	1.601103	0.263591	-0.000034
C27	C	1.597626	0.394612	-0.000044
C28	C	1.369058	0.366659	-0.000053
C29	C	1.372536	0.235641	-0.000053
C30	C	1.733065	0.279730	-0.000022
C31	C	1.729589	0.410751	-0.000032
N32	N	1.485089	-0.184854	-0.346699
C33	C	1.569750	-0.100272	0.423283
C34	C	1.569747	-0.100257	0.576620
C35	C	1.400421	-0.269462	0.576637
C36	C	1.400419	-0.269470	0.423303
C37	C	1.667513	-0.002586	0.423274
C38	C	1.667509	-0.002571	0.576611
H39	H	2.103957	-0.187969	-0.240953
H40	H	2.096833	-0.099825	0.344967
Cl41	Cl	1.808282	-0.049834	0.349831
H42	H	1.646070	0.093948	0.381657
Cl43	Cl	2.096248	-0.328031	0.359533
H44	H	1.769470	0.456394	-0.105212
H45	H	1.779309	0.452506	0.101910
Cl46	Cl	1.620390	0.138262	0.650038
H47	H	1.784681	0.250371	-0.101962
H48	H	1.889962	-0.091561	0.333658
H49	H	1.280894	0.170931	-0.000075
Cl50	Cl	1.848084	-0.317157	0.376956
Cl51	Cl	1.837251	-0.180923	-0.299787
Cl52	Cl	1.293971	-0.375816	0.326938
H53	H	1.274594	0.408632	-0.000067
H54	H	1.764020	-0.024094	0.618225
Cl55	Cl	1.797920	0.224705	0.162375
Cl56	Cl	1.293982	-0.375803	0.673036
