data_functionalizedCrystal
_audit_creation_method	'MofGen! by Chris Wilmer'
_symmetry_space_group_name_H-M	'P1'
_symmetry_Int_Tables_number	1
_symmetry_cell_setting	triclinic
loop_
_symmetry_equiv_pos_as_xyz
  x,y,z
_cell_length_a	19.188930
_cell_length_b	19.188930
_cell_length_c	18.266242
_cell_angle_alpha	90.011475
_cell_angle_beta	90.022918
_cell_angle_gamma	83.144779
loop_
_atom_site_label
_atom_site_type_symbol
_atom_site_fract_x
_atom_site_fract_y
_atom_site_fract_z
O1	O	0.926149	0.087169	0.061124
O2	O	1.426149	0.587169	0.561124
O3	O	0.722838	0.098903	0.061075
O4	O	1.222838	0.598903	0.561075
O5	O	0.830361	-0.008620	0.061087
O6	O	1.330361	0.491380	0.561087
O7	O	0.818627	0.194691	0.061113
O8	O	1.318627	0.694691	0.561113
O9	O	0.830343	-0.008625	-0.060675
O10	O	1.330343	0.491375	0.439325
O11	O	0.722820	0.098897	-0.060687
O12	O	1.222820	0.598897	0.439313
O13	O	0.926131	0.087163	-0.060638
O14	O	1.426131	0.587163	0.439362
Zn15	Zn	0.824473	0.093029	-0.079994
Zn16	Zn	1.324473	0.593029	0.420006
Zn17	Zn	0.824497	0.093037	0.080432
Zn18	Zn	1.324497	0.593037	0.580432
O19	O	0.818608	0.194686	-0.060649
O20	O	1.318608	0.694686	0.439351
C21	C	0.696818	0.098520	0.000188
C22	C	1.196818	0.598520	0.500188
C23	C	0.619313	0.097380	0.000169
C24	C	1.119313	0.597380	0.500169
C25	C	0.574389	0.160470	0.000188
C26	C	1.074389	0.660470	0.500188
C27	C	0.501566	0.159399	0.000196
C28	C	1.001566	0.659399	0.500196
C29	C	0.473669	0.095233	0.000199
C30	C	0.973669	0.595233	0.500199
C31	C	0.518603	0.032133	0.000175
C32	C	1.018603	0.532133	0.500175
C33	C	0.591425	0.033207	0.000160
C34	C	1.091425	0.533207	0.500160
N35	N	0.365695	0.046188	0.041663
N36	N	0.865695	0.546188	0.541663
N37	N	0.296516	0.045172	0.041679
N38	N	0.796516	0.545172	0.541679
C39	C	0.254260	0.091994	0.000243
C40	C	0.754260	0.591994	0.500243
N41	N	0.283795	0.139881	-0.041200
N42	N	0.783795	0.639881	0.458800
N43	N	0.352980	0.140899	-0.041213
N44	N	0.852980	0.640899	0.458787
C45	C	0.394707	0.094062	0.000215
C46	C	0.894707	0.594062	0.500215
C47	C	0.130372	0.153928	0.000270
C48	C	0.630372	0.653928	0.500270
C49	C	0.057547	0.152853	0.000274
C50	C	0.557547	0.652853	0.500274
C51	C	0.074586	0.025586	0.000261
C52	C	0.574586	0.525586	0.500261
C53	C	0.147409	0.026662	0.000250
C54	C	0.647409	0.526662	0.500250
C55	C	0.175298	0.090835	0.000258
C56	C	0.675298	0.590835	0.500258
C57	C	0.829972	-0.034634	0.000204
C58	C	1.329972	0.465366	0.500204
C59	C	0.828831	-0.112138	0.000197
C60	C	1.328831	0.387862	0.500197
C61	C	0.891922	-0.157062	0.000209
C62	C	1.391922	0.342938	0.500209
C63	C	0.890850	-0.229886	0.000220
C64	C	1.390850	0.270114	0.500220
C65	C	0.826684	-0.257782	0.000206
C66	C	1.326684	0.242218	0.500206
C67	C	0.763585	-0.212849	0.000198
C68	C	1.263585	0.287151	0.500198
C69	C	0.764658	-0.140026	0.000194
C70	C	1.264658	0.359974	0.500194
N71	N	0.777631	-0.365789	-0.041244
N72	N	1.277631	0.134211	0.458756
N73	N	0.776615	-0.434968	-0.041242
N74	N	1.276615	0.065032	0.458758
C75	C	0.823446	-0.477191	0.000220
C76	C	1.323446	0.022809	0.500220
N77	N	0.871341	-0.447624	0.041669
N78	N	1.371341	0.052376	0.541669
N79	N	0.872359	-0.378439	0.041664
N80	N	1.372359	0.121561	0.541664
C81	C	0.825513	-0.336745	0.000210
C82	C	1.325513	0.163255	0.500210
C83	C	0.885379	-0.601079	0.000245
C84	C	1.385379	-0.101079	0.500245
C85	C	0.884305	-0.673904	0.000261
C86	C	1.384305	-0.173904	0.500261
C87	C	0.757038	-0.656865	0.000231
C88	C	1.257038	-0.156865	0.500231
C89	C	0.758114	-0.584042	0.000222
C90	C	1.258114	-0.084042	0.500222
C91	C	0.822287	-0.556154	0.000226
C92	C	1.322287	-0.056154	0.500226
C93	C	0.952151	0.087546	0.000252
C94	C	1.452151	0.587546	0.500252
C95	C	1.029656	0.088687	0.000276
C96	C	1.529656	0.588687	0.500276
C97	C	0.818997	0.220700	0.000236
C98	C	1.318997	0.720700	0.500236
C99	C	0.820138	0.298204	0.000247
C100	C	1.320138	0.798204	0.500247
N101	N	0.824461	0.093024	-0.189481
N102	N	1.324461	0.593024	0.310519
C103	C	0.872088	0.045436	-0.227785
C104	C	1.372088	0.545436	0.272215
C105	C	0.872092	0.045433	-0.304430
C106	C	1.372092	0.545433	0.195570
C107	C	0.824477	0.093030	-0.342768
C108	C	1.324477	0.593030	0.157232
C109	C	0.776841	0.140621	-0.304455
C110	C	1.276841	0.640621	0.195545
C111	C	0.776834	0.140618	-0.227812
C112	C	1.276834	0.640618	0.272188
N113	N	0.815401	0.154837	-0.463094
N114	N	1.315401	0.654837	0.036906
N115	N	0.815413	0.154838	-0.535902
N116	N	1.315413	0.654838	-0.035902
C117	C	0.824496	0.093040	-0.573691
C118	C	1.324496	0.593040	-0.073691
N119	N	0.833582	0.031239	-0.535920
N120	N	1.333582	0.531239	-0.035920
N121	N	0.833574	0.031240	-0.463106
N122	N	1.333574	0.531240	0.036894
C123	C	0.824480	0.093038	-0.425875
C124	C	1.324480	0.593038	0.074125
C125	C	0.872131	0.045444	-0.695101
C126	C	1.372131	0.545444	-0.195101
C127	C	0.872130	0.045440	-0.771748
C128	C	1.372130	0.545440	-0.271748
C129	C	0.776882	0.140634	-0.771772
C130	C	1.276882	0.640634	-0.271772
C131	C	0.776879	0.140632	-0.695127
C132	C	1.276879	0.640632	-0.195127
C133	C	0.824507	0.093038	-0.656796
C134	C	1.324507	0.593038	-0.156796
N135	N	0.824513	0.093037	0.189919
N136	N	1.324513	0.593037	0.689919
H137	H	0.153080	0.206181	0.000267
H138	H	0.653080	0.706181	0.500267
F139	F	0.604066	0.228769	0.000195
F140	F	1.104066	0.728769	0.500195
H141	H	0.628003	-0.018171	0.000145
H142	H	1.128003	0.481829	0.500145
F143	F	0.009735	0.220007	0.000291
F144	F	0.509735	0.720007	0.500291
H145	H	0.464982	0.210776	0.000210
H146	H	0.964982	0.710776	0.500210
F147	F	0.044901	-0.042705	0.000257
F148	F	0.544901	0.457295	0.500257
F149	F	0.922817	-0.005212	-0.654307
F150	F	1.422817	0.494788	-0.154307
F151	F	0.697505	-0.092213	0.000182
F152	F	1.197505	0.407787	0.500182
H153	H	0.944176	-0.134360	0.000214
H154	H	1.444176	0.365640	0.500214
F155	F	0.695295	-0.242539	0.000187
F156	F	1.195295	0.257461	0.500187
F157	F	0.958003	-0.277706	0.000234
F158	F	1.458003	0.222294	0.500234
F159	F	0.726202	0.191286	-0.812570
F160	F	1.226202	0.691286	-0.312570
H161	H	0.183988	-0.024713	0.000238
H162	H	0.683988	0.475287	0.500238
F163	F	0.922819	-0.005215	-0.812515
F164	F	1.422819	0.494785	-0.312515
F165	F	0.726192	0.191285	-0.654358
F166	F	1.226192	0.691285	-0.154358
H167	H	0.910877	0.006680	-0.335623
H168	H	1.410877	0.506680	0.164377
H169	H	0.937632	-0.578372	0.000251
H170	H	1.437632	-0.078372	0.500251
F171	F	0.488912	-0.036157	0.000175
F172	F	0.988912	0.463843	0.500175
F173	F	0.690963	-0.536229	0.000207
F174	F	1.190963	-0.036229	0.500207
F175	F	0.951459	-0.721716	0.000278
F176	F	1.451459	-0.221716	0.500278
H177	H	0.910868	0.006681	-0.196579
H178	H	1.410868	0.506681	0.303421
F179	F	0.688747	-0.686550	0.000219
F180	F	1.188747	-0.186550	0.500219
H181	H	0.738049	0.179371	-0.196624
H182	H	1.238049	0.679371	0.303376
F183	F	0.726163	0.191275	-0.345258
F184	F	1.226163	0.691275	0.154742
