data_functionalizedCrystal
_audit_creation_method	'MofGen! by Chris Wilmer'
_symmetry_space_group_name_H-M	'P1'
_symmetry_Int_Tables_number	1
_symmetry_cell_setting	triclinic
loop_
_symmetry_equiv_pos_as_xyz
  x,y,z
_cell_length_a	10.686220
_cell_length_b	16.959453
_cell_length_c	10.686551
_cell_angle_alpha	94.408900
_cell_angle_beta	89.691918
_cell_angle_gamma	94.401879
loop_
_atom_site_label
_atom_site_type_symbol
_atom_site_fract_x
_atom_site_fract_y
_atom_site_fract_z
Zn1	Zn	1.972259	-0.192707	0.562369
Zn2	Zn	1.956009	-0.335775	0.352597
Zn3	Zn	1.746375	-0.212927	0.368684
Zn4	Zn	1.762439	-0.334173	0.578375
O5	O	1.859271	-0.268896	0.465506
O6	O	2.145647	-0.203893	0.521111
O7	O	1.914677	-0.328612	0.179185
O8	O	1.776417	-0.099629	0.394411
O9	O	2.133708	-0.309005	0.366993
O10	O	1.942373	-0.084773	0.536710
O11	O	1.760659	-0.238356	0.191004
O12	O	1.572963	-0.236803	0.409932
O13	O	1.803796	-0.306275	0.751798
O14	O	1.584765	-0.325882	0.563990
O15	O	1.957950	-0.202340	0.740038
O16	O	1.930254	-0.446179	0.382514
O17	O	1.788039	-0.445002	0.548392
C18	C	1.533348	-0.283363	0.490444
C19	C	1.393919	-0.289570	0.501143
C20	C	1.859162	-0.474269	0.465469
C21	C	1.859234	-0.562121	0.465485
C22	C	1.945798	-0.925788	0.539745
C23	C	1.773107	-0.941375	0.391427
C24	C	1.773059	-0.858833	0.391402
C25	C	1.859380	-0.809764	0.465551
C26	C	1.945750	-0.843238	0.539725
C27	C	1.686682	-0.825353	0.317239
C28	C	1.686629	-0.742806	0.317212
C29	C	1.772957	-0.693736	0.391355
C30	C	1.859331	-0.727214	0.465531
C31	C	1.945653	-0.678145	0.539680
C32	C	2.032034	-0.711622	0.613850
C33	C	2.032078	-0.794167	0.613868
C34	C	1.772913	-0.611190	0.391337
C35	C	1.945604	-0.595595	0.539660
C36	C	2.186466	-0.254372	0.440472
C37	C	2.325897	-0.248183	0.429804
C38	C	1.884478	-0.251873	0.792708
C39	C	1.895220	-0.244619	0.932142
C40	C	1.859415	-0.062717	0.465569
C41	C	1.859477	0.025143	0.465596
C42	C	1.834234	-0.285792	0.139572
C43	C	1.823735	-0.292812	0.000120
H44	H	2.015902	-0.555647	0.600036
O45	O	1.978148	-0.188750	0.989761
C46	C	2.042428	-0.145386	0.898566
H47	H	2.039632	-0.182375	0.804787
H48	H	2.144161	-0.130614	0.928959
H49	H	1.995472	-0.088105	0.888212
H50	H	1.345481	-0.329758	0.570401
O51	O	1.383800	-0.200351	0.347103
C52	C	1.453286	-0.246165	0.260191
H53	H	1.476173	-0.302960	0.302789
H54	H	1.544196	-0.210767	0.236481
H55	H	1.395680	-0.261816	0.171026
H56	H	1.754319	-0.339623	0.951648
H57	H	2.102312	-0.671660	0.674229
H58	H	2.102404	-0.821432	0.674254
O59	O	2.029867	-0.958260	0.611659
C60	C	2.152802	-0.933884	0.574809
H61	H	2.151497	-0.916152	0.474096
H62	H	2.215643	-0.984815	0.580960
H63	H	2.190675	-0.880977	0.639572
O64	O	1.689214	-0.989119	0.319583
C65	C	1.613635	-1.036760	0.397156
H66	H	1.665129	-1.042167	0.488888
H67	H	1.592969	-1.098233	0.347347
H68	H	1.521696	-1.008405	0.417959
H69	H	1.702577	-0.583937	0.330955
H70	H	1.616401	-0.865310	0.256875
O71	O	1.602900	-0.710198	0.245085
C72	C	1.668126	-0.663495	0.158616
H73	H	1.766562	-0.644549	0.195665
H74	H	1.615716	-0.608621	0.145650
H75	H	1.674842	-0.699549	0.064613
