data_functionalizedCrystal
_audit_creation_method	'MofGen! by Chris Wilmer'
_symmetry_space_group_name_H-M	'P1'
_symmetry_Int_Tables_number	1
_symmetry_cell_setting	triclinic
loop_
_symmetry_equiv_pos_as_xyz
  x,y,z
_cell_length_a	19.805405
_cell_length_b	12.759401
_cell_length_c	12.759393
_cell_angle_alpha	90.020938
_cell_angle_beta	89.963446
_cell_angle_gamma	89.972065
loop_
_atom_site_label
_atom_site_type_symbol
_atom_site_fract_x
_atom_site_fract_y
_atom_site_fract_z
Zn1	Zn	-0.269403	-1.606181	-0.593976
Zn2	Zn	0.230597	-1.106181	-0.093976
Zn3	Zn	-0.382606	-1.606036	-0.418277
Zn4	Zn	0.117394	-1.106036	0.081723
Zn5	Zn	-0.269439	-1.430480	-0.418311
Zn6	Zn	0.230561	-0.930480	0.081689
Zn7	Zn	-0.382558	-1.430436	-0.593915
Zn8	Zn	0.117442	-0.930436	-0.093915
O9	O	-0.326001	-1.518283	-0.506120
O10	O	0.173999	-1.018283	-0.006120
O11	O	-0.284424	-1.753183	-0.570681
O12	O	0.215576	-1.253183	-0.070681
O13	O	-0.367629	-1.582706	-0.271261
O14	O	0.132371	-1.082706	0.228739
O15	O	-0.174718	-1.453866	-0.441653
O16	O	0.325282	-0.953866	0.058347
O17	O	-0.367594	-1.753076	-0.441596
O18	O	0.132406	-1.253076	0.058404
O19	O	-0.174691	-1.582953	-0.570713
O20	O	0.325309	-1.082953	-0.070713
O21	O	-0.284486	-1.453725	-0.271285
O22	O	0.215514	-0.953725	0.228715
O23	O	-0.284440	-1.283453	-0.441594
O24	O	0.215560	-0.783453	0.058406
O25	O	-0.367513	-1.453791	-0.740944
O26	O	0.132487	-0.953791	-0.240944
O27	O	-0.367548	-1.283420	-0.570609
O28	O	0.132452	-0.783420	-0.070609
O29	O	-0.284378	-1.582910	-0.740989
O30	O	0.215622	-1.082910	-0.240989
O31	O	-0.477316	-1.582663	-0.441536
O32	O	0.022684	-1.082663	0.058464
O33	O	-0.477281	-1.453650	-0.570576
O34	O	0.022719	-0.953650	-0.070576
C35	C	-0.325993	-1.245316	-0.506099
C36	C	0.174007	-0.745316	-0.006099
C37	C	-0.326006	-1.128539	-0.506115
C38	C	0.173994	-0.628539	-0.006115
C39	C	-0.501858	-1.518165	-0.506069
C40	C	-0.001858	-1.018165	-0.006069
C41	C	-0.577089	-1.518210	-0.506082
C42	C	-0.077089	-1.018210	-0.006082
C43	C	-0.325936	-1.518362	-0.780153
C44	C	0.174064	-1.018362	-0.280153
C45	C	-0.325909	-1.518395	-0.896930
C46	C	0.174091	-1.018395	-0.396930
C47	C	-0.612429	-1.585453	-0.438962
C48	C	-0.112429	-1.085453	0.061038
C49	C	-0.683118	-1.585497	-0.438985
C50	C	-0.183118	-1.085497	0.061015
C51	C	-0.718465	-1.518294	-0.506124
C52	C	-0.218465	-1.018294	-0.006124
C53	C	-0.683120	-1.451048	-0.573252
C54	C	-0.183120	-0.951048	-0.073252
C55	C	-0.612433	-1.451010	-0.573234
C56	C	-0.112433	-0.951010	-0.073234
C57	C	-0.968194	-1.451203	-0.573330
C58	C	-0.468194	-0.951203	-0.073330
C59	C	-1.038886	-1.451245	-0.573342
C60	C	-0.538886	-0.951245	-0.073342
C61	C	-1.038878	-1.585691	-0.439081
C62	C	-0.538878	-1.085691	0.060919
C63	C	-0.968191	-1.585652	-0.439063
C64	C	-0.468191	-1.085652	0.060937
C65	C	-0.932852	-1.518411	-0.506194
C66	C	-0.432852	-1.018411	-0.006194
C67	C	-0.856204	-1.518365	-0.506170
C68	C	-0.356204	-1.018365	-0.006170
C69	C	-0.795112	-1.518334	-0.506144
C70	C	-0.295112	-1.018334	-0.006144
C71	C	-0.149459	-1.518430	-0.506194
C72	C	0.350541	-1.018430	-0.006194
C73	C	-0.074227	-1.518493	-0.506225
C74	C	0.425773	-1.018493	-0.006225
C75	C	-0.326010	-1.792316	-0.506141
C76	C	0.173990	-1.292316	-0.006141
C77	C	-0.326014	-1.909093	-0.506150
C78	C	0.173986	-1.409093	-0.006150
C79	C	-0.369346	-1.073688	-0.573187
C80	C	0.130654	-0.573688	-0.073187
C81	C	-0.369349	-0.963964	-0.573208
C82	C	0.130651	-0.463964	-0.073208
C83	C	-0.282669	-0.963952	-0.439075
C84	C	0.217331	-0.463952	0.060925
C85	C	-0.282663	-1.073674	-0.439060
C86	C	0.217337	-0.573674	0.060940
C87	C	-0.282614	-1.585633	-0.951817
C88	C	0.217386	-1.085633	-0.451817
C89	C	-0.282584	-1.585650	-1.061541
C90	C	0.217416	-1.085650	-0.561541
C91	C	-0.369151	-1.451190	-1.061481
C92	C	0.130849	-0.951190	-0.561481
C93	C	-0.369177	-1.451168	-0.951759
C94	C	0.130823	-0.951168	-0.451759
C95	C	-0.326017	-1.518265	-0.233152
C96	C	0.173983	-1.018265	0.266848
C97	C	-0.325854	-1.518435	-0.116376
C98	C	0.174146	-1.018435	0.383624
H99	H	-0.711888	-1.640252	-0.384328
H100	H	-0.211888	-1.140252	0.115672
O101	O	-0.235882	-1.658173	-1.120730
O102	O	0.264118	-1.158173	-0.620730
H103	H	-0.201424	-1.611186	-1.170710
H104	H	0.298576	-1.111186	-0.670710
H105	H	-0.247382	-0.919267	-0.384480
H106	H	0.252618	-0.419267	0.115520
H107	H	-0.404640	-0.919309	-0.627827
H108	H	0.095360	-0.419309	-0.127827
H109	H	-0.939426	-1.396452	-0.627989
H110	H	-0.439426	-0.896452	-0.127989
H111	H	-0.247366	-1.118335	-0.384442
H112	H	0.252634	-0.618335	0.115558
H113	H	-0.583654	-1.640173	-0.384284
H114	H	-0.083654	-1.140173	0.115716
H115	H	-0.404637	-1.118356	-0.627790
H116	H	0.095363	-0.618356	-0.127790
H117	H	-0.247380	-1.640370	-0.907178
H118	H	0.252620	-1.140370	-0.407178
H119	H	-0.404380	-1.396459	-1.106137
H120	H	0.095620	-0.896459	-0.606137
O121	O	-0.721240	-1.378549	-0.645659
O122	O	-0.221240	-0.878549	-0.145659
H123	H	-0.776331	-1.389859	-0.634384
H124	H	-0.276331	-0.889859	-0.134384
H125	H	-0.404432	-1.396408	-0.907069
H126	H	0.095568	-0.896408	-0.407069
H127	H	-0.583660	-1.396256	-0.627892
H128	H	-0.083660	-0.896256	-0.127892
H129	H	-0.939413	-1.640372	-0.384388
H130	H	-0.439413	-1.140372	0.115612
H131	H	-1.067659	-1.640446	-0.384424
H132	H	-0.567659	-1.140446	0.115576
H133	H	-1.067663	-1.396521	-0.628022
H134	H	-0.567663	-0.896521	-0.128022
