data_functionalizedCrystal
_audit_creation_method	'MofGen! by Chris Wilmer'
_symmetry_space_group_name_H-M	'P1'
_symmetry_Int_Tables_number	1
_symmetry_cell_setting	triclinic
loop_
_symmetry_equiv_pos_as_xyz
  x,y,z
_cell_length_a	16.992694
_cell_length_b	7.088929
_cell_length_c	8.597278
_cell_angle_alpha	76.027249
_cell_angle_beta	92.025455
_cell_angle_gamma	83.364871
loop_
_atom_site_label
_atom_site_type_symbol
_atom_site_fract_x
_atom_site_fract_y
_atom_site_fract_z
O1	O	1.032119	0.217013	-0.353773
O2	O	1.532119	0.717013	0.146227
O3	O	0.803833	0.216459	-0.350065
O4	O	1.303833	0.716459	0.149935
O5	O	0.924371	0.178591	-0.120382
O6	O	1.424371	0.678591	0.379618
O7	O	0.911581	0.254881	-0.583456
O8	O	1.411581	0.754881	-0.083456
O9	O	0.940480	-0.144457	-0.089613
O10	O	1.440480	0.355543	0.410387
O11	O	0.819942	-0.106589	-0.319296
O12	O	1.319942	0.393411	0.180704
O13	O	1.048227	-0.106035	-0.323004
O14	O	1.548227	0.393965	0.176996
Cu15	Cu	0.935555	-0.135809	-0.318341
Cu16	Cu	1.435555	0.364191	0.181659
Cu17	Cu	0.916505	0.246233	-0.354728
Cu18	Cu	1.416505	0.746233	0.145272
O19	O	0.927689	-0.068167	-0.552687
O20	O	1.427689	0.431833	-0.052687
C21	C	0.782678	0.054156	-0.329905
C22	C	1.282678	0.554156	0.170095
C23	C	0.695642	0.051830	-0.315657
C24	C	1.195642	0.551830	0.184343
N25	N	0.948960	-0.404516	-0.292747
N26	N	1.448960	0.095484	0.207253
C27	C	0.645309	0.074481	-0.453155
C28	C	1.145309	0.574481	0.046845
C29	C	0.563533	0.072247	-0.439753
C30	C	1.063533	0.572247	0.060247
C31	C	0.532090	0.047375	-0.288853
C32	C	1.032090	0.547375	0.211147
C33	C	0.582429	0.024716	-0.151344
C34	C	1.082429	0.524716	0.348656
C35	C	0.664205	0.026937	-0.164746
C36	C	1.164205	0.526937	0.335254
C37	C	0.288532	0.038173	-0.233306
C38	C	0.788532	0.538173	0.266694
C39	C	0.206750	0.035960	-0.219915
C40	C	0.706750	0.535960	0.280085
C41	C	0.187860	0.083487	-0.508326
C42	C	0.687860	0.583487	-0.008326
C43	C	0.269637	0.085717	-0.521716
C44	C	0.769637	0.585717	-0.021716
C45	C	0.319969	0.063048	-0.384206
C46	C	0.819969	0.563048	0.115794
N47	N	0.448501	0.045097	-0.275151
N48	N	0.948501	0.545097	0.224849
N49	N	0.403557	0.065313	-0.397908
N50	N	0.903557	0.565313	0.102092
C51	C	1.069382	0.056273	-0.343164
C52	C	1.569382	0.556273	0.156836
C53	C	1.156418	0.058611	-0.357414
C54	C	1.656418	0.558611	0.142586
C55	C	0.931949	0.007264	-0.045472
C56	C	1.431949	0.507264	0.454528
C57	C	0.930520	-0.021943	0.131899
C58	C	1.430520	0.478057	0.631899
N59	N	0.903106	0.514939	-0.380310
N60	N	1.403106	1.014939	0.119690
C61	C	0.920111	0.103164	-0.627598
C62	C	1.420111	0.603164	-0.127598
C63	C	0.921539	0.132384	-0.804970
C64	C	1.421539	0.632384	-0.304970
H65	H	0.670903	0.094736	-0.576035
H66	H	1.170903	0.594736	-0.076035
F67	F	1.011087	-0.530794	-0.174151
F68	F	1.511087	-0.030794	0.325849
H69	H	0.855584	-0.388455	-0.471050
H70	H	1.355584	0.111545	0.028950
F71	F	0.939139	-0.223864	0.238612
F72	F	1.439139	0.276136	0.738612
H73	H	0.522555	0.090694	-0.551720
H74	H	1.022555	0.590694	-0.051720
H75	H	0.914935	0.286874	0.113375
H76	H	1.414935	0.786874	0.613375
H77	H	0.146871	0.101938	-0.620278
H78	H	0.646871	0.601938	-0.120278
F79	F	0.303094	0.112199	-0.682326
F80	F	0.803094	0.612199	-0.182326
H81	H	0.329504	0.019712	-0.121335
H82	H	0.829504	0.519712	0.378665
F83	F	0.173290	0.009453	-0.059296
F84	F	0.673290	0.509453	0.440704
H85	H	0.556823	0.004438	-0.028474
H86	H	1.056823	0.504438	0.471526
H87	H	0.705185	0.008493	-0.052779
H88	H	1.205185	0.508493	0.447221
