data_functionalizedCrystal
_audit_creation_method	'MofGen! by Chris Wilmer'
_symmetry_space_group_name_H-M	'P1'
_symmetry_Int_Tables_number	1
_symmetry_cell_setting	triclinic
loop_
_symmetry_equiv_pos_as_xyz
  x,y,z
_cell_length_a	12.594517
_cell_length_b	12.594516
_cell_length_c	18.215399
_cell_angle_alpha	89.977894
_cell_angle_beta	89.979113
_cell_angle_gamma	90.015485
loop_
_atom_site_label
_atom_site_type_symbol
_atom_site_fract_x
_atom_site_fract_y
_atom_site_fract_z
Zn1	Zn	1.627253	-0.423769	-0.416166
Zn2	Zn	1.627148	-0.601767	-0.293113
Zn3	Zn	1.449261	-0.423801	-0.293112
Zn4	Zn	1.449239	-0.601704	-0.416135
O5	O	1.538225	-0.512760	-0.354632
O6	O	1.776185	-0.447394	-0.399857
O7	O	1.603516	-0.578198	-0.190128
O8	O	1.472925	-0.274851	-0.309448
O9	O	1.776108	-0.578168	-0.309450
O10	O	1.603695	-0.274828	-0.399855
O11	O	1.472823	-0.447448	-0.190127
O12	O	1.300312	-0.447387	-0.309417
O13	O	1.472888	-0.578061	-0.519124
O14	O	1.300296	-0.578092	-0.399803
O15	O	1.603674	-0.447333	-0.519147
O16	O	1.603495	-0.750704	-0.309419
O17	O	1.472786	-0.750658	-0.399804
C18	C	1.261684	-0.512737	-0.354607
C19	C	1.143379	-0.512753	-0.354614
C20	C	1.003340	-0.441584	-0.305566
C21	C	1.074196	-0.415658	-0.372720
C22	C	1.074094	-0.538631	-0.287467
C23	C	1.003450	-0.486818	-0.421858
C24	C	1.003341	-0.609837	-0.336559
C25	C	1.074166	-0.583947	-0.403760
C26	C	1.538156	-0.789301	-0.354624
C27	C	1.538223	-0.907607	-0.354646
C28	C	1.467124	-0.976873	-0.403771
C29	C	1.441192	-1.047732	-0.336618
C30	C	1.564251	-1.047547	-0.421811
C31	C	1.512241	-0.976907	-0.287457
C32	C	1.635344	-0.976716	-0.372695
C33	C	1.609450	-1.047542	-0.305495
C34	C	1.815846	-0.512784	-0.354657
C35	C	1.934152	-0.512794	-0.354667
C36	C	1.538290	-0.512687	-0.546585
C37	C	1.538318	-0.512656	-0.628383
C38	C	1.538324	-0.235139	-0.354655
C39	C	1.538367	-0.116834	-0.354665
C40	C	1.606443	-0.444522	-0.816591
C41	C	1.606455	-0.444491	-0.893449
C42	C	1.470268	-0.580625	-0.893414
C43	C	1.470251	-0.580650	-0.816557
C44	C	1.538344	-0.512600	-0.778147
C45	C	1.538374	-0.512544	-0.931863
C46	C	1.538387	-0.512511	-1.015197
C47	C	1.538330	-0.512631	-0.694808
C48	C	1.538222	-0.512756	-0.163425
C49	C	1.538401	-0.512488	-0.081627
H50	H	0.972547	-0.464852	-0.478682
H51	H	1.359126	-1.078948	-0.321367
H52	H	1.414790	-0.636086	-0.785255
H53	H	1.661906	-0.389053	-0.924747
H54	H	1.490189	-0.946005	-0.230649
H55	H	1.414832	-0.636031	-0.924697
H56	H	1.105301	-0.333570	-0.388027
C57	C	0.961922	-0.361088	-0.250396
C58	C	0.997806	-0.259607	-0.269676
C59	C	0.959659	-0.185425	-0.218881
H60	H	0.987123	-0.378636	-0.202770
H61	H	0.886494	-0.362044	-0.250498
H62	H	1.073218	-0.258654	-0.269566
H63	H	0.972607	-0.242025	-0.317294
H64	H	0.884231	-0.186381	-0.218984
H65	H	0.984863	-0.202984	-0.171258
H66	H	0.983993	-0.116561	-0.231960
C67	C	1.115321	-0.664081	-0.459273
C68	C	1.079354	-0.636516	-0.529459
C69	C	1.117259	-0.710297	-0.580618
H70	H	1.090011	-0.732866	-0.446933
H71	H	1.190751	-0.664028	-0.458715
H72	H	1.003940	-0.636580	-0.530014
H73	H	1.104662	-0.567743	-0.541821
H74	H	1.192688	-0.710244	-0.580060
H75	H	1.091946	-0.779078	-0.568272
H76	H	1.092869	-0.691599	-0.628246
H77	H	0.972195	-0.691897	-0.321241
H78	H	1.105129	-0.560501	-0.230658
H79	H	1.669638	-1.078376	-0.263912
H80	H	1.406890	-0.945843	-0.445255
C81	C	1.744709	-0.935142	-0.393221
C82	C	1.771476	-0.970847	-0.463617
C83	C	1.872207	-0.932557	-0.482562
H84	H	1.795552	-0.960365	-0.358889
H85	H	1.744031	-0.859716	-0.392664
H86	H	1.772161	-1.046258	-0.464168
H87	H	1.720659	-0.945627	-0.497964
H88	H	1.871530	-0.857131	-0.482005
H89	H	1.923042	-0.957783	-0.448226
H90	H	1.890377	-0.956769	-0.530330
C91	C	1.593389	-1.088777	-0.497600
C92	C	1.518627	-1.052947	-0.548793
C93	C	1.545433	-1.090890	-0.618621
H94	H	1.593849	-1.164193	-0.497056
H95	H	1.661828	-1.063385	-0.510792
H96	H	1.450206	-1.078344	-0.535606
H97	H	1.518156	-0.977536	-0.549361
H98	H	1.613872	-1.065498	-0.631812
H99	H	1.545893	-1.166305	-0.618068
H100	H	1.494717	-1.066577	-0.653364
H101	H	1.661886	-0.389108	-0.785320
