data_functionalizedCrystal
_audit_creation_method	'MofGen! by Chris Wilmer'
_symmetry_space_group_name_H-M	'P1'
_symmetry_Int_Tables_number	1
_symmetry_cell_setting	triclinic
loop_
_symmetry_equiv_pos_as_xyz
  x,y,z
_cell_length_a	12.784890
_cell_length_b	12.837942
_cell_length_c	9.198806
_cell_angle_alpha	89.997396
_cell_angle_beta	89.997123
_cell_angle_gamma	83.967749
loop_
_atom_site_label
_atom_site_type_symbol
_atom_site_fract_x
_atom_site_fract_y
_atom_site_fract_z
O1	O	1.410968	0.006424	-0.120848
O2	O	1.105969	0.050419	-0.120860
O3	O	1.251706	-0.121872	-0.120845
O4	O	1.265232	0.178715	-0.120863
O5	O	1.251693	-0.121871	0.120940
O6	O	1.105956	0.050419	0.120925
O7	O	1.410956	0.006425	0.120937
Cu8	Cu	1.258455	0.028422	0.143008
Cu9	Cu	1.258470	0.028421	-0.142931
O10	O	1.265219	0.178715	0.120922
C11	C	1.066653	0.053280	0.000031
C12	C	0.949521	0.061794	0.000026
C13	C	0.781351	0.168495	0.000018
C14	C	0.891407	0.160502	0.000019
C15	C	0.897572	-0.028928	0.000029
C16	C	0.787516	-0.020935	0.000029
C17	C	0.729410	0.077780	0.000025
C18	C	0.619353	0.085771	0.000035
C19	C	0.625519	-0.103657	0.000035
C20	C	0.735575	-0.111650	0.000036
C21	C	1.247130	-0.160080	0.000046
C22	C	1.233502	-0.273929	0.000043
C23	C	1.397334	-0.529655	0.000020
C24	C	1.384534	-0.636627	0.000017
C25	C	1.195104	-0.594847	0.000024
C26	C	1.207904	-0.487875	0.000027
C27	C	1.309022	-0.455284	0.000027
C28	C	1.321821	-0.348309	0.000040
C29	C	1.132391	-0.306531	0.000037
C30	C	1.119592	-0.413503	0.000034
C31	C	1.450272	0.003563	0.000043
C32	C	1.567404	-0.004950	0.000038
C33	C	1.269795	0.216924	0.000028
C34	C	1.283422	0.330772	0.000021
N35	N	1.258452	0.028422	0.344122
N36	N	1.258480	0.028413	-0.344045
C37	C	1.319615	-0.044208	0.416325
C38	C	1.319631	-0.044213	0.583737
H39	H	0.933693	0.234372	0.000016
H40	H	1.206117	0.090601	0.593873
H41	H	1.206094	0.090596	0.406245
H42	H	0.944901	-0.109296	0.000021
H43	H	1.456447	-0.697179	0.000006
H44	H	0.583217	-0.177525	-0.000075
O45	O	0.725061	0.264461	-0.000044
C46	C	0.794507	0.342818	-0.000004
H47	H	0.873865	0.309358	-0.045778
H48	H	0.805257	0.371085	0.115994
C49	C	0.651175	0.476519	-0.038601
C50	C	0.748642	0.435426	-0.094833
H51	H	0.622882	0.533647	-0.097090
H52	H	0.604387	0.423730	-0.038623
H53	H	0.660147	0.500067	0.058063
H54	H	0.739666	0.411867	-0.191488
H55	H	0.795427	0.488214	-0.094830
O56	O	1.381952	-0.118380	0.342034
C57	C	1.318918	-0.176469	0.253991
H58	H	1.240711	-0.127987	0.231387
H59	H	1.303951	-0.251767	0.312513
C60	C	1.471981	-0.263244	0.137058
C61	C	1.375930	-0.203694	0.109286
H62	H	1.507149	-0.280042	0.047800
H63	H	1.514449	-0.224112	0.196378
H64	H	1.459495	-0.325985	0.185831
H65	H	1.388418	-0.140948	0.060532
H66	H	1.333465	-0.242816	0.049955
H67	H	1.372001	-0.106391	0.645829
O68	O	0.791979	-0.207558	-0.000219
C69	C	0.766945	-0.263238	-0.125416
H70	H	0.734886	-0.205626	-0.212943
H71	H	0.704986	-0.317656	-0.097095
C72	C	0.905976	-0.399134	-0.074692
C73	C	0.866609	-0.328373	-0.182200
H74	H	0.967451	-0.439316	-0.109717
H75	H	0.922840	-0.361624	0.009659
H76	H	0.854334	-0.444472	-0.051102
H77	H	0.918246	-0.283028	-0.205775
H78	H	0.849756	-0.365877	-0.266556
H79	H	0.572044	0.166150	0.000040
H80	H	1.404156	-0.321777	0.000046
H81	H	1.479668	-0.503120	0.000034
H82	H	1.112778	-0.621402	0.000009
H83	H	1.037264	-0.440054	0.000029
H84	H	1.060481	-0.245964	0.000055
