data_functionalizedCrystal
_audit_creation_method	'MofGen! by Chris Wilmer'
_symmetry_space_group_name_H-M	'P1'
_symmetry_Int_Tables_number	1
_symmetry_cell_setting	triclinic
loop_
_symmetry_equiv_pos_as_xyz
  x,y,z
_cell_length_a	10.968094
_cell_length_b	11.026607
_cell_length_c	9.130313
_cell_angle_alpha	89.997484
_cell_angle_beta	102.123932
_cell_angle_gamma	96.379842
loop_
_atom_site_label
_atom_site_type_symbol
_atom_site_fract_x
_atom_site_fract_y
_atom_site_fract_z
O1	O	1.693918	0.170478	0.305705
O2	O	2.193918	0.670478	0.805705
O3	O	1.334305	0.186809	0.214946
O4	O	1.834305	0.686809	0.714946
O5	O	1.484307	0.001743	0.252809
O6	O	1.984307	0.501743	0.752809
O7	O	1.543916	0.355544	0.267842
O8	O	2.043916	0.855544	0.767842
O9	O	1.484293	0.001738	0.496404
O10	O	1.984293	0.501738	0.996404
O11	O	1.334290	0.186804	0.458541
O12	O	1.834290	0.686804	0.958541
O13	O	1.693904	0.170473	0.549301
O14	O	2.193904	0.670473	1.049301
Cu15	Cu	1.514096	0.178638	0.526163
Cu16	Cu	2.014096	0.678638	1.026163
Cu17	Cu	1.514113	0.178644	0.238083
Cu18	Cu	2.014113	0.678644	0.738083
O19	O	1.543902	0.355538	0.511437
O20	O	2.043902	0.855538	1.011437
C21	C	1.287544	0.185620	0.324944
C22	C	1.787544	0.685620	0.824944
C23	C	1.148228	0.182069	0.289783
C24	C	1.648228	0.682069	0.789783
C25	C	0.942111	0.176802	0.363947
C26	C	1.442111	0.676802	0.863947
C27	C	1.086101	0.180480	0.400302
C28	C	1.586101	0.680480	0.900302
C29	C	1.473303	-0.043562	0.371829
C30	C	1.973303	0.456438	0.871829
C31	C	1.440521	-0.178548	0.363551
C32	C	1.940521	0.321452	0.863551
C33	C	1.531037	-0.251602	0.386393
C34	C	2.031037	0.248398	0.886393
C35	C	1.497158	-0.391118	0.377837
C36	C	1.997158	0.108882	0.877837
C37	C	1.740665	0.171662	0.439299
C38	C	2.240665	0.671662	0.939299
C39	C	1.879981	0.175212	0.474450
C40	C	2.379981	0.675212	0.974450
C41	C	1.554906	0.400843	0.392414
C42	C	2.054906	0.900843	0.892414
C43	C	1.587687	0.535829	0.400683
C44	C	2.087687	1.035829	0.900683
N45	N	1.514093	0.178632	0.728785
N46	N	2.014093	0.678632	1.228785
N47	N	1.514124	0.178640	0.035463
N48	N	2.014124	0.678640	0.535463
C49	C	1.580550	0.096720	0.822212
C50	C	2.080550	0.596720	1.322212
C51	C	1.580562	0.096720	0.975551
C52	C	2.080562	0.596720	1.475551
C53	C	1.447658	0.260556	0.942024
C54	C	1.947658	0.760556	1.442024
C55	C	1.447640	0.260549	0.788685
C56	C	1.947640	0.760549	1.288685
H57	H	0.888702	0.175432	0.242426
H58	H	1.388702	0.675432	0.742426
O59	O	1.375956	0.348894	0.687891
O60	O	1.875956	0.848894	1.187891
H61	H	1.413171	0.443821	0.726670
H62	H	1.913171	0.943821	1.226670
H63	H	1.337945	-0.219291	0.337653
H64	H	1.837945	0.280709	0.837653
H65	H	1.394575	-0.431855	0.351938
H66	H	1.894575	0.068145	0.851938
O67	O	1.156828	0.182305	0.561286
O68	O	1.656828	0.682305	1.061286
H69	H	1.124322	0.098947	0.616806
H70	H	1.624322	0.598947	1.116806
H71	H	1.094827	0.180709	0.168254
H72	H	1.594827	0.680709	0.668254
H73	H	0.933388	0.176569	0.595971
H74	H	1.433388	0.676569	1.095971
O75	O	1.723575	-0.410230	0.434986
O76	O	2.223575	0.089770	0.934986
H77	H	1.728866	-0.309115	0.436336
H78	H	2.228866	0.190885	0.936336
H79	H	1.634659	0.030017	0.773445
H80	H	2.134659	0.530017	1.273445
H81	H	1.633613	-0.210859	0.412290
H82	H	2.133613	0.289141	0.912290
H83	H	1.634676	0.030018	1.051616
H84	H	2.134676	0.530018	1.551616
O85	O	1.376002	0.348921	1.006633
O86	O	1.876002	0.848921	1.506633
H87	H	1.387191	0.335177	1.128959
H88	H	1.887191	0.835177	1.628959
