data_functionalizedCrystal
_audit_creation_method	'MofGen! by Chris Wilmer'
_symmetry_space_group_name_H-M	'P1'
_symmetry_Int_Tables_number	1
_symmetry_cell_setting	triclinic
loop_
_symmetry_equiv_pos_as_xyz
  x,y,z
_cell_length_a	14.044191
_cell_length_b	23.532357
_cell_length_c	13.101039
_cell_angle_alpha	93.334957
_cell_angle_beta	86.337551
_cell_angle_gamma	88.010034
loop_
_atom_site_label
_atom_site_type_symbol
_atom_site_fract_x
_atom_site_fract_y
_atom_site_fract_z
O1	O	1.261616	0.134378	-0.085188
O2	O	1.511616	0.384378	0.164812
O3	O	1.761616	0.634378	0.414812
O4	O	2.011616	0.884378	0.664812
O5	O	0.985695	0.129421	-0.085200
O6	O	1.235695	0.379421	0.164800
O7	O	1.485695	0.629421	0.414800
O8	O	1.735695	0.879421	0.664800
O9	O	1.131999	0.049419	-0.085173
O10	O	1.381999	0.299419	0.164827
O11	O	1.631999	0.549419	0.414827
O12	O	1.881999	0.799419	0.664827
O13	O	1.115312	0.214380	-0.085215
O14	O	1.365312	0.464380	0.164785
O15	O	1.615312	0.714380	0.414785
O16	O	1.865312	0.964380	0.664785
O17	O	1.121502	0.055170	0.085255
O18	O	1.371502	0.305170	0.335255
O19	O	1.621502	0.555170	0.585255
O20	O	1.871502	0.805170	0.835255
O21	O	0.975198	0.135172	0.085228
O22	O	1.225198	0.385172	0.335228
O23	O	1.475198	0.635172	0.585228
O24	O	1.725198	0.885172	0.835228
O25	O	1.251119	0.140129	0.085240
O26	O	1.501119	0.390129	0.335240
O27	O	1.751119	0.640129	0.585240
O28	O	2.001119	0.890129	0.835240
Zn29	Zn	1.111492	0.138563	0.112293
Zn30	Zn	1.361492	0.388563	0.362293
Zn31	Zn	1.611492	0.638563	0.612293
Zn32	Zn	1.861492	0.888563	0.862293
Zn33	Zn	1.125322	0.130987	-0.112253
Zn34	Zn	1.375322	0.380987	0.137747
Zn35	Zn	1.625322	0.630987	0.387747
Zn36	Zn	1.875322	0.880987	0.637747
O37	O	1.104815	0.220131	0.085212
O38	O	1.354815	0.470131	0.335212
O39	O	1.604815	0.720131	0.585212
O40	O	1.854815	0.970131	0.835212
C41	C	0.945153	0.130128	0.000013
C42	C	1.195153	0.380128	0.250013
C43	C	1.445153	0.630128	0.500013
C44	C	1.695153	0.880128	0.750013
C45	C	0.839990	0.123661	0.000009
C46	C	1.089990	0.373661	0.250009
C47	C	1.339990	0.623661	0.500009
C48	C	1.589990	0.873661	0.750009
C49	C	0.589373	0.157706	0.000010
C50	C	0.839373	0.407706	0.250010
C51	C	1.089373	0.657706	0.500010
C52	C	1.339373	0.907706	0.750010
C53	C	0.647447	0.111846	0.000020
C54	C	0.897447	0.361846	0.250020
C55	C	1.147447	0.611846	0.500020
C56	C	1.397447	0.861846	0.750020
C57	C	0.754588	0.118421	0.000014
C58	C	1.004588	0.368421	0.250014
C59	C	1.254588	0.618421	0.500014
C60	C	1.504588	0.868421	0.750014
C61	C	0.482222	0.151132	0.000017
C62	C	0.732222	0.401132	0.250017
C63	C	0.982222	0.651132	0.500017
C64	C	1.232222	0.901132	0.750017
C65	C	1.126333	0.031055	0.000045
C66	C	1.376333	0.281055	0.250045
C67	C	1.626333	0.531055	0.500045
C68	C	1.876333	0.781055	0.750045
C69	C	1.125077	-0.032231	0.000054
C70	C	1.375077	0.217769	0.250054
C71	C	1.625077	0.467769	0.500054
C72	C	1.875077	0.717769	0.750054
C73	C	1.122923	-0.427806	-0.092902
C74	C	1.372923	-0.177806	0.157098
C75	C	1.622923	0.072194	0.407098
C76	C	1.872923	0.322194	0.657098
C77	C	1.121730	-0.487270	-0.092908
C78	C	1.371730	-0.237270	0.157092
C79	C	1.621730	0.012730	0.407092
C80	C	1.871730	0.262730	0.657092
O81	O	1.125947	-0.520688	-0.171916
O82	O	1.375947	-0.270688	0.078084
O83	O	1.625947	-0.020688	0.328084
O84	O	1.875947	0.229312	0.578084
N85	N	1.115417	-0.513879	-0.000009
N86	N	1.365417	-0.263879	0.249991
N87	N	1.615417	-0.013879	0.499991
N88	N	1.865417	0.236121	0.749991
C89	C	1.110286	-0.481020	0.092902
C90	C	1.360286	-0.231020	0.342902
C91	C	1.610286	0.018980	0.592902
C92	C	1.860286	0.268980	0.842902
O93	O	1.104805	-0.509113	0.171919
O94	O	1.354805	-0.259113	0.421919
O95	O	1.604805	-0.009113	0.671919
O96	O	1.854805	0.240887	0.921919
C97	C	1.111472	-0.421556	0.092907
C98	C	1.361472	-0.171556	0.342907
C99	C	1.611472	0.078444	0.592907
C100	C	1.861472	0.328444	0.842907
C101	C	1.117795	-0.394951	0.000002
C102	C	1.367795	-0.144951	0.250002
C103	C	1.617795	0.105049	0.500002
C104	C	1.867795	0.355049	0.750002
C105	C	1.129245	-0.401200	-0.185799
C106	C	1.379245	-0.151200	0.064201
C107	C	1.629245	0.098800	0.314201
C108	C	1.879245	0.348800	0.564201
C109	C	1.130440	-0.341740	-0.185793
C110	C	1.380440	-0.091740	0.064207
C111	C	1.630440	0.158260	0.314207
C112	C	1.880440	0.408260	0.564207
C113	C	1.125312	-0.308885	-0.092889
C114	C	1.375312	-0.058885	0.157111
C115	C	1.625312	0.191115	0.407111
C116	C	1.875312	0.441115	0.657111
C117	C	1.118990	-0.335491	0.000008
C118	C	1.368990	-0.085491	0.250008
C119	C	1.618990	0.164509	0.500008
C120	C	1.868990	0.414509	0.750008
C121	C	1.106334	-0.388698	0.185817
C122	C	1.356334	-0.138698	0.435817
C123	C	1.606334	0.111302	0.685817
C124	C	1.856334	0.361302	0.935817
C125	C	1.107520	-0.329231	0.185814
C126	C	1.357520	-0.079231	0.435814
C127	C	1.607520	0.170769	0.685814
C128	C	1.857520	0.420769	0.935814
C129	C	1.113844	-0.302626	0.092909
C130	C	1.363844	-0.052626	0.342909
C131	C	1.613844	0.197374	0.592909
C132	C	1.863844	0.447374	0.842909
C133	C	1.115057	-0.243176	0.092918
C134	C	1.365057	0.006824	0.342918
C135	C	1.615057	0.256824	0.592918
C136	C	1.865057	0.506824	0.842918
N137	N	1.121370	-0.216567	0.000019
N138	N	1.371370	0.033433	0.250019
N139	N	1.621370	0.283433	0.500019
N140	N	1.871370	0.533433	0.750019
C141	C	1.126498	-0.249422	-0.092884
C142	C	1.376498	0.000578	0.157116
C143	C	1.626498	0.250578	0.407116
C144	C	1.876498	0.500578	0.657116
C145	C	1.107794	-0.605897	0.092885
C146	C	1.357794	-0.355897	0.342885
C147	C	1.607794	-0.105897	0.592885
C148	C	1.857794	0.144103	0.842885
C149	C	1.106615	-0.665360	0.092881
C150	C	1.356615	-0.415360	0.342881
C151	C	1.606615	-0.165360	0.592881
C152	C	1.856615	0.084640	0.842881
C153	C	1.118057	-0.671606	-0.092929
C154	C	1.368057	-0.421606	0.157071
C155	C	1.618057	-0.171606	0.407071
C156	C	1.868057	0.078394	0.657071
C157	C	1.119243	-0.612142	-0.092924
C158	C	1.369243	-0.362142	0.157076
C159	C	1.619243	-0.112142	0.407076
C160	C	1.869243	0.137858	0.657076
C161	C	1.114107	-0.579288	-0.000014
C162	C	1.364107	-0.329288	0.249986
C163	C	1.614107	-0.079288	0.499986
C164	C	1.864107	0.170712	0.749986
C165	C	1.129007	-0.124551	-0.092864
C166	C	1.379007	0.125449	0.157136
C167	C	1.629007	0.375449	0.407136
C168	C	1.879007	0.625449	0.657136
C169	C	1.130205	-0.065086	-0.092850
C170	C	1.380205	0.184914	0.157150
C171	C	1.630205	0.434914	0.407150
C172	C	1.880205	0.684914	0.657150
C173	C	1.118757	-0.058844	0.092960
C174	C	1.368757	0.191156	0.342960
C175	C	1.618757	0.441156	0.592960
C176	C	1.868757	0.691156	0.842960
C177	C	1.117564	-0.118305	0.092946
C178	C	1.367564	0.131695	0.342946
C179	C	1.617564	0.381695	0.592946
C180	C	1.867564	0.631695	0.842946
C181	C	1.122686	-0.151157	0.000026
C182	C	1.372686	0.098843	0.250026
C183	C	1.622686	0.348843	0.500026
C184	C	1.872686	0.598843	0.750026
O185	O	1.110839	-0.209722	0.171886
O186	O	1.360839	0.040278	0.421886
O187	O	1.610839	0.290278	0.671886
O188	O	1.860839	0.540278	0.921886
O189	O	1.131965	-0.221321	-0.171888
O190	O	1.381965	0.028679	0.078112
O191	O	1.631965	0.278679	0.328112
O192	O	1.881965	0.528679	0.578112
C193	C	1.291661	0.139422	0.000025
C194	C	1.541661	0.389422	0.250025
C195	C	1.791661	0.639422	0.500025
C196	C	2.041661	0.889422	0.750025
C197	C	1.396824	0.145889	0.000022
C198	C	1.646824	0.395889	0.250022
C199	C	1.896824	0.645889	0.500022
C200	C	2.146824	0.895889	0.750022
C201	C	1.110481	0.238495	-0.000007
C202	C	1.360481	0.488495	0.249993
C203	C	1.610481	0.738495	0.499993
C204	C	1.860481	0.988495	0.749993
C205	C	1.111737	0.301781	-0.000023
C206	C	1.361737	0.551781	0.249977
C207	C	1.611737	0.801781	0.499977
C208	C	1.861737	1.051781	0.749977
N209	N	1.102060	0.143734	0.265540
N210	N	1.352060	0.393734	0.515540
N211	N	1.602060	0.643734	0.765540
N212	N	1.852060	0.893734	1.015540
N213	N	1.134762	0.125812	-0.265500
N214	N	1.384762	0.375812	-0.015500
N215	N	1.634762	0.625812	0.234500
N216	N	1.884762	0.875812	0.484500
C217	C	1.089227	0.150774	0.474580
C218	C	1.339227	0.400774	0.724580
C219	C	1.589227	0.650774	0.974580
C220	C	1.839227	0.900774	1.224580
C221	C	1.147592	0.118773	0.525466
C222	C	1.397592	0.368773	0.775466
C223	C	1.647592	0.618773	1.025466
C224	C	1.897592	0.868773	1.275466
C225	C	1.140451	0.122691	0.641784
C226	C	1.390451	0.372691	0.891784
C227	C	1.640451	0.622691	1.141784
C228	C	1.890451	0.872691	1.391784
C229	C	1.096366	0.146858	0.358252
C230	C	1.346366	0.396858	0.608252
C231	C	1.596366	0.646858	0.858252
C232	C	1.846366	0.896858	1.108252
H233	H	1.133173	-0.151293	-0.168529
H234	H	1.383173	0.098707	0.081471
H235	H	1.633173	0.348707	0.331471
H236	H	1.883173	0.598707	0.581471
H237	H	1.033901	0.181111	0.518367
H238	H	1.283901	0.431111	0.768367
H239	H	1.533901	0.681111	1.018367
H240	H	1.783901	0.931111	1.268367
H241	H	0.616705	0.067643	-0.000040
H242	H	0.866705	0.317643	0.249960
H243	H	1.116705	0.567643	0.499960
H244	H	1.366705	0.817643	0.749960
H245	H	0.620118	0.201903	-0.000004
H246	H	0.870118	0.451903	0.249996
H247	H	1.120118	0.701903	0.499996
H248	H	1.370118	0.951903	0.749996
H249	H	1.135357	-0.043427	-0.168507
H250	H	1.385357	0.206573	0.081493
H251	H	1.635357	0.456573	0.331493
H252	H	1.885357	0.706573	0.581493
H253	H	1.202922	0.088435	0.481675
H254	H	1.452922	0.338435	0.731675
H255	H	1.702922	0.588435	0.981675
H256	H	1.952922	0.838435	1.231675
C257	C	1.137378	-0.312481	-0.287989
C258	C	1.387378	-0.062481	-0.037989
C259	C	1.637378	0.187519	0.212011
C260	C	1.887378	0.437519	0.462011
H261	H	1.140249	-0.340571	-0.343312
H262	H	1.390249	-0.090571	-0.093312
H263	H	1.640249	0.159429	0.156688
H264	H	1.890249	0.409429	0.406688
H265	H	1.193331	-0.290950	-0.291864
H266	H	1.443331	-0.040950	-0.041864
H267	H	1.693331	0.209050	0.208136
H268	H	1.943331	0.459050	0.458136
H269	H	1.082813	-0.287880	-0.291850
H270	H	1.332813	-0.037880	-0.041850
H271	H	1.582813	0.212120	0.208150
H272	H	1.832813	0.462120	0.458150
H273	H	1.124391	-0.590485	-0.168576
H274	H	1.374391	-0.340485	0.081424
H275	H	1.624391	-0.090485	0.331424
H276	H	1.874391	0.159515	0.581424
C277	C	1.134896	-0.437332	-0.288002
C278	C	1.384896	-0.187332	-0.038002
C279	C	1.634896	0.062668	0.211998
C280	C	1.884896	0.312668	0.461998
H281	H	1.138839	-0.412962	-0.343319
H282	H	1.388839	-0.162962	-0.093319
H283	H	1.638839	0.087038	0.156681
H284	H	1.888839	0.337038	0.406681
H285	H	1.079422	-0.459125	-0.291889
H286	H	1.329422	-0.209125	-0.041889
H287	H	1.579422	0.040875	0.208111
H288	H	1.829422	0.290875	0.458111
H289	H	1.189938	-0.462192	-0.291863
H290	H	1.439938	-0.212192	-0.041863
H291	H	1.689938	0.037808	0.208137
H292	H	1.939938	0.287808	0.458137
H293	H	1.122229	-0.698367	-0.168577
H294	H	1.372229	-0.448367	0.081423
H295	H	1.622229	-0.198367	0.331423
H296	H	1.872229	0.051633	0.581423
H297	H	1.101480	-0.687017	0.168534
H298	H	1.351480	-0.437017	0.418534
H299	H	1.601480	-0.187017	0.668534
H300	H	1.851480	0.062983	0.918534
H301	H	1.103614	-0.579151	0.168548
H302	H	1.353614	-0.329151	0.418548
H303	H	1.603614	-0.079151	0.668548
H304	H	1.853614	0.170849	0.918548
H305	H	1.101186	-0.410350	0.261470
H306	H	1.351186	-0.160350	0.511470
H307	H	1.601186	0.089650	0.761470
H308	H	1.851186	0.339650	1.011470
C309	C	1.101871	-0.293092	0.288015
C310	C	1.351871	-0.043092	0.538015
C311	C	1.601871	0.206908	0.788015
C312	C	1.851871	0.456908	1.038015
H313	H	1.103479	-0.253866	0.274720
H314	H	1.353479	-0.003866	0.524720
H315	H	1.603479	0.246134	0.774720
H316	H	1.853479	0.496134	1.024720
H317	H	1.154576	-0.303094	0.326194
H318	H	1.404576	-0.053094	0.576194
H319	H	1.654576	0.196906	0.826194
H320	H	1.904576	0.446906	1.076194
H321	H	1.044060	-0.300016	0.326174
H322	H	1.294060	-0.050016	0.576174
H323	H	1.544060	0.199984	0.826174
H324	H	1.794060	0.449984	1.076174
C325	C	1.110611	-0.147572	0.195138
C326	C	1.360611	0.102428	0.445138
C327	C	1.610611	0.352428	0.695138
C328	C	1.860611	0.602428	0.945138
H329	H	1.107724	-0.119486	0.250468
H330	H	1.357724	0.130514	0.500468
H331	H	1.607724	0.380514	0.750468
H332	H	1.857724	0.630514	1.000468
H333	H	1.165156	-0.172183	0.199008
H334	H	1.415156	0.077817	0.449008
H335	H	1.665156	0.327817	0.699008
H336	H	1.915156	0.577817	0.949008
H337	H	1.054639	-0.169093	0.198990
H338	H	1.304639	0.080907	0.448990
H339	H	1.554639	0.330907	0.698990
H340	H	1.804639	0.580907	0.948990
H341	H	1.114587	-0.032084	0.168600
H342	H	1.364587	0.217916	0.418600
H343	H	1.614587	0.467916	0.668600
H344	H	1.864587	0.717916	0.918600
