data_functionalizedCrystal
_audit_creation_method	'MofGen! by Chris Wilmer'
_symmetry_space_group_name_H-M	'P1'
_symmetry_Int_Tables_number	1
_symmetry_cell_setting	triclinic
loop_
_symmetry_equiv_pos_as_xyz
  x,y,z
_cell_length_a	6.394989
_cell_length_b	10.723023
_cell_length_c	9.198806
_cell_angle_alpha	89.996513
_cell_angle_beta	90.000201
_cell_angle_gamma	94.517371
loop_
_atom_site_label
_atom_site_type_symbol
_atom_site_fract_x
_atom_site_fract_y
_atom_site_fract_z
O1	O	-0.293014	1.660298	-0.120867
O2	O	-0.321064	1.297443	-0.120873
O3	O	-0.003048	1.484021	-0.120871
O4	O	-0.611029	1.473720	-0.120869
O5	O	-0.003047	1.484006	0.120914
O6	O	-0.321063	1.297428	0.120912
O7	O	-0.293013	1.660283	0.120918
Cu8	Cu	-0.307038	1.478854	0.142992
Cu9	Cu	-0.307039	1.478872	-0.142947
O10	O	-0.611028	1.473705	0.120916
C11	C	-0.319022	1.250914	0.000019
C12	C	-0.312916	1.112295	0.000017
C13	C	-0.303883	0.907240	-0.125235
C14	C	-0.310194	1.050510	-0.125236
C15	C	0.074803	1.481977	0.000016
C16	C	0.311127	1.475752	0.000015
C17	C	-0.295054	1.706812	0.000023
C18	C	-0.301161	1.845431	0.000016
N19	N	-0.307036	1.478851	0.344106
N20	N	-0.307024	1.478885	-0.344061
C21	C	-0.172922	1.557183	0.416304
C22	C	-0.172914	1.557202	0.583716
H23	H	-0.312549	1.103663	-0.232467
H24	H	-0.301529	0.854090	-0.232466
O25	O	-0.304223	0.908672	0.128042
C26	C	-0.486732	0.937523	0.353248
C27	C	-0.483497	0.865793	0.208322
H28	H	-0.631683	0.902901	0.418182
H29	H	-0.339750	0.921073	0.418382
H30	H	-0.491218	1.041775	0.330418
H31	H	-0.479084	0.761520	0.231020
H32	H	-0.630470	0.882347	0.143233
O33	O	-0.309744	1.048871	0.127920
C34	C	-0.122629	0.912883	0.280646
C35	C	-0.125937	0.984683	0.135760
H36	H	0.025942	0.860948	0.287018
H37	H	-0.125518	0.981648	0.375006
H38	H	-0.265966	0.842826	0.287132
H39	H	0.017374	1.054741	0.129132
H40	H	-0.123154	0.915844	0.041469
H41	H	-0.058097	1.624228	0.354178
O42	O	-0.443931	1.398700	0.582049
C43	C	-0.563873	1.183792	0.535170
C44	C	-0.408742	1.274460	0.618980
H45	H	-0.535448	1.083324	0.564974
H46	H	-0.731418	1.202840	0.565039
H47	H	-0.539503	1.198098	0.413356
H48	H	-0.432920	1.260206	0.740813
H49	H	-0.241253	1.255389	0.588990
H50	H	-0.058101	1.624271	0.645803
H51	H	-0.421844	1.411797	0.406233
