data_functionalizedCrystal
_audit_creation_method	'MofGen! by Chris Wilmer'
_symmetry_space_group_name_H-M	'P1'
_symmetry_Int_Tables_number	1
_symmetry_cell_setting	triclinic
loop_
_symmetry_equiv_pos_as_xyz
  x,y,z
_cell_length_a	23.532407
_cell_length_b	14.586319
_cell_length_c	16.109301
_cell_angle_alpha	90.005214
_cell_angle_beta	96.844921
_cell_angle_gamma	90.001839
loop_
_atom_site_label
_atom_site_type_symbol
_atom_site_fract_x
_atom_site_fract_y
_atom_site_fract_z
O1	O	0.755631	-0.076129	-0.100925
O2	O	0.589822	-0.076156	-0.115528
O3	O	0.677281	-0.076132	0.012841
O4	O	0.668171	-0.076153	-0.229293
O5	O	0.677275	0.076348	0.012843
O6	O	0.589816	0.076325	-0.115526
O7	O	0.755625	0.076352	-0.100923
Cu8	Cu	0.672720	0.090261	-0.108224
Cu9	Cu	0.672727	-0.090065	-0.108226
O10	O	0.668165	0.076328	-0.229291
C11	C	0.568601	0.000081	-0.115155
C12	C	0.505380	0.000071	-0.114037
N13	N	0.672719	0.217093	-0.108222
N14	N	0.672732	-0.216897	-0.108222
C15	C	0.106531	0.000107	-0.182990
C16	C	0.047127	0.000112	-0.181951
O17	O	0.010619	0.000140	-0.245872
N18	N	0.024220	0.000117	-0.105636
C19	C	0.060719	0.000126	-0.030355
O20	O	0.035780	0.000131	0.034652
C21	C	0.120122	0.000126	-0.031395
C22	C	0.143027	0.000112	-0.107715
C23	C	0.129436	0.000093	-0.259304
C24	C	0.188836	0.000086	-0.260342
C25	C	0.225331	0.000092	-0.185066
C26	C	0.202427	0.000105	-0.108753
C27	C	0.156621	0.000141	0.043886
C28	C	0.216027	0.000143	0.042840
C29	C	0.238932	0.000129	-0.033480
C30	C	0.298322	0.000103	-0.034516
N31	N	0.321229	0.000098	-0.110831
C32	C	0.284734	0.000093	-0.186106
C33	C	-0.064031	0.000125	-0.028178
C34	C	-0.123433	0.000118	-0.027138
C35	C	-0.137021	0.000106	-0.178734
C36	C	-0.077618	0.000107	-0.179774
C37	C	-0.041123	0.000120	-0.104493
C38	C	0.409479	0.000076	-0.188281
C39	C	0.468885	0.000065	-0.189312
C40	C	0.482468	0.000081	-0.037716
C41	C	0.423067	0.000088	-0.036684
C42	C	0.386574	0.000088	-0.111973
O43	O	0.334865	0.000079	0.029371
O44	O	0.309682	0.000099	-0.251102
C45	C	0.776846	0.000113	-0.101295
C46	C	0.840067	0.000117	-0.102414
C47	C	0.676909	0.000108	0.043814
C48	C	0.675803	0.000110	0.136100
C49	C	0.711459	0.452110	-0.051399
C50	C	0.711460	0.548091	-0.051397
C51	C	0.633988	0.548079	-0.165047
C52	C	0.633984	0.452100	-0.165045
C53	C	0.672723	0.404117	-0.108222
C54	C	0.672728	0.596078	-0.108222
C55	C	0.672730	0.700145	-0.108220
C56	C	0.672721	0.300044	-0.108222
C57	C	0.668537	0.000085	-0.260264
C58	C	0.669644	0.000078	-0.352551
C59	C	0.725127	0.000103	0.358760
C60	C	0.724083	0.000095	0.445473
C61	C	0.620315	0.000082	0.424782
C62	C	0.621360	0.000083	0.338072
C63	C	0.673768	0.000098	0.305063
C64	C	0.671679	0.000089	0.478486
C65	C	0.670547	0.000081	0.572503
C66	C	0.674900	0.000105	0.211040
H67	H	0.487530	0.000053	-0.251464
F68	F	-0.147802	0.000112	0.054092
F69	F	0.370648	0.000077	-0.268412
H70	H	0.579534	0.000076	0.294349
F71	F	-0.025195	0.000131	0.051952
H72	H	-0.058974	0.000101	-0.241920
H73	H	0.765906	0.000097	0.489190
H74	H	0.137983	0.000154	0.106033
H75	H	0.245739	0.000154	0.104144
H76	H	0.577647	0.000071	0.451669
H77	H	0.207479	0.000074	-0.322489
F78	F	0.752687	0.599165	0.009082
H79	H	0.602438	0.413022	-0.211316
H80	H	-0.166747	0.000106	-0.240027
F81	F	0.090603	0.000087	-0.339430
F82	F	0.780904	0.000118	0.323633
F83	F	0.592763	0.599152	-0.225521
H84	H	0.512193	0.000083	0.023571
F85	F	0.752686	0.401047	0.009079
F86	F	0.398690	0.000103	0.044543
