data_functionalizedCrystal
_audit_creation_method	'MofGen! by Chris Wilmer'
_symmetry_space_group_name_H-M	'P1'
_symmetry_Int_Tables_number	1
_symmetry_cell_setting	triclinic
loop_
_symmetry_equiv_pos_as_xyz
  x,y,z
_cell_length_a	15.944545
_cell_length_b	15.944551
_cell_length_c	9.730217
_cell_angle_alpha	89.995798
_cell_angle_beta	90.001375
_cell_angle_gamma	83.497455
loop_
_atom_site_label
_atom_site_type_symbol
_atom_site_fract_x
_atom_site_fract_y
_atom_site_fract_z
O1	O	1.114524	0.108306	-0.114204
O2	O	1.614524	0.608306	0.385796
O3	O	0.869973	0.121667	-0.114227
O4	O	1.369973	0.621667	0.385773
O5	O	0.998927	-0.007289	-0.114202
O6	O	1.498927	0.492711	0.385798
O7	O	0.985571	0.237261	-0.114228
O8	O	1.485571	0.737261	0.385772
O9	O	0.998923	-0.007290	0.114378
O10	O	1.498923	0.492710	0.614378
O11	O	0.869970	0.121666	0.114353
O12	O	1.369970	0.621666	0.614353
O13	O	1.114520	0.108304	0.114376
O14	O	1.614520	0.608304	0.614376
Zn15	Zn	0.992244	0.114985	0.150657
Zn16	Zn	1.492244	0.614985	0.650657
Zn17	Zn	0.992249	0.114987	-0.150507
Zn18	Zn	1.492249	0.614987	0.349493
O19	O	0.985567	0.237260	0.114352
O20	O	1.485567	0.737260	0.614352
C21	C	0.838677	0.121113	0.000061
C22	C	1.338677	0.621113	0.500061
C23	C	0.745431	0.119453	0.000052
C24	C	1.245431	0.619453	0.500052
C25	C	0.474798	0.034559	0.000076
C26	C	0.974798	0.534559	0.500076
C27	C	0.525378	0.075487	0.112777
C28	C	1.025378	0.575487	0.612777
C29	C	0.409787	0.113532	0.000077
C30	C	0.909787	0.613532	0.500077
C31	C	0.525363	0.075510	-0.112585
C32	C	1.025363	0.575510	0.387415
C33	C	0.574701	0.116437	0.000062
C34	C	1.074701	0.616437	0.500062
C35	C	0.459139	0.154439	0.112871
C36	C	0.959139	0.654439	0.612871
C37	C	0.459120	0.154450	-0.112593
C38	C	0.959120	0.654450	0.387407
C39	C	0.509667	0.195436	0.000136
C40	C	1.009667	0.695436	0.500136
C41	C	0.314785	0.111856	0.000086
C42	C	0.814785	0.611856	0.500086
C43	C	0.669700	0.118119	0.000063
C44	C	1.169700	0.618119	0.500063
C45	C	0.998370	-0.038583	0.000088
C46	C	1.498370	0.461417	0.500088
C47	C	0.996708	-0.131829	0.000089
C48	C	1.496708	0.368171	0.500089
C49	C	0.912803	-0.346684	0.000062
C50	C	1.412803	0.153316	0.500062
C51	C	0.951764	-0.407703	0.112769
C52	C	1.451764	0.092297	0.612769
C53	C	0.993701	-0.302555	0.000078
C54	C	1.493701	0.197445	0.500078
C55	C	0.951787	-0.407685	-0.112593
C56	C	1.451787	0.092315	0.387407
C57	C	0.990790	-0.467468	0.000061
C58	C	1.490790	0.032532	0.500061
C59	C	1.032684	-0.362345	0.112878
C60	C	1.532684	0.137655	0.612878
C61	C	1.032695	-0.362321	-0.112585
C62	C	1.532695	0.137679	0.387415
C63	C	1.071715	-0.423322	0.000150
C64	C	1.571715	0.076678	0.500150
C65	C	0.995375	-0.207553	0.000088
C66	C	1.495375	0.292447	0.500088
C67	C	0.989122	-0.562469	0.000060
C68	C	1.489122	-0.062469	0.500060
C69	C	1.145816	0.108859	0.000086
C70	C	1.645816	0.608859	0.500086
C71	C	1.239062	0.110519	0.000085
C72	C	1.739062	0.610519	0.500085
C73	C	0.986123	0.268555	0.000059
C74	C	1.486123	0.768555	0.500059
C75	C	0.987785	0.361801	0.000049
C76	C	1.487785	0.861801	0.500049
N77	N	0.992247	0.114983	0.356193
N78	N	1.492247	0.614983	0.856193
N79	N	0.992253	0.114981	-0.356044
N80	N	1.492253	0.614981	0.143956
C81	C	1.106481	0.000826	0.356206
C82	C	1.606481	0.500826	0.856206
C83	C	1.163604	-0.056250	0.428151
C84	C	1.663604	0.443750	0.928151
C85	C	1.163613	-0.056251	0.572031
C86	C	1.663613	0.443749	1.072031
C87	C	1.106490	0.000829	0.643968
C88	C	1.606490	0.500829	1.143968
C89	C	1.049368	0.057906	0.572022
C90	C	1.549368	0.557906	1.072022
C91	C	1.049367	0.057902	0.428139
C92	C	1.549367	0.557902	0.928139
C93	C	0.935130	0.172058	0.572010
C94	C	1.435130	0.672058	1.072010
C95	C	0.935125	0.172064	0.428130
C96	C	1.435125	0.672064	0.928130
C97	C	0.878008	0.229138	0.643947
C98	C	1.378008	0.729138	1.143947
C99	C	0.820888	0.286220	0.572001
C100	C	1.320888	0.786220	1.072001
C101	C	0.820883	0.286219	0.428113
C102	C	1.320883	0.786219	0.928113
C103	C	0.878002	0.229140	0.356184
C104	C	1.378002	0.729140	0.856184
H105	H	0.430175	0.187774	-0.207883
H106	H	0.930175	0.687774	0.292117
H107	H	0.554282	0.042144	-0.207859
H108	H	1.054282	0.542144	0.292141
H109	H	1.138922	-0.456483	0.000220
H110	H	1.638922	0.043517	0.500220
Br111	Br	1.089681	-0.328768	-0.271399
Br112	Br	1.589681	0.171232	0.228601
H113	H	0.917546	-0.427811	0.208048
H114	H	1.417546	0.072189	0.708048
Br115	Br	0.573592	0.019902	0.271600
Br116	Br	1.073592	0.519902	0.771600
Br117	Br	0.743347	0.363677	0.330485
Br118	Br	1.243347	0.863677	0.830485
H119	H	1.210124	-0.102730	0.630610
H120	H	1.710124	0.397270	1.130610
Br121	Br	0.894736	-0.441172	-0.271393
Br122	Br	1.394736	0.058828	0.228607
Br123	Br	0.411125	0.209988	0.271849
Br124	Br	0.911125	0.709988	0.771849
Br125	Br	0.800886	-0.291168	0.000225
Br126	Br	1.300886	0.208832	0.500225
H127	H	1.106487	0.000828	0.239051
H128	H	1.606487	0.500828	0.739051
H129	H	1.066869	-0.342356	0.208268
H130	H	1.566869	0.157644	0.708268
Br131	Br	0.448705	-0.078797	0.000261
Br132	Br	0.948705	0.421203	0.500261
Br133	Br	1.241119	-0.133719	0.330523
Br134	Br	1.741119	0.366281	0.830523
Br135	Br	0.535486	0.308882	0.000219
Br136	Br	1.035486	0.808882	0.500219
H137	H	1.106494	0.000818	0.761123
H138	H	1.606494	0.500818	1.261123
H139	H	0.878014	0.229132	0.761102
H140	H	1.378014	0.729132	1.261102
H141	H	0.774380	0.332687	0.630581
H142	H	1.274380	0.832687	1.130581
H143	H	0.878005	0.229137	0.239030
H144	H	1.378005	0.729137	0.739030
