data_functionalizedCrystal
_audit_creation_method	'MofGen! by Chris Wilmer'
_symmetry_space_group_name_H-M	'P1'
_symmetry_Int_Tables_number	1
_symmetry_cell_setting	triclinic
loop_
_symmetry_equiv_pos_as_xyz
  x,y,z
_cell_length_a	10.489741
_cell_length_b	10.489741
_cell_length_c	9.565339
_cell_angle_alpha	89.999484
_cell_angle_beta	90.000900
_cell_angle_gamma	84.539174
loop_
_atom_site_label
_atom_site_type_symbol
_atom_site_fract_x
_atom_site_fract_y
_atom_site_fract_z
O1	O	-1.694053	-0.179959	-0.116173
O2	O	-1.322857	-0.196852	-0.116194
O3	O	-1.516901	-0.002807	-0.116175
O4	O	-1.500009	-0.374003	-0.116192
O5	O	-1.516886	-0.002819	0.116345
O6	O	-1.322842	-0.196864	0.116326
O7	O	-1.694038	-0.179971	0.116347
Zn8	Zn	-1.508437	-0.188419	0.153254
Zn9	Zn	-1.508458	-0.188403	-0.153101
O10	O	-1.499993	-0.374015	0.116328
C11	C	-1.275318	-0.195582	0.000063
C12	C	-1.133688	-0.191765	0.000055
C13	C	-1.515618	0.044718	0.000084
C14	C	-1.511801	0.186348	0.000082
C15	C	-1.741577	-0.181241	0.000087
C16	C	-1.883206	-0.185058	0.000086
C17	C	-1.065548	-0.068300	0.000074
C18	C	-0.973429	-0.126617	-0.114571
C19	C	-0.973448	-0.126659	0.114676
C20	C	-1.043435	-0.250133	-0.114684
C21	C	-1.043463	-0.250157	0.114665
C22	C	-0.951371	-0.308564	-0.000007
C23	C	-1.501277	-0.421541	0.000066
C24	C	-1.505094	-0.563170	0.000059
N25	N	-1.508433	-0.188429	0.362334
C26	C	-1.388336	0.254488	0.000064
C27	C	-1.446652	0.346604	0.114712
C28	C	-1.446696	0.346591	-0.114534
C29	C	-1.570168	0.276599	0.114824
C30	C	-1.570195	0.276576	-0.114525
C31	C	-1.628600	0.368665	0.000150
N32	N	-1.508472	-0.188383	-0.362180
C33	C	-1.418666	-0.278138	0.453528
C34	C	-1.534163	-0.303949	0.546712
C35	C	-1.392986	-0.162629	0.546704
C36	C	-1.623988	-0.214298	0.453466
C37	C	-1.482735	-0.072928	0.453451
C38	C	-1.598314	-0.098690	0.546593
H39	H	-0.942421	-0.074372	-0.211491
C40	C	-1.459185	0.471979	-0.324955
C41	C	-1.376163	0.388424	-0.245382
H42	H	-1.415630	0.497806	-0.405724
H43	H	-1.531245	0.429621	-0.352507
H44	H	-1.486969	0.545189	-0.270602
H45	H	-1.348387	0.315209	-0.299732
H46	H	-1.304081	0.430781	-0.217832
H47	H	-1.730204	0.418089	0.000220
C48	C	-1.459163	0.472038	0.325096
C49	C	-1.376128	0.388476	0.245549
H50	H	-1.415618	0.497877	0.405868
H51	H	-1.486947	0.545227	0.270733
H52	H	-1.531227	0.429669	0.352652
H53	H	-1.304067	0.430848	0.217984
H54	H	-1.348324	0.315274	0.299922
C55	C	-0.989811	0.069678	0.245288
C56	C	-0.931619	-0.056122	0.245524
H57	H	-0.963994	0.113225	0.326068
H58	H	-0.964666	0.112703	0.163889
H59	H	-1.080241	0.068418	0.245772
H60	H	-0.841189	-0.054862	0.245030
H61	H	-0.956757	-0.099158	0.326945
H62	H	-1.342823	-0.354073	0.412665
H63	H	-1.074269	-0.302328	-0.211717
H64	H	-1.622398	0.245536	-0.211451
C65	C	-1.232558	0.111697	-0.119923
C66	C	-1.251301	0.187459	0.000195
H67	H	-1.147957	0.070325	-0.119840
H68	H	-1.292311	0.049119	-0.120800
H69	H	-1.244674	0.164275	-0.200593
H70	H	-1.239193	0.134880	0.080866
H71	H	-1.191529	0.250045	0.001086
C72	C	-1.170785	-0.238259	0.323664
C73	C	-1.085389	-0.320628	0.245503
H74	H	-1.196676	-0.281762	0.404441
H75	H	-1.129819	-0.165307	0.351190
H76	H	-1.243786	-0.211862	0.268373
H77	H	-1.012383	-0.347017	0.300791
H78	H	-1.126354	-0.393603	0.217980
H79	H	-1.555926	-0.401606	0.587676
H80	H	-1.721659	-0.236217	0.412683
C81	C	-1.643501	0.101805	0.244680
C82	C	-1.640614	0.234981	0.245826
H83	H	-1.686982	0.076112	0.325560
H84	H	-1.687075	0.077284	0.163384
H85	H	-1.558400	0.061701	0.244345
H86	H	-1.725716	0.275085	0.246151
H87	H	-1.597043	0.259515	0.327144
H88	H	-0.901947	-0.410168	-0.000074
H89	H	-1.295338	-0.140828	0.587664
H90	H	-1.460936	0.024699	0.412454
C91	C	-1.821683	-0.023553	0.554105
C92	C	-1.700922	0.003752	0.601430
H93	H	-1.885029	0.039683	0.587971
H94	H	-1.822684	-0.023484	0.454813
H95	H	-1.839243	-0.105371	0.587459
H96	H	-1.683358	0.085567	0.568067
H97	H	-1.699919	0.003696	0.700743
H98	H	-1.115238	0.033196	-0.000065
