data_functionalizedCrystal
_audit_creation_method	'MofGen! by Chris Wilmer'
_symmetry_space_group_name_H-M	'P1'
_symmetry_Int_Tables_number	1
_symmetry_cell_setting	triclinic
loop_
_symmetry_equiv_pos_as_xyz
  x,y,z
_cell_length_a	21.295420
_cell_length_b	21.295417
_cell_length_c	16.120297
_cell_angle_alpha	92.867002
_cell_angle_beta	92.878424
_cell_angle_gamma	90.026289
loop_
_atom_site_label
_atom_site_type_symbol
_atom_site_fract_x
_atom_site_fract_y
_atom_site_fract_z
Zn1	Zn	0.944276	-0.268741	-0.471357
Zn2	Zn	1.444276	0.231259	0.028643
Zn3	Zn	0.949526	-0.368672	-0.331935
Zn4	Zn	1.449526	0.131328	0.168065
Zn5	Zn	0.844346	-0.263414	-0.331961
Zn6	Zn	1.344346	0.236586	0.168039
Zn7	Zn	0.838971	-0.373967	-0.471300
Zn8	Zn	1.338971	0.126033	0.028700
O9	O	0.894280	-0.318699	-0.401638
O10	O	1.394280	0.181301	0.098362
O11	O	1.033062	-0.282011	-0.452875
O12	O	1.533062	0.217989	0.047125
O13	O	0.940021	-0.350264	-0.215276
O14	O	1.440021	0.149736	0.284724
O15	O	0.857654	-0.176033	-0.350486
O16	O	1.357654	0.323967	0.149514
O17	O	1.036919	-0.355430	-0.350442
O18	O	1.536919	0.144570	0.149558
O19	O	0.931073	-0.179947	-0.452900
O20	O	1.431073	0.320053	0.047100
O21	O	0.862745	-0.272931	-0.215295
O22	O	1.362745	0.227069	0.284705
O23	O	0.755544	-0.278065	-0.350431
O24	O	1.255544	0.221935	0.149569
O25	O	0.848494	-0.364454	-0.587970
O26	O	1.348494	0.135546	-0.087970
O27	O	0.751595	-0.359288	-0.452803
O28	O	1.251595	0.140712	0.047197
O29	O	0.925861	-0.287145	-0.588011
O30	O	1.425861	0.212855	-0.088011
O31	O	0.934809	-0.457462	-0.350387
O32	O	1.434809	0.042538	0.149613
O33	O	0.853584	-0.461352	-0.452778
O34	O	1.353584	0.038648	0.047222
C35	C	0.730729	-0.318674	-0.401614
C36	C	1.230729	0.181326	0.098386
C37	C	0.660761	-0.318679	-0.401624
C38	C	1.160761	0.181321	0.098376
C39	C	0.159290	-0.280568	-0.455074
C40	C	0.659290	0.219432	0.044926
C41	C	0.225032	-0.280563	-0.455074
C42	C	0.725032	0.219437	0.044926
C43	C	0.259920	-0.318718	-0.401657
C44	C	0.759920	0.181282	0.098343
C45	C	0.229060	-0.356893	-0.348252
C46	C	0.729060	0.143107	0.151748
C47	C	0.163318	-0.356901	-0.348260
C48	C	0.663318	0.143099	0.151740
N49	N	0.365910	-0.320668	-0.328659
N50	N	0.865910	0.179332	0.171341
N51	N	0.428362	-0.320657	-0.328654
N52	N	0.928362	0.179343	0.171346
C53	C	0.457996	-0.318697	-0.401633
C54	C	0.957996	0.181303	0.098367
N55	N	0.422819	-0.316737	-0.474618
N56	N	0.922819	0.183263	0.025382
N57	N	0.360362	-0.316745	-0.474622
N58	N	0.860362	0.183255	0.025378
C59	C	0.331206	-0.318714	-0.401644
C60	C	0.831206	0.181286	0.098356
C61	C	0.560134	-0.280523	-0.455039
C62	C	1.060134	0.219477	0.044961
C63	C	0.625877	-0.280523	-0.455040
C64	C	1.125877	0.219477	0.044960
C65	C	0.629904	-0.356848	-0.348211
C66	C	1.129904	0.143152	0.151789
C67	C	0.564162	-0.356852	-0.348217
C68	C	1.064162	0.143148	0.151783
C69	C	0.529280	-0.318686	-0.401630
C70	C	1.029280	0.181314	0.098370
C71	C	0.894199	-0.482248	-0.401592
C72	C	1.394199	0.017752	0.098408
C73	C	0.894221	-0.552217	-0.401600
C74	C	1.394221	-0.052217	0.098400
C75	C	0.936548	-0.583039	-0.348340
C76	C	1.436548	-0.083039	0.151660
C77	C	0.936577	-0.648782	-0.348358
C78	C	1.436577	-0.148782	0.151642
C79	C	0.894268	-0.683700	-0.401629
C80	C	1.394268	-0.183700	0.098371
C81	C	0.851938	-0.652870	-0.454899
C82	C	1.351938	-0.152870	0.045101
C83	C	0.851914	-0.587129	-0.454885
C84	C	1.351914	-0.087129	0.045115
N85	N	0.838957	-0.787205	-0.407976
N86	N	1.338957	-0.287205	0.092024
N87	N	0.838982	-0.849657	-0.407985
N88	N	1.338982	-0.349657	0.092015
C89	C	0.894337	-0.881777	-0.401676
C90	C	1.394337	-0.381777	0.098324
N91	N	0.949668	-0.849085	-0.395342
N92	N	1.449668	-0.349085	0.104658
N93	N	0.949644	-0.786627	-0.395329
N94	N	1.449644	-0.286627	0.104671
C95	C	0.894289	-0.754987	-0.401650
C96	C	1.394289	-0.254987	0.098350
C97	C	0.936699	-0.983885	-0.348434
C98	C	1.436699	-0.483885	0.151566
C99	C	0.936728	-1.049630	-0.348458
C100	C	1.436728	-0.549630	0.151542
C101	C	0.852083	-1.053717	-0.454995
C102	C	1.352083	-0.553717	0.045005
C103	C	0.852059	-0.987974	-0.454975
C104	C	1.352059	-0.487974	0.045025
C105	C	0.894366	-0.953062	-0.401690
C106	C	1.394366	-0.453062	0.098310
C107	C	1.058469	-0.318724	-0.401662
C108	C	1.558469	0.181276	0.098338
C109	C	1.128437	-0.318735	-0.401672
C110	C	1.628437	0.181265	0.098328
C111	C	0.885992	-0.326984	-0.619085
C112	C	1.385992	0.173016	-0.119085
C113	C	0.882460	-0.330515	-0.711749
C114	C	1.382460	0.169485	-0.211749
C115	C	0.894378	-0.154511	-0.401702
C116	C	1.394378	0.345489	0.098298
C117	C	0.894419	-0.084544	-0.401730
C118	C	1.394419	0.415456	0.098270
C119	C	0.875989	-0.336948	-0.881405
C120	C	1.375989	0.163052	-0.381405
C121	C	0.912695	-0.300261	-0.922722
C122	C	1.412695	0.199739	-0.422722
C123	C	0.909095	-0.303840	-1.017125
C124	C	1.409095	0.196160	-0.517125
C125	C	0.879589	-0.333369	-0.786994
C126	C	1.379589	0.166631	-0.286994
C127	C	0.902572	-0.310400	-0.185036
C128	C	1.402572	0.189600	0.314964
C129	C	0.906226	-0.306691	-0.092374
C130	C	1.406226	0.193309	0.407626
H131	H	0.257470	-0.387961	-0.304762
H132	H	0.757470	0.112039	0.195238
C133	C	0.530778	-0.398305	-0.290137
C134	C	1.030778	0.101695	0.209863
C135	C	0.575400	-0.431708	-0.243340
C136	C	1.075400	0.068292	0.256660
C137	C	0.544671	-0.469897	-0.189820
C138	C	1.044671	0.030103	0.310180
H139	H	0.503914	-0.427037	-0.321870
H140	H	1.003914	0.072963	0.178130
H141	H	0.506533	-0.372816	-0.253829
H142	H	1.006533	0.127184	0.246171
H143	H	0.599634	-0.457196	-0.279644
H144	H	1.099634	0.042804	0.220356
H145	H	0.602265	-0.402992	-0.211590
H146	H	1.102265	0.097008	0.288410
H147	H	0.520426	-0.444407	-0.153512
H148	H	1.020426	0.055593	0.346488
H149	H	0.517808	-0.498625	-0.221560
H150	H	1.017808	0.001375	0.278440
H151	H	0.574942	-0.492561	-0.158057
H152	H	1.074942	0.007439	0.341943
C153	C	0.121529	-0.239116	-0.513160
C154	C	0.621529	0.260884	-0.013160
C155	C	0.162625	-0.205702	-0.559942
C156	C	0.662625	0.294298	-0.059942
C157	C	0.127861	-0.167517	-0.613468
C158	C	0.627861	0.332483	-0.113468
H159	H	0.097094	-0.210391	-0.481431
H160	H	0.597094	0.289609	0.018569
H161	H	0.094511	-0.264610	-0.549477
H162	H	0.594511	0.235390	-0.049477
H163	H	0.189632	-0.180210	-0.523630
H164	H	0.689632	0.319790	-0.023630
H165	H	0.187061	-0.234411	-0.591688
H166	H	0.687061	0.265589	-0.091688
H167	H	0.100843	-0.193011	-0.649785
H168	H	0.600843	0.306989	-0.149785
H169	H	0.103427	-0.138796	-0.581733
H170	H	0.603427	0.361204	-0.081733
H171	H	0.155739	-0.144845	-0.645222
H172	H	0.655739	0.355155	-0.145222
C173	C	0.258570	-0.239230	-0.513154
C174	C	0.758570	0.260770	-0.013154
C175	C	0.294265	-0.276959	-0.566514
C176	C	0.794265	0.223041	-0.066514
C177	C	0.325161	-0.238905	-0.620033
C178	C	0.825161	0.261095	-0.120033
H179	H	0.285481	-0.210545	-0.481415
H180	H	0.785481	0.289455	0.018585
H181	H	0.228400	-0.216514	-0.545016
H182	H	0.728400	0.283486	-0.045016
H183	H	0.324432	-0.299665	-0.534655
H184	H	0.824432	0.200335	-0.034655
H185	H	0.267369	-0.305643	-0.598271
H186	H	0.767369	0.194357	-0.098271
H187	H	0.294990	-0.216189	-0.651895
H188	H	0.794990	0.283811	-0.151895
H189	H	0.352068	-0.210223	-0.588287
H190	H	0.852068	0.289777	-0.088287
H191	H	0.349378	-0.264500	-0.656249
H192	H	0.849378	0.235500	-0.156249
C193	C	0.982625	-0.682186	-0.290573
C194	C	1.482625	-0.182186	0.209427
C195	C	1.044204	-0.666833	-0.308762
C196	C	1.544204	-0.166833	0.191238
C197	C	1.086635	-0.697588	-0.255539
C198	C	1.586635	-0.197588	0.244461
H199	H	0.976657	-0.726346	-0.298166
H200	H	1.476657	-0.226346	0.201834
H201	H	0.975608	-0.669292	-0.234532
H202	H	1.475608	-0.169292	0.265468
H203	H	1.051218	-0.679730	-0.364789
H204	H	1.551218	-0.179730	0.135211
H205	H	1.050191	-0.622679	-0.301164
H206	H	1.550191	-0.122679	0.198836
H207	H	1.079618	-0.684694	-0.199498
H208	H	1.579618	-0.184694	0.300502
H209	H	1.080662	-0.741746	-0.263136
H210	H	1.580662	-0.241746	0.236864
H211	H	1.128421	-0.687170	-0.267868
H212	H	1.628421	-0.187170	0.232132
C213	C	0.830528	-0.382512	-0.928663
C214	C	1.330528	0.117488	-0.428663
C215	C	0.844982	-0.444010	-0.907533
C216	C	1.344982	0.055990	-0.407533
C217	C	0.803115	-0.486001	-0.951052
C218	C	1.303115	0.013999	-0.451052
H219	H	0.834089	-0.378990	-0.986748
H220	H	1.334089	0.121010	-0.486748
H221	H	0.788758	-0.372807	-0.914418
H222	H	1.288758	0.127193	-0.414418
H223	H	0.886742	-0.453712	-0.921784
H224	H	1.386742	0.046288	-0.421784
H225	H	0.841417	-0.447552	-0.849455
H226	H	1.341417	0.052448	-0.349455
H227	H	0.761345	-0.476296	-0.936807
H228	H	1.261345	0.023704	-0.436807
H229	H	0.806679	-0.482473	-1.009135
H230	H	1.306679	0.017527	-0.509135
H231	H	0.812913	-0.527731	-0.936716
H232	H	1.312913	-0.027731	-0.436716
H233	H	0.138199	-0.387982	-0.304773
H234	H	0.638199	0.112018	0.195227
H235	H	0.531732	-0.249446	-0.498530
H236	H	1.031732	0.250554	0.001470
C237	C	0.958178	-0.254850	-0.875209
C238	C	1.458178	0.245150	-0.375209
C239	C	0.952762	-0.260292	-0.789664
C240	C	1.452762	0.239708	-0.289664
C241	C	0.994651	-0.218474	-0.745865
C242	C	1.494651	0.281526	-0.245865
H243	H	0.948496	-0.213056	-0.889340
H244	H	1.448496	0.286944	-0.389340
H245	H	0.999954	-0.264595	-0.889386
H246	H	1.499954	0.235405	-0.389386
H247	H	0.910996	-0.250543	-0.775492
H248	H	1.410996	0.249457	-0.275492
H249	H	0.962450	-0.302077	-0.775507
H250	H	1.462450	0.197923	-0.275507
H251	H	1.036427	-0.228219	-0.760043
H252	H	1.536427	0.271781	-0.260043
H253	H	0.984965	-0.176683	-0.760003
H254	H	1.484965	0.323317	-0.260003
H255	H	0.990986	-0.222165	-0.687819
H256	H	1.490986	0.277835	-0.187819
H257	H	0.650996	-0.249445	-0.498532
H258	H	1.150996	0.250555	0.001468
H259	H	0.817637	-1.082147	-0.498372
H260	H	1.317637	-0.582147	0.001628
C261	C	0.806025	-0.954619	-0.512824
C262	C	1.306025	-0.454619	-0.012824
C263	C	0.768966	-0.999267	-0.559465
C264	C	1.268966	-0.499267	-0.059465
C265	C	0.726547	-0.968565	-0.612760
C266	C	1.226547	-0.468565	-0.112760
H267	H	0.828613	-0.930325	-0.549246
H268	H	1.328613	-0.430325	-0.049246
H269	H	0.779791	-0.927806	-0.480909
H270	H	1.279791	-0.427806	0.019091
H271	H	0.795197	-1.026069	-0.591378
H272	H	1.295197	-0.526069	-0.091378
H273	H	0.746365	-1.023563	-0.523065
H274	H	1.246365	-0.523563	-0.023065
H275	H	0.700312	-0.941752	-0.580845
H276	H	1.200312	-0.441752	-0.080845
H277	H	0.749140	-0.944272	-0.649177
H278	H	1.249140	-0.444272	-0.149177
H279	H	0.701393	-0.998853	-0.644407
H280	H	1.201393	-0.498853	-0.144407
H281	H	0.658309	-0.387920	-0.304725
H282	H	1.158309	0.112080	0.195275
C283	C	0.982457	-0.545213	-0.290362
C284	C	1.482457	-0.045213	0.209638
C285	C	0.971962	-0.558113	-0.207864
C286	C	1.471962	-0.058113	0.292136
C287	C	1.014248	-0.523286	-0.154435
C288	C	1.514248	-0.023286	0.345565
H289	H	0.976429	-0.501630	-0.297865
H290	H	1.476429	-0.001630	0.202135
H291	H	1.024293	-0.556431	-0.302569
H292	H	1.524293	-0.056431	0.197431
H293	H	0.930137	-0.546891	-0.195661
H294	H	1.430137	-0.046891	0.304339
H295	H	0.977994	-0.601690	-0.200335
H296	H	1.477994	-0.101690	0.299665
H297	H	1.056084	-0.534503	-0.166643
H298	H	1.556084	-0.034503	0.333357
H299	H	1.008217	-0.479704	-0.161945
H300	H	1.508217	0.020296	0.338055
H301	H	1.007137	-0.532038	-0.098455
H302	H	1.507137	-0.032038	0.401545
C303	C	0.806028	-0.690888	-0.512645
C304	C	1.306028	-0.190888	-0.012645
C305	C	0.815095	-0.755060	-0.501242
C306	C	1.315095	-0.255060	-0.001242
C307	C	0.772810	-0.790099	-0.554419
C308	C	1.272810	-0.290099	-0.054419
H309	H	0.813027	-0.682301	-0.568702
H310	H	1.313027	-0.182301	-0.068702
H311	H	0.764190	-0.679721	-0.500383
H312	H	1.264190	-0.179721	-0.000383
H313	H	0.856923	-0.766223	-0.513509
H314	H	1.356923	-0.266223	-0.013509
H315	H	0.808091	-0.763666	-0.445195
H316	H	1.308091	-0.263666	0.054805
H317	H	0.730972	-0.778932	-0.542157
H318	H	1.230972	-0.278932	-0.042157
H319	H	0.779812	-0.781506	-0.610473
H320	H	1.279812	-0.281506	-0.110473
H321	H	0.778952	-0.833643	-0.546684
H322	H	1.278952	-0.333643	-0.046684
H323	H	0.817446	-0.562033	-0.498257
H324	H	1.317446	-0.062033	0.001743
H325	H	0.971150	-0.955459	-0.305048
H326	H	1.471150	-0.455459	0.194952
H327	H	0.971200	-1.074724	-0.305089
H328	H	1.471200	-0.574724	0.194911
