data_functionalizedCrystal
_audit_creation_method	'MofGen! by Chris Wilmer'
_symmetry_space_group_name_H-M	'P1'
_symmetry_Int_Tables_number	1
_symmetry_cell_setting	triclinic
loop_
_symmetry_equiv_pos_as_xyz
  x,y,z
_cell_length_a	33.428889
_cell_length_b	33.428139
_cell_length_c	33.424847
_cell_angle_alpha	60.004234
_cell_angle_beta	60.008465
_cell_angle_gamma	59.994972
loop_
_atom_site_label
_atom_site_type_symbol
_atom_site_fract_x
_atom_site_fract_y
_atom_site_fract_z
O1	O	0.055565	-0.584504	0.488714
O2	O	0.555565	-0.084504	0.988714
O3	O	0.020982	-0.455083	0.393778
O4	O	0.520982	0.044917	0.893778
O5	O	0.102943	-0.536959	0.393689
O6	O	0.602943	-0.036959	0.893689
O7	O	-0.026396	-0.502628	0.488803
O8	O	0.473604	-0.002628	0.988803
O9	O	0.130140	-0.509767	0.420792
O10	O	0.630140	-0.009767	0.920792
O11	O	0.048179	-0.427891	0.420881
O12	O	0.548179	0.072109	0.920881
O13	O	0.082762	-0.557312	0.515817
O14	O	0.582762	-0.057312	1.015817
Cu15	Cu	0.067954	-0.490119	0.470823
Cu16	Cu	0.567954	0.009881	0.970823
Cu17	Cu	0.035790	-0.522276	0.438771
Cu18	Cu	0.535790	-0.022276	0.938771
O19	O	0.000801	-0.475436	0.515906
O20	O	0.500801	0.024564	1.015906
N21	N	0.090577	-0.467504	0.493370
N22	N	0.590577	0.032496	0.993370
N23	N	0.013171	-0.544895	0.416225
N24	N	0.513171	-0.044895	0.916225
C25	C	0.143377	-0.280390	0.546067
C26	C	0.643377	0.219610	1.046067
C27	C	0.143515	-0.414755	0.680369
C28	C	0.643515	0.085245	1.180369
C29	C	0.143392	-0.414735	0.546069
C30	C	0.643392	0.085265	1.046069
C31	C	0.277766	-0.414702	0.545966
C32	C	0.777766	0.085298	1.045966
C33	C	0.158177	-0.324719	0.560828
C34	C	0.658177	0.175281	1.060828
C35	C	0.158255	-0.399967	0.636038
C36	C	0.658255	0.100033	1.136038
C37	C	0.233434	-0.399936	0.560773
C38	C	0.733434	0.100064	1.060773
C39	C	0.158186	-0.399955	0.560829
C40	C	0.658186	0.100045	1.060829
C41	C	0.124540	-0.223964	0.527278
C42	C	0.624540	0.276036	1.027278
C43	C	0.124565	-0.433545	0.527281
C44	C	0.624565	0.066455	1.027281
C45	C	0.177014	-0.381145	0.579617
C46	C	0.677014	0.118855	1.079617
C47	C	0.359814	-0.400540	0.502735
C48	C	0.859814	0.099460	1.002735
C49	C	0.411105	-0.417624	0.485606
C50	C	0.911105	0.082376	0.985606
C51	C	0.411136	-0.500620	0.517255
C52	C	0.911136	-0.000620	1.017255
C53	C	0.359845	-0.483534	0.534385
C54	C	0.859845	0.016466	1.034385
C55	C	0.136887	-0.198305	0.476855
C56	C	0.636887	0.301695	0.976855
C57	C	0.119761	-0.147011	0.459777
C58	C	0.619761	0.352989	0.959777
C59	C	0.077945	-0.147038	0.543547
C60	C	0.577945	0.352962	1.043547
C61	C	0.095072	-0.198332	0.560625
C62	C	0.595072	0.301668	1.060625
C63	C	0.074134	-0.421169	0.539710
C64	C	0.574134	0.078831	1.039710
C65	C	0.057023	-0.438269	0.522625
C66	C	0.557023	0.061731	1.022625
C67	C	0.140770	-0.480120	0.480694
C68	C	0.640770	0.019880	0.980694
C69	C	0.157883	-0.463020	0.497773
C70	C	0.657883	0.036980	0.997773
C71	C	0.074339	-0.421208	0.762475
C72	C	0.574339	0.078792	1.262475
C73	C	0.057288	-0.438323	0.813768
C74	C	0.557288	0.061677	1.313768
C75	C	0.141075	-0.480183	0.813699
C76	C	0.641075	0.019817	1.313699
C77	C	0.158125	-0.463069	0.762404
C78	C	0.658125	0.036931	1.262404
C79	C	0.124756	-0.433580	0.736794
C80	C	0.624756	0.066420	1.236794
C81	C	0.334186	-0.433494	0.527123
C82	C	0.834186	0.066506	1.027123
C83	C	-0.173769	-0.597444	0.363037
C84	C	0.326231	-0.097444	0.863037
C85	C	-0.039302	-0.597595	0.228856
C86	C	0.460698	-0.097595	0.728856
C87	C	-0.039496	-0.597587	0.363300
C88	C	0.460504	-0.097587	0.863300
C89	C	-0.039512	-0.731889	0.363237
C90	C	0.460488	-0.231889	0.863237
C91	C	-0.129442	-0.612265	0.348329
C92	C	0.370558	-0.112265	0.848329
C93	C	-0.054138	-0.612351	0.273187
C94	C	0.445862	-0.112351	0.773187
C95	C	-0.054257	-0.687554	0.348440
C96	C	0.445743	-0.187554	0.848440
C97	C	-0.054247	-0.612346	0.348477
C98	C	0.445753	-0.112346	0.848477
C99	C	-0.230191	-0.578579	0.381758
C100	C	0.269809	-0.078579	0.881758
C101	C	-0.020722	-0.578803	0.382168
C102	C	0.479278	-0.078803	0.882168
C103	C	-0.073020	-0.631130	0.329609
C104	C	0.426980	-0.131130	0.829609
C105	C	-0.053713	-0.813916	0.406386
C106	C	0.446287	-0.313916	0.906386
C107	C	-0.036654	-0.865210	0.423504
C108	C	0.463346	-0.365210	0.923504
C109	C	0.046338	-0.865293	0.391984
C110	C	0.546338	-0.365293	0.891984
C111	C	0.029278	-0.813999	0.374865
C112	C	0.529278	-0.313999	0.874865
C113	C	-0.255900	-0.590938	0.432169
C114	C	0.244100	-0.090938	0.932169
C115	C	-0.307191	-0.573786	0.449185
C116	C	0.192809	-0.073786	0.949185
C117	C	-0.307060	-0.531922	0.365377
C118	C	0.192940	-0.031922	0.865377
C119	C	-0.255769	-0.549074	0.348360
C120	C	0.244231	-0.049074	0.848360
C121	C	-0.033081	-0.528377	0.369764
C122	C	0.466919	-0.028377	0.869764
C123	C	-0.016014	-0.511306	0.386922
C124	C	0.483986	-0.011306	0.886922
C125	C	0.025770	-0.595083	0.428877
C126	C	0.525770	-0.095083	0.928877
C127	C	0.008703	-0.612156	0.411725
C128	C	0.508703	-0.112156	0.911725
C129	C	-0.032755	-0.528393	0.146761
C130	C	0.467245	-0.028393	0.646761
C131	C	-0.015585	-0.511324	0.095468
C132	C	0.484415	-0.011324	0.595468
C133	C	0.026262	-0.595106	0.095516
C134	C	0.526262	-0.095106	0.595516
C135	C	0.009094	-0.612174	0.146811
C136	C	0.509094	-0.112174	0.646811
C137	C	-0.020417	-0.578816	0.172432
C138	C	0.479583	-0.078816	0.672432
C139	C	-0.020748	-0.788312	0.382068
C140	C	0.479252	-0.288312	0.882068
N141	N	0.436037	-0.467415	0.493101
N142	N	0.936037	0.032585	0.993101
O143	O	0.592642	-0.471896	0.376066
O144	O	1.092642	0.028104	0.876066
O145	O	0.592838	-0.567146	0.505347
O146	O	1.092838	-0.067146	1.005347
O147	O	0.592754	-0.566928	0.423360
O148	O	1.092754	-0.066928	0.923360
O149	O	0.592727	-0.472113	0.458053
O150	O	1.092727	0.027887	0.958053
O151	O	0.511269	-0.539835	0.450606
O152	O	1.011269	-0.039835	0.950606
O153	O	0.511353	-0.540052	0.532594
O154	O	1.011353	-0.040052	1.032594
O155	O	0.511157	-0.444802	0.403312
O156	O	1.011157	0.055198	0.903312
Cu157	Cu	0.503815	-0.489954	0.470441
Cu158	Cu	1.003815	0.010046	0.970441
Cu159	Cu	0.600180	-0.521995	0.438219
Cu160	Cu	1.100180	-0.021995	0.938219
O161	O	0.511242	-0.445020	0.485300
O162	O	1.011242	0.054980	0.985300
N163	N	0.667959	-0.544533	0.415554
N164	N	1.167959	-0.044533	0.915554
N165	N	0.090544	-0.122107	0.493359
N166	N	0.590544	0.377893	0.993359
O167	O	-0.026406	0.034587	0.488773
O168	O	0.473594	0.534587	0.988773
O169	O	0.102877	0.034627	0.393499
O170	O	0.602877	0.534627	0.893499
O171	O	0.020848	0.034591	0.393771
O172	O	0.520848	0.534591	0.893771
O173	O	0.055623	0.034623	0.488500
O174	O	0.555623	0.534623	0.988500
O175	O	0.048051	-0.046899	0.420925
O176	O	0.548051	0.453101	0.920925
O177	O	0.130080	-0.046864	0.420653
O178	O	0.630080	0.453136	0.920653
O179	O	0.000796	-0.046903	0.515927
O180	O	0.500796	0.453097	1.015927
Cu181	Cu	0.067922	-0.054324	0.470769
Cu182	Cu	0.567922	0.445676	0.970769
Cu183	Cu	0.035752	0.042048	0.438656
Cu184	Cu	0.535752	0.542048	0.938656
O185	O	0.082825	-0.046867	0.515655
O186	O	0.582825	0.453133	1.015655
N187	N	0.013123	0.109830	0.416068
N188	N	0.513123	0.609830	0.916068
N189	N	0.090892	-0.467554	0.838649
N190	N	0.590892	0.032446	1.338649
O191	O	0.086330	-0.584488	0.995334
O192	O	0.586330	-0.084488	1.495334
O193	O	-0.008902	-0.455160	0.995379
O194	O	0.491098	0.044840	1.495379
O195	O	-0.008679	-0.537172	0.995355
O196	O	0.491321	-0.037172	1.495355
O197	O	0.086107	-0.502475	0.995358
O198	O	0.586107	-0.002475	1.495358
O199	O	0.018452	-0.509990	0.913868
O200	O	0.518452	-0.009990	1.413868
O201	O	0.018230	-0.427978	0.913891
O202	O	0.518230	0.072022	1.413891
O203	O	0.113461	-0.557306	0.913847
O204	O	0.613461	-0.057306	1.413847
Cu205	Cu	0.068323	-0.490160	0.906429
Cu206	Cu	0.568323	0.009840	1.406429
Cu207	Cu	0.036237	-0.522306	1.002797
Cu208	Cu	0.536237	-0.022306	1.502797
O209	O	0.113239	-0.475293	0.913870
O210	O	0.613239	0.024707	1.413870
N211	N	0.013667	-0.544916	1.070577
N212	N	0.513667	-0.044916	1.570577
C213	C	0.031339	-0.425179	0.394250
C214	C	0.531339	0.074821	0.894250
C215	C	0.132837	-0.526572	0.394139
C216	C	0.632837	-0.026572	0.894139
C217	C	0.072405	-0.587216	0.515344
C218	C	0.572405	-0.087216	1.015344
C219	C	-0.029093	-0.485823	0.515455
C220	C	0.470907	0.014177	1.015455
C221	C	0.552119	-0.566716	0.535258
C222	C	1.052119	-0.066716	1.035258
C223	C	0.552016	-0.566447	0.433726
C224	C	1.052016	-0.066447	0.933726
C225	C	0.551873	-0.445232	0.373402
C226	C	1.051873	0.054768	0.873402
C227	C	0.551980	-0.445502	0.474933
C228	C	1.051980	0.054498	0.974933
C229	C	0.132731	-0.006013	0.393923
C230	C	0.632731	0.493987	0.893923
C231	C	0.031182	-0.006158	0.394293
C232	C	0.531182	0.493842	0.894293
C233	C	-0.029092	-0.006163	0.515469
C234	C	0.470908	0.493837	1.015469
C235	C	0.072491	-0.006119	0.515133
C236	C	0.572491	0.493881	1.015133
C237	C	-0.008451	-0.425276	0.954641
C238	C	0.491549	0.074724	1.454641
C239	C	-0.008170	-0.526833	0.954596
C240	C	0.491830	-0.026833	1.454596
C241	C	0.113010	-0.587190	0.954585
C242	C	0.613010	-0.087190	1.454585
C243	C	0.112735	-0.485627	0.954611
C244	C	0.612735	0.014373	1.454611
H245	H	0.016234	-0.428240	0.834672
H246	H	0.516234	0.071760	1.334672
H247	H	0.552170	-0.596617	0.572390
H248	H	1.052170	-0.096617	1.072390
H249	H	0.142514	-0.478200	0.954606
H250	H	0.642514	0.021800	1.454606
H251	H	0.079796	-0.624394	0.545162
H252	H	0.579796	-0.124394	1.045162
H253	H	0.169783	-0.005775	0.363939
H254	H	0.669783	0.494225	0.863939
H255	H	0.552029	-0.596233	0.426301
H256	H	1.052029	-0.096233	0.926301
H257	H	0.023733	-0.006162	0.364531
H258	H	0.523733	0.493838	0.864531
C259	C	-0.079275	-0.475948	0.555804
C260	C	0.420725	0.024052	1.055804
H261	H	-0.079349	-0.504318	0.584274
H262	H	0.420651	-0.004318	1.084274
H263	H	-0.085236	-0.449237	0.563469
H264	H	0.414764	0.050763	1.063469
H265	H	-0.104201	-0.468206	0.544563
H266	H	0.395799	0.031794	1.044563
H267	H	0.551811	-0.415327	0.336274
H268	H	1.051811	0.084673	0.836274
C269	C	0.551965	-0.405263	0.484958
C270	C	1.051965	0.094737	0.984958
H271	H	0.552003	-0.417240	0.517394
H272	H	1.052003	0.082760	1.017394
H273	H	0.580354	-0.396310	0.462334
H274	H	1.080354	0.103690	0.962334
H275	H	0.523519	-0.377414	0.481340
H276	H	1.023519	0.122586	0.981340
C277	C	-0.079246	-0.006177	0.555877
C278	C	0.420754	0.493823	1.055877
H279	H	-0.079269	-0.006176	0.584311
H280	H	0.420731	0.493824	1.084311
H281	H	-0.104191	0.022232	0.544658
H282	H	0.395809	0.522232	1.044658
H283	H	-0.085215	-0.034607	0.563597
H284	H	0.414785	0.465393	1.063597
C285	C	-0.048842	-0.375102	0.954660
C286	C	0.451158	0.124898	1.454660
H287	H	-0.037010	-0.354515	0.954668
H288	H	0.462990	0.145485	1.454668
H289	H	-0.057757	-0.360438	0.926248
H290	H	0.442243	0.139562	1.426248
H291	H	-0.076677	-0.379399	0.983084
H292	H	0.423323	0.120601	1.483084
C293	C	0.037631	-0.388770	0.734307
C294	C	0.537631	0.111230	1.234307
H295	H	0.005162	-0.383856	0.756950
H296	H	0.505162	0.116144	1.256950
H297	H	0.042538	-0.358020	0.714298
H298	H	0.542538	0.141980	1.214298
H299	H	0.042541	-0.404431	0.714301
H300	H	0.542541	0.095569	1.214301
C301	C	0.082550	-0.006111	0.555340
C302	C	0.582550	0.493889	1.055340
H303	H	0.114994	-0.006102	0.543349
H304	H	0.614994	0.493898	1.043349
H305	H	0.059947	0.022303	0.564270
H306	H	0.559947	0.522303	1.064270
H307	H	0.078922	-0.034536	0.583205
H308	H	0.578922	0.465464	1.083205
H309	H	0.087072	-0.886205	0.386121
H310	H	0.587072	-0.386205	0.886121
H311	H	-0.037935	-0.534246	0.954563
H312	H	0.462065	-0.034246	1.454563
H313	H	0.142910	-0.624330	0.954565
H314	H	0.642910	-0.124330	1.454565
H315	H	0.169984	-0.533889	0.364272
H316	H	0.669984	-0.033889	0.864272
H317	H	0.168250	-0.504186	0.834549
H318	H	0.668250	-0.004186	1.334549
H319	H	0.047002	-0.397168	0.563734
H320	H	0.547002	0.102832	1.063734
C321	C	0.213586	-0.476678	0.734158
C322	C	0.713586	0.023322	1.234158
H323	H	0.231015	-0.496685	0.756759
H324	H	0.731015	0.003315	1.256759
H325	H	0.221985	-0.494076	0.714146
H326	H	0.721985	0.005924	1.214146
H327	H	0.221973	-0.447664	0.714150
H328	H	0.721973	0.052336	1.214150
H329	H	0.015959	-0.428182	0.532734
H330	H	0.515959	0.071818	1.032734
C331	C	0.331589	-0.345495	0.494749
C332	C	0.831589	0.154505	0.994749
H333	H	0.354201	-0.328318	0.477775
H334	H	0.854201	0.171682	0.977775
H335	H	0.311558	-0.333465	0.475974
H336	H	0.811558	0.166535	0.975974
H337	H	0.311602	-0.340744	0.525575
H338	H	0.811602	0.159256	1.025575
C339	C	0.177421	-0.512578	0.448270
C340	C	0.677421	-0.012578	0.948270
H341	H	0.160007	-0.521002	0.439888
H342	H	0.660007	-0.021002	0.939888
H343	H	0.197427	-0.495193	0.419253
H344	H	0.697427	0.004807	0.919253
H345	H	0.197433	-0.541577	0.465682
H346	H	0.697433	-0.041577	0.965682
C347	C	0.213356	-0.476629	0.484101
C348	C	0.713356	0.023371	0.984101
H349	H	0.230747	-0.496635	0.464083
H350	H	0.730747	0.003365	0.964083
H351	H	0.221747	-0.447619	0.466698
H352	H	0.721747	0.052381	0.966698
H353	H	0.221798	-0.494040	0.513091
H354	H	0.721798	0.005960	1.013091
H355	H	0.432025	-0.541365	0.523165
H356	H	0.932025	-0.041365	1.023165
C357	C	0.331656	-0.519785	0.561215
C358	C	0.831656	-0.019785	1.061215
H359	H	0.297434	-0.502446	0.570382
H360	H	0.797434	-0.002446	1.070382
H361	H	0.340047	-0.535999	0.540113
H362	H	0.840047	-0.035999	1.040113
H363	H	0.340093	-0.543272	0.589710
H364	H	0.840093	-0.043272	1.089710
C365	C	0.439301	-0.381377	0.458775
C366	C	0.939301	0.118623	0.958775
H367	H	0.473522	-0.398722	0.449616
H368	H	0.973522	0.101278	0.949616
H369	H	0.430866	-0.357890	0.430282
H370	H	0.930866	0.142110	0.930282
H371	H	0.430914	-0.365164	0.479879
H372	H	0.930914	0.134836	0.979879
C373	C	0.169298	-0.226497	0.440173
C374	C	0.669298	0.273503	0.940173
H375	H	0.174192	-0.203867	0.407695
H376	H	0.674192	0.296133	0.907695
H377	H	0.200056	-0.246499	0.445073
H378	H	0.700056	0.253501	0.945073
H379	H	0.153636	-0.246513	0.445115
H380	H	0.653636	0.253487	0.945115
H381	H	0.129813	-0.126117	0.418717
H382	H	0.629813	0.373883	0.918717
C383	C	0.045534	-0.118840	0.580226
C384	C	0.545534	0.381160	1.080226
H385	H	0.037103	-0.084616	0.562833
H386	H	0.537103	0.415384	1.062833
H387	H	0.016544	-0.127261	0.600257
H388	H	0.516544	0.372739	1.100257
H389	H	0.062963	-0.127243	0.600213
H390	H	0.562963	0.372757	1.100213
C391	C	0.081491	-0.226557	0.616090
C392	C	0.581491	0.273443	1.116090
H393	H	0.095907	-0.260777	0.621487
H394	H	0.595907	0.239223	1.121487
H395	H	0.093299	-0.218149	0.630485
H396	H	0.593299	0.281851	1.130485
H397	H	0.046885	-0.218162	0.630515
H398	H	0.546885	0.281838	1.130515
C399	C	-0.029168	-0.455858	0.067234
C400	C	0.470832	0.044142	0.567234
H401	H	-0.014714	-0.450466	0.033016
H402	H	0.485286	0.049534	0.533016
H403	H	-0.063770	-0.441423	0.075586
H404	H	0.436230	0.058577	0.575586
H405	H	-0.017388	-0.441465	0.075677
H406	H	0.482612	0.058535	0.575677
C407	C	-0.065219	-0.491699	0.174942
C408	C	0.434781	0.008301	0.674942
H409	H	-0.073681	-0.509084	0.209167
H410	H	0.426319	-0.009084	0.709167
H411	H	-0.047814	-0.471711	0.166572
H412	H	0.452186	0.028289	0.666572
H413	H	-0.094195	-0.471669	0.166479
H414	H	0.405805	0.028331	0.666479
C415	C	0.058714	-0.631798	0.067333
C416	C	0.558714	-0.131798	0.567333
H417	H	0.067170	-0.614411	0.033108
H418	H	0.567170	-0.114411	0.533108
H419	H	0.087688	-0.651835	0.075795
H420	H	0.587688	-0.151835	0.575795
H421	H	0.041300	-0.651779	0.075702
H422	H	0.541300	-0.151779	0.575702
C423	C	0.022665	-0.667642	0.175048
C424	C	0.522665	-0.167642	0.675048
H425	H	0.008218	-0.673031	0.209265
H426	H	0.508218	-0.173031	0.709265
H427	H	0.010884	-0.682030	0.166605
H428	H	0.510884	-0.182030	0.666605
H429	H	0.057269	-0.682081	0.166697
H430	H	0.557269	-0.182081	0.666697
C431	C	-0.065453	-0.491689	0.337260
C432	C	0.434547	0.008311	0.837260
H433	H	-0.070375	-0.459212	0.332337
H434	H	0.429625	0.040788	0.832337
H435	H	-0.049757	-0.496630	0.306519
H436	H	0.450243	0.003370	0.806519
H437	H	-0.096206	-0.496585	0.352877
H438	H	0.403794	0.003415	0.852877
C439	C	-0.029973	-0.455841	0.373647
C440	C	0.470027	0.044159	0.873647
H441	H	-0.050047	-0.438421	0.353693
H442	H	0.449953	0.061579	0.853693
H443	H	-0.047440	-0.447742	0.402833
H444	H	0.452560	0.052258	0.902833
H445	H	-0.001147	-0.447140	0.356325
H446	H	0.498853	0.052860	0.856325
H447	H	0.049734	-0.622248	0.452940
H448	H	0.549734	-0.122248	0.952940
C449	C	-0.335473	-0.587380	0.504638
C450	C	0.164527	-0.087380	1.004638
H451	H	-0.312893	-0.607413	0.522090
H452	H	0.187107	-0.107413	1.022090
H453	H	-0.355480	-0.558366	0.513030
H454	H	0.144520	-0.058366	1.013030
H455	H	-0.355489	-0.604757	0.513006
H456	H	0.144511	-0.104757	1.013006
H457	H	0.018765	-0.653217	0.421828
H458	H	0.518765	-0.153217	0.921828
H459	H	0.056124	-0.793157	0.355062
H460	H	0.556124	-0.293157	0.855062
H461	H	-0.063498	-0.886058	0.443304
H462	H	0.436502	-0.386058	0.943304
H463	H	-0.094449	-0.793002	0.412253
H464	H	0.405551	-0.293002	0.912253
H465	H	-0.327887	-0.507903	0.338181
H466	H	0.172113	-0.007903	0.838181
C467	C	-0.227766	-0.623390	0.468906
C468	C	0.272234	-0.123390	0.968906
H469	H	-0.250425	-0.628287	0.501367
H470	H	0.249575	-0.128287	1.001367
H471	H	-0.207765	-0.654146	0.464002
H472	H	0.292235	-0.154146	0.964002
H473	H	-0.207757	-0.607750	0.464017
H474	H	0.292243	-0.107750	0.964017
H475	H	0.023949	-0.388000	0.364433
H476	H	0.523949	0.112000	0.864433
C477	C	-0.227492	-0.535480	0.292909
C478	C	0.272508	-0.035480	0.792909
H479	H	-0.250074	-0.515453	0.275458
H480	H	0.249926	-0.015453	0.775458
H481	H	-0.207476	-0.518106	0.284539
H482	H	0.292524	-0.018106	0.784539
H483	H	-0.207487	-0.564497	0.284517
H484	H	0.292513	-0.064497	0.784517
