data_functionalizedCrystal
_audit_creation_method	'MofGen! by Chris Wilmer'
_symmetry_space_group_name_H-M	'P1'
_symmetry_Int_Tables_number	1
_symmetry_cell_setting	triclinic
loop_
_symmetry_equiv_pos_as_xyz
  x,y,z
_cell_length_a	25.639242
_cell_length_b	16.120484
_cell_length_c	16.120297
_cell_angle_alpha	95.614431
_cell_angle_beta	92.868329
_cell_angle_gamma	92.921109
loop_
_atom_site_label
_atom_site_type_symbol
_atom_site_fract_x
_atom_site_fract_y
_atom_site_fract_z
Zn1	Zn	-0.772385	0.356866	0.489681
Zn2	Zn	-0.772319	0.489556	0.356991
Zn3	Zn	-0.689622	0.349790	0.349903
Zn4	Zn	-0.680261	0.496583	0.496687
O5	O	-0.728646	0.423199	0.423315
O6	O	-0.845539	0.374489	0.472114
O7	O	-0.765239	0.465113	0.239090
O8	O	-0.704546	0.233764	0.362546
O9	O	-0.845491	0.471975	0.374628
O10	O	-0.765351	0.238963	0.465240
O11	O	-0.704482	0.362428	0.233882
O12	O	-0.615216	0.369241	0.369339
O13	O	-0.688591	0.483952	0.612718
O14	O	-0.608339	0.477090	0.477181
O15	O	-0.756274	0.381303	0.607571
O16	O	-0.756162	0.607453	0.381421
O17	O	-0.688527	0.612616	0.484055
C18	C	-0.592807	0.423161	0.423252
C19	C	-0.534693	0.423166	0.423245
C20	C	-0.170754	0.479433	0.479400
C21	C	-0.116149	0.479438	0.479411
O22	O	-0.084875	0.527240	0.527117
N23	N	-0.092406	0.423214	0.423345
C24	C	-0.123270	0.366976	0.367270
O25	O	-0.098061	0.319153	0.319583
C26	C	-0.177874	0.366968	0.367264
C27	C	-0.201615	0.423201	0.423327
C28	C	-0.194495	0.535661	0.535460
C29	C	-0.249096	0.535657	0.535447
C30	C	-0.279956	0.479425	0.479375
C31	C	-0.256216	0.423197	0.423315
C32	C	-0.208737	0.310726	0.311193
C33	C	-0.263345	0.310723	0.311192
C34	C	-0.287085	0.366956	0.367256
C35	C	-0.341677	0.366961	0.367230
N36	N	-0.365420	0.423185	0.423296
C37	C	-0.334560	0.479417	0.479368
C38	C	-0.008598	0.366997	0.367289
C39	C	0.046004	0.367008	0.367291
C40	C	0.053121	0.479470	0.479433
C41	C	-0.001482	0.479461	0.479427
C42	C	-0.032342	0.423221	0.423355
C43	C	-0.449227	0.479405	0.479337
C44	C	-0.503833	0.479398	0.479318
C45	C	-0.510945	0.366934	0.367179
C46	C	-0.456344	0.366943	0.367195
C47	C	-0.425486	0.423182	0.423281
O48	O	-0.372985	0.319181	0.319551
O49	O	-0.359777	0.527224	0.527055
C50	C	0.134983	0.423234	0.423370
C51	C	0.076869	0.423238	0.423367
C52	C	-0.721335	0.640363	0.434285
C53	C	-0.718254	0.733268	0.439006
C54	C	-0.721396	0.434200	0.641319
C55	C	-0.718306	0.438889	0.734219
C56	C	-0.736000	0.205188	0.412321
C57	C	-0.739134	0.112284	0.407636
C58	C	-0.712632	0.903367	0.447643
C59	C	-0.744754	0.942191	0.399002
C60	C	-0.741626	1.036840	0.403807
C61	C	-0.715759	0.808710	0.442839
C62	C	-0.735901	0.412180	0.206157
C63	C	-0.739100	0.407256	0.113245
C64	C	-0.712646	0.447430	0.904308
C65	C	-0.744758	0.398718	0.943162
C66	C	-0.741609	0.403470	1.037805
C67	C	-0.715794	0.442678	0.809656
H68	H	-0.189418	0.264937	0.265538
H69	H	-0.774615	0.353444	0.905347
O70	O	0.069128	0.312368	0.312931
C71	C	0.100469	0.260845	0.357871
H72	H	0.111732	0.293603	0.422665
H73	H	0.077656	0.199377	0.364009
C74	C	0.136476	0.203112	0.231562
C75	C	0.150313	0.243349	0.311141
H76	H	0.167221	0.192316	0.202736
H77	H	0.115359	0.237822	0.201285
H78	H	0.117464	0.151894	0.236688
H79	H	0.169319	0.294571	0.306014
H80	H	0.171435	0.208647	0.341417
H81	H	-0.424108	0.525197	0.525010
H82	H	-0.682792	0.492699	0.942120
O83	O	0.083182	0.534011	0.533879
C84	C	0.136466	0.521965	0.521845
H85	H	0.140849	0.456043	0.491311
H86	H	0.152154	0.569226	0.479760
C87	C	0.162174	0.614979	0.644296
C88	C	0.167558	0.534011	0.606801
H89	H	0.181354	0.622413	0.696700
H90	H	0.126276	0.623098	0.652402
H91	H	0.175247	0.654354	0.609217
H92	H	0.154479	0.494637	0.641874
H93	H	0.203455	0.525886	0.598702
H94	H	-0.774605	0.904345	0.353749
H95	H	-0.268420	0.581447	0.581102
O96	O	-0.526869	0.533941	0.533899
C97	C	-0.511373	0.520019	0.616315
H98	H	-0.498466	0.453470	0.617271
H99	H	-0.477450	0.565963	0.640359
C100	C	-0.573559	0.614383	0.671396
C101	C	-0.557711	0.532644	0.672572
H102	H	-0.602141	0.622173	0.706100
H103	H	-0.583998	0.623765	0.615871
H104	H	-0.545286	0.652660	0.691431
H105	H	-0.585982	0.494369	0.652527
H106	H	-0.547278	0.523256	0.728095
O107	O	-0.164577	0.590258	0.590045
C108	C	-0.175771	0.576314	0.672459
H109	H	-0.216433	0.544257	0.672612
H110	H	-0.145544	0.534828	0.698527
C111	C	-0.123960	0.699802	0.726878
C112	C	-0.173904	0.660435	0.727066
H113	H	-0.122806	0.751690	0.760564
H114	H	-0.116417	0.709195	0.671355
H115	H	-0.098776	0.665221	0.748600
H116	H	-0.199085	0.695011	0.705335
H117	H	-0.181451	0.651050	0.782587
O118	O	-0.024457	0.534112	0.533972
C119	C	0.014497	0.583757	0.583443
H120	H	0.052367	0.549678	0.584661
H121	H	0.021418	0.645641	0.555937
C122	C	-0.049973	0.642285	0.671501
C123	C	-0.003461	0.600424	0.673001
H124	H	-0.061050	0.652570	0.726743
H125	H	-0.076218	0.608840	0.638169
H126	H	-0.044199	0.693850	0.648575
H127	H	-0.009238	0.548856	0.695917
H128	H	0.022782	0.633861	0.706339
O129	O	-0.038496	0.312339	0.312727
C130	C	-0.005825	0.262710	0.263262
H131	H	0.034149	0.296803	0.262059
H132	H	-0.001133	0.200825	0.290765
C133	C	-0.079572	0.204165	0.175182
C134	C	-0.030476	0.246042	0.173698
H135	H	-0.094778	0.193879	0.119935
H136	H	-0.101584	0.237598	0.208509
H137	H	-0.075655	0.152599	0.198105
H138	H	-0.034394	0.297611	0.150785
H139	H	-0.008465	0.212616	0.140364
H140	H	-0.536081	0.321154	0.321523
H141	H	-0.682783	0.941210	0.492890
H142	H	-0.288468	0.264919	0.265535
H143	H	-0.437013	0.321155	0.321542
