data_functionalizedCrystal
_audit_creation_method	'MofGen! by Chris Wilmer'
_symmetry_space_group_name_H-M	'P1'
_symmetry_Int_Tables_number	1
_symmetry_cell_setting	triclinic
loop_
_symmetry_equiv_pos_as_xyz
  x,y,z
_cell_length_a	16.959455
_cell_length_b	21.295417
_cell_length_c	16.959447
_cell_angle_alpha	89.965854
_cell_angle_beta	89.979626
_cell_angle_gamma	90.026722
loop_
_atom_site_label
_atom_site_type_symbol
_atom_site_fract_x
_atom_site_fract_y
_atom_site_fract_z
Zn1	Zn	1.208331	-0.250647	-0.447015
Zn2	Zn	1.208231	-0.355924	-0.314828
Zn3	Zn	1.076159	-0.250667	-0.314839
Zn4	Zn	1.076102	-0.355877	-0.446953
O5	O	1.142206	-0.303278	-0.380909
O6	O	1.318929	-0.264623	-0.429502
O7	O	1.190694	-0.341989	-0.204218
O8	O	1.093758	-0.162575	-0.332403
O9	O	1.318855	-0.341970	-0.332385
O10	O	1.190864	-0.162560	-0.429513
O11	O	1.093661	-0.264657	-0.204226
O12	O	0.965541	-0.264612	-0.332342
O13	O	1.093660	-0.341890	-0.557572
O14	O	0.965499	-0.341909	-0.429406
O15	O	1.190808	-0.264578	-0.557618
O16	O	1.190638	-0.444007	-0.332324
O17	O	1.093563	-0.443972	-0.429395
C18	C	0.936840	-0.303258	-0.380869
C19	C	0.848983	-0.303264	-0.380871
C20	C	0.477459	-0.343513	-0.330314
C21	C	0.477556	-0.263096	-0.431600
C22	C	0.560102	-0.263086	-0.431581
C23	C	0.601330	-0.303290	-0.380928
C24	C	0.560012	-0.343505	-0.330295
C25	C	0.601426	-0.222877	-0.482219
C26	C	0.683977	-0.222865	-0.482202
C27	C	0.725207	-0.263067	-0.431545
C28	C	0.683884	-0.303282	-0.380909
C29	C	0.725112	-0.343487	-0.330256
C30	C	0.683790	-0.383700	-0.279616
C31	C	0.601242	-0.383707	-0.279638
C32	C	0.807755	-0.263060	-0.431523
C33	C	0.807665	-0.343479	-0.330237
C34	C	1.142105	-0.466830	-0.380869
C35	C	1.142134	-0.536798	-0.380878
C36	C	1.192668	-0.569600	-0.431479
C37	C	1.192696	-0.635342	-0.431498
C38	C	1.142198	-0.668281	-0.380903
C39	C	1.091655	-0.635471	-0.330298
C40	C	1.091622	-0.569730	-0.330286
N41	N	1.136233	-0.771546	-0.311726
N42	N	1.136268	-0.833997	-0.311740
C43	C	1.142291	-0.866355	-0.380939
N44	N	1.148292	-0.833903	-0.450124
N45	N	1.148261	-0.771446	-0.450109
C46	C	1.142227	-0.739566	-0.380911
C47	C	1.192858	-0.970443	-0.431565
C48	C	1.192880	-1.036186	-0.431586
C49	C	1.091842	-1.036313	-0.330379
C50	C	1.091816	-0.970571	-0.330365
C51	C	1.142328	-0.937640	-0.380957
C52	C	1.348374	-0.303299	-0.380949
C53	C	1.436231	-0.303308	-0.380966
C54	C	1.142239	-0.303226	-0.587077
C55	C	1.142253	-0.303204	-0.674934
C56	C	1.142329	-0.139088	-0.380966
C57	C	1.142381	-0.069120	-0.380991
C58	C	1.091767	-0.343390	-1.046388
C59	C	1.192928	-0.262885	-1.046431
C60	C	1.192907	-0.262898	-0.963885
C61	C	1.142316	-0.303159	-0.922587
C62	C	1.091746	-0.343406	-0.963834
C63	C	1.243482	-0.222656	-0.922631
C64	C	1.243463	-0.222668	-0.840080
C65	C	1.192867	-0.262926	-0.798780
C66	C	1.142295	-0.303175	-0.840033
C67	C	1.091704	-0.343436	-0.798735
C68	C	1.041126	-0.383681	-0.839986
C69	C	1.041150	-0.383664	-0.922534
C70	C	1.192844	-0.262943	-0.716232
C71	C	1.091683	-0.343451	-0.716181
C72	C	1.142219	-0.303285	-0.175542
C73	C	1.142358	-0.303130	-0.087686
H74	H	0.841227	-0.376217	-0.288987
C75	C	1.247771	-0.219203	-1.091409
C76	C	1.236955	-0.227795	-1.172531
C77	C	1.287458	-0.187558	-1.213991
H78	H	1.300901	-0.228383	-1.077974
H79	H	1.236224	-0.176894	-1.077948
H80	H	1.248508	-0.270094	-1.185986
H81	H	1.183836	-0.218610	-1.185989
H82	H	1.275911	-0.145249	-1.200531
H83	H	1.340585	-0.196742	-1.200550
H84	H	1.280121	-0.193378	-1.269036
C85	C	0.556335	-0.427445	-0.224798
C86	C	0.508972	-0.467849	-0.269480
C87	C	0.467597	-0.508156	-0.218993
H88	H	0.524054	-0.403408	-0.190408
H89	H	0.592683	-0.451426	-0.194639
H90	H	0.472628	-0.443871	-0.299625
H91	H	0.541232	-0.491900	-0.303869
H92	H	0.503945	-0.532137	-0.188834
H93	H	0.435321	-0.484114	-0.184605
H94	H	0.435462	-0.535579	-0.249302
H95	H	0.717369	-0.416437	-0.238379
H96	H	0.443811	-0.376252	-0.289081
H97	H	0.999975	-0.416432	-0.956129
H98	H	1.284675	-0.189882	-0.956262
H99	H	1.050586	-0.376156	-1.079978
C100	C	1.247662	-1.071916	-0.486499
C101	C	1.236864	-1.136539	-0.475701
C102	C	1.287308	-1.169473	-0.526281
H103	H	1.300805	-1.061191	-0.475028
H104	H	1.236052	-1.061152	-0.539611
H105	H	1.248480	-1.147298	-0.422601
H106	H	1.183731	-1.147282	-0.487178
H107	H	1.275698	-1.158709	-0.579394
H108	H	1.340448	-1.158743	-0.514806
H109	H	1.279983	-1.213323	-0.518967
C110	C	0.852519	-0.219445	-0.486628
C111	C	0.832466	-0.233227	-0.564805
C112	C	0.873679	-0.193055	-0.615591
H113	H	0.907599	-0.225158	-0.479468
H114	H	0.838986	-0.177128	-0.475215
H115	H	0.846005	-0.275534	-0.576214
H116	H	0.777394	-0.227511	-0.571989
H117	H	0.860146	-0.150738	-0.604178
H118	H	0.928757	-0.198771	-0.608425
H119	H	0.860074	-0.202397	-0.668639
C120	C	1.036742	-0.671116	-0.275334
C121	C	0.992463	-0.628314	-0.231029
C122	C	0.941857	-0.661126	-0.180397
H123	H	1.066925	-0.696763	-0.240858
H124	H	1.002253	-0.696754	-0.305524
H125	H	1.026947	-0.602686	-0.200841
H126	H	0.962264	-0.602666	-0.265484
H127	H	0.907369	-0.686765	-0.210587
H128	H	0.972047	-0.686772	-0.145926
H129	H	0.911803	-0.632090	-0.150335
C130	C	1.037094	-1.072180	-0.275481
C131	C	1.047946	-1.136775	-0.286312
C132	C	0.997527	-1.169838	-0.235750
H133	H	0.983943	-1.061508	-0.286948
H134	H	1.048695	-1.061469	-0.222363
H135	H	1.036340	-1.147481	-0.339418
H136	H	1.101087	-1.147466	-0.274839
H137	H	1.009128	-1.159127	-0.182632
H138	H	0.944379	-1.159160	-0.247222
H139	H	1.004888	-1.213669	-0.243087
H140	H	1.233796	-0.542789	-0.472676
C141	C	0.432837	-0.219529	-0.486725
C142	C	0.452943	-0.233321	-0.564896
C143	C	0.411751	-0.193203	-0.615701
H144	H	0.446338	-0.177197	-0.475357
H145	H	0.377749	-0.225302	-0.479539
H146	H	0.508019	-0.227543	-0.572079
H147	H	0.439440	-0.275645	-0.576289
H148	H	0.356663	-0.198976	-0.608515
H149	H	0.425255	-0.150874	-0.604326
H150	H	0.425382	-0.202559	-0.668746
H151	H	1.233841	-0.662055	-0.472713
C152	C	1.298398	-0.178902	-0.795440
C153	C	1.342693	-0.143630	-0.849277
C154	C	1.393297	-0.103298	-0.808182
H155	H	1.332881	-0.202918	-0.763223
H156	H	1.268188	-0.151442	-0.763267
H157	H	1.372901	-0.171086	-0.881435
H158	H	1.308230	-0.119601	-0.881495
H159	H	1.363087	-0.075839	-0.776010
H160	H	1.427775	-0.127320	-0.775967
H161	H	1.423352	-0.079358	-0.844704
H162	H	1.050471	-0.543022	-0.289080
H163	H	0.567852	-0.190148	-0.523462
H164	H	0.717614	-0.190121	-0.523436
H165	H	1.233985	-0.943629	-0.472763
C166	C	1.036928	-0.935067	-0.275330
C167	C	0.992723	-0.977981	-0.231008
C168	C	0.942156	-0.945298	-0.180293
H169	H	1.002385	-0.909423	-0.305436
H170	H	1.067160	-0.909436	-0.240874
H171	H	0.962493	-1.003601	-0.265460
H172	H	1.027245	-1.003626	-0.200885
H173	H	0.972388	-0.919667	-0.145837
H174	H	0.907618	-0.919655	-0.210406
H175	H	0.912162	-0.974410	-0.150210
C176	C	0.986308	-0.427502	-0.795179
C177	C	1.003496	-0.489783	-0.815219
C178	C	0.953028	-0.530168	-0.773946
H179	H	0.933176	-0.418371	-0.808658
H180	H	0.993559	-0.421788	-0.740103
H181	H	0.996239	-0.495494	-0.870283
H182	H	1.056619	-0.498933	-0.801739
H183	H	0.960278	-0.524454	-0.718869
H184	H	0.899898	-0.521031	-0.787427
H185	H	0.964687	-0.572430	-0.787531
H186	H	1.050478	-0.376231	-0.682562
H187	H	1.234025	-0.230178	-0.682649
