data_functionalizedCrystal
_audit_creation_method	'MofGen! by Chris Wilmer'
_symmetry_space_group_name_H-M	'P1'
_symmetry_Int_Tables_number	1
_symmetry_cell_setting	triclinic
loop_
_symmetry_equiv_pos_as_xyz
  x,y,z
_cell_length_a	14.853567
_cell_length_b	14.853567
_cell_length_c	10.065875
_cell_angle_alpha	98.805381
_cell_angle_beta	81.243377
_cell_angle_gamma	83.634930
loop_
_atom_site_label
_atom_site_type_symbol
_atom_site_fract_x
_atom_site_fract_y
_atom_site_fract_z
O1	O	1.209527	0.104481	-0.113388
O2	O	0.947070	0.118500	-0.113410
O3	O	1.085309	-0.019740	-0.113402
O4	O	1.071287	0.242721	-0.113395
O5	O	1.058949	0.006727	0.113585
O6	O	0.920709	0.144966	0.113578
O7	O	1.183166	0.130948	0.113600
Zn8	Zn	1.047753	0.142159	0.149628
Zn9	Zn	1.082483	0.107289	-0.149438
O10	O	1.044927	0.269187	0.113592
C11	C	0.900301	0.131098	0.000081
C12	C	0.800219	0.129193	0.000072
C13	C	0.387681	0.039030	0.000100
C14	C	0.366400	0.203263	0.000103
C15	C	0.460434	0.205053	0.000099
C16	C	0.518097	0.123830	0.000093
C17	C	0.481725	0.040817	0.000092
C18	C	0.496815	0.288063	0.000087
C19	C	0.590855	0.289856	0.000081
C20	C	0.648518	0.208632	0.000085
C21	C	0.612141	0.125616	0.000085
C22	C	0.669803	0.044393	0.000079
C23	C	0.633427	-0.038623	0.000089
C24	C	0.539388	-0.040406	0.000096
C25	C	0.742556	0.210416	0.000078
C26	C	0.763847	0.046180	0.000071
C27	C	1.071494	-0.040096	0.000087
C28	C	1.069592	-0.140181	0.000075
C29	C	0.979424	-0.552712	0.000094
C30	C	1.143655	-0.573992	0.000108
C31	C	1.145446	-0.479959	0.000100
C32	C	1.064225	-0.422298	0.000091
C33	C	0.981212	-0.458670	0.000090
C34	C	1.228456	-0.443578	0.000114
C35	C	1.230250	-0.349540	0.000108
C36	C	1.149029	-0.291878	0.000089
C37	C	1.066013	-0.328256	0.000087
C38	C	0.984791	-0.270595	0.000078
C39	C	0.901776	-0.306972	0.000066
C40	C	0.899991	-0.401008	0.000072
C41	C	1.150813	-0.197841	0.000084
C42	C	0.986579	-0.176553	0.000075
C43	C	1.229935	0.118350	0.000106
C44	C	1.330019	0.120254	0.000106
C45	C	1.058742	0.289543	0.000100
C46	C	1.060646	0.389627	0.000103
N47	N	1.024056	0.165957	0.353732
N48	N	1.106187	0.083484	-0.353542
C49	C	1.074233	0.115563	0.421514
C50	C	1.056003	0.133885	0.578680
H51	H	0.680389	-0.104755	0.000075
N52	N	1.316045	-0.505773	0.000141
H53	H	1.328736	-0.555076	-0.084003
H54	H	1.368852	-0.468398	0.000207
H55	H	0.920438	-0.129611	0.000062
H56	H	1.130685	0.058850	0.363192
N57	N	0.826036	-0.041430	0.000055
H58	H	0.891130	-0.027705	0.000044
H59	H	0.804482	-0.067787	0.084206
H60	H	0.967598	0.222662	0.412055
N61	N	1.319789	-0.310319	0.000103
H62	H	1.333963	-0.281596	-0.084047
H63	H	1.314367	-0.262000	0.084297
H64	H	1.218402	-0.168226	0.000103
H65	H	0.449861	0.354189	0.000077
N66	N	0.630077	0.379393	0.000067
H67	H	0.599289	0.424793	0.084212
H68	H	0.698399	0.368128	0.000011
N69	N	0.500154	-0.129937	0.000117
H70	H	0.431832	-0.118742	0.000120
H71	H	0.531003	-0.175300	-0.084028
H72	H	0.911835	-0.582335	0.000079
H73	H	0.999541	0.190594	0.636998
H74	H	0.358059	-0.028559	0.000114
H75	H	1.162642	0.026768	0.588140
H76	H	0.835644	-0.260011	0.000069
N77	N	0.781789	0.299945	0.000074
H78	H	0.850111	0.288754	0.000072
H79	H	0.770473	0.325675	-0.084076
N80	N	0.304215	0.290863	0.000095
H81	H	0.239123	0.277134	0.000096
H82	H	0.306234	0.336846	0.084243
H83	H	0.832404	-0.430635	0.000063
H84	H	1.209781	-0.620943	0.000126
