data_functionalizedCrystal
_audit_creation_method	'MofGen! by Chris Wilmer'
_symmetry_space_group_name_H-M	'P1'
_symmetry_Int_Tables_number	1
_symmetry_cell_setting	triclinic
loop_
_symmetry_equiv_pos_as_xyz
  x,y,z
_cell_length_a	19.121063
_cell_length_b	19.121414
_cell_length_c	12.759393
_cell_angle_alpha	87.585042
_cell_angle_beta	87.597083
_cell_angle_gamma	94.802198
loop_
_atom_site_label
_atom_site_type_symbol
_atom_site_fract_x
_atom_site_fract_y
_atom_site_fract_z
Zn1	Zn	-0.234201	1.063724	0.541238
Zn2	Zn	0.099132	1.397057	0.874571
Zn3	Zn	0.432465	1.730391	1.207905
Zn4	Zn	-0.351888	1.058606	0.373372
Zn5	Zn	-0.018555	1.391940	0.706706
Zn6	Zn	0.314778	1.725273	1.040039
Zn7	Zn	-0.239256	0.946055	0.373382
Zn8	Zn	0.094077	1.279388	0.706715
Zn9	Zn	0.427410	1.612721	1.040049
Zn10	Zn	-0.356850	0.941004	0.556808
Zn11	Zn	-0.023516	1.274338	0.890142
Zn12	Zn	0.309817	1.607671	1.223475
O13	O	-0.295549	1.002347	0.461200
O14	O	0.037784	1.335681	0.794533
O15	O	0.371118	1.669014	1.127867
O16	O	-0.245621	1.161507	0.512450
O17	O	0.087713	1.494840	0.845783
O18	O	0.421046	1.828174	1.179116
O19	O	-0.336987	1.043648	0.226357
O20	O	-0.003653	1.376981	0.559690
O21	O	0.329680	1.710315	0.893023
O22	O	-0.140120	0.965919	0.389136
O23	O	0.193213	1.299252	0.722470
O24	O	0.526546	1.632586	1.055803
O25	O	-0.332085	1.157747	0.389120
O26	O	0.001249	1.491081	0.722453
O27	O	0.334582	1.824414	1.055786
O28	O	-0.136406	1.052370	0.512459
O29	O	0.196927	1.385703	0.845793
O30	O	0.530261	1.719037	1.179126
O31	O	-0.254237	0.960957	0.226364
O32	O	0.079097	1.294290	0.559697
O33	O	0.412430	1.627623	0.893031
O34	O	-0.259048	0.846923	0.404234
O35	O	0.074286	1.180256	0.737568
O36	O	0.407619	1.513589	1.070901
O37	O	-0.340541	0.957311	0.701760
O38	O	-0.007208	1.290645	1.035093
O39	O	0.326126	1.623978	1.368426
O40	O	-0.345443	0.843212	0.538997
O41	O	-0.012110	1.176545	0.872330
O42	O	0.321224	1.509879	1.205663
O43	O	-0.250432	1.047473	0.690320
O44	O	0.082902	1.380806	1.023654
O45	O	0.416235	1.714140	1.356987
O46	O	-0.451012	1.038751	0.404218
O47	O	-0.117679	1.372084	0.737551
O48	O	0.215655	1.705418	1.070884
O49	O	-0.454657	0.952349	0.538987
O50	O	-0.121324	1.285682	0.872321
O51	O	0.212009	1.619016	1.205654
C52	C	-0.303333	0.819537	0.473307
C53	C	0.030001	1.152871	0.806640
C54	C	0.363334	1.486204	1.139974
C55	C	-0.306680	0.741330	0.478512
C56	C	0.026654	1.074663	0.811846
C57	C	0.359987	1.407996	1.145179
C58	C	-0.263203	0.706502	0.410900
C59	C	0.070131	1.039835	0.744233
C60	C	0.403464	1.373168	1.077567
C61	C	-0.266354	0.633017	0.415791
C62	C	0.066980	0.966350	0.749124
C63	C	0.400313	1.299684	1.082458
C64	C	-0.312978	0.594362	0.488300
C65	C	0.020355	0.927695	0.821634
C66	C	0.353688	1.261028	1.154967
C67	C	-0.356460	0.629195	0.555915
C68	C	-0.023126	0.962528	0.889249
C69	C	0.310207	1.295861	1.222582
C70	C	-0.353312	0.702678	0.551018
C71	C	-0.019979	1.036011	0.884352
C72	C	0.313355	1.369345	1.217685
C73	C	-0.324739	0.372394	0.506586
C74	C	0.008594	0.705727	0.839919
C75	C	0.341927	1.039061	1.173253
C76	C	-0.327882	0.298906	0.511480
C77	C	0.005451	0.632239	0.844813
C78	C	0.338784	0.965573	1.178147
C79	C	-0.237777	0.302733	0.371354
C80	C	0.095557	0.636067	0.704687
C81	C	0.428890	0.969400	1.038020
C82	C	-0.234630	0.376218	0.366468
C83	C	0.098703	0.709551	0.699801
C84	C	0.432037	1.042885	1.033134
C85	C	-0.278114	0.411044	0.434079
C86	C	0.055219	0.744378	0.767412
C87	C	0.388552	1.077711	1.100746
C88	C	-0.316198	0.519249	0.493304
C89	C	0.017135	0.852582	0.826637
C90	C	0.350468	1.185915	1.159970
C91	C	-0.274897	0.486156	0.429070
C92	C	0.058436	0.819489	0.762403
C93	C	0.391770	1.152823	1.095736
C94	C	-0.478365	0.994466	0.473313
C95	C	-0.145032	1.327799	0.806646
C96	C	0.188302	1.661133	1.139979
C97	C	-0.556572	0.991158	0.478525
C98	C	-0.223238	1.324492	0.811859
C99	C	0.110095	1.657825	1.145192
C100	C	-0.591391	1.034625	0.410860
C101	C	-0.258057	1.367958	0.744194
C102	C	0.075276	1.701291	1.077527
C103	C	-0.664874	1.031518	0.415769
C104	C	-0.331541	1.364851	0.749102
C105	C	0.001793	1.698185	1.082435
C106	C	-0.703537	0.984942	0.488338
C107	C	-0.370204	1.318275	0.821671
C108	C	-0.036871	1.651608	1.155005
C109	C	-0.668713	0.941474	0.556010
C110	C	-0.335380	1.274807	0.889344
C111	C	-0.002047	1.608141	1.222677
C112	C	-0.595231	0.944584	0.551106
C113	C	-0.261898	1.277918	0.884439
C114	C	0.071436	1.611251	1.217773
C115	C	-0.925502	0.973301	0.506658
C116	C	-0.592169	1.306635	0.839991
C117	C	-0.258836	1.639968	1.173324
C118	C	-0.998990	0.970193	0.511554
C119	C	-0.665656	1.303526	0.844888
C120	C	-0.332323	1.636859	1.178221
C121	C	-0.995145	1.060238	0.371314
C122	C	-0.661812	1.393571	0.704647
C123	C	-0.328478	1.726905	1.037980
C124	C	-0.921662	1.063341	0.366412
C125	C	-0.588328	1.396675	0.699745
C126	C	-0.254995	1.730008	1.033079
C127	C	-0.886844	1.019876	0.434088
C128	C	-0.553511	1.353210	0.767421
C129	C	-0.220177	1.686543	1.100754
C130	C	-0.778649	0.981764	0.493355
C131	C	-0.445316	1.315097	0.826688
C132	C	-0.111983	1.648430	1.160021
C133	C	-0.811733	1.023058	0.429075
C134	C	-0.478400	1.356392	0.762409
C135	C	-0.145067	1.689725	1.095742
C136	C	-0.112018	1.010279	0.449062
C137	C	0.221315	1.343612	0.782395
C138	C	0.554648	1.676945	1.115729
C139	C	-0.033808	1.013659	0.443889
C140	C	0.299525	1.346992	0.777223
C141	C	0.632858	1.680325	1.110556
C142	C	-0.295476	1.002400	0.735226
C143	C	0.037857	1.335733	1.068559
C144	C	0.371191	1.669066	1.401892
C145	C	-0.295445	1.002422	0.851999
C146	C	0.037889	1.335755	1.185332
C147	C	0.371222	1.669089	1.518666
C148	C	-0.287735	1.185871	0.449047
C149	C	0.045598	1.519204	0.782380
C150	C	0.378931	1.852538	1.115713
C151	C	-0.284406	1.264078	0.443868
C152	C	0.048928	1.597411	0.777201
C153	C	0.382261	1.930745	1.110534
C154	C	-0.295569	1.002338	0.188235
C155	C	0.037764	1.335671	0.521568
C156	C	0.371097	1.669005	0.854901
C157	C	-0.295396	1.002460	0.071440
C158	C	0.037937	1.335794	0.404773
C159	C	0.371270	1.669127	0.738106
C160	C	-0.248520	1.049375	0.900905
C161	C	0.084813	1.382709	1.234239
C162	C	0.418146	1.716042	1.567572
C163	C	-0.248494	1.049393	1.010627
C164	C	0.084839	1.382727	1.343960
C165	C	0.418173	1.716060	1.677293
C166	C	-0.342323	0.955502	1.022526
C167	C	-0.008990	1.288835	1.355859
C168	C	0.324344	1.622168	1.689193
C169	C	-0.342345	0.955481	0.912807
C170	C	-0.009012	1.288814	1.246140
C171	C	0.324321	1.622148	1.579473
C172	C	-0.194351	1.103585	0.894036
C173	C	0.138983	1.436918	1.227370
C174	C	0.472316	1.770252	1.560703
C175	C	-0.194325	1.103603	1.003758
C176	C	0.139009	1.436936	1.337091
C177	C	0.472342	1.770270	1.670424
H178	H	-0.230954	0.604663	0.360728
H179	H	0.102379	0.937997	0.694061
H180	H	0.435713	1.271330	1.027395
H181	H	-1.030467	0.932273	0.570667
H182	H	-0.697134	1.265606	0.904000
H183	H	-0.363800	1.598940	1.237333
F184	F	-0.399588	0.739744	0.622978
F185	F	-0.066255	1.073077	0.956311
F186	F	0.267079	1.406411	1.289645
H187	H	-0.810137	0.943840	0.552439
H188	H	-0.476804	1.277173	0.885772
H189	H	-0.143470	1.610506	1.219105
F190	F	-0.225280	0.527297	0.351899
F191	F	0.108053	0.860630	0.685233
F192	F	0.441387	1.193963	1.018566
F193	F	-0.185001	0.417353	0.289301
F194	F	0.148333	0.750686	0.622634
F195	F	0.481666	1.084019	0.955967
H196	H	-0.225230	0.737970	0.351863
H197	H	0.108103	1.071303	0.685196
H198	H	0.441436	1.404637	1.018530
H199	H	-0.211679	1.154497	0.857865
H200	H	0.121655	1.487831	1.191199
H201	H	0.454988	1.821164	1.524532
F202	F	-0.191502	0.265663	0.299400
F203	F	0.141831	0.598997	0.632734
F204	F	0.475164	0.932330	0.966067
H205	H	-0.380506	0.917283	1.072049
H206	H	-0.047173	1.250616	1.405382
H207	H	0.286160	1.583949	1.738715
H208	H	-0.365849	0.267435	0.570532
H209	H	-0.032516	0.600768	0.903866
H210	H	0.300817	0.934101	1.237199
H211	H	-0.206595	1.157472	1.030891
H212	H	0.126738	1.490806	1.364224
H213	H	0.460071	1.824139	1.697558
H214	H	-0.360147	0.400741	0.561640
H215	H	-0.026814	0.734074	0.894974
H216	H	0.306519	1.067408	1.228307
F217	F	-0.127772	1.080940	1.045473
F218	F	0.205562	1.414273	1.378806
F219	F	0.538895	1.747606	1.712139
F220	F	-0.123940	1.087584	0.851675
F221	F	0.209393	1.420917	1.185008
F222	F	0.542726	1.754250	1.518342
H223	H	-0.394426	0.597716	0.614949
H224	H	-0.061092	0.931049	0.948283
H225	H	0.272241	1.264382	1.281616
F226	F	-0.365826	0.478102	0.570461
F227	F	-0.032492	0.811436	0.903794
F228	F	0.300841	1.144769	1.237128
H229	H	-0.559916	1.072549	0.351762
H230	H	-0.226582	1.405882	0.685096
H231	H	0.106751	1.739216	1.018429
H232	H	-0.693220	1.066912	0.360668
H233	H	-0.359887	1.400246	0.694001
H234	H	-0.026553	1.733579	1.027335
H235	H	-0.890183	1.101268	0.307320
H236	H	-0.556850	1.434601	0.640654
H237	H	-0.223517	1.767934	0.973987
H238	H	-1.023502	1.095626	0.316217
H239	H	-0.690168	1.428959	0.649551
H240	H	-0.356835	1.762293	0.982884
H241	H	-0.897159	0.937909	0.561760
H242	H	-0.563826	1.271242	0.895094
H243	H	-0.230493	1.604575	1.228427
H244	H	-0.700199	0.903553	0.615102
H245	H	-0.366865	1.236887	0.948435
H246	H	-0.033532	1.570220	1.281769
H247	H	-0.566882	0.909191	0.606207
H248	H	-0.233549	1.242524	0.939541
H249	H	0.099785	1.575857	1.272874
H250	H	-0.380553	0.917245	0.872992
H251	H	-0.047220	1.250578	1.206325
H252	H	0.286113	1.583911	1.539658
F253	F	-0.770584	1.072630	0.351849
F254	F	-0.437250	1.405963	0.685182
F255	F	-0.103917	1.739296	1.018515
