data_functionalizedCrystal
_audit_creation_method	'MofGen! by Chris Wilmer'
_symmetry_space_group_name_H-M	'P1'
_symmetry_Int_Tables_number	1
_symmetry_cell_setting	triclinic
loop_
_symmetry_equiv_pos_as_xyz
  x,y,z
_cell_length_a	19.121102
_cell_length_b	21.295417
_cell_length_c	19.121175
_cell_angle_alpha	92.410242
_cell_angle_beta	85.212968
_cell_angle_gamma	87.584620
loop_
_atom_site_label
_atom_site_type_symbol
_atom_site_fract_x
_atom_site_fract_y
_atom_site_fract_z
Zn1	Zn	1.092589	-0.309425	-0.443646
Zn2	Zn	1.592589	0.190575	0.056354
Zn3	Zn	1.087478	-0.410000	-0.325971
Zn4	Zn	1.587478	0.090000	0.174029
Zn5	Zn	0.969914	-0.300055	-0.320984
Zn6	Zn	1.469914	0.199945	0.179016
Zn7	Zn	0.974878	-0.409958	-0.438583
Zn8	Zn	1.474878	0.090042	0.061417
O9	O	1.031215	-0.357359	-0.382296
O10	O	1.531215	0.142641	0.117704
O11	O	1.190374	-0.326704	-0.432242
O12	O	1.690374	0.173296	0.067758
O13	O	1.067667	-0.391512	-0.226847
O14	O	1.567667	0.108488	0.273153
O15	O	0.986249	-0.213212	-0.337287
O16	O	1.486249	0.286788	0.162713
O17	O	1.186619	-0.400597	-0.345786
O18	O	1.686619	0.099403	0.154214
O19	O	1.076377	-0.220096	-0.427406
O20	O	1.576377	0.279904	0.072594
O21	O	0.981293	-0.310736	-0.223183
O22	O	1.481293	0.189264	0.276817
O23	O	0.872110	-0.310696	-0.332378
O24	O	1.372110	0.189304	0.167622
O25	O	0.994709	-0.400526	-0.537717
O26	O	1.494709	0.099474	-0.037717
O27	O	0.875757	-0.391441	-0.418778
O28	O	1.375757	0.108559	0.081222
O29	O	1.081190	-0.326664	-0.541437
O30	O	1.581190	0.173336	-0.041437
O31	O	1.072481	-0.498080	-0.340877
O32	O	1.572481	0.001920	0.159123
O33	O	0.989754	-0.498050	-0.423613
O34	O	1.489754	0.001950	0.076387
C35	C	0.848403	-0.350048	-0.374488
C36	C	1.348403	0.149952	0.125512
C37	C	0.770196	-0.346936	-0.371164
C38	C	1.270196	0.153064	0.128836
C39	C	0.735368	-0.387571	-0.414515
C40	C	1.235368	0.112429	0.085485
C41	C	0.661884	-0.384639	-0.411396
C42	C	1.161884	0.115361	0.088604
C43	C	0.623229	-0.341073	-0.364921
C44	C	1.123229	0.158927	0.135079
C45	C	0.658062	-0.300434	-0.321568
C46	C	1.158062	0.199566	0.178432
C47	C	0.731545	-0.303363	-0.324691
C48	C	1.231545	0.196637	0.175309
C49	C	0.401264	-0.330118	-0.353246
C50	C	0.901264	0.169882	0.146754
C51	C	0.327776	-0.327193	-0.350124
C52	C	0.827776	0.172807	0.149876
C53	C	0.331603	-0.411398	-0.439954
C54	C	0.831603	0.088602	0.060046
C55	C	0.405087	-0.414326	-0.443070
C56	C	0.905087	0.085674	0.056930
C57	C	0.439914	-0.373684	-0.399720
C58	C	0.939914	0.126316	0.100280
C59	C	0.548117	-0.338076	-0.361730
C60	C	1.048117	0.161924	0.138270
C61	C	0.515025	-0.376679	-0.402915
C62	C	1.015025	0.123321	0.097085
C63	C	1.031121	-0.520906	-0.382253
C64	C	1.531121	-0.020906	0.117747
C65	C	1.031146	-0.590875	-0.382261
C66	C	1.531146	-0.090875	0.117739
C67	C	1.074264	-0.623740	-0.339228
C68	C	1.574264	-0.123740	0.160772
C69	C	1.074298	-0.689485	-0.339246
C70	C	1.574298	-0.189485	0.160754
C71	C	1.031201	-0.722361	-0.382288
C72	C	1.531201	-0.222361	0.117712
C73	C	0.988080	-0.689488	-0.425329
C74	C	1.488080	-0.189488	0.074671
C75	C	0.988053	-0.623745	-0.425316
C76	C	1.488053	-0.123745	0.074684
N77	N	0.969877	-0.823383	-0.385023
N78	N	1.469877	-0.323383	0.114977
N79	N	0.969904	-0.885836	-0.385031
N80	N	1.469904	-0.385836	0.114969
C81	C	1.031281	-0.920440	-0.382331
C82	C	1.531281	-0.420440	0.117669
N83	N	1.092630	-0.890232	-0.379609
N84	N	1.592630	-0.390232	0.120391
N85	N	1.092601	-0.827774	-0.379596
N86	N	1.592601	-0.327774	0.120404
C87	C	1.031226	-0.793648	-0.382307
C88	C	1.531226	-0.293648	0.117693
C89	C	1.074439	-1.024593	-0.339315
C90	C	1.574439	-0.524593	0.160685
C91	C	1.074474	-1.090339	-0.339337
C92	C	1.574474	-0.590339	0.160663
C93	C	0.988250	-1.090341	-0.425416
C94	C	1.488250	-0.590341	0.074584
C95	C	0.988222	-1.024596	-0.425398
C96	C	1.488222	-0.524596	0.074602
C97	C	1.031315	-0.991726	-0.382344
C98	C	1.531315	-0.491726	0.117656
C99	C	1.214741	-0.364700	-0.390135
C100	C	1.714741	0.135300	0.109865
C101	C	1.292949	-0.367828	-0.393476
C102	C	1.792949	0.132172	0.106524
C103	C	1.039073	-0.364636	-0.565821
C104	C	1.539073	0.135364	-0.065821
C105	C	1.042422	-0.367736	-0.644029
C106	C	1.542422	0.132264	-0.144029
C107	C	1.031329	-0.193176	-0.382355
C108	C	1.531329	0.306824	0.117645
C109	C	1.031378	-0.123211	-0.382381
C110	C	1.531378	0.376789	0.117619
C111	C	0.999027	-0.327138	-0.678863
C112	C	1.499027	0.172862	-0.178863
C113	C	1.002171	-0.330057	-0.752347
C114	C	1.502171	0.169943	-0.252347
C115	C	1.048713	-0.373571	-0.790996
C116	C	1.548713	0.126429	-0.290996
C117	C	1.092110	-0.414173	-0.756157
C118	C	1.592110	0.085827	-0.256157
C119	C	1.088962	-0.411257	-0.682674
C120	C	1.588962	0.088743	-0.182674
C121	C	1.060464	-0.384482	-1.012963
C122	C	1.560464	0.115518	-0.512963
C123	C	1.063610	-0.387393	-1.086451
C124	C	1.563610	0.112607	-0.586451
C125	C	0.973669	-0.303277	-1.082636
C126	C	1.473669	0.196723	-0.582636
C127	C	0.970529	-0.300363	-1.009152
C128	C	1.470529	0.199637	-0.509152
C129	C	1.013923	-0.340967	-0.974319
C130	C	1.513923	0.159033	-0.474319
C131	C	1.051930	-0.376554	-0.866109
C132	C	1.551930	0.123446	-0.366109
C133	C	1.010703	-0.337987	-0.899207
C134	C	1.510703	0.162013	-0.399207
C135	C	1.023428	-0.350068	-0.199486
C136	C	1.523428	0.149932	0.300514
C137	C	1.020215	-0.346795	-0.121285
C138	C	1.520215	0.153205	0.378715
H139	H	0.303240	-0.444485	-0.475248
H140	H	0.803240	0.055515	0.024752
H141	H	0.952940	-0.596986	-0.460359
H142	H	1.452940	-0.096986	0.039641
H143	H	0.633531	-0.417729	-0.446697
H144	H	1.133531	0.082271	0.053303
H145	H	1.109590	-1.117097	-0.304297
H146	H	1.609590	-0.617097	0.195703
C147	C	0.940844	-1.126501	-0.472765
C148	C	1.440844	-0.626501	0.027235
N149	N	0.905138	-1.153740	-0.508430
N150	N	1.405138	-0.653740	-0.008430
C151	C	0.954440	-0.285389	-0.790662
C152	C	1.454440	0.214611	-0.290662
N153	N	0.918488	-0.251742	-0.819520
N154	N	1.418488	0.248258	-0.319520
H155	H	0.938340	-0.270220	-1.111005
H156	H	1.438340	0.229780	-0.611005
H157	H	1.109531	-0.997829	-0.304260
H158	H	1.609531	-0.497829	0.195740
H159	H	0.953108	-0.997836	-0.460436
H160	H	1.453108	-0.497836	0.039564
H161	H	0.972805	-0.302560	-0.867736
H162	H	1.472805	0.197440	-0.367736
C163	C	1.108239	-0.429115	-0.974658
C164	C	1.608239	0.070885	-0.474658
N165	N	1.144239	-0.462723	-0.945805
N166	N	1.644239	0.037277	-0.445805
C167	C	1.136704	-0.455916	-0.644357
C168	C	1.636704	0.044084	-0.144357
N169	N	1.172663	-0.489554	-0.615498
N170	N	1.672663	0.010446	-0.115498
C171	C	0.505589	-0.290157	-0.310606
C172	C	1.005589	0.209843	0.189394
N173	N	0.473555	-0.254064	-0.272100
N174	N	0.973555	0.245936	0.227900
H175	H	1.101514	-0.422828	-1.117917
H176	H	1.601514	0.077172	-0.617917
C177	C	1.143148	-0.462175	-0.798666
C178	C	1.643148	0.037825	-0.298666
N179	N	1.181535	-0.498379	-0.830681
N180	N	1.681535	0.001621	-0.330681
C181	C	0.919327	-0.252495	-0.966643
C182	C	1.419327	0.247505	-0.466643
N183	N	0.880761	-0.216440	-0.934626
N184	N	1.380761	0.283560	-0.434626
C185	C	0.947825	-0.279269	-0.636356
C186	C	1.447825	0.220731	-0.136356
N187	N	0.909257	-0.243215	-0.604341
N188	N	1.409257	0.256785	-0.104341
H189	H	1.089824	-0.411983	-0.897585
H190	H	1.589824	0.088017	-0.397585
H191	H	0.766836	-0.423049	-0.452358
H192	H	1.266836	0.076951	0.047642
H193	H	0.296306	-0.291710	-0.312283
H194	H	0.796306	0.208290	0.187717
C195	C	0.615539	-0.252510	-0.270447
C196	C	1.115539	0.247490	0.229553
N197	N	0.583512	-0.216414	-0.231939
N198	N	1.083512	0.283586	0.268061
C199	C	0.447602	-0.462254	-0.494193
C200	C	0.947602	0.037746	0.005807
N201	N	0.479624	-0.498357	-0.532696
N202	N	0.979624	0.001643	-0.032696
C203	C	0.769855	-0.258662	-0.277000
C204	C	1.269855	0.241338	0.223000
N205	N	0.798709	-0.224991	-0.241078
N206	N	1.298709	0.275009	0.258922
H207	H	0.546501	-0.412147	-0.440758
H208	H	1.046501	0.087853	0.059242
C209	C	1.121660	-0.587586	-0.291859
C210	C	1.621660	-0.087586	0.208141
N211	N	1.157357	-0.560354	-0.256177
N212	N	1.657357	-0.060354	0.243823
H213	H	0.429611	-0.297029	-0.317942
H214	H	0.929611	0.202971	0.182058
H215	H	1.109412	-0.716249	-0.304204
H216	H	1.609412	-0.216249	0.195796
H217	H	0.952991	-0.716260	-0.460375
H218	H	1.452991	-0.216260	0.039625
