data_functionalizedCrystal
_audit_creation_method	'MofGen! by Chris Wilmer'
_symmetry_space_group_name_H-M	'P1'
_symmetry_Int_Tables_number	1
_symmetry_cell_setting	triclinic
loop_
_symmetry_equiv_pos_as_xyz
  x,y,z
_cell_length_a	17.077404
_cell_length_b	12.759400
_cell_length_c	17.077383
_cell_angle_alpha	89.912237
_cell_angle_beta	89.941084
_cell_angle_gamma	90.014910
loop_
_atom_site_label
_atom_site_type_symbol
_atom_site_fract_x
_atom_site_fract_y
_atom_site_fract_z
Zn1	Zn	1.200405	-0.417615	-0.443860
Zn2	Zn	1.200240	-0.593506	-0.312600
Zn3	Zn	1.069046	-0.417843	-0.312607
Zn4	Zn	1.069123	-0.593253	-0.443824
O5	O	1.134704	-0.505554	-0.378223
O6	O	1.310230	-0.440958	-0.426460
O7	O	1.182736	-0.570405	-0.202754
O8	O	1.086508	-0.270791	-0.330036
O9	O	1.310109	-0.570185	-0.330024
O10	O	1.183016	-0.270624	-0.426467
O11	O	1.086348	-0.441346	-0.202759
O12	O	0.959210	-0.441101	-0.330001
O13	O	1.086639	-0.569754	-0.553676
O14	O	0.959266	-0.569974	-0.426406
O15	O	1.183091	-0.440713	-0.553702
O16	O	1.182811	-0.740494	-0.329989
O17	O	1.086480	-0.740308	-0.426399
C18	C	0.930756	-0.505535	-0.378201
C19	C	0.843506	-0.505553	-0.378210
C20	C	1.134657	-0.778522	-0.378206
C21	C	1.134709	-0.895298	-0.378225
C22	C	0.802566	-0.572758	-0.428327
C23	C	0.720585	-0.572761	-0.428340
C24	C	0.679547	-0.505562	-0.378231
C25	C	0.720493	-0.438348	-0.328111
C26	C	0.802472	-0.438342	-0.328103
C27	C	0.549623	-0.438369	-0.328130
C28	C	0.467638	-0.438377	-0.328137
C29	C	0.467736	-0.572788	-0.428367
C30	C	0.549715	-0.572781	-0.428359
C31	C	0.590656	-0.505569	-0.378238
C32	C	1.184924	-0.950222	-0.328080
C33	C	1.184973	-1.059946	-0.328105
C34	C	1.084583	-1.059813	-0.428421
C35	C	1.084540	-0.950091	-0.428400
C36	C	1.235094	-0.895430	-0.277906
C37	C	1.285312	-0.950354	-0.227756
C38	C	1.285361	-1.060078	-0.227780
C39	C	1.235190	-1.114878	-0.277954
C40	C	1.339448	-0.505574	-0.378245
C41	C	1.426698	-0.505583	-0.378254
C42	C	1.134892	-0.505180	-0.582967
C43	C	1.134972	-0.505020	-0.670217
C44	C	1.134772	-0.231521	-0.378256
C45	C	1.134801	-0.114744	-0.378271
C46	C	1.134561	-0.505852	-0.174274
C47	C	1.134633	-0.505716	-0.087025
C48	C	1.184789	-0.437416	0.288564
C49	C	1.184719	-0.437548	0.206583
C50	C	1.134837	-0.505289	0.165824
C51	C	1.085015	-0.572896	0.207048
C52	C	1.085081	-0.572758	0.289027
C53	C	1.084882	-0.573180	0.036179
C54	C	1.084817	-0.573319	-0.045806
C55	C	1.184520	-0.437970	-0.046265
C56	C	1.184586	-0.437832	0.035714
C57	C	1.134765	-0.505440	0.076933
H58	H	0.835974	-0.627483	-0.469130
H59	H	1.225412	-0.382257	0.321744
H60	H	0.687072	-0.383629	-0.287315
H61	H	1.044300	-0.628217	0.069737
C62	C	0.675554	-0.646751	-0.483421
H63	H	0.711737	-0.686799	-0.513241
H64	H	0.643596	-0.606635	-0.517696
H65	H	0.643558	-0.692504	-0.453288
C66	C	1.239521	-0.363189	0.161246
H67	H	1.269246	-0.322836	0.197262
H68	H	1.209234	-0.317753	0.129227
H69	H	1.273907	-0.403110	0.129286
H70	H	1.044507	-0.627797	0.322586
H71	H	0.434399	-0.627512	-0.469179
C72	C	1.239332	-0.363614	-0.091602
H73	H	1.232147	-0.373392	-0.146263
H74	H	1.292159	-0.378475	-0.078228
H75	H	1.227496	-0.293105	-0.078295
C76	C	1.235244	-1.235572	-0.277987
H77	H	1.198176	-1.260339	-0.315051
H78	H	1.221677	-1.260536	-0.227325
H79	H	1.285916	-1.260299	-0.291619
C80	C	0.847506	-0.364413	-0.272976
H81	H	0.811325	-0.324398	-0.243130
H82	H	0.879525	-0.318644	-0.303063
H83	H	0.879442	-0.404593	-0.238715
H84	H	0.583127	-0.627507	-0.469158
H85	H	1.044397	-0.628048	0.173855
C86	C	1.029943	-0.647826	-0.090641
H87	H	1.000272	-0.688061	-0.054352
H88	H	1.060180	-0.693367	-0.122581
H89	H	0.995509	-0.608009	-0.122640
H90	H	0.434226	-0.383645	-0.287343
H91	H	0.582954	-0.383628	-0.287324
H92	H	1.225210	-0.382677	0.068898
C93	C	1.340492	-0.890079	-0.172567
H94	H	1.333267	-0.816866	-0.179727
H95	H	1.393245	-0.907970	-0.184100
H96	H	1.328995	-0.908207	-0.119818
C97	C	1.235046	-0.774738	-0.277880
H98	H	1.272119	-0.749970	-0.240821
H99	H	1.184377	-0.750004	-0.264260
H100	H	1.248625	-0.749781	-0.328545
C101	C	1.340592	-1.120496	-0.172617
H102	H	1.333438	-1.193691	-0.179817
H103	H	1.329081	-1.102650	-0.119864
H104	H	1.393333	-1.102432	-0.184145
C105	C	1.029396	-1.120085	-0.483605
H106	H	0.999487	-1.071659	-0.513472
H107	H	0.995208	-1.162997	-0.453555
H108	H	1.059452	-1.162772	-0.517844
H109	H	1.043651	-0.905372	-0.469234
