data_functionalizedCrystal
_audit_creation_method	'MofGen! by Chris Wilmer'
_symmetry_space_group_name_H-M	'P1'
_symmetry_Int_Tables_number	1
_symmetry_cell_setting	triclinic
loop_
_symmetry_equiv_pos_as_xyz
  x,y,z
_cell_length_a	6.817900
_cell_length_b	10.773972
_cell_length_c	17.110486
_cell_angle_alpha	96.766728
_cell_angle_beta	99.060439
_cell_angle_gamma	96.646171
loop_
_atom_site_label
_atom_site_type_symbol
_atom_site_fract_x
_atom_site_fract_y
_atom_site_fract_z
V1	V	-3.942795	-0.172224	-0.245435
O2	O	-3.967088	0.008658	-0.242088
O3	O	-3.861050	-0.341859	-0.242482
O4	O	-3.873210	-0.169407	-0.353059
O5	O	-3.954843	-0.164987	-0.130746
V6	V	-4.433488	-0.150608	-0.231872
O7	O	-4.188323	-0.219640	-0.275187
O8	O	-4.638157	-0.103192	-0.202121
O9	O	-4.292027	0.019027	-0.234825
O10	O	-4.526592	-0.331491	-0.235219
O11	O	-4.538837	-0.157845	-0.346562
O12	O	-4.279866	-0.153425	-0.124248
C13	C	-3.698624	-0.383218	-0.238282
C14	C	-3.712933	-0.521895	-0.236585
C15	C	-3.905229	-0.733084	-0.237776
C16	C	-3.890445	-0.589754	-0.239535
C17	C	-3.714136	-0.163237	-0.379333
C18	C	-3.738306	-0.162056	-0.467308
C19	C	-3.929724	-0.167727	-0.512623
C20	C	-3.952422	-0.166617	-0.595285
C21	C	-3.783701	-0.159845	-0.632630
C22	C	-3.592267	-0.154169	-0.587308
C23	C	-3.569570	-0.155270	-0.504647
C24	C	-3.843222	-0.156200	-0.882012
C25	C	-3.865935	-0.155103	-0.964679
C26	C	-4.226089	-0.167549	-0.972650
C27	C	-4.203376	-0.168657	-0.889988
C28	C	-4.011944	-0.162975	-0.844673
C29	C	-3.806898	-0.158714	-0.717124
C30	C	-3.988748	-0.164097	-0.760180
C31	C	-4.117794	0.060379	-0.239024
C32	C	-4.082721	0.199055	-0.240726
C33	C	-4.102283	-0.159600	-0.097971
C34	C	-4.057353	-0.160774	-0.009995
H35	H	-4.067120	-0.173250	-0.482224
H36	H	-3.669530	-0.153204	-0.747540
O37	O	-3.383641	-0.149553	-0.460569
C38	C	-3.345225	-0.041312	-0.402578
H39	H	-3.444086	0.031348	-0.422815
H40	H	-3.379699	-0.068355	-0.343248
C41	C	-3.001723	-0.073940	-0.367182
C42	C	-3.123134	0.015307	-0.392042
H43	H	-2.864726	-0.039016	-0.360679
H44	H	-3.027605	-0.146866	-0.406250
H45	H	-3.030475	-0.096467	-0.317743
H46	H	-3.094399	0.037821	-0.441485
H47	H	-3.097242	0.088239	-0.352982
H48	H	-4.223734	-0.752933	-0.244556
O49	O	-4.138515	-0.172172	-0.639189
C50	C	-4.282559	-0.178351	-0.588499
H51	H	-4.218910	-0.217006	-0.532041
H52	H	-4.322025	-0.079848	-0.571728
C53	C	-4.550745	-0.218469	-0.701389
C54	C	-4.472577	-0.265956	-0.632050
H55	H	-4.667961	-0.272503	-0.728254
H56	H	-4.453701	-0.214302	-0.735541
H57	H	-4.583617	-0.136383	-0.687404
H58	H	-4.439683	-0.348033	-0.646037
H59	H	-4.569619	-0.270140	-0.597902
O60	O	-4.412102	-0.173293	-1.016660
C61	C	-4.530636	-0.285859	-1.008793
H62	H	-4.429179	-0.358367	-0.990667
H63	H	-4.626467	-0.265842	-0.961058
C64	C	-4.792328	-0.248856	-1.111430
C65	C	-4.667716	-0.337916	-1.089174
H66	H	-4.876893	-0.280965	-1.161011
H67	H	-4.712474	-0.173016	-1.116728
H68	H	-4.872169	-0.232183	-1.071644
H69	H	-4.587861	-0.354575	-1.128954
H70	H	-4.747560	-0.413760	-1.083884
H71	H	-3.764219	-0.781097	-0.233954
H72	H	-3.571908	-0.569902	-0.232762
H73	H	-4.031471	-0.541748	-0.243365
H74	H	-4.340770	-0.174170	-0.859588
H75	H	-3.728531	-0.149584	-0.995083
H76	H	-3.687356	-0.151618	-0.845130
H77	H	-3.454892	-0.148647	-0.617720
H78	H	-4.126117	-0.169607	-0.729769
