data_functionalizedCrystal
_audit_creation_method	'MofGen! by Chris Wilmer'
_symmetry_space_group_name_H-M	'P1'
_symmetry_Int_Tables_number	1
_symmetry_cell_setting	triclinic
loop_
_symmetry_equiv_pos_as_xyz
  x,y,z
_cell_length_a	19.188930
_cell_length_b	19.188930
_cell_length_c	17.666332
_cell_angle_alpha	90.011518
_cell_angle_beta	90.023564
_cell_angle_gamma	83.144779
loop_
_atom_site_label
_atom_site_type_symbol
_atom_site_fract_x
_atom_site_fract_y
_atom_site_fract_z
O1	O	-0.926150	-0.087169	-0.063200
O2	O	-0.722839	-0.098903	-0.063149
O3	O	-0.830361	0.008620	-0.063161
O4	O	-0.818627	-0.194691	-0.063188
O5	O	-0.830342	0.008625	0.062735
O6	O	-0.722819	-0.098898	0.062747
O7	O	-0.926130	-0.087163	0.062697
Cu8	Cu	-0.824473	-0.093030	0.074217
Cu9	Cu	-0.824496	-0.093036	-0.074670
O10	O	-0.818608	-0.194686	0.062709
C11	C	-0.696818	-0.098520	-0.000194
C12	C	-0.619313	-0.097380	-0.000174
C13	C	-0.829972	0.034634	-0.000211
C14	C	-0.828831	0.112138	-0.000204
C15	C	-0.952151	-0.087546	-0.000260
C16	C	-1.029656	-0.088687	-0.000285
C17	C	-0.574389	-0.160470	-0.000194
C18	C	-0.501566	-0.159399	-0.000203
C19	C	-0.473669	-0.095233	-0.000206
C20	C	-0.518603	-0.032133	-0.000181
C21	C	-0.591425	-0.033207	-0.000166
N22	N	-0.365696	-0.046187	-0.043078
N23	N	-0.296517	-0.045172	-0.043095
C24	C	-0.254260	-0.091994	-0.000252
N25	N	-0.283795	-0.139881	0.042599
N26	N	-0.352979	-0.140899	0.042612
C27	C	-0.394707	-0.094062	-0.000222
C28	C	-0.130372	-0.153928	-0.000280
C29	C	-0.057547	-0.152853	-0.000283
C30	C	-0.074586	-0.025586	-0.000270
C31	C	-0.147409	-0.026662	-0.000258
C32	C	-0.175298	-0.090835	-0.000267
C33	C	-0.818997	-0.220700	-0.000244
C34	C	-0.820138	-0.298204	-0.000255
N35	N	-0.824462	-0.093025	0.178937
C36	C	-0.891922	0.157062	-0.000216
C37	C	-0.890850	0.229886	-0.000228
C38	C	-0.826684	0.257782	-0.000212
C39	C	-0.763585	0.212849	-0.000205
C40	C	-0.764658	0.140026	-0.000200
N41	N	-0.777630	0.365789	0.042645
N42	N	-0.776615	0.434968	0.042642
C43	C	-0.823446	0.477191	-0.000227
N44	N	-0.871342	0.447624	-0.043084
N45	N	-0.872359	0.378439	-0.043079
C46	C	-0.825513	0.336745	-0.000218
C47	C	-0.885379	0.601079	-0.000253
C48	C	-0.884305	0.673904	-0.000270
C49	C	-0.757038	0.656865	-0.000239
C50	C	-0.758114	0.584042	-0.000230
C51	C	-0.822287	0.556154	-0.000233
C52	C	-0.872088	-0.045437	0.218541
C53	C	-0.872092	-0.045434	0.297789
C54	C	-0.824476	-0.093031	0.337429
C55	C	-0.776841	-0.140622	0.297815
C56	C	-0.776834	-0.140619	0.218569
N57	N	-0.815399	-0.154838	0.461841
N58	N	-0.815410	-0.154839	0.537121
C59	C	-0.824493	-0.093041	0.576193
N60	N	-0.833579	-0.031240	0.537140
N61	N	-0.833571	-0.031241	0.461853
C62	C	-0.824478	-0.093039	0.423358
C63	C	-0.872126	-0.045446	0.701727
C64	C	-0.872124	-0.045441	0.780976
C65	C	-0.776877	-0.140636	0.781000
C66	C	-0.776875	-0.140634	0.701753
C67	C	-0.824503	-0.093039	0.662121
N68	N	-0.824507	-0.093038	0.820610
H69	H	-0.597091	-0.212725	-0.000203
H70	H	-0.944176	0.134360	-0.000222
H71	H	-0.464982	-0.210776	-0.000217
C72	C	-0.724463	-0.192980	0.341415
C73	C	-0.724501	-0.193021	0.428582
C74	C	-0.672119	-0.245379	0.472181
C75	C	-0.619698	-0.297697	0.428612
C76	C	-0.619658	-0.297658	0.341439
C77	C	-0.672041	-0.245300	0.297841
H78	H	-0.763308	-0.154290	0.460839
H79	H	-0.672149	-0.245407	0.536712
H80	H	-0.580922	-0.336455	0.460886
H81	H	-0.580852	-0.336389	0.309182
H82	H	-0.672011	-0.245272	0.233310
H83	H	-0.020970	-0.204232	-0.000295
H84	H	-0.713281	0.103448	-0.000190
C85	C	-0.688712	0.534621	-0.000203
C86	C	-0.618128	0.565301	-0.000183
C87	C	-0.548723	0.515879	-0.000157
C88	C	-0.549901	0.435777	-0.000151
C89	C	-0.620487	0.405093	-0.000170
C90	C	-0.689892	0.454515	-0.000196
H91	H	-0.617254	0.624601	-0.000188
H92	H	-0.496470	0.538594	-0.000143
H93	H	-0.498523	0.399192	-0.000131
H94	H	-0.621361	0.345793	-0.000165
H95	H	-0.742145	0.431800	-0.000210
H96	H	-0.937632	0.578372	-0.000259
C97	C	-0.924471	0.006920	0.174944
C98	C	-0.976859	0.059273	0.218511
C99	C	-1.029239	0.111631	0.174910
C100	C	-1.029231	0.111637	0.087742
C101	C	-0.976841	0.059282	0.044171
C102	C	-0.924461	0.006924	0.087771
H103	H	-0.976866	0.059270	0.283042
H104	H	-1.068021	0.150387	0.207165
H105	H	-1.068006	0.150395	0.055467
H106	H	-0.976834	0.059285	-0.020360
H107	H	-0.885679	-0.031832	0.055516
C108	C	-0.924509	0.006913	0.658127
C109	C	-0.976890	0.059268	0.701698
C110	C	-1.029273	0.111627	0.658102
C111	C	-1.029274	0.111631	0.570934
C112	C	-0.976891	0.059274	0.527358
C113	C	-0.924508	0.006915	0.570954
H114	H	-0.976891	0.059267	0.766229
H115	H	-1.068051	0.150385	0.690361
H116	H	-1.068051	0.150391	0.538662
H117	H	-0.976890	0.059275	0.462827
H118	H	-0.885730	-0.031843	0.538696
C119	C	-0.960254	0.279314	-0.000234
C120	C	-1.030840	0.248638	-0.000236
C121	C	-1.100243	0.298064	-0.000239
C122	C	-1.099060	0.378165	-0.000240
C123	C	-1.028472	0.408845	-0.000237
C124	C	-0.959068	0.359420	-0.000234
H125	H	-1.031717	0.189339	-0.000236
H126	H	-1.152497	0.275353	-0.000241
H127	H	-1.150436	0.414753	-0.000242
H128	H	-1.027594	0.468145	-0.000238
H129	H	-0.906814	0.382131	-0.000232
C130	C	-0.724497	-0.192992	0.824596
C131	C	-0.724548	-0.193041	0.911764
C132	C	-0.672165	-0.245397	0.955364
C133	C	-0.619730	-0.297702	0.911797
C134	C	-0.619677	-0.297655	0.824625
C135	C	-0.672061	-0.245299	0.781024
H136	H	-0.763365	-0.154320	0.944019
H137	H	-0.672204	-0.245432	1.019895
H138	H	-0.580953	-0.336459	0.944073
H139	H	-0.580860	-0.336376	0.792370
H140	H	-0.672021	-0.245264	0.716493
C141	C	-0.693002	0.243532	-0.000188
C142	C	-0.674750	0.291265	0.065189
C143	C	-0.604164	0.321947	0.065201
C144	C	-0.551830	0.304898	-0.000164
C145	C	-0.570080	0.257163	-0.065546
C146	C	-0.640666	0.226480	-0.065558
H147	H	-0.713492	0.303888	0.113581
H148	H	-0.590654	0.357284	0.113602
H149	H	-0.499578	0.327611	-0.000156
H150	H	-0.531338	0.244539	-0.113938
H151	H	-0.654176	0.191143	-0.113959
H152	H	-0.495885	0.020111	-0.000194
H153	H	-0.628003	0.018171	-0.000150
C154	C	-0.196831	0.042740	-0.000249
C155	C	-0.166151	0.113323	-0.000254
C156	C	-0.215573	0.182729	-0.000242
C157	C	-0.295675	0.181551	-0.000226
C158	C	-0.326359	0.110965	-0.000221
C159	C	-0.276937	0.041559	-0.000233
H160	H	-0.106851	0.114197	-0.000266
H161	H	-0.192858	0.234981	-0.000246
H162	H	-0.332260	0.232929	-0.000218
H163	H	-0.385659	0.110090	-0.000209
H164	H	-0.299652	-0.010693	-0.000229
H165	H	-0.935683	0.710481	-0.000284
H166	H	-0.704792	0.679578	-0.000230
H167	H	-0.153080	-0.206181	-0.000276
H168	H	-0.910876	-0.006681	0.330041
H169	H	-0.051874	0.026659	-0.000319
H170	H	-0.738050	-0.179372	0.186322
H171	H	-0.910905	-0.006686	0.813222
H172	H	-0.738096	-0.179387	0.669505
