data_functionalizedCrystal
_audit_creation_method	'MofGen! by Chris Wilmer'
_symmetry_space_group_name_H-M	'P1'
_symmetry_Int_Tables_number	1
_symmetry_cell_setting	triclinic
loop_
_symmetry_equiv_pos_as_xyz
  x,y,z
_cell_length_a	21.295417
_cell_length_b	12.759401
_cell_length_c	12.759393
_cell_angle_alpha	89.981425
_cell_angle_beta	89.960780
_cell_angle_gamma	90.030933
loop_
_atom_site_label
_atom_site_type_symbol
_atom_site_fract_x
_atom_site_fract_y
_atom_site_fract_z
Zn1	Zn	-0.250565	1.606140	-0.593929
Zn2	Zn	-0.355849	1.605986	-0.418226
Zn3	Zn	-0.250598	1.430442	-0.418268
Zn4	Zn	-0.355801	1.430382	-0.593867
O5	O	-0.303203	1.518237	-0.506073
O6	O	-0.264537	1.753140	-0.570630
O7	O	-0.341921	1.582660	-0.271210
O8	O	-0.162504	1.453838	-0.441614
O9	O	-0.341889	1.753027	-0.441542
O10	O	-0.162480	1.582922	-0.570671
O11	O	-0.264594	1.453689	-0.271242
O12	O	-0.264547	1.283413	-0.441553
O13	O	-0.341807	1.453736	-0.740896
O14	O	-0.341839	1.283369	-0.570565
O15	O	-0.264490	1.582864	-0.740942
O16	O	-0.443932	1.582602	-0.441482
O17	O	-0.443896	1.453586	-0.570524
C18	C	-0.303192	1.245270	-0.506058
C19	C	-0.303203	1.128493	-0.506076
C20	C	-0.262998	1.073691	-0.573396
C21	C	-0.263005	0.963967	-0.573403
C22	C	-0.343425	0.963857	-0.438767
C23	C	-0.343415	1.073579	-0.438756
C24	C	-0.188806	0.814080	-0.611188
C25	C	-0.148607	0.759274	-0.678524
C26	C	-0.139012	0.794935	-0.781065
C27	C	-0.169624	0.885401	-0.816290
C28	C	-0.209828	0.940201	-0.748959
C29	C	-0.219411	0.904542	-0.646404
C30	C	-0.417615	1.223467	-0.400982
C31	C	-0.457822	1.278270	-0.333656
C32	C	-0.467424	1.242611	-0.231113
C33	C	-0.436823	1.152142	-0.195892
C34	C	-0.396616	1.097339	-0.263218
C35	C	-0.387013	1.133006	-0.365759
C36	C	-0.466755	1.518099	-0.506014
C37	C	-0.536723	1.518137	-0.506025
C38	C	-0.569587	1.585375	-0.438901
C39	C	-0.635329	1.585424	-0.438925
C40	C	-0.668205	1.518216	-0.506061
C41	C	-0.635333	1.450974	-0.573198
C42	C	-0.569592	1.450934	-0.573180
N43	N	-0.771471	1.426309	-0.514065
N44	N	-0.833922	1.426350	-0.514076
C45	C	-0.866280	1.518334	-0.506121
N46	N	-0.833827	1.610278	-0.498134
N47	N	-0.771370	1.610236	-0.498117
C48	C	-0.739491	1.518253	-0.506089
C49	C	-0.970430	1.585631	-0.439019
C50	C	-1.036173	1.585682	-0.439051
C51	C	-1.036176	1.451222	-0.573318
C52	C	-0.970433	1.451181	-0.573293
C53	C	-0.937564	1.518384	-0.506138
C54	C	-0.139013	1.518404	-0.506154
C55	C	-0.069045	1.518475	-0.506189
C56	C	-0.303139	1.518310	-0.780106
C57	C	-0.303112	1.518342	-0.896883
C58	C	-0.303214	1.792270	-0.506088
C59	C	-0.303219	1.909047	-0.506095
C60	C	-0.262841	1.451211	-0.951761
C61	C	-0.262821	1.451235	-1.061485
C62	C	-0.343347	1.585531	-1.061444
C63	C	-0.343369	1.585500	-0.951722
C64	C	-0.240293	1.327395	-1.211442
C65	C	-0.200012	1.260273	-1.266324
C66	C	-0.138595	1.244197	-1.230748
C67	C	-0.117448	1.295258	-1.140293
C68	C	-0.157726	1.362388	-1.085417
C69	C	-0.219151	1.378444	-1.120991
C70	C	-0.365891	1.709342	-0.801762
C71	C	-0.406166	1.776478	-0.746884
C72	C	-0.467583	1.792565	-0.782458
C73	C	-0.488729	1.741522	-0.872917
C74	C	-0.448453	1.674386	-0.927795
C75	C	-0.387036	1.658297	-0.892213
C76	C	-0.303221	1.518224	-0.233105
C77	C	-0.303071	1.518397	-0.116329
H78	H	-0.376165	0.919133	-0.383959
N79	N	-0.534137	1.657870	-0.366486
H80	H	-0.506815	1.706515	-0.409224
H81	H	-0.506943	1.615114	-0.317767
N82	N	-0.670787	1.657949	-0.366526
H83	H	-0.639988	1.700515	-0.323983
H84	H	-0.698110	1.615217	-0.317882
H85	H	-0.290306	1.340466	-1.240409
N86	N	-0.222818	1.205197	-1.363880
H87	H	-0.267842	1.225553	-1.378086
H88	H	-0.220073	1.126872	-1.353405
N89	N	-0.134928	1.417457	-0.987858
H90	H	-0.137629	1.495799	-0.998261
H91	H	-0.089916	1.397013	-0.973698
N92	N	-0.199146	0.775611	-0.500586
H93	H	-0.245146	0.759556	-0.489797
H94	H	-0.185529	0.831551	-0.449424
H95	H	-0.230253	1.118398	-0.628210
N96	N	-0.511032	1.864965	-0.723270
H97	H	-0.524768	1.923977	-0.770775
H98	H	-0.488289	1.894793	-0.660568
H99	H	-0.482731	1.351945	-0.362336
N100	N	-0.383358	1.831542	-0.649323
H101	H	-0.418189	1.876519	-0.619964
H102	H	-0.346112	1.877148	-0.667388
H103	H	-0.943674	1.396425	-0.627947
H104	H	-0.234749	1.013860	-0.777637
N105	N	-0.471253	1.619320	-1.025360
H106	H	-0.484131	1.673067	-1.079344
H107	H	-0.508468	1.573645	-1.007291
H108	H	-0.067434	1.282173	-1.111341
N109	N	-0.386767	1.657959	-1.120591
H110	H	-0.380643	1.647794	-1.198428
H111	H	-0.376982	1.733000	-1.101423
H112	H	-0.500182	1.287221	-0.176309
N113	N	-0.363608	0.999760	-0.225235
H114	H	-0.375791	0.985481	-0.150058
H115	H	-0.316680	1.010258	-0.229939
H116	H	-0.943666	1.640355	-0.384341
H117	H	-0.538739	1.754625	-0.901886
N118	N	-0.095148	1.171801	-1.289936
H119	H	-0.117863	1.141897	-1.352634
H120	H	-0.081424	1.112847	-1.242355
N121	N	-0.299646	1.691981	-0.763387
H122	H	-0.292361	1.734511	-0.697761
H123	H	-0.268959	1.714595	-0.819395
N124	N	-0.407251	1.261936	-0.511582
H125	H	-0.432742	1.327558	-0.523680
H126	H	-0.420812	1.205962	-0.562748
H127	H	-0.161813	0.914422	-0.899794
N128	N	-0.670787	1.378487	-0.645613
H129	H	-0.717422	1.388712	-0.635437
H130	H	-0.659343	1.303455	-0.629194
H131	H	-0.444644	1.123104	-0.112395
H132	H	-0.542833	1.396179	-0.627841
H133	H	-0.106280	0.750304	-0.835891
N134	N	-0.115589	0.661706	-0.640537
H135	H	-0.127760	0.647434	-0.565353
H136	H	-0.068662	0.672209	-0.645260
H137	H	-1.062930	1.640442	-0.384392
N138	N	-0.219426	1.378766	-0.892622
H139	H	-0.245014	1.330039	-0.847080
H140	H	-0.190270	1.421550	-0.847180
N141	N	-1.071625	1.378740	-0.645740
H142	H	-1.118259	1.388970	-0.635570
H143	H	-1.060184	1.303707	-0.629321
