data_functionalizedCrystal
_audit_creation_method	'MofGen! by Chris Wilmer'
_symmetry_space_group_name_H-M	'P1'
_symmetry_Int_Tables_number	1
_symmetry_cell_setting	triclinic
loop_
_symmetry_equiv_pos_as_xyz
  x,y,z
_cell_length_a	14.853567
_cell_length_b	17.666332
_cell_length_c	14.853567
_cell_angle_alpha	90.001410
_cell_angle_beta	83.634930
_cell_angle_gamma	90.006282
loop_
_atom_site_label
_atom_site_type_symbol
_atom_site_fract_x
_atom_site_fract_y
_atom_site_fract_z
O1	O	1.196371	0.062890	0.117704
O2	O	0.933911	0.062902	0.131725
O3	O	1.072152	0.062898	-0.006515
O4	O	1.058131	0.062894	0.255945
O5	O	1.072128	-0.062999	-0.006519
O6	O	0.933887	-0.062995	0.131721
O7	O	1.196347	-0.063007	0.117700
Cu8	Cu	1.065115	-0.074496	0.124710
Cu9	Cu	1.065143	0.074391	0.124715
O10	O	1.058106	-0.063003	0.255940
C11	C	0.900311	-0.000045	0.131088
C12	C	0.800227	-0.000040	0.129184
N13	N	1.065101	-0.179216	0.124706
C14	C	0.387693	-0.000056	0.039019
C15	C	0.366412	-0.000057	0.203251
C16	C	0.460446	-0.000055	0.205041
C17	C	0.518108	-0.000052	0.123819
C18	C	0.481736	-0.000051	0.040806
C19	C	0.496825	-0.000048	0.288053
C20	C	0.590864	-0.000045	0.289846
C21	C	0.648528	-0.000047	0.208623
C22	C	0.612150	-0.000047	0.125607
C23	C	0.669812	-0.000044	0.044384
C24	C	0.633437	-0.000049	-0.038633
C25	C	0.539399	-0.000053	-0.040417
C26	C	0.742565	-0.000043	0.210407
C27	C	0.763855	-0.000039	0.046172
C28	C	1.119838	-0.218823	0.179490
C29	C	1.119852	-0.298070	0.179488
C30	C	1.065113	-0.337708	0.124712
C31	C	1.010373	-0.298091	0.069917
C32	C	1.010366	-0.218845	0.069914
N33	N	0.986146	-0.462144	0.122151
N34	N	0.986154	-0.537424	0.122158
C35	C	1.065129	-0.576472	0.124715
N36	N	1.144097	-0.537396	0.127281
N37	N	1.144088	-0.462108	0.127278
C38	C	1.065114	-0.423637	0.124708
C39	C	1.119887	-0.702008	0.179499
C40	C	1.119903	-0.781257	0.179490
C41	C	1.010415	-0.781277	0.069924
C42	C	1.010407	-0.702029	0.069928
C43	C	1.065141	-0.662400	0.124720
C44	C	1.229947	-0.000059	0.118337
C45	C	1.330031	-0.000059	0.120241
C46	C	1.071504	-0.000048	-0.040106
C47	C	1.069601	-0.000042	-0.140189
N48	N	1.065164	0.179110	0.124712
C49	C	0.979435	-0.000052	-0.552723
C50	C	1.143668	-0.000060	-0.574004
C51	C	1.145458	-0.000055	-0.479971
C52	C	1.064235	-0.000050	-0.422309
C53	C	0.981223	-0.000050	-0.458680
C54	C	1.228469	-0.000063	-0.443591
C55	C	1.230262	-0.000060	-0.349552
C56	C	1.149039	-0.000050	-0.291889
C57	C	1.066023	-0.000048	-0.328266
C58	C	0.984800	-0.000043	-0.270604
C59	C	0.901783	-0.000037	-0.306979
C60	C	0.899999	-0.000040	-0.401017
C61	C	1.150823	-0.000047	-0.197851
C62	C	0.986588	-0.000041	-0.176561
C63	C	1.058754	-0.000055	0.289531
C64	C	1.060657	-0.000057	0.389615
H65	H	0.810798	-0.000040	-0.019971
H66	H	1.218414	-0.000057	-0.168238
Cl67	Cl	1.330570	-0.000086	-0.516083
Cl68	Cl	1.334624	-0.000056	-0.303832
Cl69	Cl	0.293923	-0.000051	0.305354
Cl70	Cl	0.941573	-0.652235	0.001070
H71	H	0.680397	-0.000042	-0.104764
H72	H	0.358072	-0.000063	-0.028572
Cl73	Cl	0.493664	-0.000055	-0.144771
H74	H	0.911844	-0.000044	-0.582344
H75	H	0.832411	-0.000035	-0.430643
H76	H	0.965804	-0.330369	0.025317
H77	H	1.209795	-0.000070	-0.620958
H78	H	0.620472	-0.000040	0.357443
Cl79	Cl	0.424333	-0.000039	0.390154
H80	H	0.772178	-0.000040	0.277998
Cl81	Cl	0.799679	-0.000037	-0.234480
Cl82	Cl	1.188629	-0.169007	0.248389
Cl83	Cl	1.188670	-0.347873	0.248364
Cl84	Cl	0.941543	-0.169051	0.001043
H85	H	1.164483	-0.813504	0.224099
Cl86	Cl	1.188714	-0.652185	0.248359
Cl87	Cl	0.941609	-0.831100	0.001051
Cl88	Cl	0.884473	-0.000029	-0.104079
