data_functionalizedCrystal
_audit_creation_method	'MofGen! by Chris Wilmer'
_symmetry_space_group_name_H-M	'P1'
_symmetry_Int_Tables_number	1
_symmetry_cell_setting	triclinic
loop_
_symmetry_equiv_pos_as_xyz
  x,y,z
_cell_length_a	19.188905
_cell_length_b	19.188925
_cell_length_c	18.266242
_cell_angle_alpha	89.993996
_cell_angle_beta	89.983837
_cell_angle_gamma	83.138552
loop_
_atom_site_label
_atom_site_type_symbol
_atom_site_fract_x
_atom_site_fract_y
_atom_site_fract_z
O1	O	0.926159	0.087086	-0.061001
O2	O	0.722845	0.098838	-0.060976
O3	O	0.830371	-0.008694	-0.060985
O4	O	0.818633	0.194618	-0.060992
O5	O	0.830353	-0.008700	0.060777
O6	O	0.722827	0.098833	0.060786
O7	O	0.926141	0.087080	0.060761
Zn8	Zn	0.824481	0.092956	0.080106
Zn9	Zn	0.824505	0.092963	-0.080321
O10	O	0.818614	0.194613	0.060770
C11	C	0.696824	0.098458	-0.000092
C12	C	0.619319	0.097324	-0.000082
C13	C	0.829982	-0.034708	-0.000105
C14	C	0.828843	-0.112213	-0.000106
C15	C	0.884308	-0.673988	-0.000131
C16	C	0.885384	-0.601165	-0.000125
C17	C	0.822291	-0.556225	-0.000117
C18	C	0.758117	-0.584113	-0.000097
C19	C	0.757043	-0.656935	-0.000096
N20	N	0.776621	-0.435538	-0.041556
N21	N	0.777646	-0.366361	-0.041558
C22	C	0.825526	-0.336816	-0.000118
N23	N	0.872352	-0.379063	0.041316
N24	N	0.871328	-0.448247	0.041315
C25	C	0.823450	-0.477261	-0.000118
C26	C	0.890863	-0.229973	-0.000126
C27	C	0.891937	-0.157148	-0.000115
C28	C	0.764668	-0.140097	-0.000095
C29	C	0.763596	-0.212921	-0.000098
C30	C	0.826695	-0.257855	-0.000117
C31	C	0.582937	0.096783	-0.066456
C32	C	0.510113	0.095710	-0.066465
C33	C	0.473676	0.095164	-0.000096
C34	C	0.510066	0.095710	0.066287
C35	C	0.582888	0.096790	0.066294
N36	N	0.364650	0.053733	0.049297
N37	N	0.295473	0.052706	0.049286
C38	C	0.254270	0.091911	-0.000114
N39	N	0.284858	0.132175	-0.049513
N40	N	0.354042	0.133199	-0.049504
C41	C	0.394714	0.093993	-0.000097
C42	C	0.138924	0.090207	-0.066503
C43	C	0.066099	0.089139	-0.066509
C44	C	0.066054	0.089132	0.066245
C45	C	0.138877	0.090207	0.066249
C46	C	0.175308	0.090742	-0.000126
C47	C	0.952161	0.087461	-0.000125
C48	C	1.029666	0.088594	-0.000139
C49	C	0.819003	0.220627	-0.000112
C50	C	0.820142	0.298131	-0.000116
N51	N	0.824469	0.092950	0.189593
N52	N	0.824521	0.092963	-0.189808
C53	C	0.872098	0.045358	0.227898
C54	C	0.872102	0.045355	0.304543
C55	C	0.824485	0.092956	0.342880
C56	C	0.776848	0.140552	0.304566
C57	C	0.776840	0.140549	0.227922
N58	N	0.815408	0.154764	0.463211
N59	N	0.815420	0.154765	0.536019
C60	C	0.824504	0.092966	0.573802
N61	N	0.833591	0.031165	0.536027
N62	N	0.833583	0.031165	0.463212
C63	C	0.824488	0.092964	0.425987
C64	C	0.872140	0.045366	0.695214
C65	C	0.872140	0.045362	0.771860
C66	C	0.776889	0.140565	0.771882
C67	C	0.776886	0.140563	0.695237
C68	C	0.824515	0.092964	0.656908
H69	H	0.935689	-0.710569	-0.000143
H70	H	0.738076	0.179308	0.335784
C71	C	0.469984	0.095109	0.139293
N72	N	0.439794	0.094658	0.194284
C73	C	0.924526	-0.006999	0.653049
N74	N	0.963983	-0.046442	0.621293
H75	H	0.036387	0.088692	0.120284
H76	H	0.910922	0.006603	0.803049
H77	H	0.738116	0.179320	0.803096
H78	H	0.944190	-0.134450	-0.000123
C79	C	0.724541	0.192969	0.653100
N80	N	0.685128	0.232460	0.621363
C81	C	0.924485	-0.007009	0.185740
N82	N	0.963941	-0.046454	0.153985
C83	C	0.693007	-0.243590	-0.000090
N84	N	0.639837	-0.266690	-0.000083
H85	H	0.168500	0.090644	0.120299
H86	H	0.612595	0.097218	-0.120505
C87	C	0.955974	-0.570489	-0.000149
N88	N	1.009143	-0.547386	-0.000169
C89	C	0.470086	0.095109	-0.139485
N90	N	0.439940	0.094655	-0.194484
C91	C	0.924506	-0.006996	0.346686
N92	N	0.963979	-0.046423	0.378427
C93	C	0.622910	0.097380	0.139314
N94	N	0.653056	0.097821	0.194314
H95	H	0.706747	-0.547518	-0.000089
C96	C	0.724473	0.192937	0.185786
N97	N	0.685041	0.232407	0.154047
H98	H	0.704790	-0.679634	-0.000082
H99	H	0.942242	-0.266560	-0.000141
H100	H	0.713296	-0.103508	-0.000082
C101	C	0.178999	0.090808	-0.139517
N102	N	0.209181	0.091263	-0.194512
H103	H	0.036477	0.088702	-0.120561
