data_functionalizedCrystal
_audit_creation_method	'MofGen! by Chris Wilmer'
_symmetry_space_group_name_H-M	'P1'
_symmetry_Int_Tables_number	1
_symmetry_cell_setting	triclinic
loop_
_symmetry_equiv_pos_as_xyz
  x,y,z
_cell_length_a	18.215407
_cell_length_b	18.215404
_cell_length_c	18.215399
_cell_angle_alpha	89.972485
_cell_angle_beta	90.019833
_cell_angle_gamma	89.975729
loop_
_atom_site_label
_atom_site_type_symbol
_atom_site_fract_x
_atom_site_fract_y
_atom_site_fract_z
Zn1	Zn	1.125077	0.292983	0.416118
Zn2	Zn	1.124988	0.416054	0.293053
Zn3	Zn	1.002010	0.293007	0.293065
Zn4	Zn	1.001978	0.416013	0.416078
O5	O	1.063513	0.354514	0.354578
O6	O	1.228050	0.309316	0.399805
O7	O	1.108651	0.399759	0.190070
O8	O	1.018386	0.190020	0.309411
O9	O	1.227984	0.399736	0.309389
O10	O	1.108803	0.190002	0.399817
O11	O	1.018299	0.309357	0.190079
O12	O	0.899021	0.309317	0.309372
O13	O	1.018332	0.399666	0.519067
O14	O	0.898998	0.399689	0.399748
O15	O	1.108772	0.309276	0.519097
O16	O	1.108620	0.519033	0.309350
O17	O	1.018245	0.519003	0.399736
C18	C	0.872307	0.354502	0.354557
C19	C	0.790508	0.354514	0.354566
C20	C	0.602321	0.401645	0.401566
C21	C	0.525463	0.401647	0.401575
C22	C	0.525457	0.307397	0.307607
C23	C	0.602315	0.307392	0.307602
C24	C	0.640745	0.354520	0.354581
C25	C	0.487029	0.354528	0.354595
C26	C	0.403695	0.354530	0.354604
C27	C	0.724084	0.354517	0.354572
C28	C	1.063439	0.545721	0.354553
C29	C	1.063475	0.627520	0.354567
C30	C	1.110647	0.815705	0.307600
C31	C	1.110681	0.892563	0.307622
C32	C	1.016492	0.892572	0.401663
C33	C	1.016462	0.815715	0.401644
C34	C	1.063539	0.777283	0.354609
C35	C	1.063603	0.930999	0.354649
C36	C	1.063640	1.014333	0.354673
C37	C	1.063503	0.693944	0.354585
C38	C	1.255466	0.354528	0.354600
C39	C	1.337265	0.354533	0.354609
C40	C	1.063558	0.354464	0.546531
C41	C	1.063577	0.354442	0.628330
C42	C	1.063613	1.162561	0.354633
C43	C	1.063667	1.080763	0.354691
C44	C	1.063511	0.354512	0.163372
C45	C	1.063635	0.354326	0.081574
C46	C	1.110687	0.307332	0.816541
C47	C	1.110695	0.307311	0.893400
C48	C	1.016520	0.401438	0.893358
C49	C	1.016508	0.401455	0.816500
C50	C	1.063596	0.354403	0.778094
C51	C	1.063616	0.354365	0.931810
C52	C	1.063625	0.354342	1.015144
C53	C	1.063586	0.354425	0.694755
H54	H	0.494182	0.440020	0.439836
H55	H	0.633600	0.269012	0.269341
C56	C	1.162435	0.773429	0.255868
C57	C	1.214257	0.815696	0.204162
C58	C	1.266048	0.773423	0.152430
C59	C	1.266018	0.688883	0.152404
C60	C	1.214194	0.646611	0.204111
C61	C	1.162403	0.688884	0.255843
H62	H	1.214281	0.878282	0.204180
H63	H	1.304411	0.804715	0.114153
H64	H	1.304357	0.657589	0.114109
H65	H	1.214170	0.584025	0.204093
H66	H	1.124040	0.657592	0.294120
H67	H	0.978156	0.439786	0.785196
C68	C	1.162501	0.934826	0.255909
C69	C	1.156540	0.924327	0.172239
C70	C	1.208364	0.966589	0.120526
C71	C	1.266149	1.019350	0.152483
C72	C	1.272112	1.029852	0.236157
C73	C	1.220288	0.987590	0.287871
H74	H	1.113762	0.885267	0.148579
H75	H	1.203949	0.958814	0.058584
H76	H	1.304512	1.050635	0.114202
H77	H	1.314890	1.068911	0.259818
H78	H	1.224703	0.995365	0.349812
H79	H	0.978164	0.923873	0.439957
C80	C	0.964639	0.773446	0.453358
C81	C	0.906863	0.720675	0.421401
C82	C	0.855044	0.678406	0.473114
C83	C	0.861002	0.688909	0.556784
C84	C	0.918780	0.741682	0.588745
C85	C	0.970599	0.783951	0.537032
H86	H	0.902450	0.712898	0.359459
H87	H	0.812273	0.639340	0.449453
H88	H	0.822642	0.657619	0.595065
H89	H	0.923192	0.749459	0.650687
H90	H	1.013370	0.823017	0.560692
H91	H	0.633609	0.440018	0.439820
C92	C	1.162476	0.255571	0.774294
C93	C	1.220235	0.287470	0.721461
C94	C	1.272024	0.235705	0.679217
C95	C	1.266054	0.152041	0.689804
C96	C	1.208292	0.120138	0.742639
C97	C	1.156503	0.171902	0.784884
H98	H	1.224657	0.349407	0.713621
H99	H	1.314783	0.259323	0.640105
H100	H	1.304392	0.113722	0.658532
H101	H	1.203871	0.058201	0.750479
H102	H	1.113744	0.148285	0.823996
H103	H	1.149040	0.268979	0.924700
H104	H	0.494158	0.269028	0.269358
H105	H	0.978185	0.439748	0.924637
