data_functionalizedCrystal
_audit_creation_method	'MofGen! by Chris Wilmer'
_symmetry_space_group_name_H-M	'P1'
_symmetry_Int_Tables_number	1
_symmetry_cell_setting	triclinic
loop_
_symmetry_equiv_pos_as_xyz
  x,y,z
_cell_length_a	12.759401
_cell_length_b	29.839131
_cell_length_c	29.839125
_cell_angle_alpha	89.988394
_cell_angle_beta	89.989284
_cell_angle_gamma	90.041581
loop_
_atom_site_label
_atom_site_type_symbol
_atom_site_fract_x
_atom_site_fract_y
_atom_site_fract_z
Zn1	Zn	1.605979	-0.178941	-0.253970
Zn2	Zn	1.605816	-0.254045	-0.178840
Zn3	Zn	1.430305	-0.178931	-0.178857
Zn4	Zn	1.430188	-0.254045	-0.253946
O5	O	1.518072	-0.216491	-0.216403
O6	O	1.752979	-0.188909	-0.244008
O7	O	1.582514	-0.244077	-0.115975
O8	O	1.453726	-0.116065	-0.188838
O9	O	1.752858	-0.244087	-0.188810
O10	O	1.582793	-0.116073	-0.244024
O11	O	1.453568	-0.188890	-0.115987
O12	O	1.283269	-0.188890	-0.188814
O13	O	1.453527	-0.244087	-0.316816
O14	O	1.283183	-0.244077	-0.243981
O15	O	1.582680	-0.188909	-0.316834
O16	O	1.582401	-0.316913	-0.188786
O17	O	1.453368	-0.316913	-0.243965
C18	C	1.245105	-0.216482	-0.216397
C19	C	1.128328	-0.216490	-0.216405
C20	C	1.073449	-0.245271	-0.245083
C21	C	0.963725	-0.245277	-0.245088
C22	C	0.963769	-0.187718	-0.187733
C23	C	1.073491	-0.187711	-0.187731
C24	C	1.073422	-0.278504	-0.278196
C25	C	0.963698	-0.278510	-0.278200
C26	C	1.517882	-0.333213	-0.216381
C27	C	1.517897	-0.383148	-0.216386
C28	C	1.585382	-0.692778	-0.187713
C29	C	1.585511	-0.880452	-0.187731
O30	O	1.642738	-0.904706	-0.163334
N31	N	1.518290	-0.903933	-0.216437
C32	C	1.451036	-0.880493	-0.245143
O33	O	1.393871	-0.904771	-0.269564
C34	C	1.450913	-0.692821	-0.245128
C35	C	1.518131	-0.669342	-0.216416
C36	C	1.652595	-0.669300	-0.159004
C37	C	1.652558	-0.622384	-0.158998
C38	C	1.585307	-0.598948	-0.187702
C39	C	1.518094	-0.622426	-0.216410
C40	C	1.383665	-0.669382	-0.273836
C41	C	1.383642	-0.622461	-0.273830
C42	C	1.450860	-0.598982	-0.245119
C43	C	1.450806	-0.552074	-0.245108
N44	N	1.518027	-0.528593	-0.216401
C45	C	1.585278	-0.552030	-0.187698
C46	C	1.451105	-0.979023	-0.245149
C47	C	1.451134	-1.025941	-0.245152
C48	C	1.585611	-1.025897	-0.187740
C49	C	1.585575	-0.978978	-0.187735
C50	C	1.518326	-0.955542	-0.216442
C51	C	1.585194	-0.453504	-0.187688
C52	C	1.585148	-0.406584	-0.187683
C53	C	1.450676	-0.406633	-0.245097
C54	C	1.450718	-0.453548	-0.245100
C55	C	1.517985	-0.476983	-0.216394
O56	O	1.393617	-0.527791	-0.269495
O57	O	1.642451	-0.527743	-0.163289
C58	C	1.585419	-0.739694	-0.187719
C59	C	1.518205	-0.763173	-0.216428
C60	C	1.450955	-0.739736	-0.245131
C61	C	1.518235	-0.810091	-0.216431
C62	C	1.585485	-0.833527	-0.187728
C63	C	1.652707	-0.810046	-0.159022
C64	C	1.652670	-0.763131	-0.159016
C65	C	1.383733	-0.763217	-0.273837
C66	C	1.383775	-0.810133	-0.273840
C67	C	1.451026	-0.833569	-0.245137
C68	C	1.792105	-0.216499	-0.216410
C69	C	1.908882	-0.216503	-0.216412
C70	C	1.518109	-0.216499	-0.333582
C71	C	1.518124	-0.216503	-0.383516
C72	C	1.518291	-0.099312	-0.216435
C73	C	1.518385	-0.049378	-0.216449
C74	C	1.450947	-0.245131	-0.740094
C75	C	1.450909	-0.245183	-0.552421
O76	O	1.393689	-0.269608	-0.528148
N77	N	1.518147	-0.216461	-0.528961
C78	C	1.585395	-0.187722	-0.552423
O79	O	1.642577	-0.163291	-0.528163
C80	C	1.585426	-0.187669	-0.740095
C81	C	1.518191	-0.216395	-0.763552
C82	C	1.383716	-0.273855	-0.763551
C83	C	1.383731	-0.273844	-0.810466
C84	C	1.450975	-0.245108	-0.833925
C85	C	1.518206	-0.216384	-0.810468
C86	C	1.652668	-0.158928	-0.763556
C87	C	1.652668	-0.158916	-0.810477
C88	C	1.585433	-0.187643	-0.833934
C89	C	1.585464	-0.187637	-0.880841
N90	N	1.518226	-0.216359	-0.904301
C91	C	1.450982	-0.245094	-0.880843
C92	C	1.585375	-0.187753	-0.453892
C93	C	1.585369	-0.187767	-0.406974
C94	C	1.450881	-0.245227	-0.406975
C95	C	1.450894	-0.245215	-0.453894
C96	C	1.518137	-0.216475	-0.477352
C97	C	1.451017	-0.245068	-0.979369
C98	C	1.451040	-0.245055	-1.026288
C99	C	1.585523	-0.187594	-1.026283
C100	C	1.585504	-0.187608	-0.979367
C101	C	1.518243	-0.216347	-0.955911
O102	O	1.642646	-0.163220	-0.905143
O103	O	1.393792	-0.269515	-0.905111
C104	C	1.450933	-0.245143	-0.693178
C105	C	1.518163	-0.216418	-0.669721
C106	C	1.585408	-0.187683	-0.693180
C107	C	1.518157	-0.216432	-0.622803
C108	C	1.450912	-0.245168	-0.599345
C109	C	1.383674	-0.273890	-0.622805
C110	C	1.383688	-0.273878	-0.669720
C111	C	1.652646	-0.158961	-0.669720
C112	C	1.652627	-0.158975	-0.622805
C113	C	1.585382	-0.187711	-0.599346
C114	C	1.518097	-0.216450	-0.099681
C115	C	1.518285	-0.216320	-0.049746
H116	H	1.118170	-0.164271	-0.164381
F117	F	1.724198	-0.128400	-0.597845
F118	F	1.379479	-0.275633	-1.051250
H119	H	0.929704	-0.266105	-0.311278
F120	F	1.117845	-0.321685	-0.261857
H121	H	0.919107	-0.164287	-0.164387
H122	H	1.395918	-0.387544	-0.268465
H123	H	1.103230	-0.269241	-0.313007
F124	F	0.924702	-0.323967	-0.265926
H125	H	1.396237	-0.268466	-0.960276
H126	H	1.639885	-0.387469	-0.164301
F127	F	1.312130	-0.694359	-0.304399
H128	H	1.639973	-0.472579	-0.164314
H129	H	1.707296	-0.603271	-0.135620
F130	F	1.724228	-0.128351	-0.738601
F131	F	1.312224	-0.835116	-0.304400
H132	H	1.707365	-0.688377	-0.135631
F133	F	1.657118	-0.953994	-0.157176
F134	F	1.656943	-0.157198	-0.382015
H135	H	1.640369	-1.044987	-0.164369
H136	H	1.396388	-1.045054	-0.268528
F137	F	1.379522	-0.954087	-0.275705
F138	F	1.312110	-0.304474	-0.597830
H139	H	1.640260	-0.164219	-0.960268
H140	H	1.707405	-0.135560	-0.688815
H141	H	1.328971	-0.744139	-0.297211
H142	H	1.328881	-0.603381	-0.297209
H143	H	1.707405	-0.744017	-0.135636
H144	H	1.328978	-0.297235	-0.829561
F145	F	1.379158	-0.478537	-0.275650
F146	F	1.312137	-0.304442	-0.738592
F147	F	1.724277	-0.834997	-0.128472
F148	F	1.379332	-0.275789	-0.478855
H149	H	1.396129	-0.268626	-0.387868
H150	H	1.640137	-0.164349	-0.472987
F151	F	1.724230	-0.128322	-0.835439
F152	F	1.657088	-0.157014	-1.051257
F153	F	1.312127	-0.304454	-0.694679
