data_functionalizedCrystal
_audit_creation_method	'MofGen! by Chris Wilmer'
_symmetry_space_group_name_H-M	'P1'
_symmetry_Int_Tables_number	1
_symmetry_cell_setting	triclinic
loop_
_symmetry_equiv_pos_as_xyz
  x,y,z
_cell_length_a	10.868271
_cell_length_b	14.853567
_cell_length_c	14.853567
_cell_angle_alpha	96.365070
_cell_angle_beta	90.001341
_cell_angle_gamma	89.998656
loop_
_atom_site_label
_atom_site_type_symbol
_atom_site_fract_x
_atom_site_fract_y
_atom_site_fract_z
O1	O	0.102227	-1.196364	0.117705
O2	O	0.102247	-0.933905	0.131726
O3	O	0.102240	-1.072145	-0.006514
O4	O	0.102233	-1.058124	0.255945
O5	O	-0.102405	-1.072134	-0.006520
O6	O	-0.102398	-0.933894	0.131721
O7	O	-0.102418	-1.196353	0.117699
Zn8	Zn	-0.134900	-1.065122	0.124709
Zn9	Zn	0.134728	-1.065137	0.124716
O10	O	-0.102411	-1.058113	0.255940
C11	C	-0.000073	-0.900311	0.131088
C12	C	-0.000065	-0.800227	0.129184
N13	N	-0.318914	-1.065118	0.124704
C14	C	-0.000079	-1.071504	-0.040106
C15	C	-0.000068	-1.069601	-0.140189
C16	C	-0.569920	-1.065132	0.124714
C17	C	-0.430242	-1.065121	0.124711
N18	N	0.318743	-1.065147	0.124715
C19	C	-0.000096	-1.229947	0.118337
C20	C	-0.000095	-1.330031	0.120241
C21	C	-0.000090	-0.387693	0.039019
C22	C	-0.000093	-0.366412	0.203251
C23	C	-0.000089	-0.460446	0.205041
C24	C	-0.000084	-0.518108	0.123819
C25	C	-0.000083	-0.481736	0.040806
C26	C	-0.000078	-0.496825	0.288053
C27	C	-0.000073	-0.590864	0.289846
C28	C	-0.000076	-0.648528	0.208623
C29	C	-0.000076	-0.612150	0.125607
C30	C	-0.000071	-0.669812	0.044384
C31	C	-0.000080	-0.633437	-0.038633
C32	C	-0.000086	-0.539399	-0.040417
C33	C	-0.000070	-0.742565	0.210407
C34	C	-0.000064	-0.763855	0.046172
C35	C	-0.000085	-0.979435	-0.552723
C36	C	-0.000097	-1.143668	-0.574004
C37	C	-0.000090	-1.145458	-0.479971
C38	C	-0.000082	-1.064235	-0.422309
C39	C	-0.000081	-0.981223	-0.458680
C40	C	-0.000103	-1.228469	-0.443591
C41	C	-0.000097	-1.230262	-0.349552
C42	C	-0.000081	-1.149039	-0.291889
C43	C	-0.000079	-1.066023	-0.328266
C44	C	-0.000071	-0.984800	-0.270604
C45	C	-0.000060	-0.901783	-0.306979
C46	C	-0.000065	-0.899999	-0.401017
C47	C	-0.000076	-1.150823	-0.197851
C48	C	-0.000067	-0.986588	-0.176561
C49	C	-0.000090	-1.058754	0.289531
C50	C	-0.000092	-1.060657	0.389615
H51	H	-0.000064	-0.810798	-0.019971
H52	H	-0.000087	-0.319459	0.269379
H53	H	-0.000071	-0.911844	-0.582344
H54	H	-0.000113	-1.209795	-0.620958
F55	F	-0.000066	-0.435454	0.374489
H56	H	-0.000065	-0.620472	0.357443
H57	H	-0.000068	-0.680397	-0.104764
H58	H	-0.000065	-0.772178	0.277998
H59	H	-0.000057	-0.832411	-0.430643
F60	F	-0.000134	-1.314905	-0.504963
F61	F	-0.000094	-1.318615	-0.310847
H62	H	-0.000056	-0.920445	-0.129618
H63	H	-0.000062	-0.835652	-0.260019
F64	F	-0.000091	-0.500679	-0.128762
F65	F	-0.000106	-0.348980	-0.049330
F66	F	-0.000107	-1.239169	-0.159141
