data_functionalizedCrystal
_audit_creation_method	'MofGen! by Chris Wilmer'
_symmetry_space_group_name_H-M	'P1'
_symmetry_Int_Tables_number	1
_symmetry_cell_setting	triclinic
loop_
_symmetry_equiv_pos_as_xyz
  x,y,z
_cell_length_a	14.044191
_cell_length_b	27.732025
_cell_length_c	12.503572
_cell_angle_alpha	93.508169
_cell_angle_beta	86.162165
_cell_angle_gamma	87.912623
loop_
_atom_site_label
_atom_site_type_symbol
_atom_site_fract_x
_atom_site_fract_y
_atom_site_fract_z
O1	O	1.261481	0.113920	-0.089204
O2	O	0.985574	0.109714	-0.089220
O3	O	1.132110	0.041821	-0.089244
O4	O	1.114945	0.181813	-0.089180
O5	O	1.121089	0.046936	0.089400
O6	O	0.974554	0.114829	0.089424
O7	O	1.250460	0.119035	0.089440
Cu8	Cu	1.111501	0.117399	0.105744
Cu9	Cu	1.124534	0.111350	-0.105523
O10	O	1.103925	0.186928	0.089464
C11	C	0.944777	0.110431	0.000099
C12	C	0.839633	0.104943	0.000091
C13	C	0.588917	0.133835	0.000115
C14	C	0.647123	0.094916	0.000096
C15	C	0.754245	0.100496	0.000093
C16	C	0.481785	0.128256	0.000118
C17	C	1.126243	0.026355	0.000067
C18	C	1.125170	-0.027352	0.000035
C19	C	1.123538	-0.413663	-0.097281
C20	C	1.127562	-0.211815	-0.097316
O21	O	1.133229	-0.188093	-0.180135
N22	N	1.122058	-0.183782	0.000060
C23	C	1.115553	-0.206214	0.097452
O24	O	1.110973	-0.177739	0.180275
C25	C	1.111536	-0.408061	0.097485
C26	C	1.117031	-0.436091	0.000103
C27	C	1.129033	-0.441693	-0.194656
C28	C	1.128022	-0.492151	-0.194646
C29	C	1.121515	-0.514580	-0.097262
C30	C	1.116019	-0.486550	0.000112
C31	C	1.105038	-0.430492	0.194875
C32	C	1.104036	-0.480957	0.194875
C33	C	1.109532	-0.508987	0.097492
C34	C	1.108501	-0.559437	0.097506
N35	N	1.114005	-0.587470	0.000130
C36	C	1.120512	-0.565041	-0.097254
C37	C	1.117661	-0.100242	0.097427
C38	C	1.118663	-0.049781	0.097419
C39	C	1.130674	-0.055385	-0.097348
C40	C	1.129664	-0.105847	-0.097339
C41	C	1.123165	-0.128275	0.000051
C42	C	1.118387	-0.671008	-0.097227
C43	C	1.117371	-0.721471	-0.097208
C44	C	1.105366	-0.715862	0.097558
C45	C	1.106377	-0.665403	0.097541
C46	C	1.112891	-0.642978	0.000140
O47	O	1.102847	-0.583192	0.180282
O48	O	1.125112	-0.593525	-0.180065
C49	C	1.124549	-0.363204	-0.097291
C50	C	1.119053	-0.335174	0.000083
C51	C	1.112546	-0.357602	0.097467
C52	C	1.120056	-0.284712	0.000075
C53	C	1.126563	-0.262284	-0.097309
C54	C	1.132067	-0.290317	-0.194684
C55	C	1.131056	-0.340776	-0.194675
C56	C	1.107042	-0.329569	0.194843
C57	C	1.108053	-0.279111	0.194826
C58	C	1.114560	-0.256682	0.097442
C59	C	1.291258	0.118318	0.000118
C60	C	1.396402	0.123806	0.000120
C61	C	1.109791	0.202394	0.000151
C62	C	1.110865	0.256101	0.000175
N63	N	1.102341	0.121654	0.254337
N64	N	1.133701	0.107092	-0.254117
C65	C	1.088866	0.127917	0.473455
C66	C	1.147172	0.100830	0.526772
C67	C	1.139675	0.104315	0.648697
C68	C	1.096363	0.124433	0.351519
H69	H	1.121843	-0.744291	-0.176512
C70	C	0.605769	0.044241	0.000059
C71	C	0.673101	-0.000847	0.000024
C72	C	0.631741	-0.051520	-0.000020
C73	C	0.523050	-0.057106	-0.000030
C74	C	0.455711	-0.012016	0.000005
C75	C	0.497071	0.038657	0.000050
H76	H	0.753566	0.003287	0.000031
H77	H	0.681590	-0.084898	-0.000046
H78	H	0.492433	-0.094617	-0.000062
H79	H	0.375245	-0.016150	-0.000002
H80	H	0.447221	0.072035	0.000075
C81	C	0.630275	0.184505	0.000116
C82	C	0.738969	0.190085	0.000100
C83	C	0.780341	0.240755	0.000091
C84	C	0.713018	0.285845	0.000100
C85	C	0.604318	0.280267	0.000117
C86	C	0.562946	0.229597	0.000125
H87	H	0.788811	0.156705	0.000093
H88	H	0.860809	0.244884	0.000079
H89	H	0.743644	0.323354	0.000094
H90	H	0.554475	0.313646	0.000123
H91	H	0.482478	0.225468	0.000137
C92	C	1.125546	-0.646344	-0.204367
C93	C	1.212641	-0.657538	-0.284711
C94	C	1.219792	-0.632875	-0.391850
C95	C	1.139850	-0.597017	-0.418644
C96	C	1.052749	-0.585822	-0.338298
C97	C	1.045598	-0.610485	-0.231159
H98	H	1.271825	-0.684084	-0.264878
H99	H	1.284270	-0.641163	-0.451327
H100	H	1.145144	-0.578760	-0.497955
H101	H	0.993565	-0.559276	-0.358131
H102	H	0.981120	-0.602197	-0.171682
H103	H	1.098744	-0.499214	0.274184
H104	H	1.033323	0.153722	0.519371
C105	C	1.099003	-0.399665	0.301997
C106	C	1.180337	-0.366146	0.328769
C107	C	1.174306	-0.335319	0.435896
C108	C	1.086940	-0.338012	0.516252
C109	C	1.005599	-0.371533	0.489482
C110	C	1.011631	-0.402360	0.382355
H111	H	1.245017	-0.364151	0.269283
H112	H	1.234520	-0.310505	0.455713
H113	H	1.082475	-0.315193	0.595555
H114	H	0.940920	-0.373528	0.548968
H115	H	0.951417	-0.427174	0.362538
H116	H	1.132503	-0.514970	-0.273945
C117	C	1.135718	-0.136679	-0.204460
C118	C	1.223095	-0.133982	-0.284798
C119	C	1.229152	-0.164811	-0.391924
C120	C	1.147830	-0.198336	-0.418711
C121	C	1.060446	-0.201034	-0.338371
C122	C	1.054390	-0.170205	-0.231246
H123	H	1.283300	-0.109164	-0.264970
H124	H	1.293839	-0.162814	-0.451396
H125	H	1.152313	-0.221158	-0.498012
H126	H	1.000242	-0.225853	-0.358199
H127	H	0.989702	-0.172203	-0.171773
C128	C	1.137839	-0.030709	-0.204474
C129	C	1.222472	0.001275	-0.231239
C130	C	1.229646	0.025953	-0.338359
C131	C	1.152186	0.018648	-0.418713
C132	C	1.067547	-0.013337	-0.391949
C133	C	1.060373	-0.038016	-0.284830
H134	H	1.279818	0.006684	-0.171755
H135	H	1.292302	0.049631	-0.358171
H136	H	1.157496	0.036917	-0.498009
H137	H	1.010201	-0.018746	-0.451434
H138	H	0.997717	-0.061693	-0.265018
H139	H	1.134335	-0.423437	-0.273962
C140	C	1.112609	-0.018951	0.204542
C141	C	1.025236	-0.021646	0.284886
C142	C	1.019188	0.009181	0.392013
C143	C	1.100515	0.042704	0.418796
C144	C	1.187894	0.045401	0.338450
C145	C	1.193942	0.014573	0.231323
H146	H	0.965028	-0.046463	0.265062
H147	H	0.954504	0.007185	0.451491
H148	H	1.096038	0.065524	0.498098
H149	H	1.248103	0.070218	0.358274
H150	H	1.258626	0.016570	0.171846
H151	H	1.202721	0.075024	0.480850
H152	H	1.112368	-0.118497	0.176739
H153	H	1.101865	-0.642579	0.176837
C154	C	1.102008	-0.248280	0.301955
C155	C	1.183344	-0.214762	0.328728
C156	C	1.177311	-0.183933	0.435853
C157	C	1.089940	-0.186622	0.516204
C158	C	1.008598	-0.220141	0.489433
C159	C	1.014632	-0.250970	0.382308
H160	H	1.248027	-0.212770	0.269245
H161	H	1.237526	-0.159120	0.455670
H162	H	1.085474	-0.163801	0.595504
H163	H	0.943915	-0.222133	0.548916
H164	H	0.954416	-0.275784	0.362491
C165	C	1.098192	-0.740544	0.204670
C166	C	1.011083	-0.729365	0.285001
C167	C	1.003908	-0.754052	0.392110
C168	C	1.083842	-0.789918	0.418888
C169	C	1.170957	-0.801099	0.338555
C170	C	1.178132	-0.776412	0.231446
H171	H	0.951906	-0.702813	0.265180
H172	H	0.939420	-0.745775	0.451578
H173	H	1.078530	-0.808193	0.498177
H174	H	1.230134	-0.827651	0.358376
H175	H	1.242621	-0.784690	0.171979
C176	C	1.137111	-0.371606	-0.301797
C177	C	1.055788	-0.405128	-0.328594
C178	C	1.061848	-0.435955	-0.435722
C179	C	1.149230	-0.433259	-0.516053
C180	C	1.230559	-0.399735	-0.489259
C181	C	1.224500	-0.368909	-0.382131
H182	H	0.991097	-0.407125	-0.269125
H183	H	1.001642	-0.460772	-0.455556
H184	H	1.153715	-0.456079	-0.595356
H185	H	1.295250	-0.397739	-0.548727
H186	H	1.284705	-0.344092	-0.362296
H187	H	1.101746	-0.347825	0.274147
H188	H	1.137358	-0.272047	-0.273978
