data_functionalizedCrystal
_audit_creation_method	'MofGen! by Chris Wilmer'
_symmetry_space_group_name_H-M	'P1'
_symmetry_Int_Tables_number	1
_symmetry_cell_setting	triclinic
loop_
_symmetry_equiv_pos_as_xyz
  x,y,z
_cell_length_a	17.699077
_cell_length_b	17.019294
_cell_length_c	16.776229
_cell_angle_alpha	86.114377
_cell_angle_beta	89.993415
_cell_angle_gamma	83.337580
loop_
_atom_site_label
_atom_site_type_symbol
_atom_site_fract_x
_atom_site_fract_y
_atom_site_fract_z
O1	O	1.004150	0.099735	-0.073122
O2	O	0.783780	0.112718	-0.074017
O3	O	0.900112	-0.008619	-0.065683
O4	O	0.887818	0.221071	-0.081457
O5	O	0.900097	-0.008626	0.066894
O6	O	0.783764	0.112711	0.058560
O7	O	1.004135	0.099727	0.059455
Zn8	Zn	0.893947	0.106218	0.080057
Zn9	Zn	0.893967	0.106227	-0.094619
O10	O	0.887802	0.221064	0.051120
C11	C	0.755575	0.112250	-0.007697
C12	C	0.671556	0.110857	-0.007603
C13	C	0.632079	0.110196	0.064711
C14	C	0.553136	0.108874	0.064802
C15	C	0.513669	0.108219	-0.007421
C16	C	0.553151	0.108877	-0.079740
C17	C	0.632094	0.110193	-0.079831
C18	C	0.234784	0.103569	-0.079377
C19	C	0.155836	0.102255	-0.079281
C20	C	0.155826	0.102250	0.065256
C21	C	0.234769	0.103566	0.065165
C22	C	0.274245	0.104220	-0.007153
C23	C	0.359844	0.105651	-0.007251
C24	C	0.428070	0.106793	-0.007324
C25	C	0.899638	-0.038011	0.002622
C26	C	0.898239	-0.125579	0.008631
C27	C	0.897592	-0.166710	-0.060813
C28	C	0.896273	-0.248988	-0.055165
C29	C	0.895606	-0.290135	0.019928
C30	C	0.896251	-0.248998	0.089378
C31	C	0.897565	-0.166720	0.083729
C32	C	0.891634	-0.538561	0.040600
C33	C	0.890322	-0.620845	0.046244
C34	C	0.890343	-0.620830	-0.098300
C35	C	0.891661	-0.538551	-0.103942
C36	C	0.892302	-0.497420	-0.034493
C37	C	0.894260	-0.374238	0.025703
C38	C	0.893643	-0.413319	-0.040269
C39	C	1.032340	0.100195	-0.006867
C40	C	1.116359	0.101589	-0.006966
C41	C	0.888276	0.250456	-0.017187
C42	C	0.889675	0.338024	-0.023201
N43	N	0.893939	0.106211	0.199268
N44	N	0.893982	0.106228	-0.213831
C45	C	0.945466	0.052505	0.244674
C46	C	0.945471	0.052504	0.328127
C47	C	0.893950	0.106214	0.366171
C48	C	0.842417	0.159922	0.320759
C49	C	0.842410	0.159918	0.237309
C50	C	0.842444	0.159938	0.657305
C51	C	0.842457	0.159939	0.740762
C52	C	0.945505	0.052523	0.748123
C53	C	0.945498	0.052519	0.664673
C54	C	0.893963	0.106225	0.619268
C55	C	0.893958	0.106224	0.528780
C56	C	0.893958	0.106219	0.456658
H57	H	0.266898	0.104103	0.123977
N58	N	0.115514	0.101581	0.139137
N59	N	0.117289	0.157312	0.183695
H60	H	0.088821	0.156844	0.235874
H61	H	0.987466	0.008791	0.785101
H62	H	0.800500	0.203677	0.771735
H63	H	0.987423	0.008771	0.213704
N64	N	0.789814	0.214789	0.610917
N65	N	0.742859	0.189824	0.566077
H66	H	0.705688	0.228566	0.533309
H67	H	0.521012	0.108338	-0.138545
N68	N	0.512825	0.108194	0.138677
N69	N	0.548071	0.108781	0.203156
H70	H	0.519602	0.108298	0.255334
N71	N	0.898244	-0.124707	0.154665
N72	N	0.952300	-0.086171	0.168148
H73	H	0.952778	-0.056500	0.218250
N74	N	0.892291	-0.496567	0.111546
N75	N	0.891699	-0.533318	0.178587
H76	H	0.892165	-0.503658	0.228697
H77	H	0.800464	0.203651	0.351740
H78	H	0.889820	-0.654327	-0.154841
N79	N	0.889636	-0.662864	0.122960
N80	N	0.890204	-0.626132	0.184962
H81	H	0.889719	-0.655807	0.239141
N82	N	0.789778	0.214791	0.190936
N83	N	0.790733	0.287704	0.195241
H84	H	0.753558	0.326459	0.162491
N85	N	0.672376	0.110884	0.138492
N86	N	0.637115	0.110300	0.203052
H87	H	0.665571	0.110788	0.255163
H88	H	0.123705	0.101720	-0.138098
N89	N	0.895561	-0.291037	0.166078
N90	N	0.894389	-0.364498	0.171113
H91	H	0.893903	-0.394189	0.225285
H92	H	0.664234	0.110733	-0.138716
N93	N	0.275089	0.104236	-0.153253
N94	N	0.239839	0.103653	-0.217730
H95	H	0.268307	0.104125	-0.269909
H96	H	0.898139	-0.133214	-0.121962
H97	H	0.892205	-0.505055	-0.165091
N98	N	0.895607	-0.290989	-0.126109
N99	N	0.896204	-0.254243	-0.193152
H100	H	0.895732	-0.283904	-0.243260
N101	N	0.894342	-0.371293	-0.116972
N102	N	0.947534	-0.387847	-0.164216
H103	H	0.948033	-0.358161	-0.218389
N104	N	0.893569	-0.416271	0.102406
N105	N	0.839505	-0.454808	0.121170
H106	H	0.839013	-0.484497	0.175341
N107	N	0.998107	-0.002364	0.374496
N108	N	1.044105	-0.050313	0.340518
H109	H	1.081282	-0.089067	0.373266
N110	N	0.998140	-0.002338	0.625825
N111	N	1.044147	-0.050284	0.666376
H112	H	1.081328	-0.089029	0.638941
