data_functionalizedCrystal
_audit_creation_method	'MofGen! by Chris Wilmer'
_symmetry_space_group_name_H-M	'P1'
_symmetry_Int_Tables_number	1
_symmetry_cell_setting	triclinic
loop_
_symmetry_equiv_pos_as_xyz
  x,y,z
_cell_length_a	11.026607
_cell_length_b	9.482944
_cell_length_c	8.559649
_cell_angle_alpha	101.479559
_cell_angle_beta	89.182341
_cell_angle_gamma	98.185432
loop_
_atom_site_label
_atom_site_type_symbol
_atom_site_fract_x
_atom_site_fract_y
_atom_site_fract_z
O1	O	1.563937	0.120883	0.678012
O2	O	1.217546	0.120886	0.603812
O3	O	1.421259	0.120883	0.417088
O4	O	1.360224	0.120886	0.864737
O5	O	1.392235	-0.120909	0.364311
O6	O	1.188523	-0.120906	0.551035
O7	O	1.534913	-0.120909	0.625236
Cu8	Cu	1.359068	-0.142985	0.583317
Cu9	Cu	1.393392	0.142962	0.645731
O10	O	1.331201	-0.120906	0.811960
C11	C	1.159099	-0.000009	0.563735
C12	C	1.028189	-0.000008	0.522928
C13	C	0.943882	-0.000006	0.635603
C14	C	0.808579	-0.000004	0.593431
N15	N	1.334935	-0.344105	0.539420
C16	C	1.386265	-0.416305	0.632780
C17	C	1.366197	-0.583722	0.596245
C18	C	1.593360	-0.000011	0.665314
C19	C	1.724272	-0.000003	0.706122
C20	C	1.411372	-0.000011	0.332501
C21	C	1.425141	-0.000003	0.159082
N22	N	1.417535	0.344082	0.689619
C23	C	1.341087	-0.000009	0.896548
C24	C	1.327319	-0.000008	1.069968
H25	H	0.780598	0.000032	0.465743
N26	N	1.464164	-0.334012	0.774476
H27	H	1.413277	-0.270866	0.849720
H28	H	1.495653	-0.405281	0.831638
H29	H	1.276137	-0.406236	0.432439
H30	H	1.519428	-0.000015	0.102695
N31	N	0.991114	-0.000007	0.353792
H32	H	1.035158	0.089624	0.319766
H33	H	1.013636	-0.089700	0.280755
N34	N	0.980955	-0.000001	0.804742
H35	H	0.958427	0.089634	0.877892
H36	H	0.936900	-0.089690	0.838627
H37	H	1.233037	-0.000011	0.126345
H38	H	1.307395	-0.645847	0.489257
H39	H	0.752255	-0.000011	0.833816
N40	N	1.495439	-0.573640	0.831324
H41	H	1.444555	-0.510495	0.906574
H42	H	1.526924	-0.644918	0.888478
