data_functionalizedCrystal
_audit_creation_method	'MofGen! by Chris Wilmer'
_symmetry_space_group_name_H-M	'P1'
_symmetry_Int_Tables_number	1
_symmetry_cell_setting	triclinic
loop_
_symmetry_equiv_pos_as_xyz
  x,y,z
_cell_length_a	12.837943
_cell_length_b	14.044190
_cell_length_c	11.892095
_cell_angle_alpha	94.240074
_cell_angle_beta	85.689438
_cell_angle_gamma	94.010359
loop_
_atom_site_label
_atom_site_type_symbol
_atom_site_fract_x
_atom_site_fract_y
_atom_site_fract_z
O1	O	1.404557	0.242984	-0.094009
O2	O	1.101617	0.230709	-0.094014
O3	O	1.248535	0.098452	-0.093990
O4	O	1.257639	0.375241	-0.094034
O5	O	1.236283	0.109461	0.094016
O6	O	1.089365	0.241717	0.093991
O7	O	1.392306	0.253993	0.093996
Zn8	Zn	1.238890	0.249603	0.123844
Zn9	Zn	1.255032	0.235099	-0.123862
O10	O	1.245388	0.386250	0.093972
C11	C	1.056487	0.232066	-0.000012
C12	C	0.940266	0.219699	-0.000013
C13	C	1.238427	0.068282	0.000016
C14	C	1.226549	-0.038016	0.000026
C15	C	0.713060	0.368378	-0.000021
C16	C	0.603860	0.356762	-0.000021
C17	C	0.612663	0.184853	-0.000005
C18	C	0.721863	0.196468	-0.000005
C19	C	0.772058	0.288234	-0.000015
C20	C	0.881261	0.299849	-0.000023
C21	C	0.890061	0.127940	0.000001
C22	C	0.780860	0.116324	0.000001
C23	C	1.289074	-0.282658	-0.000017
C24	C	1.204854	-0.232635	-0.000011
C25	C	1.216928	-0.124339	0.000010
C26	C	1.277001	-0.390964	-0.000038
C27	C	1.437436	0.252635	-0.000008
C28	C	1.553657	0.265002	-0.000015
C29	C	1.255496	0.416419	-0.000037
C30	C	1.267374	0.522717	-0.000054
N31	N	1.227882	0.259502	0.292896
N32	N	1.266049	0.225193	-0.292914
C33	C	1.342648	0.156258	0.529563
C34	C	1.334961	0.163185	0.647904
C35	C	1.204816	0.280277	0.647920
C36	C	1.212503	0.273350	0.529579
C37	C	1.281422	0.211340	0.470405
C38	C	1.289114	0.204418	0.352062
C39	C	1.158964	0.321505	0.352081
C40	C	1.151277	0.328431	0.470421
H41	H	0.922127	0.374569	-0.000028
C42	C	1.418457	0.088055	0.464468
H43	H	1.453819	0.056239	0.516651
H44	H	1.468148	0.123691	0.418287
H45	H	1.380164	0.042142	0.418321
C46	C	0.768279	0.469312	-0.000041
H47	H	0.717501	0.515381	-0.000043
H48	H	0.814967	0.473575	-0.065603
H49	H	0.806421	0.481257	0.065528
C50	C	1.095199	-0.284648	-0.000014
H51	H	1.101360	-0.351667	-0.000015
H52	H	1.062561	-0.271014	-0.065568
H53	H	1.054031	-0.263364	0.065563
C54	C	1.398720	-0.230643	0.000010
H55	H	1.392551	-0.163624	0.000034
H56	H	1.439909	-0.251918	-0.065547
H57	H	1.431337	-0.244278	0.065585
C58	C	1.128943	0.348418	0.713019
H59	H	1.093552	0.380210	0.660840
H60	H	1.167165	0.394340	0.759213
H61	H	1.079267	0.312715	0.759155
C62	C	1.364916	0.136207	0.286972
H63	H	1.400270	0.104388	0.339158
H64	H	1.414615	0.171835	0.240790
H65	H	1.326619	0.090298	0.240824
C66	C	0.538967	0.444920	-0.000037
H67	H	0.584505	0.501232	-0.000052
H68	H	0.491909	0.447801	0.065521
H69	H	0.500462	0.440123	-0.065611
C70	C	0.557435	0.083922	0.000017
H71	H	0.483950	0.088487	0.000014
H72	H	0.572871	0.054347	0.065582
H73	H	0.581402	0.046668	-0.065550
H74	H	1.384816	0.118331	0.696067
H75	H	1.095162	0.378917	0.518614
C76	C	1.091626	0.382109	0.287005
H77	H	1.106073	0.369105	0.208050
H78	H	1.107632	0.448065	0.306399
H79	H	1.019630	0.366533	0.306406
C80	C	0.725640	0.015390	0.000005
H81	H	0.652155	0.019949	-0.000003
H82	H	0.741074	-0.014193	0.065565
H83	H	0.749617	-0.021852	-0.065566
H84	H	0.938109	0.062681	-0.000002
