data_functionalizedCrystal
_audit_creation_method	'MofGen! by Chris Wilmer'
_symmetry_space_group_name_H-M	'P1'
_symmetry_Int_Tables_number	1
_symmetry_cell_setting	triclinic
loop_
_symmetry_equiv_pos_as_xyz
  x,y,z
_cell_length_a	14.044220
_cell_length_b	14.044220
_cell_length_c	13.101039
_cell_angle_alpha	93.659868
_cell_angle_beta	93.667477
_cell_angle_gamma	86.811122
loop_
_atom_site_label
_atom_site_type_symbol
_atom_site_fract_x
_atom_site_fract_y
_atom_site_fract_z
O1	O	0.225348	-1.281968	-0.085109
O2	O	0.558682	-0.948635	0.248224
O3	O	0.892015	-0.615302	0.581558
O4	O	0.217041	-1.005298	-0.085135
O5	O	0.550374	-0.671965	0.248198
O6	O	0.883708	-0.338632	0.581532
O7	O	0.082860	-1.139480	-0.085112
O8	O	0.416193	-0.806147	0.248221
O9	O	0.749526	-0.472813	0.581554
O10	O	0.359530	-1.147787	-0.085132
O11	O	0.692863	-0.814454	0.248202
O12	O	1.026197	-0.481120	0.581535
O13	O	0.092504	-1.129854	0.085316
O14	O	0.425838	-0.796521	0.418649
O15	O	0.759171	-0.463188	0.751983
O16	O	0.226686	-0.995673	0.085293
O17	O	0.560019	-0.662339	0.418627
O18	O	0.893353	-0.329006	0.751960
O19	O	0.234993	-1.272343	0.085319
O20	O	0.568326	-0.939009	0.418652
O21	O	0.901660	-0.605676	0.751986
Zn22	Zn	0.232371	-1.132479	0.112365
Zn23	Zn	0.565704	-0.799146	0.445699
Zn24	Zn	0.899037	-0.465813	0.779032
Zn25	Zn	0.219663	-1.145162	-0.112181
Zn26	Zn	0.552997	-0.811828	0.221152
Zn27	Zn	0.886330	-0.478495	0.554485
O28	O	0.369175	-1.138161	0.085296
O29	O	0.702508	-0.804828	0.418630
O30	O	1.035841	-0.471494	0.751963
C31	C	0.218228	-0.964864	0.000076
C32	C	0.551561	-0.631531	0.333409
C33	C	0.884894	-0.298197	0.666743
C34	C	0.207383	-0.858722	0.000066
C35	C	0.540716	-0.525388	0.333400
C36	C	0.874049	-0.192055	0.666733
C37	C	0.052060	-1.131031	0.000102
C38	C	0.385393	-0.797698	0.333435
C39	C	0.718727	-0.464365	0.666769
C40	C	-0.054083	-1.120187	0.000102
C41	C	0.279251	-0.786854	0.333435
C42	C	0.612584	-0.453520	0.666769
C43	C	-0.248421	-1.100362	0.000086
C44	C	0.084912	-0.767028	0.333419
C45	C	0.418245	-0.433695	0.666752
C46	C	-0.299551	-1.177276	0.000090
C47	C	0.033782	-0.843942	0.333423
C48	C	0.367116	-0.510609	0.666756
C49	C	-0.407688	-1.166245	0.000080
C50	C	-0.074354	-0.832911	0.333414
C51	C	0.258979	-0.499578	0.666747
C52	C	-0.140275	-1.111391	0.000095
C53	C	0.193059	-0.778058	0.333428
C54	C	0.526392	-0.444725	0.666761
C55	C	0.233806	-1.312777	0.000106
C56	C	0.567140	-0.979444	0.333439
C57	C	0.900473	-0.646111	0.666773
C58	C	0.244651	-1.418920	0.000109
C59	C	0.577984	-1.085587	0.333442
C60	C	0.911318	-0.752253	0.666775
C61	C	0.399974	-1.146610	0.000080
C62	C	0.733307	-0.813276	0.333413
C63	C	1.066641	-0.479943	0.666747
C64	C	0.506116	-1.157455	0.000073
C65	C	0.839450	-0.824121	0.333406
C66	C	1.172783	-0.490788	0.666740
N67	N	0.241043	-1.123831	0.265612
N68	N	0.574377	-0.790497	0.598946
N69	N	0.907710	-0.457164	0.932279
C70	C	0.187558	-0.664383	0.000088
C71	C	0.520891	-0.331049	0.333421
C72	C	0.854224	0.002284	0.666755
C73	C	0.264472	-0.613253	0.000087
C74	C	0.597805	-0.279920	0.333420
C75	C	0.931139	0.053414	0.666754
C76	C	0.253441	-0.505116	0.000099
C77	C	0.586774	-0.171783	0.333432
C78	C	0.920108	0.161551	0.666766
C79	C	0.198587	-0.772529	0.000076
C80	C	0.531920	-0.439196	0.333409
C81	C	0.865254	-0.105863	0.666743
N82	N	0.210984	-1.153817	-0.265428
N83	N	0.544317	-0.820484	0.067905
N84	N	0.877651	-0.487151	0.401238
C85	C	0.252851	-1.112065	0.474653
C86	C	0.586185	-0.778731	0.807986
C87	C	0.919518	-0.445398	1.141320
C88	C	0.199179	-1.165580	0.525538
C89	C	0.532512	-0.832247	0.858871
C90	C	0.865846	-0.498914	1.192204
C91	C	0.205749	-1.159034	0.641855
C92	C	0.539082	-0.825700	0.975188
C93	C	0.872416	-0.492367	1.308522
C94	C	0.246282	-1.118610	0.358325
C95	C	0.579616	-0.785277	0.691658
C96	C	0.912949	-0.451944	1.024992
H97	H	-0.262115	-1.251413	0.000028
H98	H	0.071218	-0.918079	0.333361
H99	H	0.404551	-0.584746	0.666694
C100	C	0.269454	-0.977236	0.595471
C101	C	0.602787	-0.643903	0.928804
C102	C	0.936120	-0.310570	1.262137
C103	C	0.321546	-1.043588	0.533769
C104	C	0.654879	-0.710254	0.867102
C105	C	0.988213	-0.376921	1.200435
H106	H	0.311866	-0.934969	0.631980
H107	H	0.645200	-0.601636	0.965313
H108	H	0.978533	-0.268302	1.298646
H109	H	0.224541	-0.941778	0.553619
H110	H	0.557874	-0.608444	0.886953
H111	H	0.891207	-0.275111	1.220286
H112	H	0.236638	-1.009966	0.642671
H113	H	0.569972	-0.676633	0.976005
H114	H	0.903305	-0.343299	1.309338
H115	H	0.354356	-1.010858	0.486563
H116	H	0.687689	-0.677525	0.819896
H117	H	1.021023	-0.344191	1.153229
H118	H	0.366476	-1.079050	0.575624
H119	H	0.699809	-0.745717	0.908957
H120	H	1.033143	-0.412383	1.242291
C121	C	-0.397850	-1.008595	0.000086
C122	C	-0.064517	-0.675261	0.333419
C123	C	0.268817	-0.341928	0.666752
C124	C	-0.298955	-1.000288	0.000085
C125	C	0.034378	-0.666955	0.333419
C126	C	0.367711	-0.333622	0.666752
H127	H	-0.429053	-0.946813	0.000095
H128	H	-0.095720	-0.613480	0.333428
H129	H	0.237614	-0.280146	0.666762
H130	H	-0.419143	-1.045641	-0.059345
H131	H	-0.085810	-0.712307	0.273988
H132	H	0.247523	-0.378974	0.607321
H133	H	-0.412422	-1.038951	0.059519
H134	H	-0.079089	-0.705618	0.392853
H135	H	0.254245	-0.372284	0.726186
H136	H	-0.284383	-0.969938	-0.059353
H137	H	0.048951	-0.636605	0.273981
H138	H	0.382284	-0.303272	0.607314
H139	H	-0.277654	-0.963228	0.059522
H140	H	0.055679	-0.629894	0.392856
H141	H	0.389012	-0.296561	0.726189
H142	H	0.113431	-0.626945	0.000099
H143	H	0.446764	-0.293612	0.333432
H144	H	0.780097	0.039722	0.666766
H145	H	0.338605	-0.650693	0.000077
H146	H	0.671938	-0.317359	0.333410
H147	H	1.005271	0.015974	0.666744
C148	C	0.136867	-1.227062	0.360970
C149	C	0.470200	-0.893729	0.694303
C150	C	0.803533	-0.560395	1.027636
C151	C	0.130263	-1.233848	0.466426
C152	C	0.463597	-0.900514	0.799760
C153	C	0.796930	-0.567181	1.133093
H154	H	0.094260	-1.269144	0.324477
H155	H	0.427594	-0.935811	0.657810
H156	H	0.760927	-0.602477	0.991143
H157	H	0.120418	-1.163352	0.343581
H158	H	0.453751	-0.830018	0.676915
H159	H	0.787085	-0.496685	1.010248
H160	H	0.200400	-1.244105	0.343331
H161	H	0.533733	-0.910772	0.676664
H162	H	0.867066	-0.577439	1.009998
H163	H	0.066732	-1.216797	0.484067
H164	H	0.400065	-0.883464	0.817400
H165	H	0.733398	-0.550131	1.150733
H166	H	0.146706	-1.297572	0.483822
H167	H	0.480039	-0.964239	0.817155
H168	H	0.813373	-0.630906	1.150489
