data_functionalizedCrystal
_audit_creation_method	'MofGen! by Chris Wilmer'
_symmetry_space_group_name_H-M	'P1'
_symmetry_Int_Tables_number	1
_symmetry_cell_setting	triclinic
loop_
_symmetry_equiv_pos_as_xyz
  x,y,z
_cell_length_a	16.109318
_cell_length_b	10.654545
_cell_length_c	14.586319
_cell_angle_alpha	89.998553
_cell_angle_beta	90.000075
_cell_angle_gamma	83.976995
loop_
_atom_site_label
_atom_site_type_symbol
_atom_site_fract_x
_atom_site_fract_y
_atom_site_fract_z
O1	O	1.104083	0.161523	-0.076159
O2	O	0.862142	0.181588	-0.076177
O3	O	0.988674	-0.011259	-0.076167
O4	O	0.977550	0.354370	-0.076169
O5	O	0.988666	-0.011262	0.076314
O6	O	0.862133	0.181585	0.076304
O7	O	1.104074	0.161520	0.076322
Cu8	Cu	0.983103	0.171552	0.090235
Cu9	Cu	0.983113	0.171556	-0.090091
O10	O	0.977541	0.354367	0.076312
C11	C	0.831158	0.180770	0.000061
C12	C	0.738849	0.178322	0.000054
C13	C	0.987853	-0.058047	0.000071
C14	C	0.985409	-0.197457	0.000066
C15	C	0.439733	0.170416	-0.083047
C16	C	0.526468	0.172708	-0.083053
C17	C	0.526477	0.172688	0.083190
C18	C	0.439744	0.170387	0.083195
C19	C	0.396374	0.169258	0.000073
C20	C	0.569842	0.173851	0.000063
C21	C	0.663883	0.176336	0.000058
C22	C	0.302326	0.166770	0.000078
C23	C	0.985428	-0.197463	-0.166173
C24	C	0.984293	-0.262960	-0.249293
C25	C	0.981996	-0.393948	-0.249294
C26	C	0.980833	-0.459441	-0.166167
C27	C	0.981968	-0.393944	-0.083048
C28	C	0.984267	-0.262954	-0.083055
C29	C	0.981943	-0.393937	0.083190
C30	C	0.984245	-0.262951	0.083193
C31	C	0.980779	-0.459430	0.166317
C32	C	0.981920	-0.393934	0.249438
C33	C	0.984218	-0.262939	0.249436
C34	C	0.985380	-0.197453	0.166312
C35	C	1.135058	0.162338	0.000082
C36	C	1.227367	0.164786	0.000083
C37	C	0.978363	0.401155	0.000071
C38	C	0.980807	0.540566	0.000070
N39	N	0.983101	0.171549	0.217067
N40	N	0.983121	0.171549	-0.216923
C41	C	1.039149	0.086185	0.452078
C42	C	1.039151	0.086182	0.548059
C43	C	0.927068	0.256917	0.548060
C44	C	0.927062	0.256913	0.452080
C45	C	0.983107	0.171549	0.404092
C46	C	0.983115	0.171550	0.596053
C47	C	0.983117	0.171547	0.700120
C48	C	0.983104	0.171549	0.300018
H49	H	0.561767	0.173650	-0.150738
H50	H	0.985130	-0.209616	0.317122
O51	O	0.985331	-0.199172	-0.329976
C52	C	0.914782	-0.109165	-0.334988
H53	H	0.891136	-0.084796	-0.262830
H54	H	0.863576	-0.149655	-0.376035
C55	C	0.967870	-0.018998	-0.471114
C56	C	0.938833	0.010940	-0.382488
H57	H	0.982704	0.055086	-0.500418
H58	H	1.015399	-0.079641	-0.467740
H59	H	0.925194	-0.052742	-0.505308
H60	H	0.981512	0.044668	-0.348292
H61	H	0.891311	0.071591	-0.385857
H62	H	0.987308	-0.090808	-0.166181
O63	O	0.397727	0.169096	0.164003
C64	C	0.427699	0.060938	0.214552
H65	H	0.493602	0.026377	0.190913
H66	H	0.385040	-0.016471	0.203026
C67	C	0.348097	0.136496	0.346304
C68	C	0.429043	0.094053	0.317276
H69	H	0.348923	0.156919	0.409670
H70	H	0.327901	0.209362	0.312248
H71	H	0.312557	0.071981	0.336692
H72	H	0.464579	0.158573	0.326878
H73	H	0.449245	0.021199	0.351337
O74	O	0.568731	0.173857	0.163848
C75	C	0.654584	0.176109	0.146022
H76	H	0.663213	0.216163	0.074588
H77	H	0.687341	0.076074	0.149959
C78	C	0.681862	0.210399	0.305466
C79	C	0.692460	0.259604	0.217732
H80	H	0.705227	0.261897	0.349702
H81	H	0.624022	0.208877	0.317477
H82	H	0.709159	0.127037	0.308734
H83	H	0.665154	0.342956	0.214462
H84	H	0.750297	0.261142	0.205722
O85	O	1.093614	0.003137	0.405603
C86	C	1.143091	-0.072187	0.468544
H87	H	1.109000	-0.073617	0.536963
H88	H	1.205086	-0.031381	0.478746
C89	C	1.201312	-0.205902	0.347058
C90	C	1.159438	-0.207666	0.431090
H91	H	1.211400	-0.289470	0.323954
H92	H	1.167981	-0.155152	0.304653
H93	H	1.252970	-0.171891	0.355571
H94	H	1.107777	-0.241662	0.422574
H95	H	1.192761	-0.258425	0.473493
H96	H	1.084784	0.016670	0.587127
H97	H	0.881438	0.326421	0.587141
H98	H	0.981064	-0.447274	-0.316977
H99	H	0.881422	0.326427	0.413007
H100	H	0.404424	0.169495	-0.150730
H101	H	0.978904	-0.566087	0.166310
O102	O	0.980821	-0.457752	0.330097
C103	C	0.978519	-0.587403	0.312272
H104	H	1.004489	-0.610501	0.240841
H105	H	0.911283	-0.611368	0.316198
C106	C	0.999853	-0.637084	0.471719
C107	C	1.031757	-0.665455	0.383989
H108	H	1.032689	-0.685232	0.515959
H109	H	1.001401	-0.549736	0.483729
H110	H	0.943824	-0.657055	0.474978
H111	H	1.087782	-0.645469	0.380728
H112	H	1.030220	-0.752802	0.371980
H113	H	0.978953	-0.566096	-0.166175
H114	H	0.987255	-0.090797	0.166302
