data_functionalizedCrystal
_audit_creation_method	'MofGen! by Chris Wilmer'
_symmetry_space_group_name_H-M	'P1'
_symmetry_Int_Tables_number	1
_symmetry_cell_setting	triclinic
loop_
_symmetry_equiv_pos_as_xyz
  x,y,z
_cell_length_a	12.759401
_cell_length_b	25.639239
_cell_length_c	12.759393
_cell_angle_alpha	89.964103
_cell_angle_beta	89.979541
_cell_angle_gamma	90.040809
loop_
_atom_site_label
_atom_site_type_symbol
_atom_site_fract_x
_atom_site_fract_y
_atom_site_fract_z
Zn1	Zn	1.606082	-0.208108	-0.593976
Zn2	Zn	1.605899	-0.295552	-0.418278
Zn3	Zn	1.430382	-0.208134	-0.418311
Zn4	Zn	1.430297	-0.295516	-0.593915
O5	O	1.518165	-0.251827	-0.506120
O6	O	1.753079	-0.219711	-0.570681
O7	O	1.582575	-0.283982	-0.271261
O8	O	1.453801	-0.134966	-0.441653
O9	O	1.752944	-0.283956	-0.441596
O10	O	1.582887	-0.134946	-0.570713
O11	O	1.453624	-0.219757	-0.271286
O12	O	1.283350	-0.219722	-0.441594
O13	O	1.453656	-0.283895	-0.740944
O14	O	1.283287	-0.283921	-0.570609
O15	O	1.582805	-0.219676	-0.740989
O16	O	1.582493	-0.368712	-0.441537
O17	O	1.453479	-0.368686	-0.570576
C18	C	1.245198	-0.251821	-0.506099
C19	C	1.128421	-0.251831	-0.506115
C20	C	1.073554	-0.285310	-0.573188
C21	C	0.963830	-0.285312	-0.573208
C22	C	0.963850	-0.218354	-0.439075
C23	C	1.073572	-0.218350	-0.439060
C24	C	1.517986	-0.387670	-0.506069
C25	C	1.518005	-0.445784	-0.506083
C26	C	1.450975	-0.696976	-0.573290
C27	C	1.450936	-0.642372	-0.573277
O28	O	1.393772	-0.614134	-0.630384
N29	N	1.518137	-0.615058	-0.506137
C30	C	1.585389	-0.642351	-0.439013
O31	O	1.642546	-0.614104	-0.381905
C32	C	1.585432	-0.696954	-0.439031
C33	C	1.518219	-0.724265	-0.506168
C34	C	1.383768	-0.724288	-0.640422
C35	C	1.383806	-0.778888	-0.640432
C36	C	1.451050	-0.806177	-0.573311
C37	C	1.518257	-0.778866	-0.506179
C38	C	1.652689	-0.724246	-0.371913
C39	C	1.652727	-0.778853	-0.371937
C40	C	1.585514	-0.806165	-0.439074
C41	C	1.585540	-0.860756	-0.439068
N42	N	1.518338	-0.888070	-0.506207
C43	C	1.451094	-0.860781	-0.573329
C44	C	1.585294	-0.527680	-0.438981
C45	C	1.585246	-0.473078	-0.438957
C46	C	1.450794	-0.473103	-0.573223
C47	C	1.450837	-0.527706	-0.573241
C48	C	1.518093	-0.554994	-0.506121
C49	C	1.451178	-0.975446	-0.573345
C50	C	1.451218	-1.030051	-0.573347
C51	C	1.585674	-1.030021	-0.439085
C52	C	1.585630	-0.975421	-0.439079
C53	C	1.518378	-0.948134	-0.506218
O54	O	1.642677	-0.889028	-0.381993
O55	O	1.393956	-0.889034	-0.630437
C56	C	1.792198	-0.251834	-0.506141
C57	C	1.908975	-0.251837	-0.506151
C58	C	1.518241	-0.251779	-0.780153
C59	C	1.518274	-0.251758	-0.896930
C60	C	1.518374	-0.115454	-0.506194
C61	C	1.518463	-0.057340	-0.506225
C62	C	1.585447	-0.285161	-1.061515
C63	C	1.585421	-0.285186	-0.951791
C64	C	1.451140	-0.218307	-0.951799
C65	C	1.451161	-0.218285	-1.061522
C66	C	1.518150	-0.251838	-0.233153
C67	C	1.518321	-0.251712	-0.116376
H68	H	0.919162	-0.312574	-0.627827
C69	C	1.377198	-0.945438	-0.647201
N70	N	1.321472	-0.922837	-0.702826
C71	C	1.659315	-0.321935	-1.121851
N72	N	1.714951	-0.349637	-1.167294
C73	C	1.659288	-0.321972	-0.891448
N74	N	1.714935	-0.349677	-0.845998
C75	C	1.309873	-0.808923	-0.714296
N76	N	1.254185	-0.831543	-0.769937
H77	H	1.118209	-0.312571	-0.627790
C78	C	1.377317	-0.181484	-1.121873
N79	N	1.321700	-0.153767	-1.167330
C80	C	0.903505	-0.181530	-0.365313
N81	N	0.858055	-0.153794	-0.309752
H82	H	1.118246	-0.191084	-0.384442
C83	C	1.726712	-0.808867	-0.298094
N84	N	1.782434	-0.831472	-0.242473
H85	H	1.396483	-1.052285	-0.628020
C86	C	1.309807	-0.694278	-0.714288
N87	N	1.254097	-0.671678	-0.769931
C88	C	1.376905	-0.557743	-0.647102
N89	N	1.321218	-0.580365	-0.702741
C90	C	1.377286	-0.181531	-0.891449
N91	N	1.321665	-0.153828	-0.845994
H92	H	1.396041	-0.450874	-0.627878
H93	H	1.639965	-0.450845	-0.384276
H94	H	1.640059	-0.549895	-0.384315
C95	C	1.726617	-0.694216	-0.298042
N96	N	1.782299	-0.671598	-0.242394
H97	H	1.640350	-0.953184	-0.384400
H98	H	1.640419	-1.052250	-0.384433
