data_functionalizedCrystal
_audit_creation_method	'MofGen! by Chris Wilmer'
_symmetry_space_group_name_H-M	'P1'
_symmetry_Int_Tables_number	1
_symmetry_cell_setting	triclinic
loop_
_symmetry_equiv_pos_as_xyz
  x,y,z
_cell_length_a	14.446369
_cell_length_b	14.446369
_cell_length_c	14.446369
_cell_angle_alpha	90.002026
_cell_angle_beta	60.003968
_cell_angle_gamma	59.996157
loop_
_atom_site_label
_atom_site_type_symbol
_atom_site_fract_x
_atom_site_fract_y
_atom_site_fract_z
Zr1	Zr	1.013183	0.891727	-0.121429
O2	O	1.206302	0.743910	-0.269233
O3	O	0.820065	0.937047	-0.076120
O4	O	1.013173	0.937039	-0.269228
O5	O	1.013202	0.743917	0.076204
O6	O	1.013164	1.089376	-0.269223
O7	O	1.013194	0.743918	-0.076125
O8	O	0.667729	1.089390	0.076212
O9	O	1.358637	0.743903	-0.269232
O10	O	0.899491	1.070056	-0.056791
O11	O	0.899504	0.956368	0.056886
O12	O	1.126863	0.956359	-0.170474
O13	O	1.126876	0.842671	-0.056797
Zr14	Zr	1.013183	1.134687	0.121527
Zr15	Zr	1.013170	1.134687	-0.121420
Zr16	Zr	1.013197	0.891727	0.121518
Zr17	Zr	1.256141	0.891717	-0.121426
Zr18	Zr	0.770226	1.134697	0.121524
O19	O	1.206302	1.089367	0.076218
O20	O	1.206283	1.089368	-0.269221
O21	O	1.206321	0.743909	0.076206
O22	O	0.820065	1.282504	0.269331
O23	O	0.820046	1.282505	-0.076108
O24	O	0.820084	0.937046	0.269319
O25	O	1.013164	1.282497	-0.076105
O26	O	1.013194	1.089375	0.269327
O27	O	1.013202	0.937038	0.269321
O28	O	1.013173	1.282496	0.076223
O29	O	1.358627	0.937024	-0.269224
O30	O	0.667740	1.089390	0.269323
O31	O	0.667729	1.282511	0.269330
O32	O	0.667719	1.282511	0.076219
O33	O	1.358648	0.743903	-0.076121
O34	O	1.358637	0.937024	-0.076114
O35	O	0.899504	1.070055	0.170572
O36	O	0.899491	1.183743	0.056895
O37	O	1.126863	1.070046	-0.056788
O38	O	1.126876	0.956358	0.056889
C39	C	0.709281	1.013220	0.000046
C40	C	0.606139	1.013225	0.000044
C41	C	0.459815	1.084562	-0.072002
C42	C	0.566740	1.084966	-0.071695
C43	C	0.479286	1.065530	0.123570
C44	C	0.371907	1.066050	0.123180
C45	C	0.546882	0.889482	-0.050422
C46	C	0.655355	0.889680	-0.052926
C47	C	1.013200	0.709301	0.000038
C48	C	1.013206	0.606158	0.000034
C49	C	1.156594	0.387783	-0.071304
C50	C	1.156691	0.495015	-0.071705
C51	C	0.941971	0.602838	-0.052265
C52	C	0.942882	0.495069	-0.052788
C53	C	0.939938	0.496432	0.123762
C54	C	0.942641	0.602401	0.123568
C55	C	1.317086	1.013194	0.000053
C56	C	1.420228	1.013189	0.000054
C57	C	1.013167	1.013207	-0.303840
C58	C	1.013161	1.013208	-0.406978
C59	C	1.013167	1.317113	0.000060
C60	C	1.013161	1.420256	0.000064
C61	C	0.869772	1.085273	-0.481959
C62	C	0.869676	1.084961	-0.374630
C63	C	1.084395	0.889674	-0.481541
C64	C	1.083485	0.890069	-0.588400
C65	C	1.086429	1.063677	-0.589967
C66	C	1.083726	1.066176	-0.481296
C67	C	1.013200	1.013207	0.303938
C68	C	1.013206	1.013206	0.407076
C69	C	0.709264	1.317126	0.000057
C70	C	0.606117	1.420274	0.000059
C71	C	0.709298	1.013220	0.303935
C72	C	0.606161	1.013224	0.407071
C73	C	0.709281	1.317126	0.303946
C74	C	0.606139	1.420273	0.407086
C75	C	1.317086	0.709288	-0.303848
C76	C	1.420228	0.606141	-0.406988
C77	C	1.317103	0.709288	0.000041
C78	C	1.420250	0.606140	0.000039
C79	C	1.317069	1.013194	-0.303837
C80	C	1.420205	1.013190	-0.406973
C81	C	0.459796	1.638649	0.071390
C82	C	0.566724	1.531412	0.071798
C83	C	0.479261	1.423607	0.052354
C84	C	0.371878	1.531381	0.052870
C85	C	0.546847	1.530000	-0.123679
C86	C	0.655325	1.424027	-0.123477
C87	C	0.459851	0.941181	0.482049
C88	C	0.566772	0.941481	0.374722
C89	C	0.479302	1.136762	0.481628
C90	C	0.371927	1.136380	0.588485
C91	C	0.546909	0.962765	0.590067
C92	C	0.655379	0.960253	0.481397
C93	C	0.459805	1.495266	0.625444
C94	C	0.566749	1.387927	0.518215
C95	C	0.479286	1.494822	0.410398
C96	C	0.371889	1.601691	0.518164
C97	C	0.546833	1.603298	0.516827
C98	C	0.655325	1.494616	0.410861
H99	H	0.501538	1.016050	0.179587
H100	H	0.985835	0.446406	0.167452
H101	H	0.586486	0.873172	0.594181
F102	F	0.697351	0.814324	0.008543
F103	F	0.508335	1.321305	-0.012313
F104	F	1.010512	0.601742	0.174647
H105	H	0.341921	1.680276	0.491513
F106	F	1.230184	0.317251	-0.025687
F107	F	0.683543	1.533478	0.025889
H108	H	0.522097	0.836055	0.001811
H109	H	0.656083	1.049892	-0.162656
H110	H	0.341923	1.504729	0.004242
H111	H	0.529301	0.976495	0.320937
F112	F	0.805800	0.705858	0.198914
H113	H	0.836471	0.681110	-0.002786
H114	H	0.529262	1.533871	0.163049
H115	H	0.440707	1.421476	0.142517
F116	F	0.428908	1.427356	0.407593
H117	H	1.189896	0.833647	-0.508773
F118	F	0.508470	1.709172	0.025773
H119	H	0.370130	1.693639	0.162086
F120	F	1.015839	1.185134	-0.414082
H121	H	0.497096	0.849982	0.479711
H122	H	1.032869	0.849664	-0.588133
H123	H	0.281125	1.581732	0.143894
F124	F	0.773606	1.424690	-0.174545
F125	F	0.598573	1.595371	-0.180778
H126	H	0.656096	1.333661	0.519839
F127	F	1.230199	0.491810	-0.190975
H128	H	1.188720	0.833452	-0.666980
H129	H	0.370148	1.494225	0.680412
F130	F	0.508358	1.530415	0.308103
H131	H	0.440725	1.155699	0.164263
H132	H	0.687452	1.344867	-0.181125
H133	H	0.522056	1.502553	-0.177105
F134	F	0.508488	1.038940	-0.191202
H135	H	0.813475	1.176475	-0.479617
F136	F	1.009050	0.429255	-0.171765
F137	F	0.342614	1.203122	-0.026669
F138	F	0.514419	1.705535	0.480955
F139	F	0.683563	0.822577	0.303781
H140	H	0.991442	0.604971	-0.142427
H141	H	1.034925	0.848983	-0.429940
H142	H	0.497033	1.492939	0.679410
H143	H	0.586425	0.845776	-0.139994
H144	H	0.529302	1.334128	0.520658
H145	H	0.370184	0.975871	0.481014
F146	F	0.801827	0.532320	0.193590
F147	F	0.796556	1.039941	-0.480607
F148	F	0.796231	1.039140	-0.304363
H149	H	0.281172	1.176792	0.588211
H150	H	1.040525	1.153270	-0.594081
H151	H	0.341972	1.192992	0.667066
F152	F	0.517769	1.204246	-0.025931
H153	H	0.745844	0.850606	-0.143931
F154	F	0.508373	1.209988	0.517225
F155	F	1.229739	0.492903	-0.025854
F156	F	1.229814	0.315914	-0.189855
H157	H	1.188405	1.019143	-0.506811
F158	F	0.805336	0.529908	0.010750
H159	H	0.440740	1.177455	0.430022
F160	F	1.224538	0.995394	-0.692198
H161	H	0.745876	0.869242	0.429975
H162	H	0.687503	1.007284	0.506921
F163	F	0.253278	1.601326	0.583954
F164	F	0.796614	1.203861	-0.303679
F165	F	0.697313	1.527980	0.307405
H166	H	0.586390	1.607426	0.566855
H167	H	0.745785	1.443215	0.411428
H168	H	0.341957	1.017423	0.179785
F169	F	0.253278	1.185034	0.175999
F170	F	0.514507	1.031035	0.692307
