data_functionalizedCrystal
_audit_creation_method	'MofGen! by Chris Wilmer'
_symmetry_space_group_name_H-M	'P1'
_symmetry_Int_Tables_number	1
_symmetry_cell_setting	triclinic
loop_
_symmetry_equiv_pos_as_xyz
  x,y,z
_cell_length_a	12.759395
_cell_length_b	29.839131
_cell_length_c	12.759387
_cell_angle_alpha	89.961587
_cell_angle_beta	89.981185
_cell_angle_gamma	90.042957
loop_
_atom_site_label
_atom_site_type_symbol
_atom_site_fract_x
_atom_site_fract_y
_atom_site_fract_z
Zn1	Zn	1.606056	-0.178806	-0.593958
Zn2	Zn	1.605870	-0.253945	-0.418259
Zn3	Zn	1.430359	-0.178832	-0.418295
Zn4	Zn	1.430265	-0.253912	-0.593898
O5	O	1.518138	-0.216374	-0.506102
O6	O	1.753052	-0.188777	-0.570661
O7	O	1.582550	-0.244006	-0.271242
O8	O	1.453784	-0.115962	-0.441637
O9	O	1.752916	-0.243981	-0.441575
O10	O	1.582867	-0.115942	-0.570696
O11	O	1.453603	-0.188821	-0.271269
O12	O	1.283326	-0.188788	-0.441579
O13	O	1.453622	-0.243924	-0.740927
O14	O	1.283256	-0.243949	-0.570593
O15	O	1.582775	-0.188744	-0.740971
O16	O	1.582458	-0.316808	-0.441517
O17	O	1.453442	-0.316783	-0.570558
C18	C	1.245170	-0.216368	-0.506084
C19	C	1.128393	-0.216377	-0.506101
C20	C	1.128359	-0.273909	-0.640227
C21	C	1.073482	-0.302678	-0.707293
C22	C	0.963760	-0.302684	-0.707306
C23	C	0.908914	-0.273916	-0.640248
C24	C	0.963791	-0.245146	-0.573182
C25	C	1.073516	-0.245145	-0.573174
C26	C	0.963825	-0.187613	-0.439063
C27	C	1.073547	-0.187609	-0.439043
C28	C	0.908979	-0.158845	-0.372005
C29	C	0.963857	-0.130077	-0.304933
C30	C	1.073585	-0.130073	-0.304922
C31	C	1.128425	-0.158839	-0.371978
C32	C	1.517948	-0.333096	-0.506050
C33	C	1.517963	-0.383031	-0.506063
C34	C	1.585439	-0.692674	-0.439009
C35	C	1.585568	-0.880347	-0.439049
O36	O	1.642788	-0.904612	-0.381997
N37	N	1.518355	-0.903816	-0.506181
C38	C	1.451110	-0.880363	-0.573313
O39	O	1.393952	-0.904631	-0.630421
C40	C	1.450987	-0.692691	-0.573277
C41	C	1.518196	-0.669225	-0.506133
C42	C	1.652644	-0.669208	-0.371871
C43	C	1.652607	-0.622293	-0.371857
C44	C	1.585364	-0.598843	-0.438981
C45	C	1.518159	-0.622310	-0.506119
C46	C	1.383748	-0.669239	-0.640413
C47	C	1.383724	-0.622318	-0.640400
C48	C	1.450934	-0.598852	-0.573256
C49	C	1.450880	-0.551945	-0.573230
N50	N	1.518093	-0.528476	-0.506098
C51	C	1.585335	-0.551926	-0.438974
C52	C	1.451178	-0.978894	-0.573326
C53	C	1.451208	-1.025812	-0.573334
C54	C	1.585667	-1.025793	-0.439071
C55	C	1.585632	-0.978874	-0.439059
C56	C	1.518391	-0.955425	-0.506194
C57	C	1.585251	-0.453400	-0.438949
C58	C	1.585205	-0.406480	-0.438939
C59	C	1.450750	-0.406503	-0.573205
C60	C	1.450792	-0.453419	-0.573212
C61	C	1.518051	-0.476866	-0.506081
O62	O	1.393698	-0.527651	-0.630260
O63	O	1.642501	-0.527650	-0.381890
C64	C	1.585476	-0.739590	-0.439022
C65	C	1.518271	-0.763056	-0.506160
C66	C	1.451028	-0.739607	-0.573284
C67	C	1.518300	-0.809974	-0.506168
C68	C	1.585542	-0.833423	-0.439044
C69	C	1.652755	-0.809955	-0.371912
C70	C	1.652718	-0.763039	-0.371898
C71	C	1.383816	-0.763075	-0.640416
C72	C	1.383857	-0.809990	-0.640423
C73	C	1.451100	-0.833440	-0.573299
C74	C	1.792171	-0.216380	-0.506121
C75	C	1.908948	-0.216382	-0.506129
C76	C	1.518209	-0.216327	-0.780136
C77	C	1.518239	-0.216308	-0.896913
C78	C	1.518357	-0.099195	-0.506177
C79	C	1.518450	-0.049261	-0.506210
C80	C	1.383976	-0.158839	-0.896959
C81	C	1.316863	-0.130096	-0.951843
C82	C	1.316895	-0.130080	-1.061565
C83	C	1.384044	-0.158811	-1.116405
C84	C	1.451156	-0.187554	-1.061521
C85	C	1.451120	-0.187566	-0.951797
C86	C	1.585413	-0.245024	-1.061474
C87	C	1.585388	-0.245039	-0.951753
C88	C	1.652562	-0.273755	-1.116314
C89	C	1.719681	-0.302496	-1.061430
C90	C	1.719648	-0.302511	-0.951702
C91	C	1.652501	-0.273782	-0.896869
C92	C	1.518127	-0.216388	-0.233135
C93	C	1.518300	-0.216281	-0.116359
H94	H	1.640022	-0.472485	-0.384287
H95	H	1.640419	-1.044893	-0.384416
H96	H	1.774303	-0.325916	-0.907022
H97	H	1.217701	-0.273910	-0.640215
O98	O	1.318438	-0.740250	-0.705473
C99	C	1.250573	-0.713173	-0.645587
H100	H	1.287670	-0.706150	-0.566003
H101	H	1.172741	-0.731299	-0.633971
C102	C	1.185901	-0.677224	-0.801116
C103	C	1.231469	-0.668595	-0.703372
H104	H	1.174112	-0.649726	-0.836761
H105	H	1.231620	-0.695467	-0.841463
H106	H	1.121046	-0.692330	-0.791422
H107	H	1.296328	-0.653494	-0.713068
H108	H	1.185760	-0.650347	-0.663027
O109	O	1.385590	-0.383698	-0.638520
C110	C	1.445369	-0.356502	-0.706390
H111	H	1.528117	-0.370608	-0.712948
H112	H	1.448991	-0.320955	-0.673891
C113	C	1.292364	-0.338434	-0.807518
C114	C	1.393994	-0.355761	-0.815579
H115	H	1.260673	-0.337975	-0.874869
H116	H	1.252088	-0.356755	-0.761790
H117	H	1.295397	-0.308813	-0.780431
H118	H	1.390960	-0.385384	-0.842652
H119	H	1.434269	-0.337446	-0.861313
O120	O	1.717754	-0.599482	-0.306528
C121	C	1.657976	-0.572382	-0.238616
H122	H	1.575237	-0.586554	-0.232053
H123	H	1.654327	-0.536813	-0.271079
C124	C	1.810995	-0.554278	-0.137507
C125	C	1.709376	-0.571687	-0.129440
H126	H	1.842703	-0.553847	-0.070163
H127	H	1.851270	-0.572534	-0.183263
H128	H	1.807941	-0.524639	-0.164563
H129	H	1.712433	-0.601327	-0.102397
H130	H	1.669103	-0.553435	-0.083677
O131	O	1.251557	-0.102182	-1.114769
C132	C	1.146813	-0.112004	-1.087974
H133	H	1.144568	-0.129283	-1.008292
H134	H	1.111402	-0.135092	-1.149708
C135	C	1.086019	-0.046982	-1.180815
C136	C	1.083261	-0.068201	-1.082945
H137	H	1.046815	-0.019963	-1.177717
H138	H	1.156586	-0.040365	-1.198872
H139	H	1.056511	-0.066227	-1.232250
H140	H	1.112780	-0.048959	-1.031515
H141	H	1.012697	-0.074814	-1.064880
O142	O	1.652462	-0.273879	-0.790286
C143	C	1.625347	-0.316935	-0.753594
H144	H	1.643264	-0.342805	-0.816802
H145	H	1.538163	-0.317883	-0.734130
C146	C	1.667289	-0.295968	-0.576790
C147	C	1.689304	-0.327742	-0.654420
H148	H	1.706737	-0.302634	-0.515612
H149	H	1.685554	-0.266959	-0.601508
H150	H	1.594635	-0.296761	-0.560582
H151	H	1.761954	-0.326945	-0.670635
H152	H	1.671053	-0.356751	-0.629702
O153	O	0.802396	-0.158778	-0.372110
C154	C	0.765810	-0.115736	-0.399264
H155	H	0.829084	-0.097184	-0.445148
H156	H	0.746340	-0.096233	-0.324972
C157	C	0.588957	-0.142908	-0.410942
C158	C	0.666668	-0.120124	-0.467306
H159	H	0.527799	-0.145614	-0.452910
H160	H	0.613605	-0.171906	-0.392644
H161	H	0.572745	-0.126653	-0.349036
H162	H	0.682888	-0.136382	-0.529204
H163	H	0.642021	-0.091129	-0.485616
H164	H	1.118150	-0.326100	-0.761892
O165	O	1.251738	-0.102202	-0.898409
C166	C	1.266079	-0.108384	-0.789796
H167	H	1.347122	-0.123106	-0.774799
H168	H	1.203700	-0.132308	-0.758637
C169	C	1.156995	-0.044854	-0.751923
C170	C	1.256537	-0.062932	-0.733503
H171	H	1.151104	-0.016818	-0.717196
H172	H	1.147329	-0.040689	-0.825097
H173	H	1.105023	-0.064794	-0.725956
H174	H	1.308506	-0.042995	-0.759481
H175	H	1.266211	-0.067092	-0.660331
H176	H	0.919079	-0.326108	-0.761922
O177	O	0.910535	-0.102199	-0.239687
C178	C	0.846970	-0.127742	-0.171747
H179	H	0.879975	-0.163121	-0.165095
H180	H	0.763829	-0.129308	-0.204241
C181	C	0.804726	-0.062285	-0.070795
C182	C	0.845268	-0.105736	-0.062618
H183	H	0.803671	-0.048710	-0.003481
H184	H	0.847547	-0.045075	-0.116570
H185	H	0.735444	-0.063596	-0.097877
H186	H	0.914552	-0.104424	-0.035549
H187	H	0.802458	-0.122945	-0.016836
H188	H	0.819573	-0.273919	-0.640273
H189	H	1.328970	-0.603229	-0.695072
H190	H	1.118260	-0.106642	-0.250316
O191	O	1.784869	-0.330360	-1.114862
C192	C	1.770478	-0.324194	-1.223473
H193	H	1.736142	-0.289520	-1.238486
H194	H	1.714481	-0.350835	-1.254579
C195	C	1.918954	-0.370896	-1.261379
C196	C	1.876791	-0.328308	-1.279817
H197	H	1.984531	-0.373435	-1.296136
H198	H	1.928648	-0.375052	-1.188206
H199	H	1.872281	-0.393092	-1.287300
H200	H	1.923458	-0.306113	-1.253884
H201	H	1.867107	-0.324148	-1.352988
O202	O	1.717999	-0.691913	-0.306559
C203	C	1.777320	-0.661131	-0.247330
H204	H	1.734258	-0.627708	-0.243668
H205	H	1.857090	-0.656094	-0.285868
C206	C	1.845420	-0.720511	-0.140016
C207	C	1.792526	-0.679462	-0.135511
H208	H	1.854805	-0.731819	-0.071043
H209	H	1.805458	-0.741250	-0.179922
H210	H	1.911890	-0.716308	-0.172136
H211	H	1.726053	-0.683667	-0.103405
H212	H	1.832477	-0.658724	-0.095597
O213	O	1.385469	-0.476147	-0.638529
C214	C	1.326090	-0.445387	-0.697749
H215	H	1.369090	-0.411919	-0.701403
H216	H	1.246311	-0.440451	-0.659208
C217	C	1.258097	-0.504767	-0.805076
C218	C	1.310915	-0.463663	-0.809572
H219	H	1.248731	-0.516040	-0.874053
H220	H	1.298098	-0.525491	-0.765177
H221	H	1.191620	-0.500648	-0.772954
H222	H	1.377395	-0.467783	-0.841682
H223	H	1.270924	-0.442939	-0.849479
H224	H	1.707503	-0.829055	-0.317254
H225	H	1.384054	-0.158799	-1.205746
O226	O	1.651021	-0.956150	-0.373806
C227	C	1.710349	-0.986914	-0.314544
H228	H	1.713978	-1.020343	-0.357591
H229	H	1.671918	-0.991947	-0.234721
C230	C	1.817710	-0.927507	-0.246619
C231	C	1.822174	-0.968563	-0.299494
H232	H	1.886688	-0.916187	-0.237330
H233	H	1.777738	-0.906780	-0.286541
H234	H	1.785680	-0.931706	-0.180105
H235	H	1.854192	-0.964363	-0.366012
H236	H	1.862155	-0.989289	-0.259583
O237	O	1.385899	-0.956169	-0.638684
C238	C	1.408819	-0.967586	-0.743419
H239	H	1.449241	-1.001630	-0.745633
H240	H	1.462783	-0.941143	-0.778862
C241	C	1.256709	-0.927976	-0.804238
C242	C	1.306348	-0.969791	-0.806958
H243	H	1.193502	-0.929334	-0.843433
H244	H	1.241269	-0.920282	-0.733676
H245	H	1.301690	-0.905944	-0.833772
H246	H	1.261373	-0.991821	-0.777412
H247	H	1.321779	-0.977488	-0.877516
O248	O	1.318575	-0.692005	-0.705795
C249	C	1.341473	-0.680479	-0.810514
H250	H	1.425398	-0.667547	-0.815870
H251	H	1.285125	-0.653255	-0.837915
C252	C	1.226155	-0.738016	-0.874075
C253	C	1.329236	-0.722136	-0.880655
H254	H	1.218602	-0.763711	-0.917343
H255	H	1.210724	-0.745781	-0.803524
H256	H	1.179210	-0.715325	-0.896907
H257	H	1.376178	-0.744824	-0.857810
H258	H	1.344674	-0.714376	-0.951204
H259	H	1.652578	-0.273742	-1.205656
O260	O	1.318530	-0.832713	-0.705750
C261	C	1.259161	-0.801949	-0.764970
H262	H	1.302169	-0.768484	-0.768621
H263	H	1.179382	-0.797010	-0.726432
C264	C	1.191157	-0.861325	-0.872304
C265	C	1.243985	-0.820224	-0.876795
H266	H	1.181790	-0.872598	-0.941281
H267	H	1.231151	-0.882052	-0.832404
H268	H	1.124680	-0.857204	-0.840183
H269	H	1.310465	-0.824346	-0.908902
H270	H	1.204001	-0.799498	-0.916703
H271	H	1.217766	-0.158840	-0.371972
H272	H	1.639935	-0.387376	-0.384258
H273	H	1.396469	-1.044914	-0.627999
H274	H	1.707447	-0.743936	-0.317223
H275	H	1.383952	-0.158846	-0.807618
