data_functionalizedCrystal
_audit_creation_method	'MofGen! by Chris Wilmer'
_symmetry_space_group_name_H-M	'P1'
_symmetry_Int_Tables_number	1
_symmetry_cell_setting	triclinic
loop_
_symmetry_equiv_pos_as_xyz
  x,y,z
_cell_length_a	19.805407
_cell_length_b	16.625545
_cell_length_c	16.625539
_cell_angle_alpha	89.973630
_cell_angle_beta	90.018020
_cell_angle_gamma	89.975963
loop_
_atom_site_label
_atom_site_type_symbol
_atom_site_fract_x
_atom_site_fract_y
_atom_site_fract_z
Zn1	Zn	1.034736	0.321015	0.455930
Zn2	Zn	1.534736	0.821015	0.955930
Zn3	Zn	1.034659	0.455854	0.321098
Zn4	Zn	1.534659	0.955854	0.821098
Zn5	Zn	0.921554	0.321039	0.321109
Zn6	Zn	1.421554	0.821039	0.821109
Zn7	Zn	0.921519	0.455809	0.455885
Zn8	Zn	1.421519	0.955809	0.955885
O9	O	0.978117	0.388429	0.388506
O10	O	1.478117	0.888429	0.888506
O11	O	1.129443	0.338910	0.438059
O12	O	1.629443	0.838910	0.938059
O13	O	1.019638	0.437999	0.208267
O14	O	1.519638	0.937999	0.708267
O15	O	0.936615	0.208203	0.339017
O16	O	1.436615	0.708203	0.839017
O17	O	1.129386	0.437976	0.338998
O18	O	1.629386	0.937976	0.838998
O19	O	1.019770	0.208186	0.438069
O20	O	1.519770	0.708186	0.938069
O21	O	0.936540	0.338951	0.208275
O22	O	1.436540	0.838951	0.708275
O23	O	0.826833	0.338908	0.338973
O24	O	1.326833	0.838908	0.838973
O25	O	0.936556	0.437900	0.568724
O26	O	1.436556	0.937900	1.068724
O27	O	0.826807	0.437923	0.437993
O28	O	1.326807	0.937923	0.937993
O29	O	1.019736	0.338867	0.568757
O30	O	1.519736	0.838867	1.068757
O31	O	1.019604	0.568680	0.338954
O32	O	1.519604	1.068680	0.838954
O33	O	0.936481	0.568648	0.437982
O34	O	1.436481	1.068648	0.937982
C35	C	0.802261	0.388414	0.388480
C36	C	1.302261	0.888414	0.888480
C37	C	0.727029	0.388427	0.388488
C38	C	1.227029	0.888427	0.888488
C39	C	0.691689	0.440062	0.439964
C40	C	1.191689	0.940062	0.939964
C41	C	0.621001	0.440063	0.439975
C42	C	1.121001	0.940063	0.939975
C43	C	0.585654	0.388433	0.388506
C44	C	1.085654	0.888433	0.888506
C45	C	0.620998	0.336792	0.337027
C46	C	1.120998	0.836792	0.837027
C47	C	0.691686	0.336787	0.337020
C48	C	1.191686	0.836787	0.837020
C49	C	0.335925	0.336810	0.337054
C50	C	0.835925	0.836810	0.837054
C51	C	0.265233	0.336821	0.337063
C52	C	0.765233	0.836821	0.837063
C53	C	0.265241	0.440086	0.440008
C54	C	0.765241	0.940086	0.940008
C55	C	0.335928	0.440081	0.440002
C56	C	0.835928	0.940081	0.940002
C57	C	0.371266	0.388438	0.388527
C58	C	0.871266	0.888438	0.888527
C59	C	0.447915	0.388436	0.388516
C60	C	0.947915	0.888436	0.888516
C61	C	0.509007	0.388438	0.388512
C62	C	1.009007	0.888438	0.888512
C63	C	0.978048	0.597920	0.388480
C64	C	1.478048	1.097920	0.888480
C65	C	0.978081	0.687541	0.388496
C66	C	1.478081	1.187541	0.888496
C67	C	0.978191	1.015717	0.388592
C68	C	1.478191	1.515717	0.888592
C69	C	0.978158	0.924408	0.388567
C70	C	1.478158	1.424408	0.888567
C71	C	0.978136	0.851632	0.388543
C72	C	1.478136	1.351632	0.888543
C73	C	0.978104	0.760318	0.388520
C74	C	1.478104	1.260318	0.888520
C75	C	1.154660	0.388445	0.388532
C76	C	1.654660	0.888445	0.888532
C77	C	1.229892	0.388452	0.388544
C78	C	1.729892	0.888452	0.888544
C79	C	0.978150	0.388376	0.598815
C80	C	1.478150	0.888376	1.098815
C81	C	0.978165	0.388353	0.688436
C82	C	1.478165	0.888353	1.188436
C83	C	0.978199	1.178120	0.388559
C84	C	1.478199	1.678120	0.888559
C85	C	0.978219	1.088499	0.388606
C86	C	1.478219	1.588499	0.888606
C87	C	0.978123	0.388424	0.179015
C88	C	1.478123	0.888424	0.679015
C89	C	0.978240	0.388220	0.089394
C90	C	1.478240	0.888220	0.589394
C91	C	0.978176	0.388336	0.761218
C92	C	1.478176	0.888336	1.261218
C93	C	0.978191	0.388305	0.852527
C94	C	1.478191	0.888305	1.352527
C95	C	0.978207	0.388277	0.925303
C96	C	1.478207	0.888277	1.425303
C97	C	0.978224	0.388248	1.016618
C98	C	1.478224	0.888248	1.516618
H99	H	0.364704	0.482126	0.481911
H100	H	0.864704	0.982126	0.981911
N101	N	0.729807	0.495753	0.495479
N102	N	1.229807	0.995753	0.995479
H103	H	0.759159	0.463034	0.532899
H104	H	1.259159	0.963034	1.032899
H105	H	0.759072	0.533064	0.462585
H106	H	1.259072	1.033064	0.962585
N107	N	0.227108	0.281129	0.281547
N108	N	0.727108	0.781129	0.781547
H109	H	0.176966	0.288976	0.289359
H110	H	0.676966	0.788976	0.789359
H111	H	0.239444	0.293603	0.223939
H112	H	0.739444	0.793603	0.723939
H113	H	0.592231	0.482110	0.481891
H114	H	1.092231	0.982110	0.981891
H115	H	0.364689	0.294765	0.295133
H116	H	0.864689	0.794765	0.795133
N117	N	0.227126	0.495788	0.495531
N118	N	0.727126	0.995788	0.995531
H119	H	0.176982	0.487958	0.487731
H120	H	0.676982	0.987958	0.987731
H121	H	0.239507	0.483317	0.553138
H122	H	0.739507	0.983317	1.053138
H123	H	0.592213	0.294751	0.295123
H124	H	1.092213	0.794751	0.795123
N125	N	0.729806	0.281090	0.281506
N126	N	1.229806	0.781090	0.781506
H127	H	0.696688	0.248383	0.248901
H128	H	1.196688	0.748383	0.748901
H129	H	0.759115	0.313856	0.244130
H130	H	1.259115	0.813856	0.744130
