data_functionalizedCrystal
_audit_creation_method	'MofGen! by Chris Wilmer'
_symmetry_space_group_name_H-M	'P1'
_symmetry_Int_Tables_number	1
_symmetry_cell_setting	triclinic
loop_
_symmetry_equiv_pos_as_xyz
  x,y,z
_cell_length_a	11.792241
_cell_length_b	9.065215
_cell_length_c	10.868271
_cell_angle_alpha	89.996443
_cell_angle_beta	90.005281
_cell_angle_gamma	95.395910
loop_
_atom_site_label
_atom_site_type_symbol
_atom_site_fract_x
_atom_site_fract_y
_atom_site_fract_z
O1	O	0.166417	-1.958844	0.102303
O2	O	0.499751	-1.625510	0.435636
O3	O	0.833084	-1.292177	0.768969
O4	O	0.180072	-1.529430	0.102310
O5	O	0.513405	-1.196097	0.435643
O6	O	0.846739	-0.862764	0.768976
O7	O	0.008132	-1.754558	0.102297
O8	O	0.341465	-1.421224	0.435631
O9	O	0.674799	-1.087891	0.768964
O10	O	0.338358	-1.733716	0.102315
O11	O	0.671691	-1.400383	0.435648
O12	O	1.005024	-1.067050	0.768982
O13	O	0.008125	-1.754539	-0.102347
O14	O	0.341458	-1.421206	0.230986
O15	O	0.674792	-1.087872	0.564319
O16	O	0.180065	-1.529412	-0.102335
O17	O	0.513398	-1.196078	0.230998
O18	O	0.846732	-0.862745	0.564332
O19	O	0.166410	-1.958825	-0.102342
O20	O	0.499744	-1.625492	0.230991
O21	O	0.833077	-1.292158	0.564325
Zn22	Zn	0.173237	-1.744115	-0.134830
Zn23	Zn	0.506570	-1.410782	0.198503
Zn24	Zn	0.839903	-1.077449	0.531836
Zn25	Zn	0.173246	-1.744140	0.134798
Zn26	Zn	0.506579	-1.410807	0.468131
Zn27	Zn	0.839913	-1.077473	0.801465
O28	O	0.338351	-1.733698	-0.102330
O29	O	0.671684	-1.400364	0.231004
O30	O	1.005017	-1.067031	0.564337
C31	C	0.178757	-1.474447	-0.000012
C32	C	0.512090	-1.141113	0.333321
C33	C	0.845424	-0.807780	0.666655
C34	C	0.174835	-1.310640	-0.000009
C35	C	0.508169	-0.977307	0.333324
C36	C	0.841502	-0.643974	0.666657
C37	C	-0.034170	-1.753239	-0.000025
C38	C	0.299164	-1.419906	0.333309
C39	C	0.632497	-1.086573	0.666642
C40	C	-0.160205	-1.749321	-0.000023
C41	C	0.173128	-1.415987	0.333310
C42	C	0.506462	-1.082654	0.666643
C43	C	-0.390957	-1.742115	-0.000003
C44	C	-0.057624	-1.408782	0.333331
C45	C	0.275709	-1.075449	0.666664
C46	C	-0.262550	-1.746119	-0.000014
C47	C	0.070783	-1.412786	0.333320
C48	C	0.404117	-1.079452	0.666653
C49	C	0.380652	-1.735016	-0.000005
C50	C	0.713986	-1.401683	0.333328
C51	C	1.047319	-1.068350	0.666662
C52	C	0.506688	-1.738935	0.000002
C53	C	0.840021	-1.405601	0.333335
C54	C	1.173354	-1.072268	0.666668
C55	C	0.167725	-1.013809	-0.000017
C56	C	0.501059	-0.680475	0.333316
C57	C	0.834392	-0.347142	0.666650
C58	C	0.171647	-1.177615	-0.000009
C59	C	0.504980	-0.844282	0.333324
C60	C	0.838313	-0.510948	0.666658
N61	N	0.173230	-1.744109	-0.318844
N62	N	0.506563	-1.410776	0.014489
N63	N	0.839897	-1.077443	0.347822
C64	C	0.173243	-1.744132	-0.569850
C65	C	0.506577	-1.410799	-0.236517
C66	C	0.839910	-1.077466	0.096816
C67	C	0.173239	-1.744115	-0.430173
C68	C	0.506573	-1.410781	-0.096839
C69	C	0.839906	-1.077448	0.236494
N70	N	0.173244	-1.744158	0.318812
N71	N	0.506577	-1.410824	0.652145
N72	N	0.839910	-1.077491	0.985479
