data_functionalizedCrystal
_audit_creation_method	'MofGen! by Chris Wilmer'
_symmetry_space_group_name_H-M	'P1'
_symmetry_Int_Tables_number	1
_symmetry_cell_setting	triclinic
loop_
_symmetry_equiv_pos_as_xyz
  x,y,z
_cell_length_a	9.065215
_cell_length_b	14.044220
_cell_length_c	8.140239
_cell_angle_alpha	89.995862
_cell_angle_beta	89.997013
_cell_angle_gamma	89.101787
loop_
_atom_site_label
_atom_site_type_symbol
_atom_site_fract_x
_atom_site_fract_y
_atom_site_fract_z
O1	O	1.975820	0.139127	-0.136600
O2	O	2.309154	0.472460	0.196734
O3	O	2.642487	0.805794	0.530067
O4	O	1.547800	0.150543	-0.136608
O5	O	1.881134	0.483876	0.196726
O6	O	2.214467	0.817210	0.530059
O7	O	1.755386	0.006795	-0.136588
O8	O	2.088719	0.340129	0.196746
O9	O	2.422052	0.673462	0.530079
O10	O	1.768235	0.282875	-0.136620
O11	O	2.101568	0.616208	0.196714
O12	O	2.434902	0.949541	0.530047
O13	O	1.755370	0.006795	0.136640
O14	O	2.088703	0.340128	0.469973
O15	O	2.422036	0.673461	0.803306
O16	O	1.547784	0.150542	0.136619
O17	O	1.881117	0.483876	0.469953
O18	O	2.214451	0.817209	0.803286
O19	O	1.975804	0.139127	0.136627
O20	O	2.309138	0.472460	0.469961
O21	O	2.642471	0.805793	0.803294
Zn22	Zn	1.761792	0.144834	0.180004
Zn23	Zn	2.095125	0.478168	0.513337
Zn24	Zn	2.428458	0.811501	0.846671
Zn25	Zn	1.761813	0.144835	-0.179984
Zn26	Zn	2.095146	0.478168	0.153349
Zn27	Zn	2.428480	0.811502	0.486682
O28	O	1.768219	0.282874	0.136607
O29	O	2.101552	0.616208	0.469941
O30	O	2.434885	0.949541	0.803274
C31	C	1.492684	0.149446	0.000005
C32	C	1.826017	0.482780	0.333338
C33	C	2.159351	0.816113	0.666672
C34	C	1.328478	0.146168	0.000003
C35	C	1.661811	0.479501	0.333336
C36	C	1.995144	0.812834	0.666669
C37	C	1.749753	-0.028568	0.000027
C38	C	2.083087	0.304766	0.333360
C39	C	2.416420	0.638099	0.666693
C40	C	1.732976	-0.133937	0.000028
C41	C	2.066310	0.199396	0.333362
C42	C	2.399643	0.532729	0.666695
C43	C	1.702304	-0.326862	0.000004
C44	C	2.035638	0.006471	0.333337
C45	C	2.368971	0.339805	0.666671
C46	C	1.821294	-0.383474	0.000001
C47	C	2.154627	-0.050141	0.333335
C48	C	2.487960	0.283192	0.666668
C49	C	1.804227	-0.490824	-0.000012
C50	C	2.137561	-0.157491	0.333321
C51	C	2.470894	0.175842	0.666654
C52	C	1.719368	-0.219502	0.000018
C53	C	2.052702	0.113831	0.333351
C54	C	2.386035	0.447165	0.666684
C55	C	2.030921	0.140223	0.000011
C56	C	2.364254	0.473557	0.333344
C57	C	2.697587	0.806890	0.666678
C58	C	2.195127	0.143502	0.000003
C59	C	2.528460	0.476835	0.333336
C60	C	2.861794	0.810169	0.666669
C61	C	1.773851	0.318237	-0.000010
C62	C	2.107185	0.651570	0.333323
C63	C	2.440518	0.984904	0.666656
C64	C	1.790628	0.423607	-0.000023
C65	C	2.123962	0.756940	0.333310
C66	C	2.457295	1.090274	0.666644
N67	N	1.761788	0.144833	0.425687
N68	N	2.095121	0.478167	0.759020
N69	N	2.428455	0.811500	1.092353
N70	N	1.761815	0.144833	0.574333
N71	N	2.095148	0.478166	0.907666
N72	N	2.428481	0.811500	1.241000
H73	H	1.935981	-0.351319	-0.000107
H74	H	2.269314	-0.017986	0.333226
H75	H	2.602647	0.315347	0.666560
H76	H	1.587627	-0.359015	-0.000002
H77	H	1.920960	-0.025682	0.333331
H78	H	2.254293	0.307652	0.666665
