data_functionalizedCrystal
_audit_creation_method	'MofGen! by Chris Wilmer'
_symmetry_space_group_name_H-M	'P1'
_symmetry_Int_Tables_number	1
_symmetry_cell_setting	triclinic
loop_
_symmetry_equiv_pos_as_xyz
  x,y,z
_cell_length_a	11.026607
_cell_length_b	10.540539
_cell_length_c	10.065875
_cell_angle_alpha	98.880198
_cell_angle_beta	79.302338
_cell_angle_gamma	96.555754
loop_
_atom_site_label
_atom_site_type_symbol
_atom_site_fract_x
_atom_site_fract_y
_atom_site_fract_z
O1	O	1.632406	0.517971	-0.113482
O2	O	1.278575	0.457324	-0.113485
O3	O	1.463562	0.304709	-0.113482
O4	O	1.447418	0.670585	-0.113485
O5	O	1.428289	0.333960	0.113506
O6	O	1.243301	0.486575	0.113503
O7	O	1.597132	0.547222	0.113506
Zn8	Zn	1.414616	0.521543	0.149544
Zn9	Zn	1.461091	0.483003	-0.149523
O10	O	1.412145	0.699836	0.113503
C11	C	1.215630	0.460761	0.000009
C12	C	1.080627	0.427408	0.000007
C13	C	1.007620	0.519500	0.000005
C14	C	0.868087	0.485031	0.000004
C15	C	1.444715	0.271766	0.000010
C16	C	1.441094	0.130024	0.000002
C17	C	1.302369	-0.083873	-0.000508
C18	C	1.305961	0.063616	0.000003
C19	C	1.485983	0.099314	0.129624
C20	C	1.481354	-0.048226	0.129734
C21	C	1.524215	-0.081406	-0.128394
C22	C	1.525726	0.065627	-0.130108
C23	C	1.660077	0.543784	0.000010
C24	C	1.795082	0.577136	0.000002
C25	C	1.430992	0.732779	0.000008
C26	C	1.434615	0.874520	0.000007
N27	N	1.382908	0.547846	0.353649
N28	N	1.492809	0.456692	-0.353628
C29	C	1.450050	0.492145	0.421429
C30	C	1.425656	0.512401	0.578596
H31	H	1.269230	0.083037	-0.092915
H32	H	1.425819	0.144449	0.226084
H33	H	0.827302	0.380657	-0.000030
C34	C	1.486285	-0.152885	-0.259510
C35	C	1.458761	-0.064059	-0.337252
C36	C	1.423818	-0.129857	-0.458044
H37	H	1.415194	-0.210790	-0.238047
H38	H	1.552361	-0.199854	-0.310193
H39	H	1.392691	-0.017112	-0.286580
H40	H	1.529836	-0.006151	-0.358753
H41	H	1.489894	-0.176826	-0.508727
H42	H	1.352729	-0.187760	-0.436567
H43	H	1.405149	-0.069598	-0.510813
C44	C	0.849355	0.716359	0.000276
C45	C	0.792325	0.791758	0.117068
C46	C	0.842307	0.920008	0.117372
H47	H	0.835405	0.747483	-0.078791
H48	H	0.935903	0.721087	0.000349
H49	H	0.705798	0.787037	0.116982
H50	H	0.806272	0.760676	0.196153
H51	H	0.928854	0.924736	0.117445
H52	H	0.828353	0.951118	0.038300
H53	H	0.803628	0.971180	0.196619
H54	H	1.350104	0.575083	0.636915
C55	C	1.658755	0.125286	-0.140883
C56	C	1.730650	0.065092	-0.258137
C57	C	1.853194	0.120057	-0.268130
H58	H	1.690865	0.113980	-0.062623
H59	H	1.661003	0.214716	-0.146409
H60	H	1.728409	-0.024316	-0.252601
H61	H	1.698580	0.076395	-0.336418
H62	H	1.855441	0.209486	-0.273656
H63	H	1.885291	0.108747	-0.189865
H64	H	1.901987	0.079231	-0.347693
H65	H	1.493044	0.083706	-0.225999
C66	C	1.061888	0.658720	0.000286
C67	C	1.004847	0.734107	0.117082
C68	C	1.054813	0.862362	0.117397
H69	H	1.047934	0.689845	-0.078778
H70	H	1.148436	0.663459	0.000362
H71	H	0.918320	0.729374	0.116994
H72	H	1.018797	0.703022	0.196165
H73	H	1.141361	0.867101	0.117472
H74	H	1.040856	0.893474	0.038327
H75	H	1.016127	0.913525	0.196647
C76	C	1.550635	0.408358	0.343709
C77	C	1.524171	0.283295	0.378306
C78	C	1.616798	0.206081	0.306712
H79	H	1.628422	0.443366	0.366970
H80	H	1.553617	0.405791	0.248404
H81	H	1.521203	0.285867	0.473590
H82	H	1.446401	0.248250	0.355042
H83	H	1.619779	0.203513	0.211407
H84	H	1.694579	0.241100	0.329979
H85	H	1.598849	0.121214	0.330167
H86	H	1.307360	0.610524	0.411974
H87	H	1.418236	-0.074467	0.226628
H88	H	1.577626	-0.074149	0.135615
H89	H	1.584472	0.144027	0.134445
H90	H	1.568352	0.393999	0.588053
H91	H	1.039837	0.323041	-0.000027
C92	C	1.654562	-0.116125	-0.129855
C93	C	1.692346	-0.199448	-0.249213
C94	C	1.812412	-0.231450	-0.250603
H95	H	1.655302	-0.157492	-0.052627
H96	H	1.709647	-0.039938	-0.127084
H97	H	1.637276	-0.275623	-0.251970
H98	H	1.691635	-0.158108	-0.326460
H99	H	1.867497	-0.155262	-0.247832
H100	H	1.813140	-0.272812	-0.173370
H101	H	1.838068	-0.287978	-0.331591
C102	C	1.217970	0.120017	0.124230
C103	C	1.161358	0.021275	0.199120
C104	C	1.080308	0.073186	0.313585
H105	H	1.156329	0.160272	0.095507
H106	H	1.263045	0.181945	0.179818
H107	H	1.116285	-0.040631	0.143542
H108	H	1.222968	-0.018989	0.227876
H109	H	1.125383	0.135114	0.369173
H110	H	1.018675	0.113440	0.284850
H111	H	1.041895	0.006200	0.364418
C112	C	1.250488	-0.153338	-0.124571
C113	C	1.227775	-0.062672	-0.203005
C114	C	1.180001	-0.126625	-0.317317
H115	H	1.175294	-0.202756	-0.095614
H116	H	1.308700	-0.208793	-0.177885
H117	H	1.169566	-0.007239	-0.149701
H118	H	1.302950	-0.013249	-0.231997
H119	H	1.238213	-0.182080	-0.370630
H120	H	1.104811	-0.176042	-0.288346
H121	H	1.164595	-0.065119	-0.370554
H122	H	1.234841	-0.113813	0.091924
