data_functionalizedCrystal
_audit_creation_method	'MofGen! by Chris Wilmer'
_symmetry_space_group_name_H-M	'P1'
_symmetry_Int_Tables_number	1
_symmetry_cell_setting	triclinic
loop_
_symmetry_equiv_pos_as_xyz
  x,y,z
_cell_length_a	16.625548
_cell_length_b	29.839131
_cell_length_c	16.625539
_cell_angle_alpha	89.967906
_cell_angle_beta	89.979432
_cell_angle_gamma	90.042488
loop_
_atom_site_label
_atom_site_type_symbol
_atom_site_fract_x
_atom_site_fract_y
_atom_site_fract_z
Zn1	Zn	1.232574	-0.178840	-0.455888
Zn2	Zn	1.232433	-0.253971	-0.321046
Zn3	Zn	1.097736	-0.178857	-0.321069
Zn4	Zn	1.097662	-0.253945	-0.455836
O5	O	1.165101	-0.216403	-0.388460
O6	O	1.345388	-0.188810	-0.438013
O7	O	1.214537	-0.244025	-0.208217
O8	O	1.115713	-0.115987	-0.338984
O9	O	1.345284	-0.244008	-0.338946
O10	O	1.214778	-0.115975	-0.438035
O11	O	1.115576	-0.188839	-0.208233
O12	O	0.984894	-0.188814	-0.338933
O13	O	1.115586	-0.243964	-0.568676
O14	O	0.984839	-0.243981	-0.437947
O15	O	1.214706	-0.188785	-0.568714
O16	O	1.214465	-0.316834	-0.338896
O17	O	1.115449	-0.316815	-0.437925
C18	C	0.955610	-0.216397	-0.388437
C19	C	0.865989	-0.216405	-0.388447
C20	C	0.537814	-0.216408	-0.388481
C21	C	0.629122	-0.216406	-0.388469
C22	C	0.701899	-0.216406	-0.388463
C23	C	0.793213	-0.216404	-0.388452
C24	C	1.164956	-0.333126	-0.388420
C25	C	1.164967	-0.383060	-0.388430
C26	C	1.216752	-0.692701	-0.336971
C27	C	1.216852	-0.880374	-0.337002
O28	O	1.260766	-0.904636	-0.293219
N29	N	1.165268	-0.903845	-0.388521
C30	C	1.113660	-0.880395	-0.440039
O31	O	1.069793	-0.904665	-0.483866
C32	C	1.113565	-0.692723	-0.440011
C33	C	1.165146	-0.669254	-0.388483
C34	C	1.268330	-0.669232	-0.285447
C35	C	1.268302	-0.622316	-0.285437
C36	C	1.216695	-0.598870	-0.336950
C37	C	1.165118	-0.622339	-0.388473
C38	C	1.061962	-0.669274	-0.491533
C39	C	1.061944	-0.622353	-0.491523
C40	C	1.113525	-0.598884	-0.439995
C41	C	1.113483	-0.551977	-0.439975
N42	N	1.165067	-0.528505	-0.388456
C43	C	1.216673	-0.551952	-0.336944
C44	C	1.113712	-0.978926	-0.440049
C45	C	1.113735	-1.025844	-0.440055
C46	C	1.216928	-1.025819	-0.337019
C47	C	1.216901	-0.978900	-0.337009
C48	C	1.165296	-0.955455	-0.388530
C49	C	1.216609	-0.453426	-0.336925
C50	C	1.216573	-0.406506	-0.336917
C51	C	1.113383	-0.406535	-0.439956
C52	C	1.113416	-0.453451	-0.439962
C53	C	1.165035	-0.476895	-0.388443
O54	O	1.069599	-0.527685	-0.483742
O55	O	1.260546	-0.527674	-0.293136
C56	C	1.216781	-0.739616	-0.336981
C57	C	1.165203	-0.763085	-0.388504
C58	C	1.113597	-0.739639	-0.440017
C59	C	1.165226	-0.810003	-0.388510
C60	C	1.216832	-0.833449	-0.336997
C61	C	1.268416	-0.809978	-0.285479
C62	C	1.268387	-0.763062	-0.285468
C63	C	1.062014	-0.763110	-0.491536
C64	C	1.062046	-0.810026	-0.491541
C65	C	1.113652	-0.833472	-0.440028
C66	C	1.375410	-0.216410	-0.388483
C67	C	1.465031	-0.216413	-0.388493
C68	C	1.165154	-0.216370	-0.598769
C69	C	1.165176	-0.216355	-0.688390
C70	C	1.165269	-0.099225	-0.388518
C71	C	1.165341	-0.049290	-0.388542
C72	C	1.165213	-0.216305	-1.016566
C73	C	1.165201	-0.216320	-0.925257
C74	C	1.165195	-0.216330	-0.852481
C75	C	1.165182	-0.216345	-0.761167
C76	C	1.165095	-0.216404	-0.178969
C77	C	1.165229	-0.216292	-0.089348
H78	H	1.258644	-0.472509	-0.294976
H79	H	1.310306	-0.603210	-0.243481
H80	H	1.071364	-0.387438	-0.481895
C81	C	1.273702	-1.051615	-0.280359
C82	C	1.330455	-1.025806	-0.223690
C83	C	1.387232	-1.051605	-0.167041
C84	C	1.387256	-1.103213	-0.167060
C85	C	1.330501	-1.129025	-0.223731
C86	C	1.273724	-1.103226	-0.280381
H87	H	1.330440	-0.987601	-0.223674
H88	H	1.429246	-1.032497	-0.125089
H89	H	1.429286	-1.122311	-0.125125
H90	H	1.330517	-1.167231	-0.223748
H91	H	1.231710	-1.122334	-0.322333
H92	H	1.019922	-0.603266	-0.533480
H93	H	1.258577	-0.387399	-0.294954
C94	C	1.325133	-0.737251	-0.228790
C95	C	1.318611	-0.743746	-0.137124
C96	C	1.375361	-0.717939	-0.080444
C97	C	1.438634	-0.685637	-0.115429
C98	C	1.445159	-0.679140	-0.207100
C99	C	1.388408	-0.704947	-0.263780
H100	H	1.271770	-0.767660	-0.111222
H101	H	1.370531	-0.722748	-0.012583
H102	H	1.480645	-0.666533	-0.073471
H103	H	1.492000	-0.655227	-0.233002
H104	H	1.393239	-0.700138	-0.331641
H105	H	1.019991	-0.744024	-0.533485
H106	H	1.310433	-0.829076	-0.243533
H107	H	1.258903	-0.959794	-0.295051
H108	H	1.071688	-0.959840	-0.482005
C109	C	1.056989	-1.051657	-0.496730
C110	C	1.000229	-1.025860	-0.553394
C111	C	0.943485	-1.051670	-0.610075
C112	C	0.943500	-1.103278	-0.610093
C113	C	1.000261	-1.129078	-0.553428
C114	C	1.057005	-1.103267	-0.496746
H115	H	1.000217	-0.987654	-0.553382
H116	H	0.901466	-1.032571	-0.652023
H117	H	0.901494	-1.122385	-0.652052
H118	H	1.000274	-1.167284	-0.553439
H119	H	1.099024	-1.122366	-0.454799
H120	H	1.310358	-0.688317	-0.243499
H121	H	1.019955	-0.688375	-0.533489
C122	C	1.005301	-0.835837	-0.548228
C123	C	0.913639	-0.829441	-0.541571
C124	C	0.856902	-0.855250	-0.598262
C125	C	0.891827	-0.887457	-0.661609
C126	C	0.983494	-0.893855	-0.668267
C127	C	1.040231	-0.868045	-0.611577
H128	H	0.887781	-0.805598	-0.494676
H129	H	0.789044	-0.850514	-0.593332
H130	H	0.849827	-0.906563	-0.703574
H131	H	1.009352	-0.917697	-0.715162
H132	H	1.108089	-0.872782	-0.616506
H133	H	1.071417	-0.472560	-0.481922
