data_functionalizedCrystal
_audit_creation_method	'MofGen! by Chris Wilmer'
_symmetry_space_group_name_H-M	'P1'
_symmetry_Int_Tables_number	1
_symmetry_cell_setting	triclinic
loop_
_symmetry_equiv_pos_as_xyz
  x,y,z
_cell_length_a	19.077236
_cell_length_b	25.639234
_cell_length_c	19.077442
_cell_angle_alpha	92.319622
_cell_angle_beta	90.073264
_cell_angle_gamma	87.677591
loop_
_atom_site_label
_atom_site_type_symbol
_atom_site_fract_x
_atom_site_fract_y
_atom_site_fract_z
Zn1	Zn	1.085524	-0.321024	0.236724
Zn2	Zn	1.090154	-0.230228	0.354227
Zn3	Zn	0.968011	-0.229948	0.241446
Zn4	Zn	0.972698	-0.313980	0.358906
O5	O	1.029097	-0.273795	0.297826
O6	O	1.184474	-0.312045	0.248377
O7	O	1.073928	-0.157024	0.339285
O8	O	0.979701	-0.244860	0.142487
O9	O	1.187875	-0.245337	0.334706
O10	O	1.066037	-0.311774	0.139018
O11	O	0.984190	-0.156818	0.256425
O12	O	0.870298	-0.238030	0.260962
O13	O	0.987688	-0.388081	0.342680
O14	O	0.873741	-0.299768	0.347259
O15	O	1.070582	-0.393256	0.252914
O16	O	1.078472	-0.238507	0.453181
O17	O	0.992177	-0.300039	0.456618
C18	C	0.846522	-0.268104	0.305131
C19	C	0.768416	-0.265682	0.308273
C20	C	0.729955	-0.299324	0.264874
C21	C	0.656566	-0.297043	0.267823
C22	C	0.621640	-0.261122	0.314175
C23	C	0.660107	-0.227477	0.357577
C24	C	0.733494	-0.229755	0.354623
C25	C	0.402345	-0.250576	0.327816
C26	C	0.328953	-0.248301	0.330767
C27	C	0.325417	-0.317867	0.241012
C28	C	0.398806	-0.320144	0.238066
C29	C	0.437266	-0.286497	0.281465
N30	N	0.546625	-0.258791	0.317192
N31	N	0.512279	-0.288826	0.278444
C32	C	1.029141	-0.410170	0.297792
C33	C	1.029160	-0.468285	0.297778
C34	C	0.982450	-0.828550	0.254548
C35	C	0.982453	-0.883155	0.254535
O36	O	0.942707	-0.911304	0.217859
N37	N	1.029179	-0.910572	0.297667
C38	C	1.075900	-0.883381	0.340819
O39	O	1.115643	-0.911715	0.377504
C40	C	1.075892	-0.828777	0.340835
C41	C	1.029169	-0.801363	0.297695
C42	C	0.935730	-0.801136	0.211413
C43	C	0.935727	-0.746535	0.211425
C44	C	0.982446	-0.719348	0.254572
C45	C	1.029166	-0.746762	0.297708
C46	C	1.122609	-0.801587	0.383990
C47	C	1.122598	-0.746979	0.384003
C48	C	1.075874	-0.719565	0.340864
C49	C	1.075883	-0.664974	0.340867
N50	N	1.029157	-0.637557	0.297736
C51	C	0.982439	-0.664744	0.254588
C52	C	1.075910	-0.998053	0.340783
C53	C	1.075922	-1.052656	0.340763
C54	C	0.982474	-1.052426	0.254481
C55	C	0.982467	-0.997822	0.254497
C56	C	1.029185	-0.970636	0.297651
C57	C	0.982438	-0.550078	0.254617
C58	C	0.982442	-0.495472	0.254630
C59	C	1.075886	-0.495707	0.340915
C60	C	1.075885	-0.550308	0.340899
C61	C	1.029155	-0.577492	0.297748
O62	O	1.115607	-0.636790	0.377527
O63	O	0.942695	-0.636403	0.217916
C64	C	1.212385	-0.279508	0.290493
C65	C	1.290491	-0.281943	0.287368
C66	C	1.036355	-0.268551	0.480395
C67	C	1.039524	-0.266327	0.558497
C68	C	1.029091	-0.137953	0.297807
C69	C	1.029200	-0.079848	0.297618
C70	C	1.021830	-0.279072	0.114543
C71	C	1.018733	-0.281320	0.036439
C72	C	1.062205	-0.250358	0.997929
C73	C	1.059221	-0.252449	0.924545
C74	C	1.012768	-0.285505	0.889671
C75	C	0.969292	-0.316468	0.928187
C76	C	0.972273	-0.314374	1.001570
C77	C	0.999028	-0.295196	0.670395
C78	C	0.996052	-0.297289	0.597006
C79	C	1.085981	-0.233269	0.593370
C80	C	1.088961	-0.231181	0.666754
C81	C	1.045482	-0.262142	0.705263
N82	N	1.009719	-0.287643	0.814661
N83	N	1.048528	-0.259999	0.780272
H84	H	0.433651	-0.223178	0.363155
H85	H	0.944386	-0.572205	0.219478
C86	C	0.614251	-0.334057	0.220099
C87	C	0.561578	-0.311499	0.166918
C88	C	0.519260	-0.348516	0.119197
C89	C	0.529615	-0.408091	0.124658
C90	C	0.582291	-0.430652	0.177841
C91	C	0.624609	-0.393635	0.225562
H92	H	0.553910	-0.267395	0.162873
H93	H	0.480265	-0.331814	0.079827
H94	H	0.498289	-0.435493	0.089332
H95	H	0.589959	-0.474756	0.181886
H96	H	0.663603	-0.410336	0.264932
H97	H	0.944421	-0.975505	0.219368
H98	H	1.126786	-0.204262	0.695143
H99	H	1.121379	-0.208061	0.562009
C100	C	0.884321	-0.716386	0.163977
C101	C	0.886882	-0.726378	0.083864
C102	C	0.835470	-0.696234	0.036416
C103	C	0.781497	-0.656097	0.069082
C104	C	0.778935	-0.646102	0.149199
C105	C	0.830347	-0.676246	0.196647
H106	H	0.926837	-0.756092	0.059679
H107	H	0.837367	-0.703633	-0.022892
H108	H	0.743439	-0.633782	0.033958
H109	H	0.738980	-0.616388	0.173384
H110	H	0.828450	-0.668847	0.255956
C111	C	0.884336	-0.831035	0.163942
C112	C	0.830367	-0.865971	0.196571
C113	C	0.778974	-0.895866	0.149092
C114	C	0.781550	-0.890824	0.068984
C115	C	0.835522	-0.855886	0.036351
C116	C	0.886915	-0.825992	0.083830
H117	H	0.828457	-0.869705	0.255876
H118	H	0.739020	-0.921729	0.173249
H119	H	0.743506	-0.912954	0.033837
H120	H	0.837432	-0.852153	-0.022954
H121	H	0.926868	-0.800129	0.059673
C122	C	0.768370	-0.338837	0.213885
C123	C	0.758545	-0.397788	0.220130
C124	C	0.796959	-0.437300	0.169137
C125	C	0.845198	-0.417863	0.111899
C126	C	0.855025	-0.358909	0.105652
C127	C	0.816611	-0.319396	0.156644
H128	H	0.722834	-0.412179	0.262503
H129	H	0.789684	-0.480942	0.173762
H130	H	0.873634	-0.447113	0.074152
H131	H	0.890736	-0.344518	0.063279
H132	H	0.823886	-0.275755	0.152019
C133	C	0.775805	-0.192749	0.402364
C134	C	0.737392	-0.153237	0.453353
C135	C	0.779702	-0.116227	0.501092
C136	C	0.860425	-0.118729	0.497843
C137	C	0.898842	-0.158243	0.446852
C138	C	0.856533	-0.195253	0.399113
H139	H	0.677632	-0.151383	0.455760
H140	H	0.751262	-0.086977	0.538838
H141	H	0.891745	-0.091332	0.533182
H142	H	0.958602	-0.160096	0.444445
H143	H	0.884972	-0.224503	0.361367
C144	C	0.944949	-0.333648	0.558640
C145	C	0.887760	-0.310674	0.510458
C146	C	0.836662	-0.347031	0.472090
C147	C	0.842753	-0.406364	0.481903
C148	C	0.899945	-0.429342	0.530087
C149	C	0.951043	-0.392984	0.568455
H150	H	0.883248	-0.266749	0.503192
H151	H	0.794324	-0.330021	0.436421
H152	H	0.804927	-0.433278	0.453500
H153	H	0.904457	-0.473266	0.537353
H154	H	0.993381	-0.409994	0.604124
H155	H	0.931465	-0.343380	0.899789
C156	C	0.931077	-1.082338	0.207021
C157	C	0.877122	-1.117272	0.239677
C158	C	0.825728	-1.147185	0.192220
C159	C	0.828288	-1.142162	0.112109
C160	C	0.882245	-1.107226	0.079449
C161	C	0.933639	-1.077314	0.126905
H162	H	0.875225	-1.120992	0.298984
H163	H	0.785785	-1.173047	0.216398
H164	H	0.790243	-1.164305	0.076978
H165	H	0.884143	-1.103507	0.020142
H166	H	0.973582	-1.051452	0.102728
C167	C	1.127329	-1.082807	0.388209
C168	C	1.124766	-1.072815	0.468322
C169	C	1.176174	-1.102962	0.515771
C170	C	1.230145	-1.143101	0.483107
C171	C	1.232710	-1.153094	0.402989
C172	C	1.181302	-1.122947	0.355540
H173	H	1.084811	-1.043100	0.492506
H174	H	1.174275	-1.095564	0.575080
H175	H	1.268201	-1.165417	0.518232
H176	H	1.272665	-1.182809	0.378805
H177	H	1.183202	-1.130345	0.296231
C178	C	0.283108	-0.354871	0.193269
C179	C	0.233892	-0.393440	0.225816
C180	C	0.191583	-0.430444	0.178068
C181	C	0.198489	-0.428878	0.097772
C182	C	0.247706	-0.390308	0.065221
C183	C	0.290016	-0.353304	0.112970
H184	H	0.228778	-0.394601	0.285259
H185	H	0.155149	-0.458997	0.202165
H186	H	0.167169	-0.456271	0.062426
H187	H	0.252820	-0.389147	0.005778
H188	H	0.326450	-0.324751	0.088873
H189	H	0.427237	-0.349396	0.200324
C190	C	0.621692	-0.187962	0.408565
C191	C	0.634975	-0.190148	0.488049
C192	C	0.596563	-0.150634	0.539040
C193	C	0.544869	-0.108933	0.510548
C194	C	0.531583	-0.106745	0.431060
C195	C	0.569995	-0.146259	0.380069
H196	H	0.673245	-0.221019	0.509144
H197	H	0.606398	-0.152253	0.597882
H198	H	0.516434	-0.079681	0.548295
H199	H	0.493314	-0.075874	0.409965
H200	H	0.560160	-0.144640	0.321227
C201	C	1.107045	-0.218390	0.882188
C202	C	1.101769	-0.158484	0.892560
C203	C	1.149595	-0.124422	0.850205
C204	C	1.202697	-0.150267	0.797479
C205	C	1.207975	-0.210177	0.787105
C206	C	1.160149	-0.244239	0.829460
H207	H	1.062457	-0.139349	0.931593
H208	H	1.145687	-0.080072	0.857885
H209	H	1.238100	-0.125053	0.766126
H210	H	1.247286	-0.229312	0.748072
H211	H	1.164056	-0.288588	0.821780
C212	C	0.951201	-0.329254	0.712744
C213	C	0.898090	-0.303406	0.765458
C214	C	0.850257	-0.337466	0.807809
C215	C	0.855536	-0.397373	0.797445
C216	C	0.908649	-0.423224	0.744728
C217	C	0.956482	-0.389165	0.702377
H218	H	0.894180	-0.259056	0.773133
H219	H	0.810939	-0.318329	0.846834
H220	H	0.820127	-0.422586	0.828795
H221	H	0.912558	-0.467574	0.737053
H222	H	0.995799	-0.408302	0.663352
C223	C	1.127314	-0.968152	0.388247
C224	C	1.206970	-0.978332	0.379306
C225	C	1.258373	-0.948436	0.426771
C226	C	1.230120	-0.908359	0.483177
C227	C	1.150460	-0.898177	0.492120
C228	C	1.099057	-0.928074	0.444656
H229	H	1.227889	-1.008001	0.337549
H230	H	1.317343	-0.955973	0.420150
H231	H	1.268172	-0.886228	0.518313
H232	H	1.129541	-0.868508	0.533878
H233	H	1.040087	-0.920536	0.451277
H234	H	0.300519	-0.219049	0.368516
H235	H	1.160656	-0.823898	0.419119
C236	C	1.173989	-0.717073	0.431473
C237	C	1.253648	-0.727247	0.422546
C238	C	1.305039	-0.697342	0.470014
C239	C	1.276772	-0.657262	0.526409
C240	C	1.197109	-0.647086	0.535339
C241	C	1.145718	-0.676992	0.487871
H242	H	1.274577	-0.756918	0.380796
H243	H	1.364011	-0.704875	0.463403
H244	H	1.314814	-0.635124	0.561548
H245	H	1.176180	-0.617415	0.577089
H246	H	1.086746	-0.669459	0.494482
H247	H	0.936877	-0.339589	1.032924
H248	H	1.113939	-0.572630	0.376019
C249	C	1.127260	-0.465794	0.388392
C250	C	1.127237	-0.405731	0.388415
C251	C	1.178601	-0.375815	0.435903
C252	C	1.229987	-0.405963	0.483368
C253	C	1.230012	-0.466029	0.483346
C254	C	1.178649	-0.495945	0.435858
H255	H	1.089196	-0.383411	0.353278
H256	H	1.178582	-0.331350	0.435919
H257	H	1.268010	-0.383818	0.518521
H258	H	1.268053	-0.488349	0.518484
H259	H	1.178667	-0.540410	0.435842
C260	C	1.113303	-0.213995	1.036286
C261	C	1.161117	-0.179935	0.993923
C262	C	1.212215	-0.143569	1.032277
C263	C	1.215499	-0.141264	1.112996
C264	C	1.167683	-0.175326	1.155364
C265	C	1.116585	-0.211691	1.117009
H266	H	1.158688	-0.181641	0.934166
H267	H	1.247611	-0.118355	1.000913
H268	H	1.253324	-0.114344	1.141388
H269	H	1.170112	-0.173620	1.215120
H270	H	1.081189	-0.236906	1.148373
H271	H	0.944393	-0.473154	0.219498
