data_functionalizedCrystal
_audit_creation_method	'MofGen! by Chris Wilmer'
_symmetry_space_group_name_H-M	'P1'
_symmetry_Int_Tables_number	1
_symmetry_cell_setting	triclinic
loop_
_symmetry_equiv_pos_as_xyz
  x,y,z
_cell_length_a	11.792241
_cell_length_b	10.654550
_cell_length_c	9.730223
_cell_angle_alpha	90.003749
_cell_angle_beta	89.998500
_cell_angle_gamma	95.660841
loop_
_atom_site_label
_atom_site_type_symbol
_atom_site_fract_x
_atom_site_fract_y
_atom_site_fract_z
O1	O	0.159415	-1.667383	-0.114404
O2	O	0.174603	-1.301862	-0.114382
O3	O	0.001859	-1.493493	-0.114383
O4	O	0.332159	-1.475752	-0.114402
O5	O	0.001863	-1.493490	0.114196
O6	O	0.174608	-1.301859	0.114198
O7	O	0.159419	-1.667381	0.114176
Zn8	Zn	0.167014	-1.484620	0.150479
Zn9	Zn	0.167008	-1.484623	-0.150685
O10	O	0.332163	-1.475750	0.114178
C11	C	0.173490	-1.255066	-0.000089
C12	C	0.170154	-1.115632	-0.000080
C13	C	-0.040432	-1.492377	-0.000094
C14	C	-0.166454	-1.489042	-0.000095
C15	C	0.160532	-1.714177	-0.000120
C16	C	0.163869	-1.853611	-0.000137
C17	C	-0.397180	-1.482908	-0.000118
C18	C	-0.268787	-1.486316	-0.000105
C19	C	0.374455	-1.476865	-0.000114
C20	C	0.500476	-1.480201	-0.000122
N21	N	0.167017	-1.484627	0.356016
C22	C	0.271863	-1.035858	-0.000106
C23	C	0.268721	-0.904847	-0.000129
C24	C	0.062152	-0.933394	-0.000107
C25	C	0.065295	-1.064404	-0.000074
C26	C	0.391124	-1.019376	-0.000124
C27	C	0.387982	-0.888364	-0.000148
N28	N	0.166996	-1.484625	-0.356221
C29	C	0.090552	-1.569503	0.427941
C30	C	0.090539	-1.569500	0.571824
C31	C	0.243465	-1.399740	0.571844
C32	C	0.243472	-1.399739	0.427963
C33	C	0.002265	-1.667516	0.427931
C34	C	0.002251	-1.667513	0.571814
H35	H	-0.017527	-1.129352	-0.000033
H36	H	0.432916	-0.846505	-0.095818
H37	H	0.424026	-0.842589	0.098534
H38	H	0.305726	-1.330615	0.369403
H39	H	-0.023221	-0.891668	-0.000123
C40	C	0.442417	-1.067415	-0.133444
C41	C	0.452987	-1.209271	-0.152494
C42	C	0.504270	-1.257313	-0.285819
C43	C	0.544984	-1.163499	-0.400093
C44	C	0.534415	-1.021634	-0.381047
C45	C	0.483132	-0.973592	-0.247722
H46	H	0.422847	-1.278725	-0.067899
H47	H	0.512094	-1.362331	-0.299918
H48	H	0.582947	-1.199063	-0.498788
H49	H	0.564555	-0.952180	-0.465642
H50	H	0.475308	-0.868574	-0.233623
H51	H	0.437768	-1.048574	0.095539
H52	H	0.021698	-1.763969	0.610857
C53	C	-0.115584	-1.638873	0.375165
C54	C	-0.210597	-1.615775	0.477997
C55	C	-0.328441	-1.587129	0.425231
C56	C	-0.351272	-1.581582	0.269631
C57	C	-0.256255	-1.604681	0.166789
C58	C	-0.138411	-1.633326	0.219556
H59	H	-0.193699	-1.619880	0.593190
H60	H	-0.398778	-1.570030	0.501362
H61	H	-0.438507	-1.560377	0.230570
H62	H	-0.273153	-1.600575	0.051596
H63	H	-0.068074	-1.650425	0.143424
C64	C	0.039611	-1.790590	0.367624
C65	C	-0.028696	-1.917674	0.400819
C66	C	0.008658	-2.040745	0.340514
C67	C	0.114318	-2.036733	0.247014
C68	C	0.182631	-1.909644	0.213815
C69	C	0.145278	-1.786573	0.274120
H70	H	-0.106918	-1.920648	0.470037
H71	H	-0.041913	-2.134825	0.365090
H72	H	0.141969	-2.127838	0.202372
H73	H	0.260853	-1.906670	0.144597
H74	H	0.195848	-1.692493	0.249543
C75	C	-0.109135	-1.626640	0.632093
C76	C	-0.184022	-1.717264	0.725576
C77	C	-0.295410	-1.676400	0.785849
C78	C	-0.331912	-1.544912	0.752640
C79	C	-0.257025	-1.454279	0.659153
C80	C	-0.145636	-1.495143	0.598879
H81	H	-0.157002	-1.814607	0.750163
H82	H	-0.350847	-1.743494	0.855055
H83	H	-0.414369	-1.514662	0.797258
H84	H	-0.284044	-1.356936	0.634565
H85	H	-0.090199	-1.428049	0.529673
H86	H	0.305712	-1.330626	0.630439
