data_functionalizedCrystal
_audit_creation_method	'MofGen! by Chris Wilmer'
_symmetry_space_group_name_H-M	'P1'
_symmetry_Int_Tables_number	1
_symmetry_cell_setting	triclinic
loop_
_symmetry_equiv_pos_as_xyz
  x,y,z
_cell_length_a	14.908520
_cell_length_b	15.298708
_cell_length_c	14.908308
_cell_angle_alpha	102.311050
_cell_angle_beta	96.360765
_cell_angle_gamma	102.383294
loop_
_atom_site_label
_atom_site_type_symbol
_atom_site_fract_x
_atom_site_fract_y
_atom_site_fract_z
Zn1	Zn	-0.140808	1.354605	-0.284158
Zn2	Zn	0.359192	1.854605	0.215842
Zn3	Zn	-0.283473	1.354500	-0.141548
Zn4	Zn	0.216527	1.854500	0.358452
Zn5	Zn	-0.158713	1.209921	-0.159349
Zn6	Zn	0.341287	1.709921	0.340651
Zn7	Zn	-0.322206	1.191013	-0.322837
Zn8	Zn	0.177794	1.691013	0.177163
O9	O	-0.226300	1.277510	-0.226973
O10	O	0.273700	1.777510	0.273027
O11	O	-0.136030	1.483562	-0.241604
O12	O	0.363970	1.983562	0.258396
O13	O	-0.258207	1.343191	-0.015806
O14	O	0.241793	1.843191	0.484194
O15	O	-0.028210	1.237070	-0.167167
O16	O	0.471790	1.737070	0.332833
O17	O	-0.240845	1.483485	-0.136829
O18	O	0.259155	1.983485	0.363171
O19	O	-0.015056	1.343369	-0.258864
O20	O	0.484944	1.843369	0.241136
O21	O	-0.166546	1.236969	-0.028884
O22	O	0.333454	1.736969	0.471116
O23	O	-0.204104	1.078441	-0.204673
O24	O	0.295896	1.578441	0.295327
O25	O	-0.306859	1.204844	-0.445810
O26	O	0.193141	1.704844	0.054190
O27	O	-0.324221	1.064550	-0.324787
O28	O	0.175779	1.564550	0.175213
O29	O	-0.173588	1.325035	-0.417393
O30	O	0.326412	1.825035	0.082607
O31	O	-0.416739	1.324856	-0.174334
O32	O	0.083261	1.824856	0.325666
O33	O	-0.445195	1.204743	-0.307527
O34	O	0.054805	1.704743	0.192473
C35	C	-0.270309	1.038055	-0.270859
C36	C	0.229691	1.538055	0.229141
C37	C	-0.289160	0.935612	-0.289657
C38	C	0.210840	1.435612	0.210343
C39	C	-0.091815	0.675672	-0.092862
C40	C	0.408185	1.175672	0.407138
C41	C	-0.074099	0.771922	-0.075201
C42	C	0.425901	1.271922	0.424799
C43	C	-0.127863	0.812849	-0.128813
C44	C	0.372137	1.312849	0.371187
C45	C	-0.199346	0.757517	-0.200090
C46	C	0.300654	1.257517	0.299910
C47	C	-0.217059	0.661257	-0.217758
C48	C	0.282941	1.161257	0.282242
C49	C	-0.253107	0.798435	-0.253709
C50	C	0.246893	1.298435	0.246291
C51	C	-0.324590	0.743102	-0.324986
C52	C	0.175410	1.243102	0.175014
C53	C	-0.342301	0.646852	-0.342649
C54	C	0.157699	1.146852	0.157351
C55	C	-0.288537	0.605925	-0.289037
C56	C	0.211463	1.105925	0.210963
C57	C	-0.235393	0.894694	-0.236041
C58	C	0.264607	1.394694	0.263959
C59	C	-0.360637	0.880280	-0.360937
C60	C	0.139363	1.380280	0.139063
C61	C	-0.378354	0.784030	-0.378598
C62	C	0.121646	1.284030	0.121402
C63	C	-0.464186	1.262760	-0.243211
C64	C	0.035814	1.762760	0.256789
C65	C	-0.565941	1.256533	-0.250173
C66	C	-0.065941	1.756533	0.249827
C67	C	-0.727441	1.370021	-0.124634
C68	C	-0.227441	1.870021	0.375366
C69	C	-0.823048	1.364173	-0.131172
C70	C	-0.323048	1.864173	0.368828
C71	C	-0.852764	1.238994	-0.269790
C72	C	-0.352764	1.738994	0.230210
C73	C	-0.757156	1.244842	-0.263252
C74	C	-0.257156	1.744842	0.236748
C75	C	-0.694498	1.310356	-0.190671
C76	C	-0.194498	1.810356	0.309329
C77	C	-0.598889	1.316199	-0.184130
C78	C	-0.098889	1.816199	0.315870
C79	C	-0.628606	1.191026	-0.322751
C80	C	-0.128606	1.691026	0.177249
C81	C	-0.724214	1.185178	-0.329289
C82	C	-0.224214	1.685178	0.170711
C83	C	0.012518	1.292341	-0.210687
C84	C	0.512518	1.792341	0.289313
C85	C	0.114288	1.298661	-0.203747
C86	C	0.614288	1.798661	0.296253
C87	C	-0.242547	1.262842	-0.465746
C88	C	0.257453	1.762842	0.034254
C89	C	-0.249470	1.256592	-0.567497
C90	C	0.250530	1.756592	-0.067497
C91	C	-0.182120	1.517900	-0.182916
C92	C	0.317880	2.017900	0.317084
C93	C	-0.163293	1.620339	-0.164142
C94	C	0.336707	2.120339	0.335858
C95	C	-0.123683	1.369999	-0.729107
C96	C	0.376317	1.869999	-0.229107
C97	C	-0.130185	1.364130	-0.824711
C98	C	0.369815	1.864130	-0.324711
C99	C	-0.268970	1.238978	-0.854309
C100	C	0.231030	1.738978	-0.354309
C101	C	-0.262469	1.244848	-0.758706
C102	C	0.237531	1.744848	-0.258706
C103	C	-0.189824	1.310362	-0.696108
C104	C	0.310176	1.810362	-0.196108
C105	C	-0.183327	1.316235	-0.600502
C106	C	0.316673	1.816235	-0.100502
C107	C	-0.322108	1.191080	-0.630103
C108	C	0.177892	1.691080	-0.130103
C109	C	-0.328609	1.185211	-0.725706
C110	C	0.171391	1.685211	-0.225706
C111	C	-0.210041	1.292177	0.010885
C112	C	0.289959	1.792177	0.510885
C113	C	-0.202826	1.298622	0.112686
C114	C	0.297174	1.798622	0.612686
H115	H	-0.302962	0.527551	-0.303409
H116	H	0.197038	1.027551	0.196591
Cl117	Cl	-0.419928	1.102855	-0.804408
Cl118	Cl	0.080072	1.602855	-0.304408
Cl119	Cl	0.015766	0.841475	0.014395
Cl120	Cl	0.515766	1.341475	0.514395
Cl121	Cl	-0.032369	1.452366	-0.650409
Cl122	Cl	0.467631	1.952366	-0.150409
Cl123	Cl	-0.047032	1.439105	-0.866193
Cl124	Cl	0.452968	1.939105	-0.366193
Cl125	Cl	-0.428223	0.931724	-0.428347
Cl126	Cl	0.071777	1.431724	0.071653
Cl127	Cl	-0.587190	1.116003	-0.405764
Cl128	Cl	-0.087190	1.616003	0.094236
Cl129	Cl	-0.648669	1.452366	-0.033381
Cl130	Cl	-0.148669	1.952366	0.466619
H131	H	-0.328114	1.185640	-0.905292
H132	H	0.171886	1.685640	-0.405292
Cl133	Cl	-0.092004	1.398596	-0.521809
Cl134	Cl	0.407996	1.898596	-0.021809
Cl135	Cl	-0.405268	1.116112	-0.588612
Cl136	Cl	0.094732	1.616112	-0.088612
Cl137	Cl	-0.520120	1.398556	-0.092884
Cl138	Cl	-0.020120	1.898556	0.407116
H139	H	-0.903795	1.185661	-0.328887
H140	H	-0.403795	1.685661	0.171113
Cl141	Cl	-0.145533	0.964243	-0.146438
Cl142	Cl	0.354467	1.464243	0.353562
H143	H	-0.113433	0.891221	-0.114430
H144	H	0.386567	1.391221	0.385570
Cl145	Cl	-0.024226	0.624215	-0.025482
Cl146	Cl	0.475774	1.124215	0.474518
H147	H	-0.400501	0.601803	-0.400694
H148	H	0.099499	1.101803	0.099306
H149	H	-0.436556	0.738965	-0.436633
H150	H	0.063444	1.238965	0.063367
H151	H	-0.849865	1.412759	-0.077399
H152	H	-0.349865	1.912759	0.422601
Cl153	Cl	-0.802991	1.102824	-0.420530
Cl154	Cl	-0.302991	1.602824	0.079470
