data_functionalizedCrystal
_audit_creation_method	'MofGen! by Chris Wilmer'
_symmetry_space_group_name_H-M	'P1'
_symmetry_Int_Tables_number	1
_symmetry_cell_setting	triclinic
loop_
_symmetry_equiv_pos_as_xyz
  x,y,z
_cell_length_a	12.827892
_cell_length_b	19.077241
_cell_length_c	19.077174
_cell_angle_alpha	94.706947
_cell_angle_beta	92.276047
_cell_angle_gamma	87.692554
loop_
_atom_site_label
_atom_site_type_symbol
_atom_site_fract_x
_atom_site_fract_y
_atom_site_fract_z
Zn1	Zn	-0.377334	-1.093781	-0.442015
Zn2	Zn	-0.545345	-1.088984	-0.324134
Zn3	Zn	-0.377347	-0.971162	-0.319395
Zn4	Zn	-0.558764	-0.975876	-0.437237
O5	O	-0.464697	-1.032451	-0.380695
O6	O	-0.394000	-1.191797	-0.430361
O7	O	-0.517450	-1.069374	-0.224855
O8	O	-0.231108	-0.987462	-0.335677
O9	O	-0.517437	-1.188273	-0.343754
O10	O	-0.231098	-1.077550	-0.425765
O11	O	-0.394022	-0.982811	-0.221373
O12	O	-0.407033	-0.873135	-0.331044
O13	O	-0.540307	-0.995496	-0.536521
O14	O	-0.540320	-0.876598	-0.417622
O15	O	-0.407011	-1.082120	-0.540031
O16	O	-0.693362	-1.073945	-0.339121
O17	O	-0.703221	-0.990845	-0.422217
C18	C	-0.475135	-0.849287	-0.373300
C19	C	-0.479626	-0.770929	-0.370154
C20	C	-0.417579	-0.735955	-0.413836
C21	C	-0.421794	-0.662330	-0.410873
C22	C	-0.488062	-0.623680	-0.364231
C23	C	-0.550111	-0.658659	-0.320545
C24	C	-0.545890	-0.732283	-0.323504
C25	C	-0.507560	-0.403290	-0.350534
C26	C	-0.511778	-0.329661	-0.347579
C27	C	-0.383459	-0.333337	-0.437906
C28	C	-0.379248	-0.406962	-0.440865
C29	C	-0.441294	-0.441935	-0.397176
N30	N	-0.492374	-0.548423	-0.361203
N31	N	-0.436975	-0.517190	-0.400200
C32	C	-0.736209	-1.032406	-0.380681
C33	C	-0.852361	-1.032452	-0.380701
C34	C	-0.899232	-1.073626	-0.339632
C35	C	-1.019281	-1.073674	-0.339652
C36	C	-0.192125	-1.032515	-0.380726
C37	C	-0.075971	-1.032543	-0.380739
C38	C	-0.475154	-1.039869	-0.564570
C39	C	-0.479611	-1.043031	-0.642927
C40	C	-0.454214	-0.216329	-0.388113
C41	C	-0.449731	-0.294687	-0.391260
C42	C	-0.417443	-0.999449	-0.677926
C43	C	-0.421639	-1.002417	-0.751550
C44	C	-0.487998	-1.048970	-0.790175
C45	C	-0.550172	-1.092554	-0.755171
C46	C	-0.545981	-1.089582	-0.681547
C47	C	-0.507428	-1.062688	-1.010559
C48	C	-0.511612	-1.065658	-1.084187
C49	C	-0.383080	-0.975520	-1.080562
C50	C	-0.378890	-0.972555	-1.006937
C51	C	-0.441069	-1.016136	-0.971940
N52	N	-0.492286	-1.052007	-0.865431
N53	N	-0.436786	-1.013095	-0.896685
C54	C	-0.454203	-1.025101	-0.197537
C55	C	-0.449445	-1.022076	-0.119186
H56	H	-0.850488	-1.108843	-0.304459
H57	H	-0.596596	-1.125076	-0.653053
H58	H	-0.596415	-0.760758	-0.287934
C59	C	-0.851862	-0.946835	-0.466164
C60	C	-0.918155	-0.984914	-0.428192
H61	H	-0.892482	-0.917490	-0.495486
H62	H	-0.809141	-0.918611	-0.434357
H63	H	-0.809017	-0.978582	-0.494409
H64	H	-0.960996	-0.953166	-0.399943
H65	H	-0.960895	-1.013140	-0.460003
C66	C	-0.209373	-0.942136	-1.101868
C67	C	-0.314745	-0.927613	-1.119034
H68	H	-0.167188	-0.912560	-1.125623
H69	H	-0.197388	-0.933702	-1.052500
H70	H	-0.192078	-0.989995	-1.115853
H71	H	-0.332042	-0.879756	-1.105044
H72	H	-0.326735	-0.936042	-1.168413
H73	H	-0.371020	-0.966925	-0.780043
C74	C	-1.182100	-1.112142	-0.301432
C75	C	-1.073712	-1.121292	-0.292211
H76	H	-1.215702	-1.141552	-0.272154
H77	H	-1.202129	-1.064376	-0.289151
H78	H	-1.201976	-1.124305	-0.349245
H79	H	-1.053834	-1.109124	-0.244399
H80	H	-1.053675	-1.169069	-0.304488
C81	C	-0.333494	-0.852276	-0.979458
C82	C	-0.305947	-0.921380	-0.964486
H83	H	-0.288461	-0.820685	-0.953247
H84	H	-0.327092	-0.847813	-1.028309
H85	H	-0.403609	-0.841461	-0.966960
H86	H	-0.235835	-0.932196	-0.976989
H87	H	-0.312340	-0.925844	-0.915624
C88	C	-0.525426	-0.243012	-0.249408
C89	C	-0.584621	-0.287176	-0.296303
H90	H	-0.570397	-0.216782	-0.217758
H91	H	-0.476663	-0.270645	-0.223651
H92	H	-0.489085	-0.211649	-0.275012
H93	H	-0.620956	-0.318542	-0.270699
H94	H	-0.633402	-0.259540	-0.322062
H95	H	-0.565651	-1.103571	-1.115633
H96	H	-0.363401	-0.961544	-0.646483
C97	C	-0.634871	-1.152098	-1.021548
C98	C	-0.575755	-1.110604	-0.972096
H99	H	-0.677046	-1.181686	-0.997800
H100	H	-0.678234	-1.122534	-1.049015
H101	H	-0.589420	-1.180225	-1.051362
H102	H	-0.621206	-1.082473	-0.942286
H103	H	-0.532388	-1.140171	-0.944618
C104	C	-0.613664	-1.137136	-0.869638
C105	C	-0.623116	-1.143727	-0.797625
H106	H	-0.658692	-1.168733	-0.895845
H107	H	-0.632344	-1.090258	-0.879787
H108	H	-0.543545	-1.147959	-0.882121
H109	H	-0.693234	-1.132898	-0.785140
H110	H	-0.604442	-1.190615	-0.787471
H111	H	-0.325290	-0.438426	-0.478848
C112	C	-0.291162	-0.732185	-0.502819
C113	C	-0.344735	-0.778435	-0.465107
H114	H	-0.246185	-0.758411	-0.534468
H115	H	-0.339931	-0.704557	-0.528576
H116	H	-0.251022	-0.702228	-0.470987
H117	H	-0.384880	-0.808389	-0.496938
H118	H	-0.295959	-0.806075	-0.439348
H119	H	-0.558083	-0.431756	-0.314959
H120	H	-0.332943	-0.304854	-0.473474
H121	H	-0.604063	-0.627184	-0.282565
H122	H	-0.371270	-0.633857	-0.446445
H123	H	-1.035652	-0.997288	-0.415898
