data_functionalizedCrystal
_audit_creation_method	'MofGen! by Chris Wilmer'
_symmetry_space_group_name_H-M	'P1'
_symmetry_Int_Tables_number	1
_symmetry_cell_setting	triclinic
loop_
_symmetry_equiv_pos_as_xyz
  x,y,z
_cell_length_a	14.044220
_cell_length_b	14.044220
_cell_length_c	13.101039
_cell_angle_alpha	93.669626
_cell_angle_beta	93.659868
_cell_angle_gamma	86.811122
loop_
_atom_site_label
_atom_site_type_symbol
_atom_site_fract_x
_atom_site_fract_y
_atom_site_fract_z
O1	O	-1.281968	0.225349	-0.085100
O2	O	-0.948635	0.558682	0.248233
O3	O	-0.615301	0.892015	0.581567
O4	O	-1.005298	0.217042	-0.085126
O5	O	-0.671965	0.550375	0.248207
O6	O	-0.338631	0.883708	0.581541
O7	O	-1.139480	0.082860	-0.085109
O8	O	-0.806147	0.416193	0.248224
O9	O	-0.472813	0.749526	0.581558
O10	O	-1.147786	0.359531	-0.085117
O11	O	-0.814453	0.692864	0.248216
O12	O	-0.481119	1.026197	0.581549
O13	O	-1.129854	0.092504	0.085320
O14	O	-0.796521	0.425838	0.418653
O15	O	-0.463187	0.759171	0.751986
O16	O	-0.995672	0.226686	0.085302
O17	O	-0.662339	0.560020	0.418636
O18	O	-0.329005	0.893353	0.751969
O19	O	-1.272342	0.234994	0.085329
O20	O	-0.939009	0.568327	0.418662
O21	O	-0.605675	0.901660	0.751995
Zn22	Zn	-1.132479	0.232371	0.112375
Zn23	Zn	-0.799145	0.565705	0.445708
Zn24	Zn	-0.465812	0.899038	0.779041
Zn25	Zn	-1.145161	0.219664	-0.112172
Zn26	Zn	-0.811828	0.552997	0.221161
Zn27	Zn	-0.478495	0.886331	0.554494
O28	O	-1.138160	0.369176	0.085311
O29	O	-0.804827	0.702509	0.418645
O30	O	-0.471493	1.035842	0.751978
C31	C	-0.964863	0.218228	0.000085
C32	C	-0.631530	0.551562	0.333418
C33	C	-0.298197	0.884895	0.666751
C34	C	-0.858721	0.207383	0.000075
C35	C	-0.525388	0.540716	0.333408
C36	C	-0.192055	0.874050	0.666741
C37	C	-1.131031	0.052060	0.000104
C38	C	-0.797698	0.385394	0.333437
C39	C	-0.464365	0.718727	0.666771
C40	C	-1.120187	-0.054083	0.000100
C41	C	-0.786854	0.279251	0.333433
C42	C	-0.453520	0.612584	0.666767
C43	C	-1.312777	0.233807	0.000115
C44	C	-0.979443	0.567140	0.333449
C45	C	-0.646110	0.900474	0.666782
C46	C	-1.418919	0.244652	0.000119
C47	C	-1.085586	0.577985	0.333452
C48	C	-0.752253	0.911318	0.666785
C49	C	-1.146609	0.399975	0.000096
C50	C	-0.813275	0.733308	0.333429
C51	C	-0.479942	1.066642	0.666763
C52	C	-1.157454	0.506117	0.000093
C53	C	-0.824120	0.839451	0.333427
C54	C	-0.490787	1.172784	0.666760
C55	C	-0.664382	0.187558	0.000096
C56	C	-0.331049	0.520891	0.333429
C57	C	0.002284	0.854225	0.666762
C58	C	-0.613252	0.264472	0.000098
C59	C	-0.279919	0.597806	0.333431
C60	C	0.053414	0.931139	0.666764
C61	C	-0.505115	0.253442	0.000109
C62	C	-0.171782	0.586775	0.333443
C63	C	0.161551	0.920108	0.666776
C64	C	-0.772529	0.198587	0.000084
C65	C	-0.439196	0.531921	0.333417
C66	C	-0.105862	0.865254	0.666751
N67	N	-1.123830	0.241044	0.265622
N68	N	-0.790497	0.574377	0.598955
N69	N	-0.457163	0.907710	0.932289
C70	C	-1.177279	0.700456	0.000100
C71	C	-0.843946	1.033789	0.333433
C72	C	-0.510613	1.367122	0.666767
C73	C	-1.100365	0.751585	0.000094
C74	C	-0.767032	1.084918	0.333427
C75	C	-0.433699	1.418252	0.666760
C76	C	-1.111397	0.859721	0.000097
C77	C	-0.778063	1.193055	0.333430
C78	C	-0.444730	1.526388	0.666764
C79	C	-1.166249	0.592309	0.000096
C80	C	-0.832916	0.925643	0.333430
C81	C	-0.499583	1.258976	0.666763
N82	N	-1.153817	0.210984	-0.265420
N83	N	-0.820483	0.544318	0.067914
N84	N	-0.487150	0.877651	0.401247
C85	C	-1.112064	0.252852	0.474663
C86	C	-0.778731	0.586185	0.807997
C87	C	-0.445397	0.919518	1.141330
C88	C	-1.165580	0.199179	0.525546
C89	C	-0.832247	0.532513	0.858879
C90	C	-0.498913	0.865846	1.192212
C91	C	-1.159033	0.205749	0.641863
C92	C	-0.825700	0.539083	0.975197
C93	C	-0.492367	0.872416	1.308530
C94	C	-1.118610	0.246283	0.358335
C95	C	-0.785276	0.579616	0.691668
C96	C	-0.451943	0.912949	1.025002
H97	H	-0.650692	0.338606	0.000091
H98	H	-0.317359	0.671939	0.333424
H99	H	0.015975	1.005272	0.666757
C100	C	-1.043510	0.321569	0.533815
C101	C	-0.710177	0.654902	0.867148
C102	C	-0.376843	0.988235	1.200481
H103	H	-1.010780	0.354373	0.486596
H104	H	-0.677446	0.687706	0.819930
H105	H	-0.344113	1.021039	1.153263
H106	H	-1.078944	0.366504	0.575682
H107	H	-0.745611	0.699837	0.909016
H108	H	-0.412278	1.033170	1.242349
H109	H	-0.998492	0.286209	0.575656
H110	H	-0.665159	0.619542	0.908990
H111	H	-0.331825	0.952875	1.242323
C112	C	-0.613812	0.087417	0.000092
C113	C	-0.280479	0.420750	0.333426
C114	C	0.052855	0.754083	0.666759
H115	H	-0.546714	0.093047	0.000088
H116	H	-0.213380	0.426380	0.333422
H117	H	0.119953	0.759714	0.666755
H118	H	-0.628404	0.057067	0.059518
H119	H	-0.295070	0.390400	0.392852
H120	H	0.038263	0.723734	0.726185
H121	H	-0.635103	0.050359	-0.059353
H122	H	-0.301770	0.383692	0.273980
H123	H	0.031563	0.717026	0.607313
C124	C	-1.234148	0.130470	0.466389
C125	C	-0.900815	0.463803	0.799723
C126	C	-0.567481	0.797136	1.133056
H127	H	-1.229629	0.135028	0.394838
H128	H	-0.896296	0.468361	0.728171
H129	H	-0.562963	0.801695	1.061505
H130	H	-1.217349	0.066854	0.483895
H131	H	-0.884015	0.400187	0.817229
H132	H	-0.550682	0.733520	1.150562
H133	H	-1.297785	0.147165	0.483925
H134	H	-0.964451	0.480498	0.817259
H135	H	-0.631118	0.813832	1.150592
C136	C	-1.000215	0.701019	0.000092
C137	C	-0.666882	1.034352	0.333425
C138	C	-0.333548	1.367686	0.666758
H139	H	-0.953408	0.747321	0.000084
H140	H	-0.620075	1.080655	0.333418
H141	H	-0.286741	1.413988	0.666751
H142	H	-0.989373	0.665634	0.059523
H143	H	-0.656039	0.998968	0.392857
H144	H	-0.322706	1.332301	0.726190
H145	H	-0.996077	0.658913	-0.059349
H146	H	-0.662744	0.992246	0.273985
H147	H	-0.329411	1.325579	0.607318
C148	C	-1.277419	0.751027	0.000124
C149	C	-0.944086	1.084361	0.333457
C150	C	-0.610753	1.417694	0.666790
H151	H	-1.271788	0.818127	0.000135
H152	H	-0.938454	1.151460	0.333469
H153	H	-0.605121	1.484793	0.666802
H154	H	-1.314489	0.729729	-0.059300
H155	H	-0.981156	1.063063	0.274033
H156	H	-0.647823	1.396396	0.607367
H157	H	-1.307754	0.736445	0.059572
H158	H	-0.974420	1.069778	0.392905
H159	H	-0.641087	1.403111	0.726239
