data_functionalizedCrystal
_audit_creation_method	'MofGen! by Chris Wilmer'
_symmetry_space_group_name_H-M	'P1'
_symmetry_Int_Tables_number	1
_symmetry_cell_setting	triclinic
loop_
_symmetry_equiv_pos_as_xyz
  x,y,z
_cell_length_a	14.908932
_cell_length_b	12.759401
_cell_length_c	12.759393
_cell_angle_alpha	89.982620
_cell_angle_beta	93.321734
_cell_angle_gamma	86.699942
loop_
_atom_site_label
_atom_site_type_symbol
_atom_site_fract_x
_atom_site_fract_y
_atom_site_fract_z
Zn1	Zn	0.359103	1.582191	-0.569893
Zn2	Zn	0.509992	1.571982	-0.384092
Zn3	Zn	0.359151	1.406493	-0.394229
Zn4	Zn	0.509922	1.396379	-0.559738
O5	O	0.434542	1.489261	-0.476988
O6	O	0.379128	1.727857	-0.545254
O7	O	0.490032	1.549989	-0.238412
O8	O	0.232899	1.438305	-0.426024
O9	O	0.489986	1.720356	-0.408746
O10	O	0.232864	1.567389	-0.555084
O11	O	0.379210	1.428405	-0.245860
O12	O	0.379142	1.258131	-0.416177
O13	O	0.489866	1.421067	-0.708110
O14	O	0.489913	1.250700	-0.537776
O15	O	0.379060	1.557582	-0.715570
O16	O	0.636229	1.540183	-0.398899
O17	O	0.636177	1.411168	-0.527946
C18	C	0.434525	1.216295	-0.476975
C19	C	0.434540	1.099517	-0.476993
C20	C	0.492311	1.040808	-0.540192
C21	C	0.492322	0.931083	-0.540202
C22	C	0.376790	0.938787	-0.413806
C23	C	0.376774	1.048510	-0.413802
C24	C	0.559016	1.036358	-0.613162
C25	C	0.559027	0.926634	-0.613173
C26	C	0.199232	1.505114	-0.492817
C27	C	0.098957	1.511869	-0.499563
C28	C	-0.089436	1.390123	-0.377852
C29	C	-0.183654	1.396467	-0.384186
C30	C	-0.183698	1.530895	-0.518571
C31	C	-0.089480	1.524551	-0.512237
C32	C	-0.042353	1.454164	-0.441873
C33	C	0.051866	1.447826	-0.435534
C34	C	0.051821	1.582248	-0.569924
C35	C	-0.042397	1.588591	-0.576258
C36	C	0.668937	1.473499	-0.461243
C37	C	0.769212	1.466852	-0.454543
C38	C	0.434450	1.489336	-0.751028
C39	C	0.434411	1.489367	-0.867807
C40	C	0.434559	1.763293	-0.477002
C41	C	0.434567	1.880069	-0.477008
C42	C	0.376695	1.426088	-0.926554
C43	C	0.376668	1.426121	-1.036280
C44	C	0.492076	1.552723	-1.028502
C45	C	0.492106	1.552683	-0.918778
C46	C	0.310063	1.352998	-0.931046
C47	C	0.310036	1.353032	-1.040772
C48	C	0.434568	1.489252	-0.204019
C49	C	0.434353	1.489441	-0.087257
H50	H	0.628881	0.892159	-0.586555
H51	H	0.328773	1.270356	-0.900013
Cl52	Cl	0.304173	0.874657	-0.334372
Cl53	Cl	0.661463	1.082021	-0.561178
H54	H	0.243704	1.386607	-0.901481
H55	H	0.539049	1.604273	-1.070016
H56	H	0.534087	0.894305	-0.692198
Cl57	Cl	0.111111	1.359344	-0.347076
Cl58	Cl	0.348666	1.231116	-1.090723
Cl59	Cl	0.202113	1.393793	-1.094024
H60	H	0.540382	1.067413	-0.695819
H61	H	-0.051065	1.332818	-0.320553
Cl62	Cl	-0.242842	1.315953	-0.303701
Cl63	Cl	-0.242959	1.619347	-0.607045
H64	H	-0.080778	1.645896	-0.633550
H65	H	0.090166	1.634397	-0.622053
H66	H	0.329726	1.096308	-0.362347
Cl67	Cl	0.564677	1.632224	-0.844927
