data_functionalizedCrystal
_audit_creation_method	'MofGen! by Chris Wilmer'
_symmetry_space_group_name_H-M	'P1'
_symmetry_Int_Tables_number	1
_symmetry_cell_setting	triclinic
loop_
_symmetry_equiv_pos_as_xyz
  x,y,z
_cell_length_a	33.428889
_cell_length_b	33.428139
_cell_length_c	33.424847
_cell_angle_alpha	60.004234
_cell_angle_beta	60.008465
_cell_angle_gamma	59.994972
loop_
_atom_site_label
_atom_site_type_symbol
_atom_site_fract_x
_atom_site_fract_y
_atom_site_fract_z
O1	O	0.055565	-0.584504	0.488714
O2	O	0.555565	-0.084504	0.988714
O3	O	0.020982	-0.455083	0.393778
O4	O	0.520982	0.044917	0.893778
O5	O	0.102943	-0.536959	0.393689
O6	O	0.602943	-0.036959	0.893689
O7	O	-0.026396	-0.502628	0.488803
O8	O	0.473604	-0.002628	0.988803
O9	O	0.130140	-0.509767	0.420792
O10	O	0.630140	-0.009767	0.920792
O11	O	0.048179	-0.427891	0.420881
O12	O	0.548179	0.072109	0.920881
O13	O	0.082762	-0.557312	0.515817
O14	O	0.582762	-0.057312	1.015817
Cu15	Cu	0.067954	-0.490119	0.470823
Cu16	Cu	0.567954	0.009881	0.970823
Cu17	Cu	0.035790	-0.522276	0.438771
Cu18	Cu	0.535790	-0.022276	0.938771
O19	O	0.000801	-0.475436	0.515906
O20	O	0.500801	0.024564	1.015906
N21	N	0.090577	-0.467504	0.493370
N22	N	0.590577	0.032496	0.993370
N23	N	0.013171	-0.544895	0.416225
N24	N	0.513171	-0.044895	0.916225
C25	C	0.143377	-0.280390	0.546067
C26	C	0.643377	0.219610	1.046067
C27	C	0.143515	-0.414755	0.680369
C28	C	0.643515	0.085245	1.180369
C29	C	0.143392	-0.414735	0.546069
C30	C	0.643392	0.085265	1.046069
C31	C	0.277766	-0.414702	0.545966
C32	C	0.777766	0.085298	1.045966
C33	C	0.158177	-0.324719	0.560828
C34	C	0.658177	0.175281	1.060828
C35	C	0.158255	-0.399967	0.636038
C36	C	0.658255	0.100033	1.136038
C37	C	0.233434	-0.399936	0.560773
C38	C	0.733434	0.100064	1.060773
C39	C	0.158186	-0.399955	0.560829
C40	C	0.658186	0.100045	1.060829
C41	C	0.124540	-0.223964	0.527278
C42	C	0.624540	0.276036	1.027278
C43	C	0.124565	-0.433545	0.527281
C44	C	0.624565	0.066455	1.027281
C45	C	0.177014	-0.381145	0.579617
C46	C	0.677014	0.118855	1.079617
C47	C	0.359814	-0.400540	0.502735
C48	C	0.859814	0.099460	1.002735
C49	C	0.411105	-0.417624	0.485606
C50	C	0.911105	0.082376	0.985606
C51	C	0.411136	-0.500620	0.517255
C52	C	0.911136	-0.000620	1.017255
C53	C	0.359845	-0.483534	0.534385
C54	C	0.859845	0.016466	1.034385
C55	C	0.136887	-0.198305	0.476855
C56	C	0.636887	0.301695	0.976855
C57	C	0.119761	-0.147011	0.459777
C58	C	0.619761	0.352989	0.959777
C59	C	0.077945	-0.147038	0.543547
C60	C	0.577945	0.352962	1.043547
C61	C	0.095072	-0.198332	0.560625
C62	C	0.595072	0.301668	1.060625
C63	C	0.074134	-0.421169	0.539710
C64	C	0.574134	0.078831	1.039710
C65	C	0.057023	-0.438269	0.522625
C66	C	0.557023	0.061731	1.022625
C67	C	0.140770	-0.480120	0.480694
C68	C	0.640770	0.019880	0.980694
C69	C	0.157883	-0.463020	0.497773
C70	C	0.657883	0.036980	0.997773
C71	C	0.074339	-0.421208	0.762475
C72	C	0.574339	0.078792	1.262475
C73	C	0.057288	-0.438323	0.813768
C74	C	0.557288	0.061677	1.313768
C75	C	0.141075	-0.480183	0.813699
C76	C	0.641075	0.019817	1.313699
C77	C	0.158125	-0.463069	0.762404
C78	C	0.658125	0.036931	1.262404
C79	C	0.124756	-0.433580	0.736794
C80	C	0.624756	0.066420	1.236794
C81	C	0.334186	-0.433494	0.527123
C82	C	0.834186	0.066506	1.027123
C83	C	-0.173769	-0.597444	0.363037
C84	C	0.326231	-0.097444	0.863037
C85	C	-0.039302	-0.597595	0.228856
C86	C	0.460698	-0.097595	0.728856
C87	C	-0.039496	-0.597587	0.363300
C88	C	0.460504	-0.097587	0.863300
C89	C	-0.039512	-0.731889	0.363237
C90	C	0.460488	-0.231889	0.863237
C91	C	-0.129442	-0.612265	0.348329
C92	C	0.370558	-0.112265	0.848329
C93	C	-0.054138	-0.612351	0.273187
C94	C	0.445862	-0.112351	0.773187
C95	C	-0.054257	-0.687554	0.348440
C96	C	0.445743	-0.187554	0.848440
C97	C	-0.054247	-0.612346	0.348477
C98	C	0.445753	-0.112346	0.848477
C99	C	-0.230191	-0.578579	0.381758
C100	C	0.269809	-0.078579	0.881758
C101	C	-0.020722	-0.578803	0.382168
C102	C	0.479278	-0.078803	0.882168
C103	C	-0.073020	-0.631130	0.329609
C104	C	0.426980	-0.131130	0.829609
C105	C	-0.053713	-0.813916	0.406386
C106	C	0.446287	-0.313916	0.906386
C107	C	-0.036654	-0.865210	0.423504
C108	C	0.463346	-0.365210	0.923504
C109	C	0.046338	-0.865293	0.391984
C110	C	0.546338	-0.365293	0.891984
C111	C	0.029278	-0.813999	0.374865
C112	C	0.529278	-0.313999	0.874865
C113	C	-0.255900	-0.590938	0.432169
C114	C	0.244100	-0.090938	0.932169
C115	C	-0.307191	-0.573786	0.449185
C116	C	0.192809	-0.073786	0.949185
C117	C	-0.307060	-0.531922	0.365377
C118	C	0.192940	-0.031922	0.865377
C119	C	-0.255769	-0.549074	0.348360
C120	C	0.244231	-0.049074	0.848360
C121	C	-0.033081	-0.528377	0.369764
C122	C	0.466919	-0.028377	0.869764
C123	C	-0.016014	-0.511306	0.386922
C124	C	0.483986	-0.011306	0.886922
C125	C	0.025770	-0.595083	0.428877
C126	C	0.525770	-0.095083	0.928877
C127	C	0.008703	-0.612156	0.411725
C128	C	0.508703	-0.112156	0.911725
C129	C	-0.032755	-0.528393	0.146761
C130	C	0.467245	-0.028393	0.646761
C131	C	-0.015585	-0.511324	0.095468
C132	C	0.484415	-0.011324	0.595468
C133	C	0.026262	-0.595106	0.095516
C134	C	0.526262	-0.095106	0.595516
C135	C	0.009094	-0.612174	0.146811
C136	C	0.509094	-0.112174	0.646811
C137	C	-0.020417	-0.578816	0.172432
C138	C	0.479583	-0.078816	0.672432
C139	C	-0.020748	-0.788312	0.382068
C140	C	0.479252	-0.288312	0.882068
N141	N	0.436037	-0.467415	0.493101
N142	N	0.936037	0.032585	0.993101
O143	O	0.592642	-0.471896	0.376066
O144	O	1.092642	0.028104	0.876066
O145	O	0.592838	-0.567146	0.505347
O146	O	1.092838	-0.067146	1.005347
O147	O	0.592754	-0.566928	0.423360
O148	O	1.092754	-0.066928	0.923360
O149	O	0.592727	-0.472113	0.458053
O150	O	1.092727	0.027887	0.958053
O151	O	0.511269	-0.539835	0.450606
O152	O	1.011269	-0.039835	0.950606
O153	O	0.511353	-0.540052	0.532594
O154	O	1.011353	-0.040052	1.032594
O155	O	0.511157	-0.444802	0.403312
O156	O	1.011157	0.055198	0.903312
Cu157	Cu	0.503815	-0.489954	0.470441
Cu158	Cu	1.003815	0.010046	0.970441
Cu159	Cu	0.600180	-0.521995	0.438219
Cu160	Cu	1.100180	-0.021995	0.938219
O161	O	0.511242	-0.445020	0.485300
O162	O	1.011242	0.054980	0.985300
N163	N	0.667959	-0.544533	0.415554
N164	N	1.167959	-0.044533	0.915554
N165	N	0.090544	-0.122107	0.493359
N166	N	0.590544	0.377893	0.993359
O167	O	-0.026406	0.034587	0.488773
O168	O	0.473594	0.534587	0.988773
O169	O	0.102877	0.034627	0.393499
O170	O	0.602877	0.534627	0.893499
O171	O	0.020848	0.034591	0.393771
O172	O	0.520848	0.534591	0.893771
O173	O	0.055623	0.034623	0.488500
O174	O	0.555623	0.534623	0.988500
O175	O	0.048051	-0.046899	0.420925
O176	O	0.548051	0.453101	0.920925
O177	O	0.130080	-0.046864	0.420653
O178	O	0.630080	0.453136	0.920653
O179	O	0.000796	-0.046903	0.515927
O180	O	0.500796	0.453097	1.015927
Cu181	Cu	0.067922	-0.054324	0.470769
Cu182	Cu	0.567922	0.445676	0.970769
Cu183	Cu	0.035752	0.042048	0.438656
Cu184	Cu	0.535752	0.542048	0.938656
O185	O	0.082825	-0.046867	0.515655
O186	O	0.582825	0.453133	1.015655
N187	N	0.013123	0.109830	0.416068
N188	N	0.513123	0.609830	0.916068
N189	N	0.090892	-0.467554	0.838649
N190	N	0.590892	0.032446	1.338649
O191	O	0.086330	-0.584488	0.995334
O192	O	0.586330	-0.084488	1.495334
O193	O	-0.008902	-0.455160	0.995379
O194	O	0.491098	0.044840	1.495379
O195	O	-0.008679	-0.537172	0.995355
O196	O	0.491321	-0.037172	1.495355
O197	O	0.086107	-0.502475	0.995358
O198	O	0.586107	-0.002475	1.495358
O199	O	0.018452	-0.509990	0.913868
O200	O	0.518452	-0.009990	1.413868
O201	O	0.018230	-0.427978	0.913891
O202	O	0.518230	0.072022	1.413891
O203	O	0.113461	-0.557306	0.913847
O204	O	0.613461	-0.057306	1.413847
Cu205	Cu	0.068323	-0.490160	0.906429
Cu206	Cu	0.568323	0.009840	1.406429
Cu207	Cu	0.036237	-0.522306	1.002797
Cu208	Cu	0.536237	-0.022306	1.502797
O209	O	0.113239	-0.475293	0.913870
O210	O	0.613239	0.024707	1.413870
N211	N	0.013667	-0.544916	1.070577
N212	N	0.513667	-0.044916	1.570577
C213	C	0.031339	-0.425179	0.394250
C214	C	0.531339	0.074821	0.894250
C215	C	0.132837	-0.526572	0.394139
C216	C	0.632837	-0.026572	0.894139
C217	C	0.072405	-0.587216	0.515344
C218	C	0.572405	-0.087216	1.015344
C219	C	-0.029093	-0.485823	0.515455
C220	C	0.470907	0.014177	1.015455
C221	C	0.552119	-0.566716	0.535258
C222	C	1.052119	-0.066716	1.035258
C223	C	0.552016	-0.566447	0.433726
C224	C	1.052016	-0.066447	0.933726
C225	C	0.551873	-0.445232	0.373402
C226	C	1.051873	0.054768	0.873402
C227	C	0.551980	-0.445502	0.474933
C228	C	1.051980	0.054498	0.974933
C229	C	0.132731	-0.006013	0.393923
C230	C	0.632731	0.493987	0.893923
C231	C	0.031182	-0.006158	0.394293
C232	C	0.531182	0.493842	0.894293
C233	C	-0.029092	-0.006163	0.515469
C234	C	0.470908	0.493837	1.015469
C235	C	0.072491	-0.006119	0.515133
C236	C	0.572491	0.493881	1.015133
C237	C	-0.008451	-0.425276	0.954641
C238	C	0.491549	0.074724	1.454641
C239	C	-0.008170	-0.526833	0.954596
C240	C	0.491830	-0.026833	1.454596
C241	C	0.113010	-0.587190	0.954585
C242	C	0.613010	-0.087190	1.454585
C243	C	0.112735	-0.485627	0.954611
C244	C	0.612735	0.014373	1.454611
H245	H	0.016234	-0.428240	0.834672
H246	H	0.516234	0.071760	1.334672
H247	H	0.552029	-0.596233	0.426301
H248	H	1.052029	-0.096233	0.926301
O249	O	0.081285	-0.006091	0.550688
O250	O	0.581285	0.493909	1.050688
C251	C	0.039238	-0.006116	0.592989
C252	C	0.539238	0.493884	1.092989
H253	H	0.005536	0.009300	0.582312
H254	H	0.505536	0.509300	1.082312
H255	H	0.034960	0.017547	0.611227
H256	H	0.534960	0.517547	1.111227
H257	H	0.043218	-0.045214	0.619632
H258	H	0.543218	0.454786	1.119632
H259	H	-0.066220	-0.006175	0.545378
H260	H	0.433780	0.493825	1.045378
H261	H	-0.037935	-0.534246	0.954563
H262	H	0.462065	-0.034246	1.454563
H263	H	0.552170	-0.596617	0.572390
H264	H	1.052170	-0.096617	1.072390
H265	H	0.169783	-0.005775	0.363939
H266	H	0.669783	0.494225	0.863939
O267	O	0.148277	-0.476719	0.954518
O268	O	0.648277	0.023281	1.454518
C269	C	0.159500	-0.437029	0.912327
C270	C	0.659500	0.062971	1.412327
H271	H	0.148724	-0.433168	0.882833
H272	H	0.648724	0.066832	1.382833
H273	H	0.200493	-0.443924	0.898149
H274	H	0.700493	0.056076	1.398149
H275	H	0.138359	-0.401899	0.921880
H276	H	0.638359	0.098101	1.421880
O277	O	0.148726	-0.631462	0.954482
O278	O	0.648726	-0.131462	1.454482
C279	C	0.190002	-0.624994	0.912281
C280	C	0.690002	-0.124994	1.412281
H281	H	0.178180	-0.589113	0.882793
H282	H	0.678180	-0.089113	1.382793
H283	H	0.207542	-0.656774	0.898103
H284	H	0.707542	-0.156774	1.398103
H285	H	0.217660	-0.623865	0.921822
H286	H	0.717660	-0.123865	1.421822
O287	O	-0.044074	-0.380946	0.954678
O288	O	0.455926	0.119054	1.454678
C289	C	-0.026434	-0.350450	0.954672
C290	C	0.473566	0.149550	1.454672
H291	H	0.005027	-0.374009	0.970090
H292	H	0.505027	0.125991	1.470090
H293	H	-0.057221	-0.326980	0.978340
H294	H	0.442779	0.173020	1.478340
H295	H	-0.012844	-0.325700	0.915581
H296	H	0.487156	0.174300	1.415581
H297	H	0.551974	-0.415718	0.482355
H298	H	1.051974	0.084282	0.982355
H299	H	0.047163	-0.397193	0.741627
H300	H	0.547163	0.102807	1.241627
H301	H	0.551811	-0.415327	0.336274
H302	H	1.051811	0.084673	0.836274
H303	H	0.169984	-0.533889	0.364272
H304	H	0.669984	-0.033889	0.864272
O305	O	-0.061604	-0.496000	0.340991
O306	O	0.438396	0.004000	0.840991
C307	C	-0.038247	-0.503409	0.295396
C308	C	0.461753	-0.003409	0.795396
H309	H	0.002864	-0.522053	0.288403
H310	H	0.502864	-0.022053	0.788403
H311	H	-0.045353	-0.466566	0.265100
H312	H	0.454647	0.033434	0.765100
H313	H	-0.053364	-0.527599	0.295817
H314	H	0.446636	-0.027599	0.795817
H315	H	0.079796	-0.624394	0.545162
H316	H	0.579796	-0.124394	1.045162
H317	H	0.168250	-0.504186	0.834549
H318	H	0.668250	-0.004186	1.334549
H319	H	0.023733	-0.006162	0.364531
H320	H	0.523733	0.493838	0.864531
O321	O	-0.073389	-0.477189	0.551135
O322	O	0.426611	0.022811	1.051135
C323	C	-0.073413	-0.519326	0.593353
C324	C	0.426587	-0.019326	1.093353
H325	H	-0.044418	-0.552949	0.582547
H326	H	0.455582	-0.052949	1.082547
H327	H	-0.110987	-0.523713	0.611684
H328	H	0.389013	-0.023713	1.111684
H329	H	-0.064852	-0.515388	0.619966
H330	H	0.435148	-0.015388	1.119966
O331	O	0.207119	-0.475116	0.737535
O332	O	0.707119	0.024884	1.237535
C333	C	0.232912	-0.504819	0.771141
C334	C	0.732912	-0.004819	1.271141
H335	H	0.208474	-0.498286	0.807714
H336	H	0.708474	0.001714	1.307714
H337	H	0.267135	-0.495193	0.756298
H338	H	0.767135	0.004807	1.256298
H339	H	0.243986	-0.544997	0.776585
H340	H	0.743986	-0.044997	1.276585
H341	H	0.015959	-0.428182	0.532734
H342	H	0.515959	0.071818	1.032734
O343	O	0.041703	-0.392521	0.568347
O344	O	0.541703	0.107479	1.068347
C345	C	-0.006478	-0.385273	0.575657
C346	C	0.493522	0.114727	1.075657
H347	H	-0.006412	-0.390999	0.544741
H348	H	0.493588	0.109001	1.044741
H349	H	-0.030837	-0.346374	0.575942
H350	H	0.469163	0.153626	1.075942
H351	H	-0.021143	-0.412583	0.612199
H352	H	0.478857	0.087417	1.112199
H353	H	0.198948	-0.473094	0.487648
H354	H	0.698948	0.026906	0.987648
O355	O	0.173204	-0.508734	0.452020
O356	O	0.673204	-0.008734	0.952020
C357	C	0.221385	-0.516001	0.444728
C358	C	0.721385	-0.016001	0.944728
H359	H	0.221296	-0.485077	0.450457
H360	H	0.721296	0.014923	0.950457
H361	H	0.245708	-0.516257	0.405818
H362	H	0.745708	-0.016257	0.905818
H363	H	0.236110	-0.552544	0.472011
H364	H	0.736110	-0.052544	0.972011
H365	H	0.432025	-0.541365	0.523165
H366	H	0.932025	-0.041365	1.023165
O367	O	0.335028	-0.515611	0.558048
O368	O	0.835028	-0.015611	1.058048
C369	C	0.368679	-0.563442	0.560790
C370	C	0.868679	-0.063442	1.060790
H371	H	0.405224	-0.561478	0.530477
H372	H	0.905224	-0.061478	1.030477
H373	H	0.353854	-0.584501	0.556161
H374	H	0.853854	-0.084501	1.056161
H375	H	0.374170	-0.583023	0.597950
H376	H	0.874170	-0.083023	1.097950
H377	H	0.431972	-0.390789	0.465748
H378	H	0.931972	0.109211	0.965748
H379	H	0.160882	-0.219171	0.449698
H380	H	0.660882	0.280829	0.949698
O381	O	0.334941	-0.351910	0.495596
O382	O	0.834941	0.148090	0.995596
C383	C	0.347425	-0.325439	0.444953
C384	C	0.847425	0.174561	0.944953
H385	H	0.384660	-0.347844	0.424739
H386	H	0.884660	0.152156	0.924739
H387	H	0.349174	-0.289277	0.438174
H388	H	0.849174	0.210723	0.938174
H389	H	0.318539	-0.317792	0.430997
H390	H	0.818539	0.182208	0.930997
O391	O	0.131814	-0.122157	0.410778
O392	O	0.631814	0.377843	0.910778
C393	C	0.161486	-0.155781	0.385008
C394	C	0.661486	0.344219	0.885008
H395	H	0.180167	-0.192344	0.409450
H396	H	0.680167	0.307656	0.909450
H397	H	0.190478	-0.140942	0.350762
H398	H	0.690478	0.359058	0.850762
H399	H	0.137808	-0.161244	0.373974
H400	H	0.637808	0.338756	0.873974
H401	H	0.085016	-0.219221	0.601683
H402	H	0.585016	0.280779	1.101683
O403	O	0.049311	-0.122213	0.576006
O404	O	0.549311	0.377787	1.076006
C405	C	0.042104	-0.155861	0.624174
C406	C	0.542104	0.344139	1.124174
H407	H	0.047840	-0.192427	0.624082
H408	H	0.547840	0.307573	1.124082
H409	H	0.003215	-0.141058	0.648553
H410	H	0.503215	0.358942	1.148553
H411	H	0.069427	-0.161309	0.638839
H412	H	0.569427	0.338691	1.138839
H413	H	-0.094449	-0.793002	0.412253
H414	H	0.405551	-0.293002	0.912253
O415	O	-0.027644	-0.462325	0.070611
O416	O	0.472356	0.037675	0.570611
C417	C	-0.057364	-0.436548	0.104228
C418	C	0.442636	0.063452	0.604228
H419	H	-0.076056	-0.460986	0.140772
H420	H	0.423944	0.039014	0.640772
H421	H	-0.086348	-0.402300	0.089355
H422	H	0.413652	0.097700	0.589355
H423	H	-0.033723	-0.425512	0.109740
H424	H	0.466277	0.074488	0.609740
H425	H	-0.056788	-0.501226	0.167618
H426	H	0.443212	-0.001226	0.667618
H427	H	0.019144	-0.653235	0.167709
H428	H	0.519144	-0.153235	0.667709
O429	O	0.054863	-0.627556	0.070681
O430	O	0.554863	-0.127556	0.570681
C431	C	0.028946	-0.657163	0.083151
C432	C	0.528946	-0.157163	0.583151
H433	H	-0.000951	-0.657633	0.120363
H434	H	0.499049	-0.157633	0.620363
H435	H	0.055244	-0.696077	0.084941
H436	H	0.555244	-0.196077	0.584941
H437	H	0.011589	-0.641719	0.054232
H438	H	0.511589	-0.141719	0.554232
O439	O	-0.028033	-0.462306	0.374800
O440	O	0.471967	0.037694	0.874800
C441	C	-0.057664	-0.436527	0.345033
C442	C	0.442336	0.063473	0.845033
H443	H	-0.051105	-0.460997	0.326384
H444	H	0.448895	0.039003	0.826384
H445	H	-0.047989	-0.402331	0.316016
H446	H	0.452011	0.097669	0.816016
H447	H	-0.097857	-0.425407	0.368630
H448	H	0.402143	0.074593	0.868630
O449	O	0.020771	-0.661157	0.423800
O450	O	0.520771	-0.161157	0.923800
C451	C	0.050392	-0.686933	0.453576
C452	C	0.550392	-0.186933	0.953576
H453	H	0.069042	-0.662497	0.447074
H454	H	0.569042	-0.162497	0.947074
H455	H	0.079409	-0.721185	0.443998
H456	H	0.579409	-0.221185	0.943998
H457	H	0.026678	-0.697962	0.493733
H458	H	0.526678	-0.197962	0.993733
H459	H	0.049734	-0.622248	0.452940
H460	H	0.549734	-0.122248	0.952940
H461	H	0.056124	-0.793157	0.355062
H462	H	0.556124	-0.293157	0.855062
H463	H	-0.063498	-0.886058	0.443304
H464	H	0.436502	-0.386058	0.943304
O465	O	0.094948	-0.890224	0.384902
O466	O	0.594948	-0.390224	0.884902
C467	C	0.121473	-0.877713	0.334274
C468	C	0.621473	-0.377713	0.834274
H469	H	0.096311	-0.863591	0.313026
H470	H	0.596311	-0.363591	0.813026
H471	H	0.153343	-0.911468	0.326011
H472	H	0.653343	-0.411468	0.826011
H473	H	0.136213	-0.847964	0.322844
H474	H	0.636213	-0.347964	0.822844
O475	O	-0.231130	-0.619575	0.464677
O476	O	0.268870	-0.119575	0.964677
C477	C	-0.264822	-0.626810	0.512822
C478	C	0.235178	-0.126810	1.012822
H479	H	-0.301362	-0.595856	0.512673
H480	H	0.198638	-0.095856	1.012673
H481	H	-0.250043	-0.627092	0.537220
H482	H	0.249957	-0.127092	1.037220
H483	H	-0.270304	-0.663332	0.527505
H484	H	0.229696	-0.163332	1.027505
H485	H	-0.328125	-0.583847	0.490235
H486	H	0.171875	-0.083847	0.990235
O487	O	-0.331834	-0.503252	0.332869
O488	O	0.168166	-0.003252	0.832869
C489	C	-0.298142	-0.496040	0.284725
C490	C	0.201858	0.003960	0.784725
H491	H	-0.261596	-0.501808	0.284882
H492	H	0.238404	-0.001808	0.784882
H493	H	-0.312911	-0.457137	0.260339
H494	H	0.187089	0.042863	0.760339
H495	H	-0.292675	-0.523342	0.270022
H496	H	0.207325	-0.023342	0.770022
H497	H	0.023949	-0.388000	0.364433
H498	H	0.523949	0.112000	0.864433
O499	O	-0.230744	-0.537156	0.299402
O500	O	0.269256	-0.037156	0.799402
C501	C	-0.201087	-0.580268	0.287030
C502	C	0.298913	-0.080268	0.787030
H503	H	-0.193460	-0.612497	0.320856
H504	H	0.306540	-0.112497	0.820856
H505	H	-0.164991	-0.575720	0.257330
H506	H	0.335009	-0.075720	0.757330
H507	H	-0.220828	-0.587450	0.272898
H508	H	0.279172	-0.087450	0.772898
