data_functionalizedCrystal
_audit_creation_method	'MofGen! by Chris Wilmer'
_symmetry_space_group_name_H-M	'P1'
_symmetry_Int_Tables_number	1
_symmetry_cell_setting	triclinic
loop_
_symmetry_equiv_pos_as_xyz
  x,y,z
_cell_length_a	12.837943
_cell_length_b	10.654551
_cell_length_c	11.892095
_cell_angle_alpha	93.929772
_cell_angle_beta	85.689438
_cell_angle_gamma	89.657151
loop_
_atom_site_label
_atom_site_type_symbol
_atom_site_fract_x
_atom_site_fract_y
_atom_site_fract_z
O1	O	1.384378	0.319512	-0.093969
O2	O	1.082456	0.303370	-0.093977
O3	O	1.240358	0.129459	-0.093973
O4	O	1.226476	0.493423	-0.093973
O5	O	1.227192	0.143935	0.094034
O6	O	1.069291	0.317846	0.094030
O7	O	1.371212	0.333987	0.094038
Zn8	Zn	1.218161	0.328215	0.123884
Zn9	Zn	1.235507	0.309143	-0.123823
O10	O	1.213310	0.507898	0.094035
C11	C	1.037214	0.305155	0.000026
C12	C	0.922020	0.288893	0.000023
C13	C	1.232756	0.089788	0.000028
C14	C	1.229706	-0.049989	0.000020
C15	C	0.682467	0.484398	0.000039
C16	C	0.574231	0.469124	0.000037
C17	C	0.597311	0.243072	0.000025
C18	C	0.705546	0.258346	0.000027
C19	C	0.748120	0.379013	0.000032
C20	C	0.856358	0.394286	0.000026
C21	C	0.879435	0.168235	0.000022
C22	C	0.771200	0.152960	0.000020
C23	C	1.235452	-0.123547	-0.102461
C24	C	1.232576	-0.254881	-0.102456
C25	C	1.218214	-0.239085	0.102520
C26	C	1.221082	-0.107754	0.102514
C27	C	1.244076	-0.065782	-0.204955
C28	C	1.249823	-0.139342	-0.307444
C29	C	1.246948	-0.270675	-0.307439
C30	C	1.238325	-0.328450	-0.204944
C31	C	1.416455	0.332202	0.000033
C32	C	1.531649	0.348464	0.000028
C33	C	1.220912	0.547570	0.000031
C34	C	1.223963	0.687346	0.000031
N35	N	1.206330	0.341231	0.292938
N36	N	1.247346	0.296117	-0.292877
C37	C	1.329671	0.205471	0.529589
C38	C	1.321409	0.214580	0.647930
C39	C	1.181539	0.368549	0.647965
C40	C	1.189801	0.359441	0.529624
C41	C	1.263871	0.277901	0.470439
C42	C	1.272137	0.268800	0.352096
C43	C	1.132264	0.422762	0.352133
C44	C	1.124001	0.431870	0.470475
H45	H	0.717131	0.582650	0.000042
H46	H	0.520779	0.554941	0.000046
C47	C	1.247382	0.078673	-0.204965
H48	H	1.253378	0.102542	-0.280681
H49	H	1.305813	0.108815	-0.167106
H50	H	1.185022	0.113780	-0.167126
C51	C	1.259307	-0.075795	-0.420177
H52	H	1.260206	0.012956	-0.405506
H53	H	1.201393	-0.098208	-0.462294
H54	H	1.322189	-0.102920	-0.462277
C55	C	1.393791	0.134911	0.712991
H56	H	1.439089	0.085053	0.660790
H57	H	1.352872	0.081654	0.759165
H58	H	1.434086	0.188882	0.759144
C59	C	1.253271	-0.351587	-0.420169
H60	H	1.258827	-0.298371	-0.481206
H61	H	1.192057	-0.400800	-0.424440
H62	H	1.312854	-0.405495	-0.424416
H63	H	1.332450	0.202409	0.303909
H64	H	1.216381	-0.047860	0.185963
C65	C	1.411144	0.115792	0.464477
H66	H	1.406645	0.120748	0.385526
H67	H	1.397929	0.032041	0.483870
H68	H	1.479131	0.139281	0.483856
C69	C	0.903189	0.527012	0.000036
H70	H	0.848582	0.587587	0.000051
H71	H	0.949523	0.532632	-0.065525
H72	H	0.940340	0.542709	0.065608
C73	C	0.724367	0.020235	0.000009
H74	H	0.778973	-0.040341	0.000010
H75	H	0.687212	0.004538	-0.065553
H76	H	0.678037	0.014618	0.065580
C77	C	1.235135	-0.472913	-0.204940
H78	H	1.239787	-0.508451	-0.280654
H79	H	1.171433	-0.497333	-0.167089
H80	H	1.292230	-0.502079	-0.167089
C81	C	0.951656	0.052306	0.000013
H82	H	1.022216	0.078681	0.000019
H83	H	0.943245	-0.001679	-0.065552
H84	H	0.934072	0.008408	0.065581
H85	H	1.063693	0.498256	0.518676
H86	H	1.121227	0.434928	0.696169
H87	H	0.562621	0.144837	0.000113
H88	H	1.211194	-0.286136	0.185966
C89	C	1.059892	0.502453	0.287067
H90	H	1.075419	0.485354	0.208110
H91	H	1.070420	0.589183	0.306472
H92	H	0.989190	0.481972	0.306466
