data_functionalizedCrystal
_audit_creation_method	'MofGen! by Chris Wilmer'
_symmetry_space_group_name_H-M	'P1'
_symmetry_Int_Tables_number	1
_symmetry_cell_setting	triclinic
loop_
_symmetry_equiv_pos_as_xyz
  x,y,z
_cell_length_a	13.897449
_cell_length_b	18.215405
_cell_length_c	13.897441
_cell_angle_alpha	90.033850
_cell_angle_beta	89.981404
_cell_angle_gamma	89.973835
loop_
_atom_site_label
_atom_site_type_symbol
_atom_site_fract_x
_atom_site_fract_y
_atom_site_fract_z
Zn1	Zn	1.474634	0.292943	-0.545353
Zn2	Zn	1.807967	0.626276	-0.212020
Zn3	Zn	2.141301	0.959609	0.121314
Zn4	Zn	1.474514	0.416021	-0.384042
Zn5	Zn	1.807847	0.749354	-0.050709
Zn6	Zn	2.141180	1.082688	0.282624
Zn7	Zn	1.313329	0.292976	-0.384071
Zn8	Zn	1.646663	0.626309	-0.050738
Zn9	Zn	1.979996	0.959642	0.282595
Zn10	Zn	1.313285	0.415975	-0.545295
Zn11	Zn	1.646618	0.749308	-0.211962
Zn12	Zn	1.979951	1.082642	0.121372
O13	O	1.393940	0.354479	-0.464690
O14	O	1.727274	0.687812	-0.131357
O15	O	2.060607	1.021145	0.201976
O16	O	1.609600	0.309275	-0.523967
O17	O	1.942933	0.642608	-0.190633
O18	O	2.276266	0.975942	0.142700
O19	O	1.453101	0.399732	-0.249064
O20	O	1.786434	0.733065	0.084269
O21	O	2.119767	1.066399	0.417602
O22	O	1.334796	0.189987	-0.405502
O23	O	1.668129	0.523320	-0.072169
O24	O	2.001462	0.856654	0.261165
O25	O	1.609511	0.399700	-0.405453
O26	O	1.942845	0.733033	-0.072119
O27	O	2.276178	1.066367	0.261214
O28	O	1.453306	0.189963	-0.523995
O29	O	1.786639	0.523296	-0.190661
O30	O	2.119972	0.856630	0.142672
O31	O	1.334679	0.309331	-0.249086
O32	O	1.668012	0.642664	0.084248
O33	O	2.001346	0.975998	0.417581
O34	O	1.178342	0.309286	-0.405446
O35	O	1.511675	0.642620	-0.072112
O36	O	1.845008	0.975953	0.261221
O37	O	1.334720	0.399621	-0.680284
O38	O	1.668053	0.732955	-0.346951
O39	O	2.001386	1.066288	-0.013618
O40	O	1.178309	0.399653	-0.523896
O41	O	1.511642	0.732987	-0.190563
O42	O	1.844976	1.066320	0.142771
O43	O	1.453262	0.309230	-0.680327
O44	O	1.786596	0.642563	-0.346994
O45	O	2.119929	0.975897	-0.013660
O46	O	1.453057	0.518999	-0.405397
O47	O	1.786391	0.852333	-0.072063
O48	O	2.119724	1.185666	0.261270
O49	O	1.334603	0.518965	-0.523868
O50	O	1.667936	0.852299	-0.190535
O51	O	2.001270	1.185632	0.142799
C52	C	1.393839	0.545685	-0.464644
C53	C	1.727172	0.879018	-0.131311
C54	C	2.060505	1.212352	0.202023
C55	C	1.393883	0.627484	-0.464656
C56	C	1.727217	0.960817	-0.131323
C57	C	2.060550	1.294150	0.202010
C58	C	1.143326	0.354469	-0.464668
C59	C	1.476659	0.687802	-0.131335
C60	C	1.809993	1.021135	0.201998
C61	C	1.036112	0.354482	-0.464682
C62	C	1.369446	0.687816	-0.131348
C63	C	1.702779	1.021149	0.201985
C64	C	1.393999	0.354417	-0.716283
C65	C	1.727333	0.687750	-0.382950
C66	C	2.060666	1.021083	-0.049617
C67	C	1.394025	0.354390	-0.823497
C68	C	1.727358	0.687724	-0.490164
C69	C	2.060691	1.021057	-0.156831
C70	C	0.839817	0.354485	-0.464707
C71	C	1.173150	0.687818	-0.131374
C72	C	1.506484	1.021152	0.201960
C73	C	0.949050	0.354481	-0.464690
C74	C	1.282383	0.687815	-0.131357
C75	C	1.615716	1.021148	0.201976
C76	C	1.645533	0.354489	-0.464713
C77	C	1.978867	0.687822	-0.131380
C78	C	2.312200	1.021156	0.201954
C79	C	1.752747	0.354493	-0.464723
C80	C	2.086081	0.687827	-0.131389
C81	C	2.419414	1.021160	0.201944
C82	C	1.394069	0.162526	-0.464758
C83	C	1.727402	0.495859	-0.131425
C84	C	2.060736	0.829192	0.201909
C85	C	1.394124	0.080727	-0.464787
C86	C	1.727457	0.414060	-0.131454
C87	C	2.060790	0.747393	0.201880
C88	C	1.455707	0.815671	-0.403082
C89	C	1.789041	1.149004	-0.069748
C90	C	2.122374	1.482338	0.263585
C91	C	1.455750	0.892530	-0.403105
C92	C	1.789084	1.225863	-0.069772
C93	C	2.122417	1.559196	0.263562
C94	C	1.332297	0.892534	-0.526368
C95	C	1.665630	1.225868	-0.193035
C96	C	1.998964	1.559201	0.140298
C97	C	1.332259	0.815677	-0.526349
C98	C	1.665593	1.149010	-0.193016
C99	C	1.998926	1.482344	0.140318
C100	C	1.393963	0.777247	-0.464700
C101	C	1.727296	1.110581	-0.131367
C102	C	2.060630	1.443914	0.201966
C103	C	1.394044	0.930963	-0.464743
C104	C	1.727377	1.264297	-0.131410
C105	C	2.060711	1.597630	0.201924
C106	C	1.394090	1.014297	-0.464769
C107	C	1.727423	1.347630	-0.131435
C108	C	2.060757	1.680964	0.201898
C109	C	1.393918	0.693908	-0.464676
C110	C	1.727252	1.027242	-0.131342
C111	C	2.060585	1.360575	0.201991
C112	C	1.394044	0.354370	-0.910567
C113	C	1.727378	0.687703	-0.577234
C114	C	2.060711	1.021036	-0.243901
C115	C	1.394072	0.354337	-1.019800
C116	C	1.727405	0.687670	-0.686467
C117	C	2.060739	1.021003	-0.353133
C118	C	1.393937	0.354487	-0.214076
C119	C	1.727270	0.687820	0.119257
C120	C	2.060604	1.021154	0.452591
C121	C	1.394099	0.354306	-0.106863
C122	C	1.727432	0.687639	0.226471
C123	C	2.060766	1.020973	0.559804
H124	H	1.505952	0.784383	-0.352885
H125	H	1.839285	1.117717	-0.019552
H126	H	2.172618	1.451050	0.313782
H127	H	1.282059	0.923833	-0.576559
H128	H	1.615392	1.257166	-0.243226
H129	H	1.948725	1.590500	0.090108
N130	N	1.265661	0.774224	-0.592809
N131	N	1.598995	1.107557	-0.259476
N132	N	1.932328	1.440891	0.073858
H133	H	1.280604	0.787548	-0.661747
H134	H	1.613937	1.120881	-0.328413
H135	H	1.947270	1.454214	0.004920
H136	H	1.196783	0.787665	-0.577684
H137	H	1.530116	1.120998	-0.244351
H138	H	1.863450	1.454332	0.088983
N139	N	1.522348	0.933973	-0.336648
N140	N	1.855681	1.267307	-0.003314
N141	N	2.189014	1.600640	0.330019
H142	H	1.561428	0.897963	-0.297594
H143	H	1.894761	1.231297	0.035740
H144	H	2.228095	1.564630	0.369073
H145	H	1.483127	0.965916	-0.291982
H146	H	1.816461	1.299249	0.041352
H147	H	2.149794	1.632582	0.374685
