data_functionalizedCrystal
_audit_creation_method	'MofGen! by Chris Wilmer'
_symmetry_space_group_name_H-M	'P1'
_symmetry_Int_Tables_number	1
_symmetry_cell_setting	triclinic
loop_
_symmetry_equiv_pos_as_xyz
  x,y,z
_cell_length_a	27.731993
_cell_length_b	27.732048
_cell_length_c	9.482900
_cell_angle_alpha	99.251554
_cell_angle_beta	80.802296
_cell_angle_gamma	82.631525
loop_
_atom_site_label
_atom_site_type_symbol
_atom_site_fract_x
_atom_site_fract_y
_atom_site_fract_z
O1	O	0.648511	0.049789	-0.120513
O2	O	0.507720	0.058556	-0.120604
O3	O	0.582486	-0.016223	-0.120528
O4	O	0.573745	0.124568	-0.120589
O5	O	0.567299	-0.000973	0.121249
O6	O	0.492533	0.073806	0.121173
O7	O	0.633324	0.065039	0.121264
Cu8	Cu	0.561542	0.070815	0.143295
Cu9	Cu	0.579502	0.052780	-0.142634
O10	O	0.558557	0.139818	0.121188
C11	C	0.482119	0.066001	0.000274
C12	C	0.428465	0.065456	0.000240
C13	C	0.574709	-0.026605	0.000365
C14	C	0.574156	-0.080259	0.000376
C15	C	0.053579	0.053217	-0.131480
C16	C	0.255239	0.055282	-0.131521
O17	O	0.288353	0.048460	-0.243608
N18	N	0.272181	0.063853	0.000269
C19	C	0.238705	0.071905	0.132078
O20	O	0.257743	0.079238	0.244172
C21	C	0.037046	0.069837	0.132117
C22	C	0.020107	0.061271	0.000318
C23	C	0.036639	0.044651	-0.263268
C24	C	-0.013773	0.044137	-0.263256
C25	C	-0.047246	0.052191	-0.131458
C26	C	-0.030306	0.060757	0.000330
C27	C	0.003571	0.077886	0.263924
C28	C	-0.046846	0.077367	0.263922
C29	C	-0.063785	0.068800	0.132124
C30	C	-0.114190	0.068297	0.132140
N31	N	-0.131132	0.059726	0.000351
C32	C	-0.097660	0.051673	-0.131448
C33	C	0.344579	0.072992	0.132048
C34	C	0.394993	0.073509	0.132039
C35	C	0.411524	0.056885	-0.131560
C36	C	0.361108	0.056371	-0.131549
C37	C	0.327637	0.064420	0.000259
C38	C	-0.203530	0.050596	-0.131414
C39	C	-0.253948	0.050085	-0.131391
C40	C	-0.270475	0.066707	0.132207
C41	C	-0.220061	0.067220	0.132185
C42	C	-0.186590	0.059162	0.000362
O43	O	-0.147331	0.075110	0.244169
O44	O	-0.116706	0.044330	-0.243526
C45	C	0.103992	0.053731	-0.131492
C46	C	0.120932	0.062297	0.000296
C47	C	0.087459	0.070351	0.132095
C48	C	0.171346	0.062815	0.000286
C49	C	0.204818	0.054762	-0.131513
C50	C	0.187876	0.046191	-0.263302
C51	C	0.137464	0.045677	-0.263291
C52	C	0.104401	0.078922	0.263884
C53	C	0.154814	0.079435	0.263862
C54	C	0.188287	0.071382	0.132063
C55	C	0.614863	-0.419085	0.000328
C56	C	0.612814	-0.620745	0.000306
O57	O	0.650038	-0.652011	0.000267
N58	N	0.568479	-0.639862	0.000279
C59	C	0.524654	-0.608561	0.000248
O60	O	0.486899	-0.629449	0.000209
C61	C	0.526705	-0.406902	0.000259
C62	C	0.571042	-0.387787	0.000301
C63	C	0.659197	-0.399970	0.000368
C64	C	0.659708	-0.349557	0.000382
C65	C	0.615886	-0.318259	0.000355
C66	C	0.571553	-0.337375	0.000314
C67	C	0.482881	-0.375602	0.000217
C68	C	0.483398	-0.325185	0.000216
C69	C	0.527735	-0.306070	0.000258
C70	C	0.528243	-0.255664	0.000300
N71	N	0.572578	-0.236548	0.000328
C72	C	0.616399	-0.267845	0.000355
C73	C	0.523580	-0.714435	0.000245
C74	C	0.523067	-0.764849	0.000244
C75	C	0.611227	-0.777030	0.000300
C76	C	0.611739	-0.726615	0.000311
C77	C	0.567915	-0.695318	0.000272
C78	C	0.617470	-0.161974	0.000384
C79	C	0.617977	-0.111556	0.000403
C80	C	0.529818	-0.099380	0.000340
C81	C	0.529310	-0.149793	0.000328
C82	C	0.573140	-0.181090	0.000345
O83	O	0.491040	-0.224372	0.000324
O84	O	0.654151	-0.246950	0.000361
C85	C	0.614352	-0.469497	0.000315
C86	C	0.570019	-0.488613	0.000274
C87	C	0.526197	-0.457315	0.000247
C88	C	0.569506	-0.539027	0.000274
C89	C	0.613328	-0.570324	0.000301
C90	C	0.657662	-0.551208	0.000328
C91	C	0.658174	-0.500795	0.000342
C92	C	0.481862	-0.476432	0.000220
C93	C	0.481354	-0.526845	0.000208
C94	C	0.525176	-0.558143	0.000235
C95	C	0.658925	0.057595	0.000384
C96	C	0.712579	0.058138	0.000408
C97	C	0.566335	0.150200	0.000293
C98	C	0.566889	0.203853	0.000271
N99	N	0.548913	0.083499	0.344402
N100	N	0.592135	0.040092	-0.343742
C101	C	0.575774	0.056519	0.416629
C102	C	0.565270	0.067076	0.584035
H103	H	-0.267737	0.043110	-0.238722
H104	H	0.606546	0.025602	0.354532
Cl105	Cl	0.416280	0.084289	0.297735
Cl106	Cl	0.715451	-0.325538	0.000393
H107	H	0.518137	0.114412	0.406501
H108	H	0.622909	0.009174	0.594165
Cl109	Cl	-0.161459	0.040467	-0.297136
Cl110	Cl	0.517752	0.114807	0.679895
Cl111	Cl	0.229965	0.036068	-0.428990
Cl112	Cl	-0.035060	0.033362	-0.428955
H113	H	0.654083	-0.095996	0.000441
H114	H	0.647842	-0.711055	0.000344
H115	H	0.063888	0.038091	-0.370600
H116	H	0.347320	0.049395	-0.238871
Cl117	Cl	0.473570	-0.173822	0.000302
H118	H	0.438786	0.050329	-0.238876
Cl119	Cl	-0.312563	0.076832	0.297888
H120	H	0.317330	0.079545	0.239388
H121	H	0.017354	0.084861	0.371249
H122	H	-0.206270	0.074206	0.239506
Cl123	Cl	-0.088921	0.087485	0.429635
H124	H	0.123677	0.038702	-0.370614
H125	H	0.694277	-0.485237	0.000375
Cl126	Cl	0.062327	0.089052	0.429592
Cl127	Cl	0.176102	0.090209	0.429569
H128	H	0.653161	-0.187451	0.000392
Cl129	Cl	0.428302	-0.285844	0.000165
H130	H	0.446778	-0.391157	0.000174
Cl131	Cl	0.474731	-0.060026	0.000302
Cl132	Cl	0.712751	-0.590562	0.000369
Cl133	Cl	0.666317	-0.816386	0.000327
H134	H	0.694884	-0.425448	0.000385
H135	H	0.486963	-0.780406	0.000235
H136	H	0.445247	-0.542402	0.000187
H137	H	0.487892	-0.688957	0.000213
Cl138	Cl	0.426766	-0.437093	0.000183
