data_functionalizedCrystal
_audit_creation_method	'MofGen! by Chris Wilmer'
_symmetry_space_group_name_H-M	'P1'
_symmetry_Int_Tables_number	1
_symmetry_cell_setting	triclinic
loop_
_symmetry_equiv_pos_as_xyz
  x,y,z
_cell_length_a	19.188905
_cell_length_b	18.266242
_cell_length_c	12.837942
_cell_angle_alpha	89.994721
_cell_angle_beta	91.018252
_cell_angle_gamma	90.016163
loop_
_atom_site_label
_atom_site_type_symbol
_atom_site_fract_x
_atom_site_fract_y
_atom_site_fract_z
O1	O	0.935026	0.061002	-0.129255
O2	O	0.732909	0.060978	-0.146699
O3	O	0.829486	0.060985	0.012905
O4	O	0.838449	0.060995	-0.288859
O5	O	0.829467	-0.060777	0.012913
O6	O	0.732890	-0.060784	-0.146691
O7	O	0.935007	-0.060760	-0.129247
Zn8	Zn	0.833946	-0.080104	-0.137968
Zn9	Zn	0.833970	0.080322	-0.137979
O10	O	0.838430	-0.060767	-0.288851
C11	C	0.706850	0.000093	-0.146134
C12	C	0.629229	0.000084	-0.144452
C13	C	0.592792	0.066458	-0.143648
C14	C	0.519859	0.066467	-0.142055
C15	C	0.483366	0.000098	-0.141246
C16	C	0.519812	-0.066285	-0.142056
C17	C	0.592743	-0.066292	-0.143659
N18	N	0.370121	-0.049296	-0.079752
N19	N	0.300839	-0.049285	-0.078227
C20	C	0.263628	0.000115	-0.136418
N21	N	0.298317	0.049515	-0.196178
N22	N	0.367605	0.049506	-0.197699
C23	C	0.404284	0.000098	-0.139508
C24	C	0.148109	0.066504	-0.133889
C25	C	0.075175	0.066510	-0.132303
C26	C	0.075130	-0.066244	-0.132292
C27	C	0.148062	-0.066248	-0.133889
C28	C	0.184548	0.000128	-0.134682
N29	N	0.833934	-0.189591	-0.137960
C30	C	0.876716	-0.227897	-0.067322
C31	C	0.876720	-0.304542	-0.067317
C32	C	0.833950	-0.342878	-0.137968
C33	C	0.791159	-0.304563	-0.208611
C34	C	0.791151	-0.227920	-0.208607
N35	N	0.831166	-0.463208	-0.229706
N36	N	0.831178	-0.536016	-0.229707
C37	C	0.833971	-0.573801	-0.137983
N38	N	0.836764	-0.536026	-0.046256
N39	N	0.836756	-0.463212	-0.046256
C40	C	0.833954	-0.425985	-0.137980
C41	C	0.876759	-0.695213	-0.067334
C42	C	0.876759	-0.771860	-0.067328
C43	C	0.791202	-0.771880	-0.208631
C44	C	0.791198	-0.695235	-0.208628
C45	C	0.833981	-0.656906	-0.137981
C46	C	0.961066	0.000126	-0.129812
C47	C	1.038687	0.000141	-0.131495
C48	C	0.826448	0.000104	0.051515
C49	C	0.817417	0.000104	0.166550
N50	N	0.833987	0.189809	-0.137978
C51	C	0.841468	0.000116	-0.327462
C52	C	0.850499	0.000120	-0.442496
C53	C	0.925985	0.000133	0.408015
C54	C	0.917503	0.000133	0.516101
C55	C	0.791972	0.000110	0.490811
C56	C	0.800454	0.000110	0.382725
C57	C	0.867463	0.000120	0.341331
C58	C	0.875944	0.000115	0.233243
C59	C	0.750413	0.000097	0.207954
C60	C	0.741931	0.000097	0.316041
H61	H	0.177730	-0.120297	-0.134537
C62	C	0.632825	-0.139313	-0.144534
N63	N	0.663016	-0.194313	-0.145190
H64	H	0.737416	0.000109	0.524533
C65	C	0.744119	-0.185782	-0.286363
N66	N	0.708706	-0.154043	-0.344947
H67	H	0.687374	0.000091	0.349759
C68	C	0.744190	-0.653097	-0.286412
N69	N	0.708797	-0.621359	-0.345025
H70	H	0.622494	0.120507	-0.144294
H71	H	0.911550	-0.196692	-0.009794
H72	H	0.930506	0.000120	0.199542
H73	H	0.911593	-0.664005	-0.009805
C74	C	0.686034	0.000082	0.134592
N75	N	0.637545	0.000069	0.079335
H76	H	0.490186	0.120519	-0.141402
C77	C	0.035094	0.139532	-0.131414
N78	N	0.004905	0.194533	-0.130740
C79	C	0.479669	-0.139291	-0.141163
N80	N	0.449433	-0.194282	-0.140494
C81	C	0.744154	-0.814045	-0.286349
N82	N	0.708716	-0.845808	-0.344888
C83	C	0.999695	0.000140	0.362480
N84	N	1.055214	0.000146	0.328184
C85	C	0.981883	0.000142	0.589451
N86	N	1.030377	0.000147	0.644698
H87	H	0.177817	0.120551	-0.134546
H88	H	0.045418	-0.120283	-0.131639
H89	H	0.911560	-0.335736	-0.009793
C90	C	0.744109	-0.346735	-0.286323
N91	N	0.708666	-0.378498	-0.344855
H92	H	0.911594	-0.803049	-0.009800
