data_functionalizedCrystal
_audit_creation_method	'MofGen! by Chris Wilmer'
_symmetry_space_group_name_H-M	'P1'
_symmetry_Int_Tables_number	1
_symmetry_cell_setting	triclinic
loop_
_symmetry_equiv_pos_as_xyz
  x,y,z
_cell_length_a	13.032831
_cell_length_b	13.033615
_cell_length_c	13.033109
_cell_angle_alpha	90.874218
_cell_angle_beta	103.334486
_cell_angle_gamma	90.903240
loop_
_atom_site_label
_atom_site_type_symbol
_atom_site_fract_x
_atom_site_fract_y
_atom_site_fract_z
Zn1	Zn	-1.597187	-0.708498	-0.703434
Zn2	Zn	-1.553597	-0.852513	-0.504886
Zn3	Zn	-1.404133	-0.659478	-0.510452
Zn4	Zn	-1.398625	-0.852424	-0.659943
O5	O	-1.488386	-0.768228	-0.594679
O6	O	-1.737055	-0.748153	-0.692968
O7	O	-1.517833	-0.806429	-0.359969
O8	O	-1.450289	-0.524961	-0.556582
O9	O	-1.705030	-0.853961	-0.547096
O10	O	-1.592125	-0.560976	-0.698366
O11	O	-1.408022	-0.664607	-0.364058
O12	O	-1.257751	-0.664521	-0.514411
O13	O	-1.440902	-0.853810	-0.811368
O14	O	-1.253705	-0.806278	-0.624241
O15	O	-1.586785	-0.748067	-0.843321
O16	O	-1.512493	-0.993521	-0.504924
O17	O	-1.398635	-0.993455	-0.618844
C18	C	-1.217963	-0.730071	-0.565211
C19	C	-1.102274	-0.713775	-0.552625
C20	C	-1.450267	-1.030060	-0.556586
C21	C	-1.434059	-1.142091	-0.540335
C22	C	-1.518092	-0.806397	-0.866167
C23	C	-1.530751	-0.822662	-0.981859
C24	C	-1.759864	-0.806535	-0.624263
C25	C	-1.875552	-0.822859	-0.636869
C26	C	-1.048697	-0.776733	-0.601247
C27	C	-0.929127	-0.759892	-0.588241
C28	C	-1.526684	-0.505381	-0.632946
C29	C	-1.543004	-0.393372	-0.649254
C30	C	-1.480103	-0.325615	-0.586372
C31	C	-1.496969	-0.209847	-0.603225
C32	C	-1.482062	-0.759742	-1.035462
C33	C	-1.495145	-0.776552	-1.155036
C34	C	-1.458865	-0.730144	-0.324264
C35	C	-1.446449	-0.713624	-0.208636
H36	H	-0.886479	-0.693516	-0.536986
H37	H	-1.430688	-0.693434	-0.992828
C38	C	-1.377557	-0.624769	-1.043783
C39	C	-1.377095	-0.624096	-1.151100
H40	H	-1.334746	-0.569496	-1.008267
H41	H	-1.350528	-0.687842	-1.014508
H42	H	-1.447713	-0.617409	-1.035795
H43	H	-1.306941	-0.631464	-1.159089
H44	H	-1.404120	-0.561008	-1.180384
C45	C	-1.247545	-0.142696	-0.465717
C46	C	-1.344490	-0.179459	-0.450810
H47	H	-1.192251	-0.165771	-0.410452
H48	H	-1.247142	-0.069811	-0.465296
H49	H	-1.237490	-0.167591	-0.531509
H50	H	-1.354549	-0.154558	-0.385021
H51	H	-1.344895	-0.252360	-0.451220
H52	H	-1.609340	-0.365675	-0.715569
C53	C	-1.040424	-0.911805	-0.705566
C54	C	-0.933115	-0.912462	-0.706072
H55	H	-1.075957	-0.967124	-0.748284
H56	H	-1.069708	-0.848765	-0.732678
H57	H	-1.048380	-0.919097	-0.635389
H58	H	-0.925158	-0.905162	-0.776248
H59	H	-0.903821	-0.975517	-0.678964
H60	H	-1.059622	-0.647403	-0.501374
C61	C	-1.293593	-0.326241	-0.511755
C62	C	-1.390542	-0.362997	-0.496853
H63	H	-1.238303	-0.349323	-0.456491
H64	H	-1.293183	-0.253355	-0.511328
H65	H	-1.283539	-0.351132	-0.577549
H66	H	-1.400600	-0.338099	-0.431063
H67	H	-1.390954	-0.435898	-0.497270
H68	H	-1.563310	-0.182156	-0.669545
C69	C	-1.646415	-0.827387	-1.290635
C70	C	-1.564506	-0.866075	-1.212570
H71	H	-1.689238	-0.882654	-1.326148
H72	H	-1.617560	-0.790104	-1.339755
H73	H	-1.688008	-0.783176	-1.258940
H74	H	-1.522908	-0.910281	-1.244266
H75	H	-1.593362	-0.903375	-1.163443
C76	C	-1.642616	-0.967150	-0.966973
C77	C	-1.600099	-0.912186	-1.039399
H78	H	-1.685424	-1.022423	-1.002495
H79	H	-1.684220	-0.922944	-0.935304
H80	H	-1.587034	-0.993375	-0.914010
H81	H	-1.655681	-0.885954	-1.092358
H82	H	-1.558493	-0.956400	-1.071085
H83	H	-1.091351	-0.843099	-0.652507
