data_functionalizedCrystal
_audit_creation_method	'MofGen! by Chris Wilmer'
_symmetry_space_group_name_H-M	'P1'
_symmetry_Int_Tables_number	1
_symmetry_cell_setting	triclinic
loop_
_symmetry_equiv_pos_as_xyz
  x,y,z
_cell_length_a	16.974897
_cell_length_b	16.974813
_cell_length_c	13.448316
_cell_angle_alpha	86.338833
_cell_angle_beta	86.341662
_cell_angle_gamma	83.164002
loop_
_atom_site_label
_atom_site_type_symbol
_atom_site_fract_x
_atom_site_fract_y
_atom_site_fract_z
O1	O	1.049029	0.100839	-0.175136
O2	O	1.549029	0.600839	0.324864
O3	O	0.818811	0.113662	-0.157663
O4	O	1.318811	0.613662	0.342337
O5	O	0.940338	-0.007860	-0.157648
O6	O	1.440338	0.492140	0.342352
O7	O	0.927503	0.222361	-0.175151
O8	O	1.427503	0.722361	0.324849
O9	O	0.940323	-0.007867	0.007738
O10	O	1.440323	0.492133	0.507738
O11	O	0.818796	0.113655	0.007723
O12	O	1.318796	0.613655	0.507723
O13	O	1.049014	0.100831	-0.009751
O14	O	1.549014	0.600831	0.490249
Cu15	Cu	0.933904	0.107242	0.014087
Cu16	Cu	1.433904	0.607242	0.514087
Cu17	Cu	0.933922	0.107251	-0.181501
Cu18	Cu	1.433922	0.607251	0.318499
O19	O	0.927488	0.222353	-0.009766
O20	O	1.427488	0.722353	0.490234
C21	C	0.789346	0.113169	-0.072563
C22	C	1.289346	0.613169	0.427437
C23	C	0.701572	0.111699	-0.065389
C24	C	1.201572	0.611699	0.434611
C25	C	0.660336	0.111015	-0.152163
C26	C	1.160336	0.611015	0.347837
C27	C	0.577862	0.109647	-0.145409
C28	C	1.077862	0.609647	0.354591
C29	C	0.536624	0.108958	-0.051879
C30	C	1.036624	0.608958	0.448121
C31	C	0.577866	0.109645	0.034901
C32	C	1.077866	0.609645	0.534901
C33	C	0.660338	0.111018	0.028146
C34	C	1.160338	0.611018	0.528146
C35	C	0.289967	0.104855	-0.022008
C36	C	0.789967	0.604855	0.477992
C37	C	0.207489	0.103479	-0.015259
C38	C	0.707489	0.603479	0.484741
C39	C	0.207491	0.103483	-0.195570
C40	C	0.707491	0.603483	0.304430
C41	C	0.289965	0.104852	-0.202317
C42	C	0.789965	0.604852	0.297683
C43	C	0.331199	0.105542	-0.115537
C44	C	0.831199	0.605542	0.384463
N45	N	0.452322	0.107557	-0.044973
N46	N	0.952322	0.607557	0.455027
N47	N	0.415499	0.106949	-0.122445
N48	N	0.915499	0.606949	0.377555
C49	C	0.939842	-0.037322	-0.072546
C50	C	1.439842	0.462678	0.427454
C51	C	0.938377	-0.125097	-0.065367
C52	C	1.438377	0.374903	0.434633
C53	C	0.937699	-0.166326	-0.152146
C54	C	1.437699	0.333674	0.347854
C55	C	0.936318	-0.248799	-0.145398
C56	C	1.436318	0.251201	0.354602
C57	C	0.935620	-0.290044	-0.051870
C58	C	1.435620	0.209956	0.448130
C59	C	0.936296	-0.248809	0.034915
C60	C	1.436296	0.251191	0.534915
C61	C	0.937672	-0.166336	0.028166
C62	C	1.437672	0.333664	0.528166
C63	C	0.931500	-0.536702	-0.022018
C64	C	1.431500	-0.036702	0.477982
C65	C	0.930126	-0.619181	-0.015276
C66	C	1.430126	-0.119181	0.484724
C67	C	0.930147	-0.619165	-0.195590
C68	C	1.430147	-0.119165	0.304410
C69	C	0.931527	-0.536691	-0.202331
C70	C	1.431527	-0.036691	0.297669
C71	C	0.932199	-0.495463	-0.115545
C72	C	1.432199	0.004537	0.384455
N73	N	0.934211	-0.374346	-0.044970
N74	N	1.434211	0.125654	0.455030
N75	N	0.933602	-0.411162	-0.122446
N76	N	1.433602	0.088838	0.377554
C77	C	1.078479	0.101325	-0.094853
C78	C	1.578479	0.601325	0.405147
C79	C	1.166254	0.102794	-0.102033
C80	C	1.666254	0.602794	0.397967
C81	C	0.927984	0.251815	-0.094870
C82	C	1.427984	0.751815	0.405130
C83	C	0.929448	0.339591	-0.102055
C84	C	1.429448	0.839591	0.397945
N85	N	0.933897	0.107236	0.151653
N86	N	1.433897	0.607236	0.651653
N87	N	0.933935	0.107252	-0.319066
N88	N	1.433935	0.607252	0.180934
C89	C	0.987725	0.053448	0.203696
C90	C	1.487725	0.553448	0.703696
C91	C	0.987730	0.053447	0.307799
C92	C	1.487730	0.553447	0.807799
C93	C	0.933910	0.107239	0.359856
C94	C	1.433910	0.607239	0.859856
C95	C	0.880076	0.161029	0.307805
C96	C	1.380076	0.661029	0.807805
C97	C	0.880067	0.161026	0.203704
C98	C	1.380067	0.661026	0.703704
C99	C	0.880097	0.161035	0.524783
C100	C	1.380097	0.661035	1.024783
C101	C	0.880106	0.161040	0.628890
C102	C	1.380106	0.661040	1.128890
C103	C	0.987760	0.053456	0.628878
C104	C	1.487760	0.553456	1.128878
C105	C	0.987752	0.053452	0.524777
C106	C	1.487752	0.553452	1.024777
C107	C	0.933919	0.107244	0.472733
C108	C	1.433919	0.607244	0.972733
H109	H	0.323536	0.105407	-0.278479
H110	H	0.823536	0.605407	0.221521
C111	C	1.094185	-0.052878	0.618402
C112	C	1.594185	0.447122	1.118402
C113	C	1.046939	-0.005671	0.686079
C114	C	1.546939	0.494329	1.186079
H115	H	1.130723	-0.089372	0.653720
H116	H	1.630723	0.410628	1.153720
H117	H	1.061307	-0.081313	0.582749
H118	H	1.561307	0.418687	1.082749
H119	H	1.122575	-0.019964	0.572851
H120	H	1.622575	0.480036	1.072851
H121	H	1.018544	-0.038586	0.731626
H122	H	1.518544	0.461414	1.231626
H123	H	1.079821	0.022765	0.721749
H124	H	1.579821	0.522765	1.221749
H125	H	0.544291	0.109090	-0.216070
H126	H	1.044291	0.609090	0.283930
H127	H	0.173909	0.102922	-0.266222
H128	H	0.673909	0.602922	0.233778
H129	H	0.323530	0.105412	0.048655
H130	H	0.823530	0.605412	0.548655
H131	H	0.836258	0.204835	0.482412
H132	H	1.336258	0.704835	0.982412
H133	H	0.935769	-0.282364	-0.216063
H134	H	1.435769	0.217636	0.283937
H135	H	0.836279	0.204841	0.671269
H136	H	1.336279	0.704841	1.171269
H137	H	0.932096	-0.503116	-0.278491
H138	H	1.432096	-0.003116	0.221509
C139	C	0.996531	-0.720875	0.092180
C140	C	1.496531	-0.220875	0.592180
C141	C	0.929374	-0.664511	0.087543
C142	C	1.429374	-0.164511	0.587543
H143	H	0.996073	-0.748854	0.155656
H144	H	1.496073	-0.248854	0.655656
H145	H	0.995923	-0.757233	0.041475
H146	H	1.495923	-0.257233	0.541475
H147	H	1.043142	-0.694758	0.082570
H148	H	1.543142	-0.194758	0.582570
H149	H	0.882762	-0.690628	0.097145
H150	H	1.382762	-0.190628	0.597145
H151	H	0.929974	-0.628148	0.138263
H152	H	1.429974	-0.128148	0.638263
C153	C	0.762032	0.044624	-0.259625
C154	C	1.262032	0.544624	0.240375
C155	C	0.705658	0.111772	-0.254977
C156	C	1.205658	0.611772	0.245023
H157	H	0.790005	0.045092	-0.323102
H158	H	1.290005	0.545092	0.176898
H159	H	0.798394	0.045232	-0.208922
H160	H	1.298394	0.545232	0.291078
H161	H	0.735925	-0.001994	-0.250017
H162	H	1.235925	0.498006	0.249983
H163	H	0.731766	0.158390	-0.264577
H164	H	1.231766	0.658390	0.235423
H165	H	0.669291	0.111171	-0.305695
H166	H	1.169291	0.611171	0.194305
H167	H	0.836250	0.204825	0.350196
H168	H	1.336250	0.704825	0.850196
H169	H	0.932062	-0.503146	0.048648
H170	H	1.432062	-0.003146	0.548648
H171	H	1.031556	0.009648	0.161318
H172	H	1.531556	0.509648	0.661318
H173	H	0.173913	0.102940	0.060907
H174	H	0.673913	0.602940	0.560907
C175	C	0.451443	0.107531	0.125320
C176	C	0.951443	0.607531	0.625320
C177	C	0.532539	0.108886	0.137712
C178	C	1.032539	0.608886	0.637712
H179	H	0.423464	0.107056	0.188795
H180	H	0.923464	0.607056	0.688795
H181	H	0.431854	0.153391	0.086170
H182	H	0.931854	0.653391	0.586170
H183	H	0.444011	0.061217	0.092606
H184	H	0.944011	0.561217	0.592606
H185	H	0.539971	0.155204	0.170420
H186	H	1.039971	0.655204	0.670420
H187	H	0.552134	0.063022	0.176879
H188	H	1.052134	0.563022	0.676879
C189	C	0.934193	-0.375242	0.125324
C190	C	1.434193	0.124758	0.625324
C191	C	0.935536	-0.294144	0.137723
C192	C	1.435536	0.205856	0.637723
H193	H	0.933732	-0.403228	0.188795
H194	H	1.433732	0.096772	0.688795
H195	H	0.887886	-0.382678	0.092614
H196	H	1.387886	0.117322	0.592614
H197	H	0.980060	-0.394820	0.086165
H198	H	1.480060	0.105180	0.586165
H199	H	0.889666	-0.274564	0.176876
H200	H	1.389666	0.225436	0.676876
H201	H	0.981848	-0.286703	0.170448
H202	H	1.481848	0.213297	0.670448
H203	H	0.836234	0.204824	0.161331
H204	H	1.336234	0.704824	0.661331
H205	H	1.031581	0.009655	0.482393
H206	H	1.531581	0.509655	0.982393
C207	C	0.860659	-0.702946	-0.287841
C208	C	1.360659	-0.202946	0.212159
C209	C	0.929392	-0.664490	-0.290973
C210	C	1.429392	-0.164490	0.209027
H211	H	0.860188	-0.730925	-0.346730
H212	H	1.360188	-0.230925	0.153270
H213	H	0.860057	-0.739303	-0.231176
H214	H	1.360057	-0.239303	0.268824
H215	H	0.815118	-0.664684	-0.283509
H216	H	1.315118	-0.164684	0.216491
H217	H	0.974934	-0.702752	-0.295298
H218	H	1.474934	-0.202752	0.204702
H219	H	0.930001	-0.628129	-0.347654
H220	H	1.430001	-0.128129	0.152346
C221	C	0.652060	0.110864	0.207053
C222	C	1.152060	0.610864	0.707053
C223	C	0.705668	0.111764	0.123531
C224	C	1.205668	0.611764	0.623531
H225	H	0.680046	0.111321	0.265941
H226	H	1.180046	0.611321	0.765941
H227	H	0.613820	0.156412	0.202718
H228	H	1.113820	0.656412	0.702718
H229	H	0.625966	0.064238	0.209152
H230	H	1.125966	0.564238	0.709152
H231	H	0.731758	0.158392	0.121428
H232	H	1.231758	0.658392	0.621428
H233	H	0.743923	0.066211	0.127868
H234	H	1.243923	0.566211	0.627868
C235	C	0.937504	-0.174629	0.207075
C236	C	1.437504	0.325371	0.707075
C237	C	0.938408	-0.121013	0.123557
C238	C	1.438408	0.378987	0.623557
H239	H	0.937958	-0.146647	0.265966
H240	H	1.437958	0.353353	0.765966
H241	H	0.890889	-0.200724	0.209162
H242	H	1.390889	0.299276	0.709162
H243	H	0.983062	-0.212870	0.202745
H244	H	1.483062	0.287130	0.702745
H245	H	0.892847	-0.082776	0.127883
H246	H	1.392847	0.417224	0.627883
H247	H	0.985029	-0.094905	0.121470
H248	H	1.485029	0.405095	0.621470
H249	H	0.938272	-0.132751	-0.228307
H250	H	1.438272	0.367249	0.271693
H251	H	1.031561	0.009649	0.350173
H252	H	1.531561	0.509649	0.850173
