data_functionalizedCrystal
_audit_creation_method	'MofGen! by Chris Wilmer'
_symmetry_space_group_name_H-M	'P1'
_symmetry_Int_Tables_number	1
_symmetry_cell_setting	triclinic
loop_
_symmetry_equiv_pos_as_xyz
  x,y,z
_cell_length_a	19.077105
_cell_length_b	19.077068
_cell_length_c	17.077404
_cell_angle_alpha	87.715807
_cell_angle_beta	92.304871
_cell_angle_gamma	90.115316
loop_
_atom_site_label
_atom_site_type_symbol
_atom_site_fract_x
_atom_site_fract_y
_atom_site_fract_z
Zn1	Zn	1.062898	-0.323111	0.505866
Zn2	Zn	1.312898	-0.073111	0.755866
Zn3	Zn	1.562898	0.176889	1.005866
Zn4	Zn	1.812898	0.426889	1.255866
Zn5	Zn	1.058108	-0.440587	0.379640
Zn6	Zn	1.308108	-0.190587	0.629640
Zn7	Zn	1.558108	0.059413	0.879640
Zn8	Zn	1.808108	0.309413	1.129640
Zn9	Zn	0.945415	-0.318370	0.369144
Zn10	Zn	1.195415	-0.068370	0.619144
Zn11	Zn	1.445415	0.181630	0.869144
Zn12	Zn	1.695415	0.431630	1.119144
Zn13	Zn	0.940633	-0.435852	0.505394
Zn14	Zn	1.190633	-0.185852	0.755394
Zn15	Zn	1.440633	0.064148	1.005394
Zn16	Zn	1.690633	0.314148	1.255394
O17	O	1.001764	-0.379480	0.440011
O18	O	1.251764	-0.129480	0.690011
O19	O	1.501764	0.120520	0.940011
O20	O	1.751764	0.370520	1.190011
O21	O	1.160594	-0.342660	0.493712
O22	O	1.410594	-0.092660	0.743712
O23	O	1.660594	0.157340	0.993712
O24	O	1.910594	0.407340	1.243712
O25	O	1.043156	-0.424372	0.268400
O26	O	1.293156	-0.174372	0.518400
O27	O	1.543156	0.075628	0.768400
O28	O	1.793156	0.325628	1.018400
O29	O	0.965006	-0.220668	0.383085
O30	O	1.215006	0.029332	0.633085
O31	O	1.465006	0.279332	0.883085
O32	O	1.715006	0.529332	1.133085
O33	O	1.157074	-0.428969	0.400974
O34	O	1.407074	-0.178969	0.650974
O35	O	1.657074	0.071031	0.900974
O36	O	1.907074	0.321031	1.150974
O37	O	1.051320	-0.224151	0.483534
O38	O	1.301320	0.025849	0.733534
O39	O	1.551320	0.275849	0.983534
O40	O	1.801320	0.525849	1.233534
O41	O	0.960361	-0.334580	0.260689
O42	O	1.210361	-0.084580	0.510689
O43	O	1.460361	0.165420	0.760689
O44	O	1.710361	0.415420	1.010689
O45	O	0.846450	-0.329989	0.382627
O46	O	1.096450	-0.079989	0.632627
O47	O	1.346450	0.170011	0.882627
O48	O	1.596450	0.420011	1.132627
O49	O	0.956856	-0.420899	0.615304
O50	O	1.206856	-0.170899	0.865304
O51	O	1.456856	0.079101	1.115304
O52	O	1.706856	0.329101	1.365304
O53	O	0.842937	-0.416303	0.482730
O54	O	1.092937	-0.166303	0.732730
O55	O	1.342937	0.083697	0.982730
O56	O	1.592937	0.333697	1.232730
O57	O	1.046683	-0.338069	0.615650
O58	O	1.296683	-0.088069	0.865650
O59	O	1.546683	0.161931	1.115650
O60	O	1.796683	0.411931	1.365650
O61	O	1.038519	-0.538290	0.400517
O62	O	1.288519	-0.288290	0.650517
O63	O	1.538519	-0.038290	0.900517
O64	O	1.788519	0.211710	1.150517
O65	O	0.952211	-0.534811	0.492908
O66	O	1.202211	-0.284811	0.742908
O67	O	1.452211	-0.034811	0.992908
O68	O	1.702211	0.215189	1.242908
C69	C	0.819198	-0.372118	0.431489
C70	C	1.069198	-0.122118	0.681489
C71	C	1.319198	0.127882	0.931489
C72	C	1.569198	0.377882	1.181489
C73	C	0.741095	-0.368985	0.427863
C74	C	0.991095	-0.118985	0.677863
C75	C	1.241095	0.131015	0.927863
C76	C	1.491095	0.381015	1.177863
C77	C	0.994345	-0.562048	0.447818
C78	C	1.244345	-0.312048	0.697818
C79	C	1.494345	-0.062048	0.947818
C80	C	1.744345	0.187952	1.197818
C81	C	0.991236	-0.640153	0.451188
C82	C	1.241236	-0.390153	0.701188
C83	C	1.491236	-0.140153	0.951188
C84	C	1.741236	0.109847	1.201188
C85	C	0.702588	-0.412520	0.478201
C86	C	0.952588	-0.162520	0.728201
C87	C	1.202588	0.087480	0.978201
C88	C	1.452588	0.337480	1.228201
C89	C	0.629202	-0.409567	0.474797
C90	C	0.879202	-0.159567	0.724797
C91	C	1.129202	0.090433	0.974797
C92	C	1.379202	0.340433	1.224797
C93	C	0.594324	-0.363083	0.421050
C94	C	0.844324	-0.113083	0.671050
C95	C	1.094324	0.136917	0.921050
C96	C	1.344324	0.386917	1.171050
C97	C	0.632836	-0.319543	0.370710
C98	C	0.882836	-0.069543	0.620710
C99	C	1.132836	0.180457	0.870710
C100	C	1.382836	0.430457	1.120710
C101	C	0.706220	-0.322493	0.374118
C102	C	0.956220	-0.072493	0.624118
C103	C	1.206220	0.177507	0.874118
C104	C	1.456220	0.427507	1.124118
C105	C	0.375042	-0.349431	0.405280
C106	C	0.625042	-0.099431	0.655280
C107	C	0.875042	0.150569	0.905280
C108	C	1.125042	0.400569	1.155280
C109	C	0.301652	-0.346487	0.401874
C110	C	0.551652	-0.096487	0.651874
C111	C	0.801652	0.153513	0.901874
C112	C	1.051652	0.403513	1.151874
C113	C	0.298023	-0.436510	0.505963
C114	C	0.548023	-0.186510	0.755963
C115	C	0.798023	0.063490	1.005963
C116	C	1.048023	0.313490	1.255963
C117	C	0.371409	-0.439459	0.509363
C118	C	0.621409	-0.189459	0.759363
C119	C	0.871409	0.060541	1.009363
C120	C	1.121409	0.310541	1.259363
C121	C	0.409915	-0.395917	0.459025
C122	C	0.659915	-0.145917	0.709025
C123	C	0.909915	0.104083	0.959025
C124	C	1.159915	0.354083	1.209025
N125	N	0.519312	-0.360065	0.417568
N126	N	0.769312	-0.110065	0.667568
N127	N	1.019312	0.139935	0.917568
N128	N	1.269312	0.389935	1.167568
N129	N	0.484926	-0.398931	0.462512
N130	N	0.734926	-0.148931	0.712512
N131	N	0.984926	0.101069	0.962512
N132	N	1.234926	0.351069	1.212512
C133	C	1.034746	-0.678637	0.404711
C134	C	1.284746	-0.428637	0.654711
C135	C	1.534746	-0.178637	0.904711
C136	C	1.784746	0.071363	1.154711
C137	C	1.031825	-0.752026	0.407885
C138	C	1.281825	-0.502026	0.657885
C139	C	1.531825	-0.252026	0.907885
C140	C	1.781825	-0.002026	1.157885
C141	C	0.985391	-0.786929	0.457532
C142	C	1.235391	-0.536929	0.707532
C143	C	1.485391	-0.286929	0.957532
C144	C	1.735391	-0.036929	1.207532
C145	C	0.941879	-0.748441	0.504014
C146	C	1.191879	-0.498441	0.754014
C147	C	1.441879	-0.248441	1.004014
C148	C	1.691879	0.001559	1.254014
C149	C	0.944803	-0.675053	0.500843
C150	C	1.194803	-0.425053	0.750843
C151	C	1.444803	-0.175053	1.000843
C152	C	1.694803	0.074947	1.250843
C153	C	0.971825	-1.006222	0.472170
C154	C	1.221825	-0.756222	0.722170
C155	C	1.471825	-0.506222	0.972170
C156	C	1.721825	-0.256222	1.222170
C157	C	0.968902	-1.079614	0.475335
C158	C	1.218902	-0.829614	0.725335
C159	C	1.468902	-0.579614	0.975335
C160	C	1.718902	-0.329614	1.225335
C161	C	1.058850	-1.083194	0.379207
C162	C	1.308850	-0.833194	0.629207
C163	C	1.558850	-0.583194	0.879207
C164	C	1.808850	-0.333194	1.129207
C165	C	1.061767	-1.009805	0.376038
C166	C	1.311767	-0.759805	0.626038
C167	C	1.561767	-0.509805	0.876038
C168	C	1.811767	-0.259805	1.126038
C169	C	1.018258	-0.971323	0.422523
C170	C	1.268258	-0.721323	0.672523
C171	C	1.518258	-0.471323	0.922523
C172	C	1.768258	-0.221323	1.172523
N173	N	0.982403	-0.861944	0.460775
N174	N	1.232403	-0.611944	0.710775
N175	N	1.482403	-0.361944	0.960775
N176	N	1.732403	-0.111944	1.210775
N177	N	1.021250	-0.896310	0.419283
N178	N	1.271250	-0.646310	0.669283
N179	N	1.521250	-0.396310	0.919283
N180	N	1.771250	-0.146310	1.169283
C181	C	1.185043	-0.386872	0.448566
C182	C	1.435043	-0.136872	0.698566
C183	C	1.685043	0.113128	0.948566
C184	C	1.935043	0.363128	1.198566
C185	C	1.263145	-0.390021	0.452212
C186	C	1.513145	-0.140021	0.702212
C187	C	1.763145	0.109979	0.952212
C188	C	2.013145	0.359979	1.202212
C189	C	1.001770	-0.379485	0.644756
C190	C	1.251770	-0.129485	0.894756
C191	C	1.501770	0.120515	1.144756
C192	C	1.751770	0.370515	1.394756
C193	C	1.001773	-0.379487	0.732006
C194	C	1.251773	-0.129487	0.982006
C195	C	1.501773	0.120513	1.232006
C196	C	1.751773	0.370513	1.482006
C197	C	1.009231	-0.196201	0.432191
C198	C	1.259231	0.053799	0.682191
C199	C	1.509231	0.303799	0.932191
C200	C	1.759231	0.553799	1.182191
C201	C	1.012413	-0.118098	0.428859
C202	C	1.262413	0.131902	0.678859
C203	C	1.512413	0.381902	0.928859
C204	C	1.762413	0.631902	1.178859
C205	C	1.048540	-0.336364	0.773177
C206	C	1.298540	-0.086364	1.023177
C207	C	1.548540	0.163636	1.273177
C208	C	1.798540	0.413636	1.523177
C209	C	1.048535	-0.336363	0.855158
C210	C	1.298535	-0.086363	1.105158
C211	C	1.548535	0.163637	1.355158
C212	C	1.798535	0.413637	1.605158
C213	C	1.001764	-0.379489	0.895965
C214	C	1.251764	-0.129489	1.145965
C215	C	1.501764	0.120511	1.395965
C216	C	1.751764	0.370511	1.645965
C217	C	0.954992	-0.422613	0.854787
C218	C	1.204992	-0.172613	1.104787
C219	C	1.454992	0.077387	1.354787
C220	C	1.704992	0.327387	1.604787
C221	C	0.954995	-0.422610	0.772808
C222	C	1.204995	-0.172610	1.022808
C223	C	1.454995	0.077390	1.272808
C224	C	1.704995	0.327390	1.522808
C225	C	0.954990	-0.422618	1.025657
C226	C	1.204990	-0.172618	1.275657
C227	C	1.454990	0.077382	1.525657
C228	C	1.704990	0.327382	1.775657
C229	C	0.954988	-0.422622	1.107642
C230	C	1.204988	-0.172622	1.357642
C231	C	1.454988	0.077378	1.607642
C232	C	1.704988	0.327378	1.857642
C233	C	1.048530	-0.336370	1.108007
C234	C	1.298530	-0.086370	1.358007
C235	C	1.548530	0.163630	1.608007
C236	C	1.798530	0.413630	1.858007
C237	C	1.048533	-0.336367	1.026028
C238	C	1.298533	-0.086367	1.276028
C239	C	1.548533	0.163633	1.526028
C240	C	1.798533	0.413633	1.776028
C241	C	1.001761	-0.379493	0.984856
C242	C	1.251761	-0.129493	1.234856
C243	C	1.501761	0.120507	1.484856
C244	C	1.751761	0.370507	1.734856
C245	C	1.001753	-0.379494	1.236063
C246	C	1.251753	-0.129494	1.486063
C247	C	1.501753	0.120506	1.736063
C248	C	1.751753	0.370506	1.986063
C249	C	1.001755	-0.379499	1.148814
C250	C	1.251755	-0.129499	1.398814
C251	C	1.501755	0.120501	1.648814
C252	C	1.751755	0.370501	1.898814
H253	H	0.730980	-0.450375	0.521965
H254	H	0.980980	-0.200375	0.771965
H255	H	1.230980	0.049625	1.021965
H256	H	1.480980	0.299625	1.271965
H257	H	0.266664	-0.471959	0.546946
H258	H	0.516664	-0.221959	0.796946
H259	H	0.766664	0.028041	1.046946
H260	H	1.016664	0.278041	1.296946
Br261	Br	0.891507	-0.481143	1.163022
Br262	Br	1.141507	-0.231143	1.413022
Br263	Br	1.391507	0.018857	1.663022
Br264	Br	1.641507	0.268857	1.913022
H265	H	1.086628	-0.301248	0.739958
H266	H	1.336628	-0.051248	0.989958
H267	H	1.586628	0.198752	1.239958
H268	H	1.836628	0.448752	1.489958
Br269	Br	1.097761	-0.631275	0.337322
Br270	Br	1.347761	-0.381275	0.587322
Br271	Br	1.597761	-0.131275	0.837322
Br272	Br	1.847761	0.118725	1.087322
H273	H	0.597853	-0.445019	0.515787
H274	H	0.847853	-0.195019	0.765787
H275	H	1.097853	0.054981	1.015787
H276	H	1.347853	0.304981	1.265787
Br277	Br	0.418739	-0.502551	0.582303
Br278	Br	0.668739	-0.252551	0.832303
Br279	Br	0.918739	-0.002551	1.082303
Br280	Br	1.168739	0.247449	1.332303
Br281	Br	0.254317	-0.283404	0.328919
Br282	Br	0.504317	-0.033404	0.578919
Br283	Br	0.754317	0.216596	0.828919
Br284	Br	1.004317	0.466596	1.078919
H285	H	1.099578	-0.981388	0.335611
H286	H	1.349578	-0.731388	0.585611
H287	H	1.599578	-0.481388	0.835611
H288	H	1.849578	-0.231388	1.085611
H289	H	1.086612	-0.301255	1.141533
H290	H	1.336612	-0.051255	1.391533
H291	H	1.586612	0.198745	1.641533
H292	H	1.836612	0.448745	1.891533
H293	H	1.094274	-1.114534	0.341363
H294	H	1.344274	-0.864534	0.591363
H295	H	1.594274	-0.614534	0.841363
H296	H	1.844274	-0.364534	1.091363
Br297	Br	0.878866	-0.795809	0.571400
Br298	Br	1.128866	-0.545809	0.821400
Br299	Br	1.378866	-0.295809	1.071400
Br300	Br	1.628866	-0.045809	1.321400
Br301	Br	0.427290	-0.290334	0.336968
Br302	Br	0.677290	-0.040334	0.586968
Br303	Br	0.927290	0.209666	0.836968
Br304	Br	1.177290	0.459666	1.086968
Br305	Br	0.912777	-0.954005	0.535258
Br306	Br	1.162777	-0.704005	0.785258
Br307	Br	1.412777	-0.454005	1.035258
Br308	Br	1.662777	-0.204005	1.285258
Br309	Br	1.112039	-0.277871	0.911034
Br310	Br	1.362039	-0.027871	1.161034
Br311	Br	1.612039	0.222129	1.411034
Br312	Br	1.862039	0.472129	1.661034
H313	H	0.931098	-1.108031	0.515778
H314	H	1.181098	-0.858031	0.765778
H315	H	1.431098	-0.608031	1.015778
H316	H	1.681098	-0.358031	1.265778
H317	H	0.604432	-0.281691	0.326951
H318	H	0.854432	-0.031691	0.576951
H319	H	1.104432	0.218309	0.826951
H320	H	1.354432	0.468309	1.076951
H321	H	0.909374	-0.643721	0.538691
H322	H	1.159374	-0.393721	0.788691
H323	H	1.409374	-0.143721	1.038691
H324	H	1.659374	0.106279	1.288691
H325	H	0.737572	-0.287038	0.333131
H326	H	0.987572	-0.037038	0.583131
H327	H	1.237572	0.212962	0.833131
H328	H	1.487572	0.462962	1.083131
H329	H	0.916893	-0.457724	0.992136
H330	H	1.166893	-0.207724	1.242136
H331	H	1.416893	0.042276	1.492136
H332	H	1.666893	0.292276	1.742136
H333	H	1.086621	-0.301255	0.992805
H334	H	1.336621	-0.051255	1.242805
H335	H	1.586621	0.198745	1.492805
H336	H	1.836621	0.448745	1.742805
H337	H	0.916908	-0.457724	0.888018
H338	H	1.166908	-0.207724	1.138018
H339	H	1.416908	0.042276	1.388018
H340	H	1.666908	0.292276	1.638018
Br341	Br	1.090882	-0.804251	0.344811
Br342	Br	1.340882	-0.554251	0.594811
Br343	Br	1.590882	-0.304251	0.844811
Br344	Br	1.840882	-0.054251	1.094811
H345	H	0.916905	-0.457718	0.739286
H346	H	1.166905	-0.207718	0.989286
H347	H	1.416905	0.042282	1.239286
H348	H	1.666905	0.292282	1.489286
