data_functionalizedCrystal
_audit_creation_method	'MofGen! by Chris Wilmer'
_symmetry_space_group_name_H-M	'P1'
_symmetry_Int_Tables_number	1
_symmetry_cell_setting	triclinic
loop_
_symmetry_equiv_pos_as_xyz
  x,y,z
_cell_length_a	12.645330
_cell_length_b	15.298206
_cell_length_c	15.296720
_cell_angle_alpha	69.221745
_cell_angle_beta	80.350659
_cell_angle_gamma	80.355507
loop_
_atom_site_label
_atom_site_type_symbol
_atom_site_fract_x
_atom_site_fract_y
_atom_site_fract_z
Zn1	Zn	-0.749146	1.330675	0.279397
Zn2	Zn	-0.900267	1.357503	0.123904
Zn3	Zn	-0.696927	1.202086	0.150853
Zn4	Zn	-0.900250	1.175146	0.306324
O5	O	-0.811647	1.266352	0.215119
O6	O	-0.791053	1.464366	0.236223
O7	O	-0.851446	1.359389	-0.002660
O8	O	-0.555518	1.219191	0.167914
O9	O	-0.902081	1.484076	0.121983
O10	O	-0.593883	1.313664	0.262354
O11	O	-0.702054	1.245205	0.017139
O12	O	-0.702038	1.068381	0.194024
O13	O	-0.902053	1.173274	0.432891
O14	O	-0.851418	1.048587	0.308248
O15	O	-0.791037	1.287541	0.413108
O16	O	-1.048600	1.333266	0.148093
O17	O	-1.048588	1.199289	0.282116
C18	C	-0.771061	1.024742	0.256983
C19	C	-0.753727	0.921376	0.274914
C20	C	-0.687898	0.862543	0.342914
C21	C	-0.671602	0.765425	0.359764
C22	C	-0.721140	0.727131	0.308621
C23	C	-0.786976	0.785964	0.240624
C24	C	-0.803267	0.883092	0.223768
C25	C	-0.836508	0.747680	0.189474
C26	C	-0.902344	0.806514	0.121477
C27	C	-0.918633	0.903632	0.104624
C28	C	-0.869095	0.941926	0.155768
C29	C	-0.820217	0.650552	0.206331
C30	C	-0.935586	0.671102	0.087184
C31	C	-0.951882	0.768220	0.070334
C32	C	-1.087064	1.266287	0.215118
C33	C	-1.204907	1.266338	0.215134
C34	C	-1.372595	1.182311	0.299618
C35	C	-1.249935	1.181985	0.299450
C36	C	-1.228566	1.256781	0.121720
C37	C	-1.351164	1.256269	0.122233
C38	C	-1.392762	1.360498	0.223193
C39	C	-1.270415	1.359524	0.225441
C40	C	-0.535164	1.266440	0.215137
C41	C	-0.417343	1.266478	0.215144
C42	C	-0.852368	1.224410	0.457686
C43	C	-0.869721	1.206536	0.561054
C44	C	-0.852394	1.508906	0.173093
C45	C	-0.869757	1.612268	0.155184
C46	C	-0.771018	1.308186	-0.026513
C47	C	-0.753397	1.326239	-0.129911
C48	C	-0.687445	1.394132	0.811228
C49	C	-0.671144	1.410931	0.714108
C50	C	-0.720787	1.359833	0.675840
C51	C	-0.786733	1.291935	0.734701
C52	C	-0.803043	1.275139	0.831830
C53	C	-0.836384	1.240841	0.696441
C54	C	-0.902331	1.172942	0.755303
C55	C	-0.918637	1.156149	0.852422
C56	C	-0.868994	1.207247	0.890690
C57	C	-0.820075	1.257636	0.599313
C58	C	-0.935672	1.138644	0.619914
C59	C	-0.951973	1.121845	0.717034
H60	H	-0.618000	0.717529	0.415128
H61	H	-0.707864	0.648053	0.322341
Cl62	Cl	-1.395490	1.348218	0.023156
Cl63	Cl	-1.226545	1.188177	0.407215
H64	H	-0.766611	0.602659	0.261693
H65	H	-1.182368	1.189372	0.112407
Cl66	Cl	-0.625057	1.458368	0.859341
Cl67	Cl	-1.181572	1.073838	0.293297
Cl68	Cl	-1.464893	1.379080	0.325187
H69	H	-0.972230	0.951534	0.049249
Cl70	Cl	-1.249324	1.371133	0.331452
H71	H	-0.707510	1.373515	0.596760
H72	H	-0.882375	1.021004	0.142064
Cl73	Cl	-1.371308	1.150934	0.108650
H74	H	-0.882263	1.193573	0.969772
H75	H	-0.647566	0.893732	0.384543
H76	H	-1.005668	1.066561	0.764972
H77	H	-0.976098	1.097038	0.588757
Cl78	Cl	-0.997861	0.622969	0.022882
H79	H	-0.972345	1.100869	0.900343
H80	H	-1.005486	0.816135	0.014971
H81	H	-0.617453	1.466216	0.666190
H82	H	-1.388568	1.112685	0.295764
Cl83	Cl	-1.441201	1.188201	0.407796
H84	H	-1.241022	1.424174	0.167040
Cl85	Cl	-1.182337	1.349584	0.023041
H86	H	-1.421893	1.422996	0.161460
H87	H	-0.766379	1.312919	0.551397
