data_functionalizedCrystal
_audit_creation_method	'MofGen! by Chris Wilmer'
_symmetry_space_group_name_H-M	'P1'
_symmetry_Int_Tables_number	1
_symmetry_cell_setting	triclinic
loop_
_symmetry_equiv_pos_as_xyz
  x,y,z
_cell_length_a	19.805407
_cell_length_b	18.101395
_cell_length_c	19.805398
_cell_angle_alpha	89.976545
_cell_angle_beta	89.984135
_cell_angle_gamma	90.031104
loop_
_atom_site_label
_atom_site_type_symbol
_atom_site_fract_x
_atom_site_fract_y
_atom_site_fract_z
Zn1	Zn	1.034689	-0.294859	-0.382731
Zn2	Zn	1.368022	0.038474	-0.049398
Zn3	Zn	1.701355	0.371808	0.283935
Zn4	Zn	1.034602	-0.418699	-0.269548
Zn5	Zn	1.367935	-0.085366	0.063786
Zn6	Zn	1.701268	0.247968	0.397119
Zn7	Zn	0.921511	-0.294876	-0.269556
Zn8	Zn	1.254844	0.038458	0.063778
Zn9	Zn	1.588177	0.371791	0.397111
Zn10	Zn	0.921458	-0.418663	-0.382695
Zn11	Zn	1.254791	-0.085330	-0.049361
Zn12	Zn	1.588124	0.248004	0.283972
O13	O	0.978065	-0.356774	-0.326132
O14	O	1.311398	-0.023441	0.007201
O15	O	1.644731	0.309892	0.340534
O16	O	1.129394	-0.311295	-0.367729
O17	O	1.462727	0.022039	-0.034396
O18	O	1.796060	0.355372	0.298937
O19	O	1.019586	-0.402296	-0.174832
O20	O	1.352919	-0.068962	0.158501
O21	O	1.686252	0.264371	0.491834
O22	O	0.936583	-0.191241	-0.284587
O23	O	1.269916	0.142093	0.048746
O24	O	1.603249	0.475426	0.382079
O25	O	1.129330	-0.402279	-0.284574
O26	O	1.462663	-0.068946	0.048759
O27	O	1.795996	0.264387	0.382093
O28	O	1.019734	-0.191228	-0.367737
O29	O	1.353068	0.142105	-0.034404
O30	O	1.686401	0.475438	0.298930
O31	O	0.936498	-0.311323	-0.174838
O32	O	1.269832	0.022010	0.158495
O33	O	1.603165	0.355343	0.491829
O34	O	0.826787	-0.311289	-0.284552
O35	O	1.160121	0.022045	0.048781
O36	O	1.493454	0.355378	0.382115
O37	O	0.936492	-0.402218	-0.477416
O38	O	1.269826	-0.068885	-0.144083
O39	O	1.603159	0.264448	0.189251
O40	O	0.826748	-0.402235	-0.367674
O41	O	1.160082	-0.068901	-0.034341
O42	O	1.493415	0.264432	0.298992
O43	O	1.019683	-0.311260	-0.477443
O44	O	1.353016	0.022074	-0.144110
O45	O	1.686349	0.355407	0.189224
O46	O	1.019534	-0.522327	-0.284538
O47	O	1.352868	-0.188994	0.048795
O48	O	1.686201	0.144340	0.382128
O49	O	0.936408	-0.522301	-0.367667
O50	O	1.269741	-0.188967	-0.034333
O51	O	1.603075	0.144366	0.299000
C52	C	0.802209	-0.356760	-0.326110
C53	C	1.135542	-0.023427	0.007223
C54	C	1.468875	0.309907	0.340556
C55	C	0.726977	-0.356772	-0.326117
C56	C	1.060310	-0.023438	0.007216
C57	C	1.393643	0.309895	0.340549
C58	C	0.977974	-0.549185	-0.326112
C59	C	1.311308	-0.215851	0.007221
C60	C	1.644641	0.117482	0.340554
C61	C	0.977997	-0.631499	-0.326127
C62	C	1.311331	-0.298166	0.007207
C63	C	1.644664	0.035168	0.340540
C64	C	0.691630	-0.404199	-0.369329
C65	C	1.024963	-0.070865	-0.035996
C66	C	1.358297	0.262468	0.297338
C67	C	0.620942	-0.404200	-0.369339
C68	C	0.954275	-0.070867	-0.036005
C69	C	1.287608	0.262467	0.297328
C70	C	0.585601	-0.356778	-0.326132
C71	C	0.918935	-0.023444	0.007201
C72	C	1.252268	0.309889	0.340534
C73	C	0.620953	-0.309345	-0.282919
C74	C	0.954286	0.023988	0.050415
C75	C	1.287620	0.357321	0.383748
C76	C	0.691640	-0.309341	-0.282913
C77	C	1.024973	0.023992	0.050420
C78	C	1.358307	0.357326	0.383754
C79	C	0.335880	-0.309362	-0.282941
C80	C	0.669213	0.023972	0.050392
C81	C	1.002546	0.357305	0.383726
C82	C	0.265187	-0.309372	-0.282948
C83	C	0.598521	0.023962	0.050385
C84	C	0.931854	0.357295	0.383718
C85	C	0.265181	-0.404221	-0.369367
C86	C	0.598514	-0.070888	-0.036033
C87	C	0.931848	0.262446	0.297300
C88	C	0.335868	-0.404216	-0.369361
C89	C	0.669202	-0.070883	-0.036028
C90	C	1.002535	0.262450	0.297306
C91	C	0.371214	-0.356782	-0.326150
C92	C	0.704547	-0.023449	0.007183
C93	C	1.037880	0.309885	0.340517
C94	C	0.447862	-0.356780	-0.326141
C95	C	0.781196	-0.023447	0.007192
C96	C	1.114529	0.309887	0.340526
C97	C	0.508954	-0.356783	-0.326137
C98	C	0.842287	-0.023449	0.007196
C99	C	1.175621	0.309884	0.340529
C100	C	0.978146	-0.930590	-0.326163
C101	C	1.311479	-0.597256	0.007170
C102	C	1.644813	-0.263923	0.340504
C103	C	0.925966	-0.899279	-0.378595
C104	C	1.259300	-0.565946	-0.045262
C105	C	1.592633	-0.232612	0.288072
C106	C	0.925718	-0.813661	-0.378431
C107	C	1.259052	-0.480328	-0.045098
C108	C	1.592385	-0.146994	0.288236
C109	C	0.978072	-0.782207	-0.326146
C110	C	1.311406	-0.448874	0.007188
C111	C	1.644739	-0.115541	0.340521
C112	C	0.958766	-0.813353	-0.254811
C113	C	1.292099	-0.480020	0.078522
C114	C	1.625433	-0.146687	0.411856
C115	C	0.958430	-0.898999	-0.255125
C116	C	1.291763	-0.565665	0.078209
C117	C	1.625096	-0.232332	0.411542
C118	C	1.049746	-0.898935	-0.344438
C119	C	1.383079	-0.565601	-0.011104
C120	C	1.716413	-0.232268	0.322229
C121	C	1.049325	-0.813284	-0.346002
C122	C	1.382658	-0.479951	-0.012669
C123	C	1.715991	-0.146617	0.320665
C124	C	0.978032	-0.698348	-0.326131
C125	C	1.311365	-0.365014	0.007202
C126	C	1.644698	-0.031681	0.340535
C127	C	0.978185	-1.014449	-0.326173
C128	C	1.311518	-0.681116	0.007161
C129	C	1.644851	-0.347783	0.340494
C130	C	1.154607	-0.356789	-0.326155
C131	C	1.487941	-0.023456	0.007179
C132	C	1.821274	0.309878	0.340512
C133	C	1.229839	-0.356795	-0.326164
C134	C	1.563173	-0.023462	0.007169
C135	C	1.896506	0.309871	0.340502
C136	C	0.978091	-0.356733	-0.502675
C137	C	1.311425	-0.023400	-0.169342
C138	C	1.644758	0.309933	0.163992
C139	C	0.978103	-0.356716	-0.577907
C140	C	1.311436	-0.023382	-0.244574
C141	C	1.644769	0.309951	0.088759
C142	C	0.978174	-0.163612	-0.326167
C143	C	1.311507	0.169721	0.007166
C144	C	1.644841	0.503054	0.340500
C145	C	0.978221	-0.081298	-0.326182
C146	C	1.311554	0.252035	0.007151
C147	C	1.644887	0.585369	0.340485
C148	C	1.021501	-0.309223	-1.039714
C149	C	1.354835	0.024111	-0.706380
C150	C	1.688168	0.357444	-0.373047
C151	C	1.021491	-0.309245	-0.969025
C152	C	1.354824	0.024088	-0.635692
C153	C	1.688157	0.357421	-0.302358
C154	C	0.978172	-0.356613	-0.933669
C155	C	1.311505	-0.023279	-0.600336
C156	C	1.644839	0.310054	-0.267002
C157	C	0.934866	-0.403966	-0.969005
C158	C	1.268199	-0.070633	-0.635672
C159	C	1.601533	0.262701	-0.302339
C160	C	0.934880	-0.403946	-1.039692
C161	C	1.268214	-0.070613	-0.706359
C162	C	1.601547	0.262720	-0.373026
C163	C	0.934807	-0.404046	-0.683932
C164	C	1.268140	-0.070713	-0.350599
C165	C	1.601474	0.262620	-0.017265
C166	C	0.934794	-0.404060	-0.613240
C167	C	1.268128	-0.070727	-0.279906
C168	C	1.601461	0.262606	0.053427
C169	C	1.021417	-0.309345	-0.613264
C170	C	1.354751	0.023988	-0.279931
C171	C	1.688084	0.357322	0.053402
C172	C	1.021432	-0.309326	-0.683952
C173	C	1.354765	0.024008	-0.350618
C174	C	1.688099	0.357341	-0.017285
C175	C	0.978129	-0.356681	-0.719282
C176	C	1.311462	-0.023348	-0.385948
C177	C	1.644795	0.309986	-0.052615
C178	C	0.978142	-0.356657	-0.795930
C179	C	1.311475	-0.023324	-0.462597
C180	C	1.644808	0.310010	-0.129263
C181	C	0.978155	-0.356634	-0.857022
C182	C	1.311489	-0.023300	-0.523689
C183	C	1.644822	0.310033	-0.190355
C184	C	0.978077	-0.356762	-0.150276
C185	C	1.311411	-0.023428	0.183057
C186	C	1.644744	0.309905	0.516390
C187	C	0.978197	-0.356570	-0.075045
C188	C	1.311530	-0.023237	0.258289
C189	C	1.644864	0.310096	0.591622
H190	H	0.720399	-0.442818	-0.404510
H191	H	1.053732	-0.109485	-0.071177
H192	H	1.387066	0.223849	0.262156
F193	F	0.729258	-0.258861	-0.236922
F194	F	1.062592	0.074472	0.096411
F195	F	1.395925	0.407805	0.429744
H196	H	1.056772	-0.270646	-1.068495
H197	H	1.390106	0.062688	-0.735162
H198	H	1.723439	0.396021	-0.401829
H199	H	1.067349	-0.920487	-0.395569
H200	H	1.400682	-0.587153	-0.062235
H201	H	1.734015	-0.253820	0.271098
H202	H	0.236415	-0.270750	-0.247765
H203	H	0.569749	0.062583	0.085569
H204	H	0.903082	0.395917	0.418902
H205	H	1.063884	-0.792925	-0.398501
H206	H	1.397217	-0.459591	-0.065167
H207	H	1.730550	-0.126258	0.268166
H208	H	0.937797	-0.792601	-0.431325
H209	H	1.271130	-0.459267	-0.097992
H210	H	1.604463	-0.125934	0.235342
H211	H	0.899618	-0.442503	-1.068458
H212	H	1.232951	-0.109169	-0.735125
H213	H	1.566285	0.224164	-0.401792
F214	F	0.227558	-0.454705	-0.415357
F215	F	0.560892	-0.121372	-0.082023
F216	F	0.894225	0.211962	0.251310
H217	H	0.995576	-0.792980	-0.214680
H218	H	1.328909	-0.459647	0.118654
H219	H	1.662242	-0.126313	0.451987
F220	F	0.890019	-0.925197	-0.234891
F221	F	1.223352	-0.591864	0.098442
F222	F	1.556686	-0.258530	0.431776
F223	F	1.067582	-0.258851	-0.931426
F224	F	1.400915	0.074482	-0.598093
F225	F	1.734248	0.407815	-0.264759
F226	F	0.583326	-0.454678	-0.415331
F227	F	0.916659	-0.121345	-0.081998
F228	F	1.249993	0.211989	0.251336
F229	F	1.102830	-0.785288	-0.299729
F230	F	1.436163	-0.451955	0.033604
F231	F	1.769496	-0.118622	0.366937
F232	F	0.888722	-0.454449	-0.721524
F233	F	1.222056	-0.121116	-0.388190
F234	F	1.555389	0.212218	-0.054857
H235	H	0.899598	-0.442537	-0.940213
H236	H	1.232931	-0.109203	-0.606880
H237	H	1.566265	0.224130	-0.273546
H238	H	0.937925	-0.919830	-0.431660
H239	H	1.271258	-0.586497	-0.098327
H240	H	1.604591	-0.253164	0.235007
F241	F	1.067542	-0.258916	-0.721576
F242	F	1.400876	0.074418	-0.388243
F243	F	1.734209	0.407751	-0.054910
F244	F	0.888687	-0.454479	-0.575613
F245	F	1.222020	-0.121145	-0.242279
F246	F	1.555353	0.212188	0.091054
F247	F	0.373488	-0.258876	-0.236954
F248	F	0.706821	0.074457	0.096380
F249	F	1.040155	0.407791	0.429713
F250	F	0.857021	-0.927506	-0.362984
F251	F	1.190354	-0.594172	-0.029650
F252	F	1.523688	-0.260839	0.303683
F253	F	1.100562	-0.925411	-0.294532
F254	F	1.433895	-0.592077	0.038802
F255	F	1.767229	-0.258744	0.372135
F256	F	0.373476	-0.454692	-0.415344
F257	F	0.706810	-0.121359	-0.082011
F258	F	1.040143	0.211974	0.251323
F259	F	0.891078	-0.785405	-0.234214
F260	F	1.224412	-0.452071	0.099120
F261	F	1.557745	-0.118738	0.432453
H262	H	0.592173	-0.270730	-0.247742
H263	H	0.925506	0.062603	0.085591
H264	H	1.258840	0.395937	0.418924
H265	H	0.872647	-0.793237	-0.366326
H266	H	1.205980	-0.459904	-0.032992
H267	H	1.539313	-0.126570	0.300341
F268	F	1.067504	-0.258943	-0.575658
F269	F	1.400838	0.074390	-0.242325
F270	F	1.734171	0.407723	0.091009
H271	H	0.994787	-0.919713	-0.214727
H272	H	1.328120	-0.586380	0.118607
H273	H	1.661453	-0.253046	0.451940
