data_functionalizedCrystal
_audit_creation_method	'MofGen! by Chris Wilmer'
_symmetry_space_group_name_H-M	'P1'
_symmetry_Int_Tables_number	1
_symmetry_cell_setting	triclinic
loop_
_symmetry_equiv_pos_as_xyz
  x,y,z
_cell_length_a	31.640172
_cell_length_b	31.640172
_cell_length_c	31.640172
_cell_angle_alpha	89.994287
_cell_angle_beta	59.998907
_cell_angle_gamma	59.990533
loop_
_atom_site_label
_atom_site_type_symbol
_atom_site_fract_x
_atom_site_fract_y
_atom_site_fract_z
Zr1	Zr	0.462609	0.407163	-0.055585
O2	O	0.550792	0.339669	-0.123074
O3	O	0.374426	0.427856	-0.034886
O4	O	0.462598	0.427852	-0.123069
O5	O	0.462629	0.339675	0.034657
O6	O	0.462588	0.497409	-0.123076
O7	O	0.462620	0.339674	-0.034891
O8	O	0.304866	0.497418	0.034667
O9	O	0.620352	0.339666	-0.123086
O10	O	0.410690	0.488589	-0.026076
O11	O	0.410703	0.436680	0.025833
O12	O	0.514514	0.436674	-0.077991
O13	O	0.514527	0.384765	-0.026082
Zr14	Zr	0.462608	0.518101	0.055324
Zr15	Zr	0.462594	0.518099	-0.055597
Zr16	Zr	0.462623	0.407165	0.055336
Zr17	Zr	0.573549	0.407159	-0.055604
Zr18	Zr	0.351668	0.518105	0.055343
O19	O	0.550791	0.497407	0.034625
O20	O	0.550771	0.497405	-0.123091
O21	O	0.550812	0.339671	0.034642
O22	O	0.374425	0.585595	0.122813
O23	O	0.374405	0.585593	-0.034903
O24	O	0.374446	0.427859	0.122830
O25	O	0.462588	0.585589	-0.034918
O26	O	0.462619	0.497412	0.122808
O27	O	0.462629	0.427855	0.122815
O28	O	0.462597	0.585590	0.034630
O29	O	0.620340	0.427845	-0.123096
O30	O	0.304877	0.497419	0.122835
O31	O	0.304865	0.585598	0.122825
O32	O	0.304854	0.585597	0.034657
O33	O	0.620363	0.339667	-0.034918
O34	O	0.620352	0.427846	-0.034928
O35	O	0.410703	0.488590	0.077730
O36	O	0.410690	0.540499	0.025821
O37	O	0.514514	0.488584	-0.026094
O38	O	0.514527	0.436675	0.025815
C39	C	0.323839	0.462638	-0.000107
C40	C	0.276742	0.462640	-0.000099
C41	C	0.023068	0.424311	-0.038457
C42	C	-0.153913	0.424307	-0.038471
O43	O	-0.144206	0.391728	-0.071073
N44	N	-0.214365	0.462628	-0.000154
C45	C	-0.230572	0.500955	0.038168
O46	O	-0.286052	0.533553	0.070756
C47	C	-0.053592	0.500961	0.038180
C48	C	0.006861	0.462634	-0.000137
C49	C	0.083518	0.385988	-0.076771
C50	C	0.127760	0.385988	-0.076765
C51	C	0.111553	0.424311	-0.038446
C52	C	0.051103	0.462634	-0.000132
C53	C	-0.069799	0.539290	0.076499
C54	C	-0.025548	0.539288	0.076497
C55	C	0.034905	0.500962	0.038181
C56	C	0.079138	0.500957	0.038194
N57	N	0.139590	0.462636	-0.000124
C58	C	0.155798	0.424312	-0.038443
C59	C	-0.323487	0.500949	0.038160
C60	C	-0.367732	0.500947	0.038157
C61	C	-0.291070	0.424299	-0.038482
C62	C	-0.246824	0.424300	-0.038478
C63	C	-0.263035	0.462628	-0.000158
C64	C	0.248707	0.424315	-0.038429
C65	C	0.292949	0.424317	-0.038418
C66	C	0.216283	0.500966	0.038220
C67	C	0.172044	0.500962	0.038211
C68	C	0.188260	0.462634	-0.000117
O69	O	0.069476	0.533522	0.070775
O70	O	0.211280	0.391726	-0.071033
C71	C	-0.021174	0.424311	-0.038462
C72	C	-0.081624	0.462635	-0.000148
C73	C	-0.097831	0.500958	0.038171
C74	C	-0.125869	0.462633	-0.000151
C75	C	-0.109662	0.424310	-0.038470
C76	C	-0.049209	0.385989	-0.076788
C77	C	-0.004967	0.385988	-0.076782
C78	C	-0.158283	0.539279	0.076489
C79	C	-0.202522	0.539276	0.076480
C80	C	-0.186315	0.500953	0.038161
C81	C	0.462627	0.323868	-0.000115
C82	C	0.462633	0.276773	-0.000110
C83	C	0.462602	-0.059500	0.038193
C84	C	0.462619	0.117482	0.038201
O85	O	0.462601	0.140375	0.070799
N86	N	0.462616	0.139615	-0.000113
C87	C	0.462605	0.117503	-0.038431
O88	O	0.462597	0.140393	-0.071017
C89	C	0.462584	-0.059476	-0.038436
C90	C	0.462593	-0.081610	-0.000122
C91	C	0.462609	-0.081634	0.076505
C92	C	0.462608	-0.125878	0.076501
C93	C	0.462599	-0.147989	0.038185
C94	C	0.462592	-0.125855	-0.000126
C95	C	0.462569	-0.081586	-0.076751
C96	C	0.462562	-0.125832	-0.076749
C97	C	0.462571	-0.147967	-0.038434
C98	C	0.462582	-0.192209	-0.038446
N99	N	0.462584	-0.214343	-0.000131
C100	C	0.462593	-0.192233	0.038185
C101	C	0.462618	0.210419	-0.038426
C102	C	0.462624	0.254663	-0.038425
C103	C	0.462636	0.254639	0.038208
C104	C	0.462634	0.210392	0.038204
C105	C	0.462620	0.188285	-0.000111
C106	C	0.462591	-0.285149	0.038173
C107	C	0.462593	-0.329399	0.038164
C108	C	0.462578	-0.329370	-0.038467
C109	C	0.462579	-0.285126	-0.038460
C110	C	0.462584	-0.263016	-0.000136
O111	O	0.462592	-0.215126	-0.071023
O112	O	0.462588	-0.215124	0.070772
C113	C	0.462603	-0.015255	0.038197
C114	C	0.462595	0.006879	-0.000114
C115	C	0.462586	-0.015232	-0.038430
C116	C	0.462601	0.051123	-0.000113
C117	C	0.462610	0.073233	0.038202
C118	C	0.462613	0.051099	0.076517
C119	C	0.462612	0.006855	0.076513
C120	C	0.462583	0.006902	-0.076744
C121	C	0.462585	0.051146	-0.076738
C122	C	0.462594	0.073256	-0.038422
C123	C	0.601378	0.462626	-0.000154
C124	C	0.648475	0.462624	-0.000162
C125	C	0.462591	0.462630	-0.138876
C126	C	0.462585	0.462629	-0.185965
C127	C	0.462590	0.601396	-0.000146
C128	C	0.462584	0.648491	-0.000151
C129	C	0.516809	0.435538	-0.505100
C130	C	0.516820	0.435538	-0.682095
O131	O	0.562911	0.412510	-0.728028
N132	N	0.462625	0.462636	-0.677126
C133	C	0.408424	0.489739	-0.627903
O134	O	0.362328	0.512792	-0.627738
C135	C	0.408414	0.489741	-0.450909
C136	C	0.462612	0.462637	-0.455882
C137	C	0.571003	0.408436	-0.510070
C138	C	0.571000	0.408434	-0.465824
C139	C	0.516803	0.435533	-0.416607
C140	C	0.462609	0.462635	-0.411636
C141	C	0.354213	0.516846	-0.401688
C142	C	0.354216	0.516845	-0.357439
C143	C	0.408414	0.489741	-0.362412
C144	C	0.408409	0.489732	-0.318172
N145	N	0.462604	0.462634	-0.323141
C146	C	0.516801	0.435534	-0.372358
C147	C	0.408433	0.489735	-0.720830
C148	C	0.408435	0.489734	-0.765078
C149	C	0.516831	0.435534	-0.819267
C150	C	0.516828	0.435532	-0.775017
C151	C	0.462627	0.462637	-0.725799
C152	C	0.516790	0.435532	-0.279436
C153	C	0.516782	0.435530	-0.235183
C154	C	0.408386	0.489732	-0.180998
C155	C	0.408394	0.489731	-0.225247
C156	C	0.462601	0.462630	-0.274467
O157	O	0.362342	0.512752	-0.272224
O158	O	0.562890	0.412494	-0.372513
C159	C	0.516812	0.435540	-0.549346
C160	C	0.462619	0.462641	-0.544375
C161	C	0.408422	0.489740	-0.495158
C162	C	0.462621	0.462640	-0.588624
C163	C	0.516818	0.435541	-0.637841
C164	C	0.571013	0.408443	-0.642810
C165	C	0.571009	0.408441	-0.598563
C166	C	0.354227	0.516838	-0.490189
C167	C	0.354234	0.516838	-0.534438
C168	C	0.408431	0.489739	-0.583655
C169	C	0.462626	0.462634	0.138615
C170	C	0.462632	0.462635	0.185704
C171	C	0.323821	0.601401	-0.000122
C172	C	0.276718	0.648499	-0.000119
C173	C	0.323857	0.462640	0.138639
C174	C	0.276766	0.462642	0.185736
C175	C	0.323838	0.601403	0.138624
C176	C	0.276741	0.648501	0.185716
C177	C	0.601379	0.323860	-0.138885
C178	C	0.648476	0.276763	-0.185977
C179	C	0.601396	0.323862	-0.000139
C180	C	0.648500	0.276765	-0.000142
C181	C	0.601360	0.462624	-0.138900
C182	C	0.648452	0.462621	-0.185997
C183	C	0.254597	0.643519	-0.027212
C184	C	0.210345	0.687768	-0.027220
C185	C	0.188210	0.736995	-0.000131
C186	C	0.210335	0.741974	0.026963
C187	C	0.254590	0.697726	0.026967
C188	C	0.254651	0.489740	0.234948
C189	C	0.210410	0.489741	0.279205
C190	C	0.188282	0.462646	0.274249
C191	C	0.210401	0.435545	0.225032
C192	C	0.254644	0.435541	0.180776
C193	C	0.254617	0.697719	0.180735
C194	C	0.210370	0.741977	0.224978
C195	C	0.188245	0.737015	0.274202
C196	C	0.210374	0.687792	0.279182
C197	C	0.254623	0.643535	0.234939
C198	C	0.670606	0.227544	-0.180996
C199	C	0.714866	0.183287	-0.225239
C200	C	0.736993	0.188248	-0.274463
C201	C	0.714862	0.237472	-0.279443
C202	C	0.670605	0.281728	-0.235200
C203	C	0.670624	0.281745	0.026947
C204	C	0.714889	0.237496	0.026942
C205	C	0.737025	0.188269	-0.000148
C206	C	0.714899	0.183290	-0.027240
C207	C	0.670638	0.227538	-0.027238
C208	C	0.670566	0.489722	-0.181025
C209	C	0.714807	0.489729	-0.225273
C210	C	0.736936	0.462633	-0.274494
C211	C	0.714817	0.435533	-0.279465
C212	C	0.670574	0.435528	-0.235217
H213	H	0.096724	0.354780	-0.107978
Cl214	Cl	0.182574	0.401486	0.218810
Cl215	Cl	0.792630	0.132606	-0.330079
H216	H	0.652587	0.321803	-0.239262
Cl217	Cl	0.132616	0.792658	0.329818
Cl218	Cl	0.642825	0.221269	-0.061292
Cl219	Cl	0.071027	0.337803	-0.124955
Cl220	Cl	0.742649	0.401466	-0.341347
Cl221	Cl	0.742683	0.243701	-0.341329
H222	H	0.192337	0.683704	-0.049283
H223	H	0.152175	0.773020	-0.000138
Cl224	Cl	0.282427	0.581663	0.241210
Cl225	Cl	0.742678	0.121412	-0.218967
H226	H	0.192354	0.683760	0.319267
Cl227	Cl	0.642798	0.221293	-0.119119
H228	H	0.652604	0.321824	0.049010
H229	H	0.732897	0.241560	0.049006
Cl230	Cl	0.182499	0.803864	0.061018
Cl231	Cl	0.792667	0.132647	-0.000144
Cl232	Cl	0.642784	0.401450	-0.241478
Cl233	Cl	0.642755	0.523790	-0.119153
H234	H	0.732812	0.511797	-0.221215
Cl235	Cl	0.182557	0.803851	0.218706
Cl236	Cl	0.182610	0.523816	0.341071
H237	H	0.272594	0.701787	0.049033
Cl238	Cl	0.132660	0.462656	0.329891
Cl239	Cl	0.792559	0.462642	-0.330115
Cl240	Cl	0.462613	-0.153697	0.124672
H241	H	0.560930	0.413463	-0.319508
H242	H	0.732929	0.143203	-0.049296
H243	H	0.176980	0.354782	-0.107971
H244	H	0.342174	0.393103	-0.069620
Cl245	Cl	0.462543	-0.153620	-0.124920
H246	H	0.261919	0.393105	-0.069640
Cl247	Cl	-0.028843	0.337810	-0.124959
H248	H	0.272663	0.511804	0.238993
H249	H	-0.197603	0.393088	-0.069676
Cl250	Cl	0.584922	0.401450	-0.241440
Cl251	Cl	-0.270703	0.376123	-0.086657
H252	H	-0.416953	0.532152	0.069363
H253	H	0.462583	0.069162	-0.107942
Cl254	Cl	-0.343878	0.549136	0.086341
H255	H	0.272644	0.413477	0.140707
Cl256	Cl	0.282425	0.703971	0.118858
Cl257	Cl	-0.145789	0.587475	0.124672
Cl258	Cl	-0.045933	0.587477	0.124673
H259	H	0.122820	0.532166	0.069417
Cl260	Cl	0.282417	0.581638	-0.061274
H261	H	0.203096	0.532166	0.069420
H262	H	-0.251746	0.570486	0.107687
H263	H	-0.171489	0.570488	0.107693
H264	H	0.462575	-0.011097	-0.107945
Cl265	Cl	0.462605	-0.357223	0.086334
Cl266	Cl	0.462621	-0.053845	0.124679
H267	H	0.462594	-0.267152	0.069381
H268	H	0.462645	0.272648	0.069405
Cl269	Cl	0.462643	0.182572	0.086374
H270	H	0.462627	0.272677	-0.069629
H271	H	0.462607	0.192422	-0.069629
H272	H	0.462581	-0.267108	-0.069663
Cl273	Cl	0.462556	-0.053767	-0.124919
H274	H	0.462618	-0.011164	0.107712
Cl275	Cl	0.462626	0.078902	0.124683
Cl276	Cl	0.462567	-0.357173	-0.086633
H277	H	0.615134	0.386365	-0.469880
H278	H	0.615139	0.386369	-0.550143
H279	H	0.560961	0.413461	-0.779072
Cl280	Cl	0.584964	0.401468	-0.881148
Cl281	Cl	0.340297	0.523800	-0.758819
H282	H	0.364293	0.511808	-0.680756
H283	H	0.310079	0.538918	-0.397628
H284	H	0.310078	0.538918	-0.317364
Cl285	Cl	0.340258	0.523800	-0.218995
H286	H	0.615143	0.386370	-0.602619
Cl287	Cl	0.639145	0.374374	-0.704691
Cl288	Cl	0.340257	0.523797	-0.119118
H289	H	0.310092	0.538907	-0.450117
Cl290	Cl	0.286092	0.550912	-0.528176
