data_functionalizedCrystal
_audit_creation_method	'MofGen! by Chris Wilmer'
_symmetry_space_group_name_H-M	'P1'
_symmetry_Int_Tables_number	1
_symmetry_cell_setting	triclinic
loop_
_symmetry_equiv_pos_as_xyz
  x,y,z
_cell_length_a	6.817900
_cell_length_b	9.582860
_cell_length_c	12.200737
_cell_angle_alpha	91.578780
_cell_angle_beta	107.141108
_cell_angle_gamma	111.206767
loop_
_atom_site_label
_atom_site_type_symbol
_atom_site_fract_x
_atom_site_fract_y
_atom_site_fract_z
V1	V	-4.108275	-0.207405	-0.357451
V2	V	-3.608275	0.292595	0.142549
O3	O	-4.053162	0.009607	-0.350863
O4	O	-3.553162	0.509607	0.149137
O5	O	-4.098738	-0.410903	-0.354798
O6	O	-3.598738	0.089097	0.145202
O7	O	-4.077402	-0.204372	-0.513442
O8	O	-3.577402	0.295628	-0.013442
O9	O	-4.074646	-0.198353	-0.191120
O10	O	-3.574646	0.301647	0.308880
V11	V	-4.584596	-0.181429	-0.337581
V12	V	-4.084596	0.318571	0.162419
O13	O	-4.385331	-0.264385	-0.401035
O14	O	-3.885331	0.235615	0.098965
O15	O	-4.757737	-0.124449	-0.293997
O16	O	-4.257737	0.375551	0.206003
O17	O	-4.370926	0.022069	-0.340234
O18	O	-3.870926	0.522069	0.159766
O19	O	-4.757105	-0.398441	-0.344170
O20	O	-4.257105	0.101559	0.155830
O21	O	-4.735622	-0.190480	-0.503912
O22	O	-4.235622	0.309520	-0.003912
O23	O	-4.392262	-0.184462	-0.181590
O24	O	-3.892262	0.315538	0.318410
C25	C	-3.952626	-0.460507	-0.349105
C26	C	-3.452626	0.039493	0.150895
C27	C	-4.026232	-0.626870	-0.347976
C28	C	-3.526232	-0.126870	0.152024
C29	C	-3.925408	-0.197054	-0.551470
C30	C	-3.425408	0.302946	-0.051470
C31	C	-3.981707	-0.195921	-0.678993
C32	C	-3.481707	0.304079	-0.178993
C33	C	-4.027426	-0.194999	-0.782555
C34	C	-3.527426	0.305001	-0.282555
C35	C	-4.084795	-0.193837	-0.912478
C36	C	-3.584795	0.306163	-0.412478
C37	C	-4.180381	0.071665	-0.345924
C38	C	-3.680381	0.571665	0.154076
C39	C	-4.086015	0.238027	-0.347060
C40	C	-3.586015	0.738027	0.152940
C41	C	-4.207598	-0.191785	-0.143556
C42	C	-3.707598	0.308215	0.356444
C43	C	-4.130536	-0.192910	-0.016032
C44	C	-3.630536	0.307090	0.483968
