data_functionalizedCrystal
_audit_creation_method	'MofGen! by Chris Wilmer'
_symmetry_space_group_name_H-M	'P1'
_symmetry_Int_Tables_number	1
_symmetry_cell_setting	triclinic
loop_
_symmetry_equiv_pos_as_xyz
  x,y,z
_cell_length_a	21.295419
_cell_length_b	21.295417
_cell_length_c	14.908662
_cell_angle_alpha	93.264691
_cell_angle_beta	86.682242
_cell_angle_gamma	90.045308
loop_
_atom_site_label
_atom_site_type_symbol
_atom_site_fract_x
_atom_site_fract_y
_atom_site_fract_z
Zn1	Zn	0.982853	-0.270886	-0.510063
Zn2	Zn	0.976692	-0.370088	-0.359192
Zn3	Zn	0.871514	-0.264865	-0.359220
Zn4	Zn	0.877543	-0.376146	-0.510002
O5	O	0.927151	-0.320496	-0.434619
O6	O	1.070126	-0.284030	-0.490064
O7	O	0.957639	-0.351075	-0.232953
O8	O	0.886339	-0.177576	-0.379267
O9	O	1.065600	-0.356913	-0.379219
O10	O	0.968139	-0.182000	-0.490091
O11	O	0.880365	-0.273768	-0.232974
O12	O	0.784224	-0.279642	-0.379208
O13	O	0.896614	-0.367239	-0.636253
O14	O	0.788653	-0.361400	-0.489986
O15	O	0.973985	-0.289905	-0.636298
O16	O	0.963485	-0.458980	-0.379160
O17	O	0.890640	-0.463431	-0.489959
C18	C	0.763598	-0.320526	-0.434594
C19	C	0.693630	-0.320554	-0.434605
C20	C	0.663146	-0.282673	-0.492410
C21	C	0.597404	-0.282657	-0.492414
C22	C	0.562148	-0.320532	-0.434621
C23	C	0.592640	-0.358415	-0.376804
C24	C	0.658381	-0.358426	-0.376796
N25	N	0.458590	-0.375327	-0.427570
N26	N	0.396139	-0.375315	-0.427584
C27	C	0.364075	-0.320500	-0.434641
N28	N	0.396821	-0.265698	-0.441702
N29	N	0.459278	-0.265711	-0.441694
C30	C	0.490863	-0.320524	-0.434623
C31	C	0.262305	-0.282598	-0.492454
C32	C	0.196562	-0.282580	-0.492451
C33	C	0.191799	-0.358345	-0.376846
C34	C	0.257541	-0.358357	-0.376844
C35	C	0.292791	-0.320485	-0.434653
C36	C	0.927066	-0.484046	-0.434569
C37	C	0.927089	-0.554015	-0.434578
C38	C	0.965057	-0.584545	-0.376944
C39	C	0.965087	-0.650288	-0.376964
C40	C	0.927138	-0.685498	-0.434609
C41	C	0.889167	-0.654960	-0.492255
C42	C	0.889143	-0.589218	-0.492239
N43	N	0.872347	-0.789055	-0.441478
N44	N	0.872372	-0.851506	-0.441488
C45	C	0.927210	-0.883575	-0.434661
N46	N	0.982024	-0.850832	-0.427807
N47	N	0.981998	-0.788374	-0.427793
C48	C	0.927160	-0.756785	-0.434633
C49	C	0.965215	-0.985392	-0.377046
C50	C	0.965247	-1.051137	-0.377073
C51	C	0.889320	-1.055807	-0.492358
C52	C	0.889295	-0.990064	-0.492336
C53	C	0.927241	-0.954860	-0.434675
C54	C	1.091342	-0.320468	-0.434645
C55	C	1.161311	-0.320455	-0.434656
C56	C	0.936659	-0.329919	-0.669924
C57	C	0.940711	-0.333934	-0.770196
C58	C	0.927253	-0.156309	-0.434689
C59	C	0.927297	-0.086342	-0.434719
C60	C	0.986646	-0.379839	-0.911519
C61	C	0.982844	-0.376069	-0.817303
C62	C	0.902376	-0.295568	-0.817311
C63	C	0.906178	-0.299337	-0.911526
C64	C	0.948316	-0.341473	-0.958627
C65	C	0.952121	-0.345239	-1.052844
C66	C	0.871650	-0.264741	-1.052850
C67	C	0.867848	-0.260972	-0.958634
C68	C	0.917716	-0.311065	-0.200230
C69	C	0.913786	-0.306872	-0.099958
H70	H	0.171743	-0.251729	-0.539522
O71	O	1.027494	-0.420800	-0.957375
C72	C	1.040206	-0.510065	-1.063678
C73	C	0.993877	-0.463709	-1.011820
H74	H	1.013043	-0.544776	-1.107695
H75	H	1.074909	-0.482958	-1.107867
H76	H	1.066965	-0.536807	-1.013806
H77	H	0.967074	-0.436955	-1.061627
H78	H	0.959214	-0.490851	-0.967618
O79	O	1.020143	-0.413363	-0.771682
C80	C	1.100328	-0.493638	-0.781620
C81	C	1.058133	-0.451426	-0.833398
H82	H	1.131044	-0.524431	-0.831496
H83	H	1.131525	-0.463000	-0.737554
H84	H	1.069613	-0.524764	-0.737468
H85	H	1.088799	-0.420293	-0.877599
H86	H	1.026931	-0.482100	-0.877408
H87	H	0.572579	-0.251806	-0.539485
O88	O	0.287182	-0.395068	-0.320604
C89	C	0.356493	-0.398546	-0.198815
C90	C	0.322950	-0.356896	-0.262440
H91	H	0.385429	-0.367703	-0.151786
H92	H	0.320031	-0.425602	-0.157442
H93	H	0.388887	-0.433178	-0.240166
H94	H	0.290558	-0.322229	-0.221160
H95	H	0.359446	-0.329884	-0.303816
H96	H	0.868064	-0.261268	-0.778946
O97	O	0.296489	-0.245844	-0.548725
C98	C	0.322887	-0.221635	-0.702263
C99	C	0.284130	-0.263290	-0.638637
H100	H	0.312920	-0.235733	-0.774970
H101	H	0.309369	-0.170219	-0.686632
H102	H	0.375105	-0.228142	-0.692285
H103	H	0.231902	-0.256837	-0.648579
H104	H	0.297701	-0.314690	-0.654283
O105	O	0.558373	-0.395282	-0.320795
C106	C	0.483539	-0.479727	-0.308443
C107	C	0.522322	-0.438030	-0.371982
H108	H	0.454373	-0.514290	-0.349801
H109	H	0.516595	-0.506852	-0.267140
H110	H	0.450905	-0.448870	-0.261337
H111	H	0.554960	-0.468840	-0.419143
H112	H	0.489230	-0.410901	-0.413221
O113	O	0.852285	-0.689066	-0.548335
C114	C	0.776952	-0.686760	-0.662645
C115	C	0.818699	-0.648061	-0.599188
H116	H	0.749776	-0.653624	-0.703763
H117	H	0.807717	-0.719367	-0.709920
H118	H	0.742421	-0.715946	-0.621177
H119	H	0.853235	-0.618839	-0.640584
H120	H	0.787894	-0.615494	-0.551911
H121	H	0.833539	-0.226667	-0.920272
O122	O	0.687897	-0.395287	-0.320616
C123	C	0.676234	-0.470404	-0.205915
C124	C	0.642726	-0.428699	-0.269505
H125	H	0.639728	-0.497418	-0.164562
H126	H	0.708635	-0.505065	-0.247202
H127	H	0.705153	-0.439563	-0.158858
H128	H	0.613774	-0.459489	-0.316574
H129	H	0.610363	-0.394033	-0.228162
H130	H	0.858374	-0.965204	-0.539263
O131	O	0.157466	-0.395122	-0.320791
C132	C	0.054076	-0.428656	-0.269531
C133	C	0.092886	-0.386987	-0.333076
H134	H	0.001855	-0.422083	-0.279428
H135	H	0.067543	-0.480077	-0.285241
H136	H	0.064103	-0.414622	-0.196825
H137	H	0.082879	-0.400965	-0.405804
H138	H	0.079413	-0.335576	-0.317288
H139	H	0.995957	-0.555884	-0.329996
O140	O	0.697452	-0.245845	-0.548432
C141	C	0.772228	-0.161351	-0.560780
C142	C	0.733421	-0.203025	-0.497239
H143	H	0.801309	-0.126711	-0.519416
H144	H	0.804931	-0.192158	-0.607855
H145	H	0.739134	-0.134301	-0.602118
H146	H	0.766468	-0.230081	-0.455843
H147	H	0.700711	-0.172183	-0.450223
H148	H	0.996008	-0.675151	-0.330032
O149	O	1.002134	-0.951287	-0.321012
C150	C	1.077412	-0.953590	-0.206625
C151	C	1.035644	-0.992288	-0.270054
H152	H	1.104505	-0.986722	-0.165395
H153	H	1.112007	-0.924431	-0.248031
H154	H	1.046606	-0.920958	-0.159446
H155	H	1.066399	-1.024954	-0.317246
H156	H	1.001045	-1.021405	-0.228592
O157	O	0.852349	-0.559533	-0.548320
C158	C	0.848702	-0.490120	-0.670047
C159	C	0.890445	-0.523715	-0.606608
H160	H	0.879484	-0.461142	-0.717176
H161	H	0.821597	-0.526550	-0.711322
H162	H	0.814109	-0.457762	-0.628556
H163	H	0.925073	-0.556071	-0.648029
H164	H	0.917506	-0.487251	-0.565330
H165	H	0.996169	-1.075993	-0.330142
H166	H	0.858424	-1.084475	-0.539297
H167	H	0.986433	-0.379547	-1.091191
O168	O	0.834431	-0.227541	-1.098750
C169	C	0.804643	-0.197652	-1.243896
C170	C	0.846819	-0.239824	-1.192027
H171	H	0.814652	-0.207558	-1.319319
H172	H	0.753120	-0.207986	-1.225419
H173	H	0.814965	-0.146154	-1.225341
H174	H	0.836553	-0.291336	-1.210554
H175	H	0.898328	-0.229437	-1.210509
