data_functionalizedCrystal
_audit_creation_method	'MofGen! by Chris Wilmer'
_symmetry_space_group_name_H-M	'P1'
_symmetry_Int_Tables_number	1
_symmetry_cell_setting	triclinic
loop_
_symmetry_equiv_pos_as_xyz
  x,y,z
_cell_length_a	13.262390
_cell_length_b	13.339070
_cell_length_c	12.376457
_cell_angle_alpha	104.398083
_cell_angle_beta	116.831551
_cell_angle_gamma	80.570633
loop_
_atom_site_label
_atom_site_type_symbol
_atom_site_fract_x
_atom_site_fract_y
_atom_site_fract_z
O1	O	1.518971	-0.021073	0.561026
O2	O	1.202702	-0.055900	0.463788
O3	O	1.324538	0.106627	0.501244
O4	O	1.397135	-0.183601	0.523570
O5	O	1.294078	0.066048	0.303867
O6	O	1.172242	-0.096479	0.266411
O7	O	1.488511	-0.061652	0.363650
Zn8	Zn	1.325540	-0.085509	0.283693
Zn9	Zn	1.365673	-0.032044	0.543745
O10	O	1.366674	-0.224180	0.326194
C11	C	1.146166	-0.077970	0.352400
C12	C	1.023084	-0.083261	0.314557
C13	C	0.742558	-0.009681	0.638263
C14	C	0.858199	-0.004704	0.673819
C15	C	0.899426	-0.024343	0.584007
C16	C	0.825000	-0.048959	0.458632
C17	C	0.709346	-0.053929	0.423072
C18	C	0.866214	-0.068591	0.368816
C19	C	0.791788	-0.093207	0.243441
C20	C	0.676146	-0.098176	0.207887
C21	C	0.634919	-0.078537	0.297699
C22	C	0.981868	-0.063622	0.404376
C23	C	0.948657	-0.107870	0.189185
C24	C	0.833015	-0.112846	0.153628
C25	C	1.297046	0.123301	0.398787
C26	C	1.260494	0.233440	0.387553
C27	C	1.545047	-0.039582	0.475040
C28	C	1.668131	-0.034289	0.512890
C29	C	1.394167	-0.240853	0.428653
C30	C	1.430720	-0.350990	0.439895
N31	N	1.298158	-0.121996	0.106217
C32	C	1.544705	0.615059	0.474935
C33	C	1.579049	0.511578	0.485484
C34	C	1.499414	0.442038	0.461002
C35	C	1.385427	0.475990	0.425970
C36	C	1.351078	0.579480	0.415411
C37	C	1.305787	0.406459	0.401478
C38	C	1.191801	0.440411	0.366446
C39	C	1.157457	0.543891	0.355889
C40	C	1.237093	0.613430	0.380370
C41	C	1.340136	0.302969	0.412037
C42	C	1.146509	0.267390	0.352513
C43	C	1.112165	0.370872	0.341964
C44	C	1.456616	0.089169	-0.200054
C45	C	1.475774	0.114706	-0.075825
C46	C	1.431372	0.055533	-0.030308
C47	C	1.367808	-0.029182	-0.109034
C48	C	1.348655	-0.054726	-0.233273
C49	C	1.323411	-0.088362	-0.063527
C50	C	1.259847	-0.173077	-0.142253
C51	C	1.240697	-0.198617	-0.266480
C52	C	1.285100	-0.139444	-0.311996
C53	C	1.342564	-0.062818	0.060712
C54	C	1.234603	-0.206713	0.027494
C55	C	1.215445	-0.232251	-0.096736
N56	N	1.393061	0.004451	0.721223
H57	H	0.772401	-0.132889	0.051546
C58	C	0.594280	-0.125259	0.069971
N59	N	0.532622	-0.145665	-0.033908
C60	C	0.994002	-0.129481	0.090384
N61	N	1.028163	-0.145757	0.015974
C62	C	0.697197	0.011927	0.737041
N63	N	0.663031	0.028204	0.811447
H64	H	1.432944	0.275337	0.440560
C65	C	1.063725	-0.036549	0.542286
N66	N	1.125380	-0.016159	0.646167
C67	C	0.940057	0.022383	0.811727
N68	N	1.001714	0.042790	0.915606
C69	C	1.632289	0.691555	0.501852
N70	N	1.698263	0.749174	0.522126
C71	C	1.145523	-0.325434	-0.183350
N72	N	1.092857	-0.395619	-0.248589
H73	H	1.671856	0.483942	0.514005
H74	H	1.064641	0.571529	0.327354
H75	H	1.198449	-0.254899	0.064552
H76	H	1.527384	0.357780	0.469593
C77	C	0.986779	0.408230	0.303412
N78	N	0.892338	0.436368	0.274370
C79	C	1.264001	-0.167513	-0.448665
N80	N	1.248101	-0.188646	-0.551607
H81	H	0.993588	-0.020291	0.612965
H82	H	1.081662	0.210769	0.332572
C83	C	1.505454	0.154248	-0.250131
N84	N	1.542241	0.203269	-0.287850
H85	H	1.209136	0.697696	0.371788
H86	H	1.188951	-0.267604	-0.330576
H87	H	1.394317	0.006157	0.124801
H88	H	1.446973	0.076330	0.070846
H89	H	0.540756	-0.082591	0.268756
C90	C	1.545685	0.207894	0.010762
N91	N	1.598341	0.278091	0.075980
