data_functionalizedCrystal
_audit_creation_method	'MofGen! by Chris Wilmer'
_symmetry_space_group_name_H-M	'P1'
_symmetry_Int_Tables_number	1
_symmetry_cell_setting	triclinic
loop_
_symmetry_equiv_pos_as_xyz
  x,y,z
_cell_length_a	16.109295
_cell_length_b	13.596369
_cell_length_c	16.109304
_cell_angle_alpha	89.997583
_cell_angle_beta	96.539088
_cell_angle_gamma	89.997006
loop_
_atom_site_label
_atom_site_type_symbol
_atom_site_fract_x
_atom_site_fract_y
_atom_site_fract_z
O1	O	-1.103138	0.081718	0.106839
O2	O	-0.769805	0.415052	0.440173
O3	O	-0.436472	0.748385	0.773506
O4	O	-0.861076	0.081734	0.120143
O5	O	-0.527742	0.415067	0.453477
O6	O	-0.194409	0.748401	0.786810
O7	O	-0.988755	0.081726	-0.007540
O8	O	-0.655422	0.415060	0.325794
O9	O	-0.322089	0.748393	0.659127
O10	O	-0.975459	0.081726	0.234522
O11	O	-0.642125	0.415059	0.567856
O12	O	-0.308792	0.748393	0.901189
O13	O	-0.988740	-0.081857	-0.007533
O14	O	-0.655406	0.251477	0.325801
O15	O	-0.322073	0.584810	0.659134
O16	O	-0.861060	-0.081849	0.120151
O17	O	-0.527727	0.251485	0.453484
O18	O	-0.194393	0.584818	0.786817
O19	O	-1.103123	-0.081865	0.106846
O20	O	-0.769789	0.251469	0.440180
O21	O	-0.436456	0.584802	0.773513
Zn22	Zn	-0.982089	-0.107829	0.113500
Zn23	Zn	-0.648755	0.225504	0.446833
Zn24	Zn	-0.315422	0.558838	0.780166
Zn25	Zn	-0.982109	0.107698	0.113490
Zn26	Zn	-0.648776	0.441032	0.446824
Zn27	Zn	-0.315443	0.774365	0.780157
O28	O	-0.975443	-0.081857	0.234529
O29	O	-0.642109	0.251476	0.567863
O30	O	-0.308776	0.584810	0.901196
C31	C	-0.830093	-0.000055	0.119609
C32	C	-0.496760	0.333278	0.452942
C33	C	-0.163426	0.666611	0.786276
C34	C	-0.737797	-0.000049	0.117996
C35	C	-0.404464	0.333284	0.451329
C36	C	-0.071131	0.666618	0.784662
N37	N	-0.982081	-0.254921	0.113505
N38	N	-0.648747	0.078412	0.446839
N39	N	-0.315414	0.411746	0.780172
C40	C	-0.515525	-0.000059	0.190008
C41	C	-0.182192	0.333274	0.523341
C42	C	0.151142	0.666607	0.856674
C43	C	-0.428804	-0.000065	0.188485
C44	C	-0.095471	0.333268	0.521819
C45	C	0.237862	0.666601	0.855152
C46	C	-0.448677	-0.000061	0.036996
C47	C	-0.115344	0.333272	0.370330
C48	C	0.217989	0.666605	0.703663
C49	C	-0.535396	-0.000062	0.038520
C50	C	-0.202063	0.333271	0.371853
C51	C	0.131270	0.666604	0.705186
C52	C	-0.568818	-0.000056	0.115028
C53	C	-0.235484	0.333277	0.448361
C54	C	0.097849	0.666610	0.781694
C55	C	-0.395378	-0.000061	0.111982
C56	C	-0.062045	0.333272	0.445316
C57	C	0.271289	0.666605	0.778649
C58	C	-0.301352	-0.000068	0.110331
C59	C	0.031982	0.333266	0.443664
C60	C	0.365315	0.666599	0.776998
C61	C	-0.662850	-0.000052	0.116679
C62	C	-0.329517	0.333282	0.450013
C63	C	0.003817	0.666615	0.783346
C64	C	-0.982085	-0.343919	0.113507
C65	C	-0.648752	-0.010585	0.446841
C66	C	-0.315418	0.322748	0.780174
C67	C	-0.982093	-0.455570	0.113502
C68	C	-0.648760	-0.122237	0.446835
C69	C	-0.315426	0.211097	0.780168
C70	C	-0.982104	-0.544561	0.113492
C71	C	-0.648771	-0.211227	0.446825
C72	C	-0.315437	0.122106	0.780159
C73	C	-0.982113	-0.656219	0.113487
C74	C	-0.648780	-0.322886	0.446820
C75	C	-0.315447	0.010448	0.780154
C76	C	-0.134105	-0.000072	0.107386
C77	C	0.199229	0.333261	0.440719
C78	C	0.532562	0.666595	0.774053
C79	C	-0.226398	-0.000069	0.109014
C80	C	0.106935	0.333265	0.442348
C81	C	0.440268	0.666598	0.775681
C82	C	-0.988209	-0.000063	-0.038511
C83	C	-0.654875	0.333270	0.294822
C84	C	-0.321542	0.666604	0.628156
C85	C	-0.986592	-0.000056	-0.130806
C86	C	-0.653259	0.333277	0.202527
C87	C	-0.319926	0.666611	0.535861
N88	N	-0.982124	0.254790	0.113478
N89	N	-0.648791	0.588124	0.446811
N90	N	-0.315457	0.921457	0.780144
C91	C	-0.982867	0.089110	-0.343147
C92	C	-0.649534	0.422443	-0.009814
C93	C	-0.316201	0.755776	0.323519
C94	C	-0.981341	0.089109	-0.429867
C95	C	-0.648008	0.422442	-0.096534
C96	C	-0.314675	0.755775	0.236799
C97	C	-0.981328	-0.089238	-0.429857
C98	C	-0.647995	0.244095	-0.096523
C99	C	-0.314662	0.577428	0.236810
C100	C	-0.982848	-0.089237	-0.343137
C101	C	-0.649515	0.244097	-0.009804
C102	C	-0.316182	0.577430	0.323529
C103	C	-0.983622	-0.000060	-0.299785
C104	C	-0.650289	0.333274	0.033548
C105	C	-0.316956	0.666607	0.366881
C106	C	-0.980576	-0.000062	-0.473225
C107	C	-0.647243	0.333271	-0.139892
C108	C	-0.313909	0.666604	0.193442
C109	C	-0.978921	-0.000064	-0.567251
C110	C	-0.645588	0.333269	-0.233917
C111	C	-0.312255	0.666603	0.099416
C112	C	-0.985275	-0.000058	-0.205753
C113	C	-0.651942	0.333276	0.127580
C114	C	-0.318609	0.666609	0.460913
C115	C	-0.975990	-0.000066	0.265501
C116	C	-0.642656	0.333268	0.598834
C117	C	-0.309323	0.666601	0.932167
C118	C	-0.977606	-0.000066	0.357796
C119	C	-0.644272	0.333268	0.691129
C120	C	-0.310939	0.666601	1.024462
H121	H	-0.542734	-0.000062	0.252305
H122	H	-0.209400	0.333271	0.585639
H123	H	0.123933	0.666605	0.918972
H124	H	-0.421455	-0.000072	-0.025294
H125	H	-0.088121	0.333261	0.308039
H126	H	0.245212	0.666595	0.641373
H127	H	-0.980725	0.161719	-0.465168
H128	H	-0.647392	0.495053	-0.131835
H129	H	-0.314058	0.828386	0.201498
H130	H	-0.578790	-0.000063	-0.022542
H131	H	-0.245456	0.333271	0.310791
H132	H	0.087877	0.666604	0.644125
F133	F	-0.983688	0.184019	-0.297011
F134	F	-0.650354	0.517353	0.036322
F135	F	-0.317021	0.850686	0.369655
H136	H	-0.983458	-0.161853	-0.307831
H137	H	-0.650125	0.171480	0.025503
H138	H	-0.316792	0.504813	0.358836
H139	H	-0.385417	-0.000070	0.249542
H140	H	-0.052083	0.333264	0.582875
H141	H	0.281250	0.666597	0.916208
F142	F	-0.980505	-0.184141	-0.476002
F143	F	-0.647171	0.149192	-0.142669
F144	F	-0.313838	0.482525	0.190665
