data_functionalizedCrystal
_audit_creation_method	'MofGen! by Chris Wilmer'
_symmetry_space_group_name_H-M	'P1'
_symmetry_Int_Tables_number	1
_symmetry_cell_setting	triclinic
loop_
_symmetry_equiv_pos_as_xyz
  x,y,z
_cell_length_a	14.853567
_cell_length_b	19.288871
_cell_length_c	18.366186
_cell_angle_alpha	89.990878
_cell_angle_beta	89.998262
_cell_angle_gamma	96.613061
loop_
_atom_site_label
_atom_site_type_symbol
_atom_site_fract_x
_atom_site_fract_y
_atom_site_fract_z
O1	O	1.195847	-0.090687	0.060501
O2	O	1.529180	0.242646	0.393835
O3	O	1.862514	0.575979	0.727168
O4	O	0.933326	-0.101490	0.060514
O5	O	1.266660	0.231843	0.393847
O6	O	1.599993	0.565177	0.727181
O7	O	1.072169	0.005016	0.060500
O8	O	1.405503	0.338349	0.393834
O9	O	1.738836	0.671682	0.727167
O10	O	1.057004	-0.197193	0.060515
O11	O	1.390338	0.136140	0.393848
O12	O	1.723671	0.469473	0.727182
O13	O	1.072167	0.005026	-0.060599
O14	O	1.405500	0.338360	0.272734
O15	O	1.738834	0.671693	0.606068
O16	O	0.933324	-0.101479	-0.060585
O17	O	1.266658	0.231854	0.272748
O18	O	1.599991	0.565187	0.606081
O19	O	1.195845	-0.090677	-0.060598
O20	O	1.529178	0.242657	0.272735
O21	O	1.862511	0.575990	0.606069
Zn22	Zn	1.064584	-0.096076	-0.079819
Zn23	Zn	1.397917	0.237257	0.253515
Zn24	Zn	1.731251	0.570590	0.586848
Zn25	Zn	1.064587	-0.096090	0.079735
Zn26	Zn	1.397920	0.237243	0.413068
Zn27	Zn	1.731254	0.570576	0.746401
O28	O	1.057002	-0.197183	-0.060584
O29	O	1.390335	0.136151	0.272749
O30	O	1.723669	0.469484	0.606082
C31	C	0.899739	-0.100995	-0.000034
C32	C	1.233073	0.232338	0.333299
C33	C	1.566406	0.565671	0.666633
C34	C	0.799664	-0.099528	-0.000029
C35	C	1.132997	0.233805	0.333304
C36	C	1.466331	0.567138	0.666637
C37	C	1.071679	0.030899	-0.000049
C38	C	1.405012	0.364232	0.333284
C39	C	1.738346	0.697566	0.666617
C40	C	1.070211	0.108007	-0.000050
C41	C	1.403545	0.441341	0.333283
C42	C	1.736878	0.774674	0.666617
N43	N	1.064589	-0.096066	-0.188710
N44	N	1.397922	0.237267	0.144623
N45	N	1.731255	0.570600	0.477957
C46	C	0.387523	-0.030061	-0.000051
C47	C	0.720856	0.303272	0.333283
C48	C	1.054190	0.636605	0.666616
C49	C	0.365526	-0.156593	-0.000041
C50	C	0.698860	0.176741	0.333292
C51	C	1.032193	0.510074	0.666626
C52	C	0.459552	-0.157972	-0.000039
C53	C	0.792886	0.175362	0.333295
C54	C	1.126219	0.508695	0.666628
C55	C	0.517568	-0.095395	-0.000041
C56	C	0.850901	0.237939	0.333292
C57	C	1.184235	0.571272	0.666626
C58	C	0.481558	-0.031439	-0.000046
C59	C	0.814891	0.301895	0.333287
C60	C	1.148225	0.635228	0.666621
C61	C	0.495570	-0.221927	-0.000026
C62	C	0.828903	0.111407	0.333307
C63	C	1.162236	0.444740	0.666641
C64	C	0.589601	-0.223309	-0.000023
C65	C	0.922934	0.110025	0.333310
C66	C	1.256268	0.443358	0.666644
C67	C	0.647619	-0.160731	-0.000031
C68	C	0.980952	0.172603	0.333303
C69	C	1.314285	0.505936	0.666636
C70	C	0.611603	-0.096772	-0.000036
C71	C	0.944936	0.236561	0.333297
C72	C	1.278270	0.569895	0.666630
C73	C	0.669619	-0.034195	-0.000039
C74	C	1.002952	0.299138	0.333294
C75	C	1.336286	0.632472	0.666628
C76	C	0.633605	0.029764	-0.000050
C77	C	0.966939	0.363098	0.333283
C78	C	1.300272	0.696431	0.666617
C79	C	0.539576	0.031139	-0.000054
C80	C	0.872909	0.364472	0.333279
C81	C	1.206242	0.697806	0.666613
C82	C	0.741648	-0.162105	-0.000027
C83	C	1.074982	0.171228	0.333306
C84	C	1.408315	0.504561	0.666640
C85	C	0.763654	-0.035572	-0.000034
C86	C	1.096987	0.297761	0.333299
C87	C	1.430321	0.631094	0.666632
C88	C	1.229432	-0.091172	-0.000048
C89	C	1.562765	0.242162	0.333285
C90	C	1.896099	0.575495	0.666618
C91	C	1.329507	-0.092638	-0.000048
C92	C	1.662841	0.240695	0.333285
C93	C	1.996174	0.574028	0.666619
C94	C	1.059672	0.663619	-0.066049
C95	C	1.393005	0.996952	0.267284
C96	C	1.726338	1.330285	0.600617
C97	C	1.061041	0.591166	-0.066052
C98	C	1.394374	0.924500	0.267281
C99	C	1.727708	1.257833	0.600614
C100	C	1.061731	0.554927	-0.000042
C101	C	1.395064	0.888260	0.333292
C102	C	1.728398	1.221594	0.666625
C103	C	1.061029	0.591144	0.065977
C104	C	1.394362	0.924477	0.399311
C105	C	1.727695	1.257810	0.732644
C106	C	1.059650	0.663594	0.065979
C107	C	1.392984	0.996927	0.399312
C108	C	1.726317	1.330261	0.732645
C109	C	1.116718	0.445405	0.050528
C110	C	1.450051	0.778739	0.383861
C111	C	1.783385	1.112072	0.717195
C112	C	1.118102	0.372957	0.050524
C113	C	1.451435	0.706290	0.383857
C114	C	1.784768	1.039624	0.717191
C115	C	1.065978	0.331466	-0.000043
C116	C	1.399312	0.664799	0.333290
C117	C	1.732645	0.998133	0.666624
C118	C	1.012483	0.362433	-0.050618
C119	C	1.345816	0.695767	0.282715
C120	C	1.679149	1.029100	0.616049
C121	C	1.011104	0.434884	-0.050617
C122	C	1.344438	0.768217	0.282717
C123	C	1.677771	1.101550	0.616050
C124	C	1.063225	0.476367	-0.000036
C125	C	1.396559	0.809700	0.333298
C126	C	1.729892	1.143033	0.666631
C127	C	1.068159	0.216696	-0.066061
C128	C	1.401492	0.550029	0.267272
C129	C	1.734826	0.883363	0.600606
C130	C	1.069523	0.144242	-0.066062
C131	C	1.402856	0.477575	0.267272
C132	C	1.736189	0.810908	0.600605
C133	C	1.069520	0.144221	0.065970
C134	C	1.402853	0.477555	0.399304
C135	C	1.736186	0.810888	0.732637
C136	C	1.068147	0.216674	0.065969
C137	C	1.401480	0.550007	0.399302
C138	C	1.734813	0.883340	0.732635
C139	C	1.067471	0.252907	-0.000049
C140	C	1.400804	0.586240	0.333284
C141	C	1.734138	0.919574	0.666618
C142	C	1.057496	0.776935	-0.000036
C143	C	1.390829	1.110268	0.333298
C144	C	1.724162	1.443601	0.666631
C145	C	1.058974	0.699827	-0.000039
C146	C	1.392308	1.033161	0.333294
C147	C	1.725641	1.366494	0.666628
N148	N	1.064590	-0.096095	0.188626
N149	N	1.397923	0.237238	0.521959
N150	N	1.731256	0.570572	0.855293
C151	C	1.126189	-0.049011	0.773170
C152	C	1.459522	0.284322	1.106504
C153	C	1.792855	0.617656	1.439837
C154	C	1.126186	-0.049010	0.696943
C155	C	1.459520	0.284323	1.030276
C156	C	1.792853	0.617657	1.363609
C157	C	1.064592	-0.096076	0.658837
C158	C	1.397926	0.237257	0.992171
C159	C	1.731259	0.570590	1.325504
C160	C	1.002981	-0.143135	0.696966
C161	C	1.336314	0.190198	1.030300
C162	C	1.669648	0.523531	1.363633
C163	C	1.002979	-0.143130	0.773193
C164	C	1.336312	0.190203	1.106526
C165	C	1.669646	0.523536	1.439859
C166	C	1.052357	-0.159322	0.538087
C167	C	1.385691	0.174011	0.871421
C168	C	1.719024	0.507344	1.204754
C169	C	1.052365	-0.159328	0.461862
C170	C	1.385699	0.174005	0.795196
C171	C	1.719032	0.507338	1.128529
C172	C	1.064593	-0.096091	0.423730
C173	C	1.397926	0.237242	0.757063
C174	C	1.731260	0.570575	1.090396
C175	C	1.076832	-0.032846	0.461832
C176	C	1.410165	0.300487	0.795165
C177	C	1.743498	0.633821	1.128498
C178	C	1.076830	-0.032841	0.538058
C179	C	1.410163	0.300492	0.871391
C180	C	1.743497	0.633826	1.204725
C181	C	1.064587	-0.096087	0.576183
C182	C	1.397921	0.237247	0.909516
C183	C	1.731254	0.570580	1.242849
C184	C	1.126194	-0.049031	0.302955
C185	C	1.459527	0.284302	0.636289
C186	C	1.792861	0.617636	0.969622
C187	C	1.126185	-0.049029	0.226726
C188	C	1.459519	0.284304	0.560059
C189	C	1.792852	0.617638	0.893393
C190	C	1.002984	-0.143160	0.226751
C191	C	1.336317	0.190173	0.560084
C192	C	1.669651	0.523506	0.893418
C193	C	1.002989	-0.143156	0.302979
C194	C	1.336322	0.190177	0.636312
C195	C	1.669655	0.523510	0.969645
C196	C	1.064598	-0.096092	0.341076
C197	C	1.397931	0.237241	0.674410
C198	C	1.731265	0.570574	1.007743
H199	H	0.810885	0.015386	-0.000039
H200	H	1.144218	0.348720	0.333294
H201	H	1.477552	0.682053	0.666627
O202	O	0.628445	-0.292288	-0.000016
O203	O	0.961778	0.041045	0.333317
O204	O	1.295111	0.374378	0.666651
H205	H	0.670766	-0.295932	-0.049372
H206	H	1.004100	0.037402	0.283961
H207	H	1.337433	0.370735	0.617295
H208	H	1.176358	-0.010706	0.333975
H209	H	1.509691	0.322627	0.667309
H210	H	1.843024	0.655960	1.000642
O211	O	0.936574	-0.193935	0.185649
O212	O	1.269908	0.139398	0.518982
O213	O	1.603241	0.472732	0.852315
H214	H	0.947718	-0.248121	0.200299
H215	H	1.281052	0.085212	0.533632
H216	H	1.614385	0.418546	0.866965
O217	O	0.348685	0.038921	-0.000069
O218	O	0.682019	0.372254	0.333265
O219	O	1.015352	0.705587	0.666598
H220	H	0.372004	0.068994	0.049284
H221	H	0.705338	0.402327	0.382617
H222	H	1.038671	0.735661	0.715951
O223	O	0.302960	-0.224085	-0.000046
O224	O	0.636293	0.109248	0.333288
O225	O	0.969627	0.442582	0.666621
H226	H	0.231525	-0.212383	-0.000056
H227	H	0.564858	0.120951	0.333277
H228	H	0.898192	0.454284	0.666611
O229	O	1.039177	-0.227543	0.420776
O230	O	1.372511	0.105790	0.754109
O231	O	1.705844	0.439123	1.087443
H232	H	0.977846	-0.228964	0.386039
H233	H	1.311179	0.104369	0.719372
H234	H	1.644512	0.437703	1.052706
H235	H	0.510244	0.083212	-0.000080
H236	H	0.843578	0.416545	0.333253
H237	H	1.176911	0.749878	0.666586
O238	O	0.433001	-0.289418	-0.000033
O239	O	0.766335	0.043915	0.333301
O240	O	1.099668	0.377248	0.666634
H241	H	0.361567	-0.277714	-0.000051
H242	H	0.694900	0.055620	0.333283
H243	H	1.028234	0.388953	0.666616
H244	H	1.176345	-0.010707	0.195688
H245	H	1.509678	0.322626	0.529022
H246	H	1.843011	0.655960	0.862355
H247	H	0.680854	0.080714	-0.000047
H248	H	1.014187	0.414048	0.333286
H249	H	1.347521	0.747381	0.666619
H250	H	1.059081	0.693074	0.119734
H251	H	1.392415	1.026408	0.453067
H252	H	1.725748	1.359741	0.786400
H253	H	0.770967	-0.214180	-0.000019
H254	H	1.104300	0.119153	0.333314
H255	H	1.437633	0.452486	0.666648
H256	H	1.067601	0.246198	-0.119817
H257	H	1.400934	0.579532	0.213517
H258	H	1.734268	0.912865	0.546850
O259	O	1.039175	-0.227532	0.579215
O260	O	1.372508	0.105801	0.912548
O261	O	1.705841	0.439135	1.245881
H262	H	1.030682	-0.271510	0.539916
H263	H	1.364015	0.061824	0.873250
H264	H	1.697349	0.395157	1.206583
O265	O	1.067399	0.255739	0.137164
O266	O	1.400733	0.589072	0.470497
O267	O	1.734066	0.922405	0.803830
H268	H	1.005332	0.282608	0.140314
H269	H	1.338665	0.615941	0.473648
H270	H	1.671998	0.949275	0.806981
H271	H	1.059120	0.693115	-0.119806
H272	H	1.392454	1.026449	0.213527
H273	H	1.725787	1.359782	0.546861
H274	H	0.952829	-0.181456	0.665937
H275	H	1.286162	0.151877	0.999270
H276	H	1.619495	0.485210	1.332604
O277	O	1.061806	0.552100	-0.137251
O278	O	1.395139	0.885433	0.196082
O279	O	1.728473	1.218767	0.529416
H280	H	1.061112	0.589468	-0.183156
H281	H	1.394445	0.922802	0.150177
H282	H	1.727778	1.256135	0.483511
H283	H	0.967547	0.460094	-0.091797
H284	H	1.300880	0.793428	0.241536
H285	H	1.634214	1.126761	0.574870
H286	H	1.070088	0.114762	-0.119817
H287	H	1.403422	0.448095	0.213516
H288	H	1.736755	0.781428	0.546849
O289	O	0.956250	0.317695	-0.105160
O290	O	1.289584	0.651028	0.228173
O291	O	1.622917	0.984361	0.561506
H292	H	0.966183	0.262112	-0.096661
H293	H	1.299516	0.595445	0.236673
H294	H	1.632849	0.928778	0.570006
H295	H	1.070071	0.114715	0.119718
H296	H	1.403404	0.448048	0.453051
H297	H	1.736738	0.781382	0.786384
O298	O	1.089790	0.035376	0.579151
O299	O	1.423123	0.368709	0.912484
O300	O	1.756456	0.702043	1.245817
H301	H	1.087654	0.024754	0.638560
H302	H	1.420988	0.358087	0.971894
H303	H	1.754321	0.691421	1.305227
H304	H	0.952832	-0.181476	0.334018
H305	H	1.286165	0.151857	0.667351
H306	H	1.619498	0.485191	1.000685
O307	O	0.936544	-0.193890	0.814315
O308	O	1.269877	0.139443	1.147648
O309	O	1.603210	0.472777	1.480982
H310	H	0.893714	-0.226622	0.775015
H311	H	1.227047	0.106711	1.108348
H312	H	1.560381	0.440045	1.441682
H313	H	1.161665	0.347750	0.091702
H314	H	1.494999	0.681083	0.425035
H315	H	1.828332	1.014416	0.758369
O316	O	1.172944	0.490156	0.105068
O317	O	1.506277	0.823489	0.438402
O318	O	1.839610	1.156823	0.771735
H319	H	1.210385	0.456454	0.140226
H320	H	1.543718	0.789787	0.473559
H321	H	1.877052	1.123121	0.806893
H322	H	1.061587	0.561633	0.119724
H323	H	1.394921	0.894966	0.453057
H324	H	1.728254	1.228299	0.786390
H325	H	1.176353	-0.010687	0.804187
H326	H	1.509686	0.322646	1.137520
H327	H	1.843019	0.655979	1.470854
O328	O	1.192637	0.001737	0.655813
O329	O	1.525971	0.335070	0.989146
O330	O	1.859304	0.668404	1.322480
H331	H	1.235482	0.034459	0.695111
H332	H	1.568815	0.367793	1.028444
H333	H	1.902149	0.701126	1.361778
H334	H	1.086788	0.018648	0.430786
H335	H	1.420122	0.351981	0.764119
H336	H	1.753455	0.685314	1.097453
