data_functionalizedCrystal
_audit_creation_method	'MofGen! by Chris Wilmer'
_symmetry_space_group_name_H-M	'P1'
_symmetry_Int_Tables_number	1
_symmetry_cell_setting	triclinic
loop_
_symmetry_equiv_pos_as_xyz
  x,y,z
_cell_length_a	14.853567
_cell_length_b	27.732064
_cell_length_c	13.930277
_cell_angle_alpha	89.999521
_cell_angle_beta	89.995755
_cell_angle_gamma	83.142177
loop_
_atom_site_label
_atom_site_type_symbol
_atom_site_fract_x
_atom_site_fract_y
_atom_site_fract_z
O1	O	1.195349	0.063106	-0.079756
O2	O	1.695349	0.563106	0.420244
O3	O	0.932768	0.070624	-0.079771
O4	O	1.432768	0.570624	0.420229
O5	O	1.072206	-0.003493	-0.079767
O6	O	1.572206	0.496507	0.420233
O7	O	1.055911	0.137223	-0.079760
O8	O	1.555911	0.637223	0.420240
O9	O	1.072187	-0.003495	0.079895
O10	O	1.572187	0.496505	0.579895
O11	O	0.932749	0.070622	0.079891
O12	O	1.432749	0.570622	0.579891
O13	O	1.195330	0.063104	0.079906
O14	O	1.695330	0.563104	0.579906
Zn15	Zn	1.064036	0.066863	0.105248
Zn16	Zn	1.564036	0.566863	0.605248
Zn17	Zn	1.064061	0.066865	-0.105113
Zn18	Zn	1.564061	0.566865	0.394887
O19	O	1.055892	0.137221	0.079902
O20	O	1.555892	0.637221	0.579902
C21	C	0.899175	0.070282	0.000058
C22	C	1.399175	0.570282	0.500058
C23	C	0.799108	0.069261	0.000051
C24	C	1.299108	0.569261	0.500051
C25	C	0.387355	0.020920	0.000071
C26	C	0.887355	0.520920	0.500071
C27	C	0.364652	0.108972	0.000074
C28	C	0.864652	0.608972	0.500074
C29	C	0.458670	0.109932	0.000071
C30	C	0.958670	0.609932	0.500071
C31	C	0.517035	0.066385	0.000066
C32	C	1.017035	0.566385	0.500066
C33	C	0.481382	0.021878	0.000065
C34	C	0.981382	0.521878	0.500065
C35	C	0.494330	0.154438	0.000063
C36	C	0.994330	0.654438	0.500063
C37	C	0.588353	0.155399	0.000058
C38	C	1.088353	0.655399	0.500058
C39	C	0.646721	0.111852	0.000061
C40	C	1.146721	0.611852	0.500061
C41	C	0.611062	0.067343	0.000060
C42	C	1.111062	0.567343	0.500060
C43	C	0.669428	0.023796	0.000056
C44	C	1.169428	0.523796	0.500056
C45	C	0.633772	-0.020713	0.000062
C46	C	1.133772	0.479287	0.500062
C47	C	0.539750	-0.021670	0.000067
C48	C	1.039750	0.478330	0.500067
C49	C	0.740742	0.112808	0.000056
C50	C	1.240742	0.612808	0.500056
C51	C	0.763455	0.024755	0.000050
C52	C	1.263455	0.524755	0.500050
C53	C	1.071852	-0.021502	0.000061
C54	C	1.571852	0.478498	0.500061
C55	C	1.070815	-0.075162	0.000052
C56	C	1.570815	0.424838	0.500052
C57	C	0.981355	-0.452653	0.000043
C58	C	1.481355	0.047347	0.500043
C59	C	0.985172	-0.250975	0.000042
C60	C	1.485172	0.249025	0.500042
O61	O	0.915754	-0.220047	-0.000000
O62	O	1.415754	0.279953	0.500000
N63	N	1.067856	-0.231461	0.000047
N64	N	1.567856	0.268539	0.500047
C65	C	1.149592	-0.262369	0.000046
C66	C	1.649592	0.237631	0.500046
O67	O	1.220007	-0.241144	0.000040
O68	O	1.720007	0.258856	0.500040
C69	C	1.145774	-0.464047	0.000040
C70	C	1.645774	0.035953	0.500040
C71	C	1.063085	-0.483558	0.000045
C72	C	1.563085	0.016442	0.500045
C73	C	0.898673	-0.472165	0.000047
C74	C	1.398673	0.027835	0.500047
C75	C	0.897719	-0.522581	0.000053
C76	C	1.397719	-0.022581	0.500053
C77	C	0.979449	-0.553486	0.000054
C78	C	1.479449	-0.053486	0.500054
C79	C	1.062132	-0.533974	0.000050
C80	C	1.562132	-0.033974	0.500050
C81	C	1.227509	-0.494954	0.000032
C82	C	1.727509	0.005046	0.500032
C83	C	1.226548	-0.545376	0.000028
C84	C	1.726548	-0.045376	0.500028
C85	C	1.143858	-0.564888	0.000033
C86	C	1.643858	-0.064888	0.500033
C87	C	1.142908	-0.615296	0.000057
C88	C	1.642908	-0.115296	0.500057
N89	N	1.060224	-0.634810	0.000053
N90	N	1.560224	-0.134810	0.500053
C91	C	0.978495	-0.603905	0.000051
C92	C	1.478495	-0.103905	0.500051
C93	C	1.151590	-0.156486	0.000051
C94	C	1.651590	0.343514	0.500051
C95	C	1.152544	-0.106067	0.000054
C96	C	1.652544	0.393933	0.500054
C97	C	0.988124	-0.094675	0.000049
C98	C	1.488124	0.405325	0.500049
C99	C	0.987170	-0.145095	0.000052
C100	C	1.487170	0.354905	0.500052
C101	C	1.068906	-0.176000	0.000046
C102	C	1.568906	0.324000	0.500046
C103	C	0.976499	-0.709784	0.000063
C104	C	1.476499	-0.209784	0.500063
C105	C	0.975553	-0.760205	0.000073
C106	C	1.475553	-0.260205	0.500073
C107	C	1.139973	-0.771592	0.000073
C108	C	1.639973	-0.271592	0.500073
C109	C	1.140919	-0.721175	0.000069
C110	C	1.640919	-0.221175	0.500069
C111	C	1.059175	-0.690272	0.000061
C112	C	1.559175	-0.190272	0.500061
O113	O	1.212289	-0.646252	0.000089
O114	O	1.712289	-0.146252	0.500089
O115	O	0.908089	-0.625140	0.000036
O116	O	1.408089	-0.125140	0.500036
C117	C	0.982309	-0.402236	0.000038
C118	C	1.482309	0.097764	0.500038
C119	C	1.064991	-0.382725	0.000034
C120	C	1.564991	0.117275	0.500034
C121	C	1.146721	-0.413630	0.000035
C122	C	1.646721	0.086370	0.500035
C123	C	1.065946	-0.332306	0.000037
C124	C	1.565946	0.167694	0.500037
C125	C	0.984216	-0.301401	0.000035
C126	C	1.484216	0.198599	0.500035
C127	C	0.901532	-0.320915	0.000031
C128	C	1.401532	0.179085	0.500031
C129	C	0.900579	-0.371331	0.000036
C130	C	1.400579	0.128669	0.500036
C131	C	1.229405	-0.394115	0.000040
C132	C	1.729405	0.105885	0.500040
C133	C	1.230352	-0.343698	0.000036
C134	C	1.730352	0.156302	0.500036
C135	C	1.148622	-0.312793	0.000034
C136	C	1.648622	0.187207	0.500034
C137	C	1.228922	0.063446	0.000075
C138	C	1.728922	0.563446	0.500075
C139	C	1.328990	0.064467	0.000075
C140	C	1.828990	0.564467	0.500075
C141	C	1.056246	0.155230	0.000072
C142	C	1.556246	0.655230	0.500072
C143	C	1.057283	0.208890	0.000074
C144	C	1.557283	0.708890	0.500074
N145	N	1.064025	0.066861	0.248814
N146	N	1.564025	0.566861	0.748814
N147	N	1.064079	0.066863	-0.248679
N148	N	1.564079	0.566863	0.251321
C149	C	1.002316	0.099671	0.701082
C150	C	1.502316	0.599671	1.201082
C151	C	1.125832	0.034055	0.701055
C152	C	1.625832	0.534055	1.201055
C153	C	1.125821	0.034054	0.600559
C154	C	1.625821	0.534054	1.100559
C155	C	1.064058	0.066862	0.550320
C156	C	1.564058	0.566862	1.050320
C157	C	1.002305	0.099672	0.600577
C158	C	1.502305	0.599672	1.100577
C159	C	1.187578	0.001248	0.550295
C160	C	1.687578	0.501248	1.050295
C161	C	1.187571	0.001245	0.449793
C162	C	1.687571	0.501245	0.949793
C163	C	1.125803	0.034052	0.399552
C164	C	1.625803	0.534052	0.899552
C165	C	1.064047	0.066862	0.449815
C166	C	1.564047	0.566862	0.949815
C167	C	1.002284	0.099670	0.399576
C168	C	1.502284	0.599670	0.899576
C169	C	0.940523	0.132479	0.449837
C170	C	1.440523	0.632479	0.949837
C171	C	0.940537	0.132478	0.550336
C172	C	1.440537	0.632478	1.050336
C173	C	1.125789	0.034053	0.299053
C174	C	1.625789	0.534053	0.799053
C175	C	1.002273	0.099671	0.299071
C176	C	1.502273	0.599671	0.799071
H177	H	0.617376	0.191641	0.000053
H178	H	1.117376	0.691641	0.500053
H179	H	1.297692	-0.327818	0.000039
H180	H	1.797692	0.172182	0.500039
H181	H	1.176122	0.007346	0.741963
H182	H	1.676122	0.507346	1.241963
Cl183	Cl	0.707156	-0.075455	0.000049
Cl184	Cl	1.207156	0.424545	0.500049
H185	H	0.951974	0.126386	0.258172
H186	H	1.451974	0.626386	0.758172
Cl187	Cl	0.862887	0.173725	0.386668
Cl188	Cl	1.362887	0.673725	0.886668
H189	H	1.293108	-0.570537	0.000017
H190	H	1.793108	-0.070537	0.500017
H191	H	0.834985	-0.295743	0.000035
H192	H	1.334985	0.204257	0.500035
Cl193	Cl	0.785565	0.168758	0.000041
Cl194	Cl	1.285565	0.668758	0.500041
H195	H	0.890255	0.159190	0.591264
H196	H	1.390255	0.659190	1.091264
H197	H	0.358319	-0.015319	0.000080
H198	H	0.858319	0.484681	0.500080
H199	H	1.295961	-0.419274	0.000040
H200	H	1.795961	0.080726	0.500040
Cl201	Cl	0.924674	0.140913	0.764261
Cl202	Cl	1.424674	0.640913	1.264261
H203	H	0.908215	-0.776088	0.000081
H204	H	1.408215	-0.276088	0.500081
H205	H	1.237868	-0.025461	0.591203
H206	H	1.737868	0.474539	1.091203
H207	H	1.176077	0.007343	0.258136
H208	H	1.676077	0.507343	0.758136
Cl209	Cl	1.265207	-0.040000	0.386615
Cl210	Cl	1.765207	0.460000	0.886615
H211	H	0.909935	-0.684628	0.000056
H212	H	1.409935	-0.184628	0.500056
Cl213	Cl	0.796621	-0.395852	0.000039
Cl214	Cl	1.296621	0.104148	0.500039
H215	H	1.294844	-0.479078	0.000027
H216	H	1.794844	0.020922	0.500027
H217	H	0.830385	-0.538462	0.000048
H218	H	1.330385	-0.038462	0.500048
H219	H	0.810971	-0.010707	0.000050
H220	H	1.310971	0.489293	0.500050
H221	H	0.510709	-0.057906	0.000095
H222	H	1.010709	0.442094	0.500095
H223	H	0.446802	0.189891	0.000056
H224	H	0.946802	0.689891	0.500056
Cl225	Cl	0.795912	-0.433321	0.000044
Cl226	Cl	1.295912	0.066679	0.500044
Cl227	Cl	0.291278	0.163714	0.000066
Cl228	Cl	0.791278	0.663714	0.500066
H229	H	0.919837	-0.160978	0.000060
H230	H	1.419837	0.339022	0.500060
H231	H	0.921577	-0.069504	0.000052
H232	H	1.421577	0.430496	0.500052
Cl233	Cl	1.256501	-0.081545	0.000062
Cl234	Cl	1.756501	0.418455	0.500062
H235	H	1.208252	-0.705289	0.000078
H236	H	1.708252	-0.205289	0.500078
Cl237	Cl	1.254354	-0.195331	0.000050
Cl238	Cl	1.754354	0.304669	0.500050
H239	H	1.206515	-0.796764	0.000079
H240	H	1.706515	-0.296764	0.500079
