data_functionalizedCrystal
_audit_creation_method	'MofGen! by Chris Wilmer'
_symmetry_space_group_name_H-M	'P1'
_symmetry_Int_Tables_number	1
_symmetry_cell_setting	triclinic
loop_
_symmetry_equiv_pos_as_xyz
  x,y,z
_cell_length_a	14.908993
_cell_length_b	25.639233
_cell_length_c	14.908520
_cell_angle_alpha	93.280272
_cell_angle_beta	96.420918
_cell_angle_gamma	93.280401
loop_
_atom_site_label
_atom_site_type_symbol
_atom_site_fract_x
_atom_site_fract_y
_atom_site_fract_z
Zn1	Zn	1.362934	-0.259484	-0.280537
Zn2	Zn	1.354111	-0.177407	-0.431887
Zn3	Zn	1.211585	-0.177409	-0.289279
Zn4	Zn	1.202799	-0.270155	-0.440607
O5	O	1.282857	-0.221114	-0.360577
O6	O	1.488428	-0.244130	-0.293306
O7	O	1.335188	-0.104243	-0.412979
O8	O	1.239031	-0.183832	-0.161447
O9	O	1.481946	-0.183828	-0.404503
O10	O	1.350227	-0.244132	-0.155024
O11	O	1.230475	-0.104245	-0.308205
O12	O	1.083755	-0.194179	-0.316660
O13	O	1.224058	-0.341904	-0.419364
O14	O	1.077300	-0.262319	-0.427841
O15	O	1.341708	-0.334064	-0.301761
O16	O	1.326669	-0.194175	-0.559716
O17	O	1.215502	-0.262317	-0.566122
C18	C	1.047685	-0.229408	-0.374146
C19	C	0.947076	-0.232969	-0.379973
C20	C	0.764700	-0.168794	-0.274975
C21	C	0.670169	-0.172138	-0.280447
C22	C	0.663480	-0.242999	-0.396391
C23	C	0.758012	-0.239655	-0.390920
C24	C	0.808618	-0.202551	-0.330209
C25	C	0.903151	-0.199210	-0.324733
C26	C	0.896461	-0.270068	-0.440682
C27	C	0.801930	-0.273412	-0.446153
C28	C	1.282887	-0.357485	-0.360560
C29	C	1.282900	-0.415599	-0.360552
C30	C	1.344244	-0.771877	-0.299140
C31	C	1.344257	-0.826480	-0.299115
O32	O	1.396334	-0.851249	-0.247011
N33	N	1.283012	-0.857870	-0.360334
C34	C	1.221745	-0.834655	-0.421578
O35	O	1.169652	-0.866369	-0.473647
C36	C	1.221729	-0.780053	-0.421598
C37	C	1.282983	-0.748665	-0.360381
C38	C	1.405493	-0.740489	-0.237927
C39	C	1.405481	-0.685890	-0.237954
C40	C	1.344221	-0.662678	-0.299194
C41	C	1.282972	-0.694066	-0.360408
C42	C	1.160458	-0.756839	-0.482837
C43	C	1.160446	-0.702233	-0.482852
C44	C	1.221701	-0.670845	-0.421634
C45	C	1.221699	-0.616255	-0.421675
N46	N	1.282944	-0.584865	-0.360455
C47	C	1.344204	-0.608076	-0.299215
C48	C	1.221783	-0.949323	-0.421529
C49	C	1.221802	-1.003924	-0.421513
C50	C	1.344313	-0.995745	-0.299048
C51	C	1.344297	-0.941143	-0.299069
C52	C	1.283027	-0.917933	-0.360309
C53	C	1.344176	-0.493414	-0.299277
C54	C	1.344161	-0.438810	-0.299312
C55	C	1.221647	-0.446994	-0.421773
C56	C	1.221665	-0.501593	-0.421741
C57	C	1.282932	-0.524801	-0.360486
O58	O	1.169646	-0.591449	-0.473750
O59	O	1.396280	-0.576356	-0.247147
C60	C	1.518948	-0.212788	-0.346956
C61	C	1.619556	-0.209240	-0.341152
C62	C	1.269199	-0.229414	-0.595763
C63	C	1.263439	-0.232979	-0.696371
C64	C	1.282883	-0.085269	-0.360527
C65	C	1.283060	-0.027141	-0.360269
C66	C	1.368493	-0.168773	-0.878686
C67	C	1.363084	-0.172121	-0.973217
C68	C	1.247217	-0.243026	-0.979964
C69	C	1.252626	-0.239678	-0.885433
C70	C	1.313265	-0.202549	-0.834798
C71	C	1.318669	-0.199199	-0.740266
C72	C	1.202807	-0.270106	-0.747014
C73	C	1.197398	-0.273455	-0.841545
C74	C	1.296593	-0.212792	-0.124472
C75	C	1.302447	-0.209246	-0.023859
H76	H	1.394045	-0.413256	-0.249460
O77	O	1.155599	-0.535453	-0.487764
H78	H	1.166977	-0.526942	-0.557922
O79	O	0.747347	-0.313433	-0.511627
H80	H	0.674235	-0.310090	-0.506149
H81	H	0.932229	-0.297559	-0.485652
H82	H	1.417861	-0.138538	-0.837458
H83	H	0.622260	-0.273202	-0.445827
O84	O	0.957732	-0.159186	-0.259265
H85	H	0.943705	-0.166345	-0.189292
O86	O	1.155738	-1.037777	-0.487542
H87	H	1.113136	-1.012458	-0.530121
O88	O	1.131995	-0.313494	-0.896171
H89	H	1.148503	-0.353349	-0.877100
H90	H	0.805905	-0.138589	-0.225531
O91	O	1.471544	-0.652038	-0.171922
H92	H	1.514134	-0.677359	-0.129334
O93	O	0.622795	-0.135732	-0.220870
H94	H	0.673870	-0.109374	-0.177732
O95	O	1.422648	-0.135694	-1.020566
H96	H	1.408212	-0.094555	-1.003372
O97	O	1.410262	-0.518442	-0.233218
H98	H	1.452851	-0.487436	-0.190669
H99	H	1.394175	-0.915590	-0.249219
O100	O	1.384083	-0.159159	-0.685655
H101	H	1.432564	-0.179439	-0.639873
H102	H	1.455380	-0.759381	-0.188052
H103	H	1.394193	-1.014653	-0.249181
H104	H	1.171888	-0.930429	-0.471402
O105	O	1.181807	-0.283064	-1.034584
H106	H	1.187321	-0.279712	-1.107690
O107	O	1.094379	-0.790686	-0.548854
H108	H	1.051774	-0.765364	-0.591424
O109	O	1.094350	-0.677198	-0.548893
H110	H	1.051763	-0.708201	-0.591452
O111	O	1.155568	-0.421955	-0.487818
H112	H	1.165847	-0.378714	-0.477537
H113	H	1.157834	-0.297608	-0.711270
