data_functionalizedCrystal
_audit_creation_method	'MofGen! by Chris Wilmer'
_symmetry_space_group_name_H-M	'P1'
_symmetry_Int_Tables_number	1
_symmetry_cell_setting	triclinic
loop_
_symmetry_equiv_pos_as_xyz
  x,y,z
_cell_length_a	19.077105
_cell_length_b	21.295411
_cell_length_c	19.077068
_cell_angle_alpha	92.278858
_cell_angle_beta	90.115316
_cell_angle_gamma	87.678773
loop_
_atom_site_label
_atom_site_type_symbol
_atom_site_fract_x
_atom_site_fract_y
_atom_site_fract_z
Zn1	Zn	1.063028	-0.405671	-0.323069
Zn2	Zn	1.563028	0.094329	0.176931
Zn3	Zn	1.058205	-0.304447	-0.440556
Zn4	Zn	1.558205	0.195553	0.059444
Zn5	Zn	0.945510	-0.296029	-0.318339
Zn6	Zn	1.445510	0.203971	0.181661
Zn7	Zn	0.940763	-0.405293	-0.435810
Zn8	Zn	1.440763	0.094707	0.064190
O9	O	1.001876	-0.352860	-0.379443
O10	O	1.501876	0.147140	0.120557
O11	O	1.160720	-0.395925	-0.342619
O12	O	1.660720	0.104075	0.157381
O13	O	1.043224	-0.215240	-0.424350
O14	O	1.543224	0.284760	0.075650
O15	O	0.965104	-0.307209	-0.220636
O16	O	1.465104	0.192791	0.279364
O17	O	1.157177	-0.321555	-0.428936
O18	O	1.657177	0.178445	0.071064
O19	O	1.051444	-0.387763	-0.224111
O20	O	1.551444	0.112237	0.275889
O21	O	0.960427	-0.209055	-0.334558
O22	O	1.460427	0.290945	0.165442
O23	O	0.846548	-0.306842	-0.329957
O24	O	1.346548	0.193158	0.170043
O25	O	0.957013	-0.493434	-0.420848
O26	O	1.457013	0.006566	0.079152
O27	O	0.843061	-0.387118	-0.416262
O28	O	1.343061	0.112882	0.083738
O29	O	1.046841	-0.493712	-0.338017
O30	O	1.546841	0.006288	0.161983
O31	O	1.038621	-0.321189	-0.538257
O32	O	1.538621	0.178811	-0.038257
O33	O	0.952337	-0.395280	-0.534770
O34	O	1.452337	0.104720	-0.034770
C35	C	0.819308	-0.346026	-0.372082
C36	C	1.319308	0.153974	0.127918
C37	C	0.741204	-0.343118	-0.368950
C38	C	1.241204	0.156882	0.131050
C39	C	0.702710	-0.383486	-0.412480
C40	C	1.202710	0.116514	0.087520
C41	C	0.629324	-0.380756	-0.409528
C42	C	1.129324	0.119244	0.090472
C43	C	0.594432	-0.337655	-0.363048
C44	C	1.094432	0.162345	0.136952
C45	C	0.632931	-0.297285	-0.319512
C46	C	1.132931	0.202715	0.180488
C47	C	0.706316	-0.300018	-0.322462
C48	C	1.206316	0.199982	0.177538
C49	C	0.375145	-0.325008	-0.349398
C50	C	0.875145	0.174992	0.150602
C51	C	0.301755	-0.322277	-0.346453
C52	C	0.801755	0.177723	0.153547
C53	C	0.298153	-0.405749	-0.436468
C54	C	0.798153	0.094251	0.063532
C55	C	0.371540	-0.408476	-0.439416
C56	C	0.871540	0.091524	0.060584
C57	C	0.410032	-0.368108	-0.395878
C58	C	0.910032	0.131892	0.104122
N59	N	0.519418	-0.334862	-0.360030
N60	N	1.019418	0.165138	0.139970
N61	N	0.485044	-0.370905	-0.398893
N62	N	0.985044	0.129095	0.101107
C63	C	1.001935	-0.517052	-0.379431
C64	C	1.501935	-0.017052	0.120569
C65	C	1.001960	-0.587021	-0.379426
C66	C	1.501960	-0.087021	0.120574
C67	C	1.048732	-0.620033	-0.336294
C68	C	1.548732	-0.120033	0.163706
C69	C	1.048732	-0.685775	-0.336263
C70	C	1.548732	-0.185775	0.163737
C71	C	1.001968	-0.718502	-0.379377
C72	C	1.501968	-0.218502	0.120623
C73	C	0.955188	-0.685482	-0.422512
C74	C	1.455188	-0.185482	0.077488
C75	C	0.955184	-0.619741	-0.422536
C76	C	1.455184	-0.119741	0.077464
N77	N	0.994080	-0.823636	-0.440631
N78	N	1.494080	-0.323636	0.059369
N79	N	0.994088	-0.886087	-0.440606
N80	N	1.494088	-0.386087	0.059394
C81	C	1.001975	-0.916575	-0.379306
C82	C	1.501975	-0.416575	0.120694
N83	N	1.009868	-0.882253	-0.318032
N84	N	1.509868	-0.382253	0.181968
N85	N	1.009864	-0.819796	-0.318057
N86	N	1.509864	-0.319796	0.181943
C87	C	1.001966	-0.789787	-0.379356
C88	C	1.501966	-0.289787	0.120644
C89	C	1.048749	-1.020871	-0.336138
C90	C	1.548749	-0.520871	0.163862
C91	C	1.048745	-1.086614	-0.336106
C92	C	1.548745	-0.586614	0.163894
C93	C	0.955204	-1.086320	-0.422361
C94	C	1.455204	-0.586320	0.077639
C95	C	0.955205	-1.020578	-0.422387
C96	C	1.455205	-0.520578	0.077613
C97	C	1.001981	-0.987858	-0.379276
C98	C	1.501981	-0.487858	0.120724
C99	C	1.185157	-0.359721	-0.386834
C100	C	1.685157	0.140279	0.113166
C101	C	1.263261	-0.362645	-0.389984
C102	C	1.763261	0.137355	0.110016
C103	C	0.994460	-0.359121	-0.562010
C104	C	1.494460	0.140879	-0.062010
C105	C	0.991351	-0.361823	-0.640116
C106	C	1.491351	0.138177	-0.140116
C107	C	1.001860	-0.189307	-0.379407
C108	C	1.501860	0.310693	0.120593
C109	C	1.001979	-0.119336	-0.379220
C110	C	1.501979	0.380664	0.120780
C111	C	1.034849	-0.324552	-0.678603
C112	C	1.534849	0.175448	-0.178603
C113	C	1.031930	-0.327097	-0.751992
C114	C	1.531930	0.172903	-0.251992
C115	C	0.985508	-0.366911	-0.786891
C116	C	1.485508	0.133089	-0.286891
C117	C	0.942008	-0.404186	-0.748399
C118	C	1.442008	0.095814	-0.248399
C119	C	0.944931	-0.401644	-0.675012
C120	C	1.444931	0.098356	-0.175012
C121	C	0.971946	-0.378650	-1.006182
C122	C	1.471946	0.121350	-0.506182
C123	C	0.969024	-0.381188	-1.079574
C124	C	1.469024	0.118812	-0.579574
C125	C	1.058947	-0.304099	-1.083162
C126	C	1.558947	0.195901	-0.583162
C127	C	1.061864	-0.301558	-1.009774
C128	C	1.561864	0.198442	-0.509774
C129	C	1.018366	-0.338836	-0.971288
C130	C	1.518366	0.161164	-0.471288
N131	N	0.982521	-0.369512	-0.861906
N132	N	1.482521	0.130488	-0.361906
N133	N	1.021357	-0.336238	-0.896275
N134	N	1.521357	0.163762	-0.396275
C135	C	1.009341	-0.346589	-0.196164
C136	C	1.509341	0.153411	0.303836
C137	C	1.012522	-0.343917	-0.118062
C138	C	1.512522	0.156083	0.381938
H139	H	0.737657	-0.267150	-0.287011
H140	H	1.237657	0.232850	0.212989
C141	C	1.106267	-0.263428	-0.898871
C142	C	1.606267	0.236572	-0.398871
C143	C	1.112890	-0.257792	-0.971413
C144	C	1.612890	0.242208	-0.471413
H145	H	1.137764	-0.236404	-0.875191
H146	H	1.637764	0.263596	-0.375191
H147	H	1.117012	-0.305692	-0.887228
H148	H	1.617012	0.194308	-0.387228
H149	H	1.059532	-0.252002	-0.884998
H150	H	1.559532	0.247998	-0.384998
H151	H	1.159624	-0.269224	-0.985287
H152	H	1.659624	0.230776	-0.485287
H153	H	1.102149	-0.215520	-0.983062
H154	H	1.602149	0.284480	-0.483062
C155	C	1.141203	-1.027762	-0.250869
C156	C	1.641203	-0.527762	0.249131
C157	C	1.100156	-0.984899	-0.288743
C158	C	1.600156	-0.484899	0.211257
H159	H	1.172936	-1.005554	-0.221606
H160	H	1.672936	-0.505554	0.278394
H161	H	1.166837	-1.055470	-0.282556
H162	H	1.666837	-0.555470	0.217444
H163	H	1.111674	-1.051323	-0.222749
H164	H	1.611674	-0.551323	0.277251
H165	H	1.129686	-0.961341	-0.316867
H166	H	1.629686	-0.461341	0.183133
H167	H	1.074521	-0.957180	-0.257052
H168	H	1.574521	-0.457180	0.242948
H169	H	0.406477	-0.292133	-0.313951
H170	H	0.906477	0.207867	0.186049
C171	C	0.860286	-0.943423	-0.428365
C172	C	1.360286	-0.443423	0.071635
C173	C	0.903797	-0.984286	-0.469805
C174	C	1.403797	-0.484286	0.030195
H175	H	0.828544	-0.921021	-0.457640
H176	H	1.328544	-0.421021	0.042360
H177	H	0.888139	-0.914529	-0.402699
H178	H	1.388139	-0.414529	0.097301
H179	H	0.834657	-0.967009	-0.396660
H180	H	1.334657	-0.467009	0.103340
H181	H	0.929430	-0.960700	-0.501507
H182	H	1.429430	-0.460700	-0.001507
H183	H	0.875941	-1.013184	-0.495483
H184	H	1.375941	-0.513184	0.004517
C185	C	1.062360	-1.157642	-0.241941
C186	C	1.562360	-0.657642	0.258059
C187	C	1.100156	-1.122899	-0.288683
C188	C	1.600156	-0.622899	0.211317
H189	H	1.094101	-1.180039	-0.212660
H190	H	1.594101	-0.680039	0.287340
H191	H	1.034516	-1.186540	-0.267610
H192	H	1.534516	-0.686540	0.232390
H193	H	1.032841	-1.129905	-0.213845
H194	H	1.532841	-0.629905	0.286155
H195	H	1.129672	-1.150636	-0.316783
H196	H	1.629672	-0.650636	0.183217
H197	H	1.128013	-1.093998	-0.263011
H198	H	1.628013	-0.593998	0.236989
C199	C	1.094408	-0.273778	-1.197253
C200	C	1.594408	0.226222	-0.697253
C201	C	1.106770	-0.263137	-1.125468
C202	C	1.606770	0.236863	-0.625468
H203	H	1.123940	-0.248493	-1.223369
H204	H	1.623940	0.251507	-0.723369
H205	H	1.046728	-0.263173	-1.207425
H206	H	1.546728	0.236827	-0.707425
H207	H	1.104185	-0.316883	-1.209649
H208	H	1.604185	0.183117	-0.709649
H209	H	1.096988	-0.220032	-1.113071
H210	H	1.596988	0.279968	-0.613071
H211	H	1.154461	-0.273737	-1.115292
H212	H	1.654461	0.226263	-0.615292
C213	C	0.880442	-0.457149	-1.068661
C214	C	1.380442	0.042851	-0.568661
C215	C	0.918000	-0.424961	-1.117938
C216	C	1.418000	0.075039	-0.617938
H217	H	0.848948	-0.484174	-1.092347
H218	H	1.348948	0.015826	-0.592347
H219	H	0.854712	-0.427713	-1.038995
H220	H	1.354712	0.072287	-0.538995
H221	H	0.912197	-0.481399	-1.041229
H222	H	1.412197	0.018601	-0.541229
H223	H	0.886246	-0.400708	-1.145367
H224	H	1.386246	0.099292	-0.645367
H225	H	0.943732	-0.454402	-1.147616
H226	H	1.443732	0.045598	-0.647616
C227	C	0.522037	-0.256032	-0.275022
C228	C	1.022037	0.243968	0.224978
C229	C	0.594579	-0.249909	-0.268417
C230	C	1.094579	0.250091	0.231583
H231	H	0.498363	-0.226780	-0.243479
H232	H	0.998363	0.273220	0.256521
H233	H	0.510454	-0.297541	-0.264327
H234	H	1.010454	0.202459	0.235673
H235	H	0.508095	-0.247917	-0.321737
H236	H	1.008095	0.252083	0.178263
H237	H	0.608521	-0.258029	-0.221703
H238	H	1.108521	0.241971	0.278297
H239	H	0.606167	-0.208391	-0.279107
H240	H	1.106167	0.291609	0.220893
C241	C	1.132662	-0.316548	-0.599803
C242	C	1.632662	0.183452	-0.099803
C243	C	1.085877	-0.280786	-0.640244
C244	C	1.585877	0.219214	-0.140244
H245	H	1.164163	-0.289527	-0.576121
H246	H	1.664163	0.210473	-0.076121
H247	H	1.158385	-0.345984	-0.629475
H248	H	1.658385	0.154016	-0.129475
H249	H	1.107166	-0.338377	-0.566378
H250	H	1.607166	0.161623	-0.066378
H251	H	1.111372	-0.258960	-0.673672
H252	H	1.611372	0.241040	-0.173672
H253	H	1.060152	-0.251338	-0.610569
H254	H	1.560152	0.248662	-0.110569
C255	C	0.965414	-0.460101	-0.923235
C256	C	1.465414	0.039899	-0.423235
C257	C	0.924127	-0.419623	-0.963889
C258	C	1.424127	0.080377	-0.463889
H259	H	0.935888	-0.485399	-0.897129
H260	H	1.435888	0.014601	-0.397129
H261	H	0.993471	-0.436031	-0.891945
H262	H	1.493471	0.063969	-0.391945
H263	H	0.994877	-0.486334	-0.953065
H264	H	1.494877	0.013666	-0.453065
H265	H	0.894667	-0.393386	-0.934059
H266	H	1.394667	0.106614	-0.434059
H267	H	0.896058	-0.443695	-0.995183
H268	H	1.396058	0.056305	-0.495183
C269	C	0.515229	-0.413635	-0.444972
C270	C	1.015229	0.086365	0.055028
C271	C	0.587010	-0.425130	-0.457378
C272	C	1.087010	0.074870	0.042622
H273	H	0.489109	-0.441035	-0.474511
H274	H	0.989109	0.058965	0.025489
H275	H	0.502764	-0.371232	-0.454701
H276	H	1.002764	0.128768	0.045299
H277	H	0.505133	-0.420855	-0.397289
H278	H	1.005133	0.079145	0.102711
H279	H	0.597107	-0.417906	-0.505060
H280	H	1.097107	0.082094	-0.005060
H281	H	0.599480	-0.467543	-0.447654
H282	H	1.099480	0.032457	0.052346
C283	C	1.141191	-0.626932	-0.251031
C284	C	1.641191	-0.126932	0.248969
C285	C	1.100141	-0.584067	-0.288899
C286	C	1.600141	-0.084067	0.211101
H287	H	1.172924	-0.604726	-0.221768
H288	H	1.672924	-0.104726	0.278232
H289	H	1.166824	-0.654637	-0.282722
H290	H	1.666824	-0.154637	0.217278
H291	H	1.111664	-0.650497	-0.222912
H292	H	1.611664	-0.150497	0.277088
H293	H	1.129668	-0.560506	-0.317022
H294	H	1.629668	-0.060506	0.182978
H295	H	1.074506	-0.556352	-0.257204
H296	H	1.574506	-0.056352	0.242796
C297	C	0.911550	-0.506144	-0.651006
C298	C	1.411550	-0.006144	-0.151006
C299	C	0.897119	-0.442615	-0.632703
C300	C	1.397119	0.057385	-0.132703
H301	H	0.882031	-0.531439	-0.624888
H302	H	1.382031	-0.031439	-0.124888
H303	H	0.959235	-0.516732	-0.640835
H304	H	1.459235	-0.016732	-0.140835
H305	H	0.903161	-0.513347	-0.699707
H306	H	1.403161	-0.013347	-0.199707
H307	H	0.905513	-0.435411	-0.584002
H308	H	1.405513	0.064589	-0.084002
H309	H	0.849423	-0.432023	-0.642869
H310	H	1.349423	0.067977	-0.142869
H311	H	0.904213	-0.436606	-0.776820
H312	H	1.404213	0.063394	-0.276820
H313	H	0.399943	-0.443572	-0.477267
H314	H	0.899943	0.056428	0.022733
C315	C	0.691771	-0.465726	-0.501152
C316	C	1.191771	0.034274	-0.001152
C317	C	0.741060	-0.430867	-0.463571
C318	C	1.241060	0.069133	0.036429
H319	H	0.715447	-0.494981	-0.532689
H320	H	1.215447	0.005019	-0.032689
H321	H	0.662046	-0.438114	-0.526835
H322	H	1.162046	0.061886	-0.026835
H323	H	0.664402	-0.487731	-0.469417
H324	H	1.164402	0.012269	0.030583
H325	H	0.768426	-0.408858	-0.495306
H326	H	1.268426	0.091142	0.004694
H327	H	0.770798	-0.458483	-0.437887
H328	H	1.270798	0.041517	0.062113
C329	C	1.062363	-0.756826	-0.242115
C330	C	1.562363	-0.256826	0.257885
C331	C	1.100150	-0.722073	-0.288853
C332	C	1.600150	-0.222073	0.211147
H333	H	1.094108	-0.779230	-0.212846
H334	H	1.594108	-0.279230	0.287154
H335	H	1.034513	-0.785719	-0.267788
H336	H	1.534513	-0.285719	0.232212
H337	H	1.032848	-0.729096	-0.214007
H338	H	1.532848	-0.229096	0.285993
H339	H	1.129661	-0.749804	-0.316965
H340	H	1.629661	-0.249804	0.183035
H341	H	1.128011	-0.693177	-0.263178
H342	H	1.628011	-0.193177	0.236822
H343	H	0.917120	-1.112965	-0.457459
H344	H	1.417120	-0.612965	0.042541
H345	H	0.917110	-0.712132	-0.457614
H346	H	1.417110	-0.212132	0.042386
H347	H	0.266804	-0.438615	-0.471913
H348	H	0.766804	0.061385	0.028087
H349	H	1.067350	-0.296746	-0.783325
H350	H	1.567350	0.203254	-0.283325
C351	C	0.916114	-0.602307	-0.540150
C352	C	1.416114	-0.102307	-0.040150
C353	C	0.903777	-0.583448	-0.469957
C354	C	1.403777	-0.083448	0.030043
H355	H	0.884381	-0.579897	-0.569426
H356	H	1.384381	-0.079897	-0.069426
H357	H	0.909415	-0.646137	-0.546300
H358	H	1.409415	-0.146137	-0.046300
H359	H	0.962911	-0.593668	-0.552330
H360	H	1.462911	-0.093668	-0.052330
H361	H	0.856981	-0.592092	-0.457774
H362	H	1.356981	-0.092092	0.042226
H363	H	0.910470	-0.539609	-0.463803
H364	H	1.410470	-0.039609	0.036197
C365	C	0.312683	-0.240046	-0.257760
C366	C	0.812683	0.259954	0.242240
C367	C	0.263400	-0.274899	-0.295355
C368	C	0.763400	0.225101	0.204645
H369	H	0.289002	-0.210801	-0.226214
H370	H	0.789002	0.289199	0.273786
H371	H	0.340051	-0.218034	-0.289480
H372	H	0.840051	0.281966	0.210520
H373	H	0.342411	-0.267667	-0.232079
H374	H	0.842411	0.232333	0.267921
H375	H	0.233675	-0.247279	-0.321040
H376	H	0.733675	0.252721	0.178960
H377	H	0.236020	-0.296912	-0.263630
H378	H	0.736020	0.203088	0.236370
