data_functionalizedCrystal
_audit_creation_method	'MofGen! by Chris Wilmer'
_symmetry_space_group_name_H-M	'P1'
_symmetry_Int_Tables_number	1
_symmetry_cell_setting	triclinic
loop_
_symmetry_equiv_pos_as_xyz
  x,y,z
_cell_length_a	11.792241
_cell_length_b	10.967926
_cell_length_c	9.482900
_cell_angle_alpha	92.549900
_cell_angle_beta	80.596456
_cell_angle_gamma	95.543052
loop_
_atom_site_label
_atom_site_type_symbol
_atom_site_fract_x
_atom_site_fract_y
_atom_site_fract_z
O1	O	-0.200408	1.611508	0.282862
O2	O	0.299592	2.111508	0.782862
O3	O	-0.202898	1.262310	0.195374
O4	O	0.297102	1.762310	0.695374
O5	O	-0.036810	1.445384	0.241233
O6	O	0.463190	1.945384	0.741233
O7	O	-0.366496	1.428434	0.237003
O8	O	0.133504	1.928434	0.737003
O9	O	-0.070688	1.408199	0.473711
O10	O	0.429312	1.908199	0.973711
O11	O	-0.236776	1.225125	0.427852
O12	O	0.263224	1.725125	0.927852
O13	O	-0.234286	1.574322	0.515340
O14	O	0.265714	2.074322	1.015340
Cu15	Cu	-0.238625	1.396328	0.492823
Cu16	Cu	0.261375	1.896328	0.992823
Cu17	Cu	-0.198560	1.440304	0.217891
Cu18	Cu	0.301440	1.940304	0.717891
O19	O	-0.400374	1.391248	0.469481
O20	O	0.099626	1.891248	0.969481
C21	C	-0.217096	1.199013	0.300412
C22	C	0.282904	1.699013	0.800412
C23	C	-0.208915	1.065806	0.267038
C24	C	0.291085	1.565806	0.767038
C25	C	-0.222817	0.987155	0.372589
C26	C	0.277183	1.487155	0.872589
C27	C	-0.214362	0.849479	0.338098
C28	C	0.285638	1.349479	0.838098
C29	C	-0.425768	1.410905	0.353511
C30	C	0.074232	1.910905	0.853511
C31	C	-0.551906	1.414091	0.354316
C32	C	-0.051906	1.914091	0.854316
C33	C	-0.782840	1.419956	0.355748
C34	C	-0.282840	1.919956	0.855748
C35	C	-0.654331	1.416697	0.354952
C36	C	-0.154331	1.916697	0.854952
C37	C	-0.011416	1.425728	0.357200
C38	C	0.488584	1.925728	0.857200
C39	C	0.114724	1.422544	0.356386
C40	C	0.614724	1.922544	0.856386
C41	C	-0.220088	1.637620	0.410299
C42	C	0.279912	2.137620	0.910299
C43	C	-0.228267	1.770828	0.443664
C44	C	0.271733	2.270828	0.943664
N45	N	-0.266804	1.365406	0.686198
N46	N	0.233196	1.865406	1.186198
N47	N	-0.170372	1.471236	0.024519
N48	N	0.329628	1.971236	0.524519
C49	C	-0.206865	1.431175	0.774871
C50	C	0.293135	1.931175	1.274871
C51	C	-0.230320	1.405457	0.935846
C52	C	0.269680	1.905457	1.435846
H53	H	-0.190750	1.031217	0.151137
H54	H	0.309250	1.531217	0.651137
H55	H	-0.138180	1.506519	0.731616
H56	H	0.361820	2.006519	1.231616
H57	H	-0.246427	0.805411	0.559573
H58	H	0.253573	1.305411	1.059573
F59	F	-0.246554	1.032360	0.524084
F60	F	0.253446	1.532360	1.024084
H61	H	-0.335480	1.290054	0.729452
H62	H	0.164520	1.790054	1.229452
F63	F	-0.080793	1.569929	0.968047
F64	F	0.419207	2.069929	1.468047
H65	H	-0.196196	0.814895	0.222189
H66	H	0.303804	1.314895	0.722189
F67	F	-0.320090	1.306959	0.992371
F68	F	0.179910	1.806959	1.492371
