data_functionalizedCrystal
_audit_creation_method	'MofGen! by Chris Wilmer'
_symmetry_space_group_name_H-M	'P1'
_symmetry_Int_Tables_number	1
_symmetry_cell_setting	triclinic
loop_
_symmetry_equiv_pos_as_xyz
  x,y,z
_cell_length_a	17.077402
_cell_length_b	21.295418
_cell_length_c	17.077396
_cell_angle_alpha	90.042909
_cell_angle_beta	89.970962
_cell_angle_gamma	89.956563
loop_
_atom_site_label
_atom_site_type_symbol
_atom_site_fract_x
_atom_site_fract_y
_atom_site_fract_z
Zn1	Zn	-0.312127	-0.962348	-0.444330
Zn2	Zn	-0.443401	-0.962269	-0.313063
Zn3	Zn	-0.312195	-0.857080	-0.313024
Zn4	Zn	-0.443396	-0.857050	-0.444233
O5	O	-0.377780	-0.909687	-0.378663
O6	O	-0.329514	-1.050427	-0.426974
O7	O	-0.426028	-0.948295	-0.203211
O8	O	-0.202339	-0.871090	-0.330467
O9	O	-0.425961	-1.050369	-0.330533
O10	O	-0.202289	-0.948430	-0.426937
O11	O	-0.329631	-0.871014	-0.203183
O12	O	-0.329626	-0.768987	-0.330373
O13	O	-0.425952	-0.871039	-0.554093
O14	O	-0.426019	-0.768965	-0.426771
O15	O	-0.329509	-0.948401	-0.554164
O16	O	-0.553248	-0.948266	-0.330438
O17	O	-0.553244	-0.870962	-0.426808
C18	C	-0.377830	-0.746135	-0.378558
C19	C	-0.377870	-0.676167	-0.378531
C20	C	-0.581728	-0.909620	-0.378634
C21	C	-0.668978	-0.909648	-0.378648
C22	C	-1.044702	-0.950027	-0.428986
C23	C	-0.962721	-0.949999	-0.428967
C24	C	-0.921826	-0.909748	-0.378694
C25	C	-0.962916	-0.869527	-0.328431
C26	C	-1.044895	-0.869559	-0.328446
C27	C	-0.792046	-0.869463	-0.328404
C28	C	-0.710061	-0.869430	-0.328390
C29	C	-0.709873	-0.949902	-0.428926
C30	C	-0.791851	-0.949934	-0.428941
C31	C	-0.832935	-0.909712	-0.378678
C32	C	-0.428130	-0.643306	-0.428648
C33	C	-0.428114	-0.577563	-0.428677
C34	C	-0.377846	-0.544685	-0.378576
C35	C	-0.327577	-0.577554	-0.328456
C36	C	-0.327588	-0.643296	-0.328433
N37	N	-0.371721	-0.441413	-0.309910
N38	N	-0.371715	-0.378962	-0.309933
C39	C	-0.377807	-0.346610	-0.378641
N40	N	-0.383920	-0.379069	-0.447327
N41	N	-0.383931	-0.441527	-0.447302
C42	C	-0.377828	-0.473400	-0.378595
C43	C	-0.428052	-0.242463	-0.428794
C44	C	-0.428030	-0.176719	-0.428825
C45	C	-0.327497	-0.176712	-0.328596
C46	C	-0.327515	-0.242454	-0.328573
C47	C	-0.377796	-0.275326	-0.378670
C48	C	-0.173035	-0.909772	-0.378709
C49	C	-0.085786	-0.909808	-0.378728
C50	C	-0.377722	-0.909725	-0.583407
C51	C	-0.377697	-0.909741	-0.670657
C52	C	-0.377743	-0.073877	-0.378746
C53	C	-0.377761	-0.143846	-0.378724
C54	C	-0.327475	-0.950025	-0.711685
C55	C	-0.327449	-0.950033	-0.793666
C56	C	-0.377650	-0.909759	-0.834616
C57	C	-0.427874	-0.869471	-0.793582
C58	C	-0.427896	-0.869461	-0.711603
C59	C	-0.427827	-0.869497	-0.964452
C60	C	-0.427806	-0.869507	-1.046437
C61	C	-0.327380	-0.950068	-1.046515
C62	C	-0.327402	-0.950058	-0.964536
C63	C	-0.377627	-0.909771	-0.923507
C64	C	-0.377781	-0.909685	-0.174715
C65	C	-0.377584	-0.909791	-0.087465
H66	H	-1.077993	-0.982798	-0.469932
H67	H	-0.468713	-0.836680	-0.931049
Br68	Br	-0.259279	-1.004721	-0.908961
H69	H	-0.286565	-0.149943	-0.287807
Br70	Br	-0.259301	-0.287056	-0.260553
Br71	Br	-0.496052	-0.814784	-0.655920
Br72	Br	-0.906968	-1.004585	-0.497177
Br73	Br	-0.259348	-1.004690	-0.656118
Br74	Br	-0.847352	-1.004550	-0.497182
H75	H	-0.676417	-0.982652	-0.469851
H76	H	-0.676769	-0.836654	-0.287452
H77	H	-0.468956	-0.149964	-0.469641
Br78	Br	-0.259220	-1.004747	-1.102196
Br79	Br	-0.907416	-0.814905	-0.260197
H80	H	-0.469072	-0.670066	-0.469442
Br81	Br	-0.496327	-0.532955	-0.496699
H82	H	-0.286647	-0.550781	-0.287665
H83	H	-0.286555	-0.982837	-0.827068
Br84	Br	-0.847802	-0.814879	-0.260186
H85	H	-1.078344	-0.836809	-0.287521
Br86	Br	-0.495929	-0.814844	-1.102012
Br87	Br	-0.259372	-0.687897	-0.260414
H88	H	-0.468745	-0.836678	-0.826930
H89	H	-0.468990	-0.269229	-0.469591
