data_functionalizedCrystal
_audit_creation_method	'MofGen! by Chris Wilmer'
_symmetry_space_group_name_H-M	'P1'
_symmetry_Int_Tables_number	1
_symmetry_cell_setting	triclinic
loop_
_symmetry_equiv_pos_as_xyz
  x,y,z
_cell_length_a	9.065215
_cell_length_b	19.188930
_cell_length_c	7.540329
_cell_angle_alpha	90.008296
_cell_angle_beta	90.001076
_cell_angle_gamma	84.079739
loop_
_atom_site_label
_atom_site_type_symbol
_atom_site_fract_x
_atom_site_fract_y
_atom_site_fract_z
O1	O	1.956847	0.102360	0.147485
O2	O	1.527270	0.110759	0.147495
O3	O	1.754455	0.005000	0.147455
O4	O	1.729662	0.208118	0.147525
O5	O	1.754447	0.004999	-0.147510
O6	O	1.527262	0.110758	-0.147470
O7	O	1.956839	0.102359	-0.147480
Cu8	Cu	1.742050	0.106558	-0.174407
Cu9	Cu	1.742059	0.106559	0.174423
O10	O	1.729654	0.208118	-0.147440
C11	C	1.472308	0.109951	0.000013
C12	C	1.308548	0.107539	0.000016
C13	C	1.753648	-0.021018	-0.000032
C14	C	1.751238	-0.098541	-0.000047
C15	C	1.884543	-0.142430	-0.000059
C16	C	1.882279	-0.215272	-0.000031
C17	C	1.746702	-0.244221	-0.000026
C18	C	1.613380	-0.200322	-0.000005
C19	C	1.615648	-0.127482	-0.000015
N20	N	1.643067	-0.353031	-0.100406
N21	N	1.640922	-0.422226	-0.100400
C22	C	1.739860	-0.463683	0.000010
N23	N	1.841048	-0.433331	0.100391
N24	N	1.843198	-0.364130	0.100376
C25	C	1.744228	-0.323202	-0.000013
C26	C	1.870719	-0.586555	0.000032
C27	C	1.868449	-0.659397	0.000071
C28	C	1.599546	-0.644446	0.000079
C29	C	1.601820	-0.571605	0.000058
C30	C	1.737410	-0.542664	0.000025
C31	C	2.011802	0.103166	0.000006
C32	C	2.175561	0.105578	0.000015
C33	C	1.730461	0.234135	0.000052
C34	C	1.732871	0.311659	0.000079
N35	N	1.742054	0.106557	-0.419756
N36	N	1.742067	0.106555	0.419771
H37	H	1.994951	-0.118871	-0.000079
H38	H	1.502992	-0.223897	0.000003
H39	H	1.990835	-0.251013	-0.000033
N40	N	1.471864	-0.080139	-0.000002
H41	H	1.385629	-0.109528	0.000012
H42	H	1.466944	-0.049603	-0.109357
H43	H	1.489157	-0.668016	0.000092
H44	H	1.981125	-0.562990	0.000014
N45	N	2.012241	-0.706734	0.000053
H46	H	2.017277	-0.737299	-0.109282
H47	H	2.017224	-0.737234	0.109477
H48	H	1.493268	-0.535870	0.000057
