data_functionalizedCrystal
_audit_creation_method	'MofGen! by Chris Wilmer'
_symmetry_space_group_name_H-M	'P1'
_symmetry_Int_Tables_number	1
_symmetry_cell_setting	triclinic
loop_
_symmetry_equiv_pos_as_xyz
  x,y,z
_cell_length_a	27.732048
_cell_length_b	19.188930
_cell_length_c	18.266242
_cell_angle_alpha	90.011475
_cell_angle_beta	89.996455
_cell_angle_gamma	97.106281
loop_
_atom_site_label
_atom_site_type_symbol
_atom_site_fract_x
_atom_site_fract_y
_atom_site_fract_z
O1	O	0.641184	-0.083079	-0.060795
O2	O	1.141184	0.416921	0.439205
O3	O	0.500429	-0.095711	-0.060818
O4	O	1.000429	0.404289	0.439182
O5	O	0.574869	0.012287	-0.060791
O6	O	1.074869	0.512287	0.439209
O7	O	0.566745	-0.191077	-0.060821
O8	O	1.066745	0.308923	0.439179
O9	O	0.574856	0.012292	0.060971
O10	O	1.074856	0.512292	0.560971
O11	O	0.500417	-0.095706	0.060944
O12	O	1.000417	0.404294	0.560944
O13	O	0.641172	-0.083074	0.060967
O14	O	1.141172	0.416926	0.560967
Zn15	Zn	0.570792	-0.089389	0.080288
Zn16	Zn	1.070792	0.410611	0.580288
Zn17	Zn	0.570809	-0.089396	-0.080139
Zn18	Zn	1.070809	0.410604	0.419861
O19	O	0.566732	-0.191071	0.060941
O20	O	1.066732	0.308929	0.560941
C21	C	0.482415	-0.095443	0.000060
C22	C	0.982415	0.404557	0.500060
C23	C	0.428758	-0.094645	0.000052
C24	C	0.928758	0.405355	0.500052
C25	C	0.574599	0.038299	0.000092
C26	C	1.074599	0.538299	0.500092
C27	C	0.573810	0.115798	0.000098
C28	C	1.073810	0.615798	0.500098
C29	C	0.567002	-0.217083	0.000056
C30	C	1.067002	0.282917	0.500056
C31	C	0.567791	-0.294583	0.000045
C32	C	1.067791	0.205417	0.500045
C33	C	0.090123	-0.153438	0.000075
C34	C	0.590123	0.346562	0.500075
C35	C	-0.111546	-0.150475	0.000082
C36	C	0.388454	0.349525	0.500082
O37	O	-0.142637	-0.204237	0.000106
O38	O	0.357363	0.295763	0.500106
N39	N	-0.130866	-0.086437	0.000090
N40	N	0.369134	0.413563	0.500090
C41	C	-0.099764	-0.023135	0.000101
C42	C	0.400236	0.476865	0.500101
O43	O	-0.120824	0.031401	0.000116
O44	O	0.379176	0.531401	0.500116
C45	C	0.101903	-0.026098	0.000100
C46	C	0.601903	0.473902	0.500100
C47	C	0.121220	-0.090140	0.000084
C48	C	0.621220	0.409860	0.500084
C49	C	0.109440	-0.217475	0.000060
C50	C	0.609440	0.282525	0.500060
C51	C	0.159854	-0.218215	0.000055
C52	C	0.659854	0.281785	0.500055
C53	C	0.190951	-0.154917	0.000064
C54	C	0.690951	0.345083	0.500064
C55	C	0.171634	-0.090880	0.000078
C56	C	0.671634	0.409120	0.500078
C57	C	0.133003	0.037203	0.000116
C58	C	0.633003	0.537203	0.500116
C59	C	0.183423	0.036457	0.000117
C60	C	0.683423	0.536457	0.500117
C61	C	0.202740	-0.027586	0.000102
C62	C	0.702740	0.472414	0.500102
C63	C	0.253145	-0.028323	0.000082
C64	C	0.753145	0.471677	0.500082
N65	N	0.272465	-0.092361	0.000073
N66	N	0.772465	0.407639	0.500073
C67	C	0.241368	-0.155658	0.000064
C68	C	0.741368	0.344342	0.500064
C69	C	-0.205643	-0.021584	0.000101
C70	C	0.294357	0.478416	0.500101
C71	C	-0.256060	-0.020843	0.000100
C72	C	0.243940	0.479157	0.500100
C73	C	-0.267838	-0.148183	0.000082
C74	C	0.232162	0.351817	0.500082
C75	C	-0.217420	-0.148923	0.000078
C76	C	0.282580	0.351077	0.500078
C77	C	-0.186324	-0.085622	0.000093
C78	C	0.313676	0.414378	0.500093
C79	C	0.347242	-0.157208	0.000052
C80	C	0.847242	0.342792	0.500052
C81	C	0.397661	-0.157942	0.000043
C82	C	0.897661	0.342058	0.500043
C83	C	0.409435	-0.030602	0.000065
C84	C	0.909435	0.469398	0.500065
C85	C	0.359020	-0.029867	0.000070
C86	C	0.859020	0.470133	0.500070
C87	C	0.327924	-0.093176	0.000066
C88	C	0.827924	0.406824	0.500066
O89	O	0.284265	0.025410	0.000066
O90	O	0.784265	0.525410	0.500066
O91	O	0.262437	-0.210187	0.000066
O92	O	0.762437	0.289813	0.500066
C93	C	0.039708	-0.152698	0.000081
C94	C	0.539708	0.347302	0.500081
C95	C	0.020391	-0.088661	0.000096
C96	C	0.520391	0.411339	0.500096
C97	C	0.051489	-0.025363	0.000105
C98	C	0.551489	0.474637	0.500105
C99	C	-0.030025	-0.087920	0.000095
C100	C	0.469975	0.412080	0.500095
C101	C	-0.061122	-0.151217	0.000086
C102	C	0.438878	0.348783	0.500086
C103	C	-0.041803	-0.215255	0.000078
C104	C	0.458197	0.284745	0.500078
C105	C	0.008611	-0.215995	0.000072
C106	C	0.508611	0.284005	0.500072
C107	C	0.032169	0.038675	0.000113
C108	C	0.532169	0.538675	0.500113
C109	C	-0.018246	0.039409	0.000118
C110	C	0.481754	0.539409	0.500118
C111	C	-0.049343	-0.023888	0.000109
C112	C	0.450657	0.476112	0.500109
C113	C	0.659186	-0.083341	0.000087
C114	C	1.159186	0.416659	0.500087
C115	C	0.712843	-0.084140	0.000091
C116	C	1.212843	0.415860	0.500091
N117	N	0.570784	-0.089383	0.189775
N118	N	1.070784	0.410617	0.689775
C119	C	0.617488	0.161001	0.000109
C120	C	1.117488	0.661001	0.500109
C121	C	0.616746	0.233820	0.000097
C122	C	1.116746	0.733820	0.500097
C123	C	0.572323	0.261433	0.000089
C124	C	1.072323	0.761433	0.500089
C125	C	0.528639	0.216220	0.000074
C126	C	1.028639	0.716220	0.500074
C127	C	0.529382	0.143403	0.000079
C128	C	1.029382	0.643403	0.500079
N129	N	0.538363	0.369223	0.041521
N130	N	1.038363	0.869223	0.541521
N131	N	0.537660	0.438397	0.041518
N132	N	1.037660	0.938397	0.541518
C133	C	0.570081	0.480827	0.000074
C134	C	1.070081	0.980827	0.500074
N135	N	0.603240	0.451471	-0.041359
N136	N	1.103240	0.951471	0.458641
N137	N	0.603944	0.382291	-0.041353
N138	N	1.103944	0.882291	0.458647
C139	C	0.571512	0.340390	0.000084
C140	C	1.071512	0.840390	0.500084
C141	C	0.612959	0.604989	0.000071
C142	C	1.112959	1.104989	0.500071
C143	C	0.612215	0.677809	0.000054
C144	C	1.112215	1.177809	0.500054
C145	C	0.524106	0.660208	0.000039
C146	C	1.024106	1.160208	0.500039
C147	C	0.524851	0.587390	0.000048
C148	C	1.024851	1.087390	0.500048
C149	C	0.569279	0.559785	0.000067
C150	C	1.069279	1.059785	0.500067
N151	N	0.570820	-0.089396	-0.189626
N152	N	1.070820	0.410604	0.310374
C153	C	0.603757	-0.041585	0.228096
C154	C	1.103757	0.458415	0.728096
C155	C	0.603760	-0.041582	0.304741
C156	C	1.103760	0.458418	0.804741
C157	C	0.570795	-0.089389	0.343062
C158	C	1.070795	0.410611	0.843062
C159	C	0.537817	-0.137191	0.304732
C160	C	1.037817	0.362809	0.804732
C161	C	0.537811	-0.137188	0.228088
C162	C	1.037811	0.362812	0.728088
N163	N	0.564512	-0.151236	0.463385
N164	N	1.064512	0.348764	0.963385
N165	N	0.564520	-0.151237	0.536193
N166	N	1.064520	0.348763	1.036193
C167	C	0.570809	-0.089399	0.573984
C168	C	1.070809	0.410601	1.073984
N169	N	0.577099	-0.027558	0.536217
N170	N	1.077099	0.472442	1.036217
N171	N	0.577093	-0.027559	0.463403
N172	N	1.077093	0.472441	0.963403
C173	C	0.570797	-0.089397	0.426169
C174	C	1.070797	0.410603	0.926169
C175	C	0.603786	-0.041593	0.695412
C176	C	1.103786	0.458407	1.195412
C177	C	0.603786	-0.041589	0.772058
C178	C	1.103786	0.458411	1.272058
C179	C	0.537845	-0.137204	0.772048
C180	C	1.037845	0.362796	1.272048
C181	C	0.537843	-0.137202	0.695403
C182	C	1.037843	0.362798	1.195403
C183	C	0.570816	-0.089397	0.657090
C184	C	1.070816	0.410603	1.157090
H185	H	0.413385	-0.210095	0.000030
H186	H	0.913385	0.289905	0.500030
H187	H	0.510960	-0.176112	0.196887
H188	H	1.010960	0.323888	0.696887
H189	H	0.510996	-0.176126	0.664201
H190	H	1.010996	0.323874	1.164201
O191	O	0.635770	0.004819	0.809399
O192	O	1.135770	0.504819	1.309399
C193	C	0.628712	-0.005441	0.885263
C194	C	1.128712	0.494559	1.385263
H195	H	0.590227	-0.031914	0.895733
H196	H	1.090227	0.468086	1.395733
H197	H	0.634208	0.047489	0.914402
H198	H	1.134208	0.547489	1.414402
H199	H	0.655993	-0.040193	0.907000
H200	H	1.155993	0.459807	1.407000
H201	H	-0.180328	0.029967	0.000113
H202	H	0.319672	0.529967	0.500113
H203	H	0.647785	0.714613	0.000059
H204	H	1.147785	1.214613	0.500059
O205	O	0.660656	0.134222	-0.000009
O206	O	1.160656	0.634222	0.499991
C207	C	0.687287	0.157373	-0.063055
C208	C	1.187287	0.657373	0.436945
H209	H	0.661311	0.172230	-0.107139
H210	H	1.161311	0.672230	0.392861
H211	H	0.707763	0.113475	-0.084216
H212	H	1.207763	0.613475	0.415784
H213	H	0.714319	0.205132	-0.048793
H214	H	1.214319	0.705132	0.451207
O215	O	0.079216	-0.278948	0.000176
O216	O	0.579216	0.221052	0.500176
C217	C	0.049685	-0.282337	0.063223
C218	C	0.549685	0.217663	0.563223
H219	H	0.068211	-0.246429	0.107313
H220	H	0.568211	0.253571	0.607313
H221	H	0.043908	-0.338642	0.084373
H222	H	0.543908	0.161358	0.584373
H223	H	0.013055	-0.264680	0.048966
H224	H	0.513055	0.235320	0.548966
H225	H	-0.067131	-0.266794	0.000067
H226	H	0.432869	0.233206	0.500067
O227	O	0.656124	0.578200	-0.000052
O228	O	1.156124	1.078200	0.499948
C229	C	0.682751	0.601342	-0.063105
C230	C	1.182751	1.101342	0.436895
H231	H	0.656773	0.616202	-0.107184
H232	H	1.156773	1.116202	0.392816
H233	H	0.703221	0.557438	-0.084268
H234	H	1.203221	1.057438	0.415732
H235	H	0.709788	0.649098	-0.048851
H236	H	1.209788	1.149098	0.451149
H237	H	0.117285	0.089353	0.000129
H238	H	0.617285	0.589353	0.500129
O239	O	0.482377	0.543575	0.000079
O240	O	0.982377	1.043575	0.500079
C241	C	0.443008	0.583559	0.000051
C242	C	0.943008	1.083559	0.500051
H243	H	0.455390	0.638051	0.023101
H244	H	0.955390	1.138051	0.523101
H245	H	0.412409	0.556374	0.035399
H246	H	0.912409	1.056374	0.535399
H247	H	0.429389	0.588583	-0.058367
H248	H	0.929389	1.088583	0.441633
H249	H	-0.271783	0.031307	0.000101
H250	H	0.228217	0.531307	0.500101
O251	O	0.635801	0.004923	0.190993
O252	O	1.135801	0.504923	0.690993
C253	C	0.664912	0.047101	0.241258
C254	C	1.164912	0.547101	0.741258
H255	H	0.645101	0.047688	0.295897
H256	H	1.145101	0.547688	0.795897
H257	H	0.672405	0.102937	0.219128
H258	H	1.172405	0.602937	0.719128
H259	H	0.700770	0.024785	0.249392
H260	H	1.200770	0.524785	0.749392
H261	H	0.487936	0.682690	0.000029
H262	H	0.987936	1.182690	0.500029
O263	O	-0.036948	0.101669	0.000034
O264	O	0.463052	0.601669	0.500034
C265	C	-0.021054	0.140216	-0.063029
C266	C	0.478946	0.640216	0.436971
H267	H	0.013874	0.121568	-0.084066
H268	H	0.513874	0.621568	0.415934
H269	H	-0.013934	0.198435	-0.048831
H270	H	0.486066	0.698435	0.451169
H271	H	-0.050248	0.131815	-0.107184
H272	H	0.449752	0.631815	0.392816
O273	O	0.635813	0.004756	0.342053
O274	O	1.135813	0.504756	0.842053
C275	C	0.665561	-0.032348	0.386353
C276	C	1.165561	0.467652	0.886353
H277	H	0.646190	-0.087174	0.397827
H278	H	1.146190	0.412826	0.897827
H279	H	0.673276	-0.003131	0.440255
H280	H	1.173276	0.496869	0.940255
H281	H	0.701270	-0.036740	0.356803
H282	H	1.201270	0.463260	0.856803
O283	O	0.317109	-0.218768	0.000010
O284	O	0.817109	0.281232	0.500010
C285	C	0.344979	-0.275440	0.000013
C286	C	0.844979	0.224560	0.500013
H287	H	0.382644	-0.257292	-0.023035
H288	H	0.882644	0.242708	0.476965
H289	H	0.326298	-0.319758	-0.035349
H290	H	0.826298	0.180242	0.464651
H291	H	0.348530	-0.295098	0.058423
H292	H	0.848530	0.204902	0.558423
O293	O	0.505775	-0.183535	0.342035
O294	O	1.005775	0.316465	0.842035
C295	C	0.476034	-0.146439	0.386375
C296	C	0.976034	0.353561	0.886375
H297	H	0.495405	-0.091612	0.397865
H298	H	0.995405	0.408388	0.897865
H299	H	0.468330	-0.175660	0.440265
H300	H	0.968330	0.324340	0.940265
H301	H	0.440319	-0.142047	0.356850
H302	H	0.940319	0.357953	0.856850
H303	H	0.630634	-0.002666	0.664216
H304	H	1.130634	0.497334	1.164216
H305	H	0.511003	-0.176126	0.803249
H306	H	1.011003	0.323874	1.303249
O307	O	0.439578	0.030946	0.000040
O308	O	0.939578	0.530946	0.500040
C309	C	0.411722	0.087633	0.000073
C310	C	0.911722	0.587633	0.500073
H311	H	0.374056	0.069504	-0.022982
H312	H	0.874056	0.569504	0.477018
H313	H	0.430414	0.131947	-0.035269
H314	H	0.930414	0.631947	0.464731
H315	H	0.408172	0.107289	0.058493
H316	H	0.908172	0.607289	0.558493
O317	O	0.213561	0.098014	0.000096
O318	O	0.713561	0.598014	0.500096
C319	C	0.185696	0.154691	0.000127
C320	C	0.685696	0.654691	0.500127
H321	H	0.148030	0.136549	-0.022923
H322	H	0.648030	0.636549	0.477077
H323	H	0.204379	0.199007	-0.035218
H324	H	0.704379	0.699007	0.464782
H325	H	0.182145	0.174348	0.058547
H326	H	0.682145	0.674348	0.558547
O327	O	0.027291	-0.278268	0.000094
O328	O	0.527291	0.221732	0.500094
C329	C	-0.010975	-0.333968	0.000069
C330	C	0.489025	0.166032	0.500069
H331	H	-0.045184	-0.314764	0.023124
H332	H	0.454816	0.185236	0.523124
H333	H	-0.000534	-0.378714	0.035414
H334	H	0.499466	0.121286	0.535414
H335	H	-0.018149	-0.353469	-0.058349
H336	H	0.481851	0.146531	0.441651
O337	O	0.178534	-0.280487	0.000081
O338	O	0.678534	0.219513	0.500081
C339	C	0.140268	-0.336188	0.000058
C340	C	0.640268	0.163812	0.500058
H341	H	0.106058	-0.316982	0.023110
H342	H	0.606058	0.183018	0.523110
H343	H	0.150707	-0.380931	0.035407
H344	H	0.650707	0.119069	0.535407
H345	H	0.133095	-0.355693	-0.058358
H346	H	0.633095	0.144307	0.441642
O347	O	0.340197	0.032299	0.000177
O348	O	0.840197	0.532299	0.500177
C349	C	0.311401	0.036549	0.063256
C350	C	0.811401	0.536549	0.563256
H351	H	0.298732	-0.018618	0.084272
H352	H	0.798732	0.481382	0.584272
H353	H	0.278442	0.064021	0.049087
H354	H	0.778442	0.564021	0.549087
H355	H	0.333743	0.067682	0.107415
H356	H	0.833743	0.567682	0.607415
H357	H	-0.293166	-0.199722	0.000075
H358	H	0.206834	0.300278	0.500075
O359	O	-0.198739	-0.211195	0.000100
O360	O	0.301261	0.288805	0.500100
C361	C	-0.237003	-0.266899	0.000070
C362	C	0.262997	0.233101	0.500070
H363	H	-0.271214	-0.247698	0.023122
H364	H	0.228786	0.252302	0.523122
H365	H	-0.226562	-0.311644	0.035414
H366	H	0.273438	0.188356	0.535414
H367	H	-0.244173	-0.286398	-0.058349
H368	H	0.255827	0.213602	0.441651
H369	H	0.652316	0.270631	0.000103
H370	H	1.152316	0.770631	0.500103
O371	O	0.485456	0.242957	0.000164
O372	O	0.985456	0.742957	0.500164
C373	C	0.458835	0.219837	0.063229
C374	C	0.958835	0.719837	0.563229
H375	H	0.471897	0.169473	0.084258
H376	H	0.971897	0.669473	0.584258
H377	H	0.418562	0.209293	0.049036
H378	H	0.918562	0.709293	0.549036
H379	H	0.464517	0.262048	0.107387
H380	H	0.964517	0.762048	0.607387
O381	O	0.486995	0.099390	0.000040
O382	O	0.986995	0.599390	0.500040
C383	C	0.497178	0.029200	0.000069
C384	C	0.997178	0.529200	0.500069
H385	H	0.535142	0.026812	-0.022974
H386	H	1.035142	0.526812	0.477026
H387	H	0.469331	-0.004105	-0.035285
H388	H	0.969331	0.495895	0.464715
H389	H	0.495294	0.008135	0.058486
H390	H	0.995294	0.508135	0.558486
H391	H	0.057484	0.090220	0.000122
H392	H	0.557484	0.590220	0.500122
