data_functionalizedCrystal
_audit_creation_method	'MofGen! by Chris Wilmer'
_symmetry_space_group_name_H-M	'P1'
_symmetry_Int_Tables_number	1
_symmetry_cell_setting	triclinic
loop_
_symmetry_equiv_pos_as_xyz
  x,y,z
_cell_length_a	12.784905
_cell_length_b	12.837942
_cell_length_c	15.455313
_cell_angle_alpha	92.949088
_cell_angle_beta	87.600067
_cell_angle_gamma	83.968130
loop_
_atom_site_label
_atom_site_type_symbol
_atom_site_fract_x
_atom_site_fract_y
_atom_site_fract_z
O1	O	1.415129	0.001526	-0.072136
O2	O	1.110129	0.045518	-0.072136
O3	O	1.255866	-0.126770	-0.072131
O4	O	1.269392	0.173815	-0.072141
O5	O	1.247528	-0.116955	0.072131
O6	O	1.101792	0.055334	0.072125
O7	O	1.406791	0.011341	0.072126
Cu8	Cu	1.253530	0.034234	0.085298
Cu9	Cu	1.263390	0.022626	-0.085308
O10	O	1.261055	0.183630	0.072120
C11	C	1.066651	0.053287	-0.000006
C12	C	0.949519	0.061800	-0.000006
C13	C	0.735569	-0.111643	-0.000015
C14	C	0.625514	-0.103649	-0.000015
C15	C	0.619352	0.085780	-0.000012
C16	C	0.729407	0.077786	-0.000012
C17	C	0.787512	-0.020929	-0.000012
C18	C	0.897569	-0.028921	-0.000006
C19	C	0.891405	0.160507	-0.000009
C20	C	0.781350	0.168501	-0.000009
C21	C	1.247128	-0.160072	-0.000000
C22	C	1.233500	-0.273920	-0.000002
C23	C	1.397332	-0.529648	-0.000020
C24	C	1.384533	-0.636620	-0.000021
C25	C	1.195102	-0.594840	-0.000012
C26	C	1.207902	-0.487867	-0.000011
C27	C	1.309020	-0.455276	-0.000013
C28	C	1.321818	-0.348301	-0.000006
C29	C	1.132389	-0.306524	-0.000003
C30	C	1.119590	-0.413496	-0.000005
C31	C	1.450270	0.003573	-0.000007
C32	C	1.567401	-0.004941	-0.000012
C33	C	1.269793	0.216931	-0.000012
C34	C	1.283421	0.330780	-0.000016
N35	N	1.246603	0.042396	0.205293
N36	N	1.270325	0.014455	-0.205304
C37	C	1.308543	-0.030775	0.250690
C38	C	1.303315	-0.024594	0.341497
C39	C	1.236151	0.054765	0.386907
C40	C	1.174204	0.127941	0.341504
C41	C	1.179427	0.121754	0.250698
C42	C	1.213602	0.081443	0.658487
C43	C	1.208385	0.087626	0.749300
C44	C	1.337495	-0.064910	0.749287
C45	C	1.342717	-0.071086	0.658479
C46	C	1.280766	0.002086	0.613084
N47	N	1.230807	0.061088	0.479727
N48	N	1.286105	-0.004242	0.520266
H49	H	0.933709	0.234374	-0.000002
Cl50	Cl	1.067995	-0.635834	-0.000035
Cl51	Cl	1.427154	-0.170851	0.601393
H52	H	1.387932	-0.124484	0.786256
Cl53	Cl	0.970614	-0.153018	-0.000004
H54	H	1.479666	-0.503111	-0.000013
Cl55	Cl	1.495559	-0.730114	-0.000032
H56	H	1.037262	-0.440048	-0.000006
H57	H	0.782879	-0.192020	-0.000009
Cl58	Cl	0.708295	0.292592	-0.000014
Cl59	Cl	1.392987	-0.130542	0.193613
Cl60	Cl	1.381182	-0.116584	0.398569
H61	H	0.583226	-0.177519	-0.000019
H62	H	0.572025	0.166148	-0.000024
Cl63	Cl	1.123944	0.187403	0.806380
Cl64	Cl	1.448936	-0.307329	-0.000003
Cl65	Cl	1.135727	0.173432	0.601426
Cl66	Cl	1.089762	0.227704	0.398588
H67	H	1.060479	-0.245957	0.000009
H68	H	1.128987	0.181337	0.213737
