data_functionalizedCrystal
_audit_creation_method	'MofGen! by Chris Wilmer'
_symmetry_space_group_name_H-M	'P1'
_symmetry_Int_Tables_number	1
_symmetry_cell_setting	triclinic
loop_
_symmetry_equiv_pos_as_xyz
  x,y,z
_cell_length_a	20.919287
_cell_length_b	19.851628
_cell_length_c	20.919320
_cell_angle_alpha	57.439000
_cell_angle_beta	86.847435
_cell_angle_gamma	58.217073
loop_
_atom_site_label
_atom_site_type_symbol
_atom_site_fract_x
_atom_site_fract_y
_atom_site_fract_z
Zr1	Zr	0.612038	0.747366	-0.122544
O2	O	0.505919	0.896118	-0.222828
O3	O	0.644562	0.604317	-0.091799
O4	O	0.639174	0.756216	-0.230471
O5	O	0.515565	0.735249	0.025228
O6	O	0.744296	0.756711	-0.236502
O7	O	0.511307	0.744218	-0.084157
O8	O	0.753934	0.484990	0.011557
O9	O	0.505927	1.006970	-0.222830
O10	O	0.736893	0.661413	-0.083190
O11	O	0.661620	0.654349	0.002943
O12	O	0.655276	0.833192	-0.160325
O13	O	0.580002	0.826129	-0.074191
Zr14	Zr	0.786487	0.733850	0.042294
Zr15	Zr	0.779696	0.748156	-0.132162
Zr16	Zr	0.618829	0.733061	0.051912
Zr17	Zr	0.612051	0.924162	-0.122547
Zr18	Zr	0.786474	0.557055	0.042297
O19	O	0.753963	0.876900	0.011550
O20	O	0.744307	0.897240	-0.236504
O21	O	0.515575	0.875778	0.025226
O22	O	0.892606	0.585099	0.142579
O23	O	0.882950	0.605439	-0.105475
O24	O	0.654218	0.583976	0.156255
O25	O	0.882960	0.745968	-0.105478
O26	O	0.759351	0.725000	0.150222
O27	O	0.654229	0.724505	0.156252
O28	O	0.887219	0.736999	0.003907
O29	O	0.639193	1.007597	-0.230475
O30	O	0.759332	0.473620	0.150226
O31	O	0.892598	0.474247	0.142581
O32	O	0.887200	0.485618	0.003912
O33	O	0.511325	0.995599	-0.084161
O34	O	0.644591	0.996226	-0.091806
O35	O	0.743249	0.648025	0.080075
O36	O	0.818523	0.655088	-0.006058
O37	O	0.736906	0.826867	-0.083193
O38	O	0.661632	0.819804	0.002941
C39	C	0.699246	0.519464	-0.040121
C40	C	0.699240	0.444409	-0.040120
C41	C	0.658216	0.214298	0.006842
C42	C	0.733228	0.201678	0.034879
C43	C	0.699272	0.174232	-0.040126
C44	C	0.624256	0.320568	-0.068122
C45	C	0.699253	0.306980	-0.040121
C46	C	0.774329	0.160573	-0.012047
C47	C	0.665302	0.279513	-0.115087
C48	C	0.740357	0.266860	-0.087071
C49	C	0.699282	0.097758	-0.040126
C50	C	0.699251	0.383447	-0.040120
C51	C	0.489548	0.739621	-0.028094
C52	C	0.418373	0.739286	-0.024011
C53	C	0.382588	0.744073	-0.082355
C54	C	0.315714	0.743753	-0.078514
C55	C	0.284622	0.738653	-0.016332
C56	C	0.320413	0.733863	0.042018
C57	C	0.387289	0.734176	0.038180
C58	C	0.082819	0.737454	-0.001727
C59	C	0.015937	0.737144	0.002106
C60	C	0.011243	0.747032	-0.118426
C61	C	0.078118	0.747351	-0.122261
C62	C	0.113906	0.742555	-0.063909
C63	C	0.216265	0.738329	-0.012407
C64	C	0.182265	0.742873	-0.067832
C65	C	0.908977	0.741596	-0.052156
C66	C	0.980152	0.741931	-0.056239
C67	C	0.690767	0.758502	-0.258343
C68	C	0.687884	0.764575	-0.332404
C69	C	0.699279	0.961753	-0.040128
C70	C	0.699285	1.036807	-0.040130
C71	C	0.669394	0.803452	-0.753312
C72	C	0.672109	0.797739	-0.683720
C73	C	0.716075	0.705213	-0.608663
C74	C	0.757322	0.618396	-0.603199
C75	C	0.754603	0.624111	-0.672789
C76	C	0.726413	0.683473	-0.396530
C77	C	0.729131	0.677764	-0.326938
C78	C	0.643915	0.857108	-0.407464
C79	C	0.641204	0.862814	-0.477052
C80	C	0.682448	0.775997	-0.471582
C81	C	0.718852	0.699371	-0.537528
C82	C	0.679666	0.781841	-0.542715
C83	C	0.707758	0.722715	0.178093
C84	C	0.710641	0.716642	0.252154
C85	C	0.908961	0.520451	-0.052152
C86	C	0.980130	0.445732	-0.056234
C87	C	0.707741	0.501570	0.178097
C88	C	0.710619	0.420443	0.252160
C89	C	0.917456	0.502558	0.166066
C90	C	0.991509	0.421765	0.236045
C91	C	0.481069	0.978659	-0.246315
C92	C	0.407017	1.059451	-0.316295
C93	C	0.489564	0.960766	-0.028098
C94	C	0.418395	1.035485	-0.024016
C95	C	0.690784	0.979647	-0.258346
C96	C	0.687906	1.060774	-0.332409
C97	C	0.970942	0.413945	-0.098420
C98	C	1.037807	0.343749	-0.102271
C99	C	1.113858	0.305337	-0.063931
C100	C	1.123045	0.337131	-0.021743
C101	C	1.056181	0.407330	-0.017897
C102	C	0.754580	0.379043	0.327210
C103	C	0.757281	0.302824	0.396806
C104	C	0.716025	0.268003	0.391350
C105	C	0.672058	0.309410	0.316292
C106	C	0.669353	0.385632	0.246698
C107	C	1.065584	0.387511	0.223947
C108	C	1.135170	0.311609	0.289693
C109	C	1.130680	0.269957	0.367537
C110	C	1.056597	0.304218	0.379634
C111	C	0.987012	0.380124	0.313888
C112	C	0.332941	1.093714	-0.304197
C113	C	0.263355	1.169638	-0.369943
C114	C	0.267845	1.211294	-0.447786
C115	C	0.341928	1.177029	-0.459883
C116	C	0.411513	1.101110	-0.394138
C117	C	0.427583	1.067280	0.018163
C118	C	0.360718	1.137497	0.021996
C119	C	0.284666	1.175912	-0.016347
C120	C	0.275479	1.144114	-0.058532
C121	C	0.342343	1.073904	-0.062368
C122	C	0.729172	1.095571	-0.326928
C123	C	0.726483	1.171789	-0.396511
C124	C	0.682525	1.213213	-0.471575
C125	C	0.641258	1.178409	-0.477055
C126	C	0.643952	1.102188	-0.407472
H127	H	0.837792	0.092237	0.011709
H128	H	1.063674	0.433201	0.016460
H129	H	0.680338	1.275277	-0.528228
O130	O	0.718961	0.185781	0.466422
H131	H	0.657987	0.212552	0.469893
H132	H	0.638469	0.281047	0.311862
O133	O	0.770995	1.209318	-0.390591
H134	H	0.748634	1.238574	-0.355452
O135	O	0.182721	0.732838	0.054654
H136	H	0.228531	0.663480	0.112924
H137	H	0.610345	1.073864	-0.411946
O138	O	0.804718	0.258155	0.477755
H139	H	0.832964	0.295163	0.469848
H140	H	0.788177	0.407385	0.331667
O141	O	0.786374	0.297076	-0.139723
H142	H	0.848583	0.231177	-0.116321
O143	O	0.332422	1.039614	-0.107861
H144	H	0.391688	0.984342	-0.104098
O145	O	-0.017594	0.731638	0.069181
H146	H	-0.070115	0.732239	0.062038
O147	O	1.027891	0.309460	-0.147771
H148	H	0.996385	0.275148	-0.121268
H149	H	0.793117	0.543060	-0.542081
H150	H	1.184975	0.305845	0.009471
H151	H	0.103432	0.751503	-0.172895
O152	O	0.212559	1.251613	-0.012176
H153	H	0.211576	1.318051	-0.038826
O154	O	0.799107	0.530481	-0.666901
H155	H	0.830147	0.465181	-0.603020
O156	O	1.205738	0.188073	0.438443
H157	H	1.207145	0.212114	0.475195
O158	O	0.622061	0.430151	0.165744
H159	H	0.593881	0.393074	0.173648
H160	H	1.069255	0.421414	0.160569
H161	H	1.195485	0.283722	0.279830
H162	H	0.754652	0.624036	-0.476410
H163	H	0.213549	1.175403	-0.089749
O164	O	0.621974	0.903255	-0.834260
H165	H	0.662000	0.910361	-0.870377
H166	H	0.605468	1.212148	-0.538181
O167	O	1.051758	0.259277	0.463595
H168	H	1.112594	0.200731	0.507271
O169	O	0.491409	1.064145	-0.407190
H170	H	0.482832	1.105862	-0.472366
O171	O	0.627233	0.322091	-0.199039
H172	H	0.564945	0.387720	-0.222155
O173	O	0.425888	0.729008	0.101113
H174	H	0.477621	0.730069	0.088004
H175	H	0.926700	0.408003	0.323750
H176	H	1.168297	0.248175	-0.067068
O177	O	0.183457	1.206571	-0.356887
H178	H	0.192032	1.164830	-0.291712
H179	H	0.211179	1.273111	-0.501313
H180	H	0.764967	1.061855	-0.265813
O181	O	0.540233	0.411121	-0.099503
H182	H	0.506291	0.389804	-0.060419
H183	H	0.329270	1.059802	-0.240818
H184	H	0.345575	1.210954	-0.523271
O185	O	0.632253	0.881629	-0.623669
H186	H	0.569038	0.923332	-0.627142
O187	O	0.509603	1.025874	0.059511
H188	H	0.518954	0.988424	0.124612
O189	O	0.612324	0.183780	0.059499
H190	H	0.640697	0.150741	0.121704
H191	H	0.761971	0.169479	0.098281
H192	H	0.407895	0.748232	-0.132993
H193	H	0.368213	1.163374	0.056349
H194	H	0.286579	0.747649	-0.126022
H195	H	-0.017900	0.750935	-0.165933
H196	H	0.909022	0.445221	-0.129652
H197	H	0.111951	0.733552	0.045785
H198	H	0.207585	0.747020	-0.118459
O199	O	0.286887	0.728357	0.109091
H200	H	0.224679	0.795029	0.083620
O201	O	0.627618	0.891369	-0.689612
H202	H	0.596596	0.956667	-0.753495
H203	H	0.605403	0.938158	-0.538163
H204	H	0.610335	0.927789	-0.411908
H205	H	0.760000	0.612780	-0.392065
O206	O	0.776547	0.577965	-0.245977
H207	H	0.804763	0.518555	-0.253863
