data_functionalizedCrystal
_audit_creation_method	'MofGen! by Chris Wilmer'
_symmetry_space_group_name_H-M	'P1'
_symmetry_Int_Tables_number	1
_symmetry_cell_setting	triclinic
loop_
_symmetry_equiv_pos_as_xyz
  x,y,z
_cell_length_a	13.262390
_cell_length_b	17.038272
_cell_length_c	12.377033
_cell_angle_alpha	102.108431
_cell_angle_beta	94.189316
_cell_angle_gamma	87.643524
loop_
_atom_site_label
_atom_site_type_symbol
_atom_site_fract_x
_atom_site_fract_y
_atom_site_fract_z
O1	O	1.303196	0.183852	0.494656
O2	O	1.016268	0.181305	0.406445
O3	O	1.158028	0.068672	0.450017
O4	O	1.161436	0.296485	0.451083
O5	O	1.193430	0.040558	0.272903
O6	O	1.051670	0.153191	0.229330
O7	O	1.338598	0.155738	0.317541
Zn8	Zn	1.200755	0.150001	0.245315
Zn9	Zn	1.154111	0.187042	0.478671
O10	O	1.196837	0.268371	0.273968
C11	C	0.997075	0.164806	0.306545
C12	C	0.887141	0.157519	0.272748
C13	C	0.500070	0.198272	0.563675
C14	C	0.603359	0.205114	0.595431
C15	C	0.674309	0.193216	0.514763
C16	C	0.641962	0.174475	0.402333
C17	C	0.538664	0.167625	0.370574
C18	C	0.712902	0.162570	0.321662
C19	C	0.680555	0.143828	0.209232
C20	C	0.577267	0.136980	0.177479
C21	C	0.506317	0.148878	0.258147
C22	C	0.816200	0.169419	0.353421
C23	C	0.854794	0.138772	0.160320
C24	C	0.751506	0.131930	0.128564
C25	C	1.172627	0.025324	0.360507
C26	C	1.163372	-0.061954	0.357662
C27	C	1.248343	-0.107611	0.383783
C28	C	1.239639	-0.189617	0.381118
C29	C	1.145965	-0.225965	0.352324
C30	C	1.060988	-0.180301	0.326203
C31	C	1.069691	-0.098296	0.328876
C32	C	1.115217	-0.473333	0.342886
C33	C	1.106521	-0.555345	0.340212
C34	C	1.285173	-0.564654	0.395129
C35	C	1.293869	-0.482648	0.397793
C36	C	1.208891	-0.436991	0.371678
C37	C	1.137067	-0.309788	0.349595
C38	C	1.217788	-0.353168	0.374414
C39	C	1.357791	0.172237	0.417443
C40	C	1.467723	0.179525	0.451248
C41	C	1.182238	0.311719	0.363481
C42	C	1.191492	0.398998	0.366333
N43	N	1.232595	0.124721	0.086058
C44	C	1.048340	0.271019	-0.325646
C45	C	1.026037	0.288718	-0.214172
C46	C	1.077675	0.247720	-0.139109
C47	C	1.151619	0.189020	-0.175531
C48	C	1.173920	0.171315	-0.287018
C49	C	1.203254	0.148017	-0.100481
C50	C	1.277199	0.089317	-0.136903
C51	C	1.299496	0.071615	-0.248379
C52	C	1.247858	0.112612	-0.323442
C53	C	1.180954	0.165722	0.011006
C54	C	1.306533	0.066018	0.049634
C55	C	1.328837	0.048319	-0.061840
N56	N	1.122279	0.212316	0.637930
H57	H	0.912563	0.129083	0.094633
C58	C	0.851775	0.190040	0.477087
C59	C	0.911950	0.266525	0.523785
C60	C	0.947523	0.287150	0.647459
C61	C	0.922920	0.231290	0.724434
C62	C	0.862741	0.154800	0.677737
C63	C	0.827169	0.134175	0.554063
H64	H	0.930166	0.307881	0.466802
H65	H	0.992071	0.343774	0.682026
H66	H	0.949252	0.246557	0.815985
H67	H	0.844525	0.113444	0.734720
H68	H	0.782620	0.077551	0.519495
C69	C	1.363342	0.020917	0.132194
C70	C	1.338832	0.040404	0.254823
C71	C	1.395633	-0.004694	0.337389
C72	C	1.476945	-0.069280	0.297325
C73	C	1.501460	-0.088771	0.174689
C74	C	1.444658	-0.043672	0.092124
H75	H	1.278636	0.088217	0.284486
H76	H	1.377485	0.009734	0.428172
H77	H	1.518992	-0.102665	0.358445
H78	H	1.561655	-0.136584	0.145026
H79	H	1.462806	-0.058101	0.001341
H80	H	1.354357	-0.601837	0.416392
H81	H	0.550936	0.121705	0.085932
C82	C	0.991541	0.316110	-0.408211
C83	C	1.016235	0.296770	-0.530784
C84	C	0.959428	0.341865	-0.613350
C85	C	0.877927	0.406300	-0.573343
C86	C	0.853229	0.425644	-0.450764
C87	C	0.910036	0.380549	-0.368198
H88	H	1.076571	0.249068	-0.560404
H89	H	0.977712	0.327545	-0.704091
H90	H	0.835875	0.439682	-0.634464
H91	H	0.792893	0.473345	-0.421144
H92	H	0.891752	0.394868	-0.277457
H93	H	1.266020	0.098205	-0.414213
H94	H	1.000498	-0.061122	0.307606
H95	H	0.725153	0.116669	0.037022
H96	H	1.030240	-0.584939	0.316746
C97	C	0.957946	-0.220284	0.294531
C98	C	0.903829	-0.219770	0.180275
C99	C	0.800786	-0.259752	0.148599
C100	C	0.751860	-0.300248	0.231179
C101	C	0.805976	-0.300764	0.345442
C102	C	0.909019	-0.260781	0.377118
H103	H	0.940048	-0.189790	0.119138
H104	H	0.760726	-0.259370	0.064014
H105	H	0.675581	-0.329846	0.207731
H106	H	0.769758	-0.330743	0.406579
H107	H	0.949079	-0.261163	0.461704
H108	H	1.359698	0.023812	-0.278035
C109	C	1.320829	-0.313189	0.406085
C110	C	1.374952	-0.313697	0.520339
C111	C	1.477995	-0.273711	0.552004
C112	C	1.526913	-0.233218	0.469414
C113	C	1.472789	-0.232709	0.355153
C114	C	1.369746	-0.272695	0.323488
H115	H	1.338741	-0.343673	0.581483
H116	H	1.518061	-0.274087	0.636588
H117	H	1.603191	-0.203618	0.492855
H118	H	1.509001	-0.202733	0.294009
H119	H	1.329680	-0.272318	0.238904
C120	C	1.034031	-0.349779	0.317915
C121	C	0.979917	-0.349280	0.203654
C122	C	0.876883	-0.389276	0.171978
C123	C	0.827961	-0.429770	0.254563
C124	C	0.882075	-0.430271	0.368832
C125	C	0.985110	-0.390275	0.400508
H126	H	1.016132	-0.319302	0.142513
H127	H	0.836824	-0.388905	0.087388
H128	H	0.751689	-0.459378	0.231115
H129	H	0.845861	-0.460249	0.429973
H130	H	1.025169	-0.390646	0.485097
C131	C	1.396915	-0.442672	0.429475
C132	C	1.445854	-0.402184	0.346895
C133	C	1.548902	-0.362211	0.378574
C134	C	1.603012	-0.362726	0.492833
C135	C	1.554073	-0.403216	0.575420
C136	C	1.451024	-0.443189	0.543741
H137	H	1.405799	-0.401801	0.262307
H138	H	1.585130	-0.332238	0.317437
H139	H	1.679294	-0.333136	0.516283
H140	H	1.594128	-0.403599	0.660008
H141	H	1.414797	-0.473162	0.604879
H142	H	1.324624	-0.078024	0.407224
H143	H	1.308832	-0.226788	0.402387
C144	C	1.410169	-0.016254	-0.101912
C145	C	1.381825	-0.090520	-0.191985
C146	C	1.463157	-0.155093	-0.232057
C147	C	1.572833	-0.145400	-0.182056
C148	C	1.601182	-0.071131	-0.091977
C149	C	1.519850	-0.006558	-0.051906
H150	H	1.300631	-0.097699	-0.229003
H151	H	1.442170	-0.210072	-0.298739
H152	H	1.633039	-0.193201	-0.211719
H153	H	1.682375	-0.063953	-0.054959
H154	H	1.540837	0.048421	0.014776
H155	H	0.758410	0.198790	0.540626
H156	H	1.120747	0.213515	0.040650
H157	H	1.059512	0.262134	-0.048343
H158	H	1.046021	-0.436168	0.321621
C159	C	0.638939	0.225735	0.719095
C160	C	0.560902	0.238828	0.807830
C161	C	0.596482	0.259452	0.931501
C162	C	0.710099	0.266984	0.966438
C163	C	0.788142	0.253891	0.877701
C164	C	0.752562	0.233267	0.754030
H165	H	0.476790	0.233253	0.781969
H166	H	0.538709	0.269145	0.997190
H167	H	0.736437	0.282251	1.057987
H168	H	0.872254	0.259466	0.903561
H169	H	0.810336	0.223575	0.688341
H170	H	0.965831	0.336510	-0.184522
H171	H	0.442296	0.207950	0.629343
H172	H	0.422209	0.143310	0.232297
