data_functionalizedCrystal
_audit_creation_method	'MofGen! by Chris Wilmer'
_symmetry_space_group_name_H-M	'P1'
_symmetry_Int_Tables_number	1
_symmetry_cell_setting	triclinic
loop_
_symmetry_equiv_pos_as_xyz
  x,y,z
_cell_length_a	14.971486
_cell_length_b	9.130313
_cell_length_c	10.654550
_cell_angle_alpha	89.995631
_cell_angle_beta	84.049530
_cell_angle_gamma	90.001434
loop_
_atom_site_label
_atom_site_type_symbol
_atom_site_fract_x
_atom_site_fract_y
_atom_site_fract_z
O1	O	1.187834	-0.121630	0.163656
O2	O	1.687834	0.378370	0.663656
O3	O	0.927541	-0.121670	0.183254
O4	O	1.427541	0.378330	0.683254
O5	O	1.063672	-0.121640	-0.009348
O6	O	1.563672	0.378360	0.490652
O7	O	1.051703	-0.121660	0.356259
O8	O	1.551703	0.378340	0.856259
O9	O	1.063662	0.121959	-0.009354
O10	O	1.563662	0.621959	0.490646
O11	O	0.927531	0.121929	0.183249
O12	O	1.427531	0.621929	0.683249
O13	O	1.187825	0.121968	0.163651
O14	O	1.687825	0.621968	0.663651
Cu15	Cu	1.057677	0.144191	0.173449
Cu16	Cu	1.557677	0.644191	0.673449
Cu17	Cu	1.057688	-0.143893	0.173456
Cu18	Cu	1.557688	0.356107	0.673456
O19	O	1.051693	0.121938	0.356253
O20	O	1.551693	0.621938	0.856253
C21	C	0.894206	0.000124	0.182375
C22	C	1.394206	0.500124	0.682375
C23	C	0.794895	0.000109	0.179749
C24	C	1.294895	0.500109	0.679749
N25	N	1.057676	0.346814	0.173444
N26	N	1.557676	0.846814	0.673444
N27	N	1.057696	-0.346515	0.173451
N28	N	1.557696	0.153485	0.673451
C29	C	0.738285	0.000105	0.292898
C30	C	1.238285	0.500105	0.792898
C31	C	0.644972	0.000127	0.290422
C32	C	1.144972	0.500127	0.790422
C33	C	0.608271	0.000143	0.174797
C34	C	1.108271	0.500143	0.674797
C35	C	0.664888	0.000151	0.061639
C36	C	1.164888	0.500151	0.561639
C37	C	0.758199	0.000140	0.064116
C38	C	1.258199	0.500140	0.564116
C39	C	0.470397	0.000172	0.056485
C40	C	0.970397	0.500172	0.556485
C41	C	0.377080	0.000180	0.054007
C42	C	0.877080	0.500180	0.554007
C43	C	0.357171	0.000159	0.282791
C44	C	0.857171	0.500159	0.782791
C45	C	0.450482	0.000147	0.285268
C46	C	0.950482	0.500147	0.785268
C47	C	0.507092	0.000153	0.172110
C48	C	1.007092	0.500153	0.672110
C49	C	1.221159	0.000171	0.164530
C50	C	1.721159	0.500171	0.664530
C51	C	1.320470	0.000176	0.167156
C52	C	1.820470	0.500176	0.667156
C53	C	1.062788	0.000158	-0.056139
C54	C	1.562788	0.500158	0.443861
C55	C	1.060159	0.000156	-0.195555
C56	C	1.560159	0.500156	0.304445
C57	C	1.117975	0.423479	0.088195
C58	C	1.617975	0.923479	0.588195
C59	C	1.117984	0.576816	0.088195
C60	C	1.617984	1.076816	0.588195
C61	C	0.997390	0.576809	0.258704
C62	C	1.497390	1.076809	0.758704
C63	C	0.997378	0.423475	0.258697
C64	C	1.497378	0.923475	0.758697
C65	C	1.140311	0.000167	-0.275900
C66	C	1.640311	0.500167	0.224100
C67	C	1.137835	0.000149	-0.406894
C68	C	1.637835	0.500149	0.093106
C69	C	0.975048	0.000114	-0.377185
C70	C	1.475048	0.500114	0.122815
C71	C	0.977525	0.000121	-0.246193
C72	C	1.477525	0.500121	0.253807
C73	C	1.052577	0.000137	0.403044
C74	C	1.552577	0.500137	0.903044
C75	C	1.055206	0.000130	0.542460
C76	C	1.555206	0.500130	1.042460
H77	H	0.768160	0.000091	0.387053
H78	H	1.268160	0.500091	0.887053
H79	H	0.912251	0.000107	-0.180772
H80	H	1.412251	0.500107	0.319228
H81	H	0.948299	0.639241	0.328117
H82	H	1.448299	1.139241	0.828117
H83	H	0.598884	0.000122	0.382559
H84	H	1.098884	0.500122	0.882559
H85	H	0.480361	0.000121	0.379420
H86	H	0.980361	0.500121	0.879420
Br87	Br	0.915531	0.319417	0.374390
Br88	Br	1.415531	0.819417	0.874390
H89	H	0.347201	0.000195	-0.040145
H90	H	0.847201	0.500195	0.459855
H91	H	1.167084	0.639232	0.018777
H92	H	1.667084	1.139232	0.518777
Br93	Br	0.280344	0.000149	0.436363
Br94	Br	0.780344	0.500149	0.936363
H95	H	0.804290	0.000142	-0.028022
H96	H	1.304290	0.500142	0.471978
Br97	Br	0.547226	0.000187	-0.097088
Br98	Br	1.047226	0.500187	0.402912
H99	H	0.907770	0.000089	-0.418431
H100	H	1.407770	0.500089	0.081569
Br101	Br	1.252456	0.000215	-0.207180
Br102	Br	1.752456	0.500215	0.292820
H103	H	0.634998	0.000185	-0.032505
H104	H	1.134998	0.500185	0.467495
H105	H	1.203103	0.000156	-0.472307
H106	H	1.703103	0.500156	0.027693
Br107	Br	1.199805	0.319444	-0.027507
Br108	Br	1.699805	0.819444	0.472493
