data_functionalizedCrystal
_audit_creation_method	'MofGen! by Chris Wilmer'
_symmetry_space_group_name_H-M	'P1'
_symmetry_Int_Tables_number	1
_symmetry_cell_setting	triclinic
loop_
_symmetry_equiv_pos_as_xyz
  x,y,z
_cell_length_a	13.339070
_cell_length_b	23.532357
_cell_length_c	12.376457
_cell_angle_alpha	101.196651
_cell_angle_beta	75.589755
_cell_angle_gamma	99.228793
loop_
_atom_site_label
_atom_site_type_symbol
_atom_site_fract_x
_atom_site_fract_y
_atom_site_fract_z
O1	O	1.358829	0.277201	-0.094100
O2	O	1.858829	0.777201	0.405900
O3	O	1.064687	0.239788	-0.094086
O4	O	1.564687	0.739788	0.405914
O5	O	1.220649	0.176997	-0.094070
O6	O	1.720649	0.676997	0.405930
O7	O	1.202867	0.339992	-0.094115
O8	O	1.702867	0.839992	0.405885
O9	O	1.181673	0.192667	0.093938
O10	O	1.681673	0.692667	0.593938
O11	O	1.025710	0.255459	0.093923
O12	O	1.525710	0.755459	0.593923
O13	O	1.319852	0.292871	0.093909
O14	O	1.819852	0.792871	0.593909
Zn15	Zn	1.166593	0.276653	0.123766
Zn16	Zn	1.666593	0.776653	0.623766
Zn17	Zn	1.217946	0.256007	-0.123943
Zn18	Zn	1.717946	0.756007	0.376057
O19	O	1.163890	0.355663	0.093893
O20	O	1.663890	0.855663	0.593893
C21	C	1.007574	0.241304	-0.000079
C22	C	1.507574	0.741304	0.499921
C23	C	0.895467	0.222466	-0.000073
C24	C	1.395467	0.722466	0.499927
C25	C	1.200715	0.163544	-0.000062
C26	C	1.700715	0.663544	0.499938
C27	C	1.199375	0.100111	-0.000051
C28	C	1.699375	0.600111	0.499949
C29	C	0.529167	0.368938	-0.000132
C30	C	1.029167	0.868938	0.499868
C31	C	0.634499	0.386638	-0.000141
C32	C	1.134499	0.886638	0.499859
C33	C	0.699745	0.345597	-0.000124
C34	C	1.199745	0.845597	0.499876
C35	C	0.659651	0.286852	-0.000098
C36	C	1.159651	0.786852	0.499902
C37	C	0.554312	0.269148	-0.000097
C38	C	1.054312	0.769148	0.499903
C39	C	0.724890	0.245807	-0.000089
C40	C	1.224890	0.745807	0.499911
C41	C	0.684796	0.187062	-0.000063
C42	C	1.184796	0.687062	0.499937
C43	C	0.579466	0.169362	-0.000061
C44	C	1.079466	0.669362	0.499939
C45	C	0.514219	0.210404	-0.000079
C46	C	1.014219	0.710404	0.499921
C47	C	0.830230	0.263510	-0.000090
C48	C	1.330230	0.763510	0.499910
C49	C	0.855374	0.163721	-0.000055
C50	C	1.355374	0.663721	0.499945
C51	C	0.750043	0.146021	-0.000045
C52	C	1.250043	0.646021	0.499955
C53	C	1.212234	-0.301802	-0.102595
C54	C	1.712234	0.198198	0.397405
C55	C	1.210963	-0.361407	-0.102602
C56	C	1.710963	0.138593	0.397398
O57	O	1.228340	-0.399499	-0.189760
O58	O	1.728340	0.100501	0.310240
N59	N	1.189086	-0.382678	-0.000120
N60	N	1.689086	0.117322	0.499880
C61	C	1.168469	-0.344341	0.102375
C62	C	1.668469	0.155659	0.602375
O63	O	1.149744	-0.367907	0.189543
O64	O	1.649744	0.132093	0.689543
C65	C	1.169732	-0.284738	0.102380
C66	C	1.669732	0.215262	0.602380
C67	C	1.191621	-0.263469	-0.000108
C68	C	1.691621	0.236531	0.499892
C69	C	1.234119	-0.280533	-0.205076
C70	C	1.734119	0.219467	0.294924
C71	C	1.235391	-0.220931	-0.205069
C72	C	1.735391	0.279069	0.294931
C73	C	1.214778	-0.182599	-0.102582
C74	C	1.714778	0.317401	0.397418
C75	C	1.192893	-0.203868	-0.000101
C76	C	1.692893	0.296132	0.499899
C77	C	1.149108	-0.246403	0.204874
C78	C	1.649108	0.253597	0.704874
C79	C	1.150373	-0.186796	0.204870
C80	C	1.650373	0.313204	0.704870
C81	C	1.172261	-0.165528	0.102382
C82	C	1.672261	0.334472	0.602382
C83	C	1.173552	-0.105935	0.102392
C84	C	1.673552	0.394065	0.602392
N85	N	1.195429	-0.084664	-0.000089
N86	N	1.695429	0.415336	0.499911
C87	C	1.216042	-0.122996	-0.102576
C88	C	1.716042	0.377004	0.397424
C89	C	1.165815	-0.469513	0.102356
C90	C	1.665815	0.030487	0.602356
C91	C	1.164559	-0.529114	0.102352
C92	C	1.664559	-0.029114	0.602352
C93	C	1.207051	-0.546176	-0.102625
C94	C	1.707051	-0.046176	0.397375
C95	C	1.208315	-0.486572	-0.102620
C96	C	1.708315	0.013428	0.397380
C97	C	1.187692	-0.448241	-0.000126
C98	C	1.687692	0.051759	0.499874
C99	C	1.218713	0.002171	-0.102554
C100	C	1.718713	0.502171	0.397446
C101	C	1.219988	0.061779	-0.102538
C102	C	1.719988	0.561779	0.397462
C103	C	1.177490	0.078835	0.102438
C104	C	1.677490	0.578835	0.602438
C105	C	1.176221	0.019233	0.102423
C106	C	1.676221	0.519233	0.602423
C107	C	1.196831	-0.019098	-0.000083
C108	C	1.696831	0.480902	0.499917
O109	O	1.156181	-0.067809	0.189506
O110	O	1.656181	0.432191	0.689506
O111	O	1.234751	-0.099423	-0.189730
O112	O	1.734751	0.400577	0.310270
C113	C	1.376965	0.291356	-0.000100
C114	C	1.876965	0.791356	0.499900
C115	C	1.489075	0.310193	-0.000114
C116	C	1.989075	0.810193	0.499886
C117	C	1.183825	0.369115	-0.000117
C118	C	1.683825	0.869115	0.499883
C119	C	1.185166	0.432548	-0.000135
C120	C	1.685166	0.932548	0.499865
N121	N	1.131553	0.290744	0.292821
N122	N	1.631553	0.790744	0.792821
N123	N	1.252994	0.241912	-0.292998
N124	N	1.752994	0.741912	0.207002
C125	C	1.334333	0.209191	0.647826
C126	C	1.834333	0.709191	1.147826
C127	C	1.358852	0.199327	0.529489
C128	C	1.858852	0.699327	1.029489
C129	C	1.302029	0.222180	0.470316
C130	C	1.802029	0.722180	0.970316
C131	C	1.220684	0.254899	0.529492
C132	C	1.720684	0.754899	1.029492
C133	C	1.196168	0.264768	0.647841
C134	C	1.696168	0.764768	1.147841
C135	C	1.163864	0.277757	0.470331
C136	C	1.663864	0.777757	0.970331
C137	C	1.082518	0.310476	0.529507
C138	C	1.582518	0.810476	1.029507
C139	C	1.058006	0.320343	0.647844
C140	C	1.558006	0.820343	1.147844
C141	C	1.114829	0.297489	0.707017
C142	C	1.614829	0.797489	1.207017
C143	C	1.188380	0.267889	0.351982
C144	C	1.688380	0.767889	0.851982
C145	C	1.050214	0.323466	0.351997
C146	C	1.550214	0.823466	0.851997
C147	C	1.025696	0.333330	0.470334
C148	C	1.525696	0.833330	0.970334
H149	H	0.785511	0.360012	-0.000134
H150	H	1.285511	0.860012	0.499866
H151	H	0.546828	0.121527	-0.000053
H152	H	1.046828	0.621527	0.499947
H153	H	1.158407	0.001916	0.185877
H154	H	1.658407	0.501916	0.685877
C155	C	1.125011	-0.269790	0.317611
C156	C	1.625011	0.230210	0.817611
H157	H	1.127208	-0.310777	0.302947
H158	H	1.627208	0.189223	0.802947
H159	H	1.057582	-0.261471	0.359703
H160	H	1.557582	0.238529	0.859703
H161	H	1.175391	-0.251553	0.359731
H162	H	1.675391	0.248447	0.859731
H163	H	0.862862	0.311341	-0.000107
H164	H	1.362862	0.811341	0.499893
C165	C	1.140491	-0.552502	0.215089
C166	C	1.640491	-0.052502	0.715089
H167	H	1.128391	-0.521132	0.276122
H168	H	1.628391	-0.021132	0.776122
H169	H	1.198012	-0.570439	0.219354
H170	H	1.698012	-0.070439	0.719354
H171	H	1.080198	-0.580357	0.219352
H172	H	1.580198	-0.080357	0.719352
H173	H	0.667137	0.434468	-0.000172
H174	H	1.167137	0.934468	0.499828
C175	C	1.277856	0.231905	0.286896
C176	C	1.777856	0.731905	0.786896
H177	H	1.284330	0.229305	0.207941
H178	H	1.784330	0.729305	0.707941
H179	H	1.263278	0.193839	0.306304
H180	H	1.763278	0.693839	0.806304
H181	H	1.341175	0.250380	0.306279
H182	H	1.841175	0.750380	0.806279
C183	C	1.448354	0.163363	0.464398
C184	C	1.948354	0.663363	0.964398
H185	H	1.454833	0.160772	0.385444
H186	H	1.954833	0.660772	0.885444
H187	H	1.433808	0.125293	0.483785
H188	H	1.933808	0.625293	0.983785
H189	H	1.511659	0.181852	0.483796
H190	H	2.011659	0.681852	0.983796
C191	C	1.241411	-0.039982	-0.215307
C192	C	1.741411	0.460018	0.284693
H193	H	1.254641	-0.018770	-0.276332
H194	H	1.754641	0.481230	0.223668
H195	H	1.182909	-0.068556	-0.219598
H196	H	1.682909	0.431444	0.280402
H197	H	1.300716	-0.058619	-0.219559
H198	H	1.800716	0.441381	0.280441
C199	C	0.457398	0.414076	-0.000152
C200	C	0.957398	0.914076	0.499848
H201	H	0.388923	0.395118	-0.000142
H202	H	0.888923	0.895118	0.499858
H203	H	0.483086	0.432013	-0.065720
H204	H	0.983086	0.932013	0.434280
H205	H	0.455893	0.442942	0.065414
H206	H	0.955893	0.942942	0.565414
C207	C	1.396829	0.184057	0.712916
C208	C	1.896829	0.684057	1.212916
H209	H	1.370573	0.194619	0.791871
H210	H	1.870573	0.694619	1.291871
H211	H	1.468186	0.199287	0.693503
H212	H	1.968186	0.699287	1.193503
H213	H	1.390268	0.142754	0.693544
H214	H	1.890268	0.642754	1.193544
C215	C	1.143148	-0.427351	0.215107
C216	C	1.643148	0.072649	0.715107
H217	H	1.129949	-0.448560	0.276133
H218	H	1.629949	0.051440	0.776133
H219	H	1.083853	-0.408705	0.219386
H220	H	1.583853	0.091295	0.719386
H221	H	1.201672	-0.398785	0.219368
H222	H	1.701672	0.101215	0.719368
H223	H	0.717385	0.098188	-0.000033
H224	H	1.217385	0.598188	0.499967
H225	H	1.094864	0.305518	0.803377
H226	H	1.594864	0.805518	1.303377
C227	C	0.927131	0.118570	-0.000037
C228	C	1.427131	0.618570	0.499963
H229	H	0.888171	0.081048	-0.000039
H230	H	1.388171	0.581048	0.499961
H231	H	0.955152	0.128865	0.065524
H232	H	1.455152	0.628865	0.565524
H233	H	0.982338	0.117938	-0.065609
H234	H	1.482338	0.617938	0.434391
C235	C	0.968537	0.356336	0.712941
C236	C	1.468537	0.856336	1.212941
H237	H	0.962081	0.358944	0.791895
H238	H	1.462081	0.858944	1.291895
H239	H	0.905213	0.337873	0.693568
H240	H	1.405213	0.837873	1.193568
H241	H	0.983134	0.394405	0.693530
H242	H	1.483134	0.894405	1.193530
H243	H	1.003946	0.342077	0.303819
H244	H	1.503946	0.842077	0.803819
C245	C	1.127691	-0.144635	0.317617
C246	C	1.627691	0.355365	0.817617
H247	H	1.114483	-0.165842	0.378647
H248	H	1.614483	0.334158	0.878647
H249	H	1.068400	-0.125988	0.321884
H250	H	1.568400	0.374012	0.821884
H251	H	1.186215	-0.116069	0.321883
H252	H	1.686215	0.383931	0.821883
C253	C	0.936228	0.369323	0.535435
C254	C	1.436228	0.869323	1.035435
H255	H	0.929775	0.371929	0.614388
H256	H	1.429775	0.871929	1.114388
H257	H	0.872903	0.350862	0.516064
H258	H	1.372903	0.850862	1.016064
H259	H	0.950825	0.407392	0.516029
H260	H	1.450825	0.907392	1.016029
H261	H	1.160712	0.110056	0.185880
H262	H	1.660712	0.610056	0.685880
H263	H	1.321996	0.214148	0.373960
H264	H	1.821996	0.714148	0.873960
H265	H	1.237815	0.079092	-0.186001
H266	H	1.737815	0.579092	0.313999
C267	C	0.398355	0.190931	-0.000074
C268	C	0.898355	0.690931	0.499926
H269	H	0.383818	0.150067	-0.000055
H270	H	0.883818	0.650067	0.499945
H271	H	0.383473	0.199891	-0.065639
H272	H	0.883473	0.699891	0.434361
H273	H	0.356290	0.210818	0.065495
H274	H	0.856290	0.710818	0.565495
C275	C	1.259449	-0.197545	-0.317807
C276	C	1.759449	0.302455	0.182193
H277	H	1.271530	-0.228918	-0.378837
H278	H	1.771530	0.271082	0.121163
H279	H	1.319730	-0.169686	-0.322087
H280	H	1.819730	0.330314	0.177913
H281	H	1.201910	-0.179615	-0.322061
H282	H	1.701910	0.320385	0.177939
H283	H	1.226136	-0.469261	-0.186075
H284	H	1.726136	0.030739	0.313925
C285	C	1.256806	-0.322689	-0.317821
C286	C	1.756806	0.177311	0.182179
H287	H	1.270027	-0.301476	-0.378844
H288	H	1.770027	0.198524	0.121156
H289	H	1.198302	-0.351262	-0.322104
H290	H	1.698302	0.148738	0.177896
H291	H	1.316113	-0.341327	-0.322085
H292	H	1.816113	0.158673	0.177915
H293	H	1.223832	-0.577397	-0.186076
H294	H	1.723832	-0.077397	0.313924
