data_functionalizedCrystal
_audit_creation_method	'MofGen! by Chris Wilmer'
_symmetry_space_group_name_H-M	'P1'
_symmetry_Int_Tables_number	1
_symmetry_cell_setting	triclinic
loop_
_symmetry_equiv_pos_as_xyz
  x,y,z
_cell_length_a	10.489746
_cell_length_b	9.065215
_cell_length_c	8.140239
_cell_angle_alpha	89.997429
_cell_angle_beta	90.000199
_cell_angle_gamma	84.777999
loop_
_atom_site_label
_atom_site_type_symbol
_atom_site_fract_x
_atom_site_fract_y
_atom_site_fract_z
O1	O	1.694797	0.208202	-0.136499
O2	O	1.323672	0.227734	-0.136526
O3	O	1.516908	0.003288	-0.136505
O4	O	1.501562	0.432647	-0.136520
O5	O	1.516897	0.003286	0.136722
O6	O	1.323662	0.227731	0.136701
O7	O	1.694786	0.208199	0.136728
Zn8	Zn	1.509222	0.217965	0.180095
Zn9	Zn	1.509236	0.217968	-0.179894
O10	O	1.501551	0.432645	0.136707
C11	C	1.515428	-0.051693	0.000106
C12	C	1.511021	-0.215515	0.000101
C13	C	1.276130	0.226256	0.000084
C14	C	1.134485	0.221837	0.000073
C15	C	0.981103	0.076414	0.000102
C16	C	1.058754	0.149118	0.134809
C17	C	1.058720	0.149155	-0.134571
C18	C	0.959758	0.286744	0.134933
C19	C	0.959719	0.286760	-0.134569
C20	C	1.037321	0.359566	0.000172
C21	C	1.742328	0.209677	0.000114
C22	C	1.883973	0.214096	0.000114
C23	C	1.503030	0.487626	0.000091
C24	C	1.507437	0.651448	0.000086
N25	N	1.509222	0.217962	0.425777
N26	N	1.509247	0.217960	-0.425576
H27	H	0.955951	-0.043306	0.000242
H28	H	1.102016	0.090995	0.248703
H29	H	1.101958	0.091008	-0.248459
H30	H	0.916683	0.344825	0.248950
Cl31	Cl	1.075777	0.544541	0.000268
Cl32	Cl	0.892880	0.376418	-0.310419
