data_functionalizedCrystal
_audit_creation_method	'MofGen! by Chris Wilmer'
_symmetry_space_group_name_H-M	'P1'
_symmetry_Int_Tables_number	1
_symmetry_cell_setting	triclinic
loop_
_symmetry_equiv_pos_as_xyz
  x,y,z
_cell_length_a	17.639617
_cell_length_b	13.034570
_cell_length_c	17.640968
_cell_angle_alpha	95.491287
_cell_angle_beta	109.666032
_cell_angle_gamma	95.478848
loop_
_atom_site_label
_atom_site_type_symbol
_atom_site_fract_x
_atom_site_fract_y
_atom_site_fract_z
Zn1	Zn	1.338738	0.129837	0.705585
Zn2	Zn	1.335570	-0.075943	0.592560
Zn3	Zn	1.183053	0.046649	0.549889
Zn4	Zn	1.225647	-0.075848	0.702431
O5	O	1.270752	0.006174	0.637616
O6	O	1.449476	0.137315	0.709770
O7	O	1.296186	-0.094536	0.475759
O8	O	1.187206	0.195069	0.554004
O9	O	1.447147	-0.013872	0.626731
O10	O	1.301587	0.256187	0.668393
O11	O	1.184133	-0.004468	0.444409
O12	O	1.077546	-0.004375	0.550946
O13	O	1.259801	-0.013708	0.813990
O14	O	1.108840	-0.094373	0.663018
O15	O	1.342889	0.137407	0.816307
O16	O	1.337488	-0.213316	0.623673
O17	O	1.256728	-0.213246	0.704395
C18	C	1.301411	-0.248891	0.668343
C19	C	1.314604	-0.357978	0.681527
C20	C	1.064371	-0.058391	0.602010
C21	C	0.976086	-0.086030	0.586799
C22	C	1.277563	-0.549679	0.644399
C23	C	1.263927	-0.436930	0.630776
C24	C	0.691887	0.216226	0.753365
C25	C	0.608930	0.190226	0.739059
C26	C	0.606478	0.032958	0.652420
C27	C	0.689437	0.058943	0.666722
C28	C	0.732135	0.150579	0.717194
C29	C	0.729684	-0.006704	0.630550
C30	C	0.812635	0.019281	0.644848
C31	C	0.855338	0.110915	0.695317
C32	C	0.815085	0.176565	0.731492
C33	C	0.686983	-0.098336	0.580073
C34	C	0.727231	-0.163984	0.543902
C35	C	0.810185	-0.138002	0.558204
C36	C	0.852888	-0.046369	0.608673
C37	C	0.850438	-0.203652	0.522029
C38	C	0.933388	-0.177666	0.536326
C39	C	0.935839	-0.020383	0.622970
C40	C	1.477939	0.070990	0.673362
C41	C	1.566230	0.098611	0.688595
C42	C	1.306450	0.071140	0.844772
C43	C	1.321662	0.098824	0.933050
C44	C	1.239999	0.262247	0.606791
C45	C	1.226893	0.371370	0.593654
C46	C	1.235231	-0.058454	0.431266
C47	C	1.220139	-0.085814	0.342982
C48	C	1.155428	-0.203514	1.217358
C49	C	1.169737	-0.177482	1.300310
C50	C	1.256249	-0.020138	1.302712
C51	C	1.241944	-0.046154	1.219758
C52	C	1.191533	-0.137844	1.177088
C53	C	1.278049	0.019516	1.179487
C54	C	1.263748	-0.006501	1.096542
C55	C	1.213342	-0.098188	1.053866
C56	C	1.177232	-0.163861	1.094142
C57	C	1.328464	0.111201	1.222160
C58	C	1.364569	0.176871	1.181890
C59	C	1.350264	0.150858	1.098941
C60	C	1.299857	0.059171	1.056266
C61	C	1.386373	0.216531	1.058666
C62	C	1.372072	0.190514	0.975720
C63	C	1.285557	0.033154	0.973320
H64	H	1.331040	-0.565556	0.697925
Br65	Br	0.792477	-0.327999	0.453519
H66	H	0.849854	0.251182	0.772595
Br67	Br	0.988018	-0.266765	0.487244
Br68	Br	1.347878	0.146506	1.334733
Br69	Br	0.669276	-0.288339	0.475401
H70	H	1.244485	-0.041491	0.938570
Br71	Br	1.193938	-0.133507	0.941297
Br72	Br	1.174798	-0.410487	0.541545
H73	H	1.136161	-0.238506	1.059391
H74	H	1.173421	-0.612754	0.540123
Br75	Br	1.403746	-0.384418	0.770748
Br76	Br	0.993797	0.103974	0.691480
Br77	Br	0.548522	-0.091397	0.583918
Br78	Br	0.749845	0.340583	0.821876
H79	H	0.922881	0.132073	0.706954
Br80	Br	0.554308	0.279336	0.788147
Br81	Br	1.087002	-0.327942	1.159438
H82	H	1.297296	0.054513	1.337466
Br83	Br	1.120730	-0.266615	1.354960
Br84	Br	1.432985	0.301298	1.239807
H85	H	1.427424	0.291179	1.093422
Br86	Br	1.421078	0.279632	0.921064
H87	H	0.619434	-0.119475	0.568414
