data_functionalizedCrystal
_audit_creation_method	'MofGen! by Chris Wilmer'
_symmetry_space_group_name_H-M	'P1'
_symmetry_Int_Tables_number	1
_symmetry_cell_setting	triclinic
loop_
_symmetry_equiv_pos_as_xyz
  x,y,z
_cell_length_a	12.837943
_cell_length_b	14.519709
_cell_length_c	11.295483
_cell_angle_alpha	94.101713
_cell_angle_beta	85.461227
_cell_angle_gamma	89.254542
loop_
_atom_site_label
_atom_site_type_symbol
_atom_site_fract_x
_atom_site_fract_y
_atom_site_fract_z
O1	O	1.382869	0.234188	-0.099009
O2	O	1.882869	0.734188	0.400991
O3	O	1.081042	0.222343	-0.099016
O4	O	1.581042	0.722343	0.400984
O5	O	1.239958	0.094719	-0.099002
O6	O	1.739958	0.594719	0.400998
O7	O	1.223954	0.361812	-0.099023
O8	O	1.723954	0.861812	0.400977
O9	O	1.226000	0.105910	0.099048
O10	O	1.726000	0.605910	0.599048
O11	O	1.067084	0.233533	0.099034
O12	O	1.567084	0.733533	0.599034
O13	O	1.368911	0.245379	0.099040
O14	O	1.868911	0.745379	0.599040
Cu15	Cu	1.216723	0.240478	0.117121
Cu16	Cu	1.716723	0.740478	0.617121
Cu17	Cu	1.233230	0.227244	-0.117096
Cu18	Cu	1.733230	0.727244	0.382904
O19	O	1.209996	0.373002	0.099026
O20	O	1.709996	0.873002	0.599026
C21	C	1.035435	0.223937	0.000008
C22	C	1.535435	0.723937	0.500008
C23	C	0.920336	0.212002	0.000006
C24	C	1.420336	0.712002	0.500006
C25	C	0.679643	0.355473	0.000011
C26	C	1.179643	0.855473	0.500011
C27	C	0.571497	0.344264	0.000010
C28	C	1.071497	0.844264	0.500010
C29	C	0.595894	0.178377	0.000011
C30	C	1.095894	0.678377	0.500011
C31	C	0.704041	0.189586	0.000012
C32	C	1.204041	0.689586	0.500012
C33	C	0.745911	0.278137	0.000011
C34	C	1.245911	0.778137	0.500011
C35	C	0.854060	0.289344	0.000003
C36	C	1.354060	0.789344	0.500003
C37	C	0.878455	0.123458	0.000013
C38	C	1.378455	0.623458	0.500013
C39	C	0.770308	0.112249	0.000011
C40	C	1.270308	0.612249	0.500011
C41	C	1.232233	0.065890	0.000023
C42	C	1.732233	0.565890	0.500023
C43	C	1.229997	-0.036684	0.000024
C44	C	1.729997	0.463316	0.500024
C45	C	1.221771	-0.412293	-0.000007
C46	C	1.721771	0.087707	0.499993
C47	C	1.224055	-0.307787	0.000002
C48	C	1.724055	0.192213	0.500002
C49	C	1.225884	-0.224492	0.000010
C50	C	1.725884	0.275508	0.500010
C51	C	1.228169	-0.119979	0.000016
C52	C	1.728169	0.380021	0.500016
C53	C	1.414518	0.243785	0.000014
C54	C	1.914518	0.743785	0.500014
C55	C	1.529618	0.255719	0.000008
C56	C	2.029618	0.755719	0.500008
C57	C	1.217721	0.401831	-0.000001
C58	C	1.717721	0.901831	0.499999
C59	C	1.219957	0.504405	-0.000010
C60	C	1.719957	1.004405	0.499990
N61	N	1.205121	0.249786	0.281856
N62	N	1.705121	0.749786	0.781856
N63	N	1.244841	0.217929	-0.281831
N64	N	1.744841	0.717929	0.218169
C65	C	1.328362	0.150873	0.531156
C66	C	1.828362	0.650873	1.031156
C67	C	1.319601	0.157915	0.655819
C68	C	1.819601	0.657915	1.155819
C69	C	1.178834	0.270905	0.655847
C70	C	1.678834	0.770905	1.155847
C71	C	1.187595	0.263863	0.531184
C72	C	1.687595	0.763863	1.031184
C73	C	1.262362	0.203847	0.468843
C74	C	1.762362	0.703847	0.968843
C75	C	1.271127	0.196811	0.344178
C76	C	1.771127	0.696811	0.844178
C77	C	1.130356	0.309795	0.344208
C78	C	1.630356	0.809795	0.844208
C79	C	1.121596	0.316837	0.468871
C80	C	1.621596	0.816837	0.968871
H81	H	0.888149	0.361447	0.000004
H82	H	1.388149	0.861447	0.500004
C83	C	1.353370	0.130803	0.275599
C84	C	1.853370	0.630803	0.775599
H85	H	1.349146	0.134202	0.192428
H86	H	1.849146	0.634202	0.692428
H87	H	1.340566	0.069401	0.296031
H88	H	1.840566	0.569401	0.796031
H89	H	1.421146	0.148097	0.296018
H90	H	1.921146	0.648097	0.796018
C91	C	1.039363	0.382853	0.537452
C92	C	1.539363	0.882853	1.037452
H93	H	1.043601	0.379465	0.620621
H94	H	1.543601	0.879465	1.120621
H95	H	0.971585	0.365577	0.517038
H96	H	1.471585	0.865577	1.017038
H97	H	1.052187	0.444256	0.517015
H98	H	1.552187	0.944256	1.017015
H99	H	0.736201	0.040154	0.000026
H100	H	1.236201	0.540154	0.500026
C101	C	1.392198	0.099647	0.724366
C102	C	1.892198	0.599647	1.224366
H103	H	1.376269	0.112428	0.807540
H104	H	1.876269	0.612428	1.307540
H105	H	1.462847	0.114618	0.703919
H106	H	1.962847	0.614618	1.203919
H107	H	1.382250	0.035935	0.703940
H108	H	1.882250	0.535935	1.203940
C109	C	1.096597	0.336913	0.724435
C110	C	1.596597	0.836913	1.224435
H111	H	1.100838	0.333519	0.807604
H112	H	1.600838	0.833519	1.307604
H113	H	1.028821	0.319632	0.704021
H114	H	1.528821	0.819632	1.204021
H115	H	1.109413	0.398319	0.704008
H116	H	1.609413	0.898319	1.204008
H117	H	1.076618	0.352933	0.293458
H118	H	1.576618	0.852933	0.793458
H119	H	0.713735	0.427575	0.000008
H120	H	1.213735	0.927575	0.500008
H121	H	0.517545	0.407240	0.000014
H122	H	1.017545	0.907240	0.500014
C123	C	0.549822	0.080982	0.000025
C124	C	1.049822	0.580982	0.500025
H125	H	0.475923	0.085387	0.000023
H126	H	0.975923	0.585387	0.500023
H127	H	0.567694	0.052641	0.069090
H128	H	1.067694	0.552641	0.569090
H129	H	0.577415	0.044836	-0.069047
H130	H	1.077415	0.544836	0.430953
C131	C	0.951352	0.038384	0.000010
C132	C	1.451352	0.538384	0.500010
H133	H	1.021757	0.057740	0.000015
H134	H	1.521757	0.557740	0.500015
H135	H	0.943502	-0.001430	-0.069054
H136	H	1.443502	0.498570	0.430946
H137	H	0.933777	0.006368	0.069083
H138	H	1.433777	0.506368	0.569083
H139	H	1.389247	0.102012	0.480398
H140	H	1.889247	0.602012	0.980398
