data_functionalizedCrystal
_audit_creation_method	'MofGen! by Chris Wilmer'
_symmetry_space_group_name_H-M	'P1'
_symmetry_Int_Tables_number	1
_symmetry_cell_setting	triclinic
loop_
_symmetry_equiv_pos_as_xyz
  x,y,z
_cell_length_a	12.759401
_cell_length_b	15.300062
_cell_length_c	12.759393
_cell_angle_alpha	80.350555
_cell_angle_beta	90.018496
_cell_angle_gamma	80.352853
loop_
_atom_site_label
_atom_site_type_symbol
_atom_site_fract_x
_atom_site_fract_y
_atom_site_fract_z
Zn1	Zn	1.678525	-0.358988	0.666390
Zn2	Zn	1.708786	-0.509828	0.521135
Zn3	Zn	1.502837	-0.359035	0.490739
Zn4	Zn	1.533168	-0.509758	0.696763
O5	O	1.605829	-0.434402	0.593757
O6	O	1.829562	-0.379007	0.647132
O7	O	1.681437	-0.489874	0.370092
O8	O	1.500784	-0.232824	0.488608
O9	O	1.851795	-0.489828	0.540414
O10	O	1.629862	-0.232790	0.617658
O11	O	1.530127	-0.379087	0.347760
O12	O	1.359838	-0.379020	0.518059
O13	O	1.552480	-0.489709	0.839745
O14	O	1.382122	-0.489755	0.669423
O15	O	1.659273	-0.378939	0.817431
O16	O	1.710848	-0.636023	0.569864
O17	O	1.581823	-0.635972	0.698897
C18	C	1.332859	-0.434386	0.593739
C19	C	1.216085	-0.434400	0.593761
C20	C	1.652939	-0.668721	0.640998
C21	C	1.673189	-0.768964	0.661243
C22	C	1.172872	-0.492153	0.672484
C23	C	1.063151	-0.492164	0.672498
C24	C	1.039863	-0.376669	0.515056
C25	C	1.149582	-0.376653	0.515048
C26	C	1.186317	-0.558836	0.763379
C27	C	1.076595	-0.558847	0.763393
C28	C	1.749845	-0.815954	0.737982
C29	C	1.768880	-0.910137	0.757012
C30	C	1.711268	-0.957339	0.699299
C31	C	1.634616	-0.910349	0.622553
C32	C	1.615572	-0.816156	0.603527
C33	C	1.576996	-0.957541	0.564844
C34	C	1.500344	-0.910551	0.488098
C35	C	1.481304	-0.816368	0.469075
C36	C	1.538917	-0.769166	0.526788
C37	C	1.596039	-1.051733	0.583870
C38	C	1.461767	-1.051936	0.449415
C39	C	1.442731	-0.957753	0.430385
C40	C	1.879866	-0.434420	0.593775
C41	C	1.996644	-0.434427	0.593783
C42	C	1.605884	-0.434311	0.867772
C43	C	1.605908	-0.434273	0.984541
C44	C	1.558564	-0.199169	0.546355
C45	C	1.538423	-0.098926	0.526154
C46	C	1.605822	-0.434428	0.320795
C47	C	1.605950	-0.434213	0.203975
C48	C	1.661523	-0.376589	1.027784
C49	C	1.661542	-0.376557	1.137502
C50	C	1.550328	-0.491899	1.160724
C51	C	1.550304	-0.491926	1.051008
C52	C	1.725736	-0.310000	1.014379
C53	C	1.725754	-0.309967	1.124096
H54	H	1.184759	-0.329620	0.450949
Br55	Br	1.862925	-0.351730	0.966056
H56	H	1.689906	-0.240156	0.970535
H57	H	1.726770	-1.034027	0.714799
H58	H	0.985703	-0.329652	0.450971
Br59	Br	1.377251	-0.752597	0.364945
H60	H	1.212375	-0.540209	0.841029
H61	H	1.233681	-0.625150	0.747471
Br62	Br	1.872888	-0.973903	0.861177
H63	H	1.505055	-0.538836	1.214854
H64	H	1.796740	-0.777516	0.784971
Br65	Br	1.654804	-0.199419	1.158559
H66	H	1.060858	-0.628679	0.755546
Br67	Br	1.011552	-0.517291	0.883929
Br68	Br	1.700063	-1.115494	0.688023
H69	H	1.810891	-0.328674	1.157648
H70	H	1.523424	-0.692475	0.511295
H71	H	1.380319	-0.919482	0.367898
Br72	Br	1.383569	-1.115987	0.371090
H73	H	1.505012	-0.538894	1.015804
