data_functionalizedCrystal
_audit_creation_method	'MofGen! by Chris Wilmer'
_symmetry_space_group_name_H-M	'P1'
_symmetry_Int_Tables_number	1
_symmetry_cell_setting	triclinic
loop_
_symmetry_equiv_pos_as_xyz
  x,y,z
_cell_length_a	17.019311
_cell_length_b	14.519709
_cell_length_c	12.996460
_cell_angle_alpha	90.007090
_cell_angle_beta	86.114693
_cell_angle_gamma	96.461763
loop_
_atom_site_label
_atom_site_type_symbol
_atom_site_fract_x
_atom_site_fract_y
_atom_site_fract_z
O1	O	1.046846	-0.117531	-0.178326
O2	O	1.546846	0.382469	0.321674
O3	O	0.817203	-0.132505	-0.157980
O4	O	1.317203	0.367495	0.342020
O5	O	0.938113	0.009240	-0.168683
O6	O	1.438113	0.509240	0.331317
O7	O	0.925936	-0.259276	-0.167623
O8	O	1.425936	0.240724	0.332377
O9	O	0.938101	0.009248	0.002452
O10	O	1.438101	0.509248	0.502452
O11	O	0.817190	-0.132497	0.013155
O12	O	1.317190	0.367503	0.513155
O13	O	1.046834	-0.117523	-0.007191
O14	O	1.546834	0.382477	0.492809
Cu15	Cu	0.932011	-0.125010	0.018608
Cu16	Cu	1.432011	0.374990	0.518608
Cu17	Cu	0.932026	-0.125019	-0.183779
Cu18	Cu	1.432026	0.374981	0.316221
O19	O	0.925923	-0.259268	0.003512
O20	O	1.425923	0.240732	0.503512
C21	C	0.787806	-0.131932	-0.069809
C22	C	1.287806	0.368068	0.430191
C23	C	0.700234	-0.130225	-0.062050
C24	C	1.200234	0.369775	0.437950
C25	C	0.204936	-0.120601	-0.013490
C26	C	0.704936	0.379399	0.486510
C27	C	0.287220	-0.122205	-0.020782
C28	C	0.787220	0.377795	0.479218
C29	C	0.328370	-0.123004	-0.117716
C30	C	0.828370	0.376996	0.382284
C31	C	0.287230	-0.122209	-0.207362
C32	C	0.787230	0.377791	0.292638
C33	C	0.204947	-0.120612	-0.200069
C34	C	0.704947	0.379388	0.299931
C35	C	0.576811	-0.127833	-0.144404
C36	C	1.076811	0.372167	0.355596
C37	C	0.659100	-0.129427	-0.151690
C38	C	1.159100	0.370573	0.348310
C39	C	0.659084	-0.129425	0.034891
C40	C	1.159084	0.370575	0.534891
C41	C	0.576800	-0.127822	0.042176
C42	C	1.076800	0.372178	0.542176
C43	C	0.535667	-0.127032	-0.047471
C44	C	1.035667	0.372968	0.452529
C45	C	0.412477	-0.124641	-0.125172
C46	C	0.912477	0.375359	0.374828
C47	C	0.451560	-0.125402	-0.040014
C48	C	0.951560	0.374598	0.459986
C49	C	0.937539	0.043602	-0.083065
C50	C	1.437539	0.543602	0.416935
C51	C	0.935839	0.145977	-0.082914
C52	C	1.435839	0.645977	0.417086
C53	C	1.076230	-0.118096	-0.095364
C54	C	1.576230	0.381904	0.404636
C55	C	1.163803	-0.119803	-0.103130
C56	C	1.663803	0.380197	0.396870
C57	C	0.926497	-0.293630	-0.082108
C58	C	1.426497	0.206370	0.417892
C59	C	0.928198	-0.396006	-0.082266
C60	C	1.428198	0.103994	0.417734
N61	N	0.932006	-0.125003	0.160956
N62	N	1.432006	0.374997	0.660956
C63	C	0.929578	0.520853	-0.082386
C64	C	1.429578	1.020853	0.417614
C65	C	0.931317	0.416551	-0.082532
C66	C	1.431317	0.916551	0.417468
C67	C	0.932708	0.333419	-0.082649
C68	C	1.432708	0.833419	0.417351
C69	C	0.934447	0.229110	-0.082797
C70	C	1.434447	0.729110	0.417203
N71	N	0.932037	-0.125019	-0.326127
N72	N	1.432037	0.374981	0.173873
C73	C	0.932025	-0.125020	0.580768
C74	C	1.432025	0.374980	1.080768
C75	C	0.932017	-0.125018	0.463964
C76	C	1.432017	0.374982	0.963964
C77	C	0.932016	-0.125012	0.370866
C78	C	1.432016	0.374988	0.870866
C79	C	0.932007	-0.125009	0.254054
C80	C	1.432007	0.374991	0.754054
H81	H	0.445991	-0.125289	-0.204095
H82	H	0.945991	0.374711	0.295905
H83	H	0.320740	-0.122866	-0.286288
H84	H	0.820740	0.377134	0.213712
H85	H	0.171437	-0.119955	0.065444
H86	H	0.671437	0.380045	0.565444
H87	H	0.320707	-0.122853	0.052213
H88	H	0.820707	0.377147	0.552213
H89	H	0.543331	-0.127186	-0.217401
H90	H	1.043331	0.372814	0.282599
H91	H	0.543304	-0.127151	0.121109
H92	H	1.043304	0.372849	0.621109
H93	H	0.171457	-0.119965	-0.273064
H94	H	0.671457	0.380035	0.226936
H95	H	0.418052	-0.124757	0.038909
H96	H	0.918052	0.375243	0.538909
H97	H	0.692601	-0.130086	-0.230629
H98	H	1.192601	0.369914	0.269371
H99	H	0.692583	-0.130070	0.107876
H100	H	1.192583	0.369930	0.607876
