data_functionalizedCrystal
_audit_creation_method	'MofGen! by Chris Wilmer'
_symmetry_space_group_name_H-M	'P1'
_symmetry_Int_Tables_number	1
_symmetry_cell_setting	triclinic
loop_
_symmetry_equiv_pos_as_xyz
  x,y,z
_cell_length_a	11.792241
_cell_length_b	16.776229
_cell_length_c	17.699083
_cell_angle_alpha	90.001567
_cell_angle_beta	83.738215
_cell_angle_gamma	90.002956
loop_
_atom_site_label
_atom_site_type_symbol
_atom_site_fract_x
_atom_site_fract_y
_atom_site_fract_z
O1	O	1.505671	0.066213	0.103731
O2	O	2.005671	0.566213	0.603731
O3	O	1.175201	0.066231	0.114422
O4	O	1.675201	0.566231	0.614422
O5	O	1.349773	0.066214	-0.001063
O6	O	1.849773	0.566214	0.498937
O7	O	1.331099	0.066229	0.219216
O8	O	1.831099	0.566229	0.719216
O9	O	1.349747	-0.066362	-0.001057
O10	O	1.849747	0.433638	0.498943
O11	O	1.175176	-0.066345	0.114428
O12	O	1.675176	0.433655	0.614428
O13	O	1.505645	-0.066364	0.103737
O14	O	2.005645	0.433636	0.603737
Zn15	Zn	1.340407	-0.087404	0.109084
Zn16	Zn	1.840407	0.412596	0.609084
Zn17	Zn	1.340440	0.087271	0.109076
Zn18	Zn	1.840440	0.587271	0.609076
O19	O	1.331074	-0.066347	0.219222
O20	O	1.831074	0.433653	0.719222
C21	C	1.132906	-0.000055	0.113754
C22	C	1.632906	0.499945	0.613754
C23	C	1.006916	-0.000048	0.111744
C24	C	1.506916	0.499952	0.611744
N25	N	1.340392	-0.206615	0.109089
N26	N	1.840392	0.293385	0.609089
C27	C	1.417773	-0.751787	0.057947
C28	C	1.917773	-0.251787	0.557947
C29	C	1.417767	-0.668335	0.057952
C30	C	1.917767	-0.168335	0.557952
C31	C	1.340446	-0.626615	0.109073
C32	C	1.840446	-0.126615	0.609073
C33	C	1.263133	-0.668350	0.160196
C34	C	1.763133	-0.168350	0.660196
C35	C	1.263145	-0.751801	0.160194
C36	C	1.763145	-0.251801	0.660194
C37	C	1.263084	-0.331803	0.160207
C38	C	1.763084	0.168197	0.660207
C39	C	1.263076	-0.248347	0.160204
C40	C	1.763076	0.251653	0.660204
C41	C	1.417707	-0.248337	0.057965
C42	C	1.917707	0.251663	0.557965
C43	C	1.417719	-0.331788	0.057963
C44	C	1.917719	0.168212	0.557963
C45	C	1.340410	-0.373517	0.109089
C46	C	1.840410	0.126483	0.609089
C47	C	1.340419	-0.464005	0.109084
C48	C	1.840419	0.035995	0.609084
C49	C	1.340431	-0.536128	0.109075
C50	C	1.840431	-0.036128	0.609075
C51	C	0.776248	-0.000071	0.108048
C52	C	1.276248	0.499929	0.608048
C53	C	0.904609	-0.000058	0.110101
C54	C	1.404609	0.499942	0.610101
C55	C	1.547941	-0.000076	0.104406
C56	C	2.047941	0.499924	0.604406
C57	C	1.673930	-0.000078	0.106416
C58	C	2.173930	0.499922	0.606416
N59	N	1.340464	0.206483	0.109065
N60	N	1.840464	0.706483	0.609065
C61	C	1.349091	-0.000074	-0.029260
C62	C	1.849091	0.499926	0.470740
C63	C	1.347083	-0.000074	-0.113289
C64	C	1.847083	0.499926	0.386711
C65	C	1.449553	-0.000081	-0.161364
C66	C	1.949553	0.499919	0.338636
C67	C	1.447660	-0.000074	-0.240317
C68	C	1.947660	0.499926	0.259683
C69	C	1.343297	-0.000066	-0.271194
C70	C	1.843297	0.499934	0.228806
C71	C	1.240819	-0.000056	-0.223113
C72	C	1.740819	0.499944	0.276887
C73	C	1.242713	-0.000058	-0.144161
C74	C	1.742713	0.499942	0.355839
C75	C	1.233178	-0.000049	-0.541517
C76	C	1.733178	0.499951	-0.041517
C77	C	1.231292	-0.000050	-0.620475
C78	C	1.731292	0.499950	-0.120475
C79	C	1.438126	-0.000066	-0.637673
C80	C	1.938126	0.499934	-0.137673
C81	C	1.440020	-0.000067	-0.558721
C82	C	1.940020	0.499933	-0.058721
C83	C	1.337543	-0.000054	-0.510647
C84	C	1.837543	0.499946	-0.010647
C85	C	1.339596	-0.000060	-0.425037
C86	C	1.839596	0.499940	0.074963
C87	C	1.341242	-0.000065	-0.356803
C88	C	1.841242	0.499935	0.143197
C89	C	1.331756	-0.000057	0.247420
C90	C	1.831756	0.499943	0.747420
C91	C	1.333763	-0.000051	0.331449
C92	C	1.833763	0.499949	0.831449
H93	H	1.480732	-0.785751	0.016316
H94	H	1.980732	-0.285751	0.516316
C95	C	1.178081	-0.622464	0.216431
C96	C	1.678081	-0.122464	0.716431
H97	H	1.132048	-0.659271	0.246879
H98	H	1.632048	-0.159271	0.746879
H99	H	1.130910	-0.589914	0.188995
H100	H	1.630910	-0.089914	0.688995
H101	H	1.218821	-0.589906	0.248123
H102	H	1.718821	-0.089906	0.748123
H103	H	1.149735	-0.000039	-0.502384
H104	H	1.649735	0.499961	-0.002384
C105	C	1.502801	-0.622435	0.001718
C106	C	2.002801	-0.122435	0.501718
H107	H	1.548842	-0.659235	-0.028734
H108	H	2.048842	-0.159235	0.471266
H109	H	1.549968	-0.589876	0.029153
H110	H	2.049968	-0.089876	0.529153
H111	H	1.462049	-0.589887	-0.029971
H112	H	1.962049	-0.089887	0.470029
C113	C	1.126021	-0.000049	-0.257076
C114	C	1.626021	0.499951	0.242924
H115	H	1.139567	-0.000058	-0.310982
H116	H	1.639567	0.499942	0.189018
H117	H	1.083844	0.046185	-0.240603
H118	H	1.583844	0.546185	0.259397
H119	H	1.083835	-0.046286	-0.240602
H120	H	1.583835	0.453714	0.259398
H121	H	1.200110	-0.214379	0.201835
H122	H	1.700110	0.285621	0.701835
H123	H	1.159272	-0.000052	-0.105019
H124	H	1.659272	0.499948	0.394981
C125	C	1.116487	-0.000031	-0.654438
C126	C	1.616487	0.499969	-0.154438
H127	H	1.055726	-0.000014	-0.614500
H128	H	1.555726	0.499986	-0.114500
H129	H	1.111432	-0.046261	-0.684881
H130	H	1.611432	0.453739	-0.184881
H131	H	1.111474	0.046209	-0.684879
H132	H	1.611474	0.546209	-0.184879
H133	H	1.480677	-0.365754	0.016334
H134	H	1.980677	0.134246	0.516334
H135	H	1.200135	-0.365772	0.201834
H136	H	1.700135	0.134228	0.701834
H137	H	1.480660	-0.214353	0.016338
H138	H	1.980660	0.285647	0.516338
H139	H	1.534538	-0.000093	-0.136230
H140	H	2.034538	0.499907	0.363770
C141	C	1.178078	-0.797704	0.216405
C142	C	1.678078	-0.297704	0.716405
H143	H	1.132012	-0.760906	0.246842
H144	H	1.632012	-0.260906	0.746842
H145	H	1.218794	-0.830263	0.248100
H146	H	1.718794	-0.330263	0.748100
H147	H	1.130923	-0.830253	0.188945
H148	H	1.630923	-0.330253	0.688945
H149	H	1.531101	-0.000081	-0.279457
H150	H	2.031101	0.499919	0.220543
H151	H	1.521567	-0.000073	-0.676825
H152	H	2.021567	0.499927	-0.176825
C153	C	1.554819	-0.000073	-0.524760
C154	C	2.054819	0.499927	-0.024760
H155	H	1.615577	-0.000068	-0.564700
H156	H	2.115577	0.499932	-0.064700
H157	H	1.559852	-0.046304	-0.494318
H158	H	2.059852	0.453696	0.005682
H159	H	1.559859	0.046167	-0.494320
H160	H	2.059859	0.546167	0.005680
