data_functionalizedCrystal
_audit_creation_method	'MofGen! by Chris Wilmer'
_symmetry_space_group_name_H-M	'P1'
_symmetry_Int_Tables_number	1
_symmetry_cell_setting	triclinic
loop_
_symmetry_equiv_pos_as_xyz
  x,y,z
_cell_length_a	14.750779
_cell_length_b	16.992694
_cell_length_c	16.992695
_cell_angle_alpha	90.668223
_cell_angle_beta	76.479349
_cell_angle_gamma	103.524918
loop_
_atom_site_label
_atom_site_type_symbol
_atom_site_fract_x
_atom_site_fract_y
_atom_site_fract_z
O1	O	0.079709	-1.034856	-0.182901
O2	O	0.579709	-0.534856	0.317099
O3	O	0.079737	-0.806451	-0.181076
O4	O	0.579737	-0.306451	0.318924
O5	O	0.079715	-0.919739	-0.067787
O6	O	0.579715	-0.419739	0.432213
O7	O	0.079730	-0.921568	-0.296190
O8	O	0.579730	-0.421568	0.203810
O9	O	-0.079941	-0.951765	-0.035765
O10	O	0.420059	-0.451765	0.464235
O11	O	-0.079919	-0.838476	-0.149054
O12	O	0.420081	-0.338476	0.350946
O13	O	-0.079948	-1.066882	-0.150880
O14	O	0.420052	-0.566882	0.349120
Zn15	Zn	-0.105282	-0.957764	-0.144883
Zn16	Zn	0.394718	-0.457764	0.355117
Zn17	Zn	0.105072	-0.915569	-0.187073
Zn18	Zn	0.605072	-0.415569	0.312927
O19	O	-0.079926	-0.953593	-0.264168
O20	O	0.420074	-0.453593	0.235832
C21	C	-0.000088	-0.793103	-0.162710
C22	C	0.499912	-0.293103	0.337290
C23	C	-0.000077	-0.705616	-0.155683
C24	C	0.499923	-0.205616	0.344317
N25	N	-0.248844	-0.986567	-0.116089
N26	N	0.251156	-0.486567	0.383911
C27	C	-0.000112	-0.933396	-0.022416
C28	C	0.499888	-0.433396	0.477584
C29	C	-0.000111	-0.926367	0.065068
C30	C	0.499889	-0.426367	0.565068
C31	C	-0.600627	-0.806328	-0.296242
C32	C	-0.100627	-0.306328	0.203758
C33	C	-0.701130	-0.826517	-0.276071
C34	C	-0.201130	-0.326517	0.223929
C35	C	-0.701112	-0.926859	-0.175794
C36	C	-0.201112	-0.426859	0.324206
C37	C	-0.600607	-0.906675	-0.195954
C38	C	-0.100607	-0.406675	0.304046
C39	C	-0.550373	-0.846410	-0.256179
C40	C	-0.050373	-0.346410	0.243821
C41	C	-0.550353	-0.946757	-0.155892
C42	C	-0.050353	-0.446757	0.344108
C43	C	-0.449856	-0.926578	-0.176053
C44	C	0.050144	-0.426578	0.323947
C45	C	-0.399615	-0.866317	-0.236278
C46	C	0.100385	-0.366317	0.263722
C47	C	-0.449877	-0.826230	-0.276341
C48	C	0.050123	-0.326230	0.223659
C49	C	-0.600589	-1.007026	-0.095671
C50	C	-0.100589	-0.507026	0.404329
C51	C	-0.550334	-1.047108	-0.055609
C52	C	-0.050334	-0.547108	0.444391
C53	C	-0.449836	-1.026925	-0.075766
C54	C	0.050164	-0.526925	0.424234
C55	C	-0.399595	-0.966664	-0.135990
C56	C	0.100405	-0.466664	0.364010
C57	C	-0.399574	-1.067011	-0.035703
C58	C	0.100426	-0.567011	0.464297
C59	C	-0.299078	-1.046832	-0.055864
C60	C	0.200922	-0.546832	0.444136
C61	C	-0.299098	-0.946485	-0.156152
C62	C	0.200902	-0.446485	0.343848
N63	N	0.248633	-0.886772	-0.215860
N64	N	0.748633	-0.386772	0.284140
C65	C	-0.000121	-1.080230	-0.169246
C66	C	0.499879	-0.580230	0.330754
C67	C	-0.000125	-1.167715	-0.176274
C68	C	0.499875	-0.667715	0.323726
C69	C	-0.000073	-0.659624	-0.223502
C70	C	0.499927	-0.159624	0.276498
C71	C	-0.000087	-0.577426	-0.216890
C72	C	0.499913	-0.077426	0.283110
C73	C	-0.000098	-0.541220	-0.142461
C74	C	0.499902	-0.041220	0.357539
C75	C	-0.000104	-0.587218	-0.074636
C76	C	0.499896	-0.087218	0.425364
C77	C	-0.000097	-0.669416	-0.081247
C78	C	0.499903	-0.169416	0.418753
C79	C	-0.000125	-0.295911	-0.115060
C80	C	0.499875	0.204089	0.384940
C81	C	-0.000129	-0.213707	-0.108455
C82	C	0.499871	0.286293	0.391545
C83	C	-0.000114	-0.203921	-0.250710
C84	C	0.499886	0.296079	0.249290
C85	C	-0.000101	-0.286119	-0.257315
C86	C	0.499899	0.213881	0.242685
C87	C	-0.000113	-0.332111	-0.189490
C88	C	0.499887	0.167889	0.310510
N89	N	-0.000108	-0.457200	-0.135701
N90	N	0.499892	0.042800	0.364299
N91	N	-0.000109	-0.416131	-0.196249
N92	N	0.499891	0.083869	0.303751
C93	C	-0.000096	-0.939936	-0.309540
C94	C	0.499904	-0.439936	0.190460
C95	C	-0.000091	-0.946964	-0.397025
C96	C	0.499909	-0.446964	0.102975
C97	C	-0.000121	-0.994187	0.111061
C98	C	0.499879	-0.494187	0.611061
C99	C	-0.000111	-0.987576	0.193260
C100	C	0.499889	-0.487576	0.693260
C101	C	-0.000098	-0.913146	0.229466
C102	C	0.499902	-0.413146	0.729466
C103	C	-0.000086	-0.845321	0.183466
C104	C	0.499914	-0.345321	0.683466
C105	C	-0.000089	-0.851931	0.101268
C106	C	0.499911	-0.351931	0.601268
C107	C	-0.000082	-0.885748	0.474777
C108	C	0.499918	-0.385748	0.974777
C109	C	-0.000082	-0.879144	0.556982
C110	C	0.499918	-0.379144	1.056982
C111	C	-0.000104	-1.021400	0.566770
C112	C	0.499896	-0.521400	1.066770
C113	C	-0.000113	-1.028005	0.484570
C114	C	0.499887	-0.528005	0.984570
C115	C	-0.000096	-0.960178	0.438577
C116	C	0.499904	-0.460178	0.938577
N117	N	-0.000091	-0.906388	0.313486
N118	N	0.499909	-0.406388	0.813486
N119	N	-0.000096	-0.966936	0.354556
N120	N	0.499904	-0.466936	0.854556
H121	H	-0.258195	-0.897405	-0.205187
H122	H	0.241805	-0.397405	0.294813
Cl123	Cl	-0.000054	-0.705131	-0.317077
Cl124	Cl	0.499946	-0.205131	0.182923
Cl125	Cl	-0.000123	-0.541703	0.018935
Cl126	Cl	0.499877	-0.041703	0.518935
Cl127	Cl	-0.000125	-1.072841	0.251077
Cl128	Cl	0.499875	-0.572841	0.751077
H129	H	-0.000070	-0.784717	0.212950
H130	H	0.499930	-0.284717	0.712950
H131	H	-0.742025	-0.975930	-0.126761
H132	H	-0.242025	-0.475930	0.373239
H133	H	-0.000068	-0.830519	0.437339
H134	H	0.499932	-0.330519	0.937339
Cl135	Cl	-0.000076	-0.519610	-0.302154
Cl136	Cl	0.499924	-0.019610	0.197846
H137	H	-0.000087	-0.818534	0.586461
H138	H	0.499913	-0.318534	1.086461
H139	H	-0.000081	-0.796705	0.063821
H140	H	0.499919	-0.296705	0.563821
H141	H	-0.000117	-1.076620	0.604226
H142	H	0.499883	-0.576620	1.104226
Cl143	Cl	-0.726929	-1.032395	-0.070332
Cl144	Cl	-0.226929	-0.532395	0.429668
H145	H	-0.317784	-0.849890	-0.252695
H146	H	0.182216	-0.349890	0.247305
H147	H	-0.000137	-1.054797	0.081590
H148	H	0.499863	-0.554797	0.581590
H149	H	-0.000124	-1.088613	0.455097
H150	H	0.499876	-0.588613	0.955097
H151	H	-0.408974	-0.777150	-0.325376
H152	H	0.091026	-0.277150	0.174624
H153	H	-0.559725	-0.757248	-0.345277
H154	H	-0.059725	-0.257248	0.154723
H155	H	-0.591247	-1.096179	-0.006575
H156	H	-0.091247	-0.596179	0.493425
H157	H	-0.258160	-1.079472	-0.023241
H158	H	0.241840	-0.579472	0.476759
H159	H	-0.000081	-0.315590	-0.317926
H160	H	0.499919	0.184410	0.182074
H161	H	-0.000106	-0.166466	-0.305928
H162	H	0.499894	0.333534	0.194072
H163	H	-0.000136	-0.184231	-0.047843
H164	H	0.499864	0.315769	0.452157
H165	H	-0.742043	-0.793873	-0.308701
H166	H	-0.242043	-0.293873	0.191299
Cl167	Cl	-0.462736	-1.142779	0.039998
Cl168	Cl	0.037264	-0.642779	0.539998
Cl169	Cl	-0.000139	-0.353719	-0.029793
Cl170	Cl	0.499861	0.146281	0.470207
H171	H	-0.000100	-0.706862	-0.026022
H172	H	0.499900	-0.206862	0.473978
