data_functionalizedCrystal
_audit_creation_method	'MofGen! by Chris Wilmer'
_symmetry_space_group_name_H-M	'P1'
_symmetry_Int_Tables_number	1
_symmetry_cell_setting	triclinic
loop_
_symmetry_equiv_pos_as_xyz
  x,y,z
_cell_length_a	21.295420
_cell_length_b	21.295417
_cell_length_c	15.296720
_cell_angle_alpha	99.639335
_cell_angle_beta	99.661426
_cell_angle_gamma	90.027953
loop_
_atom_site_label
_atom_site_type_symbol
_atom_site_fract_x
_atom_site_fract_y
_atom_site_fract_z
Zn1	Zn	0.900690	-0.312215	-0.510041
Zn2	Zn	1.400690	0.187785	-0.010041
Zn3	Zn	0.918834	-0.399275	-0.359182
Zn4	Zn	1.418834	0.100725	0.140818
Zn5	Zn	0.813650	-0.294024	-0.359207
Zn6	Zn	1.313650	0.205976	0.140793
Zn7	Zn	0.795391	-0.417440	-0.509982
Zn8	Zn	1.295391	0.082560	-0.009982
O9	O	0.857141	-0.355738	-0.434603
O10	O	1.357141	0.144262	0.065397
O11	O	0.991184	-0.323775	-0.490043
O12	O	1.491184	0.176225	0.009957
O13	O	0.920116	-0.370098	-0.232951
O14	O	1.420116	0.129902	0.267049
O15	O	0.825244	-0.208352	-0.379251
O16	O	1.325244	0.291648	0.120749
O17	O	1.004515	-0.387738	-0.379208
O18	O	1.504515	0.112262	0.120792
O19	O	0.889192	-0.221717	-0.490068
O20	O	1.389192	0.278283	0.009932
O21	O	0.842838	-0.292770	-0.232969
O22	O	1.342838	0.207230	0.267031
O23	O	0.723140	-0.310384	-0.379194
O24	O	1.223140	0.189616	0.120806
O25	O	0.794124	-0.418697	-0.636224
O26	O	1.294124	0.081303	-0.136224
O27	O	0.709725	-0.401057	-0.489967
O28	O	1.209725	0.098943	0.010033
O29	O	0.871486	-0.341389	-0.636268
O30	O	1.371486	0.158611	-0.136268
O31	O	0.902411	-0.489770	-0.379151
O32	O	1.402411	0.010230	0.120849
O33	O	0.811718	-0.503115	-0.489943
O34	O	1.311718	-0.003115	0.010057
C35	C	0.693593	-0.355718	-0.434577
C36	C	1.193593	0.144282	0.065423
C37	C	0.623623	-0.355727	-0.434587
C38	C	1.123623	0.144273	0.065413
C39	C	0.117201	-0.403019	-0.492227
C40	C	0.617201	0.096981	0.007773
C41	C	0.182945	-0.403019	-0.492217
C42	C	0.682945	0.096981	0.007783
C43	C	0.222778	-0.355756	-0.434631
C44	C	0.722778	0.144244	0.065369
C45	C	0.196865	-0.308500	-0.377034
C46	C	0.696865	0.191500	0.122966
C47	C	0.131123	-0.308506	-0.377039
C48	C	0.631123	0.191494	0.122961
N49	N	0.326839	-0.299821	-0.427848
N50	N	0.826839	0.200179	0.072152
N51	N	0.389290	-0.299817	-0.427849
N52	N	0.889290	0.200183	0.072151
C53	C	0.420856	-0.355736	-0.434612
C54	C	0.920856	0.144264	0.065388
N55	N	0.387608	-0.411661	-0.441392
N56	N	0.887608	0.088339	0.058608
N57	N	0.325151	-0.411665	-0.441396
N58	N	0.825151	0.088335	0.058604
C59	C	0.294065	-0.355745	-0.434619
C60	C	0.794065	0.144255	0.065381
C61	C	0.518049	-0.402990	-0.492191
C62	C	1.018049	0.097010	0.007809
C63	C	0.583794	-0.402990	-0.492175
C64	C	1.083794	0.097010	0.007825
C65	C	0.597713	-0.308467	-0.376997
C66	C	1.097713	0.191533	0.123003
C67	C	0.531969	-0.308472	-0.377008
C68	C	1.031969	0.191528	0.122992
C69	C	0.492140	-0.355734	-0.434610
C70	C	0.992140	0.144266	0.065390
C71	C	0.857066	-0.519285	-0.434557
C72	C	1.357066	-0.019285	0.065443
C73	C	0.857088	-0.589254	-0.434568
C74	C	1.357088	-0.089254	0.065432
C75	C	0.890358	-0.629028	-0.492312
C76	C	1.390358	-0.129028	0.007688
C77	C	0.890377	-0.694773	-0.492334
C78	C	1.390377	-0.194773	0.007666
C79	C	0.857136	-0.720740	-0.434596
C80	C	1.357136	-0.220740	0.065404
C81	C	0.823859	-0.680958	-0.376849
C82	C	1.323859	-0.180958	0.123151
C83	C	0.823835	-0.615215	-0.376835
C84	C	1.323835	-0.115215	0.123165
N85	N	0.861922	-0.814472	-0.355649
N86	N	1.361922	-0.314472	0.144351
N87	N	0.861948	-0.876925	-0.355665
N88	N	1.361948	-0.376925	0.144335
C89	C	0.857205	-0.918819	-0.434637
C90	C	1.357205	-0.418819	0.065363
N91	N	0.852446	-0.895901	-0.513594
N92	N	1.352446	-0.395901	-0.013594
N93	N	0.852424	-0.833442	-0.513577
N94	N	1.352424	-0.333442	-0.013577
C95	C	0.857158	-0.792026	-0.434606
C96	C	1.357158	-0.292026	0.065394
C97	C	0.890497	-1.029882	-0.492410
C98	C	1.390497	-0.529882	0.007590
C99	C	0.890512	-1.095629	-0.492433
C100	C	1.390512	-0.595629	0.007567
C101	C	0.823998	-1.081811	-0.376940
C102	C	1.323998	-0.581811	0.123060
C103	C	0.823979	-1.016067	-0.376925
C104	C	1.323979	-0.516067	0.123075
C105	C	0.857232	-0.990106	-0.434658
C106	C	1.357232	-0.490106	0.065342
C107	C	1.021328	-0.355759	-0.434630
C108	C	1.521328	0.144241	0.065370
C109	C	1.091295	-0.355768	-0.434641
C110	C	1.591295	0.144232	0.065359
C111	C	0.828744	-0.384098	-0.669892
C112	C	1.328744	0.115902	-0.169892
C113	C	0.816643	-0.396183	-0.770159
C114	C	1.316643	0.103817	-0.270159
C115	C	0.857231	-0.191556	-0.434669
C116	C	1.357231	0.308444	0.065331
C117	C	0.857269	-0.121591	-0.434697
C118	C	1.357269	0.378409	0.065303
C119	C	0.943652	-0.269253	-1.052883
C120	C	1.443652	0.230747	-0.552883
C121	C	0.955026	-0.257900	-0.958678
C122	C	1.455026	0.242100	-0.458678
C123	C	0.920431	-0.292469	-0.911544
C124	C	1.420431	0.207531	-0.411544
C125	C	0.874461	-0.338395	-0.958624
C126	C	1.374461	0.161605	-0.458624
C127	C	0.863090	-0.349753	-1.052838
C128	C	1.363090	0.150247	-0.552838
C129	C	0.839869	-0.372969	-0.911498
C130	C	1.339869	0.127031	-0.411498
C131	C	0.793899	-0.418895	-0.958578
C132	C	1.293899	0.081105	-0.458578
C133	C	0.782530	-0.430251	-1.052783
C134	C	1.282530	0.069749	-0.552783
C135	C	0.817124	-0.395681	-1.099918
C136	C	1.317124	0.104319	-0.599918
C137	C	0.851240	-0.361611	-0.817284
C138	C	1.351240	0.138389	-0.317284
C139	C	0.770678	-0.442111	-0.817239
C140	C	1.270678	0.057889	-0.317239
C141	C	0.759304	-0.453465	-0.911444
C142	C	1.259304	0.046535	-0.411444
C143	C	0.885464	-0.327444	-0.200229
C144	C	1.385464	0.172556	0.299771
C145	C	0.897686	-0.315181	-0.099963
C146	C	1.397686	0.184819	0.400037
H147	H	0.604886	-0.441471	-0.539066
H148	H	1.104886	0.058529	-0.039066
O149	O	0.895957	-0.317082	-0.771514
O150	O	1.395957	0.182918	-0.271514
C151	C	0.943165	-0.346347	-0.716988
C152	C	1.443165	0.153653	-0.216988
H153	H	0.943605	-0.399346	-0.745353
H154	H	1.443605	0.100654	-0.245353
H155	H	0.991748	-0.323455	-0.715936
H156	H	1.491748	0.176545	-0.215936
H157	H	0.932316	-0.339904	-0.645586
H158	H	1.432316	0.160096	-0.145586
O159	O	0.506899	-0.262504	-0.321047
O160	O	1.006899	0.237496	0.178953
C161	C	0.556154	-0.220797	-0.270200
C162	C	1.056154	0.279203	0.229800
H163	H	0.598563	-0.223107	-0.307150
H164	H	1.098563	0.276893	0.192850
H165	H	0.538324	-0.170047	-0.260708
H166	H	1.038324	0.329953	0.239292
H167	H	0.571404	-0.235510	-0.201629
H168	H	1.071404	0.264490	0.298371
O169	O	0.922889	-1.134173	-0.548555
O170	O	1.422889	-0.634173	-0.048555
C171	C	0.952221	-1.097159	-0.599518
C172	C	1.452221	-0.597159	-0.099518
H173	H	0.958860	-1.045852	-0.562561
H174	H	1.458860	-0.545852	-0.062561
H175	H	1.000652	-1.117275	-0.609199
H176	H	1.500652	-0.617275	-0.109199
H177	H	0.920870	-1.098421	-0.668003
H178	H	1.420870	-0.598421	-0.168003
O179	O	0.105945	-0.262684	-0.320991
O180	O	0.605945	0.237316	0.179009
C181	C	0.074929	-0.291441	-0.262658
C182	C	0.574929	0.208559	0.237342
H183	H	0.095404	-0.340329	-0.256978
H184	H	0.595404	0.159671	0.243022
H185	H	0.082564	-0.260250	-0.193287
H186	H	0.582564	0.239750	0.306713
H187	H	0.021739	-0.296996	-0.290539
H188	H	0.521739	0.203004	0.209461
O189	O	0.922745	-0.733468	-0.548305
O190	O	1.422745	-0.233468	-0.048305
C191	C	0.969648	-0.765279	-0.497005
C192	C	1.469648	-0.265279	0.002995
H193	H	0.955739	-0.766928	-0.428618
H194	H	1.455739	-0.266928	0.071382
H195	H	0.973648	-0.815920	-0.533772
H196	H	1.473648	-0.315920	-0.033772
H197	H	1.017481	-0.738714	-0.487144
H198	H	1.517481	-0.238714	0.012856
H199	H	0.796927	-1.102954	-0.329935
H200	H	1.296927	-0.602954	0.170065
H201	H	0.084777	-0.441505	-0.539128
H202	H	0.584777	0.058495	-0.039128
H203	H	0.917432	-0.607893	-0.539324
H204	H	1.417432	-0.107893	-0.039324
H205	H	0.796792	-0.702104	-0.329841
H206	H	1.296792	-0.202104	0.170159
O207	O	0.737922	-0.474944	-1.098413
O208	O	1.237922	0.025056	-0.598413
C209	C	0.754434	-0.534906	-1.075376
C210	C	1.254434	-0.034906	-0.575376
H211	H	0.786889	-0.527964	-1.006979
H212	H	1.286889	-0.027964	-0.506979
H213	H	0.709379	-0.562736	-1.072126
H214	H	1.209379	-0.062736	-0.572126
H215	H	0.780385	-0.562507	-1.128394
H216	H	1.280385	-0.062507	-0.628394
H217	H	0.485618	-0.441474	-0.539093
H218	H	0.985618	0.058526	-0.039093
H219	H	0.796743	-0.582829	-0.329812
H220	H	1.296743	-0.082829	0.170188
H221	H	0.917571	-1.008745	-0.539423
H222	H	1.417571	-0.508745	-0.039423
H223	H	0.796891	-0.983680	-0.329901
H224	H	1.296891	-0.483680	0.170099
O225	O	0.805974	-0.406658	-1.191432
O226	O	1.305974	0.093342	-0.691432
C227	C	0.741849	-0.394295	-1.222899
C228	C	1.241849	0.105705	-0.722899
H229	H	0.722395	-0.360306	-1.168613
H230	H	1.222395	0.139694	-0.668613
H231	H	0.738762	-0.371711	-1.285940
H232	H	1.238762	0.128289	-0.785940
H233	H	0.712537	-0.440871	-1.239589
H234	H	1.212537	0.059129	-0.739589
H235	H	0.929694	-0.283222	-0.834837
H236	H	1.429694	0.216778	-0.334837
H237	H	0.992456	-0.220508	-0.920352
H238	H	1.492456	0.279492	-0.420352
O239	O	0.235481	-0.262508	-0.321138
O240	O	0.735481	0.237492	0.178862
C241	C	0.217055	-0.202186	-0.341023
C242	C	0.717055	0.297814	0.158977
H243	H	0.165141	-0.205101	-0.375708
H244	H	0.665141	0.294899	0.124292
H245	H	0.222657	-0.166056	-0.275988
H246	H	0.722657	0.333944	0.224012
H247	H	0.248466	-0.186622	-0.387449
H248	H	0.748466	0.313378	0.112551
H249	H	0.630145	-0.269986	-0.330106
H250	H	1.130145	0.230014	0.169894
H251	H	0.971818	-0.241115	-1.091269
H252	H	1.471818	0.258885	-0.591269
O253	O	0.208011	-0.448948	-0.548249
O254	O	0.708011	0.051052	-0.048249
C255	C	0.158762	-0.490672	-0.599073
C256	C	0.658762	0.009328	-0.099073
H257	H	0.111523	-0.465284	-0.602260
H258	H	0.611523	0.034716	-0.102260
H259	H	0.169187	-0.506014	-0.670130
H260	H	0.669187	-0.006014	-0.170130
H261	H	0.155752	-0.534456	-0.565929
H262	H	0.655752	-0.034456	-0.065929
H263	H	0.721875	-0.490858	-0.949790
H264	H	1.221875	0.009142	-0.449790
H265	H	0.742509	-0.470262	-0.778862
H266	H	1.242509	0.029738	-0.278862
