data_functionalizedCrystal
_audit_creation_method	'MofGen! by Chris Wilmer'
_symmetry_space_group_name_H-M	'P1'
_symmetry_Int_Tables_number	1
_symmetry_cell_setting	triclinic
loop_
_symmetry_equiv_pos_as_xyz
  x,y,z
_cell_length_a	21.295418
_cell_length_b	21.295417
_cell_length_c	21.295411
_cell_angle_alpha	89.978356
_cell_angle_beta	89.956262
_cell_angle_gamma	90.046319
loop_
_atom_site_label
_atom_site_type_symbol
_atom_site_fract_x
_atom_site_fract_y
_atom_site_fract_z
Zn1	Zn	0.962356	-0.250415	-0.356234
Zn2	Zn	1.212356	-0.000415	-0.106234
Zn3	Zn	1.462356	0.249585	0.143766
Zn4	Zn	1.712356	0.499585	0.393766
Zn5	Zn	0.962258	-0.355667	-0.250959
Zn6	Zn	1.212258	-0.105667	-0.000959
Zn7	Zn	1.462258	0.144333	0.249041
Zn8	Zn	1.712258	0.394333	0.499041
Zn9	Zn	0.857079	-0.250445	-0.250943
Zn10	Zn	1.107079	-0.000445	-0.000943
Zn11	Zn	1.357079	0.249555	0.249057
Zn12	Zn	1.607079	0.499555	0.499057
Zn13	Zn	0.857048	-0.355680	-0.356155
Zn14	Zn	1.107048	-0.105680	-0.106155
Zn15	Zn	1.357048	0.144320	0.143845
Zn16	Zn	1.607048	0.394320	0.393845
O17	O	0.909685	-0.303052	-0.303573
O18	O	1.159685	-0.053052	-0.053573
O19	O	1.409685	0.196948	0.196427
O20	O	1.659685	0.446948	0.446427
O21	O	1.050432	-0.264360	-0.342308
O22	O	1.300432	-0.014360	-0.092308
O23	O	1.550432	0.235640	0.157692
O24	O	1.800432	0.485640	0.407692
O25	O	0.948278	-0.341716	-0.162867
O26	O	1.198278	-0.091716	0.087133
O27	O	1.448278	0.158284	0.337133
O28	O	1.698278	0.408284	0.587133
O29	O	0.871098	-0.162351	-0.264937
O30	O	1.121098	0.087649	-0.014937
O31	O	1.371098	0.337649	0.235063
O32	O	1.621098	0.587649	0.485063
O33	O	1.050361	-0.341688	-0.264963
O34	O	1.300361	-0.091688	-0.014963
O35	O	1.550361	0.158312	0.235037
O36	O	1.800361	0.408312	0.485037
O37	O	0.948444	-0.162330	-0.342293
O38	O	1.198444	0.087670	-0.092293
O39	O	1.448444	0.337670	0.157707
O40	O	1.698444	0.587670	0.407707
O41	O	0.871003	-0.264410	-0.162856
O42	O	1.121003	-0.014410	0.087144
O43	O	1.371003	0.235590	0.337144
O44	O	1.621003	0.485590	0.587144
O45	O	0.768985	-0.264422	-0.264861
O46	O	1.018985	-0.014422	-0.014861
O47	O	1.268985	0.235578	0.235139
O48	O	1.518985	0.485578	0.485139
O49	O	0.871046	-0.341709	-0.444255
O50	O	1.121046	-0.091709	-0.194255
O51	O	1.371046	0.158291	0.055745
O52	O	1.621046	0.408291	0.305745
O53	O	0.768963	-0.341738	-0.342160
O54	O	1.018963	-0.091738	-0.092160
O55	O	1.268963	0.158262	0.157840
O56	O	1.518963	0.408262	0.407840
O57	O	0.948415	-0.264372	-0.444313
O58	O	1.198415	-0.014372	-0.194313
O59	O	1.448415	0.235628	0.055687
O60	O	1.698415	0.485628	0.305687
O61	O	0.948248	-0.443758	-0.264887
O62	O	1.198248	-0.193758	-0.014887
O63	O	1.448248	0.056242	0.235113
O64	O	1.698248	0.306242	0.485113
O65	O	0.870951	-0.443767	-0.342175
O66	O	1.120951	-0.193767	-0.092175
O67	O	1.370951	0.056233	0.157825
O68	O	1.620951	0.306233	0.407825
C69	C	0.746134	-0.303085	-0.303500
C70	C	0.996134	-0.053085	-0.053500
C71	C	1.246134	0.196915	0.196500
C72	C	1.496134	0.446915	0.446500
C73	C	0.676166	-0.303114	-0.303484
C74	C	0.926166	-0.053114	-0.053484
C75	C	1.176166	0.196886	0.196516
C76	C	1.426166	0.446886	0.446516
C77	C	0.643304	-0.343426	-0.343674
C78	C	0.893304	-0.093426	-0.093674
C79	C	1.143304	0.156574	0.156326
C80	C	1.393304	0.406574	0.406326
C81	C	0.577561	-0.343410	-0.343702
C82	C	0.827561	-0.093410	-0.093702
C83	C	1.077561	0.156590	0.156298
C84	C	1.327561	0.406590	0.406298
C85	C	0.544683	-0.303090	-0.303530
C86	C	0.794683	-0.053090	-0.053530
C87	C	1.044683	0.196910	0.196470
C88	C	1.294683	0.446910	0.446470
C89	C	0.577553	-0.262770	-0.263337
C90	C	0.827553	-0.012770	-0.013337
C91	C	1.077553	0.237230	0.236663
C92	C	1.327553	0.487230	0.486663
C93	C	0.643294	-0.262783	-0.263315
C94	C	0.893294	-0.012783	-0.013315
C95	C	1.143294	0.237217	0.236685
C96	C	1.393294	0.487217	0.486685
N97	N	0.441407	-0.298163	-0.248472
N98	N	0.691407	-0.048163	0.001528
N99	N	0.941407	0.201837	0.251528
N100	N	1.191407	0.451837	0.501528
N101	N	0.378956	-0.298155	-0.248495
N102	N	0.628956	-0.048155	0.001505
N103	N	0.878956	0.201845	0.251505
N104	N	1.128956	0.451845	0.501505
C105	C	0.346608	-0.303050	-0.303596
C106	C	0.596608	-0.053050	-0.053596
C107	C	0.846608	0.196950	0.196404
C108	C	1.096608	0.446950	0.446404
N109	N	0.379072	-0.307965	-0.358675
N110	N	0.629072	-0.057965	-0.108675
N111	N	0.879072	0.192035	0.141325
N112	N	1.129072	0.442035	0.391325
N113	N	0.441529	-0.307976	-0.358650
N114	N	0.691529	-0.057976	-0.108650
N115	N	0.941529	0.192024	0.141350
N116	N	1.191529	0.442024	0.391350
C117	C	0.473398	-0.303072	-0.303550
C118	C	0.723398	-0.053072	-0.053550
C119	C	0.973398	0.196928	0.196450
C120	C	1.223398	0.446928	0.446450
C121	C	0.242461	-0.343346	-0.343820
C122	C	0.492461	-0.093346	-0.093820
C123	C	0.742461	0.156654	0.156180
C124	C	0.992461	0.406654	0.406180
C125	C	0.176717	-0.343326	-0.343849
C126	C	0.426717	-0.093326	-0.093849
C127	C	0.676717	0.156674	0.156151
C128	C	0.926717	0.406674	0.406151
C129	C	0.176710	-0.262690	-0.263479
C130	C	0.426710	-0.012690	-0.013479
C131	C	0.676710	0.237310	0.236521
C132	C	0.926710	0.487310	0.486521
C133	C	0.242453	-0.262707	-0.263455
C134	C	0.492453	-0.012707	-0.013455
C135	C	0.742453	0.237293	0.236545
C136	C	0.992453	0.487293	0.486545
C137	C	0.275324	-0.303038	-0.303625
C138	C	0.525324	-0.053038	-0.053625
C139	C	0.775324	0.196962	0.196375
C140	C	1.025324	0.446962	0.446375
C141	C	0.909603	-0.466603	-0.303538
C142	C	1.159603	-0.216603	-0.053538
C143	C	1.409603	0.033397	0.196462
C144	C	1.659603	0.283397	0.446462
C145	C	0.909625	-0.536571	-0.303544
C146	C	1.159625	-0.286571	-0.053544
C147	C	1.409625	-0.036571	0.196456
C148	C	1.659625	0.213429	0.446456
C149	C	0.949910	-0.569412	-0.263342
C150	C	1.199910	-0.319412	-0.013342
C151	C	1.449910	-0.069412	0.236658
C152	C	1.699910	0.180588	0.486658
C153	C	0.949939	-0.635155	-0.263356
C154	C	1.199939	-0.385155	-0.013356
C155	C	1.449939	-0.135155	0.236644
C156	C	1.699939	0.114845	0.486644
C157	C	0.909673	-0.668054	-0.303566
C158	C	1.159673	-0.418054	-0.053566
C159	C	1.409673	-0.168054	0.196434
C160	C	1.659673	0.081946	0.446434
C161	C	0.869386	-0.635205	-0.343776
C162	C	1.119386	-0.385205	-0.093776
C163	C	1.369386	-0.135205	0.156224
C164	C	1.619386	0.114795	0.406224
C165	C	0.869362	-0.569464	-0.343765
C166	C	1.119362	-0.319464	-0.093765
C167	C	1.369362	-0.069464	0.156235
C168	C	1.619362	0.180536	0.406235
N169	N	0.854606	-0.771336	-0.308340
N170	N	1.104606	-0.521336	-0.058340
N171	N	1.354606	-0.271336	0.191660
N172	N	1.604606	-0.021336	0.441660
N173	N	0.854630	-0.833787	-0.308347
N174	N	1.104630	-0.583787	-0.058347
N175	N	1.354630	-0.333787	0.191653
N176	N	1.604630	-0.083787	0.441653
C177	C	0.909743	-0.866129	-0.303602
C178	C	1.159743	-0.616129	-0.053602
C179	C	1.409743	-0.366129	0.196398
C180	C	1.659743	-0.116129	0.446398
N181	N	0.964832	-0.833659	-0.298838
N182	N	1.214832	-0.583659	-0.048838
N183	N	1.464832	-0.333659	0.201162
N184	N	1.714832	-0.083659	0.451162
N185	N	0.964807	-0.771202	-0.298828
N186	N	1.214807	-0.521202	-0.048828
N187	N	1.464807	-0.271202	0.201172
N188	N	1.714807	-0.021202	0.451172
C189	C	0.909695	-0.739339	-0.303582
C190	C	1.159695	-0.489339	-0.053582
C191	C	1.409695	-0.239339	0.196418
C192	C	1.659695	0.010661	0.446418
C193	C	0.950063	-0.970255	-0.263413
C194	C	1.200063	-0.720255	-0.013413
C195	C	1.450063	-0.470255	0.236587
C196	C	1.700063	-0.220255	0.486587
C197	C	0.950094	-1.035999	-0.263431
C198	C	1.200094	-0.785999	-0.013431
C199	C	1.450094	-0.535999	0.236569
C200	C	1.700094	-0.285999	0.486569
C201	C	0.869535	-1.036048	-0.343848
C202	C	1.119535	-0.786048	-0.093848
C203	C	1.369535	-0.536048	0.156152
C204	C	1.619535	-0.286048	0.406152
C205	C	0.869510	-0.970305	-0.343833
C206	C	1.119510	-0.720305	-0.093833
C207	C	1.369510	-0.470305	0.156167
C208	C	1.619510	-0.220305	0.406167
C209	C	0.909773	-0.937413	-0.303612
C210	C	1.159773	-0.687413	-0.053612
C211	C	1.409773	-0.437413	0.196388
C212	C	1.659773	-0.187413	0.446388
C213	C	1.073876	-0.303019	-0.303646
C214	C	1.323876	-0.053019	-0.053646
C215	C	1.573876	0.196981	0.196354
C216	C	1.823876	0.446981	0.446354
C217	C	1.143844	-0.303005	-0.303677
C218	C	1.393844	-0.053005	-0.053677
C219	C	1.643844	0.196995	0.196323
C220	C	1.893844	0.446995	0.446323
C221	C	0.909738	-0.303038	-0.467763
C222	C	1.159738	-0.053038	-0.217763
C223	C	1.409738	0.196962	0.032237
C224	C	1.659738	0.446962	0.282237
C225	C	0.909760	-0.303033	-0.537731
C226	C	1.159760	-0.053033	-0.287731
C227	C	1.409760	0.196967	-0.037731
C228	C	1.659760	0.446967	0.212269
C229	C	0.909785	-0.138861	-0.303622
C230	C	1.159785	0.111139	-0.053622
C231	C	1.409785	0.361139	0.196378
C232	C	1.659785	0.611139	0.446378
C233	C	0.909828	-0.068893	-0.303642
C234	C	1.159828	0.181107	-0.053642
C235	C	1.409828	0.431107	0.196358
C236	C	1.659828	0.681107	0.446358
C237	C	0.950044	-0.262761	-0.570629
C238	C	1.200044	-0.012761	-0.320629
C239	C	1.450044	0.237239	-0.070629
C240	C	1.700044	0.487239	0.179371
C241	C	0.950043	-0.262734	-0.636371
C242	C	1.200043	-0.012734	-0.386371
C243	C	1.450043	0.237266	-0.136371
C244	C	1.700043	0.487266	0.113629
C245	C	0.909765	-0.302989	-0.669214
C246	C	1.159765	-0.052989	-0.419214
C247	C	1.409765	0.197011	-0.169214
C248	C	1.659765	0.447011	0.080786
C249	C	0.869473	-0.343263	-0.636308
C250	C	1.119473	-0.093263	-0.386308
C251	C	1.369473	0.156737	-0.136308
C252	C	1.619473	0.406737	0.113692
C253	C	0.869470	-0.343285	-0.570567
C254	C	1.119470	-0.093285	-0.320567
C255	C	1.369470	0.156715	-0.070567
C256	C	1.619470	0.406715	0.179433
N257	N	0.904908	-0.358058	-0.772428
N258	N	1.154908	-0.108058	-0.522428
N259	N	1.404908	0.141942	-0.272428
N260	N	1.654908	0.391942	-0.022428
N261	N	0.904914	-0.358036	-0.834879
N262	N	1.154914	-0.108036	-0.584879
N263	N	1.404914	0.141964	-0.334879
N264	N	1.654914	0.391964	-0.084879
C265	C	0.909769	-0.302926	-0.867289
C266	C	1.159769	-0.052926	-0.617289
C267	C	1.409769	0.197074	-0.367289
C268	C	1.659769	0.447074	-0.117289
N269	N	0.914629	-0.247837	-0.834888
N270	N	1.164629	0.002163	-0.584888
N271	N	1.414629	0.252163	-0.334888
N272	N	1.664629	0.502163	-0.084888
N273	N	0.914627	-0.247860	-0.772430
N274	N	1.164627	0.002140	-0.522430
N275	N	1.414627	0.252140	-0.272430
N276	N	1.664627	0.502140	-0.022430
C277	C	0.909763	-0.302970	-0.740499
C278	C	1.159763	-0.052970	-0.490499
C279	C	1.409763	0.197030	-0.240499
C280	C	1.659763	0.447030	0.009501
C281	C	0.950054	-0.262621	-0.971472
C282	C	1.200054	-0.012621	-0.721472
C283	C	1.450054	0.237379	-0.471472
C284	C	1.700054	0.487379	-0.221472
C285	C	0.950049	-0.262593	-1.037216
C286	C	1.200049	-0.012593	-0.787216
C287	C	1.450049	0.237407	-0.537216
C288	C	1.700049	0.487407	-0.287216
C289	C	0.869482	-0.343128	-1.037151
C290	C	1.119482	-0.093128	-0.787151
C291	C	1.369482	0.156872	-0.537151
C292	C	1.619482	0.406872	-0.287151
C293	C	0.869484	-0.343151	-0.971409
C294	C	1.119484	-0.093151	-0.721409
C295	C	1.369484	0.156849	-0.471409
C296	C	1.619484	0.406849	-0.221409
C297	C	0.909773	-0.302898	-0.938573
C298	C	1.159773	-0.052898	-0.688573
C299	C	1.409773	0.197102	-0.438573
C300	C	1.659773	0.447102	-0.188573
C301	C	0.909670	-0.303019	-0.140021
C302	C	1.159670	-0.053019	0.109979
C303	C	1.409670	0.196981	0.359979
C304	C	1.659670	0.446981	0.609979
C305	C	0.909769	-0.302848	-0.070054
C306	C	1.159769	-0.052848	0.179946
C307	C	1.409769	0.197152	0.429946
C308	C	1.659769	0.447152	0.679946
H309	H	0.149962	-0.376152	-0.376580
H310	H	0.399962	-0.126152	-0.126580
H311	H	0.649962	0.123848	0.123420
H312	H	0.899962	0.373848	0.373420
H313	H	0.836683	-0.375948	-0.944623
H314	H	1.086683	-0.125948	-0.694623
H315	H	1.336683	0.124052	-0.444623
H316	H	1.586683	0.374052	-0.194623
H317	H	0.836557	-0.542724	-0.376503
H318	H	1.086557	-0.292724	-0.126503
H319	H	1.336557	-0.042724	0.123497
H320	H	1.586557	0.207276	0.373497
H321	H	0.982696	-0.542633	-0.230593
H322	H	1.232696	-0.292633	0.019407
H323	H	1.482696	-0.042633	0.269407
H324	H	1.732696	0.207367	0.519407
H325	H	0.982850	-0.943473	-0.230664
H326	H	1.232850	-0.693473	0.019336
H327	H	1.482850	-0.443473	0.269336
H328	H	1.732850	-0.193473	0.519336
H329	H	0.982852	-0.229795	-1.064000
H330	H	1.232852	0.020205	-0.814000
H331	H	1.482852	0.270205	-0.564000
H332	H	1.732852	0.520205	-0.314000
H333	H	0.550779	-0.229940	-0.230630
H334	H	0.800779	0.020060	0.019370
H335	H	1.050779	0.270060	0.269370
H336	H	1.300779	0.520060	0.519370
H337	H	0.149942	-0.229857	-0.230773
H338	H	0.399942	0.020143	0.019227
H339	H	0.649942	0.270143	0.269227
H340	H	0.899942	0.520143	0.519227
H341	H	0.670063	-0.376266	-0.376384
H342	H	0.920063	-0.126266	-0.126384
H343	H	1.170063	0.123734	0.123616
H344	H	1.420063	0.373734	0.373616
H345	H	0.836680	-0.375898	-1.063891
H346	H	1.086680	-0.125898	-0.813891
H347	H	1.336680	0.124102	-0.563891
H348	H	1.586680	0.374102	-0.313891
H349	H	0.836704	-0.943564	-0.376567
H350	H	1.086704	-0.693564	-0.126567
H351	H	1.336704	-0.443564	0.123433
H352	H	1.586704	-0.193564	0.373433
H353	H	0.982746	-0.661899	-0.230619
H354	H	1.232746	-0.411899	0.019381
H355	H	1.482746	-0.161899	0.269381
H356	H	1.732746	0.088101	0.519381
H357	H	0.550800	-0.376236	-0.376431
H358	H	0.800800	-0.126236	-0.126431
H359	H	1.050800	0.123764	0.123569
H360	H	1.300800	0.373764	0.373569
H361	H	0.269226	-0.376183	-0.376531
H362	H	0.519226	-0.126183	-0.126531
H363	H	0.769226	0.123817	0.123469
H364	H	1.019226	0.373817	0.373469
H365	H	0.269209	-0.229884	-0.230726
H366	H	0.519209	0.020116	0.019274
H367	H	0.769209	0.270116	0.269274
H368	H	1.019209	0.520116	0.519274
H369	H	0.670050	-0.229954	-0.230588
H370	H	0.920050	0.020046	0.019412
H371	H	1.170050	0.270046	0.269412
H372	H	1.420050	0.520046	0.519412
H373	H	0.836752	-1.062833	-0.376591
H374	H	1.086752	-0.812833	-0.126591
H375	H	1.336752	-0.562833	0.123409
H376	H	1.586752	-0.312833	0.373409
H377	H	0.836602	-0.661996	-0.376516
H378	H	1.086602	-0.411996	-0.126516
H379	H	1.336602	-0.161996	0.123484
H380	H	1.586602	0.088004	0.373484
H381	H	0.982846	-0.229937	-0.663162
H382	H	1.232846	0.020063	-0.413162
H383	H	1.482846	0.270063	-0.163162
H384	H	1.732846	0.520063	0.086838
H385	H	0.982902	-1.062737	-0.230695
H386	H	1.232902	-0.812737	0.019305
H387	H	1.482902	-0.562737	0.269305
H388	H	1.732902	-0.312737	0.519305
H389	H	0.836676	-0.376038	-0.663053
H390	H	1.086676	-0.126038	-0.413053
H391	H	1.336676	0.123962	-0.163053
H392	H	1.586676	0.373962	0.086947
H393	H	0.982850	-0.229984	-0.543898
H394	H	1.232850	0.020016	-0.293898
H395	H	1.482850	0.270016	-0.043898
H396	H	1.732850	0.520016	0.206102
H397	H	0.836663	-0.376078	-0.543782
H398	H	1.086663	-0.126078	-0.293782
H399	H	1.336663	0.123922	-0.043782
H400	H	1.586663	0.373922	0.206218
H401	H	0.982857	-0.229842	-0.944736
H402	H	1.232857	0.020158	-0.694736
H403	H	1.482857	0.270158	-0.444736
H404	H	1.732857	0.520158	-0.194736
