data_functionalizedCrystal
_audit_creation_method	'MofGen! by Chris Wilmer'
_symmetry_space_group_name_H-M	'P1'
_symmetry_Int_Tables_number	1
_symmetry_cell_setting	triclinic
loop_
_symmetry_equiv_pos_as_xyz
  x,y,z
_cell_length_a	6.817900
_cell_length_b	11.102288
_cell_length_c	14.125465
_cell_angle_alpha	94.635072
_cell_angle_beta	100.398878
_cell_angle_gamma	108.605689
loop_
_atom_site_label
_atom_site_type_symbol
_atom_site_fract_x
_atom_site_fract_y
_atom_site_fract_z
V1	V	-4.017267	-0.174747	-0.299976
O2	O	-3.978094	0.009521	-0.294266
O3	O	-3.994689	-0.347575	-0.297925
O4	O	-3.952937	-0.171566	-0.430807
O5	O	-4.020135	-0.167706	-0.160465
V6	V	-4.499614	-0.152765	-0.283290
O7	O	-4.281107	-0.222967	-0.336580
O8	O	-4.685971	-0.104545	-0.246686
O9	O	-4.298985	0.020063	-0.285341
O10	O	-4.656184	-0.337033	-0.289000
O11	O	-4.614143	-0.159806	-0.422802
O12	O	-4.340737	-0.155946	-0.152460
C13	C	-3.846487	-0.389722	-0.293193
C14	C	-3.909207	-0.531008	-0.292387
C15	C	-4.121173	-0.603840	-0.296809
C16	C	-4.180096	-0.736594	-0.296060
C17	C	-3.815066	-0.723671	-0.286463
C18	C	-3.756148	-0.590921	-0.287219
C19	C	-3.793227	-0.165204	-0.462695
C20	C	-3.822085	-0.163747	-0.569649
C21	C	-3.874978	-0.161075	-0.765472
C22	C	-4.061272	-0.166435	-0.817794
C23	C	-4.090704	-0.164948	-0.926756
C24	C	-3.845538	-0.162561	-0.656500
C25	C	-4.110531	0.062203	-0.290071
C26	C	-4.027048	0.203488	-0.290882
C27	C	-4.163791	-0.162312	-0.120566
C28	C	-4.114171	-0.163763	-0.013611
H29	H	-4.245807	-0.555063	-0.301016
N30	N	-4.396620	-0.810994	-0.300594
N31	N	-4.537364	-0.814274	-0.372025
H32	H	-4.690294	-0.866820	-0.375231
N33	N	-3.658757	-0.784894	-0.281187
N34	N	-3.711383	-0.903420	-0.280512
H35	H	-3.600986	-0.946659	-0.276784
N36	N	-3.539601	-0.516533	-0.282691
N37	N	-3.398851	-0.513246	-0.211259
H38	H	-3.245920	-0.460711	-0.208063
N39	N	-4.233607	-0.173588	-0.771320
N40	N	-4.209083	-0.174803	-0.681587
H41	H	-4.330787	-0.179856	-0.648760
N42	N	-3.702653	-0.153915	-0.811945
N43	N	-3.727195	-0.152702	-0.901678
H44	H	-3.605499	-0.147648	-0.934511
