data_functionalizedCrystal
_audit_creation_method	'MofGen! by Chris Wilmer'
_symmetry_space_group_name_H-M	'P1'
_symmetry_Int_Tables_number	1
_symmetry_cell_setting	triclinic
loop_
_symmetry_equiv_pos_as_xyz
  x,y,z
_cell_length_a	19.288840
_cell_length_b	16.109298
_cell_length_c	18.366186
_cell_angle_alpha	89.999156
_cell_angle_beta	89.983729
_cell_angle_gamma	83.293103
loop_
_atom_site_label
_atom_site_type_symbol
_atom_site_fract_x
_atom_site_fract_y
_atom_site_fract_z
O1	O	0.921610	0.103617	-0.060663
O2	O	0.719380	0.117630	-0.060636
O3	O	0.826052	-0.010428	-0.060655
O4	O	0.814939	0.231674	-0.060644
O5	O	0.826034	-0.010434	0.060444
O6	O	0.719362	0.117623	0.060463
O7	O	0.921592	0.103611	0.060437
Zn8	Zn	0.820474	0.110616	0.079677
Zn9	Zn	0.820498	0.110624	-0.079877
O10	O	0.814921	0.231668	0.060456
C11	C	0.693494	0.117179	-0.000083
C12	C	0.616386	0.115836	-0.000074
C13	C	0.580191	0.115194	-0.066087
C14	C	0.507741	0.113923	-0.066096
C15	C	0.471491	0.113277	-0.000088
C16	C	0.507694	0.113924	0.065934
C17	C	0.580142	0.115203	0.065941
C18	C	0.362035	0.062549	0.050471
C19	C	0.289589	0.061265	0.050461
C20	C	0.248038	0.109334	-0.000107
C21	C	0.278942	0.158677	-0.050678
C22	C	0.351390	0.159957	-0.050671
C23	C	0.392933	0.111890	-0.000088
C24	C	0.133284	0.107315	-0.066135
C25	C	0.060832	0.106049	-0.066141
C26	C	0.060788	0.106041	0.065891
C27	C	0.133237	0.107315	0.065895
C28	C	0.169481	0.107948	-0.000120
C29	C	0.825593	-0.041404	-0.000109
C30	C	0.824245	-0.133695	-0.000117
C31	C	0.819854	-0.432745	-0.066112
C32	C	0.821130	-0.346029	-0.066118
C33	C	0.821121	-0.346022	0.065911
C34	C	0.819849	-0.432736	0.065916
C35	C	0.819212	-0.476095	-0.000098
C36	C	0.821760	-0.302665	-0.000108
C37	C	0.823144	-0.208644	-0.000113
C38	C	0.817830	-0.570122	-0.000093
C39	C	0.947479	0.104061	-0.000118
C40	C	1.024587	0.105404	-0.000132
C41	C	0.815379	0.262644	-0.000093
C42	C	0.816728	0.354935	-0.000089
N43	N	0.820463	0.110610	0.188568
N44	N	0.820515	0.110624	-0.188768
C45	C	0.867713	0.053934	0.226660
C46	C	0.867717	0.053930	0.302888
C47	C	0.820479	0.110617	0.341021
C48	C	0.773220	0.167297	0.302920
C49	C	0.773212	0.167294	0.226693
C50	C	0.811360	0.186371	0.461786
C51	C	0.811373	0.186376	0.538011
C52	C	0.820498	0.110627	0.576128
C53	C	0.829626	0.034870	0.538012
C54	C	0.829618	0.034867	0.461786
C55	C	0.820481	0.110626	0.423676
C56	C	0.867755	0.053942	0.696875
C57	C	0.867755	0.053938	0.773104
C58	C	0.773261	0.167312	0.773135
C59	C	0.773258	0.167309	0.696907
C60	C	0.820509	0.110626	0.658782
H61	H	0.478265	0.113402	-0.119853
N62	N	0.619180	0.115896	0.137147
H63	H	0.612212	0.064146	0.166005
H64	H	0.670560	0.116834	0.127077
H65	H	0.906195	0.007776	0.333908
H66	H	0.821654	-0.310737	-0.119873
N67	N	0.918724	-0.007191	0.814191
H68	H	0.911559	0.001408	0.868266
H69	H	0.910723	-0.066150	0.800871
N70	N	0.821809	-0.299256	0.137109
H71	H	0.822711	-0.237744	0.127091
H72	H	0.778552	-0.307504	0.165948
N73	N	0.839488	-0.046836	0.579115
H74	H	0.845276	-0.094824	0.543402
H75	H	0.882483	-0.048690	0.610716
N76	N	0.468483	0.112820	0.137029
H77	H	0.432638	0.163677	0.140102
H78	H	0.444262	0.060595	0.139560
N79	N	0.722245	0.228427	0.185609
H80	H	0.730226	0.287412	0.198870
H81	H	0.729433	0.219754	0.131547
N82	N	0.619283	0.115874	-0.137285
H83	H	0.585355	0.115273	-0.179106
H84	H	0.643693	0.167933	-0.140161
H85	H	0.819329	-0.468033	0.119676
N86	N	0.021792	0.105350	-0.137346
H87	H	-0.029604	0.104447	-0.127335
H88	H	0.028817	0.157100	-0.166175
H89	H	0.906185	0.007777	0.195621
H90	H	0.837048	-0.026817	0.430754
H91	H	0.376549	0.200136	-0.091845
N92	N	0.819182	-0.479516	-0.137309
H93	H	0.861689	-0.522400	-0.140248
H94	H	0.775596	-0.508536	-0.140202
H95	H	0.906228	0.007784	0.665832
H96	H	0.734796	0.213464	0.804182
N97	N	0.722294	0.228444	0.655823
H98	H	0.730277	0.287429	0.669082
H99	H	0.729479	0.219771	0.601761
N100	N	0.801525	0.268079	0.579119
H101	H	0.795731	0.316065	0.543407
H102	H	0.758539	0.269944	0.610761
N103	N	0.801524	0.268077	0.420676
H104	H	0.758525	0.270035	0.389067
H105	H	0.795782	0.316019	0.456433
N106	N	0.234138	0.210526	-0.105227
H107	H	0.183553	0.202234	-0.097558
H108	H	0.240141	0.271492	-0.098450
H109	H	0.162794	0.107839	-0.119888
N110	N	0.722265	0.228434	0.344043
H111	H	0.729441	0.219838	0.398113
H112	H	0.730268	0.287391	0.330712
H113	H	0.031273	0.105520	0.119636
H114	H	0.264433	0.021082	0.091635
N115	N	0.172276	0.108004	0.137099
H116	H	0.165308	0.056252	0.165956
H117	H	0.223656	0.108945	0.127032
N118	N	0.406848	0.010703	0.105018
H119	H	0.376279	-0.020754	0.137047
H120	H	0.441478	-0.030360	0.078363
