data_functionalizedCrystal
_audit_creation_method	'MofGen! by Chris Wilmer'
_symmetry_space_group_name_H-M	'P1'
_symmetry_Int_Tables_number	1
_symmetry_cell_setting	triclinic
loop_
_symmetry_equiv_pos_as_xyz
  x,y,z
_cell_length_a	13.635800
_cell_length_b	17.513362
_cell_length_c	12.908943
_cell_angle_alpha	84.776920
_cell_angle_beta	100.860631
_cell_angle_gamma	73.442776
loop_
_atom_site_label
_atom_site_type_symbol
_atom_site_fract_x
_atom_site_fract_y
_atom_site_fract_z
V1	V	2.005965	-0.109329	0.329644
O2	O	1.991704	0.006278	0.322370
O3	O	1.989622	-0.217767	0.328350
O4	O	1.974950	-0.107198	0.472975
O5	O	2.006477	-0.105056	0.176744
V6	V	2.247644	-0.095554	0.311239
O7	O	2.136775	-0.139546	0.370016
O8	O	2.341933	-0.065338	0.270867
O9	O	2.152384	0.012883	0.312533
O10	O	2.320604	-0.211162	0.318513
O11	O	2.305831	-0.099828	0.464139
O12	O	2.167056	-0.097686	0.167908
V13	V	2.505965	-0.109329	0.329644
O14	O	2.491704	0.006278	0.322370
O15	O	2.489622	-0.217767	0.328350
O16	O	2.474950	-0.107198	0.472975
O17	O	2.506477	-0.105056	0.176744
V18	V	2.747644	-0.095554	0.311239
O19	O	2.636775	-0.139546	0.370016
O20	O	2.841933	-0.065338	0.270867
O21	O	2.652384	0.012883	0.312533
O22	O	2.820604	-0.211162	0.318513
O23	O	2.805831	-0.099828	0.464139
O24	O	2.667056	-0.097686	0.167908
C25	C	1.914254	-0.244215	0.323397
C26	C	1.941489	-0.332861	0.323295
C27	C	1.863185	-0.370464	0.317950
C28	C	1.888779	-0.453755	0.317840
C29	C	1.992680	-0.499443	0.323084
C30	C	2.070989	-0.461834	0.328427
C31	C	2.045393	-0.378544	0.328528
C32	C	2.074520	-0.751128	0.323036
C33	C	2.100112	-0.834424	0.322937
C34	C	1.917899	-0.826340	0.312349
C35	C	1.892312	-0.743049	0.312457
C36	C	1.970622	-0.705446	0.317794
C37	C	2.018844	-0.584580	0.322976
C38	C	1.944456	-0.620310	0.317894
C39	C	1.895539	-0.103173	0.507879
C40	C	1.910875	-0.102148	0.625059
C41	C	2.059423	0.039327	0.317483
C42	C	2.021807	0.127973	0.317592
C43	C	2.078139	-0.101713	0.132998
C44	C	2.052422	-0.102734	0.015817
C45	C	2.414254	-0.244215	0.323397
C46	C	2.441489	-0.332861	0.323295
C47	C	2.395539	-0.103173	0.507879
C48	C	2.410875	-0.102148	0.625059
C49	C	2.121891	-0.108135	0.856058
C50	C	2.136305	-0.107173	0.966160
C51	C	1.954116	-0.099255	0.955364
C52	C	1.939702	-0.100217	0.845263
C53	C	2.023594	-0.104659	0.795614
C54	C	2.009180	-0.105627	0.685512
C55	C	1.826991	-0.097704	0.674717
C56	C	1.841405	-0.096741	0.784819
C57	C	2.559423	0.039327	0.317483
C58	C	2.521807	0.127973	0.317592
C59	C	2.578139	-0.101713	0.132998
C60	C	2.552422	-0.102734	0.015817
C61	C	2.545392	-0.378540	0.328549
C62	C	2.570999	-0.461835	0.328469
C63	C	2.492701	-0.499448	0.323127
C64	C	2.388790	-0.453764	0.317875
C65	C	2.363186	-0.370471	0.317963
C66	C	2.621891	-0.108135	0.856058
C67	C	2.636305	-0.107173	0.966160
C68	C	2.454116	-0.099255	0.955364
C69	C	2.439702	-0.100217	0.845263
C70	C	2.523594	-0.104659	0.795614
C71	C	2.509180	-0.105627	0.685512
C72	C	2.326991	-0.097704	0.674717
C73	C	2.341405	-0.096741	0.784819
C74	C	2.590398	0.173651	0.312340
C75	C	2.555062	0.256945	0.312426
C76	C	2.451137	0.294559	0.317770
C77	C	2.382541	0.248874	0.323019
C78	C	2.417875	0.165583	0.322926
H79	H	1.778581	-0.333272	0.313688
H80	H	2.690202	-0.111761	0.815636
Cl81	Cl	1.813840	-0.562872	0.311294
H82	H	2.278576	-0.333285	0.313679
H83	H	2.273106	-0.093122	0.825257
H84	H	2.216347	-0.110004	1.015370
H85	H	1.854146	-0.856964	0.308002
Cl86	Cl	2.230740	-0.891860	0.329536
H87	H	2.297922	0.279512	0.327370
Cl88	Cl	2.701633	-0.519250	0.335065
H89	H	2.513564	-0.567271	0.323056
Cl90	Cl	2.290369	-0.501061	0.311153
H91	H	1.825010	-0.484366	0.313473
Cl92	Cl	1.703412	-0.093339	0.598725
H93	H	2.609159	-0.347926	0.332893
Cl94	Cl	1.761690	-0.685618	0.305863
H95	H	2.109157	-0.347928	0.332875
H96	H	2.362015	0.128396	0.327212
H97	H	2.716347	-0.110004	1.015370
H98	H	2.385819	-0.095633	0.995806
Cl99	Cl	2.203412	-0.093339	0.598725
H100	H	2.422379	0.362381	0.317845
H101	H	2.577491	-0.109247	0.645091
Cl102	Cl	1.848669	-0.093676	1.017799
Cl103	Cl	2.641314	0.314360	0.305830
Cl104	Cl	2.172966	-0.703864	0.329718
Cl105	Cl	2.201606	-0.519269	0.335005
H106	H	2.103444	-0.621789	0.327254
Cl107	Cl	2.114643	-0.111214	0.623098
H108	H	2.675023	0.143038	0.307989
H109	H	1.773106	-0.093122	0.825257
H110	H	2.190202	-0.111761	0.815636
