data_functionalizedCrystal
_audit_creation_method	'MofGen! by Chris Wilmer'
_symmetry_space_group_name_H-M	'P1'
_symmetry_Int_Tables_number	1
_symmetry_cell_setting	triclinic
loop_
_symmetry_equiv_pos_as_xyz
  x,y,z
_cell_length_a	19.121241
_cell_length_b	21.295417
_cell_length_c	21.295411
_cell_angle_alpha	89.978356
_cell_angle_beta	87.531430
_cell_angle_gamma	92.464587
loop_
_atom_site_label
_atom_site_type_symbol
_atom_site_fract_x
_atom_site_fract_y
_atom_site_fract_z
Zn1	Zn	1.073771	-0.209718	-0.397041
Zn2	Zn	1.573771	0.290282	0.102959
Zn3	Zn	1.073662	-0.314974	-0.291763
Zn4	Zn	1.573662	0.185026	0.208237
Zn5	Zn	0.956306	-0.214199	-0.287287
Zn6	Zn	1.456306	0.285801	0.212713
Zn7	Zn	0.956272	-0.319436	-0.392498
Zn8	Zn	1.456272	0.180564	0.107502
O9	O	1.015003	-0.264582	-0.342147
O10	O	1.515003	0.235418	0.157853
O11	O	1.172044	-0.219937	-0.386850
O12	O	1.672044	0.280063	0.113150
O13	O	1.058063	-0.301614	-0.203078
O14	O	1.558063	0.198386	0.296922
O15	O	0.971948	-0.125513	-0.301875
O16	O	1.471948	0.374487	0.198125
O17	O	1.171964	-0.297269	-0.309503
O18	O	1.671964	0.202731	0.190497
O19	O	1.058249	-0.122221	-0.382511
O20	O	1.558249	0.377779	0.117489
O21	O	0.971842	-0.227576	-0.199790
O22	O	1.471842	0.272424	0.300210
O23	O	0.858014	-0.231902	-0.297469
O24	O	1.358014	0.268098	0.202531
O25	O	0.971890	-0.304873	-0.481191
O26	O	1.471890	0.195127	0.018809
O27	O	0.857988	-0.309219	-0.374767
O28	O	1.357988	0.190781	0.125233
O29	O	1.058216	-0.224264	-0.484529
O30	O	1.558216	0.275736	0.015471
O31	O	1.058030	-0.403657	-0.305097
O32	O	1.558030	0.096343	0.194903
O33	O	0.971784	-0.406935	-0.379107
O34	O	1.471784	0.093065	0.120893
C35	C	0.832516	-0.271531	-0.335139
C36	C	1.332516	0.228469	0.164861
C37	C	0.754448	-0.274519	-0.332156
C38	C	1.254448	0.225481	0.167844
C39	C	0.717813	-0.235725	-0.371087
C40	C	1.217813	0.264275	0.128913
C41	C	0.644459	-0.238530	-0.368279
C42	C	1.144459	0.261470	0.131721
C43	C	0.607741	-0.280133	-0.326543
C44	C	1.107741	0.219867	0.173457
C45	C	0.644381	-0.318929	-0.287607
C46	C	1.144381	0.181071	0.212393
C47	C	0.717733	-0.316120	-0.290413
C48	C	1.217733	0.183880	0.209587
C49	C	0.386262	-0.290620	-0.316051
C50	C	0.886262	0.209380	0.183949
C51	C	0.312905	-0.293427	-0.313250
C52	C	0.812905	0.206573	0.186750
C53	C	0.312988	-0.213027	-0.393921
C54	C	0.812988	0.286973	0.106079
C55	C	0.386342	-0.210225	-0.396725
C56	C	0.886342	0.289775	0.103275
C57	C	0.422975	-0.249019	-0.357788
C58	C	0.922975	0.250981	0.142212
C59	C	0.532762	-0.283002	-0.323673
C60	C	1.032762	0.216998	0.176327
C61	C	0.497953	-0.246146	-0.360655
C62	C	0.997953	0.253854	0.139345
C63	C	1.014911	-0.428137	-0.342109
C64	C	1.514911	0.071863	0.157891
C65	C	1.014935	-0.498104	-0.342116
C66	C	1.514935	0.001896	0.157884
C67	C	1.059884	-0.529241	-0.303622
C68	C	1.559884	-0.029241	0.196378
C69	C	1.059917	-0.594983	-0.303637
C70	C	1.559917	-0.094983	0.196363
C71	C	1.014989	-0.629584	-0.342140
C72	C	1.514989	-0.129584	0.157860
C73	C	0.970037	-0.598439	-0.380641
C74	C	1.470037	-0.098439	0.119359
C75	C	0.970011	-0.532699	-0.380629
C76	C	1.470011	-0.032699	0.119371
N77	N	0.953546	-0.735195	-0.344579
N78	N	1.453546	-0.235195	0.155421
N79	N	0.953574	-0.797645	-0.344587
N80	N	1.453574	-0.297645	0.155413
C81	C	1.015067	-0.827656	-0.342179
C82	C	1.515067	-0.327656	0.157821
N83	N	1.076534	-0.792857	-0.339750
N84	N	1.576534	-0.292857	0.160250
N85	N	1.076506	-0.730401	-0.339739
N86	N	1.576506	-0.230401	0.160261
C87	C	1.015013	-0.700869	-0.342157
C88	C	1.515013	-0.200869	0.157843
C89	C	1.060055	-0.930077	-0.303699
C90	C	1.560055	-0.430077	0.196301
C91	C	1.060089	-0.995820	-0.303719
C92	C	1.560089	-0.495820	0.196281
C93	C	0.970204	-0.999276	-0.380720
C94	C	1.470204	-0.499276	0.119280
C95	C	0.970176	-0.933534	-0.380704
C96	C	1.470176	-0.433534	0.119296
C97	C	1.015101	-0.898939	-0.342190
C98	C	1.515101	-0.398939	0.157810
C99	C	1.198202	-0.257605	-0.349183
C100	C	1.698202	0.242395	0.150817
C101	C	1.276270	-0.254632	-0.352181
C102	C	1.776270	0.245368	0.147819
C103	C	1.015061	-0.264566	-0.506340
C104	C	1.515061	0.235434	-0.006340
C105	C	1.015086	-0.264560	-0.576309
C106	C	1.515086	0.235440	-0.076309
C107	C	1.015114	-0.100387	-0.342200
C108	C	1.515114	0.399613	0.157800
C109	C	1.015162	-0.030417	-0.342223
C110	C	1.515162	0.469583	0.157777
C111	C	1.060034	-0.222585	-0.610915
C112	C	1.560034	0.277415	-0.110915
C113	C	1.060033	-0.222557	-0.676657
C114	C	1.560033	0.277443	-0.176657
C115	C	1.015091	-0.264516	-0.707792
C116	C	1.515091	0.235484	-0.207792
C117	C	0.970134	-0.306494	-0.673178
C118	C	1.470134	0.193506	-0.173178
C119	C	0.970132	-0.306516	-0.607436
C120	C	1.470132	0.193484	-0.107436
N121	N	1.009672	-0.319790	-0.810799
N122	N	1.509672	0.180210	-0.310799
N123	N	1.009679	-0.319768	-0.873251
N124	N	1.509679	0.180232	-0.373251
C125	C	1.015096	-0.264452	-0.905867
C126	C	1.515096	0.235548	-0.405867
N127	N	1.020519	-0.209158	-0.873672
N128	N	1.520519	0.290842	-0.373672
N129	N	1.020516	-0.209181	-0.811214
N130	N	1.520516	0.290819	-0.311214
C131	C	1.015089	-0.264497	-0.779077
C132	C	1.515089	0.235503	-0.279077
C133	C	1.060045	-0.222444	-1.011758
C134	C	1.560045	0.277556	-0.511758
C135	C	1.060039	-0.222416	-1.077501
C136	C	1.560039	0.277584	-0.577501
C137	C	0.970144	-0.306358	-1.074021
C138	C	1.470144	0.193642	-0.574021
C139	C	0.970147	-0.306381	-1.008278
C140	C	1.470147	0.193619	-0.508278
C141	C	1.015101	-0.264424	-0.977151
C142	C	1.515101	0.235576	-0.477151
C143	C	1.014985	-0.264550	-0.178595
C144	C	1.514985	0.235450	0.321405
C145	C	1.015096	-0.264374	-0.108631
C146	C	1.515096	0.235626	0.391369
H147	H	0.614479	-0.352799	-0.253622
H148	H	1.114479	0.147201	0.246378
O149	O	0.926580	-0.347318	-0.703450
O150	O	1.426580	0.152682	-0.203450
C151	C	0.966543	-0.386432	-0.743029
C152	C	1.466543	0.113568	-0.243029
H153	H	1.021858	-0.388220	-0.725354
H154	H	1.521858	0.111780	-0.225354
H155	H	0.941107	-0.435845	-0.742788
H156	H	1.441107	0.064155	-0.242788
H157	H	0.968979	-0.366862	-0.792949
H158	H	1.468979	0.133138	-0.292949
O159	O	1.103661	-0.896536	-0.266205
O160	O	1.603661	-0.396536	0.233795
C161	C	1.088342	-0.913223	-0.202868
C162	C	1.588342	-0.413223	0.297132
H163	H	1.061367	-0.962009	-0.200517
H164	H	1.561367	-0.462009	0.299483
H165	H	1.139049	-0.913508	-0.176626
H166	H	1.639049	-0.413508	0.323374
H167	H	1.052224	-0.877644	-0.180246
H168	H	1.552224	-0.377644	0.319754
H169	H	0.933626	-1.027448	-0.412072
H170	H	1.433626	-0.527448	0.087928
O171	O	1.103689	-1.026169	-0.266342
O172	O	1.603689	-0.526169	0.233658
C173	C	1.063787	-1.065804	-0.224121
C174	C	1.563787	-0.565804	0.275879
H175	H	1.010523	-1.077690	-0.244198
H176	H	1.510523	-0.577690	0.255802
H177	H	1.092429	-1.110933	-0.216893
H178	H	1.592429	-0.610933	0.283107
H179	H	1.056145	-1.040843	-0.177133
H180	H	1.556145	-0.540843	0.322867
H181	H	1.096640	-0.188231	-1.105677
H182	H	1.596640	0.311769	-0.605677
O183	O	0.753586	-0.195367	-0.411615
O184	O	1.253586	0.304633	0.088385
C185	C	0.826185	-0.201194	-0.405735
C186	C	1.326185	0.298806	0.094265
H187	H	0.836173	-0.249361	-0.385412
H188	H	1.336173	0.250639	0.114588
H189	H	0.854090	-0.195924	-0.453962
H190	H	1.354090	0.304076	0.046038
H191	H	0.846999	-0.163010	-0.373077
H192	H	1.346999	0.336990	0.126923
H193	H	0.283154	-0.181443	-0.425621
H194	H	0.783154	0.318557	0.074379
O195	O	0.926308	-0.502382	-0.417933
O196	O	1.426308	-0.002382	0.082067
C197	C	0.880935	-0.466156	-0.380310
C198	C	1.380935	0.033844	0.119690
H199	H	0.905727	-0.455369	-0.333573
H200	H	1.405727	0.044631	0.166427
H201	H	0.871488	-0.420279	-0.405571
H202	H	1.371488	0.079721	0.094429
H203	H	0.828899	-0.493524	-0.371364
H204	H	1.328899	0.006476	0.128636
O205	O	0.926439	-0.903384	-0.418108
O206	O	1.426439	-0.403384	0.081892
C207	C	0.886802	-0.948018	-0.452107
C208	C	1.386802	-0.448018	0.047893
H209	H	0.884406	-0.994989	-0.426238
H210	H	1.384406	-0.494989	0.073762
H211	H	0.831451	-0.931176	-0.456650
H212	H	1.331451	-0.431176	0.043350
H213	H	0.912497	-0.953981	-0.500924
H214	H	1.412497	-0.453981	-0.000924
H215	H	0.933526	-0.340696	-0.579260
H216	H	1.433526	0.159304	-0.079260
O217	O	1.103718	-0.181765	-0.580777
O218	O	1.603718	0.318235	-0.080777
C219	C	1.143403	-0.144721	-0.625424
C220	C	1.643403	0.355279	-0.125424
H221	H	1.114638	-0.143623	-0.671175
H222	H	1.614638	0.356377	-0.171175
H223	H	1.150929	-0.094843	-0.606725
H224	H	1.650929	0.405157	-0.106725
H225	H	1.196731	-0.165741	-0.634475
H226	H	1.696731	0.334259	-0.134475
H227	H	1.096646	-0.188277	-0.986413
H228	H	1.596646	0.311723	-0.486413
H229	H	1.096634	-0.188373	-0.704838
H230	H	1.596634	0.311627	-0.204838
O231	O	0.926559	-0.347099	-1.104357
O232	O	1.426559	0.152901	-0.604357
C233	C	0.936187	-0.338070	-1.169803
C234	C	1.436187	0.161930	-0.669803
H235	H	0.990402	-0.315379	-1.180878
H236	H	1.490402	0.184621	-0.680878
H237	H	0.931401	-0.385398	-1.194599
H238	H	1.431401	0.114602	-0.694599
H239	H	0.894544	-0.306134	-1.186854
H240	H	1.394544	0.193866	-0.686854
O241	O	0.926465	-0.347219	-0.974755
O242	O	1.426465	0.152781	-0.474755
C243	C	0.886783	-0.384236	-1.016329
C244	C	1.386783	0.115764	-0.516329
H245	H	0.915552	-0.385307	-1.064304
H246	H	1.415552	0.114693	-0.564304
H247	H	0.879252	-0.434126	-0.997040
H248	H	1.379252	0.065874	-0.497040
H249	H	0.833456	-0.363210	-1.021262
H250	H	1.333456	0.136790	-0.521262
H251	H	0.416233	-0.176350	-0.430714
H252	H	0.916233	0.323650	0.069286
O253	O	0.608981	-0.200821	-0.406161
O254	O	1.108981	0.299179	0.093839
C255	C	0.657119	-0.163491	-0.443591
C256	C	1.157119	0.336509	0.056409
H257	H	0.709395	-0.187280	-0.447723
H258	H	1.209395	0.312720	0.052277
H259	H	0.635954	-0.157659	-0.492390
H260	H	1.135954	0.342341	0.007610
H261	H	0.664932	-0.115349	-0.420927
H262	H	1.164932	0.384651	0.079073
O263	O	1.103596	-0.495731	-0.266200
O264	O	1.603596	0.004269	0.233800
C265	C	1.143265	-0.537317	-0.232217
C266	C	1.643265	-0.037317	0.267783
H267	H	1.145696	-0.584072	-0.258102
H268	H	1.645696	-0.084072	0.241898
H269	H	1.198602	-0.516174	-0.227667
H270	H	1.698602	-0.016174	0.272333
H271	H	1.117575	-0.545333	-0.183403
H272	H	1.617575	-0.045333	0.316597
O273	O	0.277344	-0.333858	-0.272649
O274	O	0.777344	0.166142	0.227351
C275	C	0.325406	-0.367509	-0.238895
C276	C	0.825406	0.132491	0.261105
H277	H	0.377704	-0.339719	-0.238757
H278	H	0.877704	0.160281	0.261243
H279	H	0.304175	-0.374963	-0.188476
H280	H	0.804175	0.125037	0.311524
H281	H	0.333203	-0.415053	-0.262155
H282	H	0.833203	0.084947	0.237845
H283	H	0.527852	-0.212270	-0.394634
H284	H	1.027852	0.287730	0.105366
O285	O	0.497169	-0.323503	-0.283170
O286	O	0.997169	0.176497	0.216830
C287	C	0.515054	-0.385579	-0.297510
C288	C	1.015054	0.114421	0.202490
H289	H	0.568328	-0.384883	-0.323738
H290	H	1.068328	0.115117	0.176262
H291	H	0.517517	-0.413649	-0.252123
H292	H	1.017517	0.086351	0.247877
H293	H	0.473780	-0.408401	-0.328262
H294	H	0.973780	0.091599	0.171738
H295	H	0.416080	-0.322209	-0.284346
H296	H	0.916080	0.177791	0.215654
H297	H	0.747560	-0.347710	-0.258711
H298	H	1.247560	0.152290	0.241289
O299	O	1.103639	-0.625271	-0.266325
O300	O	1.603639	-0.125271	0.233675
C301	C	1.148990	-0.661538	-0.303927
C302	C	1.648990	-0.161538	0.196073
H303	H	1.153326	-0.641530	-0.353670
H304	H	1.653326	-0.141530	0.146330
H305	H	1.203045	-0.660208	-0.283253
H306	H	1.703045	-0.160208	0.216747
H307	H	1.127274	-0.712200	-0.305264
H308	H	1.627274	-0.212200	0.194736
O309	O	0.926491	-0.632114	-0.418076
O310	O	1.426491	-0.132114	0.081924
C311	C	0.966474	-0.668552	-0.460313
C312	C	1.466474	-0.168552	0.039687
H313	H	1.019717	-0.676339	-0.440195
H314	H	1.519717	-0.176339	0.059805
H315	H	0.937878	-0.715891	-0.467637
H316	H	1.437878	-0.215891	0.032363
H317	H	0.974157	-0.642893	-0.507260
H318	H	1.474157	-0.142893	-0.007260
