data_functionalizedCrystal
_audit_creation_method	'MofGen! by Chris Wilmer'
_symmetry_space_group_name_H-M	'P1'
_symmetry_Int_Tables_number	1
_symmetry_cell_setting	triclinic
loop_
_symmetry_equiv_pos_as_xyz
  x,y,z
_cell_length_a	17.077404
_cell_length_b	16.625545
_cell_length_c	17.077396
_cell_angle_alpha	89.970470
_cell_angle_beta	89.982940
_cell_angle_gamma	90.025783
loop_
_atom_site_label
_atom_site_type_symbol
_atom_site_fract_x
_atom_site_fract_y
_atom_site_fract_z
Zn1	Zn	1.200021	-0.320984	-0.443846
Zn2	Zn	1.533354	0.012349	-0.110512
Zn3	Zn	1.866688	0.345683	0.222821
Zn4	Zn	1.199928	-0.455831	-0.312581
Zn5	Zn	1.533261	-0.122497	0.020752
Zn6	Zn	1.866594	0.210836	0.354086
Zn7	Zn	1.068759	-0.321016	-0.312594
Zn8	Zn	1.402092	0.012317	0.020740
Zn9	Zn	1.735425	0.345651	0.354073
Zn10	Zn	1.068715	-0.455779	-0.443805
Zn11	Zn	1.402048	-0.122446	-0.110471
Zn12	Zn	1.735381	0.210888	0.222862
O13	O	1.134356	-0.388402	-0.378206
O14	O	1.467689	-0.055069	-0.044873
O15	O	1.801022	0.278264	0.288460
O16	O	1.309856	-0.338880	-0.426445
O17	O	1.643189	-0.005547	-0.093112
O18	O	1.976522	0.327787	0.240222
O19	O	1.182507	-0.437982	-0.202736
O20	O	1.515840	-0.104649	0.130598
O21	O	1.849174	0.228685	0.463931
O22	O	1.086228	-0.208179	-0.330027
O23	O	1.419562	0.125154	0.003306
O24	O	1.752895	0.458487	0.336640
O25	O	1.309787	-0.437951	-0.330005
O26	O	1.643120	-0.104618	0.003328
O27	O	1.976454	0.228716	0.336661
O28	O	1.182666	-0.208156	-0.426457
O29	O	1.516000	0.125177	-0.093124
O30	O	1.849333	0.458511	0.240209
O31	O	1.086138	-0.338935	-0.202745
O32	O	1.419471	-0.005601	0.130588
O33	O	1.752804	0.327732	0.463922
O34	O	0.958906	-0.338884	-0.329987
O35	O	1.292239	-0.005551	0.003346
O36	O	1.625573	0.327782	0.336679
O37	O	1.086154	-0.437863	-0.553657
O38	O	1.419487	-0.104530	-0.220324
O39	O	1.752820	0.228804	0.113010
O40	O	0.958874	-0.437894	-0.426387
O41	O	1.292207	-0.104561	-0.093054
O42	O	1.625540	0.228773	0.240279
O43	O	1.182624	-0.338830	-0.553687
O44	O	1.515957	-0.005497	-0.220354
O45	O	1.849291	0.327837	0.112979
O46	O	1.182465	-0.568656	-0.329966
O47	O	1.515798	-0.235323	0.003368
O48	O	1.849131	0.098011	0.336701
O49	O	1.086063	-0.568618	-0.426375
O50	O	1.419396	-0.235285	-0.093042
O51	O	1.752730	0.098049	0.240292
C52	C	0.930408	-0.388388	-0.378185
C53	C	1.263741	-0.055054	-0.044851
C54	C	1.597074	0.278279	0.288482
C55	C	0.843158	-0.388401	-0.378194
C56	C	1.176491	-0.055068	-0.044861
C57	C	1.509825	0.278266	0.288473
C58	C	0.802172	-0.440033	-0.428309
C59	C	1.135505	-0.106700	-0.094976
C60	C	1.468838	0.226634	0.238358
C61	C	0.720191	-0.440035	-0.428322
C62	C	1.053524	-0.106701	-0.094988
C63	C	1.386858	0.226632	0.238345
C64	C	0.679198	-0.388408	-0.378214
C65	C	1.012532	-0.055075	-0.044881
C66	C	1.345865	0.278259	0.288452
C67	C	0.720191	-0.336770	-0.328097
C68	C	1.053524	-0.003437	0.005236
C69	C	1.386857	0.329897	0.338569
C70	C	0.802170	-0.336765	-0.328089
C71	C	1.135503	-0.003432	0.005244
C72	C	1.468836	0.329902	0.338577
C73	C	0.549321	-0.336786	-0.328116
C74	C	0.882654	-0.003453	0.005217
C75	C	1.215987	0.329881	0.338551
C76	C	0.467336	-0.336792	-0.328123
C77	C	0.800669	-0.003459	0.005210
C78	C	1.134003	0.329875	0.338544
C79	C	0.467342	-0.440056	-0.428348
C80	C	0.800675	-0.106723	-0.095015
C81	C	1.134009	0.226611	0.238318
C82	C	0.549321	-0.440051	-0.428340
C83	C	0.882654	-0.106717	-0.095007
C84	C	1.215988	0.226616	0.238326
C85	C	0.590307	-0.388414	-0.378222
C86	C	0.923641	-0.055080	-0.044889
C87	C	1.256974	0.278253	0.288445
C88	C	1.134270	-0.597893	-0.378182
C89	C	1.467604	-0.264560	-0.044848
C90	C	1.800937	0.068773	0.288485
C91	C	1.134306	-0.687514	-0.378197
C92	C	1.467639	-0.354181	-0.044864
C93	C	1.800972	-0.020848	0.288469
C94	C	1.134336	-0.760297	-0.378213
C95	C	1.467669	-0.426963	-0.044879
C96	C	1.801003	-0.093630	0.288454
C97	C	1.134382	-0.851605	-0.378230
C98	C	1.467715	-0.518272	-0.044897
C99	C	1.801048	-0.184939	0.288436
C100	C	1.134423	-0.924382	-0.378240
C101	C	1.467756	-0.591048	-0.044907
C102	C	1.801089	-0.257715	0.288427
C103	C	1.134467	-1.015696	-0.378256
C104	C	1.467801	-0.682363	-0.044923
C105	C	1.801134	-0.349029	0.288410
C106	C	1.339100	-0.388418	-0.378228
C107	C	1.672433	-0.055084	-0.044895
C108	C	2.005766	0.278249	0.288438
C109	C	1.426350	-0.388424	-0.378238
C110	C	1.759683	-0.055091	-0.044905
C111	C	2.093016	0.278243	0.288429
C112	C	1.134394	-0.388337	-0.582951
C113	C	1.467728	-0.055004	-0.249617
C114	C	1.801061	0.278330	0.083716
C115	C	1.134411	-0.388309	-0.670200
C116	C	1.467744	-0.054976	-0.336867
C117	C	1.801078	0.278357	-0.003534
C118	C	1.134463	-0.178093	-0.378248
C119	C	1.467796	0.155240	-0.044915
C120	C	1.801129	0.488573	0.288418
C121	C	1.134508	-0.088472	-0.378266
C122	C	1.467841	0.244861	-0.044933
C123	C	1.801175	0.578194	0.288401
C124	C	1.184662	-0.439789	-1.046013
C125	C	1.517995	-0.106456	-0.712679
C126	C	1.851328	0.226877	-0.379346
C127	C	1.184642	-0.439813	-0.964032
C128	C	1.517975	-0.106480	-0.630699
C129	C	1.851309	0.226854	-0.297365
C130	C	1.134461	-0.388252	-0.923050
C131	C	1.467795	-0.054919	-0.589716
C132	C	1.801128	0.278414	-0.256383
C133	C	1.084292	-0.336671	-0.964052
C134	C	1.417625	-0.003337	-0.630718
C135	C	1.750958	0.329996	-0.297385
C136	C	1.084308	-0.336652	-1.046031
C137	C	1.417642	-0.003318	-0.712697
C138	C	1.750975	0.330015	-0.379364
C139	C	1.084262	-0.336712	-0.793182
C140	C	1.417596	-0.003379	-0.459848
C141	C	1.750929	0.329954	-0.126515
C142	C	1.084247	-0.336730	-0.711197
C143	C	1.417580	-0.003396	-0.377864
C144	C	1.750913	0.329937	-0.044530
C145	C	1.184596	-0.439873	-0.711183
C146	C	1.517929	-0.106540	-0.377850
C147	C	1.851263	0.226793	-0.044516
C148	C	1.184613	-0.439855	-0.793162
C149	C	1.517946	-0.106521	-0.459829
C150	C	1.851279	0.226812	-0.126495
C151	C	1.134444	-0.388272	-0.834158
C152	C	1.467777	-0.054938	-0.500825
C153	C	1.801110	0.278395	-0.167492
C154	C	1.134362	-0.388409	-0.174258
C155	C	1.467695	-0.055076	0.159075
C156	C	1.801029	0.278257	0.492408
C157	C	1.134498	-0.388210	-0.087009
C158	C	1.467831	-0.054877	0.246324
C159	C	1.801164	0.278457	0.579658
H160	H	0.582695	-0.482094	-0.469138
H161	H	0.916028	-0.148761	-0.135804
H162	H	1.249362	0.184572	0.197529
H163	H	1.043430	-0.294693	-0.930677
H164	H	1.376764	0.038641	-0.597344
H165	H	1.710097	0.371974	-0.264010
H166	H	1.225445	-0.481874	-0.677800
H167	H	1.558779	-0.148541	-0.344466
H168	H	1.892112	0.184793	-0.011133
H169	H	1.225528	-0.481772	-1.079375
H170	H	1.558862	-0.148439	-0.746041
H171	H	1.892195	0.184894	-0.412708
N172	N	0.593530	-0.281089	-0.274065
N173	N	0.926863	0.052244	0.059268
N174	N	1.260197	0.385577	0.392602
H175	H	0.555123	-0.248386	-0.242321
H176	H	0.888457	0.084947	0.091012
H177	H	1.221790	0.418281	0.424345
H178	H	0.627517	-0.313863	-0.237679
H179	H	0.960850	0.019471	0.095654
H180	H	1.294184	0.352804	0.428987
H181	H	0.433967	-0.482098	-0.469159
H182	H	0.767300	-0.148765	-0.135826
H183	H	1.100634	0.184568	0.197508
H184	H	1.225481	-0.481824	-0.930656
H185	H	1.558814	-0.148491	-0.597323
H186	H	1.892148	0.184843	-0.263990
H187	H	1.225478	-0.481836	-0.826528
H188	H	1.558811	-0.148502	-0.493194
H189	H	1.892144	0.184831	-0.159861
H190	H	1.043388	-0.294742	-0.677831
H191	H	1.376721	0.038591	-0.344498
H192	H	1.710055	0.371925	-0.011164
H193	H	1.043410	-0.294708	-0.826558
H194	H	1.376743	0.038625	-0.493225
H195	H	1.710076	0.371959	-0.159892
N196	N	1.030200	-0.281024	-1.090252
N197	N	1.363533	0.052310	-0.756919
N198	N	1.696866	0.385643	-0.423586
H199	H	0.998408	-0.248362	-1.051852
H200	H	1.331741	0.084971	-0.718519
H201	H	1.665075	0.418305	-0.385185
H202	H	1.062177	-0.243705	-1.124282
H203	H	1.395510	0.089628	-0.790949
H204	H	1.728844	0.422961	-0.457616
N205	N	0.423119	-0.281110	-0.274081
N206	N	0.756453	0.052223	0.059252
N207	N	1.089786	0.385557	0.392585
H208	H	0.461522	-0.248393	-0.242334
H209	H	0.794855	0.084940	0.090999
H210	H	1.128189	0.418274	0.424332
H211	H	0.389130	-0.243846	-0.306107
H212	H	0.722464	0.089487	0.027227
H213	H	1.055797	0.422821	0.360560
H214	H	0.835542	-0.482076	-0.469109
H215	H	1.168875	-0.148743	-0.135776
H216	H	1.502209	0.184590	0.197557
H217	H	0.686824	-0.482080	-0.469129
H218	H	1.020157	-0.148746	-0.135796
H219	H	1.353490	0.184587	0.197537
N220	N	0.675984	-0.281091	-0.274044
N221	N	1.009318	0.052242	0.059289
N222	N	1.342651	0.385576	0.392622
H223	H	0.690236	-0.293548	-0.217940
H224	H	1.023569	0.039785	0.115393
H225	H	1.356902	0.373119	0.448727
H226	H	0.690295	-0.223516	-0.286396
H227	H	1.023628	0.109817	0.046937
H228	H	1.356961	0.443150	0.380270
N229	N	0.846380	-0.281071	-0.274043
N230	N	1.179714	0.052263	0.059291
N231	N	1.513047	0.385596	0.392624
H232	H	0.807974	-0.248366	-0.242301
H233	H	1.141307	0.084968	0.091033
H234	H	1.474640	0.418301	0.424366
H235	H	0.880371	-0.313838	-0.237655
H236	H	1.213704	0.019495	0.095678
H237	H	1.547037	0.352828	0.429012
