data_functionalizedCrystal
_audit_creation_method	'MofGen! by Chris Wilmer'
_symmetry_space_group_name_H-M	'P1'
_symmetry_Int_Tables_number	1
_symmetry_cell_setting	triclinic
loop_
_symmetry_equiv_pos_as_xyz
  x,y,z
_cell_length_a	8.559649
_cell_length_b	23.532407
_cell_length_c	7.681481
_cell_angle_alpha	84.289450
_cell_angle_beta	94.913240
_cell_angle_gamma	76.313671
loop_
_atom_site_label
_atom_site_type_symbol
_atom_site_fract_x
_atom_site_fract_y
_atom_site_fract_z
O1	O	2.105234	-0.013278	-0.146397
O2	O	1.639561	0.016154	-0.146414
O3	O	1.886443	-0.082081	-0.146373
O4	O	1.858352	0.084957	-0.146438
O5	O	1.916831	-0.094196	0.146490
O6	O	1.669949	0.004039	0.146449
O7	O	2.135622	-0.025394	0.146466
Zn8	Zn	1.907610	-0.012601	0.192956
Zn9	Zn	1.867573	0.003362	-0.192904
O10	O	1.888739	0.072842	0.146425
C11	C	1.595190	0.012327	0.000016
C12	C	1.417704	0.018967	0.000010
C13	C	1.900922	-0.109325	0.000063
C14	C	1.898774	-0.172453	0.000077
C15	C	2.031375	-0.577085	-0.000015
C16	C	2.029376	-0.636401	-0.000028
O17	O	2.152301	-0.678272	-0.000089
N18	N	1.882607	-0.652904	-0.000032
C19	C	1.737825	-0.610085	-0.000041
O20	O	1.612803	-0.629568	-0.000048
C21	C	1.739824	-0.550770	-0.000040
C22	C	1.886605	-0.534272	-0.000018
C23	C	2.178143	-0.560586	0.000005
C24	C	2.180142	-0.501274	0.000022
C25	C	2.035372	-0.458460	0.000019
C26	C	1.888603	-0.474960	-0.000002
C27	C	1.595043	-0.507952	-0.000062
C28	C	1.597055	-0.448633	-0.000062
C29	C	1.743835	-0.432135	-0.000040
C30	C	1.745832	-0.372834	0.000012
N31	N	1.892601	-0.356332	0.000016
C32	C	2.037371	-0.399145	0.000019
C33	C	1.733637	-0.734653	-0.000046
C34	C	1.731638	-0.793968	-0.000034
C35	C	2.023189	-0.820279	-0.000025
C36	C	2.025188	-0.760964	-0.000024
C37	C	1.880407	-0.718150	-0.000042
C38	C	2.041557	-0.274584	0.000056
C39	C	2.043544	-0.215266	0.000080
C40	C	1.751992	-0.188959	0.000061
C41	C	1.750006	-0.248272	0.000046
C42	C	1.894801	-0.291084	0.000038
O43	O	1.622970	-0.330931	0.000065
O44	O	2.162370	-0.379651	0.000003
C45	C	2.179993	-0.021566	0.000033
C46	C	2.357478	-0.028205	0.000026
C47	C	1.874260	0.100086	-0.000015
C48	C	1.876408	0.163214	-0.000040
N49	N	1.934946	-0.023496	0.456295
N50	N	1.840250	0.014252	-0.456243
H51	H	2.163075	-0.201838	0.000103
H52	H	2.031629	-0.062024	0.531517
N53	N	1.712183	0.065283	0.444138
H54	H	1.651884	0.089319	0.530372
H55	H	1.765208	0.090915	0.367620
H56	H	2.159463	-0.309436	0.000042
H57	H	1.333473	0.064435	-0.000017
N58	N	1.469022	-0.088431	0.000041
H59	H	1.584253	-0.084797	0.000042
H60	H	1.459906	-0.114884	0.108618
H61	H	1.630490	-0.261707	0.000077
N62	N	1.436718	-0.525728	-0.000074
H63	H	1.362085	-0.505151	-0.108644
H64	H	1.457516	-0.569804	-0.000006
H65	H	1.479153	-0.413775	-0.000079
H66	H	2.299665	-0.487847	0.000033
N67	N	2.334298	-0.606761	0.000021
H68	H	2.387120	-0.597693	-0.108532
H69	H	2.409502	-0.606657	0.108668
H70	H	2.144710	-0.747536	-0.000007
N71	N	2.179334	-0.866466	-0.000024
H72	H	2.173726	-0.887163	-0.108593
H73	H	2.272545	-0.846977	0.000051
N74	N	1.573331	-0.811761	-0.000010
H75	H	1.481932	-0.775634	-0.000004
H76	H	1.554867	-0.831300	-0.108579
N77	N	1.577482	-0.688475	-0.000014
H78	H	1.560527	-0.658779	-0.108571
H79	H	1.484304	-0.707979	0.000059
N80	N	1.595854	-0.142774	0.000033
H81	H	1.502560	-0.162222	0.000015
H82	H	1.601592	-0.122085	0.108599
