data_functionalizedCrystal
_audit_creation_method	'MofGen! by Chris Wilmer'
_symmetry_space_group_name_H-M	'P1'
_symmetry_Int_Tables_number	1
_symmetry_cell_setting	triclinic
loop_
_symmetry_equiv_pos_as_xyz
  x,y,z
_cell_length_a	10.654554
_cell_length_b	14.971486
_cell_length_c	13.448316
_cell_angle_alpha	90.006811
_cell_angle_beta	89.993822
_cell_angle_gamma	95.949564
loop_
_atom_site_label
_atom_site_type_symbol
_atom_site_fract_x
_atom_site_fract_y
_atom_site_fract_z
O1	O	1.666494	-0.125652	-0.082680
O2	O	1.300888	-0.137617	-0.082685
O3	O	1.493490	-0.001488	-0.082675
O4	O	1.473892	-0.261781	-0.082690
O5	O	1.493466	-0.001480	0.082709
O6	O	1.300863	-0.137609	0.082699
O7	O	1.666470	-0.125644	0.082704
Cu8	Cu	1.483664	-0.131625	0.097802
Cu9	Cu	1.483693	-0.131636	-0.097783
O10	O	1.473867	-0.261773	0.082694
C11	C	1.254087	-0.136734	0.000007
C12	C	1.114672	-0.134103	0.000005
C13	C	1.492601	0.031846	0.000016
C14	C	1.489975	0.131157	0.000016
C15	C	1.713270	-0.126527	0.000010
C16	C	1.852685	-0.129158	0.000005
C17	C	2.064027	-0.051477	0.000013
C18	C	1.933032	-0.049004	0.000009
C19	C	1.903339	-0.211791	-0.000005
C20	C	2.034331	-0.214263	-0.000009
C21	C	2.081169	0.042507	0.000025
C22	C	1.950174	0.044980	0.000022
C23	C	1.474756	-0.295107	0.000000
C24	C	1.477382	-0.394418	-0.000005
N25	N	1.483653	-0.131618	0.235367
C26	C	1.603123	0.187765	0.000018
C27	C	1.600648	0.281078	0.000008
C28	C	1.485023	0.317781	0.000003
C29	C	1.371865	0.261165	-0.000003
C30	C	1.374342	0.167854	0.000000
C31	C	1.366711	0.455656	-0.000006
C32	C	1.364234	0.548974	-0.000007
C33	C	1.593017	0.568880	0.000001
C34	C	1.595494	0.475569	0.000004
C35	C	1.482336	0.418960	0.000001
N36	N	1.483714	-0.131636	-0.235348
C37	C	1.568964	-0.071365	0.287411
C38	C	1.568972	-0.071364	0.391514
C39	C	1.483674	-0.131621	0.443571
C40	C	1.398354	-0.191877	0.391519
C41	C	1.398341	-0.191873	0.287418
C42	C	1.398389	-0.191883	0.608499
C43	C	1.398403	-0.191889	0.712608
C44	C	1.569020	-0.071375	0.712596
C45	C	1.569007	-0.071370	0.608495
C46	C	1.483688	-0.131628	0.556450
H47	H	2.075561	-0.281544	-0.000032
F48	F	1.912295	0.093033	0.090482
H49	H	1.914874	0.074911	-0.071385
F50	F	1.307538	-0.256000	0.232030
H51	H	1.697279	0.157890	0.000028
F52	F	1.307578	-0.256014	0.553114
H53	H	1.638488	-0.022311	0.754977
H54	H	2.123305	0.077919	-0.069183
H55	H	1.692785	0.327166	0.000012
H56	H	1.837909	-0.277054	-0.000017
F57	F	1.307615	-0.256022	0.768003
F58	F	1.718555	0.436509	0.000007
H59	H	1.638429	-0.022300	0.245033
F60	F	2.141225	0.079621	0.093363
H61	H	1.638469	-0.022309	0.566110
F62	F	1.713449	0.629128	0.000000
F63	F	1.241173	0.588033	-0.000012
H64	H	1.274566	0.409567	-0.000012
H65	H	1.638437	-0.022301	0.433889
H66	H	1.282205	0.121764	-0.000002
F67	F	1.248808	0.300230	-0.000019
H68	H	1.328897	-0.240937	0.433910
