data_functionalizedCrystal
_audit_creation_method	'MofGen! by Chris Wilmer'
_symmetry_space_group_name_H-M	'P1'
_symmetry_Int_Tables_number	1
_symmetry_cell_setting	triclinic
loop_
_symmetry_equiv_pos_as_xyz
  x,y,z
_cell_length_a	12.645330
_cell_length_b	16.120542
_cell_length_c	16.120297
_cell_angle_alpha	90.127087
_cell_angle_beta	87.123238
_cell_angle_gamma	92.890715
loop_
_atom_site_label
_atom_site_type_symbol
_atom_site_fract_x
_atom_site_fract_y
_atom_site_fract_z
Zn1	Zn	-0.537198	-1.247485	0.534623
Zn2	Zn	-0.203865	-0.914152	0.867956
Zn3	Zn	0.129468	-0.580819	1.201290
Zn4	Zn	-0.705961	-1.254449	0.395575
Zn5	Zn	-0.372627	-0.921116	0.728908
Zn6	Zn	-0.039294	-0.587782	1.062242
Zn7	Zn	-0.519272	-1.115474	0.388537
Zn8	Zn	-0.185939	-0.782141	0.721870
Zn9	Zn	0.147395	-0.448807	1.055204
Zn10	Zn	-0.704971	-1.108405	0.527541
Zn11	Zn	-0.371637	-0.775072	0.860874
Zn12	Zn	-0.038304	-0.441738	1.194208
O13	O	-0.616850	-1.181453	0.461569
O14	O	-0.283517	-0.848120	0.794902
O15	O	0.049816	-0.514787	1.128236
O16	O	-0.567501	-1.364776	0.522087
O17	O	-0.234168	-1.031443	0.855420
O18	O	0.099165	-0.698110	1.188754
O19	O	-0.674108	-1.241886	0.278276
O20	O	-0.340775	-0.908553	0.611609
O21	O	-0.007441	-0.575220	0.944942
O22	O	-0.373307	-1.133029	0.407934
O23	O	-0.039973	-0.799696	0.741267
O24	O	0.293360	-0.466363	1.074600
O25	O	-0.691491	-1.369893	0.419929
O26	O	-0.358157	-1.036559	0.753263
O27	O	-0.024824	-0.703226	1.086596
O28	O	-0.386477	-1.230018	0.515263
O29	O	-0.053144	-0.896684	0.848596
O30	O	0.280190	-0.563351	1.181929
O31	O	-0.536949	-1.139782	0.273105
O32	O	-0.203615	-0.806449	0.606438
O33	O	0.129718	-0.473115	0.939771
O34	O	-0.535989	-0.998169	0.401067
O35	O	-0.202655	-0.664836	0.734400
O36	O	0.130678	-0.331502	1.067734
O37	O	-0.689803	-1.120982	0.644846
O38	O	-0.356470	-0.787648	0.978179
O39	O	-0.023137	-0.454315	1.311513
O40	O	-0.672421	-0.992975	0.503193
O41	O	-0.339087	-0.659642	0.836526
O42	O	-0.005754	-0.326309	1.169859
O43	O	-0.566542	-1.223163	0.650049
O44	O	-0.233208	-0.889830	0.983382
O45	O	0.100125	-0.556497	1.316716
O46	O	-0.854173	-1.235032	0.413062
O47	O	-0.520839	-0.901699	0.746396
O48	O	-0.187506	-0.568365	1.079729
O49	O	-0.853445	-1.127734	0.510017
O50	O	-0.520112	-0.794401	0.843350
O51	O	-0.186779	-0.461067	1.176684
C52	C	-0.602153	-0.965399	0.450598
C53	C	-0.268820	-0.632066	0.783931
C54	C	0.064514	-0.298733	1.117265
C55	C	-0.595892	-0.872970	0.445924
C56	C	-0.262559	-0.539636	0.779258
C57	C	0.070775	-0.206303	1.112591
C58	C	-0.649294	-0.660012	0.485767
C59	C	-0.315960	-0.326679	0.819101
C60	C	0.017373	0.006654	1.152434
C61	C	-0.584471	-0.703744	0.437390
C62	C	-0.251137	-0.370411	0.770724
C63	C	0.082196	-0.037078	1.104057
C64	C	-0.590827	-0.797910	0.442140
C65	C	-0.257494	-0.464577	0.775473
C66	C	0.075839	-0.131243	1.108807
C67	C	-0.642938	-0.565838	0.481018
C68	C	-0.309605	-0.232505	0.814352
C69	C	0.023728	0.100829	1.147685
C70	C	-0.892275	-1.181393	0.461554
C71	C	-0.558942	-0.848060	0.794888
C72	C	-0.225609	-0.514727	1.128221
C73	C	-1.010110	-1.181442	0.461580
C74	C	-0.676777	-0.848109	0.794913
C75	C	-0.343443	-0.514775	1.128246
C76	C	-1.177291	-1.114196	0.522785
C77	C	-0.843957	-0.780863	0.856119
C78	C	-0.510624	-0.447529	1.189452
C79	C	-1.054696	-1.113879	0.522562
C80	C	-0.721363	-0.780546	0.855895
C81	C	-0.388030	-0.447212	1.189228
C82	C	-1.047723	-1.162164	0.372742
C83	C	-0.714390	-0.828831	0.706076
C84	C	-0.381057	-0.495498	1.039409
C85	C	-1.170319	-1.161754	0.373114
C86	C	-0.836986	-0.828421	0.706447
C87	C	-0.503652	-0.495087	1.039781
C88	C	-1.184560	-1.268394	0.488520
C89	C	-0.851227	-0.935060	0.821853
C90	C	-0.517894	-0.601727	1.155187
C91	C	-1.062034	-1.267757	0.490409
C92	C	-0.728701	-0.934423	0.823742
C93	C	-0.395368	-0.601090	1.157076
C94	C	-0.340353	-1.181535	0.461603
C95	C	-0.007019	-0.848202	0.794936
C96	C	0.326314	-0.514869	1.128270
C97	C	-0.222526	-1.181570	0.461618
C98	C	0.110808	-0.848237	0.794951
C99	C	0.444141	-0.514904	1.128284
C100	C	-0.630062	-1.170507	0.678464
C101	C	-0.296728	-0.837174	1.011797
C102	C	0.036605	-0.503840	1.345130
C103	C	-0.635691	-1.165842	0.770891
C104	C	-0.302358	-0.832509	1.104225
C105	C	0.030975	-0.499176	1.437558
C106	C	-0.631600	-0.398351	0.472572
C107	C	-0.298266	-0.065018	0.805905
C108	C	0.035067	0.268315	1.139238
C109	C	-0.637869	-0.490782	0.477231
C110	C	-0.304536	-0.157449	0.810564
C111	C	0.028798	0.175885	1.143897
C112	C	-0.603617	-1.192405	0.245520
C113	C	-0.270284	-0.859071	0.578854
C114	C	0.063049	-0.525738	0.912187
C115	C	-0.597700	-1.197230	0.153102
C116	C	-0.264367	-0.863897	0.486435
C117	C	0.068967	-0.530564	0.819768
C118	C	-0.645944	-1.157296	0.940116
C119	C	-0.312611	-0.823962	1.273450
C120	C	0.020722	-0.490629	1.606783
C121	C	-0.587450	-1.205775	0.983882
C122	C	-0.254117	-0.872442	1.317215
C123	C	0.079217	-0.539108	1.650548
C124	C	-0.593155	-1.201019	1.078044
C125	C	-0.259821	-0.867686	1.411378
C126	C	0.073512	-0.534353	1.744711
C127	C	-0.640241	-1.162050	0.845945
C128	C	-0.306908	-0.828717	1.179278
C129	C	0.026426	-0.495383	1.512612
H130	H	-0.524200	-0.670464	0.392406
H131	H	-0.190867	-0.337131	0.725739
H132	H	0.142466	-0.003797	1.059073
H133	H	-0.709560	-0.693291	0.530747
H134	H	-0.376227	-0.359957	0.864080
H135	H	-0.042893	-0.026624	1.197414
F136	F	-1.200592	-1.078969	0.344003
F137	F	-0.867259	-0.745636	0.677336
F138	F	-0.533926	-0.412303	1.010669
F139	F	-0.516412	-1.264707	0.940425
F140	F	-0.183078	-0.931374	1.273759
F141	F	0.150255	-0.598041	1.607092
H142	H	-1.029532	-1.125425	0.588294
H143	H	-0.696199	-0.792092	0.921628
H144	H	-0.362865	-0.458759	1.254961
F145	F	-0.717000	-1.098384	0.983573
F146	F	-0.383666	-0.765051	1.316906
F147	F	-0.050333	-0.431717	1.650240
H148	H	-1.211696	-1.125595	0.588725
H149	H	-0.878363	-0.792262	0.922058
H150	H	-0.545029	-0.458928	1.255391
H151	H	-1.220723	-1.286848	0.552434
H152	H	-0.887390	-0.953515	0.885767
H153	H	-0.554056	-0.620181	1.219100
H154	H	-1.202890	-1.050137	0.504822
H155	H	-0.869557	-0.716804	0.838155
H156	H	-0.536224	-0.383470	1.171488
H157	H	-1.020121	-1.049423	0.504387
H158	H	-0.686788	-0.716089	0.837720
H159	H	-0.353454	-0.382756	1.171054
H160	H	-1.199969	-1.208938	0.325745
H161	H	-0.866636	-0.875605	0.659079
H162	H	-0.533303	-0.542272	0.992412
H163	H	-1.011604	-1.099516	0.350160
H164	H	-0.678270	-0.766183	0.683494
H165	H	-0.344937	-0.432849	1.016827
F166	F	-1.009679	-1.224528	0.311287
F167	F	-0.676346	-0.891194	0.644620
F168	F	-0.343012	-0.557861	0.977954
F169	F	-1.030688	-1.286867	0.575894
F170	F	-0.697354	-0.953534	0.909227
F171	F	-0.364021	-0.620200	1.242560
F172	F	-1.022946	-1.336361	0.436886
F173	F	-0.689613	-1.003028	0.770219
F174	F	-0.356280	-0.669695	1.103552
H175	H	-1.213918	-1.318535	0.444023
H176	H	-0.880585	-0.985201	0.777356
H177	H	-0.547251	-0.651868	1.110690
