data_functionalizedCrystal
_audit_creation_method	'MofGen! by Chris Wilmer'
_symmetry_space_group_name_H-M	'P1'
_symmetry_Int_Tables_number	1
_symmetry_cell_setting	triclinic
loop_
_symmetry_equiv_pos_as_xyz
  x,y,z
_cell_length_a	16.974829
_cell_length_b	10.723024
_cell_length_c	15.455313
_cell_angle_alpha	92.691723
_cell_angle_beta	83.671566
_cell_angle_gamma	83.931993
loop_
_atom_site_label
_atom_site_type_symbol
_atom_site_fract_x
_atom_site_fract_y
_atom_site_fract_z
O1	O	1.056979	0.148001	-0.146323
O2	O	0.826111	0.169476	-0.130118
O3	O	0.946870	-0.022946	-0.138591
O4	O	0.936220	0.340423	-0.137850
O5	O	0.939964	-0.011988	0.006156
O6	O	0.819205	0.180434	0.014628
O7	O	1.050073	0.158960	-0.001576
Cu8	Cu	0.934008	0.170698	0.019743
Cu9	Cu	0.942175	0.157738	-0.151437
O10	O	0.929314	0.351382	0.006897
C11	C	0.793096	0.174340	-0.055670
C12	C	0.705013	0.172494	-0.049488
C13	C	0.208787	0.162782	-0.006218
C14	C	0.291551	0.164517	-0.012028
C15	C	0.336699	0.159402	-0.093837
C16	C	0.299077	0.152564	-0.169839
C17	C	0.216314	0.150838	-0.164027
C18	C	0.584628	0.163930	-0.119679
C19	C	0.667397	0.165652	-0.125485
C20	C	0.659865	0.177608	0.032327
C21	C	0.577101	0.175875	0.038131
C22	C	0.539486	0.169043	-0.037871
N23	N	0.421297	0.161171	-0.099778
N24	N	0.454888	0.167283	-0.031929
C25	C	0.942642	-0.063951	-0.066164
C26	C	0.940323	-0.202458	-0.066005
C27	C	1.007894	-0.278822	-0.070749
C28	C	1.005499	-0.421977	-0.070584
C29	C	1.083087	0.154095	-0.076026
C30	C	1.171171	0.155941	-0.082214
C31	C	0.933542	0.392386	-0.065532
C32	C	0.935861	0.530893	-0.065697
N33	N	0.928270	0.179812	0.140141
N34	N	0.947920	0.148614	-0.271836
C35	C	0.979591	0.098094	0.181934
C36	C	0.975259	0.104998	0.273046
C37	C	0.919609	0.193627	0.322363
C38	C	0.868282	0.275348	0.280563
C39	C	0.872611	0.268437	0.189453
C40	C	0.900923	0.223424	0.595255
C41	C	0.896599	0.230332	0.686371
C42	C	1.003575	0.059979	0.678847
C43	C	1.007902	0.053081	0.587736
C44	C	0.956573	0.134798	0.545945
N45	N	0.915181	0.200689	0.415493
N46	N	0.960998	0.127729	0.452816
H47	H	0.540350	0.180013	0.104748
H48	H	1.067516	-0.238219	-0.074928
Br49	Br	1.101918	-0.531332	-0.077343
H50	H	0.880701	-0.243061	-0.061826
Br51	Br	0.839437	-0.359758	-0.058917
H52	H	0.704153	0.161497	-0.192106
H53	H	0.851280	0.302509	0.726521
Br54	Br	0.710918	0.186886	0.135467
H55	H	1.024910	0.025928	0.141786
Br56	Br	1.044906	-0.005910	0.329769
H57	H	1.053217	-0.019088	0.547584
H58	H	1.045364	-0.006553	0.712882
H59	H	0.859130	0.289964	0.561236
Br60	Br	0.792749	0.395625	0.347490
H61	H	0.830819	0.334979	0.155426
H62	H	0.322174	0.170085	0.049856
Br63	Br	0.147525	0.169709	0.104813
H64	H	0.335842	0.148406	-0.236449
Br65	Br	0.165261	0.141565	-0.267170
Br66	Br	0.533589	0.154654	-0.222825
