data_functionalizedCrystal
_audit_creation_method	'MofGen! by Chris Wilmer'
_symmetry_space_group_name_H-M	'P1'
_symmetry_Int_Tables_number	1
_symmetry_cell_setting	triclinic
loop_
_symmetry_equiv_pos_as_xyz
  x,y,z
_cell_length_a	17.638686
_cell_length_b	16.625545
_cell_length_c	17.640968
_cell_angle_alpha	101.230628
_cell_angle_beta	114.307628
_cell_angle_gamma	78.792475
loop_
_atom_site_label
_atom_site_type_symbol
_atom_site_fract_x
_atom_site_fract_y
_atom_site_fract_z
Zn1	Zn	1.354048	-0.452153	0.720214
Zn2	Zn	1.326075	-0.609645	0.582385
Zn3	Zn	1.188375	-0.452115	0.554609
Zn4	Zn	1.216192	-0.564219	0.692352
O5	O	1.271172	-0.519533	0.637390
O6	O	1.465658	-0.492072	0.725216
O7	O	1.284460	-0.607743	0.463373
O8	O	1.210417	-0.339294	0.576613
O9	O	1.445106	-0.607780	0.623954
O10	O	1.332136	-0.339322	0.698282
O11	O	1.183292	-0.492007	0.442966
O12	O	1.076744	-0.447959	0.549596
O13	O	1.257828	-0.530358	0.811376
O14	O	1.097181	-0.530321	0.650795
O15	O	1.359109	-0.448024	0.831846
O16	O	1.311434	-0.716445	0.596937
O17	O	1.230703	-0.683071	0.677729
C18	C	1.057061	-0.484207	0.594158
C19	C	0.965467	-0.469110	0.575683
C20	C	0.717456	-0.634361	0.777952
C21	C	0.631386	-0.620172	0.760571
C22	C	0.610104	-0.534222	0.655355
C23	C	0.696174	-0.548407	0.672724
C24	C	0.749844	-0.598477	0.734024
C25	C	0.728561	-0.512522	0.628797
C26	C	0.814624	-0.526703	0.646168
C27	C	0.868300	-0.576768	0.707467
C28	C	0.835907	-0.612657	0.751395
C29	C	0.674891	-0.462448	0.567502
C30	C	0.707278	-0.426564	0.523574
C31	C	0.793342	-0.440749	0.540941
C32	C	0.847017	-0.490814	0.602239
C33	C	0.825735	-0.404860	0.497012
C34	C	0.911797	-0.419041	0.514383
C35	C	0.933080	-0.504995	0.619611
C36	C	1.271078	-0.729013	0.637346
C37	C	1.271118	-0.818638	0.637370
C38	C	1.271153	-0.891423	0.637393
C39	C	1.271205	-0.982736	0.637421
C40	C	1.271250	-1.055518	0.637440
C41	C	1.271300	-1.146837	0.637466
C42	C	1.486120	-0.554998	0.680791
C43	C	1.577717	-0.570111	0.699286
C44	C	1.314692	-0.484128	0.852350
C45	C	1.333237	-0.469040	0.943954
C46	C	1.271294	-0.309235	0.637457
C47	C	1.271345	-0.219619	0.637485
C48	C	1.227870	-0.554750	0.423276
C49	C	1.209484	-0.569637	0.331705
C50	C	1.130602	-0.633765	1.191943
C51	C	1.148045	-0.619581	1.278021
C52	C	1.253501	-0.533854	1.299325
C53	C	1.236063	-0.548028	1.213245
C54	C	1.174614	-0.597985	1.159561
C55	C	1.280075	-0.512248	1.180864
C56	C	1.262642	-0.526424	1.094793
C57	C	1.201197	-0.576381	1.041103
C58	C	1.157180	-0.612162	1.073490
C59	C	1.341529	-0.462296	1.234551
C60	C	1.385541	-0.426515	1.202169
C61	C	1.368104	-0.440687	1.116096
C62	C	1.306658	-0.490644	1.062406
C63	C	1.412120	-0.404907	1.083709
C64	C	1.394687	-0.419083	0.997638
C65	C	1.289225	-0.504820	0.976335
H66	H	0.604814	-0.450899	0.553365
Br67	Br	1.205818	-0.572609	0.903467
Br68	Br	0.790300	-0.702326	0.861134
Br69	Br	1.454423	-0.370530	0.953687
H70	H	1.187007	-0.587926	0.971020
H71	H	1.435576	-0.385843	1.245891
Br72	Br	1.073773	-0.679950	1.000622
H73	H	0.782025	-0.364087	0.447108
H74	H	0.605022	-0.649394	0.796349
H75	H	0.976781	-0.545771	0.669523
H76	H	0.566395	-0.493453	0.605447
Br77	Br	1.088307	-0.668145	1.321965
H78	H	1.355723	-0.450757	1.304635
Br79	Br	0.634435	-0.358608	0.440390
Br80	Br	0.955758	-0.370338	0.454770
H81	H	0.938378	-0.588308	0.721614
H82	H	1.303536	-0.493181	1.343046
H83	H	1.080543	-0.674423	1.148225
H84	H	1.462158	-0.364238	1.127433
H85	H	0.879608	-0.653434	0.801308
