data_functionalizedCrystal
_audit_creation_method	'MofGen! by Chris Wilmer'
_symmetry_space_group_name_H-M	'P1'
_symmetry_Int_Tables_number	1
_symmetry_cell_setting	triclinic
loop_
_symmetry_equiv_pos_as_xyz
  x,y,z
_cell_length_a	14.971486
_cell_length_b	17.699103
_cell_length_c	14.048226
_cell_angle_alpha	89.988606
_cell_angle_beta	89.998499
_cell_angle_gamma	83.452595
loop_
_atom_site_label
_atom_site_type_symbol
_atom_site_fract_x
_atom_site_fract_y
_atom_site_fract_z
O1	O	1.186616	0.098632	-0.079062
O2	O	0.926176	0.110444	-0.079089
O3	O	1.063745	-0.005632	-0.079057
O4	O	1.049047	0.214708	-0.079095
O5	O	1.063729	-0.005639	0.079265
O6	O	0.926160	0.110437	0.079232
O7	O	1.186600	0.098625	0.079259
Zn8	Zn	1.056377	0.104530	0.104383
Zn9	Zn	1.056399	0.104539	-0.104212
O10	O	1.049031	0.214701	0.079227
C11	C	0.892845	0.109912	0.000068
C12	C	0.793554	0.108329	0.000059
C13	C	1.063207	-0.033834	0.000107
C14	C	1.061618	-0.117855	0.000114
C15	C	0.736099	0.176520	0.000048
C16	C	0.642805	0.175029	0.000063
C17	C	0.606966	0.105345	0.000081
C18	C	0.664428	0.037148	0.000094
C19	C	0.757720	0.038641	0.000086
C20	C	0.469976	0.034042	0.000108
C21	C	0.376677	0.032549	0.000114
C22	C	0.355060	0.170430	0.000084
C23	C	0.448353	0.171922	0.000076
C24	C	0.505808	0.103725	0.000088
C25	C	1.051908	-0.633586	-0.086250
C26	C	1.053400	-0.554639	-0.086241
C27	C	1.054135	-0.515183	0.000066
C28	C	1.053387	-0.554678	0.086369
C29	C	1.051902	-0.633625	0.086360
C30	C	1.059379	-0.236297	0.086410
C31	C	1.060862	-0.157345	0.086413
C32	C	1.060877	-0.157312	-0.086191
C33	C	1.059391	-0.236258	-0.086201
C34	C	1.058649	-0.275747	0.000102
C35	C	1.057033	-0.361351	0.000092
C36	C	1.055744	-0.429580	0.000077
C37	C	1.219931	0.099157	0.000100
C38	C	1.319223	0.100740	0.000103
C39	C	1.049569	0.242903	0.000061
C40	C	1.051158	0.326924	0.000047
N41	N	1.056369	0.104523	0.246743
N42	N	1.056414	0.104540	-0.246573
C43	C	1.117303	0.053146	0.296576
C44	C	1.117309	0.053146	0.396234
C45	C	1.056385	0.104527	0.446057
C46	C	0.995444	0.155906	0.396217
C47	C	0.995434	0.155903	0.296562
C48	C	0.995469	0.155912	0.603932
C49	C	0.995480	0.155917	0.703594
C50	C	1.117345	0.053155	0.703604
C51	C	1.117335	0.053151	0.603948
C52	C	1.056395	0.104532	0.554115
H53	H	0.765271	0.233265	0.000033
Cl54	Cl	1.058436	-0.285930	0.194906
Cl55	Cl	0.570580	0.260759	0.000044
Cl56	Cl	0.493406	0.259526	0.000043
Cl57	Cl	1.054317	-0.505076	0.194870
Cl58	Cl	1.050977	-0.683180	-0.194756
Cl59	Cl	1.050964	-0.683270	0.194853
Cl60	Cl	1.193904	-0.011448	0.233951
Cl61	Cl	0.331624	-0.055055	0.000168
H62	H	1.058788	-0.268379	-0.156481
H63	H	1.054013	-0.522491	-0.156513
Cl64	Cl	1.193913	-0.011444	0.458882
H65	H	1.166964	0.011319	0.744183
Cl66	Cl	0.829949	-0.047089	0.000104
H67	H	1.061484	-0.125151	-0.156464
Cl68	Cl	0.282832	0.256163	0.000072
Cl69	Cl	0.542204	-0.051693	0.000124
Cl70	Cl	1.061787	-0.107744	0.194921
H71	H	1.166949	0.011317	0.563382
Cl72	Cl	0.918847	0.220497	0.458850
H73	H	0.635241	-0.019590	0.000122
H74	H	0.945868	0.197756	0.744156
H75	H	0.945842	0.197749	0.563361
H76	H	0.945814	0.197738	0.255989
