data_functionalizedCrystal
_audit_creation_method	'MofGen! by Chris Wilmer'
_symmetry_space_group_name_H-M	'P1'
_symmetry_Int_Tables_number	1
_symmetry_cell_setting	triclinic
loop_
_symmetry_equiv_pos_as_xyz
  x,y,z
_cell_length_a	12.759395
_cell_length_b	12.759387
_cell_length_c	12.759394
_cell_angle_alpha	89.970033
_cell_angle_beta	90.015393
_cell_angle_gamma	89.979491
loop_
_atom_site_label
_atom_site_type_symbol
_atom_site_fract_x
_atom_site_fract_y
_atom_site_fract_z
Zn1	Zn	1.606275	-0.594011	-0.418168
Zn2	Zn	1.606168	-0.418334	-0.593885
Zn3	Zn	1.430573	-0.418348	-0.418225
Zn4	Zn	1.430568	-0.593973	-0.593810
O5	O	1.518396	-0.506167	-0.506022
O6	O	1.753282	-0.570717	-0.441485
O7	O	1.582832	-0.271315	-0.570639
O8	O	1.453927	-0.441672	-0.271197
O9	O	1.753203	-0.441648	-0.570583
O10	O	1.583014	-0.570731	-0.271154
O11	O	1.453824	-0.271325	-0.441582
O12	O	1.283551	-0.441635	-0.441510
O13	O	1.453918	-0.740999	-0.570456
O14	O	1.283548	-0.570666	-0.570511
O15	O	1.583010	-0.741027	-0.441412
O16	O	1.582828	-0.441611	-0.740896
O17	O	1.453815	-0.570653	-0.740841
C18	C	1.245428	-0.506149	-0.506009
C19	C	1.128652	-0.506166	-0.506029
C20	C	1.128687	-0.640308	-0.640576
C21	C	1.073843	-0.707383	-0.707857
C22	C	0.964121	-0.707396	-0.707870
C23	C	0.909241	-0.640329	-0.640592
C24	C	0.964084	-0.573255	-0.573310
C25	C	1.073808	-0.573247	-0.573307
C26	C	0.964049	-0.439119	-0.438760
C27	C	1.073771	-0.439099	-0.438751
C28	C	0.909169	-0.372053	-0.371482
C29	C	0.964012	-0.304971	-0.304204
C30	C	1.073741	-0.304960	-0.304195
C31	C	1.128615	-0.372025	-0.371469
C32	C	1.518475	-0.780200	-0.505919
C33	C	1.518509	-0.896977	-0.505875
C34	C	1.652941	-0.897026	-0.371511
C35	C	1.720171	-0.951911	-0.304313
C36	C	1.720197	-1.061633	-0.304275
C37	C	1.652982	-1.116472	-0.371439
C38	C	1.585752	-1.061587	-0.438637
C39	C	1.585736	-0.951862	-0.438671
C40	C	1.451317	-1.061538	-0.572995
C41	C	1.451295	-0.951816	-0.573040
C42	C	1.384102	-1.116377	-0.640159
C43	C	1.316875	-1.061492	-0.707364
C44	C	1.316854	-0.951763	-0.707400
C45	C	1.384064	-0.896931	-0.640238
C46	C	1.792429	-0.506185	-0.506036
C47	C	1.909206	-0.506193	-0.506042
C48	C	1.518338	-0.506149	-0.778990
C49	C	1.518409	-0.506177	-0.895766
C50	C	1.518377	-0.233199	-0.506049
C51	C	1.518547	-0.116423	-0.505797
C52	C	1.652727	-0.640667	-0.895564
C53	C	1.719919	-0.707920	-0.950324
C54	C	1.719981	-0.707942	-1.060046
C55	C	1.652842	-0.640707	-1.115010
C56	C	1.585650	-0.573454	-1.060250
C57	C	1.585597	-0.573437	-0.950526
C58	C	1.451328	-0.438971	-1.060452
C59	C	1.451270	-0.438942	-0.950731
C60	C	1.384189	-0.371736	-1.115417
C61	C	1.317001	-0.304476	-1.060657
C62	C	1.316942	-0.304456	-0.950929
C63	C	1.384077	-0.371689	-0.895971
C64	C	1.518483	-0.506207	-0.231989
C65	C	1.518520	-0.506224	-0.115212
H66	H	1.118539	-0.761989	-0.762632
Cl67	Cl	1.804308	-0.792449	-0.881222
H68	H	0.919320	-0.250376	-0.249426
H69	H	1.774894	-0.907249	-0.249627
Cl70	Cl	1.266551	-0.372012	-0.371468
H71	H	1.384124	-1.205718	-0.640119
H72	H	1.118388	-0.250347	-0.249398
Cl73	Cl	0.771232	-0.372075	-0.371492
H74	H	0.819900	-0.640355	-0.640599
Cl75	Cl	1.232597	-0.219972	-1.129759
H76	H	1.652937	-0.807685	-0.371545
H77	H	1.384241	-0.371763	-1.204758
Cl78	Cl	1.804449	-0.792492	-1.128890
Cl79	Cl	1.384047	-0.758994	-0.640282
H80	H	1.652890	-0.640741	-1.204351
Cl81	Cl	1.804699	-1.130634	-0.219781
H82	H	0.919468	-0.762019	-0.762651
Cl83	Cl	1.232461	-0.219909	-0.882097
H84	H	1.653000	-1.205813	-0.371393
Cl85	Cl	1.383993	-0.371685	-0.758034
H86	H	1.262149	-1.106150	-0.762038
H87	H	1.218028	-0.640297	-0.640580
Cl88	Cl	1.232324	-0.882774	-0.791877
H89	H	1.652693	-0.640645	-0.806223
