data_functionalizedCrystal
_audit_creation_method	'MofGen! by Chris Wilmer'
_symmetry_space_group_name_H-M	'P1'
_symmetry_Int_Tables_number	1
_symmetry_cell_setting	triclinic
loop_
_symmetry_equiv_pos_as_xyz
  x,y,z
_cell_length_a	12.759395
_cell_length_b	12.594516
_cell_length_c	12.759387
_cell_angle_alpha	90.033130
_cell_angle_beta	90.020509
_cell_angle_gamma	90.015060
loop_
_atom_site_label
_atom_site_type_symbol
_atom_site_fract_x
_atom_site_fract_y
_atom_site_fract_z
Zn1	Zn	1.606277	-0.423642	0.593988
Zn2	Zn	1.606172	-0.601660	0.418301
Zn3	Zn	1.430575	-0.423700	0.418325
Zn4	Zn	1.430571	-0.601584	0.593940
O5	O	1.518399	-0.512647	0.506139
O6	O	1.753284	-0.447264	0.570693
O7	O	1.582836	-0.578109	0.271283
O8	O	1.453929	-0.274747	0.441657
O9	O	1.753207	-0.578053	0.441617
O10	O	1.583016	-0.274704	0.570716
O11	O	1.453826	-0.447363	0.271301
O12	O	1.283554	-0.447290	0.441611
O13	O	1.453922	-0.577924	0.740968
O14	O	1.283551	-0.577980	0.570635
O15	O	1.583012	-0.447191	0.741003
O16	O	1.582832	-0.750595	0.441571
O17	O	1.453819	-0.750540	0.570612
C18	C	1.245431	-0.512634	0.506121
C19	C	1.128655	-0.512654	0.506138
C20	C	1.128690	-0.648962	0.640273
C21	C	1.073847	-0.717124	0.707344
C22	C	0.964126	-0.717137	0.707357
C23	C	0.909244	-0.648978	0.640294
C24	C	0.964088	-0.580816	0.573223
C25	C	1.073812	-0.580812	0.573215
C26	C	0.964052	-0.444504	0.439095
C27	C	1.073774	-0.444495	0.439075
C28	C	0.909171	-0.376345	0.372032
C29	C	0.964014	-0.308186	0.304954
C30	C	1.073742	-0.308177	0.304944
C31	C	1.128617	-0.376332	0.372004
C32	C	1.518342	-0.789188	0.506106
C33	C	1.518414	-0.907493	0.506128
C34	C	1.588713	-1.047501	0.436064
C35	C	1.492837	-0.976821	0.410248
C36	C	1.614278	-0.976602	0.531896
C37	C	1.422596	-1.047598	0.480353
C38	C	1.544101	-1.047386	0.602046
C39	C	1.448160	-0.976737	0.576266
C40	C	1.792432	-0.512660	0.506157
C41	C	1.909209	-0.512666	0.506165
C42	C	1.518478	-0.512542	0.780172
C43	C	1.518512	-0.512498	0.896949
C44	C	1.518485	-0.235026	0.506194
C45	C	1.518521	-0.116720	0.506218
C46	C	1.518380	-0.512674	0.233171
C47	C	1.518550	-0.512418	0.116395
C48	C	1.652943	-0.376375	0.897005
C49	C	1.720173	-0.308297	0.951894
C50	C	1.720199	-0.308258	1.061616
C51	C	1.652985	-0.376302	1.116451
C52	C	1.585755	-0.444380	1.061562
C53	C	1.585738	-0.444413	0.951838
C54	C	1.451320	-0.580496	1.061506
C55	C	1.451298	-0.580542	0.951784
C56	C	1.384106	-0.648540	1.116341
C57	C	1.316880	-0.716624	1.061452
C58	C	1.316858	-0.716661	0.951724
C59	C	1.384068	-0.648619	0.896895
H60	H	1.218031	-0.648966	0.640262
H61	H	1.565818	-1.078408	0.683101
N62	N	1.129923	-0.786729	0.775846
N63	N	1.227888	-0.786710	0.775831
H64	H	1.267491	-0.835865	0.824214
N65	N	1.465646	-0.937900	0.308544
N66	N	1.460501	-0.840151	0.292446
H67	H	1.441307	-0.812662	0.220615
H68	H	1.653003	-0.376255	1.205792
N69	N	1.320924	-1.086559	0.452947
N70	N	1.304572	-1.184320	0.448530
H71	H	1.232768	-1.211840	0.429174
N72	N	1.373552	-0.937974	0.650626
N73	N	1.361888	-0.840247	0.663138
H74	H	1.309193	-0.812866	0.715649
N75	N	1.715925	-0.937482	0.559176
N76	N	1.793345	-0.960149	0.503498
H77	H	1.865136	-0.932522	0.522755
N78	N	1.384029	-0.648639	0.784818
N79	N	1.302073	-0.626385	0.735843
H80	H	1.302043	-0.626392	0.656687
H81	H	0.819830	-0.376356	0.372052
H82	H	1.652939	-0.376409	0.807664
N83	N	1.788815	-0.238795	0.895865
N84	N	1.788787	-0.238835	0.797900
H85	H	1.837263	-0.189747	0.758330
H86	H	0.919321	-0.252692	0.250362
N87	N	0.908115	-0.786760	0.775880
N88	N	0.957121	-0.847605	0.835755
H89	H	0.917564	-0.896777	0.884151
N90	N	1.788866	-0.238702	1.117673
N91	N	1.848864	-0.177949	1.068709
H92	H	1.897359	-0.128822	1.108298
H93	H	1.648043	-1.078572	0.376730
N94	N	1.384133	-0.648480	1.228419
N95	N	1.444163	-0.587693	1.277417
H96	H	1.444183	-0.587652	1.356573
H97	H	1.262154	-0.772014	1.106108
N98	N	0.797167	-0.648988	0.640334
N99	N	0.748213	-0.709843	0.700232
H100	H	0.669057	-0.709849	0.700263
H101	H	1.118389	-0.252663	0.250334
H102	H	1.217958	-0.376334	0.371999
N103	N	1.248166	-0.786200	0.895676
N104	N	1.188161	-0.846937	0.944653
H105	H	1.139644	-0.896050	0.905074
