data_functionalizedCrystal
_audit_creation_method	'MofGen! by Chris Wilmer'
_symmetry_space_group_name_H-M	'P1'
_symmetry_Int_Tables_number	1
_symmetry_cell_setting	triclinic
loop_
_symmetry_equiv_pos_as_xyz
  x,y,z
_cell_length_a	17.699083
_cell_length_b	17.699083
_cell_length_c	16.176319
_cell_angle_alpha	90.001389
_cell_angle_beta	90.007696
_cell_angle_gamma	83.283015
loop_
_atom_site_label
_atom_site_type_symbol
_atom_site_fract_x
_atom_site_fract_y
_atom_site_fract_z
O1	O	-0.095713	-1.004079	-0.068632
O2	O	0.237620	-0.670745	0.264701
O3	O	0.570954	-0.337412	0.598034
O4	O	-0.108166	-0.783700	-0.068660
O5	O	0.225168	-0.450367	0.264674
O6	O	0.558501	-0.117034	0.598007
O7	O	0.008250	-0.900116	-0.068638
O8	O	0.341583	-0.566782	0.264695
O9	O	0.674917	-0.233449	0.598029
O10	O	-0.212129	-0.887663	-0.068654
O11	O	0.121205	-0.554330	0.264679
O12	O	0.454538	-0.220997	0.598013
O13	O	0.008257	-0.900100	0.068855
O14	O	0.341591	-0.566766	0.402189
O15	O	0.674924	-0.233433	0.735522
O16	O	-0.108158	-0.783684	0.068834
O17	O	0.225175	-0.450351	0.402167
O18	O	0.558508	-0.117018	0.735500
O19	O	-0.095706	-1.004063	0.068861
O20	O	0.237628	-0.670729	0.402194
O21	O	0.570961	-0.337396	0.735528
Cu22	Cu	-0.101931	-0.893872	0.081401
Cu23	Cu	0.231402	-0.560539	0.414735
Cu24	Cu	0.564735	-0.227205	0.748068
Cu25	Cu	-0.101940	-0.893891	-0.081200
Cu26	Cu	0.231393	-0.560558	0.252133
Cu27	Cu	0.564727	-0.227224	0.585467
O28	O	-0.212121	-0.887647	0.068839
O29	O	0.121212	-0.554314	0.402173
O30	O	0.454546	-0.220981	0.735506
C31	C	-0.107716	-0.755495	0.000084
C32	C	0.225618	-0.422162	0.333417
C33	C	0.558951	-0.088829	0.666750
C34	C	-0.106377	-0.671477	0.000073
C35	C	0.226956	-0.338144	0.333407
C36	C	0.560290	-0.004811	0.666740
C37	C	0.036451	-0.899662	0.000109
C38	C	0.369784	-0.566328	0.333442
C39	C	0.703117	-0.232995	0.666775
C40	C	0.120469	-0.898323	0.000109
C41	C	0.453802	-0.564990	0.333442
C42	C	0.787135	-0.231656	0.666776
C43	C	-0.096156	-1.032268	0.000116
C44	C	0.237178	-0.698934	0.333449
C45	C	0.570511	-0.365601	0.666783
C46	C	-0.097494	-1.116286	0.000121
C47	C	0.235839	-0.782953	0.333454
C48	C	0.569172	-0.449619	0.666787
C49	C	-0.240322	-0.888102	0.000091
C50	C	0.093011	-0.554768	0.333424
C51	C	0.426345	-0.221435	0.666757
C52	C	-0.324340	-0.889440	0.000085
C53	C	0.008993	-0.556107	0.333418
C54	C	0.342327	-0.222773	0.666752
C55	C	0.169090	-0.966656	0.000119
C56	C	0.502423	-0.633323	0.333452
C57	C	0.835756	-0.299990	0.666785
C58	C	0.248033	-0.965394	0.000111
C59	C	0.581366	-0.632061	0.333444
C60	C	0.914700	-0.298727	0.666778
C61	C	0.278354	-0.895798	0.000100
C62	C	0.611687	-0.562464	0.333433
C63	C	0.945020	-0.229131	0.666767
C64	C	0.229727	-0.827459	0.000088
C65	C	0.563060	-0.494126	0.333421
C66	C	0.896393	-0.160792	0.666754
C67	C	0.150785	-0.828722	0.000089
C68	C	0.484118	-0.495389	0.333423
C69	C	0.817451	-0.162055	0.666756
C70	C	0.548090	-0.822364	0.000080
C71	C	0.881423	-0.489030	0.333414
C72	C	1.214756	-0.155697	0.666747
C73	C	0.627038	-0.821106	0.000081
C74	C	0.960371	-0.487773	0.333415
C75	C	1.293704	-0.154439	0.666748
C76	C	0.645338	-0.959036	0.000102
C77	C	0.978671	-0.625703	0.333436
C78	C	1.312004	-0.292369	0.666769
C79	C	0.566396	-0.960299	0.000104
C80	C	0.899729	-0.626966	0.333437
C81	C	1.233063	-0.293632	0.666770
C82	C	0.517776	-0.891961	0.000087
C83	C	0.851109	-0.558627	0.333421
C84	C	1.184442	-0.225294	0.666754
C85	C	0.432177	-0.893330	0.000094
C86	C	0.765510	-0.559997	0.333427
C87	C	1.098843	-0.226664	0.666760
C88	C	0.363951	-0.894427	0.000099
C89	C	0.697285	-0.561094	0.333433
C90	C	1.030618	-0.227761	0.666766
N91	N	-0.101925	-0.893864	0.195767
N92	N	0.231409	-0.560531	0.529100
N93	N	0.564742	-0.227198	0.862433
C94	C	-0.174710	-0.622856	0.000069
C95	C	0.158623	-0.289523	0.333402
C96	C	0.491956	0.043810	0.666735
C97	C	-0.173448	-0.543913	0.000079
C98	C	0.159885	-0.210580	0.333413
C99	C	0.493218	0.122754	0.666746
C100	C	-0.103852	-0.513592	0.000089
C101	C	0.229482	-0.180259	0.333422
C102	C	0.562815	0.153074	0.666756
C103	C	-0.035513	-0.562219	0.000096
C104	C	0.297820	-0.228886	0.333430
C105	C	0.631154	0.104447	0.666763
C106	C	-0.036776	-0.641161	0.000091
C107	C	0.296557	-0.307828	0.333425
C108	C	0.629891	0.025505	0.666758
C109	C	-0.030418	-0.243856	0.000117
C110	C	0.302915	0.089477	0.333450
C111	C	0.636249	0.422810	0.666784
C112	C	-0.029160	-0.164908	0.000120
C113	C	0.304173	0.168425	0.333453
C114	C	0.637507	0.501758	0.666786
C115	C	-0.167090	-0.146608	0.000105
C116	C	0.166243	0.186725	0.333438
C117	C	0.499577	0.520058	0.666772
C118	C	-0.168353	-0.225550	0.000100
C119	C	0.164980	0.107783	0.333434
C120	C	0.498314	0.441117	0.666767
C121	C	-0.100015	-0.274170	0.000112
C122	C	0.233319	0.059163	0.333445
C123	C	0.566652	0.392496	0.666778
C124	C	-0.101384	-0.359769	0.000102
C125	C	0.231949	-0.026436	0.333435
C126	C	0.565282	0.306897	0.666768
C127	C	-0.102481	-0.427995	0.000093
C128	C	0.230852	-0.094661	0.333427
C129	C	0.564185	0.238672	0.666760
N130	N	-0.101941	-0.893905	-0.195565
N131	N	0.231393	-0.560571	0.137768
N132	N	0.564726	-0.227238	0.471101
C133	C	-0.050397	-0.945429	0.239040
C134	C	0.282936	-0.612095	0.572374
C135	C	0.616270	-0.278762	0.905707
C136	C	-0.050396	-0.945432	0.325588
C137	C	0.282937	-0.612099	0.658921
C138	C	0.616271	-0.278766	0.992254
C139	C	-0.101927	-0.893875	0.368859
C140	C	0.231406	-0.560542	0.702193
C141	C	0.564739	-0.227208	1.035526
C142	C	-0.153457	-0.842305	0.325579
C143	C	0.179876	-0.508972	0.658913
C144	C	0.513209	-0.175639	0.992246
C145	C	-0.153454	-0.842299	0.239034
C146	C	0.179879	-0.508965	0.572367
C147	C	0.513213	-0.175632	0.905701
C148	C	-0.153472	-0.842331	0.674608
C149	C	0.179862	-0.508998	1.007941
C150	C	0.513195	-0.175665	1.341274
C151	C	-0.153473	-0.842344	0.761159
C152	C	0.179861	-0.509010	1.094493
C153	C	0.513194	-0.175677	1.427826
C154	C	-0.050414	-0.945465	0.761161
C155	C	0.282920	-0.612132	1.094495
C156	C	0.616253	-0.278799	1.427828
C157	C	-0.050410	-0.945458	0.674616
C158	C	0.282923	-0.612125	1.007949
C159	C	0.616256	-0.278792	1.341283
C160	C	-0.101937	-0.893886	0.631344
C161	C	0.231396	-0.560553	0.964677
C162	C	0.564729	-0.227220	1.298010
C163	C	-0.101937	-0.893882	0.537499
C164	C	0.231397	-0.560548	0.870833
C165	C	0.564730	-0.227215	1.204166
C166	C	-0.101932	-0.893883	0.462702
C167	C	0.231401	-0.560549	0.796035
C168	C	0.564735	-0.227216	1.129369
H169	H	0.144409	-1.023330	0.000133
H170	H	0.477742	-0.689997	0.333466
H171	H	0.811076	-0.356663	0.666799
H172	H	0.684934	-1.014680	0.000111
H173	H	1.018268	-0.681347	0.333445
H174	H	1.351601	-0.348013	0.666778
H175	H	0.651721	-0.764429	0.000074
H176	H	0.985054	-0.431096	0.333407
H177	H	1.318388	-0.097762	0.666741
Br178	Br	0.482115	-0.729619	0.000053
Br179	Br	0.815448	-0.396285	0.333386
Br180	Br	1.148781	-0.062952	0.666720
Br181	Br	0.019519	-1.015457	0.819892
Br182	Br	0.352852	-0.682123	1.153225
Br183	Br	0.686186	-0.348790	1.486558
H184	H	-0.229092	-0.504328	0.000075
H185	H	0.104241	-0.170995	0.333408
H186	H	0.437574	0.162338	0.666741
Br187	Br	-0.223413	-0.772369	0.819886
Br188	Br	0.109920	-0.439036	1.153219
Br189	Br	0.443254	-0.105702	1.486552
H190	H	0.287618	-1.021038	0.000121
H191	H	0.620951	-0.687705	0.333454
H192	H	0.954284	-0.354372	0.666787
Br193	Br	0.019537	-1.015409	0.180324
Br194	Br	0.352870	-0.682076	0.513657
Br195	Br	0.686204	-0.348742	0.846990
Br196	Br	0.525250	-1.054754	0.000118
Br197	Br	0.858584	-0.721421	0.333452
Br198	Br	1.191917	-0.388088	0.666785
H199	H	0.254420	-0.770792	0.000073
H200	H	0.587753	-0.437459	0.333407
H201	H	0.921087	-0.104126	0.666740
H202	H	0.025228	-0.283434	0.000127
H203	H	0.358561	0.049899	0.333461
H204	H	0.691894	0.383233	0.666794
H205	H	0.111198	-0.773078	0.000081
H206	H	0.444531	-0.439745	0.333415
H207	H	0.777864	-0.106411	0.666748
H208	H	-0.195428	-0.800341	0.639382
H209	H	0.137905	-0.467008	0.972715
H210	H	0.471239	-0.133674	1.306049
H211	H	-0.195413	-0.800323	0.360816
H212	H	0.137921	-0.466989	0.694150
H213	H	0.471254	-0.133656	1.027483
H214	H	-0.008438	-0.987419	0.360821
H215	H	0.324895	-0.654086	0.694154
H216	H	0.658229	-0.320753	1.027487
Br217	Br	0.019522	-1.015435	0.615892
Br218	Br	0.352856	-0.682101	0.949226
Br219	Br	0.686189	-0.348768	1.282559
Br220	Br	-0.223383	-0.772310	0.180305
Br221	Br	0.109951	-0.438977	0.513638
Br222	Br	0.443284	-0.105644	0.846972
H223	H	0.027517	-0.140225	0.000128
H224	H	0.360850	0.193108	0.333462
H225	H	0.694184	0.526442	0.666795
H226	H	-0.225025	-0.250232	0.000089
H227	H	0.108308	0.083101	0.333422
H228	H	0.441641	0.416434	0.666755
H229	H	-0.231384	-0.647537	0.000060
H230	H	0.101949	-0.314204	0.333394
H231	H	0.435283	0.019130	0.666727
Br232	Br	-0.259837	-0.080619	0.000090
Br233	Br	0.073497	0.252714	0.333424
Br234	Br	0.406830	0.586047	0.666757
H235	H	0.018868	-0.680748	0.000095
H236	H	0.352201	-0.347415	0.333428
H237	H	0.685535	-0.014082	0.666761
Br238	Br	0.058941	-0.521071	0.000118
Br239	Br	0.392274	-0.187738	0.333451
Br240	Br	0.725607	0.145596	0.666784
