data_functionalizedCrystal
_audit_creation_method	'MofGen! by Chris Wilmer'
_symmetry_space_group_name_H-M	'P1'
_symmetry_Int_Tables_number	1
_symmetry_cell_setting	triclinic
loop_
_symmetry_equiv_pos_as_xyz
  x,y,z
_cell_length_a	18.050591
_cell_length_b	21.295417
_cell_length_c	18.050582
_cell_angle_alpha	90.026755
_cell_angle_beta	90.020922
_cell_angle_gamma	90.026512
loop_
_atom_site_label
_atom_site_type_symbol
_atom_site_fract_x
_atom_site_fract_y
_atom_site_fract_z
Zn1	Zn	1.135281	-0.250716	0.420010
Zn2	Zn	1.135186	-0.355977	0.295811
Zn3	Zn	1.011100	-0.250719	0.295821
Zn4	Zn	1.011043	-0.355944	0.419946
O5	O	1.073153	-0.303339	0.357897
O6	O	1.239193	-0.264692	0.403557
O7	O	1.118710	-0.342030	0.191887
O8	O	1.027636	-0.162629	0.312326
O9	O	1.239124	-0.342027	0.312308
O10	O	1.118871	-0.162627	0.403567
O11	O	1.027545	-0.264697	0.191895
O12	O	0.907168	-0.264664	0.312264
O13	O	1.027539	-0.341971	0.523879
O14	O	0.907126	-0.341973	0.403458
O15	O	1.118816	-0.264660	0.523926
O16	O	1.118655	-0.444062	0.312247
O17	O	1.027448	-0.444038	0.403449
C18	C	0.880200	-0.303316	0.357856
C19	C	0.797655	-0.303321	0.357856
C20	C	1.073055	-0.466891	0.357856
C21	C	1.073081	-0.536859	0.357863
C22	C	0.598205	-0.261232	0.308379
C23	C	0.548783	-0.318646	0.290098
C24	C	0.646524	-0.303340	0.357889
C25	C	0.548865	-0.245945	0.376169
C26	C	0.500539	-0.303353	0.357920
C27	C	0.598189	-0.360785	0.339573
C28	C	0.598276	-0.288045	0.425676
C29	C	0.548875	-0.345499	0.407420
C30	C	0.730623	-0.303331	0.357870
C31	C	0.416443	-0.303368	0.357940
C32	C	1.120615	-0.569717	0.310423
C33	C	1.120650	-0.635460	0.310440
C34	C	1.073138	-0.668341	0.357889
C35	C	1.025600	-0.635475	0.405338
C36	C	1.025572	-0.569734	0.405325
N37	N	1.008171	-0.771604	0.363536
N38	N	1.008200	-0.834055	0.363544
C39	C	1.073221	-0.866416	0.357931
N40	N	1.138214	-0.833966	0.352296
N41	N	1.138184	-0.771509	0.352284
C42	C	1.073163	-0.739627	0.357908
C43	C	1.120797	-0.970560	0.310507
C44	C	1.120833	-1.036304	0.310529
C45	C	1.025776	-1.036318	0.405423
C46	C	1.025747	-0.970575	0.405405
C47	C	1.073256	-0.937700	0.357943
C48	C	1.266858	-0.303363	0.357939
C49	C	1.349404	-0.303373	0.357956
C50	C	1.073182	-0.303311	0.551603
C51	C	1.073194	-0.303299	0.634148
C52	C	1.073270	-0.139149	0.357954
C53	C	1.073321	-0.069181	0.357979
C54	C	1.073166	-0.303322	0.164945
C55	C	1.073298	-0.303156	0.082399
C56	C	1.023596	-0.345283	0.833574
C57	C	1.091350	-0.360675	0.882971
C58	C	1.073231	-0.303251	0.785279
C59	C	1.005513	-0.287842	0.882964
C60	C	1.073260	-0.303206	0.931264
C61	C	1.141021	-0.318673	0.833589
C62	C	1.055138	-0.245814	0.833577
C63	C	1.122940	-0.261183	0.882952
C64	C	1.073213	-0.303279	0.701181
C65	C	1.073286	-0.303178	1.015361
H66	H	0.619865	-0.225660	0.266464
C67	C	0.519409	-0.336136	0.212679
H68	H	0.536294	-0.306172	0.177545
H69	H	0.537022	-0.376624	0.199362
H70	H	0.466784	-0.336386	0.213364
C71	C	1.112046	-0.426264	0.912289
H72	H	1.076721	-0.456097	0.895387
H73	H	1.159820	-0.437485	0.894657
H74	H	1.112345	-0.425675	0.964914
C75	C	0.519790	-0.393664	0.463997
H76	H	0.536770	-0.434403	0.450902
H77	H	0.537485	-0.383143	0.511994
H78	H	0.467164	-0.393170	0.463986
H79	H	0.619765	-0.409343	0.324062
H80	H	1.164975	-0.225619	0.904496
H81	H	0.620032	-0.275080	0.482970
H82	H	1.159545	-1.063056	0.271899
H83	H	0.527159	-0.197408	0.391591
H84	H	1.159302	-0.542953	0.271778
C85	C	0.973517	-1.072479	0.457620
H86	H	0.980339	-1.116339	0.450832
H87	H	0.984349	-1.061668	0.507526
H88	H	0.923617	-1.061748	0.446695
C89	C	1.034420	-0.180241	0.804237
H90	H	1.074060	-0.164147	0.775296
H91	H	0.991115	-0.183247	0.774526
H92	H	1.025310	-0.152871	0.844795
H93	H	1.159361	-0.662218	0.271808
C94	C	0.973337	-0.671642	0.457529
H95	H	0.980156	-0.715501	0.450737
H96	H	0.984167	-0.660835	0.507437
H97	H	0.923439	-0.660907	0.446602
C98	C	0.973279	-0.533588	0.457507
H99	H	0.944983	-0.562584	0.485768
H100	H	1.001653	-0.507902	0.489887
H101	H	0.940924	-0.507984	0.429054
C102	C	1.173061	-0.934395	0.258310
H103	H	1.201385	-0.963383	0.230066
H104	H	1.144665	-0.908788	0.225915
H105	H	1.205390	-0.908711	0.286753
C106	C	0.973449	-0.934429	0.457580
H107	H	0.945152	-0.963426	0.485838
H108	H	1.001822	-0.908744	0.489963
H109	H	0.941097	-0.908824	0.429125
C110	C	0.966947	-0.393361	0.804279
H111	H	0.979936	-0.434136	0.821193
H112	H	0.918954	-0.382830	0.821910
H113	H	0.967016	-0.392783	0.751654
H114	H	1.198317	-0.331742	0.811991
H115	H	0.948233	-0.274828	0.904653
