data_functionalizedCrystal
_audit_creation_method	'MofGen! by Chris Wilmer'
_symmetry_space_group_name_H-M	'P1'
_symmetry_Int_Tables_number	1
_symmetry_cell_setting	triclinic
loop_
_symmetry_equiv_pos_as_xyz
  x,y,z
_cell_length_a	15.995300
_cell_length_b	15.995292
_cell_length_c	15.072220
_cell_angle_alpha	90.002061
_cell_angle_beta	89.985917
_cell_angle_gamma	83.470212
loop_
_atom_site_label
_atom_site_type_symbol
_atom_site_fract_x
_atom_site_fract_y
_atom_site_fract_z
O1	O	1.111000	0.107723	-0.073809
O2	O	0.867216	0.121095	-0.073803
O3	O	0.995797	-0.007483	-0.073807
O4	O	0.982418	0.236301	-0.073804
O5	O	0.995765	-0.007476	0.073758
O6	O	0.867184	0.121102	0.073763
O7	O	1.110968	0.107730	0.073756
Zn8	Zn	0.989071	0.114418	0.097189
Zn9	Zn	0.989113	0.114408	-0.097235
O10	O	0.982387	0.236309	0.073761
C11	C	0.836005	0.120553	-0.000019
C12	C	0.743052	0.118918	-0.000017
C13	C	0.572870	0.115899	-0.000024
C14	C	0.525385	0.207449	-0.000021
C15	C	0.428698	0.205779	-0.000358
C16	C	0.405314	0.112927	-0.000030
C17	C	0.446474	0.067501	-0.084131
C18	C	0.543107	0.069818	-0.084199
C19	C	0.543350	0.068471	0.083616
C20	C	0.446406	0.068479	0.084719
C21	C	0.310619	0.111242	-0.000036
C22	C	0.667565	0.117580	-0.000024
C23	C	0.995237	-0.038675	-0.000027
C24	C	0.993604	-0.131627	-0.000033
C25	C	0.987603	-0.469365	-0.000025
C26	C	1.080409	-0.446069	0.000302
C27	C	1.082173	-0.349394	-0.000034
C28	C	0.990581	-0.301809	-0.000029
C29	C	0.944200	-0.330906	-0.084292
C30	C	0.943083	-0.427697	-0.084359
C31	C	0.941152	-0.427545	0.083450
C32	C	0.944591	-0.331053	0.084561
C33	C	0.992259	-0.207114	-0.000034
C34	C	0.985922	-0.564060	-0.000026
C35	C	1.142179	0.108272	-0.000029
C36	C	1.235131	0.109907	-0.000037
C37	C	0.982947	0.267500	-0.000021
C38	C	0.984579	0.360453	-0.000020
N39	N	0.989048	0.114423	0.229877
N40	N	0.989142	0.114396	-0.229924
C41	C	0.989111	0.114405	0.589079
C42	C	0.920079	0.182974	0.551474
C43	C	0.920237	0.183224	0.448649
C44	C	0.989079	0.114414	0.410875
C45	C	1.076442	0.133481	0.448164
C46	C	1.076055	0.133968	0.551022
C47	C	0.971560	0.026566	0.551179
C48	C	0.969555	0.027152	0.448315
C49	C	0.989067	0.114418	0.310162
C50	C	0.989129	0.114403	0.689792
H51	H	0.575145	0.000972	0.084424
C52	C	0.935391	0.271274	0.415387
H53	H	0.935537	0.271729	0.352357
H54	H	0.988129	0.284728	0.436686
H55	H	0.891849	0.311686	0.436588
H56	H	0.875037	-0.442235	-0.088173
H57	H	0.931130	0.247791	0.577313
C58	C	0.887355	0.001803	0.586255
H59	H	0.877968	-0.051383	0.562590
H60	H	0.842919	0.042945	0.568651
H61	H	0.889235	-0.001437	0.649171
C62	C	1.128728	-0.483898	0.081928
H63	H	1.184587	-0.469111	0.080886
H64	H	1.130140	-0.543421	0.080810
H65	H	1.101270	-0.462489	0.134453
H66	H	0.876801	-0.299027	-0.087421
C67	C	0.987670	-0.303718	-0.169012
H68	H	1.034085	-0.274657	-0.153212
H69	H	0.948710	-0.267647	-0.203019
H70	H	1.007027	-0.352055	-0.203063
H71	H	1.118499	-0.330373	0.060368
C72	C	0.986515	-0.463945	-0.169448
H73	H	0.986213	-0.523299	-0.170241
H74	H	1.042951	-0.450829	-0.170763
H75	H	0.957162	-0.440073	-0.219839
H76	H	1.091525	0.198027	0.575004
C77	C	0.390213	0.253999	0.081061
H78	H	0.433666	0.274792	0.114640
H79	H	0.361920	0.217212	0.116843
H80	H	0.351322	0.299762	0.061926
C81	C	0.425679	-0.022962	0.091937
H82	H	0.391549	-0.035287	0.043136
H83	H	0.396298	-0.029856	0.145746
H84	H	0.476401	-0.060158	0.091367
C85	C	1.033062	-0.045013	0.413587
H86	H	1.019747	-0.096934	0.437258
H87	H	1.088243	-0.035838	0.431412
H88	H	1.030365	-0.046797	0.350661
H89	H	0.970365	-0.455636	0.147321
C90	C	0.882742	0.007594	0.415395
H91	H	0.871292	-0.045268	0.438269
H92	H	0.882652	0.005715	0.352401
H93	H	0.840721	0.050268	0.435217
C94	C	1.039558	-0.042369	0.584034
H95	H	1.078461	-0.017785	0.620671
H96	H	1.068347	-0.068814	0.534567
H97	H	1.013815	-0.083026	0.617154
C98	C	0.571005	0.109196	0.169757
H99	H	0.600816	0.155511	0.155515
H100	H	0.606479	0.068910	0.202809
H101	H	0.522773	0.128315	0.204081
H102	H	1.115996	-0.475096	-0.059789
C103	C	0.567870	0.114058	-0.169430
H104	H	0.627027	0.115863	-0.170222
H105	H	0.540035	0.169760	-0.170924
H106	H	0.551831	0.083835	-0.219728
H107	H	1.118739	-0.330999	-0.060544
C108	C	0.990203	-0.305971	0.168775
H109	H	1.037077	-0.277789	0.152462
H110	H	1.009121	-0.355038	0.201864
H111	H	0.952551	-0.269589	0.203947
H112	H	0.877736	-0.298072	0.089653
H113	H	0.575395	0.002592	-0.087794
C114	C	0.409445	0.113280	0.168777
H115	H	0.434554	0.086104	0.219819
H116	H	0.350374	0.111028	0.170333
H117	H	0.420619	0.170351	0.168041
H118	H	0.872839	-0.441523	0.084021
C119	C	0.550321	0.257160	0.081443
H120	H	0.520975	0.312230	0.080208
H121	H	0.609197	0.260675	0.080331
H122	H	0.536157	0.229244	0.134057
C123	C	0.832508	0.167898	0.414588
H124	H	0.796450	0.161465	0.463614
H125	H	0.837112	0.118283	0.379450
H126	H	0.809829	0.214506	0.379700
C127	C	1.147533	0.069075	0.584633
H128	H	1.147778	0.068930	0.647665
H129	H	1.199943	0.083529	0.563424
H130	H	1.138965	0.014727	0.563555
H131	H	0.854930	0.171803	0.576237
H132	H	1.129038	0.084866	0.423693
H133	H	0.432389	-0.000724	-0.087023
C134	C	1.097848	0.219031	0.413361
H135	H	1.150834	0.230005	0.436294
H136	H	1.055688	0.262127	0.431921
H137	H	1.100239	0.217734	0.350390
C138	C	0.551868	0.256407	-0.081374
H139	H	0.591736	0.221296	-0.115343
H140	H	0.576372	0.304677	-0.062171
H141	H	0.503830	0.273438	-0.116810
H142	H	0.400855	0.241312	-0.060996
H143	H	0.418096	0.098638	-0.146954
