data_functionalizedCrystal
_audit_creation_method	'MofGen! by Chris Wilmer'
_symmetry_space_group_name_H-M	'P1'
_symmetry_Int_Tables_number	1
_symmetry_cell_setting	triclinic
loop_
_symmetry_equiv_pos_as_xyz
  x,y,z
_cell_length_a	13.339070
_cell_length_b	13.930277
_cell_length_c	13.339070
_cell_angle_alpha	90.001010
_cell_angle_beta	115.629294
_cell_angle_gamma	90.007456
loop_
_atom_site_label
_atom_site_type_symbol
_atom_site_fract_x
_atom_site_fract_y
_atom_site_fract_z
O1	O	1.496811	0.079856	0.550527
O2	O	1.182002	0.079852	0.478267
O3	O	1.303277	0.079850	0.356992
O4	O	1.375537	0.079857	0.671802
O5	O	1.303252	-0.079811	0.356982
O6	O	1.181977	-0.079810	0.478257
O7	O	1.496787	-0.079806	0.550517
Zn8	Zn	1.339378	-0.105158	0.514385
Zn9	Zn	1.339410	0.105204	0.514399
O10	O	1.375512	-0.079805	0.671791
C11	C	1.140874	0.000020	0.466056
C12	C	1.018360	0.000018	0.429672
N13	N	1.339364	-0.248724	0.514378
C14	C	0.732973	0.000040	0.712571
C15	C	0.848081	0.000044	0.746759
C16	C	0.890657	0.000037	0.667490
C17	C	0.818112	0.000027	0.554028
C18	C	0.702992	0.000030	0.519837
C19	C	0.860676	0.000027	0.474756
C20	C	0.788132	0.000017	0.361294
C21	C	0.673023	0.000019	0.327109
C22	C	0.630448	0.000026	0.406377
C23	C	0.975796	0.000025	0.508947
C24	C	0.945816	0.000015	0.316213
C25	C	0.830707	0.000010	0.282025
C26	C	1.285699	-0.700993	0.568069
C27	C	1.393150	-0.700963	0.460728
C28	C	1.393136	-0.600467	0.460721
C29	C	1.339404	-0.550230	0.514390
C30	C	1.285686	-0.600488	0.568066
C31	C	1.446862	-0.550202	0.407055
C32	C	1.446851	-0.449700	0.407047
C33	C	1.393112	-0.399460	0.460710
C34	C	1.339391	-0.449725	0.514387
C35	C	1.285659	-0.399487	0.568056
C36	C	1.231931	-0.449749	0.621728
C37	C	1.231947	-0.550248	0.621729
C38	C	1.393096	-0.298962	0.460709
C39	C	1.285646	-0.298982	0.568054
C40	C	1.537914	0.000028	0.562728
C41	C	1.660428	0.000036	0.599111
C42	C	1.291058	0.000021	0.315872
C43	C	1.254675	0.000024	0.193358
N44	N	1.339431	0.248770	0.514400
C45	C	1.537574	0.000027	-0.092030
C46	C	1.571761	0.000019	0.023079
C47	C	1.492492	0.000021	0.065654
C48	C	1.379030	0.000030	-0.006890
C49	C	1.344839	0.000031	-0.122010
C50	C	1.299758	0.000024	0.035674
C51	C	1.186296	0.000034	-0.036871
C52	C	1.152111	0.000035	-0.151979
C53	C	1.231380	0.000034	-0.194555
C54	C	1.333949	0.000023	0.150794
C55	C	1.141215	0.000027	0.120813
C56	C	1.107028	0.000035	0.005705
C57	C	1.387730	0.000027	0.712912
C58	C	1.424114	0.000030	0.835426
H59	H	0.984385	0.000043	0.695333
H60	H	0.907140	0.000060	0.839139
O61	O	1.179727	-0.401093	0.673957
C62	C	1.132281	-0.466997	0.721304
H63	H	1.177653	-0.538633	0.735209
H64	H	1.140136	-0.437955	0.804289
H65	H	1.040688	-0.477695	0.662702
O66	O	1.198029	-0.000083	-0.306396
C67	C	1.133755	-0.082782	-0.353093
H68	H	1.097186	-0.110361	-0.295512
H69	H	1.063510	-0.064176	-0.437467
H70	H	1.188593	-0.140680	-0.364060
H71	H	0.771625	0.000009	0.189642
O72	O	1.041883	0.000207	-0.222403
C73	C	0.991624	0.082886	-0.203363
H74	H	1.057418	0.140681	-0.162945
H75	H	0.925433	0.110642	-0.285862
H76	H	0.951381	0.064191	-0.145891
H77	H	1.426331	0.000015	0.209849
H78	H	1.076667	0.000023	0.155477
O79	O	0.518607	0.000153	0.373034
C80	C	0.471942	0.082856	0.308786
H81	H	0.529528	0.110424	0.272215
H82	H	0.387556	0.064258	0.238543
H83	H	0.461008	0.140759	0.363644
H84	H	1.241886	-0.258084	0.611753
O85	O	1.445517	-0.749711	0.408737
C86	C	1.559236	-0.725109	0.457127
H87	H	1.584458	-0.697482	0.545203
H88	H	1.610814	-0.791188	0.459983
H89	H	1.574392	-0.666764	0.405328
H90	H	1.188204	-0.591178	0.665428
H91	H	0.698296	0.000053	0.777099
H92	H	1.241950	-0.741919	0.611764
O93	O	1.498866	-0.599052	0.354774
C94	C	1.421035	-0.657214	0.270509
H95	H	1.333906	-0.626931	0.244297
H96	H	1.441347	-0.658364	0.195825
H97	H	1.424917	-0.733376	0.303265
O98	O	0.602666	0.000143	0.216861
C99	C	0.621676	0.082841	0.166601
H100	H	0.709523	0.110409	0.218827
H101	H	0.611902	0.064239	0.079614
H102	H	0.558977	0.140747	0.160718
O103	O	0.996801	0.000210	-0.064726
C104	C	0.946540	0.082888	-0.045690
H105	H	1.012335	0.140681	-0.005262
H106	H	0.880358	0.110649	-0.128191
H107	H	0.906286	0.064193	0.011773
O108	O	0.987029	-0.000121	0.239098
C109	C	0.949790	-0.082824	0.172130
H110	H	0.870464	-0.110389	0.174702
H111	H	0.932148	-0.064228	0.082807
H112	H	1.016642	-0.140729	0.204729
H113	H	1.490598	-0.408783	0.363344
O114	O	1.445137	-0.250020	0.408519
C115	C	1.367319	-0.191909	0.324208
H116	H	1.293628	-0.176883	0.343743
H117	H	1.408286	-0.121223	0.319765
H118	H	1.337117	-0.230630	0.240943
O119	O	1.046300	0.000203	0.619143
C120	C	1.113817	0.082881	0.644686
H121	H	1.070637	0.140672	0.579696
H122	H	1.128375	0.110645	0.730300
H123	H	1.197034	0.064183	0.644717
H124	H	1.520335	0.000013	0.159382
O125	O	1.682013	0.000052	0.093388
C126	C	1.744647	0.000026	0.031130
H127	H	1.692035	0.030261	-0.055315
H128	H	1.821936	0.046373	0.074881
H129	H	1.770619	-0.076573	0.023482
O130	O	1.614419	0.000063	-0.133573
C131	C	1.559908	0.000035	-0.250730
H132	H	1.472430	0.030269	-0.279325
H133	H	1.608465	0.046382	-0.284911
H134	H	1.554752	-0.076564	-0.282691
