data_functionalizedCrystal
_audit_creation_method	'MofGen! by Chris Wilmer'
_symmetry_space_group_name_H-M	'P1'
_symmetry_Int_Tables_number	1
_symmetry_cell_setting	triclinic
loop_
_symmetry_equiv_pos_as_xyz
  x,y,z
_cell_length_a	15.995292
_cell_length_b	10.654541
_cell_length_c	9.730217
_cell_angle_alpha	89.996959
_cell_angle_beta	89.997417
_cell_angle_gamma	83.976272
loop_
_atom_site_label
_atom_site_type_symbol
_atom_site_fract_x
_atom_site_fract_y
_atom_site_fract_z
O1	O	1.111949	0.161523	-0.114327
O2	O	0.868284	0.181589	-0.114321
O3	O	0.995720	-0.011259	-0.114316
O4	O	0.984513	0.354370	-0.114332
O5	O	0.995716	-0.011260	0.114264
O6	O	0.868280	0.181587	0.114259
O7	O	1.111945	0.161521	0.114254
Zn8	Zn	0.990112	0.171554	0.150548
Zn9	Zn	0.990117	0.171556	-0.150616
O10	O	0.984509	0.354369	0.114248
C11	C	0.994896	-0.058046	-0.000026
C12	C	0.992435	-0.197457	-0.000029
C13	C	0.837082	0.180771	-0.000030
C14	C	0.744114	0.178323	-0.000028
C15	C	1.144819	-0.227466	-0.000015
C16	C	1.219852	-0.307964	-0.000005
C17	C	1.217535	-0.438951	-0.000009
C18	C	1.140177	-0.489442	-0.000027
C19	C	1.065144	-0.408944	-0.000037
C20	C	1.067470	-0.277955	-0.000029
C21	C	0.912761	-0.378935	-0.000061
C22	C	0.915077	-0.247947	-0.000047
C23	C	0.835403	-0.429425	-0.000079
C24	C	0.760369	-0.348927	-0.000079
C25	C	0.762689	-0.217933	-0.000073
C26	C	0.840044	-0.167450	-0.000057
C27	C	0.406324	0.169322	-0.000043
C28	C	0.430444	0.308514	-0.000560
C29	C	0.527134	0.311159	-0.000039
C30	C	0.573906	0.173788	-0.000036
C31	C	0.544398	0.104198	0.130492
C32	C	0.447597	0.102522	0.130596
C33	C	0.447730	0.099682	-0.129342
C34	C	0.544253	0.104840	-0.131062
C35	C	0.668616	0.176305	-0.000028
C36	C	0.311613	0.166801	-0.000042
C37	C	1.143148	0.162339	-0.000040
C38	C	1.236115	0.164787	-0.000052
C39	C	0.985334	0.401157	-0.000044
C40	C	0.987794	0.540567	-0.000051
N41	N	0.990115	0.171552	0.356085
N42	N	0.990121	0.171549	-0.356152
C43	C	1.103006	0.000834	0.356080
C44	C	1.159457	-0.084520	0.428018
C45	C	1.159466	-0.084521	0.571898
C46	C	1.103015	0.000840	0.643843
C47	C	1.046564	0.086194	0.571906
C48	C	1.046563	0.086189	0.428022
C49	C	0.933670	0.256904	0.571910
C50	C	0.933664	0.256912	0.428030
C51	C	0.877220	0.342264	0.643855
C52	C	0.820771	0.427627	0.571918
C53	C	0.820765	0.427626	0.428029
C54	C	0.877213	0.342267	0.356093
H55	H	1.146714	-0.120811	0.000007
C56	C	1.137633	-0.633532	-0.000037
N57	N	1.135715	-0.742062	-0.000040
C58	C	0.411740	0.167654	0.262396
N59	N	0.384736	0.216723	0.361666
C60	C	0.758676	0.521504	0.651066
N61	N	0.711904	0.592213	0.710687
C62	C	0.758677	0.521545	0.348909
N63	N	0.711916	0.592297	0.289321
C64	C	1.103007	0.000835	0.197809
N65	N	1.103009	0.000833	0.078596
C66	C	1.103012	0.000811	0.802115
N67	N	1.103007	0.000785	0.921327
H68	H	0.402760	0.362165	-0.094169
C69	C	0.877220	0.342245	0.802127
N70	N	0.877218	0.342230	0.921339
C71	C	1.221536	-0.178433	0.348868
N72	N	1.268289	-0.249175	0.289255
C73	C	0.675284	-0.404476	-0.000092
N74	N	0.611197	-0.446321	-0.000094
H75	H	0.877216	0.342263	0.238938
C76	C	1.300074	-0.527502	0.000003
N77	N	1.362243	-0.594197	0.000014
C78	C	1.304943	-0.252415	0.000026
N79	N	1.369032	-0.210578	0.000052
H80	H	0.841941	-0.060795	-0.000043
C81	C	0.832857	-0.573515	-0.000074
N82	N	0.830937	-0.682045	-0.000061
H83	H	0.701588	-0.152397	-0.000087
C84	C	0.552429	0.385210	0.126591
N85	N	0.571481	0.440983	0.221979
C86	C	0.571862	0.169490	0.261724
N87	N	0.592545	0.218678	0.360564
C88	C	0.427138	-0.035348	0.138615
N89	N	0.411732	-0.139190	0.144663
C90	C	0.428021	-0.038728	-0.130535
N91	N	0.413170	-0.142974	-0.131425
H92	H	0.546479	0.365653	-0.093611
C93	C	0.391662	0.380592	0.125189
N94	N	0.362452	0.434878	0.219905
C95	C	0.586686	-0.032350	0.137089
N96	N	0.618549	-0.135191	0.142066
C97	C	0.409909	0.158600	-0.263001
N98	N	0.381423	0.202995	-0.363667
C99	C	0.569746	0.173282	-0.261519
N100	N	0.588955	0.224833	-0.359778
C101	C	1.221564	-0.178416	0.651031
N102	N	1.268337	-0.249136	0.710634
C103	C	0.587999	-0.030625	-0.141703
N104	N	0.620946	-0.132664	-0.149704
