data_functionalizedCrystal
_audit_creation_method	'MofGen! by Chris Wilmer'
_symmetry_space_group_name_H-M	'P1'
_symmetry_Int_Tables_number	1
_symmetry_cell_setting	triclinic
loop_
_symmetry_equiv_pos_as_xyz
  x,y,z
_cell_length_a	14.586319
_cell_length_b	19.288864
_cell_length_c	19.288865
_cell_angle_alpha	83.136245
_cell_angle_beta	89.990984
_cell_angle_gamma	89.982652
loop_
_atom_site_label
_atom_site_type_symbol
_atom_site_fract_x
_atom_site_fract_y
_atom_site_fract_z
O1	O	0.076545	-0.921347	-0.086647
O2	O	0.576545	-0.421347	0.413353
O3	O	0.076483	-0.719087	-0.098336
O4	O	0.576483	-0.219087	0.401664
O5	O	0.076498	-0.826061	0.008639
O6	O	0.576498	-0.326061	0.508639
O7	O	0.076531	-0.814373	-0.193621
O8	O	0.576531	-0.314373	0.306379
O9	O	-0.075983	-0.826054	0.008641
O10	O	0.424017	-0.326054	0.508641
O11	O	-0.075997	-0.719079	-0.098334
O12	O	0.424003	-0.219079	0.401666
O13	O	-0.075936	-0.921340	-0.086645
O14	O	0.424064	-0.421340	0.413355
Cu15	Cu	-0.089889	-0.820209	-0.092489
Cu16	Cu	0.410111	-0.320209	0.407511
Cu17	Cu	0.090437	-0.820218	-0.092491
Cu18	Cu	0.590437	-0.320218	0.407509
O19	O	-0.075950	-0.814365	-0.193620
O20	O	0.424050	-0.314365	0.306380
C21	C	0.000235	-0.693207	-0.097959
C22	C	0.500235	-0.193207	0.402041
C23	C	0.000211	-0.616103	-0.096830
C24	C	0.500211	-0.116103	0.403170
N25	N	-0.216721	-0.820208	-0.092488
N26	N	0.283279	-0.320208	0.407512
C27	C	0.000255	-0.825682	0.034516
C28	C	0.500255	-0.325682	0.534516
C29	C	0.000246	-0.824553	0.111620
C30	C	0.500246	-0.324553	0.611620
C31	C	-0.451721	-0.867592	-0.045135
C32	C	0.048279	-0.367592	0.454865
C33	C	-0.547702	-0.867594	-0.045133
C34	C	-0.047702	-0.367594	0.454867
C35	C	-0.547725	-0.772835	-0.139842
C36	C	-0.047725	-0.272835	0.360158
C37	C	-0.451745	-0.772831	-0.139840
C38	C	0.048255	-0.272831	0.360160
C39	C	-0.403746	-0.820213	-0.092487
C40	C	0.096254	-0.320213	0.407513
C41	C	-0.595707	-0.820220	-0.092488
C42	C	-0.095707	-0.320220	0.407512
C43	C	-0.699774	-0.820221	-0.092486
C44	C	-0.199774	-0.320221	0.407514
C45	C	-0.299672	-0.820210	-0.092488
C46	C	0.200328	-0.320210	0.407512
N47	N	0.217269	-0.820224	-0.092488
N48	N	0.717269	-0.320224	0.407512
C49	C	0.000315	-0.947220	-0.087022
C50	C	0.500315	-0.447220	0.412978
C51	C	0.000345	-1.024324	-0.088151
C52	C	0.500345	-0.524324	0.411849
C53	C	0.000235	-0.571407	-0.159598
C54	C	0.500235	-0.071407	0.340402
C55	C	0.000245	-0.498960	-0.158537
C56	C	0.500245	0.001040	0.341463
C57	C	0.000249	-0.471212	-0.094705
C58	C	0.500249	0.028788	0.405295
C59	C	0.000219	-0.515918	-0.031929
C60	C	0.500219	-0.015918	0.468071
C61	C	0.000200	-0.588364	-0.032991
C62	C	0.500200	-0.088364	0.467009
C63	C	0.053693	-0.362953	-0.044526
C64	C	0.553693	0.137047	0.455474
C65	C	0.053717	-0.290508	-0.043466
C66	C	0.553717	0.209492	0.456534
C67	C	0.000304	-0.247767	-0.091425
C68	C	0.500304	0.252233	0.408575
C69	C	-0.053122	-0.277477	-0.140456
C70	C	0.446878	0.222523	0.359544
C71	C	-0.053141	-0.349922	-0.141518
C72	C	0.446859	0.150078	0.358482
C73	C	0.000269	-0.392658	-0.093546
C74	C	0.500269	0.107342	0.406454
C75	C	0.000338	-0.124514	-0.153047
C76	C	0.500338	0.375486	0.346953
C77	C	0.000342	-0.052066	-0.151984
C78	C	0.500342	0.447934	0.348016
C79	C	0.000326	-0.069026	-0.025374
C80	C	0.500326	0.430974	0.474626
C81	C	0.000312	-0.141473	-0.026439
C82	C	0.500312	0.358527	0.473561
C83	C	0.000323	-0.169212	-0.090278
C84	C	0.500323	0.330788	0.409722
C85	C	0.000295	-0.814745	-0.219497
C86	C	0.500295	-0.314745	0.280503
C87	C	0.000309	-0.815874	-0.296601
C88	C	0.500309	-0.315874	0.203399
C89	C	0.000261	-0.887321	0.156316
C90	C	0.500261	-0.387321	0.656316
C91	C	0.000275	-0.886260	0.228763
C92	C	0.500275	-0.386260	0.728763
C93	C	0.000256	-0.822428	0.256511
C94	C	0.500256	-0.322428	0.756511
C95	C	0.000247	-0.759652	0.211805
C96	C	0.500247	-0.259652	0.711805
C97	C	0.000242	-0.760714	0.139359
C98	C	0.500242	-0.260714	0.639359
C99	C	-0.053170	-0.772246	0.364799
C100	C	0.446830	-0.272246	0.864799
C101	C	-0.053171	-0.771186	0.437243
C102	C	0.446829	-0.271186	0.937243
C103	C	0.000276	-0.819148	0.479956
C104	C	0.500276	-0.319148	0.979956
C105	C	0.053711	-0.868182	0.450218
C106	C	0.553711	-0.368182	0.950218
C107	C	0.053706	-0.869245	0.377772
C108	C	0.553706	-0.369245	0.877772
C109	C	0.000262	-0.821269	0.335065
C110	C	0.500262	-0.321269	0.835065
C111	C	0.000307	-0.880770	0.603209
C112	C	0.500307	-0.380770	1.103209
C113	C	0.000327	-0.879707	0.675657
C114	C	0.500327	-0.379707	1.175657
C115	C	0.000289	-0.753097	0.658697
C116	C	0.500289	-0.253097	1.158697
C117	C	0.000279	-0.754162	0.586250
C118	C	0.500279	-0.254162	1.086250
C119	C	0.000283	-0.818000	0.558511
C120	C	0.500283	-0.318000	1.058511
H121	H	-0.412643	-0.906172	-0.006577
H122	H	0.087357	-0.406172	0.493423
Br123	Br	-0.612869	-0.708535	-0.204106
Br124	Br	-0.112869	-0.208535	0.295894
Br125	Br	0.126249	-0.933280	0.508177
Br126	Br	0.626249	-0.433280	1.008177
H127	H	-0.412681	-0.734245	-0.178400
H128	H	0.087319	-0.234245	0.321600
Br129	Br	0.000273	-0.438288	-0.243728
Br130	Br	0.500273	0.061712	0.256272
H131	H	0.000357	-0.015674	-0.203099
H132	H	0.500357	0.484326	0.296901
Br133	Br	-0.612810	-0.931893	0.019136
Br134	Br	-0.112810	-0.431893	0.519136
Br135	Br	-0.125694	-0.704645	0.477596
Br136	Br	0.374306	-0.204645	0.977596
H137	H	0.000246	-0.593987	-0.211580
H138	H	0.500246	-0.093987	0.288420
H139	H	0.000315	-0.932751	0.580622
H140	H	0.500315	-0.432751	1.080622
Br141	Br	-0.125647	-0.390242	-0.208054
Br142	Br	0.374353	0.109758	0.291946
Br143	Br	-0.125614	-0.219479	-0.205550
Br144	Br	0.374386	0.280521	0.294450
Br145	Br	0.000215	-0.478263	0.054702
Br146	Br	0.500215	0.021737	0.554702
Br147	Br	0.000165	-0.649027	0.052201
Br148	Br	0.500165	-0.149027	0.552201
H149	H	0.000290	-0.937375	0.265162
H150	H	0.500290	-0.437375	0.765162
H151	H	0.000333	-0.147101	-0.205028
H152	H	0.500333	0.352899	0.294972
H153	H	0.097216	-0.909168	0.353562
H154	H	0.597216	-0.409168	0.853562
Br155	Br	0.000315	-0.031377	0.061257
Br156	Br	0.500315	0.468623	0.561257
Br157	Br	0.000281	-0.202136	0.058751
Br158	Br	0.500281	0.297864	0.558751
Br159	Br	0.126236	-0.250193	0.023065
Br160	Br	0.626236	0.249807	0.523065
H161	H	0.097194	-0.397748	-0.005471
H162	H	0.597194	0.102252	0.494529
Br163	Br	0.000292	-0.973958	0.118673
Br164	Br	0.500292	-0.473958	0.618673
Br165	Br	0.000356	-0.964900	0.736319
Br166	Br	0.500356	-0.464900	1.236319
Br167	Br	0.000273	-0.666466	0.696346
Br168	Br	0.500273	-0.166466	1.196346
Br169	Br	0.000258	-0.668972	0.525587
Br170	Br	0.500258	-0.168972	1.025587
Br171	Br	-0.125711	-0.707148	0.306838
Br172	Br	0.374289	-0.207148	0.806838
Br173	Br	0.000233	-0.673021	0.249460
Br174	Br	0.500233	-0.173021	0.749460
H175	H	0.000230	-0.709599	0.102967
H176	H	0.500230	-0.209599	0.602967
