data_functionalizedCrystal
_audit_creation_method	'MofGen! by Chris Wilmer'
_symmetry_space_group_name_H-M	'P1'
_symmetry_Int_Tables_number	1
_symmetry_cell_setting	triclinic
loop_
_symmetry_equiv_pos_as_xyz
  x,y,z
_cell_length_a	13.897449
_cell_length_b	13.897448
_cell_length_c	13.897441
_cell_angle_alpha	90.028012
_cell_angle_beta	89.979267
_cell_angle_gamma	89.979152
loop_
_atom_site_label
_atom_site_type_symbol
_atom_site_fract_x
_atom_site_fract_y
_atom_site_fract_z
Zn1	Zn	1.474690	0.383951	-0.545399
Zn2	Zn	1.808023	0.717285	-0.212065
Zn3	Zn	2.141357	1.050618	0.121268
Zn4	Zn	1.474579	0.545273	-0.384107
Zn5	Zn	1.807912	0.878606	-0.050774
Zn6	Zn	2.141245	1.211940	0.282559
Zn7	Zn	1.313379	0.383997	-0.384117
Zn8	Zn	1.646713	0.717330	-0.050784
Zn9	Zn	1.980046	1.050664	0.282550
Zn10	Zn	1.313356	0.545210	-0.545360
Zn11	Zn	1.646689	0.878543	-0.212026
Zn12	Zn	1.980022	1.211876	0.121307
O13	O	1.394001	0.464608	-0.464746
O14	O	1.727334	0.797941	-0.131412
O15	O	2.060668	1.131274	0.201921
O16	O	1.609657	0.405358	-0.524015
O17	O	1.942990	0.738692	-0.190682
O18	O	2.276324	1.072025	0.142652
O19	O	1.453159	0.523925	-0.249127
O20	O	1.786492	0.857258	0.084207
O21	O	2.119825	1.190592	0.417540
O22	O	1.334834	0.249009	-0.405532
O23	O	1.668167	0.582343	-0.072198
O24	O	2.001501	0.915676	0.261135
O25	O	1.609575	0.523881	-0.405515
O26	O	1.942908	0.857214	-0.072182
O27	O	2.276242	1.190547	0.261152
O28	O	1.453348	0.248976	-0.524024
O29	O	1.786682	0.582309	-0.190691
O30	O	2.120015	0.915642	0.142642
O31	O	1.334726	0.405436	-0.249134
O32	O	1.668059	0.738770	0.084199
O33	O	2.001393	1.072103	0.417533
O34	O	1.178394	0.405375	-0.405494
O35	O	1.511728	0.738708	-0.072161
O36	O	1.845061	1.072042	0.261173
O37	O	1.334794	0.523773	-0.680347
O38	O	1.668127	0.857106	-0.347013
O39	O	2.001460	1.190439	-0.013680
O40	O	1.178377	0.523817	-0.523958
O41	O	1.511710	0.857150	-0.190625
O42	O	1.845044	1.190484	0.142708
O43	O	1.453325	0.405297	-0.680375
O44	O	1.786659	0.738630	-0.347042
O45	O	2.119992	1.071963	-0.013708
O46	O	1.453136	0.680246	-0.405477
O47	O	1.786469	1.013579	-0.072144
O48	O	2.119802	1.346913	0.261189
O49	O	1.334686	0.680200	-0.523949
O50	O	1.668019	1.013533	-0.190616
O51	O	2.001352	1.346866	0.142718
C52	C	1.143387	0.464595	-0.464724
C53	C	1.476720	0.797928	-0.131390
C54	C	1.810053	1.131261	0.201943
C55	C	1.036173	0.464613	-0.464737
C56	C	1.369506	0.797946	-0.131404
C57	C	1.702839	1.131279	0.201930
C58	C	1.393922	0.715222	-0.464729
C59	C	1.727256	1.048555	-0.131396
C60	C	2.060589	1.381889	0.201938
C61	C	1.393977	0.822436	-0.464754
C62	C	1.727310	1.155769	-0.131421
C63	C	2.060644	1.489103	0.201913
C64	C	1.394069	0.464522	-0.716339
C65	C	1.727403	0.797856	-0.383005
C66	C	2.060736	1.131189	-0.049672
C67	C	1.394098	0.464486	-0.823553
C68	C	1.727432	0.797819	-0.490219
C69	C	2.060765	1.131153	-0.156886
C70	C	0.839878	0.464616	-0.464762
C71	C	1.173211	0.797949	-0.131429
C72	C	1.506544	1.131283	0.201904
C73	C	0.949110	0.464611	-0.464746
C74	C	1.282443	0.797944	-0.131412
C75	C	1.615777	1.131278	0.201921
C76	C	1.645594	0.464621	-0.464768
C77	C	1.978927	0.797955	-0.131435
C78	C	2.312260	1.131288	0.201898
C79	C	1.752808	0.464627	-0.464778
C80	C	2.086141	0.797960	-0.131445
C81	C	2.419474	1.131294	0.201889
C82	C	1.394072	1.018731	-0.464824
C83	C	1.727405	1.352064	-0.131490
C84	C	2.060738	1.685398	0.201843
C85	C	1.394016	0.909499	-0.464788
C86	C	1.727350	1.242832	-0.131455
C87	C	2.060683	1.576165	0.201879
C88	C	1.394098	1.213015	-0.464795
C89	C	1.727431	1.546348	-0.131461
C90	C	2.060765	1.879681	0.201872
C91	C	1.394118	1.105801	-0.464845
C92	C	1.727451	1.439134	-0.131511
C93	C	2.060785	1.772467	0.201822
C94	C	1.394125	0.464421	-1.019848
C95	C	1.727458	0.797754	-0.686515
C96	C	2.060791	1.131088	-0.353181
C97	C	1.394107	0.464460	-0.910615
C98	C	1.727440	0.797793	-0.577282
C99	C	2.060774	1.131126	-0.243949
C100	C	1.393988	0.464623	-0.214131
C101	C	1.727322	0.797956	0.119202
C102	C	2.060655	1.131290	0.452535
C103	C	1.394146	0.464388	-0.106918
C104	C	1.727479	0.797721	0.226416
C105	C	2.060813	1.131054	0.559749
