data_functionalizedCrystal
_audit_creation_method	'MofGen! by Chris Wilmer'
_symmetry_space_group_name_H-M	'P1'
_symmetry_Int_Tables_number	1
_symmetry_cell_setting	triclinic
loop_
_symmetry_equiv_pos_as_xyz
  x,y,z
_cell_length_a	19.121241
_cell_length_b	17.640280
_cell_length_c	19.121605
_cell_angle_alpha	75.907989
_cell_angle_beta	94.790231
_cell_angle_gamma	99.283334
loop_
_atom_site_label
_atom_site_type_symbol
_atom_site_fract_x
_atom_site_fract_y
_atom_site_fract_z
Zn1	Zn	1.134239	0.241022	0.402355
Zn2	Zn	1.634239	0.741022	0.902355
Zn3	Zn	1.152959	0.379090	0.260933
Zn4	Zn	1.652959	0.879090	0.760933
Zn5	Zn	1.013594	0.252812	0.277646
Zn6	Zn	1.513594	0.752812	0.777646
Zn7	Zn	1.040346	0.379036	0.373542
Zn8	Zn	1.540346	0.879036	0.873542
O9	O	1.085284	0.312990	0.328619
O10	O	1.585284	0.812990	0.828619
O11	O	1.234342	0.254426	0.388659
O12	O	1.734342	0.754426	0.888659
O13	O	1.131110	0.367295	0.163832
O14	O	1.631110	0.867295	0.663832
O15	O	1.010568	0.140641	0.313242
O16	O	1.510568	0.640641	0.813242
O17	O	1.248095	0.355864	0.284757
O18	O	1.748095	0.855864	0.784757
O19	O	1.099205	0.131979	0.404865
O20	O	1.599205	0.631979	0.904865
O21	O	1.028719	0.274519	0.176111
O22	O	1.528719	0.774519	0.676111
O23	O	0.919523	0.274467	0.285303
O24	O	1.419523	0.774467	0.785303
O25	O	1.056163	0.355771	0.476682
O26	O	1.556163	0.855771	0.976682
O27	O	0.939178	0.367203	0.355757
O28	O	1.439178	0.867203	0.855757
O29	O	1.125146	0.254374	0.497851
O30	O	1.625146	0.754374	0.997851
O31	O	1.157050	0.489690	0.256818
O32	O	1.657050	0.989690	0.756818
O33	O	1.074314	0.489650	0.339551
O34	O	1.574314	0.989650	0.839551
C35	C	0.904039	0.322109	0.319218
C36	C	1.404039	0.822109	0.819218
C37	C	0.826505	0.326029	0.315209
C38	C	1.326505	0.826029	0.815209
C39	C	0.782936	0.275134	0.367478
C40	C	1.282936	0.775134	0.867478
C41	C	0.710084	0.278813	0.363706
C42	C	1.210084	0.778813	0.863706
C43	C	0.680803	0.333391	0.307668
C44	C	1.180803	0.833391	0.807668
C45	C	0.724377	0.384289	0.255394
C46	C	1.224377	0.884289	0.755394
C47	C	0.797227	0.380605	0.259164
C48	C	1.297227	0.880605	0.759164
C49	C	0.461200	0.347148	0.293575
C50	C	0.961200	0.847148	0.793575
C51	C	0.388345	0.350830	0.289811
C52	C	0.888345	0.850830	0.789811
C53	C	0.374056	0.245352	0.398122
C54	C	0.874056	0.745352	0.898122
C55	C	0.446908	0.241677	0.401889
C56	C	0.946908	0.741677	0.901889
C57	C	0.490476	0.292571	0.349613
C58	C	0.990476	0.792571	0.849613
C59	C	0.606337	0.337155	0.303813
C60	C	1.106337	0.837155	0.803813
C61	C	0.564940	0.288803	0.353466
C62	C	1.064940	0.788803	0.853466
C63	C	1.120636	0.518347	0.293261
C64	C	1.620636	1.018347	0.793261
C65	C	1.135824	0.606195	0.278161
C66	C	1.635824	1.106195	0.778161
C67	C	1.091550	0.303751	0.513738
C68	C	1.591550	0.803751	1.013738
C69	C	1.094220	0.299814	0.592625
C70	C	1.594220	0.799814	1.092625
C71	C	1.267238	0.303836	0.338057
C72	C	1.767238	0.803836	0.838057
C73	C	1.344775	0.299935	0.342079
C74	C	1.844775	0.799935	0.842079
C75	C	1.049814	0.106829	0.364132
C76	C	1.549814	0.606829	0.864132
C77	C	1.034699	0.018976	0.379265
C78	C	1.534699	0.518976	0.879265
C79	C	0.970196	0.895174	0.443601
C80	C	1.470196	1.395174	0.943601
C81	C	0.984468	0.977722	0.429390
C82	C	1.484468	1.477722	0.929390
C83	C	1.070680	0.977691	0.343335
C84	C	1.570680	1.477691	0.843335
C85	C	1.056417	0.895141	0.357541
C86	C	1.556417	1.395141	0.857541
C87	C	1.006174	0.853889	0.407674
C88	C	1.506174	1.353889	0.907674
C89	C	1.092396	0.853856	0.321614
C90	C	1.592396	1.353856	0.821614
C91	C	1.078131	0.771313	0.335816
C92	C	1.578131	1.271313	0.835816
C93	C	1.027889	0.730056	0.385946
C94	C	1.527889	1.230056	0.885946
C95	C	0.991910	0.771347	0.421876
C96	C	1.491910	1.271347	0.921876
C97	C	1.142635	0.895109	0.271477
C98	C	1.642635	1.395109	0.771477
C99	C	1.178613	0.853824	0.235550
C100	C	1.678613	1.353824	0.735550
C101	C	1.164353	0.771280	0.249756
C102	C	1.664353	1.271280	0.749756
C103	C	1.114110	0.730023	0.299885
C104	C	1.614110	1.230023	0.799885
C105	C	1.200332	0.729989	0.213825
C106	C	1.700332	1.229989	0.713825
C107	C	1.186067	0.647447	0.228028
C108	C	1.686067	1.147447	0.728028
C109	C	1.099846	0.647480	0.314088
C110	C	1.599846	1.147480	0.814088
C111	C	1.079073	0.322134	0.144232
C112	C	1.579073	0.822134	0.644232
C113	C	1.076500	0.325841	0.065390
C114	C	1.576500	0.825841	0.565390
C115	C	1.111159	0.274901	1.039348
C116	C	1.611159	0.774901	1.539348
C117	C	1.108647	0.278604	0.965224
C118	C	1.608647	0.778604	1.465224
C119	C	1.071470	0.333244	0.917145
C120	C	1.571470	0.833244	1.417145
C121	C	1.036810	0.384189	0.943192
C122	C	1.536810	0.884189	1.443192
C123	C	1.039327	0.380489	1.017314
C124	C	1.539327	0.880489	1.517314
C125	C	1.062077	0.347060	0.692794
C126	C	1.562077	0.847060	1.192794
C127	C	1.059561	0.350754	0.618668
C128	C	1.559561	0.850754	1.118668
C129	C	1.131399	0.245170	0.640705
C130	C	1.631399	0.745170	1.140705
C131	C	1.133909	0.241472	0.714828
C132	C	1.633909	0.741472	1.214828
C133	C	1.099252	0.292420	0.740868
C134	C	1.599252	0.792420	1.240868
C135	C	1.068899	0.337029	0.841379
C136	C	1.568899	0.837029	1.341379
C137	C	1.101828	0.288638	0.816632
C138	C	1.601828	0.788638	1.316632
H139	H	0.364508	0.395278	0.244177
H140	H	0.864508	0.895278	0.744177
O141	O	0.695922	0.437387	0.201044
O142	O	1.195922	0.937387	0.701044
C143	C	0.663948	0.488612	0.230397
C144	C	1.163948	0.988612	0.730397
H145	H	0.688662	0.489691	0.286567
H146	H	1.188662	0.989691	0.786567
H147	H	0.672715	0.550722	0.194130
H148	H	1.172715	1.050722	0.694130
H149	H	0.604612	0.466847	0.234230
H150	H	1.104612	0.966847	0.734230
O151	O	1.156624	0.975284	0.257688
O152	O	1.656624	1.475284	0.757688
C153	C	1.228839	0.998512	0.274717
C154	C	1.728839	1.498512	0.774717
H155	H	1.260389	0.949486	0.272899
H156	H	1.760389	1.449486	0.772899
H157	H	1.249724	1.054698	0.233856
H158	H	1.749724	1.554698	0.733856
H159	H	1.234797	1.010135	0.331163
H160	H	1.734797	1.510135	0.831163
O161	O	0.331839	0.195879	0.448973
O162	O	0.831839	0.695879	0.948973
C163	C	0.373302	0.146903	0.499230
C164	C	0.873302	0.646903	0.999230
H165	H	0.430891	0.176537	0.498751
H166	H	0.930891	0.676537	0.998751
H167	H	0.352722	0.136839	0.555509
H168	H	0.852722	0.636839	1.055509
H169	H	0.369821	0.087731	0.484071
H170	H	0.869821	0.587731	0.984071
H171	H	1.016271	0.662845	0.397503
H172	H	1.516271	1.162845	0.897503
O173	O	1.227333	0.893867	0.186752
O174	O	1.727333	1.393867	0.686752
C175	C	1.206278	0.877996	0.118688
C176	C	1.706278	1.377996	0.618688
H177	H	1.146516	0.858347	0.116062
H178	H	1.646516	1.358347	0.616062
H179	H	1.220513	0.933721	0.074596
H180	H	1.720513	1.433721	0.574596
H181	H	1.234779	0.829088	0.110365
H182	H	1.734779	1.329088	0.610365
O183	O	1.000804	0.437381	0.896499
O184	O	1.500804	0.937381	1.396499
C185	C	1.030214	0.514484	0.901845
C186	C	1.530214	1.014484	1.401845
H187	H	1.087318	0.514644	0.924428
H188	H	1.587318	1.014644	1.424428
H189	H	1.029282	0.556267	0.846060
H190	H	1.529282	1.056267	1.346060
H191	H	0.997827	0.534887	0.939366
H192	H	1.497827	1.034887	1.439366
H193	H	1.141427	0.230403	1.078490
H194	H	1.641427	0.730403	1.578490
H195	H	1.159615	0.203692	0.619495
H196	H	1.659615	0.703692	1.119495
O197	O	1.032692	0.390078	0.794760
O198	O	1.532692	0.890078	1.294760
C199	C	0.960802	0.375396	0.812227
C200	C	1.460802	0.875396	1.312227
H201	H	0.955945	0.342386	0.871199
H202	H	1.455945	0.842386	1.371199
H203	H	0.939433	0.433892	0.803325
H204	H	1.439433	0.933892	1.303325
H205	H	0.928897	0.338038	0.776282
H206	H	1.428897	0.838038	1.276282
H207	H	0.496664	0.388591	0.251009
H208	H	0.996664	0.888591	0.751009
H209	H	0.582488	0.381593	0.258186
H210	H	1.082488	0.881593	0.758186
H211	H	1.011105	0.421971	1.038515
H212	H	1.511105	0.921971	1.538515
H213	H	1.136872	0.237126	0.944025
H214	H	1.636872	0.737126	1.444025
O215	O	1.137883	0.235457	0.863271
O216	O	1.637883	0.735457	1.363271
C217	C	1.108456	0.158349	0.857958
C218	C	1.608456	0.658349	1.357958
H219	H	1.079533	0.160742	0.803033
H220	H	1.579533	0.660742	1.303033
H221	H	1.152617	0.120498	0.864139
H222	H	1.652617	0.620498	1.364139
H223	H	1.069424	0.131455	0.902402
H224	H	1.569424	0.631455	1.402402
H225	H	1.241235	0.763590	0.173002
H226	H	1.741235	1.263590	0.673002
H227	H	0.832701	0.422049	0.216601
H228	H	1.332701	0.922049	0.716601
H229	H	0.588782	0.244362	0.399090
H230	H	1.088782	0.744362	0.899090
O231	O	1.051100	0.607477	0.362881
O232	O	1.551100	1.107477	0.862881
C233	C	1.072182	0.623303	0.430956
C234	C	1.572182	1.123303	0.930956
H235	H	1.109393	0.681790	0.423532
H236	H	1.609393	1.181790	0.923532
H237	H	1.023385	0.627103	0.459645
H238	H	1.523385	1.127103	0.959645
H239	H	1.100815	0.573814	0.464740
H240	H	1.600815	1.073814	0.964740
O241	O	0.667813	0.229452	0.414571
O242	O	1.167813	0.729452	0.914571
C243	C	0.691029	0.242411	0.483208
C244	C	1.191029	0.742411	0.983208
H245	H	0.722047	0.304376	0.476858
H246	H	1.222047	0.804376	0.976858
H247	H	0.643152	0.236332	0.516968
H248	H	1.143152	0.736332	1.016968
H249	H	0.726660	0.197006	0.511301
H250	H	1.226660	0.697006	1.011301
H251	H	0.951002	0.737758	0.462705
H252	H	1.451002	1.237758	0.962705
O253	O	1.023466	0.403928	0.572054
O254	O	1.523466	0.903928	1.072054
C255	C	0.993415	0.448102	0.610931
C256	C	1.493415	0.948102	1.110931
H257	H	1.024238	0.446740	0.664786
H258	H	1.524238	0.946740	1.164786
H259	H	0.995996	0.511826	0.578408
H260	H	1.495996	1.011826	1.078408
H261	H	0.935711	0.421462	0.621036
H262	H	1.435711	0.921462	1.121036
H263	H	1.215364	0.613833	0.198772
H264	H	1.715364	1.113833	0.698772
H265	H	0.806770	0.230692	0.413112
H266	H	1.306770	0.730692	0.913112
O267	O	1.028531	0.396635	0.718097
O268	O	1.528531	0.896635	1.218097
C269	C	1.078489	0.443541	0.754237
C270	C	1.578489	0.943541	1.254237
H271	H	1.133512	0.446758	0.733908
H272	H	1.633512	0.946758	1.233908
H273	H	1.063760	0.505601	0.743276
H274	H	1.563760	1.005601	1.243276
H275	H	1.078591	0.416196	0.814750
H276	H	1.578591	0.916196	1.314750
H277	H	1.164185	0.196981	0.753970
H278	H	1.664185	0.696981	1.253970
O279	O	0.921355	0.855219	0.492309
O280	O	1.421355	1.355219	0.992309
C281	C	0.892676	0.909353	0.520999
C282	C	1.392676	1.409353	1.020999
H283	H	0.899456	0.969772	0.481677
H284	H	1.399456	1.469772	0.981677
H285	H	0.833853	0.887936	0.529783
H286	H	1.333853	1.387936	1.029783
H287	H	0.921527	0.914126	0.574735
H288	H	1.421527	1.414126	1.074735
H289	H	0.955175	1.011332	0.458659
H290	H	1.455175	1.511332	0.958659
H291	H	1.111586	1.011289	0.302514
H292	H	1.611586	1.511289	0.802514
O293	O	0.475398	0.188763	0.456382
O294	O	0.975398	0.688763	0.956382
C295	C	0.526872	0.229424	0.496566
C296	C	1.026872	0.729424	0.996566
H297	H	0.515790	0.292580	0.489002
H298	H	1.015790	0.792580	0.989002
H299	H	0.524647	0.198163	0.556177
H300	H	1.024647	0.698163	1.056177
H301	H	0.581800	0.230410	0.477015
H302	H	1.081800	0.730410	0.977015
