data_functionalizedCrystal
_audit_creation_method	'MofGen! by Chris Wilmer'
_symmetry_space_group_name_H-M	'P1'
_symmetry_Int_Tables_number	1
_symmetry_cell_setting	triclinic
loop_
_symmetry_equiv_pos_as_xyz
  x,y,z
_cell_length_a	27.440280
_cell_length_b	27.440280
_cell_length_c	20.919309
_cell_angle_alpha	90.003509
_cell_angle_beta	57.440013
_cell_angle_gamma	60.004534
loop_
_atom_site_label
_atom_site_type_symbol
_atom_site_fract_x
_atom_site_fract_y
_atom_site_fract_z
Zr1	Zr	0.538516	0.466980	-0.087335
O2	O	0.646499	0.386019	-0.193718
O3	O	0.434917	0.491790	-0.054724
O4	O	0.544825	0.487681	-0.193702
O5	O	0.530087	0.393379	0.054891
O6	O	0.544814	0.567884	-0.193689
O7	O	0.536592	0.390128	-0.054739
O8	O	0.348210	0.575234	0.054919
O9	O	0.726691	0.386029	-0.193717
O10	O	0.475898	0.562237	-0.040804
O11	O	0.471051	0.504808	0.041002
O12	O	0.600453	0.499971	-0.122628
O13	O	0.595606	0.442543	-0.040822
Zr14	Zr	0.528126	0.600081	0.087535
Zr15	Zr	0.538500	0.594895	-0.087313
Zr16	Zr	0.528142	0.472166	0.087513
Zr17	Zr	0.666414	0.466996	-0.087333
Zr18	Zr	0.400229	0.600064	0.087533
O19	O	0.631725	0.575271	0.054924
O20	O	0.646476	0.567897	-0.193687
O21	O	0.631749	0.393392	0.054892
O22	O	0.420144	0.681042	0.193918
O23	O	0.434894	0.673668	-0.054692
O24	O	0.420167	0.499163	0.193887
O25	O	0.536555	0.673681	-0.054691
O26	O	0.521818	0.579380	0.193902
O27	O	0.521828	0.499177	0.193888
O28	O	0.530051	0.676933	0.054939
O29	O	0.726678	0.487704	-0.193699
O30	O	0.339964	0.579356	0.193899
O31	O	0.339951	0.681031	0.193917
O32	O	0.348197	0.676909	0.054936
O33	O	0.718445	0.390151	-0.054736
O34	O	0.718432	0.491826	-0.054719
O35	O	0.466189	0.567090	0.122828
O36	O	0.471036	0.624518	0.041022
O37	O	0.595591	0.562252	-0.040802
O38	O	0.590745	0.504824	0.041004
C39	C	0.533342	0.373528	0.000073
C40	C	0.533349	0.319225	0.000063
C41	C	0.373341	0.533510	0.000097
C42	C	0.319045	0.533503	0.000096
C43	C	0.468292	0.015031	0.042834
C44	C	0.468288	-0.035987	0.042841
O45	O	0.412992	-0.034732	0.079190
N46	N	0.533304	-0.094006	0.000129
C47	C	0.598328	-0.101006	-0.042587
O48	O	0.653628	-0.155040	-0.078915
C49	C	0.598331	-0.049988	-0.042588
C50	C	0.533311	0.008030	0.000120
C51	C	0.403278	0.073047	0.085539
C52	C	0.403282	0.124061	0.085531
C53	C	0.468301	0.117060	0.042816
C54	C	0.533316	0.059045	0.000111
C55	C	0.663354	-0.056988	-0.085299
C56	C	0.663351	-0.005964	-0.085296
C57	C	0.598332	0.052054	-0.042588
C58	C	0.598339	0.103058	-0.042612
N59	N	0.533323	0.161077	0.000100
C60	C	0.468304	0.168078	0.042814
C61	C	0.598316	-0.208144	-0.042578
C62	C	0.598314	-0.259161	-0.042581
C63	C	0.468274	-0.194139	0.042848
C64	C	0.468277	-0.143121	0.042846
C65	C	0.533300	-0.150125	0.000134
C66	C	0.468319	0.275210	0.042793
C67	C	0.468330	0.326226	0.042777
C68	C	0.598369	0.261200	-0.042648
C69	C	0.598359	0.210188	-0.042636
C70	C	0.533328	0.217197	0.000090
O71	O	0.653606	0.101850	-0.078940
O72	O	0.413013	0.222114	0.079146
C73	C	-0.015168	0.563524	-0.042595
C74	C	-0.066192	0.563529	-0.042592
O75	O	-0.090448	0.589043	-0.078883
N76	N	-0.094238	0.533552	0.000108
C77	C	-0.071262	0.503572	0.042815
O78	O	-0.099803	0.478075	0.079135
C79	C	-0.020243	0.503571	0.042817
C80	C	0.007806	0.533545	0.000107
C81	C	0.012880	0.593496	-0.085300
C82	C	0.063902	0.593490	-0.085303
C83	C	0.086875	0.563511	-0.042601
C84	C	0.058827	0.533538	0.000104
C85	C	0.002727	0.473595	0.085529
C86	C	0.053750	0.473596	0.085527
C87	C	0.081799	0.503571	0.042818
C88	C	0.132822	0.503553	0.042803
N89	N	0.160868	0.533530	0.000103
C90	C	0.137895	0.563509	-0.042599
C91	C	-0.178407	0.503579	0.042809
C92	C	-0.229422	0.503576	0.042802
C93	C	-0.224349	0.563534	-0.042604
C94	C	-0.173329	0.563533	-0.042602
C95	C	-0.150361	0.533556	0.000109
C96	C	0.245044	0.563493	-0.042603
C97	C	0.296072	0.563481	-0.042606
C98	C	0.290991	0.503526	0.042804
C99	C	0.239970	0.503535	0.042803
C100	C	0.216996	0.533522	0.000098
O101	O	0.157110	0.478055	0.079078
O102	O	0.166435	0.589009	-0.078905
C103	C	0.693302	0.533551	0.000103
C104	C	0.747597	0.533558	0.000103
C105	C	0.546297	0.527044	-0.218607
C106	C	0.550701	0.524842	-0.292835
C107	C	0.533301	0.693532	0.000127
C108	C	0.533294	0.747835	0.000137
C109	C	0.487756	0.556310	-0.284998
C110	C	0.491898	0.554237	-0.354745
C111	C	0.558987	0.520698	-0.432328
C112	C	0.621937	0.489226	-0.440164
C113	C	0.617794	0.491296	-0.370417
C114	C	0.574749	0.512817	-0.645054
C115	C	0.578887	0.510750	-0.714802
C116	C	0.448847	0.575760	-0.629378
C117	C	0.444710	0.577831	-0.559635
C118	C	0.507660	0.546356	-0.567476
C119	C	0.563222	0.518579	-0.503622
C120	C	0.503424	0.548472	-0.496183
C121	C	0.520345	0.540017	0.218807
C122	C	0.515941	0.542219	0.293035
C123	C	0.373321	0.693511	0.000125
C124	C	0.319018	0.747808	0.000133
C125	C	0.360365	0.539996	0.218805
C126	C	0.301665	0.542191	0.293031
C127	C	0.360344	0.699998	0.218832
C128	C	0.301638	0.756496	0.293068
C129	C	0.706298	0.367062	-0.218632
C130	C	0.765005	0.310565	-0.292868
C131	C	0.693322	0.373549	0.000075
C132	C	0.747625	0.319253	0.000067
C133	C	0.706278	0.527064	-0.218605
C134	C	0.764978	0.524870	-0.292831
C135	C	0.296055	0.740795	-0.042582
C136	C	0.245040	0.791807	-0.042591
C137	C	0.216985	0.849831	0.000122
C138	C	0.239952	0.856842	0.042839
C139	C	0.290970	0.805831	0.042842
C140	C	0.271561	0.575732	0.370608
C141	C	0.216413	0.577792	0.440359
C142	C	0.191366	0.546314	0.432530
C143	C	0.221476	0.512769	0.354945
C144	C	0.276627	0.510706	0.285196
C145	C	0.276598	0.813010	0.285228
C146	C	0.221444	0.866100	0.354974
C147	C	0.191328	0.862675	0.432558
C148	C	0.216372	0.806155	0.440397
C149	C	0.271528	0.753066	0.370652
C150	C	0.790051	0.254050	-0.285028
C151	C	0.845220	0.200960	-0.354774
C152	C	0.875340	0.204385	-0.432358
C153	C	0.850292	0.260906	-0.440197
C154	C	0.795127	0.313994	-0.370452
C155	C	0.770593	0.326265	0.042775
C156	C	0.821624	0.275253	0.042764
C157	C	0.849681	0.217229	0.000049
C158	C	0.826711	0.210218	-0.042664
C159	C	0.775685	0.261229	-0.042658
C160	C	0.790006	0.556355	-0.284976
C161	C	0.845154	0.554304	-0.354713
C162	C	0.875275	0.520766	-0.432304
C163	C	0.850242	0.489280	-0.440158
C164	C	0.795092	0.491334	-0.370421
H165	H	0.415380	0.373467	0.077558
H166	H	0.301112	0.815810	0.222061
F167	F	0.334078	0.185805	0.130992
H168	H	0.291946	0.601366	0.376998
H169	H	0.191843	0.803375	0.503575
F170	F	0.846059	0.282727	0.088231
H171	H	0.433125	0.583623	-0.221829
F172	F	0.220599	0.595411	-0.088053
F173	F	0.758003	0.250391	-0.202463
H174	H	0.146459	0.547999	0.489330
H175	H	0.191903	0.605110	0.503525
F176	F	0.220603	0.784332	-0.088055
F177	F	0.634621	0.482884	-0.586197
F178	F	0.641747	0.479303	-0.653409
F179	F	-0.027115	0.441693	0.130989
H180	H	0.415332	-0.188446	0.077625
H181	H	0.301131	0.483395	0.222032
H182	H	0.651260	-0.306399	-0.077369
F183	F	0.194798	0.926247	0.346615
H184	H	0.201075	0.487140	0.348582
H185	H	0.146416	0.905908	0.489343
H186	H	0.676562	0.461915	-0.503339
H187	H	0.350328	0.078758	0.120326
F188	F	0.162686	0.904116	0.000112
F189	F	0.210085	0.918600	0.088296
F190	F	0.751241	0.253757	-0.088112
H191	H	0.651269	-0.213855	-0.077363
H192	H	0.865605	0.154944	-0.348376
H193	H	0.920182	0.519098	-0.489081
F194	F	0.298168	0.692921	0.379008
H195	H	0.390079	0.605144	-0.496466
H196	H	0.920258	0.161152	-0.489143
F197	F	0.882353	0.264541	-0.522775
F198	F	0.768466	0.457816	-0.378794
H199	H	0.774736	0.360009	-0.376845
F200	F	0.740744	0.388014	0.088239
F201	F	0.093745	0.625395	-0.130758
H202	H	0.891229	0.175697	0.000051
H203	H	0.849562	0.162968	-0.077442
F204	F	0.650295	0.475055	-0.797376
H205	H	0.765489	0.583665	-0.221804
H206	H	0.865530	0.579943	-0.348303
F207	F	0.882311	0.453583	-0.522742
H208	H	0.415365	0.280926	0.077585
H209	H	0.415331	-0.095883	0.077630
H210	H	0.651306	0.255509	-0.077427
F211	F	0.732560	-0.013424	-0.130755
F212	F	0.732558	-0.118727	-0.130749
H213	H	-0.005821	0.617912	-0.120072
F214	F	0.667561	0.148438	-0.088106
H215	H	0.318909	0.587890	-0.077388
H216	H	-0.243064	0.587946	-0.077373
F217	F	-0.143483	0.595436	-0.088057
H218	H	-0.252247	0.479160	0.077570
H219	H	-0.159705	0.479161	0.077584
H220	H	0.072449	0.449184	0.120307
F221	F	0.315400	0.813303	0.088313
H222	H	0.217140	0.479119	0.077570
F223	F	0.325906	0.679047	-0.088049
H224	H	0.309708	0.479116	0.077568
H225	H	0.440641	0.579862	-0.348357
H226	H	0.397596	0.601384	-0.623004
H227	H	0.448801	0.575776	-0.433012
F228	F	0.684790	0.457805	-0.378761
