data_functionalizedCrystal
_audit_creation_method	'MofGen! by Chris Wilmer'
_symmetry_space_group_name_H-M	'P1'
_symmetry_Int_Tables_number	1
_symmetry_cell_setting	triclinic
loop_
_symmetry_equiv_pos_as_xyz
  x,y,z
_cell_length_a	15.297475
_cell_length_b	15.299816
_cell_length_c	15.296720
_cell_angle_alpha	69.242954
_cell_angle_beta	88.382886
_cell_angle_gamma	72.651123
loop_
_atom_site_label
_atom_site_type_symbol
_atom_site_fract_x
_atom_site_fract_y
_atom_site_fract_z
Zn1	Zn	1.356907	-0.745292	0.873593
Zn2	Zn	1.401320	-0.883184	0.754304
Zn3	Zn	1.228314	-0.691495	0.691223
Zn4	Zn	1.228239	-0.873771	0.873576
O5	O	1.303695	-0.798436	0.798174
O6	O	1.489051	-0.790038	0.884175
O7	O	1.396989	-0.839181	0.619698
O8	O	1.226816	-0.564640	0.689021
O9	O	1.521681	-0.891346	0.796535
O10	O	1.321293	-0.604165	0.823008
O11	O	1.269882	-0.698348	0.573353
O12	O	1.102052	-0.689221	0.689006
O13	O	1.226689	-0.875303	0.999817
O14	O	1.101997	-0.823138	0.822980
O15	O	1.321221	-0.780910	0.999828
O16	O	1.396917	-1.015926	0.796519
O17	O	1.269755	-1.009011	0.884148
C18	C	1.069289	-0.749321	0.749147
C19	C	0.969009	-0.728336	0.728199
C20	C	0.686429	-0.948428	0.947897
C21	C	0.780649	-0.968151	0.967578
C22	C	0.827743	-0.908199	0.907735
C23	C	0.780609	-0.828520	0.828208
C24	C	0.686382	-0.808799	0.808521
C25	C	0.827696	-0.768570	0.768359
C26	C	0.780562	-0.688891	0.688831
C27	C	0.686344	-0.669174	0.669149
C28	C	0.639250	-0.729126	0.728992
C29	C	0.921923	-0.788291	0.788045
C30	C	0.921876	-0.648663	0.648669
C31	C	0.827657	-0.628939	0.628988
C32	C	1.338168	-1.047219	0.847202
C33	C	1.352994	-1.153671	0.868224
C34	C	1.198278	-1.371756	0.648359
C35	C	1.184344	-1.271739	0.628609
C36	C	1.226505	-1.242217	0.688511
C37	C	1.282604	-1.312723	0.768166
C38	C	1.296534	-1.412750	0.787922
C39	C	1.324761	-1.283210	0.828074
C40	C	1.380859	-1.353716	0.907729
C41	C	1.394788	-1.453733	0.927481
C42	C	1.352626	-1.483255	0.867579
C43	C	1.310831	-1.183183	0.808318
C44	C	1.409086	-1.224177	0.947881
C45	C	1.423021	-1.324194	0.967631
C46	C	1.539017	-0.847743	0.847394
C47	C	1.639297	-0.868755	0.868368
C48	C	1.268993	-0.833057	1.033470
C49	C	1.254204	-0.847811	1.133739
C50	C	1.269109	-0.548689	0.748980
C51	C	1.254370	-0.442262	0.728016
C52	C	1.338305	-0.763890	0.563791
C53	C	1.353230	-0.748903	0.463506
C54	C	1.409399	-0.692828	1.416409
C55	C	1.423299	-0.678969	1.322202
C56	C	1.381026	-0.721178	1.275082
C57	C	1.324851	-0.777249	1.322177
C58	C	1.310956	-0.791116	1.416395
C59	C	1.282583	-0.819466	1.275068
C60	C	1.226409	-0.875537	1.322163
C61	C	1.212515	-0.889401	1.416371
C62	C	1.254788	-0.847192	1.463492
C63	C	1.296479	-0.805599	1.180850
C64	C	1.198036	-0.903887	1.180836
C65	C	1.184136	-0.917746	1.275042
H66	H	0.904461	-0.924262	0.923764
H67	H	1.468696	-1.381614	1.032487
O68	O	1.151935	-0.949887	1.467167
H69	H	1.149382	-0.952445	1.540597
O70	O	0.831477	-1.054077	1.053355
H71	H	0.826097	-1.123124	1.048798
O72	O	1.454573	-1.192352	1.012495
H73	H	1.435472	-1.110957	0.985369
H74	H	1.138398	-0.963399	1.313400
O75	O	1.123841	-1.195701	0.542700
H76	H	1.121229	-1.121190	0.539032
O77	O	1.396008	-0.706234	1.173472
H78	H	1.371434	-0.626539	1.130592
H79	H	1.440462	-1.511138	0.992344
O80	O	0.635502	-0.583244	0.583370
H81	H	0.640862	-0.514194	0.587934
O82	O	1.357062	-0.745126	1.130057
H83	H	1.328514	-0.669394	1.130097
O84	O	1.454995	-0.647302	1.467218
H85	H	1.431785	-0.566251	1.431089
O86	O	1.483883	-0.618499	1.271407
H87	H	1.510939	-0.591472	1.319995
H88	H	1.163951	-1.395804	0.599599
H89	H	1.243473	-0.858473	1.540202
O90	O	1.152430	-0.949413	1.130025
H91	H	1.171520	-0.930341	1.056599
H92	H	0.960221	-0.599846	0.599939
O93	O	0.972757	-0.874211	0.873825
H94	H	0.967386	-0.943264	0.869277
H95	H	1.215157	-1.160776	0.672425
O96	O	0.635639	-1.013085	1.012438
H97	H	0.562202	-0.985981	0.985389
H98	H	0.562528	-0.713070	0.712973
O99	O	0.776825	-0.543024	0.543194
H100	H	0.703400	-0.539398	0.539554
O101	O	1.367658	-1.591137	0.888885
H102	H	1.300596	-1.605985	0.898051
H103	H	1.265155	-1.125785	0.743462
