data_functionalizedCrystal
_audit_creation_method	'MofGen! by Chris Wilmer'
_symmetry_space_group_name_H-M	'P1'
_symmetry_Int_Tables_number	1
_symmetry_cell_setting	triclinic
loop_
_symmetry_equiv_pos_as_xyz
  x,y,z
_cell_length_a	27.732048
_cell_length_b	9.065218
_cell_length_c	8.140239
_cell_angle_alpha	90.002802
_cell_angle_beta	89.991555
_cell_angle_gamma	96.170730
loop_
_atom_site_label
_atom_site_type_symbol
_atom_site_fract_x
_atom_site_fract_y
_atom_site_fract_z
O1	O	0.070866	-1.955891	-0.136639
O2	O	0.076679	-1.526237	-0.136643
O3	O	0.003467	-1.754408	-0.136609
O4	O	0.144079	-1.727720	-0.136672
O5	O	0.003466	-1.754396	0.136618
O6	O	0.076678	-1.526224	0.136584
O7	O	0.070866	-1.955879	0.136588
Zn8	Zn	0.073772	-1.741050	0.179967
Zn9	Zn	0.073773	-1.741066	-0.180021
O10	O	0.144078	-1.727708	0.136555
C11	C	0.076120	-1.471280	-0.000029
C12	C	0.074450	-1.307543	-0.000029
C13	C	-0.014544	-1.753842	0.000009
C14	C	-0.068210	-1.752155	0.000022
N15	N	0.073771	-1.741049	0.425650
C16	C	-0.406178	-1.876369	-0.000061
C17	C	-0.607880	-1.870110	-0.000084
O18	O	-0.638360	-1.983695	-0.000155
N19	N	-0.627927	-1.734814	-0.000083
C20	C	-0.597545	-1.601073	-0.000088
O21	O	-0.619225	-1.485852	-0.000105
C22	C	-0.395844	-1.607334	-0.000077
C23	C	-0.375800	-1.742639	-0.000061
C24	C	-0.386133	-2.011663	-0.000046
C25	C	-0.335710	-2.013226	-0.000032
C26	C	-0.305332	-1.879496	-0.000031
C27	C	-0.325377	-1.744202	-0.000046
C28	C	-0.365463	-1.473594	-0.000094
C29	C	-0.315035	-1.475171	-0.000095
C30	C	-0.294991	-1.610476	-0.000079
C31	C	-0.244577	-1.612034	-0.000031
N32	N	-0.224529	-1.747331	-0.000031
C33	C	-0.254907	-1.881061	-0.000032
C34	C	-0.703442	-1.597796	-0.000091
C35	C	-0.753867	-1.596230	-0.000091
C36	C	-0.764198	-1.865268	-0.000089
C37	C	-0.713772	-1.866832	-0.000078
C38	C	-0.683395	-1.733092	-0.000091
C39	C	-0.149016	-1.884334	0.000001
C40	C	-0.098588	-1.885886	0.000022
C41	C	-0.088262	-1.616849	0.000012
C42	C	-0.138685	-1.615296	-0.000001
C43	C	-0.169061	-1.749051	-0.000012
O44	O	-0.214067	-1.498510	0.000021
O45	O	-0.233218	-1.996266	-0.000051
C46	C	-0.456600	-1.874806	-0.000076
C47	C	-0.476645	-1.739512	-0.000090
C48	C	-0.446267	-1.605781	-0.000090
C49	C	-0.527070	-1.737946	-0.000090
C50	C	-0.557448	-1.871677	-0.000090
C51	C	-0.537401	-2.006973	-0.000090
C52	C	-0.486978	-2.008537	-0.000076
C53	C	-0.466314	-1.470485	-0.000090
C54	C	-0.516737	-1.468933	-0.000102
C55	C	-0.547115	-1.602663	-0.000103
C56	C	0.162089	-1.728274	-0.000067
C57	C	0.215755	-1.729961	-0.000091
C58	C	0.071425	-2.010836	-0.000029
C59	C	0.073095	-2.174573	-0.000039
N60	N	0.073770	-1.741078	-0.425704
H61	H	-0.082271	-1.996072	0.000040
H62	H	-0.381774	-1.363415	-0.000117
H63	H	-0.697456	-1.977009	-0.000066
H64	H	-0.155005	-1.505120	0.000032
C65	C	-0.432905	-1.323373	-0.000072
H66	H	-0.452071	-1.242582	-0.000060
H67	H	-0.413010	-1.318373	-0.095341
H68	H	-0.413029	-1.318389	0.095232
C69	C	-0.054840	-1.469757	0.000003
H70	H	-0.021939	-1.490078	-0.000007
H71	H	-0.060982	-1.414208	0.095272
H72	H	-0.060975	-1.414247	-0.095301
C73	C	-0.797618	-2.012372	-0.000099
H74	H	-0.778461	-2.093185	-0.000093
H75	H	-0.817498	-2.017339	-0.095381
H76	H	-0.817507	-2.017350	0.095192
C77	C	-0.538780	-1.320087	-0.000126
H78	H	-0.513462	-1.240674	-0.000141
H79	H	-0.558245	-1.313858	0.095141
H80	H	-0.558227	-1.313896	-0.095432
C81	C	-0.182423	-2.031461	0.000002
H82	H	-0.163257	-2.112250	0.000028
H83	H	-0.202304	-2.036468	-0.095278
H84	H	-0.202312	-2.036439	0.095294
H85	H	-0.319395	-2.123406	-0.000025
H86	H	-0.410862	-2.120569	-0.000052
H87	H	-0.770182	-1.486052	-0.000076
H88	H	-0.678712	-1.488882	-0.000101
C89	C	-0.281623	-1.328053	-0.000103
H90	H	-0.300786	-1.247257	-0.000101
H91	H	-0.261730	-1.323074	-0.095377
H92	H	-0.261744	-1.323060	0.095195
H93	H	-0.470663	-2.118716	-0.000063
H94	H	-0.562143	-2.115862	-0.000083
