data_functionalizedCrystal
_audit_creation_method	'MofGen! by Chris Wilmer'
_symmetry_space_group_name_H-M	'P1'
_symmetry_Int_Tables_number	1
_symmetry_cell_setting	triclinic
loop_
_symmetry_equiv_pos_as_xyz
  x,y,z
_cell_length_a	10.654541
_cell_length_b	14.519709
_cell_length_c	9.130307
_cell_angle_alpha	89.995756
_cell_angle_beta	89.999822
_cell_angle_gamma	84.082037
loop_
_atom_site_label
_atom_site_type_symbol
_atom_site_fract_x
_atom_site_fract_y
_atom_site_fract_z
O1	O	1.666593	0.129520	-0.121758
O2	O	1.300996	0.141863	-0.121771
O3	O	1.493488	0.001504	-0.121751
O4	O	1.474101	0.269880	-0.121778
O5	O	1.493481	0.001502	0.121848
O6	O	1.300989	0.141862	0.121828
O7	O	1.666587	0.129519	0.121841
Cu8	Cu	1.483788	0.135690	0.144077
Cu9	Cu	1.483795	0.135692	-0.144007
O10	O	1.474095	0.269879	0.121821
C11	C	1.254203	0.140957	0.000027
C12	C	1.114786	0.138247	0.000022
C13	C	1.492581	-0.032862	0.000049
C14	C	1.489874	-0.135257	0.000049
C15	C	1.085201	0.306085	-0.000013
C16	C	1.004912	0.388727	-0.000036
C17	C	0.873919	0.386175	-0.000038
C18	C	0.823213	0.300972	-0.000011
C19	C	0.903502	0.218330	0.000012
C20	C	1.034496	0.220891	0.000009
C21	C	0.933086	0.050493	0.000058
C22	C	1.064080	0.053043	0.000049
C23	C	0.882380	-0.034710	0.000085
C24	C	0.962669	-0.117354	0.000098
C25	C	1.093670	-0.114798	0.000097
C26	C	1.144369	-0.029599	0.000072
C27	C	1.479906	-0.510204	0.000011
C28	C	1.482674	-0.405882	0.000022
C29	C	1.484890	-0.322734	0.000032
C30	C	1.487658	-0.218405	0.000040
C31	C	1.713380	0.130425	0.000040
C32	C	1.852797	0.133135	0.000035
C33	C	1.475002	0.304244	0.000018
C34	C	1.477709	0.406639	0.000008
N35	N	1.483792	0.135689	0.346700
N36	N	1.483801	0.135686	-0.346630
C37	C	1.654313	0.011436	0.346708
C38	C	1.739582	-0.050687	0.423378
C39	C	1.739594	-0.050688	0.576712
C40	C	1.654326	0.011440	0.653378
C41	C	1.569057	0.073564	0.576707
C42	C	1.569056	0.073559	0.423370
C43	C	1.398532	0.197810	0.576700
C44	C	1.398524	0.197816	0.423366
C45	C	1.313264	0.259937	0.653366
C46	C	1.227999	0.322067	0.576695
C47	C	1.227991	0.322066	0.423352
C48	C	1.313255	0.259940	0.346695
H49	H	1.191861	0.308172	-0.000044
O50	O	1.822536	-0.111072	0.650970
C51	C	1.897764	-0.165929	0.550433
H52	H	1.899269	-0.128111	0.441123
H53	H	1.998020	-0.179315	0.594741
H54	H	1.856839	-0.234718	0.534138
O55	O	1.313117	0.260088	0.197748
C56	C	1.219551	0.328222	0.146509
H57	H	1.197759	0.383014	0.234860
H58	H	1.254991	0.362064	0.043917
H59	H	1.130247	0.294684	0.119315
H60	H	1.654331	0.011428	0.778230
H61	H	1.046212	0.458098	-0.000054
O62	O	1.145299	0.382376	0.651393
C63	C	1.163564	0.369031	0.803168
H64	H	1.263332	0.335247	0.824106
H65	H	1.149739	0.438774	0.861447
H66	H	1.092392	0.322283	0.846682
O67	O	1.271635	-0.027233	0.000266
C68	C	1.323508	-0.072378	0.126463
H69	H	1.256659	-0.122852	0.168540
H70	H	1.418419	-0.111923	0.098104
H71	H	1.337392	-0.018868	0.214789
O72	O	1.145112	0.382503	0.349106
C73	C	1.069840	0.437314	0.449660
H74	H	1.121335	0.438708	0.558958
H75	H	1.050826	0.510836	0.405356
H76	H	0.976496	0.406722	0.465977
H77	H	0.716550	0.298901	0.000006
O78	O	0.795971	0.466476	-0.000322
C79	C	0.819002	0.518158	-0.126478
H80	H	0.863677	0.469755	-0.214643
H81	H	0.726144	0.554534	-0.168840
H82	H	0.885806	0.571975	-0.097966
O83	O	0.755163	-0.037358	0.000144
C84	C	0.727630	-0.130277	0.000130
H85	H	0.811491	-0.176321	0.046272
H86	H	0.640886	-0.137082	0.070845
H87	H	0.708247	-0.152566	-0.116733
O88	O	0.913562	-0.200167	-0.000072
C89	C	0.954531	-0.250592	-0.126246
H90	H	1.045435	-0.224881	-0.168322
H91	H	0.972538	-0.327276	-0.097857
H92	H	0.878750	-0.240395	-0.214584
O93	O	1.171787	-0.195017	-0.000076
C94	C	1.248420	-0.198584	-0.126259
H95	H	1.255206	-0.125343	-0.168344
H96	H	1.346794	-0.232305	-0.097878
H97	H	1.205230	-0.240987	-0.214587
H98	H	1.313273	0.259931	0.778218
H99	H	1.654322	0.011438	0.221855
O100	O	1.822417	-0.110905	0.348677
C101	C	1.804138	-0.097581	0.196900
H102	H	1.757272	-0.024600	0.175972
H103	H	1.899233	-0.107112	0.138656
H104	H	1.741130	-0.150254	0.153340
