data_functionalizedCrystal
_audit_creation_method	'MofGen! by Chris Wilmer'
_symmetry_space_group_name_H-M	'P1'
_symmetry_Int_Tables_number	1
_symmetry_cell_setting	triclinic
loop_
_symmetry_equiv_pos_as_xyz
  x,y,z
_cell_length_a	12.759401
_cell_length_b	16.625546
_cell_length_c	16.625539
_cell_angle_alpha	89.971468
_cell_angle_beta	89.984732
_cell_angle_gamma	90.023993
loop_
_atom_site_label
_atom_site_type_symbol
_atom_site_fract_x
_atom_site_fract_y
_atom_site_fract_z
Zn1	Zn	1.606151	-0.320982	-0.455859
Zn2	Zn	1.939484	0.012351	-0.122526
Zn3	Zn	2.272818	0.345684	0.210807
Zn4	Zn	1.606036	-0.455821	-0.321021
Zn5	Zn	1.939369	-0.122488	0.012312
Zn6	Zn	2.272702	0.210846	0.345645
Zn7	Zn	1.430467	-0.321010	-0.321044
Zn8	Zn	1.763800	0.012324	0.012289
Zn9	Zn	2.097134	0.345657	0.345623
Zn10	Zn	1.430418	-0.455780	-0.455816
Zn11	Zn	1.763751	-0.122447	-0.122482
Zn12	Zn	2.097084	0.210887	0.210851
O13	O	1.518268	-0.388398	-0.388435
O14	O	1.851601	-0.055065	-0.055102
O15	O	2.184934	0.278268	0.278232
O16	O	1.753157	-0.338875	-0.437982
O17	O	2.086490	-0.005541	-0.104648
O18	O	2.419823	0.327792	0.228685
O19	O	1.582718	-0.437967	-0.208192
O20	O	1.916052	-0.104633	0.125141
O21	O	2.249385	0.228700	0.458475
O22	O	1.453841	-0.208174	-0.338955
O23	O	1.787174	0.125160	-0.005622
O24	O	2.120507	0.458493	0.327712
O25	O	1.753072	-0.437940	-0.338917
O26	O	2.086405	-0.104607	-0.005584
O27	O	2.419738	0.228727	0.327750
O28	O	1.582915	-0.208153	-0.438003
O29	O	1.916248	0.125180	-0.104670
O30	O	2.249582	0.458513	0.228663
O31	O	1.453729	-0.338921	-0.208208
O32	O	1.787062	-0.005588	0.125125
O33	O	2.120396	0.327745	0.458458
O34	O	1.283439	-0.338882	-0.338913
O35	O	1.616773	-0.005548	-0.005579
O36	O	1.950106	0.327785	0.327754
O37	O	1.453757	-0.437870	-0.568654
O38	O	1.787090	-0.104537	-0.235320
O39	O	2.120423	0.228796	0.098013
O40	O	1.283403	-0.437897	-0.437929
O41	O	1.616737	-0.104564	-0.104596
O42	O	1.950070	0.228770	0.228738
O43	O	1.582867	-0.338835	-0.568686
O44	O	1.916200	-0.005502	-0.235353
O45	O	2.249534	0.327832	0.097981
O46	O	1.582671	-0.568648	-0.338875
O47	O	1.916004	-0.235315	-0.005541
O48	O	2.249337	0.098019	0.327792
O49	O	1.453645	-0.568618	-0.437907
O50	O	1.786978	-0.235285	-0.104574
O51	O	2.120311	0.098049	0.228759
C52	C	1.245300	-0.388388	-0.388419
C53	C	1.578634	-0.055055	-0.055086
C54	C	1.911967	0.278278	0.278248
C55	C	1.128524	-0.388404	-0.388431
C56	C	1.461857	-0.055070	-0.055098
C57	C	1.795190	0.278263	0.278235
C58	C	1.073670	-0.440039	-0.439908
C59	C	1.407004	-0.106706	-0.106575
C60	C	1.740337	0.226627	0.226759
C61	C	0.963946	-0.440042	-0.439924
C62	C	1.297280	-0.106709	-0.106591
C63	C	1.630613	0.226624	0.226743
C64	C	0.963939	-0.336772	-0.336980
C65	C	1.297272	-0.003438	-0.003646
C66	C	1.630605	0.329895	0.329687
C67	C	1.073661	-0.336765	-0.336968
C68	C	1.406994	-0.003432	-0.003635
C69	C	1.740327	0.329901	0.329698
C70	C	1.518168	-0.597889	-0.388401
C71	C	1.851502	-0.264556	-0.055068
C72	C	2.184835	0.068778	0.278265
C73	C	1.518222	-0.687510	-0.388414
C74	C	1.851555	-0.354177	-0.055080
C75	C	2.184889	-0.020844	0.278253
C76	C	1.518405	-1.015686	-0.388498
C77	C	1.851739	-0.682352	-0.055164
C78	C	2.185072	-0.349019	0.278169
C79	C	1.518351	-0.924377	-0.388477
C80	C	1.851684	-0.591044	-0.055143
C81	C	2.185017	-0.257711	0.278190
C82	C	1.518313	-0.851601	-0.388455
C83	C	1.851646	-0.518268	-0.055122
C84	C	2.184979	-0.184934	0.278211
C85	C	1.518260	-0.760287	-0.388435
C86	C	1.851593	-0.426953	-0.055102
C87	C	2.184927	-0.093620	0.278232
C88	C	1.792301	-0.388409	-0.388452
C89	C	2.125634	-0.055075	-0.055118
C90	C	2.458968	0.278258	0.278215
C91	C	1.909078	-0.388413	-0.388459
C92	C	2.242411	-0.055080	-0.055125
C93	C	2.575744	0.278253	0.278208
C94	C	1.518319	-0.388345	-0.598744
C95	C	1.851653	-0.055012	-0.265411
C96	C	2.184986	0.278322	0.067923
C97	C	1.518341	-0.388322	-0.688365
C98	C	1.851675	-0.054989	-0.355032
C99	C	2.185008	0.278344	-0.021699
C100	C	1.518396	-0.178089	-0.388487
C101	C	1.851730	0.155244	-0.055153
C102	C	2.185063	0.488577	0.278180
C103	C	1.518451	-0.088468	-0.388509
C104	C	1.851784	0.244865	-0.055175
C105	C	2.185118	0.578198	0.278158
C106	C	1.518358	-0.388305	-0.761148
C107	C	1.851692	-0.054971	-0.427814
C108	C	2.185025	0.278362	-0.094481
C109	C	1.518383	-0.388275	-0.852456
C110	C	1.851716	-0.054941	-0.519123
C111	C	2.185050	0.278392	-0.185790
C112	C	1.518408	-0.388246	-0.925233
C113	C	1.851741	-0.054913	-0.591899
C114	C	2.185074	0.278421	-0.258566
C115	C	1.518434	-0.388217	-1.016547
C116	C	1.851767	-0.054884	-0.683214
C117	C	2.185100	0.278450	-0.349880
C118	C	1.518277	-0.388393	-0.178944
C119	C	1.851610	-0.055060	0.154389
C120	C	2.184944	0.278274	0.487722
C121	C	1.518459	-0.388189	-0.089324
C122	C	1.851792	-0.054855	0.244010
C123	C	2.185125	0.278478	0.577343
H124	H	1.118337	-0.482085	-0.481814
H125	H	1.451670	-0.148751	-0.148481
H126	H	1.785003	0.184582	0.184852
N127	N	1.129683	-0.284006	-0.284384
N128	N	1.463016	0.049327	0.048949
N129	N	1.796350	0.382660	0.382283
N130	N	1.080689	-0.237908	-0.238437
N131	N	1.414022	0.095425	0.094896
N132	N	1.747356	0.428758	0.428230
H133	H	1.120254	-0.200646	-0.201303
H134	H	1.453587	0.132687	0.132030
H135	H	1.786921	0.466021	0.465364
H136	H	0.919290	-0.482088	-0.481842
H137	H	1.252623	-0.148755	-0.148509
H138	H	1.585956	0.184578	0.184824
H139	H	0.919256	-0.294731	-0.295079
H140	H	1.252589	0.038602	0.038254
H141	H	1.585922	0.371936	0.371587
