data_functionalizedCrystal
_audit_creation_method	'MofGen! by Chris Wilmer'
_symmetry_space_group_name_H-M	'P1'
_symmetry_Int_Tables_number	1
_symmetry_cell_setting	triclinic
loop_
_symmetry_equiv_pos_as_xyz
  x,y,z
_cell_length_a	13.033293
_cell_length_b	18.050590
_cell_length_c	13.032268
_cell_angle_alpha	97.145544
_cell_angle_beta	89.079182
_cell_angle_gamma	97.187921
loop_
_atom_site_label
_atom_site_type_symbol
_atom_site_fract_x
_atom_site_fract_y
_atom_site_fract_z
Zn1	Zn	1.498459	-0.231049	-0.781466
Zn2	Zn	1.520200	-0.337772	-0.609486
Zn3	Zn	1.348319	-0.227127	-0.587642
Zn4	Zn	1.326451	-0.368731	-0.759524
O5	O	1.423357	-0.291170	-0.684529
O6	O	1.645262	-0.233891	-0.776977
O7	O	1.515651	-0.308497	-0.462681
O8	O	1.368289	-0.123722	-0.613395
O9	O	1.661235	-0.312300	-0.650624
O10	O	1.478596	-0.126603	-0.755796
O11	O	1.389371	-0.227207	-0.446632
O12	O	1.201499	-0.257226	-0.592118
O13	O	1.331017	-0.365065	-0.906342
O14	O	1.185433	-0.361262	-0.718398
O15	O	1.457391	-0.263910	-0.922463
O16	O	1.494446	-0.445805	-0.629347
O17	O	1.352099	-0.468550	-0.739579
C18	C	1.156149	-0.312179	-0.650507
C19	C	1.041834	-0.321187	-0.635977
C20	C	0.982952	-0.286487	-0.692113
C21	C	0.864801	-0.295797	-0.677096
C22	C	1.423283	-0.484124	-0.684478
C23	C	1.423342	-0.566667	-0.684503
C24	C	1.500881	-0.753720	-0.624673
C25	C	1.514078	-0.810616	-0.721723
C26	C	1.423395	-0.717797	-0.684551
C27	C	1.410296	-0.807979	-0.587556
C28	C	1.423449	-0.863780	-0.684590
C29	C	1.436634	-0.773606	-0.781657
C30	C	1.332817	-0.770962	-0.647422
C31	C	1.345971	-0.827845	-0.744532
C32	C	1.423366	-0.633699	-0.684528
C33	C	1.423476	-0.947878	-0.684624
C34	C	1.691608	-0.270080	-0.718685
C35	C	1.805921	-0.261092	-0.733240
C36	C	1.389339	-0.318378	-0.952759
C37	C	1.374843	-0.329973	-1.067063
C38	C	1.423457	-0.097462	-0.684607
C39	C	1.423499	-0.014916	-0.684640
C40	C	1.430907	-0.285093	-1.125999
C41	C	1.415926	-0.297076	-1.244138
C42	C	1.457302	-0.264009	-0.417351
C43	C	1.471998	-0.252190	-0.303073
H44	H	1.020013	-0.249885	-0.751286
C45	C	1.451762	-0.752995	-0.892541
N46	N	1.463160	-0.737467	-0.976057
C47	C	1.510734	-0.221197	-1.076014
N48	N	1.570862	-0.173069	-1.038366
C49	C	0.991772	-0.370632	-0.556029
N50	N	0.954067	-0.407876	-0.495811
C51	C	1.617589	-0.834372	-0.764175
N52	N	1.695557	-0.852264	-0.796142
C53	C	1.551834	-0.188292	-1.253095
N54	N	1.611967	-0.140166	-1.215450
C55	C	0.855976	-0.211645	-0.813194
N56	N	0.893678	-0.174403	-0.873416
C57	C	1.257464	-0.871092	-0.813051
N58	N	1.190803	-0.903666	-0.864662
C59	C	1.589419	-0.710293	-0.556355
N60	N	1.656108	-0.677580	-0.504905
H61	H	1.256221	-0.753360	-0.615970
C62	C	1.395293	-0.828706	-0.476718
N63	N	1.383999	-0.844313	-0.393233
H64	H	1.315746	-0.377263	-1.104066
C65	C	0.814744	-0.345244	-0.597144
N66	N	0.777038	-0.382488	-0.536926
C67	C	1.336088	-0.360971	-1.294118
N68	N	1.275955	-0.409096	-1.331765
