data_functionalizedCrystal
_audit_creation_method	'MofGen! by Chris Wilmer'
_symmetry_space_group_name_H-M	'P1'
_symmetry_Int_Tables_number	1
_symmetry_cell_setting	triclinic
loop_
_symmetry_equiv_pos_as_xyz
  x,y,z
_cell_length_a	12.811438
_cell_length_b	12.837942
_cell_length_c	13.448316
_cell_angle_alpha	89.994234
_cell_angle_beta	84.561792
_cell_angle_gamma	89.411773
loop_
_atom_site_label
_atom_site_type_symbol
_atom_site_fract_x
_atom_site_fract_y
_atom_site_fract_z
O1	O	1.406658	0.139695	-0.209533
O2	O	1.906658	0.639695	0.290467
O3	O	1.102591	0.154882	-0.182117
O4	O	1.602591	0.654882	0.317883
O5	O	1.247882	-0.003644	-0.195211
O6	O	1.747882	0.496356	0.304789
O7	O	1.261367	0.298220	-0.196439
O8	O	1.761367	0.798220	0.303561
O9	O	1.247861	-0.003654	-0.029825
O10	O	1.747861	0.496346	0.470175
O11	O	1.102570	0.154872	-0.016731
O12	O	1.602570	0.654872	0.483269
O13	O	1.406637	0.139685	-0.044147
O14	O	1.906637	0.639685	0.455853
Cu15	Cu	1.254601	0.147277	-0.015338
Cu16	Cu	1.754601	0.647277	0.484662
Cu17	Cu	1.254626	0.147289	-0.210926
Cu18	Cu	1.754626	0.647289	0.289074
O19	O	1.261346	0.298210	-0.031053
O20	O	1.761346	0.798210	0.468947
C21	C	1.063391	0.154025	-0.095890
C22	C	1.563391	0.654025	0.404110
C23	C	0.946617	0.151476	-0.085361
C24	C	1.446617	0.651476	0.414639
C25	C	0.782019	0.147878	0.019625
C26	C	1.282019	0.647878	0.519625
C27	C	0.891738	0.150274	0.009737
C28	C	1.391738	0.650274	0.509737
C29	C	0.891770	0.150286	-0.170577
C30	C	1.391770	0.650286	0.329423
C31	C	0.782051	0.147890	-0.160688
C32	C	1.282051	0.647890	0.339312
C33	C	0.727179	0.146684	-0.065584
C34	C	1.227179	0.646684	0.434416
C35	C	0.617458	0.144281	-0.055696
C36	C	1.117458	0.644281	0.444304
C37	C	0.617492	0.144300	-0.236009
C38	C	1.117492	0.644300	0.263991
C39	C	0.727211	0.146696	-0.245897
C40	C	1.227211	0.646696	0.254103
C41	C	1.243316	-0.042289	-0.112108
C42	C	1.743316	0.457711	0.387892
C43	C	1.229730	-0.157425	-0.110884
C44	C	1.729730	0.342575	0.389116
C45	C	1.393061	-0.397678	-0.125632
C46	C	1.893061	0.102322	0.374368
C47	C	1.380300	-0.505859	-0.124483
C48	C	1.880300	-0.005859	0.375517
C49	C	1.191449	-0.481970	-0.107445
C50	C	1.691449	0.018030	0.392555
C51	C	1.204210	-0.373789	-0.108594
C52	C	1.704210	0.126211	0.391406
C53	C	1.305019	-0.331647	-0.117686
C54	C	1.805019	0.168353	0.382314
C55	C	1.317778	-0.223464	-0.118828
C56	C	1.817778	0.276536	0.381172
C57	C	1.128928	-0.199577	-0.101797
C58	C	1.628928	0.300423	0.398203
C59	C	1.116168	-0.307758	-0.100648
C60	C	1.616168	0.192242	0.399352
C61	C	1.445837	0.140541	-0.130376
C62	C	1.945837	0.640541	0.369624
C63	C	1.562611	0.143090	-0.140912
C64	C	2.062611	0.643090	0.359088
C65	C	1.265912	0.336855	-0.114158
C66	C	1.765912	0.836855	0.385842
C67	C	1.279498	0.451991	-0.115388
C68	C	1.779498	0.951991	0.384612
N69	N	1.254591	0.147269	0.122227
N70	N	1.754591	0.647269	0.622227
N71	N	1.254644	0.147290	-0.348492
N72	N	1.754644	0.647290	0.151508
C73	C	1.318951	0.077103	0.168467
C74	C	1.818951	0.577103	0.668467
C75	C	1.318958	0.077102	0.272570
C76	C	1.818958	0.577102	0.772570
C77	C	1.254609	0.147273	0.330430
C78	C	1.754609	0.647273	0.830430
C79	C	1.190242	0.217442	0.284183
C80	C	1.690242	0.717442	0.784183
C81	C	1.190231	0.217437	0.180083
C82	C	1.690231	0.717437	0.680083
C83	C	1.190272	0.217449	0.501161
C84	C	1.690272	0.717449	1.001161
C85	C	1.190284	0.217456	0.605268
C86	C	1.690284	0.717456	1.105268
C87	C	1.318999	0.077114	0.593647
C88	C	1.818999	0.577114	1.093647
C89	C	1.318988	0.077109	0.489547
C90	C	1.818988	0.577109	0.989547
C91	C	1.254622	0.147280	0.443308
C92	C	1.754622	0.647280	0.943308
H93	H	0.771902	0.147681	-0.323328
H94	H	1.271902	0.647681	0.176672
H95	H	1.475143	-0.363366	-0.133026
H96	H	1.975143	0.136634	0.366974
H97	H	1.451994	-0.559618	-0.130957
H98	H	1.951994	-0.059618	0.369043
H99	H	1.109375	-0.516301	-0.100053
H100	H	1.609375	-0.016301	0.399947
C101	C	1.005283	-0.354127	-0.090635
C102	C	1.505283	0.145873	0.409365
N103	N	0.921763	-0.389051	-0.083086
N104	N	1.421763	0.110949	0.416914
C105	C	1.389775	-0.000083	0.425902
C106	C	1.889775	0.499917	0.925902
N107	N	1.443089	-0.058228	0.377966
N108	N	1.943089	0.441772	0.877966
H109	H	1.371356	0.019966	0.121363
H110	H	1.871356	0.519966	0.621363
H111	H	1.057238	-0.145802	-0.095319
H112	H	1.557238	0.354198	0.404681
H113	H	1.371364	0.019967	0.310217
H114	H	1.871364	0.519967	0.810217
C115	C	0.952058	0.151582	0.103474
C116	C	1.452058	0.651582	0.603474
N117	N	0.997491	0.152567	0.174081
N118	N	1.497491	0.652567	0.674081
H119	H	0.936465	0.151276	-0.248006
H120	H	1.436465	0.651276	0.251994
H121	H	1.371407	0.019978	0.631302
H122	H	1.871407	0.519978	1.131302
H123	H	1.137883	0.274595	0.652374
H124	H	1.637883	0.774595	1.152374
H125	H	0.572829	0.143331	-0.305392
H126	H	1.072829	0.643331	0.194608
H127	H	1.399862	-0.189154	-0.126228
H128	H	1.899862	0.310846	0.373772
C129	C	1.119453	0.294630	0.450301
C130	C	1.619453	0.794630	0.950301
N131	N	1.066114	0.352762	0.411994
N132	N	1.566114	0.852762	0.911994
H133	H	1.137821	0.274572	0.142436
H134	H	1.637821	0.774572	0.642436
C135	C	0.557101	0.142961	0.048919
C136	C	1.057101	0.642961	0.548919
N137	N	0.511643	0.141973	0.127719
N138	N	1.011643	0.641973	0.627719
C139	C	0.721658	0.146545	0.124239
C140	C	1.221658	0.646545	0.624239
N141	N	0.676196	0.145541	0.203036
N142	N	1.176196	0.645541	0.703036
H143	H	1.137842	0.274573	0.331300
H144	H	1.637842	0.774573	0.831300
