data_functionalizedCrystal
_audit_creation_method	'MofGen! by Chris Wilmer'
_symmetry_space_group_name_H-M	'P1'
_symmetry_Int_Tables_number	1
_symmetry_cell_setting	triclinic
loop_
_symmetry_equiv_pos_as_xyz
  x,y,z
_cell_length_a	19.805407
_cell_length_b	13.032721
_cell_length_c	19.805399
_cell_angle_alpha	97.155902
_cell_angle_beta	89.980427
_cell_angle_gamma	97.204665
loop_
_atom_site_label
_atom_site_type_symbol
_atom_site_fract_x
_atom_site_fract_y
_atom_site_fract_z
Zn1	Zn	1.000535	-0.416068	-0.416943
Zn2	Zn	0.986084	-0.590828	-0.318130
Zn3	Zn	0.887347	-0.416097	-0.303770
Zn4	Zn	0.872952	-0.590772	-0.431272
O5	O	0.936729	-0.503441	-0.367529
O6	O	1.093333	-0.439261	-0.403849
O7	O	0.972963	-0.567684	-0.221512
O8	O	0.914433	-0.269853	-0.306777
O9	O	1.082717	-0.567656	-0.331251
O10	O	0.997592	-0.269832	-0.389925
O11	O	0.900421	-0.439310	-0.210962
O12	O	0.790722	-0.439257	-0.320671
O13	O	0.889899	-0.567562	-0.524085
O14	O	0.780146	-0.567590	-0.414346
O15	O	0.983634	-0.439207	-0.513558
O16	O	0.959005	-0.737060	-0.345145
O17	O	0.875887	-0.737019	-0.428270
C18	C	0.760875	-0.503421	-0.367506
C19	C	0.685642	-0.503438	-0.367514
C20	C	0.644800	-0.570361	-0.416228
C21	C	0.574112	-0.570363	-0.416238
C22	C	0.544265	-0.503446	-0.367529
C23	C	0.585113	-0.436515	-0.318812
C24	C	0.655800	-0.436508	-0.318806
C25	C	0.300037	-0.436538	-0.318836
C26	C	0.229344	-0.436551	-0.318845
C27	C	0.218349	-0.570393	-0.416269
C28	C	0.289036	-0.570386	-0.416262
C29	C	0.329878	-0.503452	-0.367548
C30	C	0.406526	-0.503449	-0.367538
C31	C	0.467618	-0.503453	-0.367535
C32	C	0.914334	-0.774958	-0.389835
C33	C	0.904816	-0.891114	-0.399401
C34	C	0.941733	-0.942886	-0.362567
C35	C	0.931896	-1.062939	-0.372453
C36	C	1.113270	-0.503462	-0.367553
C37	C	1.188502	-0.503471	-0.367563
C38	C	0.936773	-0.503375	-0.544066
C39	C	0.936791	-0.503347	-0.619296
C40	C	0.959230	-0.230864	-0.345151
C41	C	0.968819	-0.114708	-0.335614
C42	C	0.985600	-0.436510	-0.649160
C43	C	0.985609	-0.436479	-0.719846
C44	C	0.936813	-0.503293	-0.760667
C45	C	0.887999	-0.570133	-0.730799
C46	C	0.887987	-0.570157	-0.660114
C47	C	0.888045	-0.570036	-1.015865
C48	C	0.888062	-0.570008	-1.086555
C49	C	0.985668	-0.436358	-1.075596
C50	C	0.985656	-0.436382	-1.004911
C51	C	0.936840	-0.503218	-0.975049
C52	C	0.936830	-0.503249	-0.898403
C53	C	0.936825	-0.503268	-0.837312
C54	C	0.936731	-0.503431	-0.191672
C55	C	0.936868	-0.503165	-0.116419
H56	H	0.313333	-0.624881	-0.455924
O57	O	1.033038	-0.371695	-0.748946
C58	C	1.071858	-0.431177	-0.794721
H59	H	1.041453	-0.510370	-0.811804
H60	H	1.084440	-0.388591	-0.840935
H61	H	1.121070	-0.442668	-0.768441
O62	O	0.178578	-0.635309	-0.463567
C63	C	0.109786	-0.620986	-0.453123
H64	H	0.106774	-0.540292	-0.424416
H65	H	0.082352	-0.628184	-0.504410
H66	H	0.084604	-0.682900	-0.422101
H67	H	1.025414	-0.381933	-1.099918
H68	H	0.848265	-0.624530	-0.764042
O69	O	0.885507	-1.116240	-0.418758
C70	C	0.886021	-1.224241	-0.418329
H71	H	0.907013	-1.239064	-0.367327
H72	H	0.831933	-1.265862	-0.426277
H73	H	0.919529	-1.255129	-0.461036
O74	O	0.556010	-0.371603	-0.271529
C75	C	0.484863	-0.385939	-0.281990
H76	H	0.468562	-0.466636	-0.310697
H77	H	0.458569	-0.378742	-0.230710
H78	H	0.469925	-0.324031	-0.313019
H79	H	0.865929	-0.935669	-0.438256
H80	H	1.025338	-0.382106	-0.615927
H81	H	0.205047	-0.382053	-0.279180
H82	H	1.007714	-1.070157	-0.296761
H83	H	0.540861	-0.624860	-0.455906
O84	O	0.339602	-0.371487	-0.271451
C85	C	0.298100	-0.312410	-0.228473
H86	H	0.244184	-0.355224	-0.229602
H87	H	0.319431	-0.301140	-0.174230
H88	H	0.297126	-0.233098	-0.246834
O89	O	0.695374	-0.371471	-0.271414
C90	C	0.653876	-0.312393	-0.228432
H91	H	0.599957	-0.355196	-0.229565
H92	H	0.675205	-0.301140	-0.174189
H93	H	0.652911	-0.233074	-0.246784
H94	H	1.025393	-0.381979	-0.971677
O95	O	0.988036	-0.889693	-0.316139
C96	C	0.954656	-0.826627	-0.267244
H97	H	0.898663	-0.859662	-0.265713
H98	H	0.979275	-0.825294	-0.215068
H99	H	0.959040	-0.743930	-0.281410
O100	O	0.840588	-0.634943	-1.126108
C101	C	0.797508	-0.693957	-1.084596
H102	H	0.798688	-0.651172	-1.030694
H103	H	0.743266	-0.705082	-1.105927
H104	H	0.815735	-0.773335	-1.083599
O105	O	0.840515	-0.634942	-0.631065
C106	C	0.801711	-0.575461	-0.585272
H107	H	0.804328	-0.493144	-0.599812
H108	H	0.746503	-0.613254	-0.587567
H109	H	0.822922	-0.571887	-0.531409
O110	O	0.840662	-0.634867	-0.986750
C111	C	0.851119	-0.620586	-0.915610
H112	H	0.879939	-0.539942	-0.899336
H113	H	0.799829	-0.627684	-0.889320
H114	H	0.882044	-0.682583	-0.900646
O115	O	0.673682	-0.635399	-0.463612
C116	C	0.622471	-0.694484	-0.506601
H117	H	0.575613	-0.651688	-0.505476
H118	H	0.641988	-0.705735	-0.560841
H119	H	0.608402	-0.773804	-0.488249
