data_functionalizedCrystal
_audit_creation_method	'MofGen! by Chris Wilmer'
_symmetry_space_group_name_H-M	'P1'
_symmetry_Int_Tables_number	1
_symmetry_cell_setting	triclinic
loop_
_symmetry_equiv_pos_as_xyz
  x,y,z
_cell_length_a	16.625547
_cell_length_b	16.625545
_cell_length_c	12.827885
_cell_angle_alpha	89.966975
_cell_angle_beta	89.974319
_cell_angle_gamma	90.025495
loop_
_atom_site_label
_atom_site_type_symbol
_atom_site_fract_x
_atom_site_fract_y
_atom_site_fract_z
Zn1	Zn	1.232670	-0.320962	-0.591000
Zn2	Zn	1.732670	0.179038	-0.091000
Zn3	Zn	1.232564	-0.455817	-0.416251
Zn4	Zn	1.732564	0.044183	0.083749
Zn5	Zn	1.097830	-0.321002	-0.416255
Zn6	Zn	1.597830	0.178998	0.083745
Zn7	Zn	1.097795	-0.455757	-0.590932
Zn8	Zn	1.597795	0.044243	-0.090932
O9	O	1.165215	-0.388384	-0.503609
O10	O	1.665215	0.111616	-0.003609
O11	O	1.345488	-0.338860	-0.567846
O12	O	1.845488	0.161140	-0.067846
O13	O	1.214661	-0.437975	-0.270015
O14	O	1.714661	0.062025	0.229985
O15	O	1.115776	-0.208164	-0.439465
O16	O	1.615776	0.291836	0.060535
O17	O	1.345410	-0.437937	-0.439459
O18	O	1.845410	0.062063	0.060541
O19	O	1.214842	-0.208135	-0.567850
O20	O	1.714842	0.291865	-0.067850
O21	O	1.115673	-0.338927	-0.270018
O22	O	1.615673	0.161073	0.229982
O23	O	0.984993	-0.338869	-0.439399
O24	O	1.484993	0.161131	0.060601
O25	O	1.115716	-0.437834	-0.737177
O26	O	1.615716	0.062166	-0.237177
O27	O	0.984967	-0.437872	-0.567734
O28	O	1.484967	0.062128	-0.067734
O29	O	1.214808	-0.338801	-0.737227
O30	O	1.714808	0.161199	-0.237227
O31	O	1.214628	-0.568641	-0.439393
O32	O	1.714628	-0.068641	0.060607
O33	O	1.115613	-0.568597	-0.567730
O34	O	1.615613	-0.068597	-0.067730
C35	C	0.955724	-0.388369	-0.503560
C36	C	1.455724	0.111631	-0.003560
C37	C	0.866103	-0.388382	-0.503564
C38	C	1.366103	0.111618	-0.003564
C39	C	1.165127	-0.597875	-0.503576
C40	C	1.665127	-0.097875	-0.003576
C41	C	1.165163	-0.687496	-0.503597
C42	C	1.665163	-0.187496	-0.003597
C43	C	0.793320	-0.388383	-0.503577
C44	C	1.293320	0.111617	-0.003577
C45	C	0.702012	-0.388387	-0.503603
C46	C	1.202012	0.111613	-0.003603
C47	C	0.629235	-0.388395	-0.503629
C48	C	1.129235	0.111605	-0.003629
C49	C	0.537921	-0.388400	-0.503654
C50	C	1.037921	0.111600	-0.003654
C51	C	1.165195	-0.760279	-0.503618
C52	C	1.665195	-0.260279	-0.003618
C53	C	1.165242	-0.851587	-0.503641
C54	C	1.665242	-0.351587	-0.003641
C55	C	1.165284	-0.924364	-0.503654
C56	C	1.665284	-0.424364	-0.003654
C57	C	1.165330	-1.015678	-0.503676
C58	C	1.665330	-0.515678	-0.003676
C59	C	1.375524	-0.388401	-0.503659
C60	C	1.875524	0.111599	-0.003659
C61	C	1.465145	-0.388408	-0.503681
C62	C	1.965145	0.111592	-0.003681
C63	C	1.165270	-0.388306	-0.776180
C64	C	1.665270	0.111694	-0.276180
C65	C	1.165294	-0.388273	-0.892333
C66	C	1.665294	0.111727	-0.392333
C67	C	1.165325	-0.178076	-0.503665
C68	C	1.665325	0.321924	-0.003665
C69	C	1.165371	-0.088454	-0.503689
C70	C	1.665371	0.411546	-0.003689
C71	C	1.116276	-0.437258	-0.944093
C72	C	1.616276	0.062742	-0.444093
C73	C	1.116299	-0.437224	-1.064143
C74	C	1.616299	0.062776	-0.564143
C75	C	1.165206	-0.388404	-0.232099
C76	C	1.665206	0.111596	0.267901
C77	C	1.165338	-0.388210	-0.115947
C78	C	1.665338	0.111790	0.384053
H79	H	1.074295	-0.479223	-0.899530
H80	H	1.574295	0.020777	-0.399530
H81	H	1.207280	-0.346314	-0.936896
H82	H	1.707280	0.153686	-0.436896
N83	N	1.063648	-0.489826	-1.119990
N84	N	1.563648	0.010174	-0.619990
N85	N	1.063738	-0.489722	-1.217432
N86	N	1.563738	0.010278	-0.717432
H87	H	1.026551	-0.526872	-1.256878
H88	H	1.526551	-0.026872	-0.756878
H89	H	1.207303	-0.346267	-1.071441
H90	H	1.707303	0.153733	-0.571441
