data_functionalizedCrystal
_audit_creation_method	'MofGen! by Chris Wilmer'
_symmetry_space_group_name_H-M	'P1'
_symmetry_Int_Tables_number	1
_symmetry_cell_setting	triclinic
loop_
_symmetry_equiv_pos_as_xyz
  x,y,z
_cell_length_a	16.959455
_cell_length_b	16.120847
_cell_length_c	16.959447
_cell_angle_alpha	92.921210
_cell_angle_beta	90.017850
_cell_angle_gamma	92.894585
loop_
_atom_site_label
_atom_site_type_symbol
_atom_site_fract_x
_atom_site_fract_y
_atom_site_fract_z
Zn1	Zn	-1.192544	0.332006	-0.431007
Zn2	Zn	-1.185800	0.471435	-0.292142
Zn3	Zn	-1.060365	0.332027	-0.298841
Zn4	Zn	-1.053680	0.471367	-0.424282
O5	O	-1.123097	0.401709	-0.361568
O6	O	-1.302259	0.350521	-0.412597
O7	O	-1.169136	0.452979	-0.182418
O8	O	-1.083520	0.215359	-0.321991
O9	O	-1.297304	0.452959	-0.310573
O10	O	-1.180631	0.215343	-0.419093
O11	O	-1.076980	0.350557	-0.187340
O12	O	-0.948869	0.350491	-0.315470
O13	O	-1.072125	0.452843	-0.535786
O14	O	-0.943957	0.452864	-0.407631
O15	O	-1.174148	0.350455	-0.540727
O16	O	-1.162653	0.588091	-0.304052
O17	O	-1.065585	0.588041	-0.401135
C18	C	-0.917733	0.401673	-0.361548
C19	C	-0.829876	0.401678	-0.361557
C20	C	-0.460935	0.348333	-0.313678
C21	C	-0.455861	0.455100	-0.409481
C22	C	-0.538408	0.455091	-0.409478
C23	C	-0.582222	0.401703	-0.361573
C24	C	-0.543489	0.348325	-0.313672
C25	C	-0.577146	0.508475	-0.457372
C26	C	-0.659697	0.508469	-0.457371
C27	C	-0.703513	0.455077	-0.409470
C28	C	-0.664776	0.401695	-0.361567
C29	C	-0.708590	0.348307	-0.313662
C30	C	-0.669854	0.294921	-0.265763
C31	C	-0.587305	0.294932	-0.265771
C32	C	-0.786062	0.455065	-0.409462
C33	C	-0.791144	0.348299	-0.313656
C34	C	-1.133573	0.184255	-0.372039
C35	C	-1.138037	0.091589	-0.376502
C36	C	-1.146202	-0.078072	-0.384647
C37	C	-1.100139	-0.119362	-0.338583
C38	C	-1.104681	-0.213767	-0.343115
C39	C	-1.141660	0.016342	-0.380116
C40	C	-0.329264	0.401735	-0.361584
C41	C	-0.417121	0.401721	-0.361583
C42	C	-1.112684	0.618316	-0.351154
C43	C	-1.108301	0.710982	-0.346726
C44	C	-1.123143	0.401639	-0.567739
C45	C	-1.123162	0.401610	-0.655597
C46	C	-1.075255	0.348195	-1.029646
C47	C	-1.171218	0.454849	-1.024509
C48	C	-1.171203	0.454868	-0.941962
C49	C	-1.123213	0.401551	-0.903253
C50	C	-1.075237	0.348215	-0.947092
C51	C	-1.219172	0.508209	-0.898117
C52	C	-1.219159	0.508232	-0.815565
C53	C	-1.171172	0.454910	-0.776855
C54	C	-1.123195	0.401571	-0.820699
C55	C	-1.075204	0.348254	-0.781990
C56	C	-1.027231	0.294910	-0.825833
C57	C	-1.027250	0.294893	-0.908382
C58	C	-1.171153	0.454927	-0.694306
C59	C	-1.075187	0.348274	-0.699436
C60	C	-1.123100	0.401718	-0.156201
C61	C	-1.123245	0.401512	-0.068355
H62	H	-0.555759	0.251469	-0.226773
H63	H	-1.210217	0.498353	-0.658613
H64	H	-1.036110	0.304852	-0.667926
N65	N	-0.975501	0.237375	-0.955670
H66	H	-0.945096	0.203600	-0.918624
H67	H	-1.009538	0.198792	-0.991789
H68	H	-0.826812	0.304819	-0.274651
N69	N	-1.202967	-0.125150	-0.441384
H70	H	-1.189998	-0.110079	-0.497152
H71	H	-1.198184	-0.186878	-0.436548
H72	H	-0.429393	0.304865	-0.274682
N73	N	-0.408615	0.512677	-0.461153
H74	H	-0.420124	0.572228	-0.445923
H75	H	-0.350459	0.504516	-0.453869
H76	H	-0.705538	0.251456	-0.226756
N77	N	-1.023500	0.290676	-1.076925
H78	H	-1.030786	0.298755	-1.135094
H79	H	-0.966425	0.303664	-1.061855
H80	H	-1.210283	0.498263	-1.056030
H81	H	-0.541467	0.551946	-0.496368
N82	N	-0.701478	0.566035	-0.509038
H83	H	-0.733870	0.604624	-0.475001
H84	H	-0.661151	0.599801	-0.539379
H85	H	-1.057289	-0.083810	-0.295745
N86	N	-0.975465	0.237411	-0.784080
H87	H	-0.982734	0.245525	-0.725133
H88	H	-0.990640	0.177865	-0.801375
N89	N	-1.270916	0.565726	-0.939863
H90	H	-1.263646	0.557618	-0.998810
H91	H	-1.327992	0.552777	-0.926069
N92	N	-1.270898	0.565762	-0.768281
H93	H	-1.301301	0.599535	-0.805329
H94	H	-1.309106	0.531839	-0.735674
H95	H	-0.817597	0.498534	-0.448458
