data_functionalizedCrystal
_audit_creation_method	'MofGen! by Chris Wilmer'
_symmetry_space_group_name_H-M	'P1'
_symmetry_Int_Tables_number	1
_symmetry_cell_setting	triclinic
loop_
_symmetry_equiv_pos_as_xyz
  x,y,z
_cell_length_a	29.839134
_cell_length_b	29.839131
_cell_length_c	18.050582
_cell_angle_alpha	90.033130
_cell_angle_beta	90.026973
_cell_angle_gamma	90.027971
loop_
_atom_site_label
_atom_site_type_symbol
_atom_site_fract_x
_atom_site_fract_y
_atom_site_fract_z
Zn1	Zn	0.686751	-0.178969	0.420097
Zn2	Zn	1.186751	0.321031	0.920097
Zn3	Zn	0.686688	-0.254091	0.295884
Zn4	Zn	1.186688	0.245909	0.795884
Zn5	Zn	0.611630	-0.178966	0.295895
Zn6	Zn	1.111630	0.321034	0.795895
Zn7	Zn	0.611589	-0.254063	0.420006
Zn8	Zn	1.111589	0.245937	0.920006
O9	O	0.649164	-0.216522	0.357970
O10	O	1.149164	0.283478	0.857970
O11	O	0.749609	-0.188947	0.403653
O12	O	1.249609	0.311053	0.903653
O13	O	0.676722	-0.244136	0.191961
O14	O	1.176722	0.255864	0.691961
O15	O	0.621638	-0.116100	0.312413
O16	O	1.121638	0.383900	0.812413
O17	O	0.749563	-0.244139	0.312394
O18	O	1.249563	0.255861	0.812394
O19	O	0.676829	-0.116101	0.403664
O20	O	1.176829	0.383899	0.903664
O21	O	0.621577	-0.188942	0.191969
O22	O	1.121577	0.311058	0.691969
O23	O	0.548758	-0.188915	0.312325
O24	O	1.048758	0.311085	0.812325
O25	O	0.621569	-0.244091	0.523943
O26	O	1.121569	0.255909	1.023943
O27	O	0.548728	-0.244088	0.403509
O28	O	1.048728	0.255912	0.903509
O29	O	0.676790	-0.188919	0.524009
O30	O	1.176790	0.311081	1.024009
O31	O	0.676682	-0.316954	0.312306
O32	O	1.176682	0.183046	0.812306
O33	O	0.621508	-0.316934	0.403499
O34	O	1.121508	0.183066	0.903499
C35	C	0.532442	-0.216499	0.357909
C36	C	1.032442	0.283501	0.857909
C37	C	0.482507	-0.216500	0.357900
C38	C	0.982507	0.283500	0.857900
C39	C	0.125923	-0.187751	0.310588
C40	C	0.625923	0.312249	0.810588
C41	C	0.313596	-0.187738	0.310543
C42	C	0.813596	0.312262	0.810543
O43	O	0.337864	-0.163257	0.270247
O44	O	0.837864	0.336743	0.770247
N45	N	0.337062	-0.216507	0.357938
N46	N	0.837062	0.283493	0.857938
C47	C	0.313607	-0.245279	0.405351
C48	C	0.813607	0.254721	0.905351
O49	O	0.337873	-0.269745	0.445667
O50	O	0.837873	0.230255	0.945667
C51	C	0.125935	-0.245289	0.405399
C52	C	0.625935	0.254711	0.905399
C53	C	0.102471	-0.216522	0.357996
C54	C	0.602471	0.283478	0.857996
C55	C	0.102460	-0.158986	0.263189
C56	C	0.602460	0.341014	0.763189
C57	C	0.055544	-0.158991	0.263198
C58	C	0.555544	0.341009	0.763198
C59	C	0.032092	-0.187761	0.310606
C60	C	0.532092	0.312239	0.810606
C61	C	0.055556	-0.216527	0.358004
C62	C	0.555556	0.283473	0.858004
C63	C	0.102480	-0.274058	0.452815
C64	C	0.602480	0.225942	0.952815
C65	C	0.055559	-0.274057	0.452824
C66	C	0.555559	0.225943	0.952824
C67	C	0.032096	-0.245290	0.405421
C68	C	0.532096	0.254710	0.905421
C69	C	-0.014811	-0.245302	0.405421
C70	C	0.485189	0.254698	0.905421
N71	N	-0.038277	-0.216534	0.358026
N72	N	0.461723	0.283466	0.858026
C73	C	-0.014825	-0.187763	0.310618
C74	C	0.485175	0.312237	0.810618
C75	C	0.412138	-0.245272	0.405321
C76	C	0.912138	0.254728	0.905321
C77	C	0.459056	-0.245270	0.405308
C78	C	0.959056	0.254730	0.905308
C79	C	0.459042	-0.187729	0.310501
C80	C	0.959042	0.312271	0.810501
C81	C	0.412123	-0.187734	0.310511
C82	C	0.912123	0.312266	0.810511
C83	C	0.388672	-0.216503	0.357926
C84	C	0.888672	0.283497	0.857926
C85	C	-0.113351	-0.187777	0.310640
C86	C	0.386649	0.312223	0.810640
C87	C	-0.160271	-0.187786	0.310651
C88	C	0.339729	0.312214	0.810651
C89	C	-0.160253	-0.245325	0.405461
C90	C	0.339747	0.254675	0.905461
C91	C	-0.113337	-0.245318	0.405447
C92	C	0.386663	0.254682	0.905447
C93	C	-0.089888	-0.216540	0.358035
C94	C	0.410112	0.283460	0.858035
O95	O	-0.039108	-0.269767	0.445702
O96	O	0.460892	0.230233	0.945702
O97	O	-0.039099	-0.163294	0.270319
O98	O	0.460901	0.336706	0.770319
C99	C	0.172839	-0.187746	0.310579
C100	C	0.672839	0.312254	0.810579
C101	C	0.196302	-0.216511	0.357978
C102	C	0.696302	0.283489	0.857978
C103	C	0.172850	-0.245282	0.405386
C104	C	0.672850	0.254718	0.905386
C105	C	0.243220	-0.216509	0.357965
C106	C	0.743220	0.283491	0.857965
C107	C	0.266672	-0.187739	0.310557
C108	C	0.766672	0.312261	0.810557
C109	C	0.243206	-0.158970	0.263162
C110	C	0.743206	0.341030	0.763162
C111	C	0.196291	-0.158975	0.263171
C112	C	0.696291	0.341025	0.763171
C113	C	0.196316	-0.274050	0.452781
C114	C	0.696316	0.225950	0.952781
C115	C	0.243232	-0.274043	0.452767
C116	C	0.743232	0.225957	0.952767
C117	C	0.266684	-0.245273	0.405359
C118	C	0.766684	0.254727	0.905359
C119	C	0.649096	-0.333245	0.357908
C120	C	1.149096	0.166755	0.857908
C121	C	0.649108	-0.383179	0.357906
C122	C	1.149108	0.116821	0.857906
C123	C	0.677896	-0.692789	0.405552
C124	C	1.177896	-0.192789	0.905552
C125	C	0.677945	-0.880462	0.405597
C126	C	1.177945	-0.380462	0.905597
O127	O	0.702355	-0.904698	0.446061
O128	O	1.202355	-0.404698	0.946061
N129	N	0.649241	-0.903964	0.358053
N130	N	1.149241	-0.403964	0.858053
C131	C	0.620520	-0.880546	0.310498
C132	C	1.120520	-0.380546	0.810498
O133	O	0.596104	-0.904842	0.270065
O134	O	1.096104	-0.404842	0.770065
C135	C	0.620470	-0.692874	0.310457
C136	C	1.120470	-0.192874	0.810457
C137	C	0.649179	-0.669373	0.357999
C138	C	1.149179	-0.169373	0.857999
C139	C	0.706603	-0.669289	0.453091
C140	C	1.206603	-0.169289	0.953091
C141	C	0.706592	-0.622373	0.453076
C142	C	1.206592	-0.122373	0.953076
C143	C	0.677875	-0.598958	0.405523
C144	C	1.177875	-0.098958	0.905523
C145	C	0.649168	-0.622458	0.357985
C146	C	1.149168	-0.122458	0.857985
C147	C	0.591747	-0.669456	0.262906
C148	C	1.091747	-0.169456	0.762906
C149	C	0.591736	-0.622535	0.262902
C150	C	1.091736	-0.122535	0.762902
C151	C	0.620446	-0.599035	0.310444
C152	C	1.120446	-0.099035	0.810444
C153	C	0.620440	-0.552127	0.310417
C154	C	1.120440	-0.052127	0.810417
N155	N	0.649144	-0.528625	0.357961
N156	N	1.149144	-0.028625	0.857961
C157	C	0.677861	-0.552040	0.405514
C158	C	1.177861	-0.052040	0.905514
C159	C	0.620550	-0.979076	0.310521
C160	C	1.120550	-0.479076	0.810521
C161	C	0.620563	-1.025994	0.310530
C162	C	1.120563	-0.525994	0.810530
C163	C	0.677987	-1.025907	0.405631
C164	C	1.177987	-0.525907	0.905631
C165	C	0.677976	-0.978988	0.405617
C166	C	1.177976	-0.478988	0.905617
C167	C	0.649254	-0.955574	0.358065
C168	C	1.149254	-0.455574	0.858065
C169	C	0.677837	-0.453514	0.405480
C170	C	1.177837	0.046486	0.905480
C171	C	0.677825	-0.406595	0.405459
C172	C	1.177825	0.093405	0.905459
C173	C	0.620399	-0.406686	0.310362
C174	C	1.120399	0.093314	0.810362
C175	C	0.620413	-0.453601	0.310379
C176	C	1.120413	0.046399	0.810379
C177	C	0.649133	-0.477014	0.357944
C178	C	1.149133	0.022986	0.857944
O179	O	0.596040	-0.527862	0.269980
O180	O	1.096040	-0.027862	0.769980
O181	O	0.702267	-0.527735	0.445953
O182	O	1.202267	-0.027735	0.945953
C183	C	0.677907	-0.739704	0.405567
C184	C	1.177907	-0.239704	0.905567
C185	C	0.649200	-0.763204	0.358028
C186	C	1.149200	-0.263204	0.858028
C187	C	0.620483	-0.739789	0.310475
C188	C	1.120483	-0.239789	0.810475
C189	C	0.649213	-0.810122	0.358037
C190	C	1.149213	-0.310122	0.858037
C191	C	0.677931	-0.833537	0.405590
C192	C	1.177931	-0.333537	0.905590
C193	C	0.706635	-0.810035	0.453134
C194	C	1.206635	-0.310035	0.953134
C195	C	0.706624	-0.763119	0.453120
C196	C	1.206624	-0.263119	0.953120
C197	C	0.591779	-0.763292	0.262931
C198	C	1.091779	-0.263292	0.762931
C199	C	0.591792	-0.810207	0.262949
C200	C	1.091792	-0.310207	0.762949
C201	C	0.620510	-0.833622	0.310502
C202	C	1.120510	-0.333622	0.810502
C203	C	0.766343	-0.216546	0.358032
C204	C	1.266343	0.283454	0.858032
C205	C	0.816277	-0.216556	0.358059
C206	C	1.316277	0.283444	0.858059
C207	C	0.649182	-0.216502	0.551676
C208	C	1.149182	0.283498	1.051676
C209	C	0.649190	-0.216494	0.634222
C210	C	1.149190	0.283506	1.134222
C211	C	0.649245	-0.099344	0.358049
C212	C	1.149245	0.400656	0.858049
C213	C	0.649280	-0.049409	0.358083
C214	C	1.149280	0.450591	0.858083
C215	C	0.649173	-0.216510	0.165018
C216	C	1.149173	0.283490	0.665018
C217	C	0.649252	-0.216392	0.082473
C218	C	1.149252	0.283608	0.582473
C219	C	0.619183	-0.246455	0.833637
C220	C	1.119183	0.253545	1.333637
C221	C	0.660169	-0.257442	0.883039
C222	C	1.160169	0.242558	1.383039
C223	C	0.649212	-0.216460	0.785352
C224	C	1.149212	0.283540	1.285352
C225	C	0.608248	-0.205460	0.883032
C226	C	1.108248	0.294540	1.383032
C227	C	0.649229	-0.216427	0.931338
C228	C	1.149229	0.283573	1.431338
C229	C	0.690219	-0.227468	0.833667
C230	C	1.190219	0.272532	1.333667
C231	C	0.638270	-0.175467	0.833656
C232	C	1.138270	0.324533	1.333656
C233	C	0.679285	-0.186438	0.883036
C234	C	1.179285	0.313562	1.383036
C235	C	0.649201	-0.216479	0.701254
C236	C	1.149201	0.283521	1.201254
C237	C	0.649245	-0.216408	1.015434
C238	C	1.149245	0.283592	1.515434
H239	H	0.393022	-0.164307	0.271913
H240	H	0.893022	0.335693	0.771913
H241	H	0.724879	-0.236797	0.812074
H242	H	1.224879	0.263203	1.312074
H243	H	0.478144	-0.164304	0.271899
H244	H	0.978144	0.335696	0.771899
H245	H	0.568393	-0.744231	0.224208
H246	H	1.068393	-0.244231	0.724208
H247	H	0.597160	-0.960015	0.271797
H248	H	1.097160	-0.460015	0.771797
H249	H	0.121576	-0.297484	0.491416
H250	H	0.621576	0.202516	0.991416
H251	H	0.628993	-0.140825	0.811948
H252	H	1.128993	0.359175	1.311948
H253	H	0.573599	-0.196171	0.904717
H254	H	1.073599	0.303829	1.404717
H255	H	0.701353	-0.959857	0.444330
H256	H	1.201353	-0.459857	0.944330
H257	H	0.568346	-0.603473	0.224180
H258	H	1.068346	-0.103473	0.724180
H259	H	-0.179373	-0.164359	0.272047
H260	H	0.320627	0.335641	0.772047
H261	H	0.730002	-0.743989	0.491833
H262	H	1.230002	-0.243989	0.991833
H263	H	0.121549	-0.135555	0.224584
H264	H	0.621549	0.364445	0.724584
H265	H	0.701221	-0.472571	0.444217
H266	H	1.201221	0.027429	0.944217
H267	H	0.704715	-0.161058	0.904589
H268	H	1.204715	0.338942	1.404589
H269	H	0.701205	-0.387462	0.444173
H270	H	1.201205	0.112538	0.944173
H271	H	0.729987	-0.688348	0.491819
H272	H	1.229987	-0.188348	0.991819
H273	H	-0.094264	-0.164341	0.272036
H274	H	0.405736	0.335659	0.772036
H275	H	0.729968	-0.603242	0.491791
H276	H	1.229968	-0.103242	0.991791
H277	H	0.478156	-0.268700	0.443901
H278	H	0.978156	0.231300	0.943901
H279	H	0.036445	-0.135566	0.224597
H280	H	0.536445	0.364434	0.724597
H281	H	0.701370	-1.044980	0.444349
H282	H	1.201370	-0.544980	0.944349
H283	H	0.593813	-0.271854	0.811947
H284	H	1.093813	0.228146	1.311947
H285	H	0.568369	-0.688582	0.224192
H286	H	1.068369	-0.188582	0.724192
H287	H	0.036468	-0.297484	0.491439
H288	H	0.536468	0.202516	0.991439
H289	H	-0.094232	-0.268746	0.444041
H290	H	0.405768	0.231254	0.944041
H291	H	0.393048	-0.268702	0.443934
H292	H	0.893048	0.231298	0.943934
H293	H	0.568415	-0.829337	0.224227
H294	H	1.068415	-0.329337	0.724227
H295	H	-0.179356	-0.268751	0.444056
H296	H	0.320644	0.231249	0.944056
H297	H	0.597039	-0.472736	0.271661
H298	H	1.097039	0.027264	0.771661
H299	H	0.597190	-1.045124	0.271809
H300	H	1.097190	-0.545124	0.771809
H301	H	0.262309	-0.135546	0.224558
H302	H	0.762309	0.364454	0.724558
H303	H	0.177191	-0.135550	0.224571
H304	H	0.677191	0.364450	0.724571
H305	H	0.262332	-0.297473	0.491368
H306	H	0.762332	0.202527	0.991368
H307	H	0.730019	-0.829108	0.491851
H308	H	1.230019	-0.329108	0.991851
H309	H	0.177226	-0.297479	0.491387
H310	H	0.677226	0.202521	0.991387
H311	H	0.597020	-0.387614	0.271642
H312	H	1.097020	0.112386	0.771642
H313	H	0.669434	-0.292094	0.904730
H314	H	1.169434	0.207906	1.404730
