data_functionalizedCrystal
_audit_creation_method	'MofGen! by Chris Wilmer'
_symmetry_space_group_name_H-M	'P1'
_symmetry_Int_Tables_number	1
_symmetry_cell_setting	triclinic
loop_
_symmetry_equiv_pos_as_xyz
  x,y,z
_cell_length_a	8.559649
_cell_length_b	11.792254
_cell_length_c	7.088929
_cell_angle_alpha	83.733108
_cell_angle_beta	95.325015
_cell_angle_gamma	76.988631
loop_
_atom_site_label
_atom_site_type_symbol
_atom_site_fract_x
_atom_site_fract_y
_atom_site_fract_z
O1	O	2.103507	-0.025390	-0.158956
O2	O	2.603507	0.474610	0.341044
O3	O	1.638813	0.033181	-0.158967
O4	O	2.138813	0.533181	0.341033
O5	O	1.882428	-0.162306	-0.158948
O6	O	2.382428	0.337694	0.341052
O7	O	1.859892	0.170098	-0.158976
O8	O	2.359892	0.670098	0.341024
O9	O	1.914984	-0.188484	0.159030
O10	O	2.414984	0.311516	0.659030
O11	O	1.671369	0.007004	0.159010
O12	O	2.171369	0.507004	0.659010
O13	O	2.136063	-0.051567	0.159022
O14	O	2.636063	0.448433	0.659022
Cu15	Cu	1.906689	-0.024672	0.188050
Cu16	Cu	2.406689	0.475328	0.688050
Cu17	Cu	1.868187	0.006286	-0.187996
Cu18	Cu	2.368187	0.506286	0.312004
O19	O	1.892448	0.143920	0.159002
O20	O	2.392448	0.643920	0.659002
C21	C	1.595600	0.024531	0.000020
C22	C	2.095600	0.524531	0.500020
C23	C	1.418335	0.037743	0.000016
C24	C	1.918335	0.537743	0.500016
C25	C	1.897286	-0.217556	0.000040
C26	C	2.397286	0.282444	0.500040
C27	C	1.893038	-0.343180	0.000038
C28	C	2.393038	0.156820	0.500038
C29	C	1.889585	-0.445200	0.000031
C30	C	2.389585	0.054800	0.500031
C31	C	1.885267	-0.573190	0.000014
C32	C	2.385267	-0.073190	0.500014
C33	C	2.179276	-0.042917	0.000030
C34	C	2.679276	0.457083	0.500030
C35	C	2.356540	-0.056128	0.000021
C36	C	2.856540	0.443872	0.500021
C37	C	1.877589	0.199170	0.000010
C38	C	2.377589	0.699170	0.500010
C39	C	1.881837	0.324795	-0.000001
C40	C	2.381837	0.824795	0.499999
N41	N	1.933780	-0.046448	0.452540
N42	N	2.433780	0.453552	0.952540
N43	N	1.841108	0.028052	-0.452486
N44	N	2.341108	0.528052	0.047514
H45	H	1.439247	-0.146602	0.000019
H46	H	1.939247	0.353398	0.500019
N47	N	1.308812	0.157610	0.000013
N48	N	1.808812	0.657610	0.500013
H49	H	1.226830	0.177099	-0.117861
H50	H	1.726830	0.677099	0.382139
H51	H	1.251085	0.157598	0.117966
H52	H	1.751085	0.657598	0.617966
H53	H	2.029842	-0.123650	0.534204
H54	H	2.529842	0.376350	1.034204
N55	N	1.713883	0.130321	0.439371
N56	N	2.213883	0.630321	0.939371
H57	H	1.715791	0.128776	0.297421
H58	H	2.215791	0.628776	0.797421
H59	H	1.604018	0.124310	0.474281
H60	H	2.104018	0.624310	0.974281
