data_functionalizedCrystal
_audit_creation_method	'MofGen! by Chris Wilmer'
_symmetry_space_group_name_H-M	'P1'
_symmetry_Int_Tables_number	1
_symmetry_cell_setting	triclinic
loop_
_symmetry_equiv_pos_as_xyz
  x,y,z
_cell_length_a	8.497374
_cell_length_b	8.497374
_cell_length_c	15.297475
_cell_angle_alpha	99.693313
_cell_angle_beta	99.665776
_cell_angle_gamma	90.005237
loop_
_atom_site_label
_atom_site_type_symbol
_atom_site_fract_x
_atom_site_fract_y
_atom_site_fract_z
Zn1	Zn	1.308968	1.046486	1.379243
Zn2	Zn	1.045232	1.310230	1.379236
Zn3	Zn	0.999609	1.000732	1.228416
Zn4	Zn	1.263373	1.264484	1.228394
O5	O	1.154295	1.155483	1.303822
O6	O	1.312158	1.119765	1.505491
O7	O	0.818419	1.269171	1.359235
O8	O	1.040635	0.786043	1.248435
O9	O	1.118392	1.313537	1.505486
O10	O	1.267920	0.819658	1.359247
O11	O	0.784901	1.041784	1.248428
O12	O	0.996423	0.997426	1.102163
O13	O	1.490181	1.235570	1.248398
O14	O	1.190209	1.191204	1.102147
O15	O	1.523680	1.075408	1.359226
O16	O	1.074180	1.524920	1.359214
O17	O	1.234447	1.491311	1.248391
C18	C	1.083419	1.084387	1.069420
C19	C	1.053135	1.054010	0.969142
C20	C	1.565774	1.155483	1.303815
C21	C	1.744418	1.155501	1.303817
C22	C	1.154315	1.565359	1.303811
C23	C	1.154296	1.744011	1.303835
C24	C	1.370743	1.372604	0.686542
C25	C	1.399192	1.401156	0.780758
C26	C	1.312681	1.314372	0.827859
C27	C	1.197715	1.199031	0.780734
C28	C	1.169254	1.170484	0.686509
C29	C	1.111192	1.112252	0.827825
C30	C	0.996226	0.996911	0.780700
C31	C	0.967772	0.968369	0.686484
C32	C	1.054283	1.055153	0.639384
C33	C	1.139652	1.140799	0.922051
C34	C	0.938163	0.938679	0.922017
C35	C	0.909715	0.910127	0.827801
C36	C	1.225450	1.226857	1.539139
C37	C	1.255771	1.257273	1.639417
H38	H	1.233260	1.234710	0.960411
H39	H	1.031129	1.031909	0.562665
H40	H	1.335851	1.337626	0.904574
C41	C	1.525599	1.528059	0.832593
H42	H	1.530133	1.532657	0.895452
H43	H	1.626990	1.500519	0.817175
H44	H	1.497627	1.629326	0.817141
H45	H	0.816108	0.816215	0.789419
H46	H	1.441158	1.443261	0.648184
H47	H	0.874142	0.874467	0.648118
H48	H	0.867716	0.868015	0.960366
