data_functionalizedCrystal
_audit_creation_method	'MofGen! by Chris Wilmer'
_symmetry_space_group_name_H-M	'P1'
_symmetry_Int_Tables_number	1
_symmetry_cell_setting	triclinic
loop_
_symmetry_equiv_pos_as_xyz
  x,y,z
_cell_length_a	12.811457
_cell_length_b	11.792241
_cell_length_c	11.295483
_cell_angle_alpha	94.123059
_cell_angle_beta	91.289320
_cell_angle_gamma	84.118185
loop_
_atom_site_label
_atom_site_type_symbol
_atom_site_fract_x
_atom_site_fract_y
_atom_site_fract_z
O1	O	1.389904	0.156789	0.051074
O2	O	1.086741	0.170898	0.018332
O3	O	1.245679	-0.001280	0.035506
O4	O	1.230966	0.328966	0.033900
O5	O	1.231719	0.013819	0.232048
O6	O	1.072781	0.185997	0.214875
O7	O	1.375944	0.171888	0.247616
Cu8	Cu	1.223088	0.180321	0.249191
Cu9	Cu	1.239597	0.162465	0.016757
O10	O	1.217006	0.344066	0.230443
C11	C	1.040950	0.177194	0.112412
C12	C	0.925304	0.173446	0.099922
C13	C	0.692772	0.182844	0.290747
C14	C	0.584112	0.179323	0.279018
C15	C	0.599322	0.162873	0.064736
C16	C	0.707982	0.166395	0.076465
C17	C	0.754703	0.176382	0.189474
C18	C	0.863364	0.179912	0.201202
C19	C	0.878573	0.163454	-0.013079
C20	C	0.769913	0.159932	-0.024808
C21	C	1.237775	-0.036027	0.133677
C22	C	1.235009	-0.162059	0.133377
C23	C	1.229923	-0.392804	0.132808
C24	C	1.232749	-0.264401	0.133124
C25	C	1.421736	0.165591	0.153534
C26	C	1.537383	0.169339	0.166016
C27	C	1.224911	0.378813	0.132269
C28	C	1.227678	0.504843	0.132561
N29	N	1.211484	0.192880	0.412674
N30	N	1.251210	0.149897	-0.146724
C31	C	1.334743	0.059429	0.675282
C32	C	1.325981	0.068928	0.798999
C33	C	1.185194	0.221370	0.783826
C34	C	1.193956	0.211871	0.660109
C35	C	1.268734	0.130899	0.605842
C36	C	1.277500	0.121407	0.482123
C37	C	1.136709	0.273843	0.466953
C38	C	1.127947	0.283342	0.590669
H39	H	0.929008	0.158199	-0.095543
H40	H	1.067061	0.349265	0.634868
H41	H	0.561265	0.154722	-0.027271
H42	H	1.082963	0.332042	0.410400
H43	H	0.731858	0.151795	-0.116817
H44	H	0.901402	0.188051	0.293220
O45	O	1.350023	0.042578	0.429472
C46	C	1.412619	-0.156878	0.398224
C47	C	1.330410	-0.067709	0.457873
H48	H	1.396804	-0.246063	0.421185
H49	H	1.407572	-0.151526	0.297853
H50	H	1.494399	-0.139039	0.431545
H51	H	1.248594	-0.085489	0.424648
H52	H	1.335551	-0.073081	0.558238
O53	O	0.738001	0.192502	0.400606
C54	C	0.711442	0.208527	0.611907
C55	C	0.660091	0.197566	0.487563
H56	H	0.648473	0.212648	0.682244
H57	H	0.770984	0.131313	0.623816
H58	H	0.752887	0.289823	0.621707
H59	H	0.618589	0.116315	0.477676
H60	H	0.600605	0.274838	0.475709
O61	O	1.112461	0.300034	0.836358
C62	C	0.973760	0.450255	0.808271
C63	C	1.056075	0.361208	0.748625
H64	H	0.928164	0.499754	0.737368
H65	H	0.917285	0.405019	0.860503
H66	H	1.014951	0.511971	0.871119
H67	H	1.014974	0.299466	0.685722
H68	H	1.112544	0.406520	0.696468
O69	O	1.407274	-0.019361	0.622587
C70	C	1.469947	-0.218784	0.591206
C71	C	1.387724	-0.129685	0.650933
H72	H	1.454183	-0.307999	0.614121
H73	H	1.464860	-0.213379	0.490842
H74	H	1.551726	-0.200920	0.624506
H75	H	1.305908	-0.147491	0.617729
H76	H	1.392903	-0.135111	0.751289
O77	O	0.523824	0.185743	0.377304
C78	C	0.381111	0.289464	0.487247
C79	C	0.449293	0.282319	0.375870
H80	H	0.320851	0.367553	0.486138
H81	H	0.338867	0.209018	0.488098
H82	H	0.433200	0.297148	0.570012
H83	H	0.397280	0.274672	0.293046
H84	H	0.491547	0.362766	0.375124
H85	H	1.379730	0.010728	0.855534
