data_functionalizedCrystal
_audit_creation_method	'MofGen! by Chris Wilmer'
_symmetry_space_group_name_H-M	'P1'
_symmetry_Int_Tables_number	1
_symmetry_cell_setting	triclinic
loop_
_symmetry_equiv_pos_as_xyz
  x,y,z
_cell_length_a	18.050591
_cell_length_b	16.625546
_cell_length_c	18.050582
_cell_angle_alpha	89.976222
_cell_angle_beta	89.979078
_cell_angle_gamma	90.018474
loop_
_atom_site_label
_atom_site_type_symbol
_atom_site_fract_x
_atom_site_fract_y
_atom_site_fract_z
Zn1	Zn	1.135322	-0.321139	-0.420025
Zn2	Zn	1.468656	0.012195	-0.086692
Zn3	Zn	1.801989	0.345528	0.246641
Zn4	Zn	1.135245	-0.455966	-0.295833
Zn5	Zn	1.468579	-0.122633	0.037501
Zn6	Zn	1.801912	0.210700	0.370834
Zn7	Zn	1.011141	-0.321142	-0.295836
Zn8	Zn	1.344475	0.012191	0.037497
Zn9	Zn	1.677808	0.345525	0.370830
Zn10	Zn	1.011102	-0.455924	-0.419968
Zn11	Zn	1.344435	-0.122590	-0.086635
Zn12	Zn	1.677769	0.210743	0.246699
O13	O	1.073203	-0.388543	-0.357916
O14	O	1.406536	-0.055209	-0.024582
O15	O	1.739869	0.278124	0.308751
O16	O	1.239237	-0.339040	-0.403573
O17	O	1.572570	-0.005707	-0.070240
O18	O	1.905903	0.327626	0.263094
O19	O	1.118767	-0.438101	-0.191908
O20	O	1.452100	-0.104767	0.141425
O21	O	1.785434	0.228566	0.474758
O22	O	1.027663	-0.208309	-0.312336
O23	O	1.360996	0.125024	0.020998
O24	O	1.694330	0.458358	0.354331
O25	O	1.239180	-0.438098	-0.312329
O26	O	1.572513	-0.104764	0.021004
O27	O	1.905847	0.228569	0.354337
O28	O	1.118898	-0.208307	-0.403577
O29	O	1.452231	0.125027	-0.070243
O30	O	1.785565	0.458360	0.263090
O31	O	1.027588	-0.339046	-0.191911
O32	O	1.360922	-0.005713	0.141422
O33	O	1.694255	0.327621	0.474756
O34	O	0.907212	-0.339005	-0.312280
O35	O	1.240545	-0.005671	0.021053
O36	O	1.573878	0.327662	0.354386
O37	O	1.027596	-0.438025	-0.523900
O38	O	1.360929	-0.104692	-0.190567
O39	O	1.694262	0.228642	0.142766
O40	O	0.907183	-0.438028	-0.403479
O41	O	1.240516	-0.104695	-0.070146
O42	O	1.573849	0.228639	0.263187
O43	O	1.118860	-0.338999	-0.523942
O44	O	1.452193	-0.005666	-0.190609
O45	O	1.785526	0.327668	0.142724
O46	O	1.118729	-0.568793	-0.312274
O47	O	1.452062	-0.235460	0.021059
O48	O	1.785395	0.097874	0.354393
O49	O	1.027521	-0.568762	-0.403476
O50	O	1.360854	-0.235428	-0.070142
O51	O	1.694188	0.097905	0.263191
C52	C	1.073132	-0.598034	-0.357884
C53	C	1.406466	-0.264700	-0.024551
C54	C	1.739799	0.068633	0.308782
C55	C	1.073170	-0.687655	-0.357896
C56	C	1.406504	-0.354321	-0.024563
C57	C	1.739837	-0.020988	0.308771
C58	C	0.880251	-0.388513	-0.357874
C59	C	1.213584	-0.055179	-0.024541
C60	C	1.546917	0.278154	0.308792
C61	C	0.797705	-0.388519	-0.357875
C62	C	1.131038	-0.055186	-0.024541
C63	C	1.464371	0.278147	0.308792
C64	C	1.073300	-1.015830	-0.357973
C65	C	1.406633	-0.682497	-0.024640
C66	C	1.739967	-0.349164	0.308693
C67	C	1.073261	-0.924522	-0.357954
C68	C	1.406595	-0.591188	-0.024621
C69	C	1.739928	-0.257855	0.308713
C70	C	1.073235	-0.851745	-0.357934
C71	C	1.406568	-0.518412	-0.024601
C72	C	1.739901	-0.185079	0.308732
C73	C	1.073197	-0.760431	-0.357916
C74	C	1.406531	-0.427098	-0.024582
C75	C	1.739864	-0.093764	0.308751
C76	C	0.598248	-0.334608	-0.308395
C77	C	0.931582	-0.001274	0.024939
C78	C	1.264915	0.332059	0.358272
C79	C	0.548836	-0.408150	-0.290117
C80	C	0.882169	-0.074816	0.043216
C81	C	1.215502	0.258517	0.376549
C82	C	0.646574	-0.388544	-0.357908
C83	C	0.979908	-0.055210	-0.024575
C84	C	1.313241	0.278123	0.308759
C85	C	0.548906	-0.315027	-0.376184
C86	C	0.882239	0.018306	-0.042850
C87	C	1.215572	0.351639	0.290483
C88	C	0.500589	-0.388561	-0.357939
C89	C	0.833923	-0.055227	-0.024606
C90	C	1.167256	0.278106	0.308728
C91	C	0.598249	-0.462124	-0.339595
C92	C	0.931582	-0.128791	-0.006262
C93	C	1.264915	0.204543	0.327071
C94	C	0.598323	-0.368952	-0.425693
C95	C	0.931657	-0.035619	-0.092360
C96	C	1.264990	0.297714	0.240973
C97	C	0.548933	-0.442545	-0.407441
C98	C	0.882266	-0.109212	-0.074108
C99	C	1.215599	0.224122	0.259225
C100	C	0.730673	-0.388533	-0.357888
C101	C	1.064006	-0.055199	-0.024555
C102	C	1.397339	0.278134	0.308778
C103	C	0.416493	-0.388580	-0.357959
C104	C	0.749826	-0.055247	-0.024626
C105	C	1.083159	0.278087	0.308708
C106	C	1.266908	-0.388573	-0.357957
C107	C	1.600242	-0.055240	-0.024624
C108	C	1.933575	0.278093	0.308709
C109	C	1.349454	-0.388586	-0.357975
C110	C	1.682787	-0.055253	-0.024642
C111	C	2.016121	0.278080	0.308692
C112	C	1.073232	-0.388507	-0.551621
C113	C	1.406565	-0.055174	-0.218288
C114	C	1.739898	0.278160	0.115045
C115	C	1.073244	-0.388492	-0.634167
C116	C	1.406578	-0.055158	-0.300834
C117	C	1.739911	0.278175	0.032500
C118	C	1.073294	-0.178234	-0.357963
C119	C	1.406627	0.155100	-0.024630
C120	C	1.739960	0.488433	0.308704
C121	C	1.073332	-0.088613	-0.357983
C122	C	1.406666	0.244721	-0.024650
C123	C	1.739999	0.578054	0.308683
C124	C	1.023653	-0.442268	-0.833595
C125	C	1.356986	-0.108935	-0.500262
C126	C	1.690319	0.224398	-0.166928
C127	C	1.091410	-0.461983	-0.882993
C128	C	1.424743	-0.128650	-0.549660
C129	C	1.758076	0.204684	-0.216326
C130	C	1.073281	-0.388430	-0.785297
C131	C	1.406614	-0.055097	-0.451964
C132	C	1.739948	0.278237	-0.118631
C133	C	1.005561	-0.368693	-0.882981
C134	C	1.338894	-0.035360	-0.549648
C135	C	1.672228	0.297974	-0.216315
C136	C	1.073310	-0.388372	-0.931283
C137	C	1.406644	-0.055039	-0.597949
C138	C	1.739977	0.278294	-0.264616
C139	C	1.141073	-0.408183	-0.833608
C140	C	1.474407	-0.074850	-0.500275
C141	C	1.807740	0.258483	-0.166942
C142	C	1.055179	-0.314859	-0.833592
C143	C	1.388512	0.018474	-0.500259
C144	C	1.721846	0.351807	-0.166925
C145	C	1.122983	-0.334546	-0.882968
C146	C	1.456316	-0.001213	-0.549635
C147	C	1.789649	0.332121	-0.216301
C148	C	1.073263	-0.388466	-0.701199
C149	C	1.406596	-0.055132	-0.367866
C150	C	1.739930	0.278201	-0.034532
C151	C	1.073336	-0.388337	-1.015379
C152	C	1.406669	-0.055003	-0.682046
C153	C	1.740002	0.278330	-0.348713
C154	C	1.073216	-0.388520	-0.164963
C155	C	1.406550	-0.055187	0.168370
C156	C	1.739883	0.278147	0.501703
C157	C	1.073348	-0.388308	-0.082418
C158	C	1.406681	-0.054975	0.250915
C159	C	1.740015	0.278358	0.584249
H160	H	0.619902	-0.289045	-0.266477
H161	H	0.953235	0.044288	0.066856
H162	H	1.286569	0.377622	0.400189
H163	H	1.165013	-0.288992	-0.904509
H164	H	1.498346	0.044341	-0.571176
H165	H	1.831679	0.377675	-0.237843
H166	H	0.620077	-0.352347	-0.482987
H167	H	0.953411	-0.019013	-0.149654
H168	H	1.286744	0.314320	0.183679
H169	H	0.619833	-0.524322	-0.324087
H170	H	0.953166	-0.190988	0.009246
H171	H	1.286500	0.142345	0.342580
N172	N	0.933701	-0.347765	-0.910174
N173	N	1.267034	-0.014431	-0.576841
N174	N	1.600367	0.318902	-0.243508
N175	N	0.905572	-0.281520	-0.893450
N176	N	1.238905	0.051813	-0.560117
N177	N	1.572238	0.385146	-0.226783
H178	H	0.854819	-0.266744	-0.912652
H179	H	1.188152	0.066589	-0.579318
H180	H	1.521485	0.399923	-0.245985
N181	N	1.035919	-0.236861	-0.806355
N182	N	1.369253	0.096473	-0.473022
N183	N	1.702586	0.429806	-0.139689
N184	N	0.974445	-0.206820	-0.822144
N185	N	1.307778	0.126513	-0.488810
N186	N	1.641112	0.459847	-0.155477
H187	H	0.960835	-0.151732	-0.802908
H188	H	1.294168	0.181601	-0.469574
H189	H	1.627502	0.514934	-0.136241
H190	H	1.106738	-0.524176	-0.904692
H191	H	1.440072	-0.190842	-0.571359
H192	H	1.773405	0.142491	-0.238026
N193	N	0.521564	-0.428939	-0.218220
N194	N	0.854897	-0.095605	0.115114
N195	N	1.188230	0.237728	0.448447
N196	N	0.481049	-0.380904	-0.183649
N197	N	0.814383	-0.047571	0.149685
N198	N	1.147716	0.285763	0.483018
H199	H	0.461792	-0.395580	-0.132869
H200	H	0.795125	-0.062247	0.200465
H201	H	1.128458	0.271086	0.533798
N202	N	0.521945	-0.499843	-0.459985
N203	N	0.855279	-0.166510	-0.126651
N204	N	1.188612	0.166823	0.206682
N205	N	0.537913	-0.572611	-0.453062
N206	N	0.871246	-0.239278	-0.119729
N207	N	1.204579	0.094056	0.213604
H208	H	0.518853	-0.613081	-0.490168
H209	H	0.852186	-0.279747	-0.156835
H210	H	1.185519	0.053586	0.176498
H211	H	0.981723	-0.487857	-0.811917
H212	H	1.315057	-0.154524	-0.478584
H213	H	1.648390	0.178809	-0.145251
N214	N	0.521714	-0.237023	-0.395551
N215	N	0.855048	0.096310	-0.062217
N216	N	1.188381	0.429644	0.271116
N217	N	0.537523	-0.177577	-0.356233
N218	N	0.870856	0.155757	-0.022900
N219	N	1.204189	0.489090	0.310433
H220	H	0.518320	-0.122484	-0.369905
H221	H	0.851654	0.210849	-0.036572
H222	H	1.184987	0.544183	0.296762
H223	H	1.198372	-0.424923	-0.812011
H224	H	1.531706	-0.091590	-0.478678
H225	H	1.865039	0.241743	-0.145345
