data_functionalizedCrystal
_audit_creation_method	'MofGen! by Chris Wilmer'
_symmetry_space_group_name_H-M	'P1'
_symmetry_Int_Tables_number	1
_symmetry_cell_setting	triclinic
loop_
_symmetry_equiv_pos_as_xyz
  x,y,z
_cell_length_a	12.827893
_cell_length_b	29.839131
_cell_length_c	12.827885
_cell_angle_alpha	90.043697
_cell_angle_beta	90.019272
_cell_angle_gamma	90.040572
loop_
_atom_site_label
_atom_site_type_symbol
_atom_site_fract_x
_atom_site_fract_y
_atom_site_fract_z
Zn1	Zn	-1.597487	0.178832	-0.590748
Zn2	Zn	-1.597304	0.253969	-0.415965
Zn3	Zn	-1.422728	0.178854	-0.416021
Zn4	Zn	-1.422636	0.253936	-0.590665
O5	O	-1.510039	0.216398	-0.503350
O6	O	-1.743698	0.188804	-0.567573
O7	O	-1.574108	0.244028	-0.269737
O8	O	-1.446025	0.115984	-0.439257
O9	O	-1.743564	0.244007	-0.439162
O10	O	-1.574419	0.115968	-0.567627
O11	O	-1.445848	0.188841	-0.269778
O12	O	-1.276480	0.188809	-0.439177
O13	O	-1.445869	0.243950	-0.736912
O14	O	-1.276412	0.243971	-0.567487
O15	O	-1.574330	0.188771	-0.736973
O16	O	-1.574019	0.316832	-0.439082
O17	O	-1.445691	0.316807	-0.567433
C18	C	-1.238529	0.216389	-0.503330
C19	C	-1.122376	0.216396	-0.503346
C20	C	-1.509854	0.333120	-0.503266
C21	C	-1.509870	0.383055	-0.503264
C22	C	-1.782609	0.216407	-0.503371
C23	C	-1.898762	0.216410	-0.503379
C24	C	-1.510110	0.216354	-0.775920
C25	C	-1.510140	0.216336	-0.892073
C26	C	-1.070585	0.243735	-0.566740
C27	C	-0.950535	0.243743	-0.566759
C28	C	-1.576775	0.692655	-0.570303
C29	C	-1.576848	0.880328	-0.570371
O30	O	-1.633628	0.904556	-0.627297
N31	N	-1.510066	0.903840	-0.503488
C32	C	-1.443257	0.880430	-0.436586
O33	O	-1.386449	0.904735	-0.379707
C34	C	-1.443180	0.692758	-0.436524
C35	C	-1.509973	0.669249	-0.503405
C36	C	-1.643562	0.669145	-0.637179
C37	C	-1.643547	0.622230	-0.637157
C38	C	-1.576746	0.598824	-0.570259
C39	C	-1.509959	0.622333	-0.503383
C40	C	-1.376366	0.669350	-0.369629
C41	C	-1.376351	0.622429	-0.369621
C42	C	-1.443144	0.598919	-0.436502
C43	C	-1.443142	0.552012	-0.436463
N44	N	-1.509923	0.528500	-0.503347
C45	C	-1.576725	0.551906	-0.570245
C46	C	-1.443304	0.978961	-0.436623
C47	C	-1.443324	1.025879	-0.436637
C48	C	-1.576913	1.025773	-0.570423
C49	C	-1.576898	0.978854	-0.570403
C50	C	-1.510085	0.955449	-0.503507
C51	C	-1.576690	0.453380	-0.570193
C52	C	-1.576672	0.406461	-0.570162
C53	C	-1.443079	0.406571	-0.436380
C54	C	-1.443100	0.453486	-0.436407
C55	C	-1.509909	0.476890	-0.503322
O56	O	-1.386383	0.527755	-0.379575
O57	O	-1.633508	0.527593	-0.627133
C58	C	-1.576790	0.739570	-0.570325
C59	C	-1.510003	0.763080	-0.503448
C60	C	-1.443201	0.739674	-0.436550
C61	C	-1.510023	0.809998	-0.503463
C62	C	-1.576825	0.833403	-0.570361
C63	C	-1.643607	0.809892	-0.637245
C64	C	-1.643592	0.762976	-0.637223
C65	C	-1.376420	0.763186	-0.369666
C66	C	-1.376441	0.810101	-0.369693
C67	C	-1.443242	0.833507	-0.436591
C68	C	-1.510198	1.099219	-0.503465
C69	C	-1.510126	1.049285	-0.503535
C70	C	-1.446626	0.243609	-1.063873
C71	C	-1.446594	0.243629	-0.943822
C72	C	-1.510028	0.216408	-0.231840
C73	C	-1.510200	0.216300	-0.115687
H74	H	-0.905996	0.267150	-0.621030
O75	O	-1.708324	0.740093	-0.702249
C76	C	-1.722290	0.687091	-0.843391
C77	C	-1.648862	0.712965	-0.769792
H78	H	-1.674243	0.665159	-0.898034
H79	H	-1.776942	0.665093	-0.795521
H80	H	-1.770053	0.711894	-0.891155
H81	H	-1.601031	0.688194	-0.722013
H82	H	-1.594279	0.734970	-0.817723
H83	H	-1.077839	0.192995	-0.449090
O84	O	-1.574996	0.188357	-1.062640
C85	C	-1.625863	0.111959	-1.029173
C86	C	-1.552399	0.143554	-1.089289
H87	H	-1.607634	0.075729	-1.050713
H88	H	-1.614271	0.116900	-0.941799
H89	H	-1.710131	0.119862	-1.050558
H90	H	-1.468103	0.135670	-1.067991
H91	H	-1.564081	0.138607	-1.176648
H92	H	-0.943294	0.193005	-0.449099
H93	H	-1.392220	0.266974	-1.108389
O94	O	-1.378259	0.956279	-0.371678
C95	C	-1.200520	0.942004	-0.320806
C96	C	-1.274060	0.967724	-0.394410
H97	H	-1.116260	0.951240	-0.339173
H98	H	-1.218847	0.951268	-0.236550
H99	H	-1.212017	0.904433	-0.332252
H100	H	-1.262604	1.005300	-0.383057
H101	H	-1.255715	0.958422	-0.478639
O102	O	-1.311379	0.692110	-0.304631
C103	C	-1.178900	0.687243	-0.171910
C104	C	-1.252435	0.661413	-0.245486
H105	H	-1.131241	0.662435	-0.124056
H106	H	-1.124167	0.709196	-0.219798
H107	H	-1.226916	0.709226	-0.117351
H108	H	-1.204503	0.639405	-0.300060
H109	H	-1.307171	0.639488	-0.197532
O110	O	-1.381692	0.271481	-0.890511
C111	C	-1.322559	0.296929	-0.722248
C112	C	-1.396098	0.265355	-0.782494
H113	H	-1.334197	0.291994	-0.634906
H114	H	-1.238273	0.289041	-0.743568
H115	H	-1.340819	0.333155	-0.743680
H116	H	-1.377933	0.229119	-0.761095
H117	H	-1.480363	0.273282	-0.761169
H118	H	-1.564574	0.192956	-0.936626
O119	O	-1.708513	0.691927	-0.702022
C120	C	-1.849685	0.744805	-0.716221
C121	C	-1.776165	0.719046	-0.642672
H122	H	-1.904415	0.766730	-0.668265
H123	H	-1.801760	0.766800	-0.770821
H124	H	-1.897360	0.719927	-0.764032
H125	H	-1.728475	0.743892	-0.594793
H126	H	-1.824150	0.697044	-0.588140
H127	H	-1.115122	0.267133	-0.621004
H128	H	-1.321941	0.603375	-0.315147
O129	O	-1.641443	0.383644	-0.635287
C130	C	-1.692106	0.369223	-0.813084
C131	C	-1.618677	0.395080	-0.739453
H132	H	-1.673740	0.378466	-0.897316
H133	H	-1.680623	0.331663	-0.801673
H134	H	-1.776376	0.378421	-0.794760
H135	H	-1.534379	0.385920	-0.757732
H136	H	-1.630250	0.432634	-0.750877
O137	O	-1.641438	0.476132	-0.635301
C138	C	-1.655457	0.529057	-0.776391
C139	C	-1.582008	0.503310	-0.702747
H140	H	-1.607438	0.551043	-0.830925
H141	H	-1.703168	0.504211	-0.824258
H142	H	-1.710155	0.551002	-0.728449
H143	H	-1.527246	0.481364	-0.750607
H144	H	-1.534370	0.528180	-0.654877
O145	O	-1.708277	0.599348	-0.702187
C146	C	-1.722234	0.546349	-0.843338
C147	C	-1.648811	0.572221	-0.769731
H148	H	-1.674184	0.524418	-0.897980
H149	H	-1.776889	0.524350	-0.795474
H150	H	-1.769994	0.571153	-0.891101
H151	H	-1.600983	0.547449	-0.721951
H152	H	-1.594225	0.594227	-0.817655
O153	O	-1.641805	0.956089	-0.635477
C154	C	-1.774349	0.960948	-0.768135
C155	C	-1.700879	0.986783	-0.694502
H156	H	-1.822145	0.985753	-0.815860
H157	H	-1.726381	0.938995	-0.822802
H158	H	-1.828967	0.938966	-0.720191
H159	H	-1.646246	1.008790	-0.742361
H160	H	-1.748912	1.008708	-0.639832
H161	H	-1.388693	0.387506	-0.381909
O162	O	-1.641704	1.048583	-0.635380
C163	C	-1.700953	1.120823	-0.694647
C164	C	-1.627522	1.095044	-0.621046
H165	H	-1.689529	1.158390	-0.683068
H166	H	-1.682539	1.111607	-0.778914
H167	H	-1.785218	1.111550	-0.676395
H168	H	-1.543233	1.104302	-0.639204
H169	H	-1.646026	1.104261	-0.536802
O170	O	-1.378126	0.476257	-0.371402
C171	C	-1.245661	0.471404	-0.238664
C172	C	-1.319184	0.445565	-0.312236
H173	H	-1.198003	0.446602	-0.190793
H174	H	-1.190926	0.493354	-0.286557
H175	H	-1.293686	0.493390	-0.184120
H176	H	-1.271243	0.423555	-0.366794
H177	H	-1.373922	0.423644	-0.264278
O178	O	-1.378394	1.048762	-0.371808
C179	C	-1.237274	1.101763	-0.357646
C180	C	-1.310768	1.075887	-0.431176
H181	H	-1.182565	1.123692	-0.405616
H182	H	-1.285222	1.123763	-0.303062
H183	H	-1.189576	1.076960	-0.309815
H184	H	-1.358481	1.100657	-0.479075
H185	H	-1.262760	1.053880	-0.485691
H186	H	-1.698003	0.828957	-0.691712
O187	O	-1.311455	0.832866	-0.304685
C188	C	-1.178981	0.828006	-0.171957
C189	C	-1.252511	0.802172	-0.245530
H190	H	-1.131321	0.803201	-0.124096
H191	H	-1.124247	0.849957	-0.219850
H192	H	-1.227000	0.849991	-0.117406
H193	H	-1.204576	0.780162	-0.300096
H194	H	-1.307248	0.780249	-0.197573
H195	H	-1.322020	0.744132	-0.315191
