data_functionalizedCrystal
_audit_creation_method	'MofGen! by Chris Wilmer'
_symmetry_space_group_name_H-M	'P1'
_symmetry_Int_Tables_number	1
_symmetry_cell_setting	triclinic
loop_
_symmetry_equiv_pos_as_xyz
  x,y,z
_cell_length_a	18.050582
_cell_length_b	12.594517
_cell_length_c	12.594516
_cell_angle_alpha	90.015853
_cell_angle_beta	89.983292
_cell_angle_gamma	89.984776
loop_
_atom_site_label
_atom_site_type_symbol
_atom_site_fract_x
_atom_site_fract_y
_atom_site_fract_z
Zn1	Zn	-0.419949	1.627203	-0.423815
Zn2	Zn	-0.295772	1.627113	-0.601796
Zn3	Zn	-0.295772	1.449226	-0.423831
Zn4	Zn	-0.419919	1.449189	-0.601752
O5	O	-0.357853	1.538183	-0.512799
O6	O	-0.403488	1.776137	-0.447437
O7	O	-0.191847	1.603493	-0.578214
O8	O	-0.312257	1.472888	-0.274884
O9	O	-0.312256	1.776070	-0.578199
O10	O	-0.403489	1.603647	-0.274872
O11	O	-0.191848	1.472800	-0.447464
O12	O	-0.312229	1.300275	-0.447421
O13	O	-0.523848	1.472825	-0.578123
O14	O	-0.403439	1.300248	-0.578138
O15	O	-0.523870	1.603611	-0.447394
O16	O	-0.312227	1.603458	-0.750736
O17	O	-0.403438	1.472738	-0.750703
C18	C	-0.357831	1.261642	-0.512777
C19	C	-0.357839	1.143336	-0.512794
C20	C	-0.308325	1.074067	-0.441600
C21	C	-0.290060	1.003259	-0.538684
C22	C	-0.376116	1.003345	-0.415757
C23	C	-0.339540	1.074086	-0.609929
C24	C	-0.425627	1.074179	-0.486937
C25	C	-0.407389	1.003403	-0.584088
C26	C	-0.551559	1.538224	-0.512751
C27	C	-0.634104	1.538242	-0.512731
C28	C	-0.833543	1.467175	-0.583725
C29	C	-0.882937	1.564288	-0.609743
C30	C	-0.785235	1.538294	-0.512650
C31	C	-0.882923	1.441235	-0.486603
C32	C	-0.931220	1.538337	-0.512574
C33	C	-0.833541	1.635458	-0.538719
C34	C	-0.833523	1.512340	-0.415534
C35	C	-0.882894	1.609520	-0.441515
C36	C	-0.701137	1.538269	-0.512697
C37	C	-1.015317	1.538373	-0.512527
C38	C	-0.164901	1.538202	-0.512769
C39	C	-0.082356	1.538391	-0.512489
C40	C	-0.357846	1.538113	-0.789340
C41	C	-0.357867	1.538180	-0.907645
C42	C	-0.357875	1.815803	-0.512821
C43	C	-0.357885	1.934109	-0.512830
C44	C	-0.407442	1.467075	-0.976919
C45	C	-0.339676	1.441152	-1.047768
C46	C	-0.425645	1.564200	-1.047595
C47	C	-0.290065	1.512206	-0.976936
C48	C	-0.376080	1.635299	-0.976756
C49	C	-0.308267	1.609413	-1.047574
C50	C	-0.357877	1.538282	-0.235178
C51	C	-0.357887	1.538324	-0.116872
H52	H	-0.232753	0.972108	-0.560577
C53	C	-0.911992	1.690881	-0.360272
C54	C	-0.960767	1.653888	-0.267024
C55	C	-0.989866	1.735251	-0.185787
C56	C	-0.970190	1.853607	-0.197799
C57	C	-0.921412	1.890605	-0.291051
C58	C	-0.892313	1.809242	-0.372288
H59	H	-0.975335	1.566269	-0.258129
H60	H	-1.025975	1.707862	-0.116755
H61	H	-0.991731	1.913837	-0.137662
H62	H	-0.906845	1.978224	-0.299946
H63	H	-0.856204	1.836632	-0.441319
H64	H	-0.324036	1.105030	-0.692032
C65	C	-0.804171	1.482615	-0.304660
C66	C	-0.720126	1.478112	-0.284179
C67	C	-0.690772	1.448375	-0.173305
C68	C	-0.745462	1.423140	-0.082911
C69	C	-0.829512	1.427642	-0.103389
C70	C	-0.858866	1.457379	-0.214263
H71	H	-0.679636	1.496794	-0.351097
H72	H	-0.628552	1.445042	-0.158147
H73	H	-0.723733	1.401126	-0.000835
H74	H	-0.870002	1.408961	-0.036471
H75	H	-0.921086	1.460712	-0.229421
C76	C	-0.396982	0.961366	-0.304879
C77	C	-0.342619	0.889813	-0.243580
C78	C	-0.363478	0.847837	-0.132701
C79	C	-0.438699	0.877414	-0.083119
C80	C	-0.493066	0.948971	-0.144418
C81	C	-0.472208	0.990947	-0.255298
H82	H	-0.286932	0.867915	-0.280283
H83	H	-0.323231	0.794866	-0.087324
H84	H	-0.454140	0.846341	-0.001039
H85	H	-0.548754	0.970869	-0.107715
H86	H	-0.512454	1.043918	-0.300674
H87	H	-0.482956	1.586150	-1.078632
C88	C	-0.912224	1.330326	-0.456871
C89	C	-0.892737	1.233705	-0.526445
C90	C	-0.922034	1.122794	-0.496722
C91	C	-0.970819	1.108504	-0.397425
C92	C	-0.990309	1.205128	-0.327845
C93	C	-0.961012	1.316039	-0.357567
H94	H	-0.856621	1.244280	-0.599956
H95	H	-0.907606	1.051267	-0.548231
H96	H	-0.992507	1.026402	-0.375423
H97	H	-1.026425	1.194553	-0.254334
H98	H	-0.975440	1.387567	-0.306059
H99	H	-0.266400	1.105094	-0.381452
H100	H	-0.232739	1.490161	-0.946027
H101	H	-0.324287	1.359087	-1.078983
C102	C	-0.503029	1.116274	-0.457321
C103	C	-0.570604	1.086809	-0.525862
C104	C	-0.648010	1.128891	-0.496231
C105	C	-0.657841	1.200438	-0.398060
C106	C	-0.590264	1.229907	-0.329513
C107	C	-0.512858	1.187825	-0.359144
H108	H	-0.563328	1.033842	-0.598540
H109	H	-0.698035	1.107076	-0.546975
H110	H	-0.715142	1.231590	-0.376125
H111	H	-0.597540	1.282874	-0.256835
H112	H	-0.462834	1.209640	-0.308400
H113	H	-0.904642	1.586266	-0.691840
C114	C	-0.463995	1.385703	-0.934995
C115	C	-0.546455	1.396376	-0.964445
C116	C	-0.603004	1.315002	-0.922519
C117	C	-0.577092	1.222955	-0.851141
C118	C	-0.494627	1.212278	-0.821687
C119	C	-0.438079	1.293652	-0.863613
H120	H	-0.565641	1.464518	-1.017287
H121	H	-0.664049	1.322907	-0.944324
H122	H	-0.618952	1.162718	-0.820105
H123	H	-0.475442	1.144136	-0.768845
H124	H	-0.377034	1.285747	-0.841808
C125	C	-0.804368	1.746406	-0.568563
C126	C	-0.720353	1.766874	-0.574158
C127	C	-0.691178	1.877819	-0.604000
C128	C	-0.746018	1.968296	-0.628247
C129	C	-0.830038	1.947830	-0.622653
C130	C	-0.859213	1.836885	-0.592811
H131	H	-0.679753	1.699895	-0.556208
H132	H	-0.628981	1.892969	-0.608140
H133	H	-0.724421	2.050424	-0.650337
H134	H	-0.870638	2.014809	-0.640603
H135	H	-0.921410	1.821736	-0.588670
H136	H	-0.266303	1.669606	-1.078402
H137	H	-0.811875	1.407088	-0.643909
C138	C	-0.396912	1.746138	-0.934580
C139	C	-0.349253	1.843168	-0.964001
C140	C	-0.370095	1.954006	-0.921823
C141	C	-0.438595	1.967815	-0.850225
C142	C	-0.486258	1.870781	-0.820800
C143	C	-0.465416	1.759942	-0.862978
H144	H	-0.298541	1.832949	-1.017006
H145	H	-0.334811	2.025837	-0.943606
H146	H	-0.454023	2.049864	-0.819002
H147	H	-0.536969	1.881000	-0.767796
H148	H	-0.500700	1.688112	-0.841196
H149	H	-0.449281	0.972571	-0.644380
