data_functionalizedCrystal
_audit_creation_method	'MofGen! by Chris Wilmer'
_symmetry_space_group_name_H-M	'P1'
_symmetry_Int_Tables_number	1
_symmetry_cell_setting	triclinic
loop_
_symmetry_equiv_pos_as_xyz
  x,y,z
_cell_length_a	21.395362
_cell_length_b	21.295417
_cell_length_c	21.395355
_cell_angle_alpha	89.978549
_cell_angle_beta	89.956060
_cell_angle_gamma	90.046383
loop_
_atom_site_label
_atom_site_type_symbol
_atom_site_fract_x
_atom_site_fract_y
_atom_site_fract_z
Zn1	Zn	0.957860	-0.250415	-0.354573
Zn2	Zn	0.957763	-0.355667	-0.249790
Zn3	Zn	0.853075	-0.250445	-0.249774
Zn4	Zn	0.853045	-0.355680	-0.354495
O5	O	0.905436	-0.303052	-0.302158
O6	O	1.045525	-0.264359	-0.340713
O7	O	0.943848	-0.341716	-0.162110
O8	O	0.867029	-0.162351	-0.263702
O9	O	1.045454	-0.341687	-0.263729
O10	O	0.944014	-0.162330	-0.340697
O11	O	0.866934	-0.264409	-0.162098
O12	O	0.765393	-0.264422	-0.263626
O13	O	0.866977	-0.341709	-0.442183
O14	O	0.765371	-0.341738	-0.340564
O15	O	0.943984	-0.264372	-0.442240
O16	O	0.943819	-0.443758	-0.263653
O17	O	0.866883	-0.443767	-0.340579
C18	C	0.742648	-0.303085	-0.302085
C19	C	0.673007	-0.303114	-0.302069
C20	C	0.640299	-0.343426	-0.342070
C21	C	0.574863	-0.343411	-0.342098
C22	C	0.542139	-0.303090	-0.302114
C23	C	0.574855	-0.262771	-0.262109
C24	C	0.640289	-0.262783	-0.262087
C25	C	0.438414	-0.298019	-0.245709
C26	C	0.372981	-0.298011	-0.245730
C27	C	0.340318	-0.303049	-0.302183
C28	C	0.373096	-0.308108	-0.358616
C29	C	0.438530	-0.308120	-0.358594
C30	C	0.471186	-0.303072	-0.302134
C31	C	0.236657	-0.343346	-0.342218
C32	C	0.171221	-0.343326	-0.342247
C33	C	0.171214	-0.262690	-0.262252
C34	C	0.236649	-0.262706	-0.262229
C35	C	0.269367	-0.303038	-0.302211
C36	C	0.905354	-0.466603	-0.302123
C37	C	0.905376	-0.536571	-0.302129
C38	C	0.945472	-0.569412	-0.262115
C39	C	0.945502	-0.635155	-0.262129
C40	C	0.905424	-0.668054	-0.302151
C41	C	0.865324	-0.635205	-0.342173
C42	C	0.865301	-0.569464	-0.342162
N43	N	0.850614	-0.771336	-0.306903
N44	N	0.850638	-0.833787	-0.306910
C45	C	0.905494	-0.866129	-0.302187
N46	N	0.960325	-0.833659	-0.297445
N47	N	0.960300	-0.771202	-0.297435
C48	C	0.905445	-0.739339	-0.302167
C49	C	0.945625	-0.970255	-0.262186
C50	C	0.945656	-1.035999	-0.262204
C51	C	0.865473	-1.036048	-0.342245
C52	C	0.865448	-0.970305	-0.342230
C53	C	0.905523	-0.937413	-0.302197
C54	C	1.068859	-0.303019	-0.302231
C55	C	1.138501	-0.303005	-0.302262
C56	C	0.905488	-0.303039	-0.465581
C57	C	0.905510	-0.303033	-0.535223
C58	C	0.905535	-0.138861	-0.302206
C59	C	0.905578	-0.068893	-0.302227
C60	C	0.945606	-0.262762	-0.567967
C61	C	0.945605	-0.262735	-0.633402
C62	C	0.905515	-0.302991	-0.666091
C63	C	0.865411	-0.343265	-0.633339
C64	C	0.865409	-0.343286	-0.567905
C65	C	0.900539	-0.359672	-0.769752
C66	C	0.900546	-0.359652	-0.835185
C67	C	0.905519	-0.302924	-0.867912
C68	C	0.910498	-0.246215	-0.835198
C69	C	0.910496	-0.246237	-0.769763
C70	C	0.905513	-0.302972	-0.737043
C71	C	0.945616	-0.262620	-0.971608
C72	C	0.945611	-0.262592	-1.037045
C73	C	0.865420	-0.343127	-1.036981
C74	C	0.865422	-0.343150	-0.971545
C75	C	0.905523	-0.302897	-0.938863
C76	C	0.905420	-0.303019	-0.139370
C77	C	0.905519	-0.302847	-0.069729
H78	H	0.144570	-0.229857	-0.229699
H79	H	0.666933	-0.376266	-0.374628
F80	F	0.822748	-0.386015	-0.936695
H81	H	0.978155	-0.661899	-0.229545
H82	H	0.914548	-0.200022	-0.861842
F83	F	0.271461	-0.219802	-0.219652
F84	F	0.988283	-0.219919	-0.533187
F85	F	0.338339	-0.313467	-0.418703
H86	H	0.548206	-0.229940	-0.229555
F87	F	0.895261	-0.420055	-0.734928
H88	H	0.832843	-1.062834	-0.374834
F89	F	0.988272	-0.219861	-0.668258
H90	H	0.978311	-1.062736	-0.229621
H91	H	0.548227	-0.376237	-0.374675
H92	H	0.666920	-0.229954	-0.229513
H93	H	0.832795	-0.943565	-0.374811
F94	F	0.822673	-0.670220	-0.384769
F95	F	0.271480	-0.386267	-0.384772
H96	H	0.978261	-0.229795	-1.063704
F97	F	0.915791	-0.185885	-0.734949
F98	F	0.822742	-0.386105	-0.668130
F99	F	0.988292	-0.219778	-0.936823
F100	F	0.338102	-0.292628	-0.185669
F101	F	0.822623	-0.534511	-0.384753
H102	H	0.144590	-0.376152	-0.374825
H103	H	0.465003	-0.293914	-0.199735
H104	H	0.832755	-0.376079	-0.541245
F105	F	0.822748	-0.385966	-1.071766
H106	H	0.896496	-0.405828	-0.861816
H107	H	0.978105	-0.542633	-0.229519
H108	H	0.465215	-0.312237	-0.404544
H109	H	0.978259	-0.943473	-0.229590
