data_functionalizedCrystal
_audit_creation_method	'MofGen! by Chris Wilmer'
_symmetry_space_group_name_H-M	'P1'
_symmetry_Int_Tables_number	1
_symmetry_cell_setting	triclinic
loop_
_symmetry_equiv_pos_as_xyz
  x,y,z
_cell_length_a	12.837943
_cell_length_b	15.995292
_cell_length_c	11.892095
_cell_angle_alpha	93.891493
_cell_angle_beta	85.689438
_cell_angle_gamma	89.148778
loop_
_atom_site_label
_atom_site_type_symbol
_atom_site_fract_x
_atom_site_fract_y
_atom_site_fract_z
O1	O	1.382024	0.212848	-0.093967
O2	O	1.882024	0.712848	0.406033
O3	O	1.080222	0.202095	-0.093975
O4	O	1.580222	0.702095	0.406025
O5	O	1.239405	0.086242	-0.093973
O6	O	1.739405	0.586242	0.406027
O7	O	1.222842	0.328702	-0.093970
O8	O	1.722842	0.828702	0.406030
O9	O	1.226132	0.095885	0.094035
O10	O	1.726132	0.595885	0.594035
O11	O	1.066950	0.211739	0.094032
O12	O	1.566950	0.711739	0.594032
O13	O	1.368752	0.222492	0.094040
O14	O	1.868752	0.722492	0.594040
Zn15	Zn	1.215744	0.218646	0.123886
Zn16	Zn	1.715744	0.718646	0.623886
Zn17	Zn	1.233231	0.205941	-0.123821
Zn18	Zn	1.733231	0.705941	0.376179
O19	O	1.209569	0.338345	0.094038
O20	O	1.709569	0.838345	0.594038
C21	C	1.034966	0.203285	0.000028
C22	C	1.534966	0.703285	0.500028
C23	C	0.919892	0.192451	0.000025
C24	C	1.419892	0.692451	0.500025
C25	C	1.232095	0.059814	0.000028
C26	C	1.732095	0.559814	0.500028
C27	C	1.230074	-0.033301	0.000020
C28	C	1.730074	0.466699	0.500020
C29	C	0.678899	0.322690	0.000042
C30	C	1.178899	0.822690	0.500042
C31	C	0.570776	0.312515	0.000040
C32	C	1.070776	0.812515	0.500040
C33	C	0.595520	0.161926	0.000026
C34	C	1.095520	0.661926	0.500026
C35	C	0.703644	0.172102	0.000028
C36	C	1.203644	0.672102	0.500028
C37	C	0.745329	0.252486	0.000035
C38	C	1.245329	0.752486	0.500035
C39	C	0.853454	0.262660	0.000029
C40	C	1.353454	0.762660	0.500029
C41	C	0.878196	0.112072	0.000023
C42	C	1.378196	0.612072	0.500023
C43	C	0.770073	0.101897	0.000021
C44	C	1.270073	0.601897	0.500021
C45	C	1.222644	-0.371632	0.000030
C46	C	1.722644	0.128368	0.500030
C47	C	1.337508	-0.339130	0.000453
C48	C	1.837508	0.160870	0.500453
C49	C	1.339722	-0.242303	0.000025
C50	C	1.839722	0.257697	0.500025
C51	C	1.226331	-0.203782	0.000025
C52	C	1.726331	0.296218	0.500025
C53	C	1.176468	-0.242973	-0.107334
C54	C	1.676468	0.257027	0.392666
C55	C	1.175091	-0.339878	-0.107420
C56	C	1.675091	0.160122	0.392580
C57	C	1.157652	-0.328956	0.106380
C58	C	1.657652	0.171044	0.606380
C59	C	1.161810	-0.232051	0.107795
C60	C	1.661810	0.267949	0.607795
C61	C	1.228409	-0.108920	0.000019
C62	C	1.728409	0.391080	0.500019
C63	C	1.220563	-0.466494	0.000028
C64	C	1.720563	0.033506	0.500028
C65	C	1.414008	0.221302	0.000035
C66	C	1.914008	0.721302	0.500035
C67	C	1.529083	0.232136	0.000031
C68	C	2.029083	0.732136	0.500031
C69	C	1.216880	0.364773	0.000034
C70	C	1.716880	0.864773	0.500034
C71	C	1.218901	0.457887	0.000035
C72	C	1.718901	0.957887	0.500035
N73	N	1.203817	0.227317	0.292940
N74	N	1.703817	0.727317	0.792940
N75	N	1.245165	0.197264	-0.292875
N76	N	1.745165	0.697264	0.207125
C77	C	1.328157	0.136878	0.529590
C78	C	1.828157	0.636878	1.029590
C79	C	1.319828	0.142946	0.647932
C80	C	1.819828	0.642946	1.147932
C81	C	1.178825	0.245516	0.647968
C82	C	1.678825	0.745516	1.147968
C83	C	1.187154	0.239448	0.529626
C84	C	1.687154	0.739448	1.029626
C85	C	1.261824	0.185128	0.470441
C86	C	1.761824	0.685128	0.970441
C87	C	1.270157	0.179065	0.352097
C88	C	1.770157	0.679065	0.852097
C89	C	1.129150	0.281630	0.352136
C90	C	1.629150	0.781630	0.852136
C91	C	1.120821	0.287698	0.470477
C92	C	1.620821	0.787698	0.970477
H93	H	0.887392	0.328113	0.000036
H94	H	1.387392	0.828113	0.500036
F95	F	1.209144	-0.198093	0.211610
F96	F	1.709144	0.301907	0.711610
H97	H	1.075140	0.320921	0.303963
H98	H	1.575140	0.820921	0.803963
F99	F	0.725697	0.016351	0.000018
F100	F	1.225697	0.516351	0.500018
F101	F	1.041353	0.345504	0.533476
F102	F	1.541353	0.845504	1.033476
H103	H	0.516692	0.369683	0.000050
H104	H	1.016692	0.869683	0.500050
F105	F	0.723267	0.408239	0.000035
F106	F	1.223267	0.908239	0.500035
H107	H	1.373842	0.103655	0.696087
H108	H	1.873842	0.603655	1.196087
F109	F	0.551137	0.076383	0.000033
F110	F	1.051137	0.576383	0.500033
H111	H	1.330960	0.134838	0.303910
H112	H	1.830960	0.634838	0.803910
H113	H	0.932296	0.054907	0.000009
H114	H	1.432296	0.554907	0.500009
H115	H	1.386952	-0.368561	-0.076105
H116	H	1.886952	0.131439	0.423895
F117	F	1.234499	-0.376163	-0.212313
F118	F	1.734499	0.123837	0.287687
F119	F	1.067775	-0.210287	-0.112558
F120	F	1.567775	0.289713	0.387442
H121	H	1.390416	-0.224242	-0.077067
H122	H	1.890416	0.275758	0.422933
H123	H	1.118024	0.289735	0.696171
H124	H	1.618024	0.789735	1.196171
H125	H	1.376358	-0.359645	0.077445
H126	H	1.876358	0.140355	0.577445
F127	F	1.391399	-0.207580	0.100628
F128	F	1.891399	0.292420	0.600628
H129	H	1.091194	-0.361399	-0.112284
H130	H	1.591194	0.138601	0.387716
F131	F	1.407635	0.079076	0.466600
F132	F	1.907635	0.579076	0.966600
H133	H	1.188090	-0.349984	0.187758
H134	H	1.688090	0.150016	0.687758
F135	F	1.235979	-0.217953	-0.211767
F136	F	1.735979	0.282047	0.288233
H137	H	1.078588	-0.205353	0.114279
H138	H	1.578588	0.294647	0.614279
F139	F	1.047046	-0.356015	0.107328
F140	F	1.547046	0.143985	0.607328
