data_functionalizedCrystal
_audit_creation_method	'MofGen! by Chris Wilmer'
_symmetry_space_group_name_H-M	'P1'
_symmetry_Int_Tables_number	1
_symmetry_cell_setting	triclinic
loop_
_symmetry_equiv_pos_as_xyz
  x,y,z
_cell_length_a	10.654545
_cell_length_b	17.699083
_cell_length_c	9.730223
_cell_angle_alpha	89.990007
_cell_angle_beta	90.003032
_cell_angle_gamma	96.116953
loop_
_atom_site_label
_atom_site_type_symbol
_atom_site_fract_x
_atom_site_fract_y
_atom_site_fract_z
O1	O	1.665983	-0.106285	0.114300
O2	O	1.300326	-0.116416	0.114308
O3	O	1.493485	-0.001227	0.114270
O4	O	1.472824	-0.221474	0.114338
O5	O	1.493471	-0.001227	-0.114310
O6	O	1.300312	-0.116416	-0.114272
O7	O	1.665969	-0.106285	-0.114280
Zn8	Zn	1.483138	-0.111350	-0.150568
Zn9	Zn	1.483156	-0.111350	0.150596
O10	O	1.472810	-0.221474	-0.114242
C11	C	1.253534	-0.115673	0.000018
C12	C	1.114130	-0.113449	0.000020
C13	C	1.048636	-0.112403	-0.124580
C14	C	0.917653	-0.110301	-0.124581
C15	C	0.917669	-0.110296	0.124630
C16	C	1.048650	-0.112392	0.124629
C17	C	1.492738	0.026975	-0.000025
C18	C	1.490517	0.111007	-0.000042
C19	C	1.603897	0.158908	-0.000055
C20	C	1.601803	0.237865	-0.000059
C21	C	1.486327	0.268919	-0.000058
C22	C	1.372938	0.221011	-0.000041
C23	C	1.375033	0.142056	-0.000028
C24	C	1.364484	0.539428	-0.000092
C25	C	1.362397	0.618389	-0.000109
C26	C	1.591253	0.635237	-0.000122
C27	C	1.593348	0.556282	-0.000109
C28	C	1.479960	0.508381	-0.000085
C29	C	1.482233	0.422768	-0.000079
C30	C	1.484053	0.354531	-0.000074
C31	C	1.712761	-0.107028	0.000012
C32	C	1.852165	-0.109251	0.000020
N33	N	1.483135	-0.111350	-0.356104
C34	C	1.473557	0.750324	0.000007
C35	C	1.475778	0.666292	-0.000112
C36	C	1.559156	-0.157680	-0.428012
C37	C	1.559177	-0.157676	-0.571895
C38	C	1.407146	-0.065009	-0.571950
C39	C	1.407133	-0.065010	-0.428069
N40	N	1.483169	-0.111345	0.356132
H41	H	1.101977	-0.113242	0.226099
H42	H	1.621082	-0.195402	-0.630436
O43	O	1.254459	0.492796	-0.000013
C44	C	1.156240	0.363696	-0.000053
C45	C	1.280941	0.416424	-0.000113
H46	H	1.177607	0.301938	-0.000163
H47	H	1.099393	0.375010	0.095630
H48	H	1.099390	0.375113	-0.095691
H49	H	1.337892	0.405037	0.095460
H50	H	1.337692	0.405100	-0.095859
O51	O	1.112220	-0.113286	-0.245655
C52	C	1.166654	-0.048492	-0.458706
C53	C	1.094617	-0.047392	-0.321622
H54	H	1.152425	0.004769	-0.520178
H55	H	1.271546	-0.050123	-0.437390
H56	H	1.129245	-0.100976	-0.520081
H57	H	1.131919	0.005085	-0.260179
H58	H	0.989733	-0.045801	-0.343036
H59	H	1.282707	0.103055	-0.000017
O60	O	1.633106	-0.202709	-0.358317
C61	C	1.783851	-0.294652	-0.373456
C62	C	1.700180	-0.243681	-0.452550
H63	H	1.838082	-0.327803	-0.449609
H64	H	1.853399	-0.257851	-0.306132
H65	H	1.721936	-0.336077	-0.306056
H66	H	1.761994	-0.202248	-0.520025
H67	H	1.630624	-0.280530	-0.519788
O68	O	1.711910	0.284424	0.000173
C69	C	1.842357	0.383363	0.118542
C70	C	1.717620	0.330669	0.118461
H71	H	1.847003	0.420776	0.214153
H72	H	1.925294	0.347639	0.118626
H73	H	1.847080	0.420722	0.022837
H74	H	1.712774	0.293299	0.214150
H75	H	1.634742	0.366437	0.118305
H76	H	1.687381	0.531003	-0.000116
H77	H	0.864334	-0.109449	-0.226043
H78	H	1.345226	-0.027278	-0.369520
O79	O	1.716182	0.128871	0.000009
C80	C	1.942963	0.153925	-0.000069
C81	C	1.815886	0.188039	-0.000119
H82	H	2.023607	0.201746	-0.000201
H83	H	1.949755	0.117406	0.095621
H84	H	1.949598	0.117359	-0.095700
H85	H	1.809166	0.224639	0.095447
H86	H	1.809149	0.224515	-0.095872
H87	H	1.268357	0.643670	-0.000112
H88	H	1.345266	-0.027282	-0.630561
O89	O	0.854146	-0.109146	0.245706
C90	C	0.828569	-0.043086	0.458730
C91	C	0.900582	-0.044279	0.321644
H92	H	0.866102	0.009346	0.520178
H93	H	0.723696	-0.041363	0.437417
H94	H	0.842654	-0.096396	0.520127
H95	H	0.886600	0.009020	0.260179
H96	H	1.005428	-0.046041	0.343054
O97	O	1.701485	0.681692	0.000054
C98	C	1.896432	0.720273	0.118500
C99	C	1.771660	0.667611	0.118460
H100	H	1.953192	0.708919	0.214236
H101	H	1.953351	0.708901	0.022902
H102	H	1.875075	0.782033	0.118431
H103	H	1.792903	0.605832	0.118578
H104	H	1.714778	0.679049	0.214050
H105	H	1.278915	0.246302	-0.000032
