data_functionalizedCrystal
_audit_creation_method	'MofGen! by Chris Wilmer'
_symmetry_space_group_name_H-M	'P1'
_symmetry_Int_Tables_number	1
_symmetry_cell_setting	triclinic
loop_
_symmetry_equiv_pos_as_xyz
  x,y,z
_cell_length_a	19.288840
_cell_length_b	16.109304
_cell_length_c	18.366186
_cell_angle_alpha	89.996570
_cell_angle_beta	89.983729
_cell_angle_gamma	83.294327
loop_
_atom_site_label
_atom_site_type_symbol
_atom_site_fract_x
_atom_site_fract_y
_atom_site_fract_z
O1	O	0.921612	0.103617	-0.060667
O2	O	1.254945	0.436950	0.272666
O3	O	1.588279	0.770283	0.606000
O4	O	0.719383	0.117629	-0.060641
O5	O	1.052716	0.450963	0.272692
O6	O	1.386049	0.784296	0.606026
O7	O	0.826052	-0.010427	-0.060655
O8	O	1.159385	0.322906	0.272678
O9	O	1.492718	0.656239	0.606012
O10	O	0.814943	0.231673	-0.060653
O11	O	1.148276	0.565007	0.272681
O12	O	1.481610	0.898340	0.606014
O13	O	0.826034	-0.010434	0.060444
O14	O	1.159367	0.322900	0.393778
O15	O	1.492700	0.656233	0.727111
O16	O	0.719364	0.117623	0.060458
O17	O	1.052698	0.450956	0.393792
O18	O	1.386031	0.784290	0.727125
O19	O	0.921594	0.103610	0.060433
O20	O	1.254927	0.436944	0.393766
O21	O	1.588261	0.770277	0.727099
Zn22	Zn	0.820476	0.110616	0.079673
Zn23	Zn	1.153810	0.443949	0.413006
Zn24	Zn	1.487143	0.777282	0.746339
Zn25	Zn	0.820500	0.110624	-0.079881
Zn26	Zn	1.153834	0.443957	0.253452
Zn27	Zn	1.487167	0.777291	0.586786
O28	O	0.814925	0.231667	0.060447
O29	O	1.148258	0.565000	0.393780
O30	O	1.481591	0.898334	0.727113
C31	C	0.693496	0.117179	-0.000088
C32	C	1.026829	0.450512	0.333245
C33	C	1.360162	0.783845	0.666579
C34	C	0.616388	0.115836	-0.000078
C35	C	0.949721	0.449169	0.333255
C36	C	1.283055	0.782502	0.666588
C37	C	0.580193	0.115194	-0.066092
C38	C	0.913526	0.448527	0.267242
C39	C	1.246859	0.781861	0.600575
C40	C	0.507743	0.113923	-0.066100
C41	C	0.841076	0.447256	0.267233
C42	C	1.174409	0.780589	0.600566
C43	C	0.471493	0.113277	-0.000093
C44	C	0.804826	0.446610	0.333241
C45	C	1.138159	0.779943	0.666574
C46	C	0.507696	0.113923	0.065929
C47	C	0.841029	0.447257	0.399263
C48	C	1.174363	0.780590	0.732596
C49	C	0.580144	0.115203	0.065936
C50	C	0.913477	0.448536	0.399270
C51	C	1.246810	0.781869	0.732603
C52	C	0.362036	0.062549	0.050468
C53	C	0.695369	0.395882	0.383802
C54	C	1.028703	0.729216	0.717135
C55	C	0.289590	0.061264	0.050458
C56	C	0.622923	0.394598	0.383792
C57	C	0.956257	0.727931	0.717125
C58	C	0.248040	0.109334	-0.000112
C59	C	0.581373	0.442667	0.333222
C60	C	0.914706	0.776000	0.666555
C61	C	0.278945	0.158677	-0.050684
C62	C	0.612278	0.492010	0.282649
C63	C	0.945612	0.825344	0.615983
C64	C	0.351393	0.159957	-0.050677
C65	C	0.684726	0.493290	0.282656
C66	C	1.018059	0.826623	0.615990
C67	C	0.392935	0.111890	-0.000093
C68	C	0.726269	0.445223	0.333241
C69	C	1.059602	0.778556	0.666574
C70	C	0.133286	0.107315	-0.066139
C71	C	0.466619	0.440648	0.267194
C72	C	0.799952	0.773981	0.600528
C73	C	0.060834	0.106049	-0.066145
C74	C	0.394167	0.439382	0.267188
C75	C	0.727501	0.772715	0.600522
C76	C	0.060789	0.106041	0.065887
C77	C	0.394123	0.439374	0.399220
C78	C	0.727456	0.772707	0.732553
C79	C	0.133239	0.107315	0.065891
C80	C	0.466572	0.440648	0.399224
C81	C	0.799906	0.773982	0.732558
C82	C	0.169483	0.107948	-0.000124
C83	C	0.502817	0.441281	0.333209
C84	C	0.836150	0.774615	0.666543
C85	C	0.825592	-0.041404	-0.000107
C86	C	1.158926	0.291929	0.333226
C87	C	1.492259	0.625263	0.666560
C88	C	0.824242	-0.133694	-0.000112
C89	C	1.157576	0.199639	0.333222
C90	C	1.490909	0.532972	0.666555
C91	C	0.821133	-0.346017	-0.066120
C92	C	1.154466	-0.012684	0.267213
C93	C	1.487800	0.320649	0.600547
C94	C	0.819858	-0.432733	-0.066119
C95	C	1.153191	-0.099400	0.267214
C96	C	1.486525	0.233934	0.600548
C97	C	0.819842	-0.432737	0.065910
C98	C	1.153175	-0.099403	0.399243
C99	C	1.486508	0.233930	0.732577
C100	C	0.821112	-0.346022	0.065909
C101	C	1.154445	-0.012689	0.399242
C102	C	1.487778	0.320645	0.732575
C103	C	0.821761	-0.302665	-0.000109
C104	C	1.155094	0.030668	0.333225
C105	C	1.488427	0.364002	0.666558
C106	C	0.819216	-0.476095	-0.000106
C107	C	1.152549	-0.142762	0.333227
C108	C	1.485882	0.190571	0.666560
C109	C	0.817833	-0.570116	-0.000105
C110	C	1.151167	-0.236783	0.333229
C111	C	1.484500	0.096550	0.666562
C112	C	0.823142	-0.208638	-0.000110
C113	C	1.156475	0.124696	0.333223
C114	C	1.489809	0.458029	0.666556
C115	C	0.947481	0.104061	-0.000122
C116	C	1.280814	0.437394	0.333211
C117	C	1.614148	0.770727	0.666545
C118	C	1.024589	0.105404	-0.000136
C119	C	1.357922	0.438737	0.333197
C120	C	1.691255	0.772071	0.666530
C121	C	0.815384	0.262643	-0.000103
C122	C	1.148718	0.595977	0.333230
C123	C	1.482051	0.929310	0.666564
C124	C	0.816734	0.354934	-0.000103
C125	C	1.150068	0.688267	0.333230
C126	C	1.483401	1.021601	0.666563
N127	N	0.820465	0.110610	0.188564
N128	N	1.153798	0.443943	0.521897
N129	N	1.487132	0.777276	0.855230
N130	N	0.820517	0.110623	-0.188772
N131	N	1.153850	0.443957	0.144561
N132	N	1.487184	0.777290	0.477894
C133	C	0.867714	0.053934	0.226658
C134	C	1.201047	0.387267	0.559991
C135	C	1.534380	0.720600	0.893325
C136	C	0.867718	0.053930	0.302886
C137	C	1.201051	0.387263	0.636219
C138	C	1.534385	0.720597	0.969552
C139	C	0.820481	0.110616	0.341016
C140	C	1.153814	0.443950	0.674350
C141	C	1.487147	0.777283	1.007683
C142	C	0.773223	0.167297	0.302913
C143	C	1.106556	0.500630	0.636246
C144	C	1.439890	0.833963	0.969580
C145	C	0.773215	0.167293	0.226687
C146	C	1.106549	0.500626	0.560020
C147	C	1.439882	0.833960	0.893353
C148	C	0.811364	0.186371	0.461778
C149	C	1.144697	0.519704	0.795111
C150	C	1.478030	0.853038	1.128445
C151	C	0.811376	0.186375	0.538003
C152	C	1.144710	0.519709	0.871336
C153	C	1.478043	0.853042	1.204670
C154	C	0.820500	0.110627	0.576124
C155	C	1.153834	0.443960	0.909457
C156	C	1.487167	0.777293	1.242791
C157	C	0.829626	0.034870	0.538010
C158	C	1.162960	0.368204	0.871344
C159	C	1.496293	0.701537	1.204677
C160	C	0.829619	0.034867	0.461784
C161	C	1.162952	0.368200	0.795117
C162	C	1.496285	0.701534	1.128451
C163	C	0.820483	0.110626	0.423671
C164	C	1.153817	0.443959	0.757005
C165	C	1.487150	0.777293	1.090338
C166	C	0.867756	0.053942	0.696873
C167	C	1.201090	0.387276	1.030206
C168	C	1.534423	0.720609	1.363540
C169	C	0.867756	0.053937	0.773102
C170	C	1.201089	0.387271	1.106436
C171	C	1.534422	0.720604	1.439769
C172	C	0.773264	0.167311	0.773128
C173	C	1.106597	0.500645	1.106462
C174	C	1.439931	0.833978	1.439795
C175	C	0.773261	0.167309	0.696900
C176	C	1.106595	0.500642	1.030234
C177	C	1.439928	0.833975	1.363567
C178	C	0.820511	0.110625	0.658777
C179	C	1.153844	0.443959	0.992111
C180	C	1.487178	0.777292	1.325444
H181	H	0.376552	0.200136	-0.091853
H182	H	0.709886	0.533469	0.241480
H183	H	1.043219	0.866802	0.574814
H184	H	0.906228	0.007784	0.665832
H185	H	1.239561	0.341118	0.999165
H186	H	1.572895	0.674451	1.332499
H187	H	0.821659	-0.310718	-0.119875
H188	H	1.154993	0.022615	0.213458
H189	H	1.488326	0.355948	0.546791
H190	H	0.031275	0.105520	0.119632
H191	H	0.364608	0.438853	0.452965
H192	H	0.697941	0.772186	0.786298
H193	H	0.162796	0.107839	-0.119892
H194	H	0.496130	0.441172	0.213441
H195	H	0.829463	0.774506	0.546775
H196	H	0.162710	0.107832	0.119646
H197	H	0.496043	0.441166	0.452979
H198	H	0.829377	0.774499	0.786313
H199	H	0.819345	-0.468026	-0.119872
H200	H	1.152678	-0.134693	0.213461
H201	H	1.486012	0.198640	0.546795
H202	H	0.906195	0.007776	0.333908
H203	H	1.239528	0.341109	0.667241
H204	H	1.572861	0.674443	1.000574
H205	H	0.819315	-0.468049	0.119659
H206	H	1.152648	-0.134715	0.452992
H207	H	1.485981	0.198618	0.786326
H208	H	0.821619	-0.310723	0.119666
H209	H	1.154952	0.022610	0.452999
H210	H	1.488286	0.355944	0.786333
H211	H	0.837056	-0.026812	0.569047
H212	H	1.170389	0.306522	0.902380
H213	H	1.503722	0.639855	1.235713
H214	H	0.264433	0.021082	0.091634
H215	H	0.597767	0.354415	0.424967
H216	H	0.931100	0.687749	0.758301
H217	H	0.906186	0.007777	0.195620
H218	H	1.239519	0.341110	0.528954
H219	H	1.572852	0.674443	0.862287
H220	H	0.837048	-0.026817	0.430755
H221	H	1.170381	0.306517	0.764089
H222	H	1.503714	0.639850	1.097422
H223	H	0.395861	0.023403	0.091652
H224	H	0.729195	0.356736	0.424985
H225	H	1.062528	0.690070	0.758319
H226	H	0.906229	0.007781	0.804119
H227	H	1.239563	0.341114	1.137453
H228	H	1.572896	0.674447	1.470786
H229	H	0.734800	0.213463	0.804174
H230	H	1.068133	0.546796	1.137507
H231	H	1.401466	0.880130	1.470840
H232	H	0.031364	0.105531	-0.119903
H233	H	0.364698	0.438864	0.213430
H234	H	0.698031	0.772198	0.546764
H235	H	0.245115	0.197823	-0.091861
H236	H	0.578449	0.531156	0.241473
H237	H	0.911782	0.864490	0.574806
H238	H	0.734790	0.213463	0.665882
H239	H	1.068123	0.546796	0.999215
H240	H	1.401456	0.880130	1.332549
H241	H	0.803950	0.248061	0.569029
H242	H	1.137283	0.581394	0.902363
H243	H	1.470616	0.914727	1.235696
H244	H	0.803922	0.248059	0.430746
H245	H	1.137255	0.581392	0.764080
H246	H	1.470588	0.914725	1.097413
H247	H	0.734760	0.213450	0.333963
H248	H	1.068094	0.546784	0.667296
H249	H	1.401427	0.880117	1.000630
H250	H	0.609698	0.115709	-0.119846
H251	H	0.943032	0.449043	0.213487
H252	H	1.276365	0.782376	0.546821
H253	H	0.478267	0.113401	-0.119858
H254	H	0.811600	0.446735	0.213475
H255	H	1.144933	0.780068	0.546809
H256	H	0.734739	0.213446	0.195670
H257	H	1.068072	0.546779	0.529003
H258	H	1.401406	0.880113	0.862336
H259	H	0.478176	0.113399	0.119673
H260	H	0.811510	0.446732	0.453007
H261	H	1.144843	0.780066	0.786340
H262	H	0.609613	0.115726	0.119694
H263	H	0.942947	0.449060	0.453027
H264	H	1.276280	0.782393	0.786361
