data_functionalizedCrystal
_audit_creation_method	'MofGen! by Chris Wilmer'
_symmetry_space_group_name_H-M	'P1'
_symmetry_Int_Tables_number	1
_symmetry_cell_setting	triclinic
loop_
_symmetry_equiv_pos_as_xyz
  x,y,z
_cell_length_a	10.686220
_cell_length_b	16.120531
_cell_length_c	10.686551
_cell_angle_alpha	91.295135
_cell_angle_beta	90.308082
_cell_angle_gamma	82.922025
loop_
_atom_site_label
_atom_site_type_symbol
_atom_site_fract_x
_atom_site_fract_y
_atom_site_fract_z
Zn1	Zn	1.957883	0.203140	-0.579030
Zn2	Zn	2.457883	0.703140	-0.079030
Zn3	Zn	1.930960	0.353953	-0.381628
Zn4	Zn	2.430960	0.853953	0.118372
Zn5	Zn	1.730490	0.224455	-0.387094
Zn6	Zn	2.230490	0.724455	0.112906
Zn7	Zn	1.737509	0.352264	-0.607267
Zn8	Zn	2.237509	0.852264	-0.107267
O9	O	1.839211	0.283453	-0.488755
O10	O	2.339211	0.783453	0.011245
O11	O	2.130436	0.214932	-0.538739
O12	O	2.630436	0.714932	-0.038739
O13	O	1.890162	0.346402	-0.207596
O14	O	2.390162	0.846402	0.292404
O15	O	1.768984	0.105022	-0.403025
O16	O	2.268984	0.605022	0.096975
O17	O	2.110655	0.325734	-0.393709
O18	O	2.610655	0.825734	0.106291
O19	O	1.936049	0.089362	-0.544039
O20	O	2.436049	0.589362	-0.044039
O21	O	1.742878	0.251260	-0.211612
O22	O	2.242878	0.751260	0.288388
O23	O	1.555297	0.249623	-0.430405
O24	O	2.055297	0.749623	0.069595
O25	O	1.780948	0.322856	-0.778278
O26	O	2.280948	0.822856	-0.278278
O27	O	1.560454	0.343524	-0.592166
O28	O	2.060454	0.843524	-0.092166
O29	O	1.942855	0.213294	-0.757532
O30	O	2.442855	0.713294	-0.257532
O31	O	1.896968	0.470334	-0.421089
O32	O	2.396968	0.970334	0.078911
O33	O	1.754841	0.469093	-0.586865
O34	O	2.254841	0.969093	-0.086865
C35	C	1.823781	0.499945	-0.506473
C36	C	2.323781	0.999945	-0.006473
C37	C	1.817299	0.592553	-0.514085
C38	C	2.317299	1.092553	-0.014085
C39	C	1.512208	0.298704	-0.514943
C40	C	2.012208	0.798704	-0.014943
C41	C	1.372316	0.305246	-0.526178
C42	C	1.872316	0.805246	-0.026178
C43	C	1.805474	0.762108	-0.528009
C44	C	2.305474	1.262108	-0.028009
C45	C	1.872989	0.803959	-0.449426
C46	C	2.372989	1.303959	0.050574
C47	C	1.866409	0.898305	-0.457173
C48	C	2.366409	1.398305	0.042827
C49	C	1.812052	0.667753	-0.520263
C50	C	2.312052	1.167753	-0.020263
C51	C	2.167490	0.268143	-0.462464
C52	C	2.667490	0.768143	0.037536
C53	C	2.307383	0.261619	-0.451261
C54	C	2.807383	0.761619	0.048739
C55	C	1.865688	0.265509	-0.814485
C56	C	2.365688	0.765509	-0.314485
C57	C	1.876971	0.257862	-0.953291
C58	C	2.376971	0.757862	-0.453291
C59	C	1.854690	1.066116	-0.470972
C60	C	2.354690	1.566116	0.029028
C61	C	1.861167	0.973509	-0.463345
C62	C	2.361167	1.473509	0.036655
C63	C	1.812913	0.301264	-0.164281
C64	C	2.312913	0.801264	0.335719
C65	C	1.801891	0.308664	-0.025436
C66	C	2.301891	0.808664	0.474564
H67	H	1.320881	0.347610	-0.598911
H68	H	1.820881	0.847610	-0.098911
O69	O	1.730596	0.803753	-0.615312
O70	O	2.230596	1.303753	-0.115312
C71	C	1.669077	0.746268	-0.686839
C72	C	2.169077	1.246268	-0.186839
H73	H	1.725221	0.681525	-0.682091
H74	H	2.225221	1.181525	-0.182091
H75	H	1.661836	0.766687	-0.788328
H76	H	2.161836	1.266687	-0.288328
H77	H	1.570431	0.744106	-0.647937
H78	H	2.070431	1.244106	-0.147937
O79	O	1.715041	0.367645	-0.972498
O80	O	2.215041	0.867645	-0.472498
C81	C	1.739155	0.447677	-1.008895
C82	C	2.239155	0.947677	-0.508895
H83	H	1.842287	0.445233	-1.037136
H84	H	2.342287	0.945233	-0.537136
H85	H	1.718489	0.494023	-0.927281
H86	H	2.218489	0.994023	-0.427281
H87	H	1.676192	0.468492	-1.091698
H88	H	2.176192	0.968492	-0.591698
H89	H	1.949892	0.208519	-0.997722
H90	H	2.449892	0.708519	-0.497722
O91	O	1.368854	0.211197	-0.364425
O92	O	1.868854	0.711197	0.135575
C93	C	1.434922	0.259492	-0.281474
C94	C	1.934922	0.759492	0.218526
H95	H	1.453571	0.319361	-0.328982
H96	H	1.953571	0.819361	0.171018
H97	H	1.528473	0.222177	-0.254704
H98	H	2.028473	0.722177	0.245296
H99	H	1.376148	0.275990	-0.193662
H100	H	1.876148	0.775990	0.306338
O101	O	1.947728	0.762056	-0.362252
O102	O	2.447728	1.262056	0.137748
C103	C	1.937753	0.675818	-0.373832
C104	C	2.437753	1.175818	0.126168
H105	H	1.844716	0.666370	-0.421504
H106	H	2.344716	1.166370	0.078496
H107	H	1.941010	0.647450	-0.276939
H108	H	2.441010	1.147450	0.223061
H109	H	2.019463	0.643901	-0.432414
H110	H	2.519463	1.143901	0.067586
