data_functionalizedCrystal
_audit_creation_method	'MofGen! by Chris Wilmer'
_symmetry_space_group_name_H-M	'P1'
_symmetry_Int_Tables_number	1
_symmetry_cell_setting	triclinic
loop_
_symmetry_equiv_pos_as_xyz
  x,y,z
_cell_length_a	12.759401
_cell_length_b	12.759400
_cell_length_c	11.169409
_cell_angle_alpha	90.033794
_cell_angle_beta	90.020582
_cell_angle_gamma	90.014668
loop_
_atom_site_label
_atom_site_type_symbol
_atom_site_fract_x
_atom_site_fract_y
_atom_site_fract_z
Zn1	Zn	1.606271	-0.418182	0.678555
Zn2	Zn	1.606161	-0.593907	0.477867
Zn3	Zn	1.430568	-0.418243	0.477887
Zn4	Zn	1.430562	-0.593819	0.678509
O5	O	1.518390	-0.506038	0.578204
O6	O	1.753277	-0.441503	0.651944
O7	O	1.582825	-0.570668	0.309919
O8	O	1.453925	-0.271214	0.504533
O9	O	1.753196	-0.570608	0.504499
O10	O	1.583013	-0.271169	0.651963
O11	O	1.453818	-0.441608	0.309934
O12	O	1.283546	-0.441522	0.504489
O13	O	1.453913	-0.570458	0.846465
O14	O	1.283541	-0.570517	0.651885
O15	O	1.583006	-0.441418	0.846499
O16	O	1.582818	-0.740917	0.504455
O17	O	1.453806	-0.740852	0.651866
C18	C	1.245423	-0.506018	0.578185
C19	C	1.128646	-0.506034	0.578205
C20	C	0.964097	-0.438944	0.655108
C21	C	1.073821	-0.438930	0.655097
C22	C	1.073742	-0.573165	0.501326
C23	C	0.964020	-0.573184	0.501344
C24	C	0.909277	-0.371828	0.731997
C25	C	0.964173	-0.304698	0.808877
C26	C	1.073897	-0.304683	0.808867
C27	C	1.128725	-0.371799	0.731976
C28	C	1.518328	-0.779005	0.578179
C29	C	1.518397	-0.895782	0.578209
C30	C	1.585649	-0.950643	0.501537
C31	C	1.585713	-1.060367	0.501574
C32	C	1.451266	-1.060359	0.654958
C33	C	1.451208	-0.950637	0.654926
C34	C	1.652838	-0.895787	0.424819
C35	C	1.720094	-0.950648	0.348140
C36	C	1.720158	-1.060372	0.348177
C37	C	1.652967	-1.115235	0.424893
C38	C	1.792424	-0.506059	0.578225
C39	C	1.909200	-0.506068	0.578233
C40	C	1.518471	-0.505921	0.891247
C41	C	1.518505	-0.505871	1.024647
C42	C	1.518482	-0.232004	0.578256
C43	C	1.518520	-0.115228	0.578278
C44	C	1.518370	-0.506078	0.266379
C45	C	1.518540	-0.505832	0.132980
H46	H	0.919526	-0.250061	0.871486
H47	H	0.819934	-0.371827	0.732009
H48	H	1.118591	-0.250030	0.871474
O49	O	1.235312	-0.371625	0.732084
C50	C	1.392811	-0.298004	0.816500
C51	C	1.272107	-0.298080	0.816482
H52	H	1.422597	-0.238565	0.884746
H53	H	1.422626	-0.276047	0.723634
H54	H	1.422570	-0.379413	0.841189
H55	H	1.242258	-0.216696	0.791845
H56	H	1.242363	-0.320096	0.909359
O57	O	1.785523	-1.113503	0.273587
C58	C	1.918910	-1.101924	0.121494
C59	C	1.844923	-1.041626	0.205894
H60	H	1.966969	-1.043838	0.066760
H61	H	1.870780	-1.153352	0.058629
H62	H	1.973808	-1.153234	0.176681
H63	H	1.790009	-0.990259	0.150802
H64	H	1.893118	-0.990264	0.268762
H65	H	1.396447	-0.905969	0.717361
H66	H	1.774805	-0.905973	0.285687
O67	O	1.127161	-0.638252	0.426672
C68	C	1.296161	-0.697750	0.358543
C69	C	1.235798	-0.623972	0.443135
H70	H	1.384005	-0.686247	0.371842
H71	H	1.274625	-0.679207	0.261781
H72	H	1.274530	-0.782481	0.379442
H73	H	1.257397	-0.539217	0.422345
H74	H	1.257339	-0.642606	0.539872
O75	O	1.653134	-1.221822	0.424747
C76	C	1.727048	-1.379282	0.340701
C77	C	1.726950	-1.258578	0.340729
H78	H	1.786737	-1.409036	0.272797
H79	H	1.645747	-1.409219	0.315657
H80	H	1.748778	-1.408951	0.433707
H81	H	1.705265	-1.228819	0.247751
H82	H	1.808260	-1.228712	0.365840
H83	H	0.919322	-0.627844	0.438748
O84	O	1.386108	-1.113603	0.729640
C85	C	1.334992	-1.147025	0.933746
C86	C	1.408869	-1.086681	0.849309
H87	H	1.353353	-1.125264	1.030515
H88	H	1.346589	-1.234882	0.920700
H89	H	1.250281	-1.125546	0.912518
H90	H	1.493609	-1.108072	0.870485
H91	H	1.397181	-0.998839	0.862371
H92	H	1.652790	-0.806444	0.424777
