data_functionalizedCrystal
_audit_creation_method	'MofGen! by Chris Wilmer'
_symmetry_space_group_name_H-M	'P1'
_symmetry_Int_Tables_number	1
_symmetry_cell_setting	triclinic
loop_
_symmetry_equiv_pos_as_xyz
  x,y,z
_cell_length_a	19.188925
_cell_length_b	19.188930
_cell_length_c	9.730217
_cell_angle_alpha	89.991643
_cell_angle_beta	89.997646
_cell_angle_gamma	83.143665
loop_
_atom_site_label
_atom_site_type_symbol
_atom_site_fract_x
_atom_site_fract_y
_atom_site_fract_z
O1	O	0.926144	0.087148	-0.114335
O2	O	1.426144	0.587148	0.385665
O3	O	0.722832	0.098887	-0.114333
O4	O	1.222832	0.598887	0.385667
O5	O	0.830355	-0.008638	-0.114307
O6	O	1.330355	0.491362	0.385693
O7	O	0.818621	0.194673	-0.114361
O8	O	1.318621	0.694673	0.385639
O9	O	0.830352	-0.008639	0.114273
O10	O	1.330352	0.491361	0.614273
O11	O	0.722829	0.098886	0.114247
O12	O	1.222829	0.598886	0.614247
O13	O	0.926141	0.087147	0.114245
O14	O	1.426141	0.587147	0.614245
Zn15	Zn	0.824485	0.093016	0.150538
Zn16	Zn	1.324485	0.593016	0.650538
Zn17	Zn	0.824489	0.093018	-0.150626
Zn18	Zn	1.324489	0.593018	0.349374
O19	O	0.818618	0.194672	0.114219
O20	O	1.318618	0.694672	0.614219
C21	C	0.696820	0.098507	-0.000043
C22	C	1.196820	0.598507	0.499957
C23	C	0.619315	0.097367	-0.000041
C24	C	1.119315	0.597367	0.499959
C25	C	0.057545	0.152831	-0.000059
C26	C	0.557545	0.652831	0.499941
C27	C	0.130368	0.153908	-0.000066
C28	C	0.630368	0.653908	0.499934
C29	C	0.175302	0.090816	-0.000047
C30	C	0.675302	0.590816	0.499953
C31	C	0.147408	0.026642	-0.000056
C32	C	0.647408	0.526642	0.499944
C33	C	0.074586	0.025568	-0.000062
C34	C	0.574586	0.525568	0.499938
N35	N	0.295978	0.045139	0.077775
N36	N	0.795978	0.545139	0.577775
N37	N	0.365156	0.046164	0.077784
N38	N	0.865156	0.546164	0.577784
C39	C	0.394712	0.094050	-0.000032
C40	C	0.894712	0.594050	0.499968
N41	N	0.352475	0.140882	-0.077839
N42	N	0.852475	0.640882	0.422161
N43	N	0.283291	0.139859	-0.077842
N44	N	0.783291	0.639859	0.422158
C45	C	0.254267	0.091974	-0.000041
C46	C	0.754267	0.591974	0.499959
C47	C	0.501561	0.159386	-0.000041
C48	C	1.001561	0.659386	0.499959
C49	C	0.574385	0.160460	-0.000058
C50	C	1.074385	0.660460	0.499942
C51	C	0.591425	0.033193	-0.000033
C52	C	1.091425	0.533193	0.499967
C53	C	0.518601	0.032121	-0.000031
C54	C	1.018601	0.532121	0.499969
C55	C	0.473673	0.095220	-0.000028
C56	C	0.973673	0.595220	0.499972
C57	C	0.829974	-0.034650	-0.000013
C58	C	1.329974	0.465350	0.499987
C59	C	0.828833	-0.112154	-0.000001
C60	C	1.328833	0.387846	0.499999
C61	C	0.891924	-0.157079	0.000005
C62	C	1.391924	0.342921	0.500005
C63	C	0.890852	-0.229903	-0.000017
C64	C	1.390852	0.270097	0.499983
C65	C	0.826686	-0.257799	-0.000018
C66	C	1.326686	0.242201	0.499982
C67	C	0.763587	-0.212864	-0.000032
C68	C	1.263587	0.287136	0.499968
C69	C	0.764660	-0.140041	-0.000023
C70	C	1.264660	0.359959	0.499977
N71	N	0.777638	-0.365803	0.077773
N72	N	1.277638	0.134197	0.577773
N73	N	0.776622	-0.434982	0.077768
N74	N	1.276622	0.065018	0.577768
C75	C	0.823448	-0.477207	-0.000046
C76	C	1.323448	0.022793	0.499954
N77	N	0.871338	-0.447642	-0.077837
N78	N	1.371338	0.052358	0.422163
N79	N	0.872356	-0.378458	-0.077826
N80	N	1.372356	0.121542	0.422174
C81	C	0.825515	-0.336761	-0.000028
C82	C	1.325515	0.163239	0.499972
C83	C	0.885381	-0.601097	-0.000065
C84	C	1.385381	-0.101097	0.499935
C85	C	0.884307	-0.673922	-0.000096
C86	C	1.384307	-0.173922	0.499904
C87	C	0.757040	-0.656880	-0.000096
C88	C	1.257040	-0.156880	0.499904
C89	C	0.758116	-0.584057	-0.000080
C90	C	1.258116	-0.084057	0.499920
C91	C	0.822289	-0.556170	-0.000058
C92	C	1.322289	-0.056170	0.499942
C93	C	0.952154	0.087527	-0.000049
C94	C	1.452154	0.587527	0.499951
C95	C	1.029658	0.088666	-0.000059
C96	C	1.529658	0.588666	0.499941
C97	C	0.819000	0.220684	-0.000078
C98	C	1.319000	0.720684	0.499922
C99	C	0.820140	0.298188	-0.000099
C100	C	1.320140	0.798188	0.499901
N101	N	0.824487	0.093015	0.356075
N102	N	1.324487	0.593015	0.856075
N103	N	0.824492	0.093013	-0.356163
N104	N	1.324492	0.593013	0.143837
C105	C	0.919737	-0.002171	0.356088
C106	C	1.419737	0.497829	0.856088
C107	C	0.967366	-0.049762	0.428035
C108	C	1.467366	0.450238	0.928035
C109	C	0.967374	-0.049763	0.571915
C110	C	1.467374	0.450237	1.071915
C111	C	0.919744	-0.002168	0.643851
C112	C	1.419744	0.497832	1.143851
C113	C	0.872115	0.045423	0.571904
C114	C	1.372115	0.545423	1.071904
C115	C	0.872114	0.045419	0.428021
C116	C	1.372114	0.545419	0.928021
C117	C	0.776862	0.140604	0.571891
C118	C	1.276862	0.640604	1.071891
C119	C	0.776858	0.140609	0.428011
C120	C	1.276858	0.640609	0.928011
C121	C	0.729233	0.188199	0.643827
C122	C	1.229233	0.688199	1.143827
C123	C	0.681606	0.235794	0.571880
C124	C	1.181606	0.735794	1.071880
C125	C	0.681601	0.235793	0.427992
C126	C	1.181601	0.735793	0.927992
C127	C	0.729228	0.188200	0.356064
C128	C	1.229228	0.688200	0.856064
H129	H	0.183999	-0.024728	-0.000044
H130	H	0.683999	0.475272	0.499956
H131	H	1.006145	-0.088514	0.369452
H132	H	1.506145	0.411486	0.869452
O133	O	0.919753	-0.002169	0.799036
O134	O	1.419753	0.497831	1.299036
H135	H	0.908758	-0.054303	0.836991
H136	H	1.408758	0.445697	1.336991
H137	H	0.937635	-0.578390	-0.000054
H138	H	1.437635	-0.078390	0.499946
O139	O	0.009085	0.220884	-0.000067
O140	O	0.509085	0.720884	0.499933
H141	H	0.040716	0.265684	-0.000078
H142	H	0.540716	0.765684	0.499922
O143	O	0.958905	-0.278368	0.000003
O144	O	1.458905	0.221632	0.500003
H145	H	0.961444	-0.311961	0.093166
H146	H	1.461444	0.188039	0.593166
H147	H	1.006155	-0.088518	0.630494
H148	H	1.506155	0.411482	1.130494
H149	H	0.706740	-0.547478	-0.000077
H150	H	1.206740	-0.047478	0.499923
O151	O	0.952358	-0.722383	-0.000078
O152	O	1.452358	-0.222383	0.499922
H153	H	0.997158	-0.690753	-0.000044
H154	H	1.497158	-0.190753	0.499956
O155	O	0.729241	0.188207	0.799012
O156	O	1.229241	0.688207	1.299012
H157	H	0.770367	0.147125	0.836959
H158	H	1.270367	0.647125	1.336959
O159	O	0.160459	0.223116	-0.000045
O160	O	0.660459	0.723116	0.499955
H161	H	0.116984	0.266811	-0.000033
H162	H	0.616984	0.766811	0.499967
H163	H	0.711342	-0.235581	-0.000035
H164	H	1.211342	0.264419	0.499965
O165	O	0.630215	0.287116	0.350403
O166	O	1.130215	0.787116	0.850403
H167	H	0.638203	0.279117	0.238267
H168	H	1.138203	0.779117	0.738267
H169	H	0.642827	0.274539	0.630460
H170	H	1.142827	0.774539	1.130460
O171	O	0.687828	-0.686955	-0.000091
O172	O	1.187828	-0.186955	0.499909
H173	H	0.697680	-0.745141	-0.000086
H174	H	1.197680	-0.245141	0.499914
O175	O	0.729216	0.188196	0.200879
O176	O	1.229216	0.688196	0.700879
H177	H	0.770331	0.147102	0.162951
H178	H	1.270331	0.647102	0.662951
O179	O	0.696610	-0.091579	-0.000006
O180	O	1.196610	0.408421	0.499994
H181	H	0.651809	-0.123207	-0.000000
H182	H	1.151809	0.376793	0.500000
H183	H	0.464978	0.210765	-0.000042
H184	H	0.964978	0.710765	0.499958
O185	O	0.044506	-0.043643	-0.000037
O186	O	0.544506	0.456357	0.499963
H187	H	0.062573	-0.073953	-0.093189
H188	H	0.562573	0.426047	0.406811
O189	O	0.604468	0.229670	-0.000039
O190	O	1.104468	0.729670	0.499961
H191	H	0.560990	0.273362	-0.000019
H192	H	1.060990	0.773362	0.499981
O193	O	0.639878	-0.034860	-0.000007
O194	O	1.139878	0.465140	0.499993
H195	H	0.695202	-0.023335	0.000007
H196	H	1.195202	0.476665	0.500007
O197	O	0.488516	-0.037086	0.000002
O198	O	0.988516	0.462914	0.500002
H199	H	0.531994	-0.080779	0.000030
H200	H	1.031994	0.419221	0.500030
H201	H	0.919742	-0.002170	0.238934
H202	H	1.419742	0.497830	0.738934
H203	H	0.944179	-0.134379	0.000018
H204	H	1.444179	0.365621	0.500018
