data_functionalizedCrystal
_audit_creation_method	'MofGen! by Chris Wilmer'
_symmetry_space_group_name_H-M	'P1'
_symmetry_Int_Tables_number	1
_symmetry_cell_setting	triclinic
loop_
_symmetry_equiv_pos_as_xyz
  x,y,z
_cell_length_a	9.065215
_cell_length_b	9.065218
_cell_length_c	8.140239
_cell_angle_alpha	90.010962
_cell_angle_beta	89.997810
_cell_angle_gamma	94.984675
loop_
_atom_site_label
_atom_site_type_symbol
_atom_site_fract_x
_atom_site_fract_y
_atom_site_fract_z
O1	O	1.960400	-0.216334	-0.136626
O2	O	2.460400	0.283666	0.363374
O3	O	1.531115	-0.234085	-0.136636
O4	O	2.031115	0.265915	0.363364
O5	O	1.754631	-0.010567	-0.136589
O6	O	2.254631	0.489433	0.363411
O7	O	1.736885	-0.439852	-0.136673
O8	O	2.236885	0.060148	0.363327
O9	O	1.754618	-0.010564	0.136638
O10	O	2.254618	0.489436	0.636638
O11	O	1.531103	-0.234082	0.136591
O12	O	2.031103	0.265918	0.636591
O13	O	1.960388	-0.216331	0.136601
O14	O	2.460388	0.283669	0.636601
Zn15	Zn	1.745743	-0.225206	0.179977
Zn16	Zn	2.245743	0.274794	0.679977
Zn17	Zn	1.745760	-0.225210	-0.180012
Zn18	Zn	2.245760	0.274790	0.319988
O19	O	1.736872	-0.439849	0.136554
O20	O	2.236872	0.060151	0.636554
C21	C	1.476122	-0.232379	-0.000023
C22	C	1.976122	0.267621	0.499977
C23	C	1.312279	-0.227281	-0.000025
C24	C	1.812279	0.272719	0.499975
C25	C	1.752919	0.044421	0.000032
C26	C	2.252919	0.544421	0.500032
C27	C	1.747819	0.208264	0.000054
C28	C	2.247819	0.708264	0.500054
C29	C	2.015381	-0.218038	-0.000015
C30	C	2.515381	0.281962	0.499985
C31	C	2.179224	-0.223136	-0.000024
C32	C	2.679224	0.276864	0.499976
N33	N	1.745743	-0.225203	0.425659
N34	N	2.245743	0.274797	0.925659
C35	C	1.738584	0.505163	-0.000025
C36	C	2.238584	1.005163	0.499975
C37	C	1.743683	0.341320	0.000077
C38	C	2.243683	0.841320	0.500077
N39	N	1.745772	-0.225202	-0.425694
N40	N	2.245772	0.274798	0.074306
