data_functionalizedCrystal
_audit_creation_method	'MofGen! by Chris Wilmer'
_symmetry_space_group_name_H-M	'P1'
_symmetry_Int_Tables_number	1
_symmetry_cell_setting	triclinic
loop_
_symmetry_equiv_pos_as_xyz
  x,y,z
_cell_length_a	6.817900
_cell_length_b	17.982783
_cell_length_c	14.858572
_cell_angle_alpha	95.362850
_cell_angle_beta	104.524003
_cell_angle_gamma	102.448572
loop_
_atom_site_label
_atom_site_type_symbol
_atom_site_fract_x
_atom_site_fract_y
_atom_site_fract_z
V1	V	-4.033194	-0.105892	-0.290348
O2	O	-4.025835	0.004595	-0.284424
O3	O	-3.979617	-0.209492	-0.288744
O4	O	-3.989902	-0.104480	-0.416804
O5	O	-4.015479	-0.101144	-0.155477
V6	V	-4.516830	-0.092651	-0.274170
O7	O	-4.294202	-0.134938	-0.325836
O8	O	-4.706019	-0.063605	-0.238682
O9	O	-4.347200	0.010949	-0.275774
O10	O	-4.641586	-0.203138	-0.280094
O11	O	-4.651942	-0.097399	-0.409041
O12	O	-4.336916	-0.094063	-0.147713
C13	C	-3.823193	-0.234740	-0.284262
C14	C	-3.860709	-0.319436	-0.283794
C15	C	-3.835225	-0.348204	-0.198369
C16	C	-3.870495	-0.427785	-0.197933
C17	C	-3.931234	-0.478596	-0.282921
C18	C	-3.956725	-0.449823	-0.368353
C19	C	-3.921470	-0.370243	-0.368789
C20	C	-4.098909	-0.770758	-0.366596
C21	C	-4.134158	-0.850342	-0.366153
C22	C	-4.047935	-0.828300	-0.195739
C23	C	-4.012680	-0.748720	-0.196175
C24	C	-4.038184	-0.719954	-0.281607
C25	C	-3.999943	-0.633663	-0.282079
C26	C	-3.969460	-0.564885	-0.282449
C27	C	-3.836312	-0.100786	-0.447615
C28	C	-3.882165	-0.100317	-0.550996
C29	C	-4.049990	-0.098602	-0.929558
C30	C	-4.003288	-0.099079	-0.824230
C31	C	-3.966079	-0.099460	-0.740280
C32	C	-3.919374	-0.099936	-0.634946
C33	C	-4.166966	0.036193	-0.280253
C34	C	-4.108689	0.120888	-0.280727
C35	C	-4.153848	-0.097759	-0.116898
C36	C	-4.087233	-0.098225	-0.013516
H37	H	-3.963213	-0.707353	-0.126969
O38	O	-4.123687	-0.742694	-0.449499
C39	C	-4.079521	-0.661560	-0.431669
H40	H	-4.100885	-0.642568	-0.360112
H41	H	-3.911295	-0.636073	-0.431748
C42	C	-4.203424	-0.656341	-0.596634
C43	C	-4.229681	-0.633015	-0.508750
H44	H	-4.296041	-0.638732	-0.644183
H45	H	-4.233172	-0.711002	-0.608648
H46	H	-4.063230	-0.635100	-0.596686
H47	H	-4.369865	-0.654264	-0.508694
H48	H	-4.199959	-0.578357	-0.496738
O49	O	-3.846155	-0.455766	-0.114978
C50	C	-4.037006	-0.504831	-0.114065
H51	H	-4.171749	-0.489684	-0.165663
H52	H	-4.036203	-0.567274	-0.135603
C53	C	-3.899055	-0.513141	0.049098
C54	C	-4.064550	-0.494533	-0.014269
H55	H	-3.916044	-0.506792	0.110657
H56	H	-3.770472	-0.480087	0.048483
H57	H	-3.898404	-0.565176	0.031138
H58	H	-4.065183	-0.442497	0.003685
H59	H	-4.193134	-0.527578	-0.013648
O60	O	-4.023372	-0.856375	-0.112835
C61	C	-4.067472	-0.937508	-0.130666
H62	H	-4.172586	-0.959198	-0.205451
H63	H	-3.915162	-0.956152	-0.122404
C64	C	-4.050299	-0.945009	0.031574
C65	C	-4.179417	-0.971649	-0.060277
H66	H	-4.119342	-0.966069	0.074996
H67	H	-4.020580	-0.890348	0.043589
H68	H	-3.923381	-0.960548	0.038445
H69	H	-4.306319	-0.956102	-0.067149
H70	H	-4.209160	-1.026308	-0.072291
H71	H	-4.183620	-0.891712	-0.435365
O72	O	-3.946226	-0.342422	-0.451852
C73	C	-4.007446	-0.404332	-0.526774
H74	H	-3.956683	-0.456479	-0.499868
H75	H	-4.184728	-0.419605	-0.557020
C76	C	-3.965759	-0.316839	-0.637148
C77	C	-3.903395	-0.380885	-0.604103
H78	H	-3.901585	-0.302376	-0.684851
H79	H	-3.924522	-0.275129	-0.586672
H80	H	-4.113494	-0.329576	-0.662347
H81	H	-3.755667	-0.368145	-0.578894
H82	H	-3.944605	-0.422593	-0.654576
H83	H	-4.006196	-0.491200	-0.437552
O84	O	-3.776487	-0.298778	-0.115878
C85	C	-3.926569	-0.255793	-0.115449
H86	H	-4.016396	-0.254670	-0.190971
H87	H	-4.040046	-0.283611	-0.076331
C88	C	-3.705556	-0.174159	0.026953
C89	C	-3.815870	-0.172774	-0.065805
H90	H	-3.637275	-0.122949	0.057579
H91	H	-3.604445	-0.203120	0.026666
H92	H	-3.800138	-0.197344	0.059539
H93	H	-3.721284	-0.149598	-0.098393
H94	H	-3.916963	-0.143807	-0.065523
