data_functionalizedCrystal
_audit_creation_method	'MofGen! by Chris Wilmer'
_symmetry_space_group_name_H-M	'P1'
_symmetry_Int_Tables_number	1
_symmetry_cell_setting	triclinic
loop_
_symmetry_equiv_pos_as_xyz
  x,y,z
_cell_length_a	16.625546
_cell_length_b	19.805407
_cell_length_c	16.625548
_cell_angle_alpha	89.994286
_cell_angle_beta	89.988486
_cell_angle_gamma	90.022468
loop_
_atom_site_label
_atom_site_type_symbol
_atom_site_fract_x
_atom_site_fract_y
_atom_site_fract_z
Zn1	Zn	0.321150	-1.034662	0.455918
Zn2	Zn	0.654484	-0.701328	0.789251
Zn3	Zn	0.987817	-0.367995	1.122585
Zn4	Zn	0.455949	-1.034612	0.321080
Zn5	Zn	0.789282	-0.701278	0.654414
Zn6	Zn	1.122616	-0.367945	0.987747
Zn7	Zn	0.321134	-0.921504	0.321096
Zn8	Zn	0.654468	-0.588170	0.654430
Zn9	Zn	0.987801	-0.254837	0.987763
Zn10	Zn	0.455945	-0.921448	0.455868
Zn11	Zn	0.789278	-0.588114	0.789201
Zn12	Zn	1.122611	-0.254781	1.122535
O13	O	0.388545	-0.978056	0.388491
O14	O	0.721878	-0.644723	0.721824
O15	O	1.055211	-0.311389	1.055157
O16	O	0.339040	-1.129372	0.438046
O17	O	0.672374	-0.796038	0.771379
O18	O	1.005707	-0.462705	1.104713
O19	O	0.438061	-1.019610	0.208250
O20	O	0.771394	-0.686277	0.541584
O21	O	1.104727	-0.352943	0.874917
O22	O	0.208304	-0.936559	0.339008
O23	O	0.541637	-0.603225	0.672342
O24	O	0.874971	-0.269892	1.005675
O25	O	0.438076	-1.129335	0.338981
O26	O	0.771410	-0.796001	0.672315
O27	O	1.104743	-0.462668	1.005648
O28	O	0.208316	-1.019695	0.438061
O29	O	0.541649	-0.686362	0.771395
O30	O	0.874983	-0.353029	1.104728
O31	O	0.339013	-0.936510	0.208262
O32	O	0.672346	-0.603177	0.541595
O33	O	1.005679	-0.269844	0.874929
O34	O	0.339009	-0.826780	0.338960
O35	O	0.672342	-0.493446	0.672293
O36	O	1.005675	-0.160113	1.005627
O37	O	0.438069	-0.936463	0.568707
O38	O	0.771402	-0.603130	0.902040
O39	O	1.104736	-0.269796	1.235374
O40	O	0.438053	-0.826738	0.437976
O41	O	0.771387	-0.493405	0.771309
O42	O	1.104720	-0.160072	1.104643
O43	O	0.339036	-1.019641	0.568744
O44	O	0.672370	-0.686308	0.902077
O45	O	1.005703	-0.352974	1.235410
O46	O	0.568781	-1.019556	0.338933
O47	O	0.902114	-0.686222	0.672266
O48	O	1.235448	-0.352889	1.005599
O49	O	0.568778	-0.936415	0.437960
O50	O	0.902111	-0.603081	0.771294
O51	O	1.235444	-0.269748	1.104627
C52	C	0.598036	-0.977992	0.388457
C53	C	0.931369	-0.644659	0.721790
C54	C	1.264702	-0.311325	1.055124
C55	C	0.687657	-0.978027	0.388469
C56	C	1.020990	-0.644693	0.721803
C57	C	1.354323	-0.311360	1.055136
C58	C	0.388529	-0.802200	0.388465
C59	C	0.721863	-0.468867	0.721798
C60	C	1.055196	-0.135533	1.055131
C61	C	0.388542	-0.726968	0.388473
C62	C	0.721875	-0.393635	0.721806
C63	C	1.055209	-0.060301	1.055139
C64	C	0.178236	-0.978139	0.388542
C65	C	0.511569	-0.644805	0.721876
C66	C	0.844902	-0.311472	1.055209
C67	C	0.088615	-0.978174	0.388564
C68	C	0.421948	-0.644841	0.721898
C69	C	0.755281	-0.311507	1.055231
C70	C	1.015832	-0.978145	0.388553
C71	C	1.349166	-0.644811	0.721887
C72	C	1.682499	-0.311478	1.055220
C73	C	0.924524	-0.978110	0.388532
C74	C	1.257857	-0.644776	0.721866
C75	C	1.591190	-0.311443	1.055199
C76	C	0.851747	-0.978085	0.388511
C77	C	1.185081	-0.644752	0.721844
C78	C	1.518414	-0.311418	1.055178
C79	C	0.760433	-0.978051	0.388491
C80	C	1.093766	-0.644718	0.721824
C81	C	1.427100	-0.311384	1.055157
C82	C	0.388554	-0.978051	0.598800
C83	C	0.721887	-0.644718	0.932133
C84	C	1.055221	-0.311385	1.265466
C85	C	0.388558	-0.978049	0.688421
C86	C	0.721891	-0.644716	1.021754
C87	C	1.055225	-0.311383	1.355087
C88	C	0.388561	-1.154599	0.388517
C89	C	0.721894	-0.821265	0.721851
C90	C	1.055227	-0.487932	1.055184
C91	C	0.388568	-1.229831	0.388529
C92	C	0.721901	-0.896497	0.721862
C93	C	1.055234	-0.563164	1.055195
C94	C	0.440192	-0.691620	0.439947
C95	C	0.773526	-0.358287	0.773280
C96	C	1.106859	-0.024954	1.106613
C97	C	0.440194	-0.620932	0.439958
C98	C	0.773527	-0.287598	0.773292
C99	C	1.106860	0.045735	1.106625
C100	C	0.388548	-0.585593	0.388491
C101	C	0.721882	-0.252259	0.721824
C102	C	1.055215	0.081074	1.055157
C103	C	0.336892	-0.620945	0.337014
C104	C	0.670226	-0.287612	0.670348
C105	C	1.003559	0.045721	1.003681
C106	C	0.336888	-0.691632	0.337008
C107	C	0.670221	-0.358299	0.670341
C108	C	1.003554	-0.024966	1.003674
C109	C	0.336910	-0.335872	0.337041
C110	C	0.670244	-0.002539	0.670374
C111	C	1.003577	0.330795	1.003708
C112	C	0.336921	-0.265180	0.337050
C113	C	0.670254	0.068153	0.670383
C114	C	1.003588	0.401487	1.003716
C115	C	0.440216	-0.265171	0.439992
C116	C	0.773550	0.068162	0.773325
C117	C	1.106883	0.401495	1.106658
C118	C	0.440211	-0.335858	0.439985
C119	C	0.773545	-0.002525	0.773318
C120	C	1.106878	0.330808	1.106652
C121	C	0.388553	-0.371205	0.388512
C122	C	0.721886	-0.037872	0.721845
C123	C	1.055220	0.295462	1.055178
C124	C	0.388551	-0.447854	0.388501
C125	C	0.721884	-0.114520	0.721834
C126	C	1.055218	0.218813	1.055168
C127	C	0.388554	-0.508945	0.388497
C128	C	0.721887	-0.175612	0.721830
C129	C	1.055220	0.157721	1.055163
C130	C	0.388562	-0.978047	0.761203
C131	C	0.721895	-0.644714	1.094536
C132	C	1.055228	-0.311381	1.427870
C133	C	0.388559	-0.978047	0.852512
C134	C	0.721892	-0.644713	1.185845
C135	C	1.055225	-0.311380	1.519178
C136	C	0.388552	-0.978049	0.925288
C137	C	0.721885	-0.644716	1.258621
C138	C	1.055219	-0.311383	1.591955
C139	C	0.388550	-0.978050	1.016602
C140	C	0.721883	-0.644716	1.349936
C141	C	1.055217	-0.311383	1.683269
C142	C	0.388552	-0.978054	1.179000
C143	C	0.721885	-0.644721	1.512333
C144	C	1.055219	-0.311388	1.845667
C145	C	0.388543	-0.978053	1.089379
C146	C	0.721877	-0.644719	1.422712
C147	C	1.055210	-0.311386	1.756045
H148	H	0.482251	-0.720388	0.481855
H149	H	0.815584	-0.387055	0.815188
H150	H	1.148917	-0.053722	1.148522
Cl151	Cl	0.271966	-0.380299	0.272334
Cl152	Cl	0.605299	-0.046965	0.605667
Cl153	Cl	0.938632	0.286368	0.939000
H154	H	0.294838	-0.592166	0.295112
H155	H	0.628172	-0.258833	0.628445
H156	H	0.961505	0.074500	0.961779
H157	H	0.294860	-0.236409	0.295139
H158	H	0.628193	0.096925	0.628472
H159	H	0.961527	0.430258	0.961805
Cl160	Cl	0.271951	-0.736070	0.272296
Cl161	Cl	0.605284	-0.402737	0.605630
Cl162	Cl	0.938618	-0.069403	0.938963
H163	H	0.482253	-0.592155	0.481873
H164	H	0.815586	-0.258821	0.815206
H165	H	1.148920	0.074512	1.148540
Cl166	Cl	0.505142	-0.380281	0.504687
Cl167	Cl	0.838476	-0.046948	0.838020
Cl168	Cl	1.171809	0.286386	1.171353
H169	H	0.482276	-0.236384	0.481906
H170	H	0.815610	0.096950	0.815240
H171	H	1.148943	0.430283	1.148573
