data_functionalizedCrystal
_audit_creation_method	'MofGen! by Chris Wilmer'
_symmetry_space_group_name_H-M	'P1'
_symmetry_Int_Tables_number	1
_symmetry_cell_setting	triclinic
loop_
_symmetry_equiv_pos_as_xyz
  x,y,z
_cell_length_a	8.497374
_cell_length_b	12.759401
_cell_length_c	12.759399
_cell_angle_alpha	89.983359
_cell_angle_beta	89.991562
_cell_angle_gamma	90.001753
loop_
_atom_site_label
_atom_site_type_symbol
_atom_site_fract_x
_atom_site_fract_y
_atom_site_fract_z
Zn1	Zn	0.891958	1.606064	0.418406
Zn2	Zn	0.628160	1.606013	0.594052
Zn3	Zn	0.628185	1.430422	0.418393
Zn4	Zn	0.891892	1.430354	0.594048
O5	O	0.760048	1.518213	0.506225
O6	O	0.856982	1.753079	0.441713
O7	O	0.407401	1.582728	0.570747
O8	O	0.663213	1.453771	0.271373
O9	O	0.663171	1.753041	0.570760
O10	O	0.857005	1.582815	0.271383
O11	O	0.407419	1.453722	0.441691
O12	O	0.663149	1.283392	0.441686
O13	O	1.112663	1.453655	0.570752
O14	O	0.856893	1.283342	0.570739
O15	O	1.112711	1.582749	0.441709
O16	O	0.663107	1.582661	0.741073
O17	O	0.856869	1.453605	0.741069
C18	C	0.760017	1.245246	0.506212
C19	C	0.760041	1.128469	0.506232
C20	C	0.760013	1.518149	0.779192
C21	C	0.760050	1.518217	0.895969
C22	C	0.860765	1.073609	0.573532
C23	C	0.860796	0.963885	0.573536
C24	C	0.659366	0.963891	0.438937
C25	C	0.659344	1.073613	0.438928
C26	C	1.046781	0.813947	0.611283
C27	C	1.147491	0.759083	0.678599
C28	C	1.171437	0.794674	0.781136
C29	C	1.094649	0.885128	0.816378
C30	C	0.993928	0.939987	0.749067
C31	C	0.970012	0.904397	0.646515
C32	C	0.473357	1.223553	0.401192
C33	C	0.372627	1.278414	0.333885
C34	C	0.348665	1.242824	0.231346
C35	C	0.425424	1.152367	0.196109
C36	C	0.526155	1.097506	0.263415
C37	C	0.550119	1.133103	0.365953
C38	C	1.171529	1.518205	0.506226
C39	C	1.350173	1.518208	0.506237
C40	C	0.760081	1.792246	0.506238
C41	C	0.760095	1.909023	0.506244
C42	C	0.760119	1.518307	0.232191
C43	C	0.760149	1.518346	0.115415
C44	C	0.659273	1.585494	0.950797
C45	C	0.659326	1.585561	1.060521
C46	C	0.860938	1.451067	1.060578
C47	C	0.860891	1.451006	0.950856
C48	C	0.603186	1.709582	1.210382
C49	C	0.502384	1.776849	1.265215
C50	C	0.348458	1.793046	1.229634
C51	C	0.295302	1.741961	1.139222
C52	C	0.396096	1.674686	1.084396
C53	C	0.550044	1.658509	1.119975
C54	C	0.917015	1.326983	0.800993
C55	C	1.017802	1.259702	0.746165
C56	C	1.171731	1.243495	0.781743
C57	C	1.224880	1.294561	0.872158
C58	C	1.124094	1.361842	0.926987
C59	C	0.970167	1.378052	0.891401
H60	H	0.942763	1.118269	0.628332
C61	C	1.282593	1.169477	0.721428
N62	N	1.366096	1.113733	0.676000
H63	H	0.266384	1.847818	1.274286
H64	H	0.588668	1.023856	0.234713
C65	C	1.020464	0.774794	0.498482
N66	N	1.000640	0.745298	0.413519
C67	C	1.231964	0.659591	0.639827
N68	N	1.295588	0.584653	0.610628
H69	H	1.350223	1.281365	0.901127
H70	H	0.577380	0.919214	0.384142
H71	H	0.545678	1.818443	1.338828
H72	H	0.791677	1.340183	0.772010
H73	H	0.405889	1.123377	0.112620
H74	H	0.169953	1.755146	1.110266
H75	H	0.931408	1.013632	0.777760
H76	H	1.114141	0.914093	0.899879
H77	H	0.974517	1.218127	0.672539
H78	H	1.167384	1.403428	1.000605
H79	H	0.310124	1.352069	0.362585
C80	C	1.282225	0.734321	0.855181
N81	N	1.365677	0.688861	0.910946
H82	H	0.266627	1.287497	0.176550
H83	H	0.492873	1.252546	0.484685
H84	H	0.577164	1.640223	0.906111
H85	H	0.352819	1.633096	1.010783
C86	C	0.772517	1.691776	1.249526
N87	N	0.900057	1.678362	1.279017
C88	C	0.971840	1.377127	1.120965
N89	N	1.055366	1.321428	1.166447
