data_functionalizedCrystal
_audit_creation_method	'MofGen! by Chris Wilmer'
_symmetry_space_group_name_H-M	'P1'
_symmetry_Int_Tables_number	1
_symmetry_cell_setting	triclinic
loop_
_symmetry_equiv_pos_as_xyz
  x,y,z
_cell_length_a	12.811445
_cell_length_b	12.811487
_cell_length_c	11.295483
_cell_angle_alpha	99.530033
_cell_angle_beta	80.460739
_cell_angle_gamma	84.561825
loop_
_atom_site_label
_atom_site_type_symbol
_atom_site_fract_x
_atom_site_fract_y
_atom_site_fract_z
O1	O	1.410201	0.124503	-0.237855
O2	O	1.102183	0.142368	-0.202667
O3	O	1.265127	-0.020570	-0.237851
O4	O	1.247257	0.287442	-0.202671
O5	O	1.250815	-0.006281	-0.036713
O6	O	1.087871	0.156658	-0.001529
O7	O	1.395889	0.138792	-0.036716
Cu8	Cu	1.240574	0.149030	-0.000757
Cu9	Cu	1.257499	0.132131	-0.238627
O10	O	1.232946	0.301731	-0.001532
C11	C	1.055621	0.148949	-0.097904
C12	C	0.938204	0.147255	-0.085409
C13	C	1.257407	-0.052831	-0.141478
C14	C	1.255715	-0.170247	-0.153978
C15	C	0.733163	0.128511	-0.281230
C16	C	0.622839	0.126919	-0.269495
C17	C	0.607230	0.142487	-0.050203
C18	C	0.717553	0.144078	-0.061938
C19	C	0.780517	0.137089	-0.177456
C20	C	0.890843	0.138673	-0.189191
C21	C	0.875231	0.154248	0.030101
C22	C	0.764907	0.152656	0.041836
C23	C	1.236950	-0.375319	0.041834
C24	C	1.235359	-0.485641	0.030095
C25	C	1.250951	-0.501216	-0.189196
C26	C	1.252542	-0.390894	-0.177457
C27	C	1.245539	-0.327949	-0.061937
C28	C	1.247122	-0.217624	-0.050198
C29	C	1.262721	-0.233202	-0.269489
C30	C	1.261131	-0.343524	-0.281228
C31	C	1.442451	0.132212	-0.141482
C32	C	1.559869	0.133905	-0.153986
C33	C	1.240665	0.333992	-0.097909
C34	C	1.242358	0.451407	-0.085416
N35	N	1.228677	0.160915	0.166547
N36	N	1.269404	0.120237	-0.405932
C37	C	1.355042	0.034623	0.388558
C38	C	1.346059	0.043613	0.515162
C39	C	1.201724	0.187876	0.546361
C40	C	1.210707	0.178887	0.419757
C41	C	1.287369	0.102259	0.340860
C42	C	1.296357	0.093276	0.214253
C43	C	1.152017	0.237534	0.245454
C44	C	1.143035	0.246523	0.372058
H45	H	0.784430	0.122815	-0.375290
N46	N	0.926305	0.163514	0.142038
H47	H	0.869674	0.167702	0.216994
H48	H	0.980532	0.098954	0.133918
H49	H	0.584289	0.119937	-0.353999
H50	H	1.417470	-0.027763	0.324319
N51	N	0.539315	0.150022	0.074383
H52	H	0.586244	0.154225	0.138155
H53	H	0.485361	0.216054	0.092760
N54	N	0.696988	0.160195	0.166420
H55	H	0.658542	0.094994	0.167636
H56	H	0.743977	0.164456	0.230127
H57	H	1.401163	-0.011464	0.553994
N58	N	1.119032	0.270506	0.631466
H59	H	1.123609	0.265929	0.718905
H60	H	1.132561	0.343944	0.616154
N61	N	1.060348	0.329162	0.457156
H62	H	1.064922	0.324594	0.544599
H63	H	1.073887	0.402595	0.441833
N64	N	1.239566	-0.149729	0.074391
H65	H	1.233887	-0.196483	0.138346
H66	H	1.305447	-0.112409	0.076003
N67	N	1.226101	-0.536732	0.142021
H68	H	1.157411	-0.505337	0.200034
H69	H	1.226205	-0.616166	0.116956
N70	N	1.271997	-0.182114	-0.381426
H71	H	1.338566	-0.145486	-0.389473
H72	H	1.276149	-0.238794	-0.456312
N73	N	1.229382	-0.307419	0.166422
H74	H	1.223693	-0.354168	0.230383
H75	H	1.295261	-0.270097	0.168044
H76	H	1.256664	-0.552486	-0.283248
H77	H	1.096917	0.292610	0.206605
H78	H	1.266836	-0.394789	-0.375281
N79	N	1.379042	0.010636	0.129153
H80	H	1.420546	-0.030848	0.178586
H81	H	1.342431	-0.039740	0.075951
H82	H	0.942107	0.132981	-0.283251
