data_functionalizedCrystal
_audit_creation_method	'MofGen! by Chris Wilmer'
_symmetry_space_group_name_H-M	'P1'
_symmetry_Int_Tables_number	1
_symmetry_cell_setting	triclinic
loop_
_symmetry_equiv_pos_as_xyz
  x,y,z
_cell_length_a	19.077105
_cell_length_b	14.908520
_cell_length_c	19.077174
_cell_angle_alpha	95.695642
_cell_angle_beta	85.483752
_cell_angle_gamma	91.150228
loop_
_atom_site_label
_atom_site_type_symbol
_atom_site_fract_x
_atom_site_fract_y
_atom_site_fract_z
Zn1	Zn	1.074745	-0.438339	-0.460807
Zn2	Zn	1.408079	-0.105006	-0.127473
Zn3	Zn	1.741412	0.228328	0.205860
Zn4	Zn	1.063678	-0.582887	-0.349172
Zn5	Zn	1.397011	-0.249554	-0.015839
Zn6	Zn	1.730345	0.083779	0.317494
Zn7	Zn	0.952676	-0.425728	-0.337659
Zn8	Zn	1.286009	-0.092395	-0.004325
Zn9	Zn	1.619343	0.240939	0.329008
Zn10	Zn	0.950574	-0.582828	-0.462287
Zn11	Zn	1.283908	-0.249495	-0.128954
Zn12	Zn	1.617241	0.083839	0.204379
O13	O	1.010418	-0.507446	-0.402481
O14	O	1.343752	-0.174112	-0.069148
O15	O	1.677085	0.159221	0.264185
O16	O	1.171698	-0.462816	-0.450197
O17	O	1.505031	-0.129483	-0.116863
O18	O	1.838365	0.203851	0.216470
O19	O	1.045201	-0.556787	-0.248768
O20	O	1.378534	-0.223453	0.084565
O21	O	1.711868	0.109880	0.417899
O22	O	0.974380	-0.301160	-0.348556
O23	O	1.307713	0.032173	-0.015223
O24	O	1.641047	0.365507	0.318111
O25	O	1.163567	-0.569015	-0.368180
O26	O	1.496900	-0.235682	-0.034846
O27	O	1.830233	0.097652	0.298487
O28	O	1.064064	-0.310425	-0.439032
O29	O	1.397397	0.022908	-0.105699
O30	O	1.730731	0.356241	0.227634
O31	O	0.963648	-0.441323	-0.240309
O32	O	1.296982	-0.107989	0.093024
O33	O	1.630315	0.225344	0.426358
O34	O	0.853976	-0.441265	-0.349992
O35	O	1.187310	-0.107932	-0.016659
O36	O	1.520643	0.225401	0.316675
O37	O	0.970798	-0.568914	-0.560968
O38	O	1.304131	-0.235581	-0.227635
O39	O	1.637465	0.097752	0.105699
O40	O	0.852432	-0.556686	-0.441556
O41	O	1.185766	-0.223353	-0.108223
O42	O	1.519099	0.109981	0.225110
O43	O	1.062026	-0.462759	-0.559880
O44	O	1.395359	-0.129426	-0.226547
O45	O	1.728693	0.203908	0.106787
O46	O	1.043163	-0.709120	-0.369615
O47	O	1.376496	-0.375787	-0.036282
O48	O	1.709830	-0.042454	0.297051
O49	O	0.960066	-0.709077	-0.452721
O50	O	1.293400	-0.375744	-0.119387
O51	O	1.626733	-0.042410	0.213946
C52	C	0.827685	-0.497601	-0.394686
C53	C	1.161018	-0.164268	-0.061353
C54	C	1.494352	0.169065	0.271981
C55	C	0.749510	-0.493413	-0.391369
C56	C	1.082844	-0.160079	-0.058036
C57	C	1.416177	0.173254	0.275298
C58	C	0.711992	-0.551621	-0.437416
C59	C	1.045325	-0.218288	-0.104083
C60	C	1.378659	0.115045	0.229251
C61	C	0.638539	-0.547674	-0.434302
C62	C	0.971873	-0.214341	-0.100969
C63	C	1.305206	0.118993	0.232365
C64	C	0.602606	-0.485521	-0.385137
C65	C	0.935940	-0.152188	-0.051804
C66	C	1.269273	0.181145	0.281529
C67	C	0.640130	-0.427307	-0.339088
C68	C	0.973463	-0.093973	-0.005755
C69	C	1.306797	0.239360	0.327578
C70	C	0.713582	-0.431250	-0.342206
C71	C	1.046915	-0.097917	-0.008873
C72	C	1.380248	0.235416	0.324461
C73	C	0.383015	-0.467269	-0.370711
C74	C	0.716348	-0.133936	-0.037378
C75	C	1.049682	0.199397	0.295956
C76	C	0.309558	-0.463332	-0.367595
C77	C	0.642891	-0.129998	-0.034262
C78	C	0.976225	0.203335	0.299071
C79	C	0.307972	-0.583699	-0.462810
C80	C	0.641306	-0.250365	-0.129477
C81	C	0.974639	0.082968	0.203856
C82	C	0.381425	-0.587641	-0.465921
C83	C	0.714758	-0.254307	-0.132588
C84	C	1.048092	0.079026	0.200746
C85	C	0.418943	-0.529422	-0.419874
C86	C	0.752276	-0.196089	-0.086541
C87	C	1.085609	0.137244	0.246792
N88	N	0.527526	-0.481487	-0.381952
N89	N	0.860859	-0.148154	-0.048618
N90	N	1.194192	0.185180	0.284715
N91	N	0.494022	-0.533453	-0.423064
N92	N	0.827356	-0.200120	-0.089731
N93	N	1.160689	0.133213	0.243603
C94	C	1.000205	-0.741833	-0.412594
C95	C	1.333539	-0.408500	-0.079261
C96	C	1.666872	-0.075167	0.254072
C97	C	0.995901	-0.842110	-0.416947
C98	C	1.329235	-0.508777	-0.083614
C99	C	1.662568	-0.175443	0.249719
C100	C	1.074438	-1.030534	-0.338666
C101	C	1.407771	-0.697200	-0.005333
C102	C	1.741104	-0.363867	0.328001
C103	C	1.070396	-1.124752	-0.342754
C104	C	1.403730	-0.791419	-0.009420
C105	C	1.737063	-0.458086	0.323913
C106	C	0.983781	-1.124769	-0.429214
C107	C	1.317114	-0.791435	-0.095880
C108	C	1.650447	-0.458102	0.237453
C109	C	0.987822	-1.030550	-0.425126
C110	C	1.321156	-0.697217	-0.091793
C111	C	1.654489	-0.363883	0.241541
C112	C	1.033152	-0.983435	-0.379850
C113	C	1.366485	-0.650102	-0.046517
C114	C	1.699818	-0.316769	0.286817
C115	C	1.037189	-0.889214	-0.375759
C116	C	1.370522	-0.555881	-0.042426
C117	C	1.703856	-0.222548	0.290908
C118	C	0.950578	-0.889233	-0.462222
C119	C	1.283911	-0.555900	-0.128889
C120	C	1.617244	-0.222566	0.204445
C121	C	0.946536	-0.983452	-0.466310
C122	C	1.279870	-0.650119	-0.132976
C123	C	1.613203	-0.316785	0.200357
C124	C	1.193865	-0.517329	-0.410307
C125	C	1.527199	-0.183996	-0.076974
C126	C	1.860532	0.149338	0.256359
C127	C	1.272039	-0.521541	-0.413642
C128	C	1.605373	-0.188207	-0.080309
C129	C	1.938706	0.145126	0.253024
C130	C	1.017412	-0.517237	-0.586779
C131	C	1.350746	-0.183903	-0.253445
C132	C	1.684079	0.149430	0.079888
C133	C	1.020393	-0.521409	-0.665315
C134	C	1.353726	-0.188076	-0.331982
C135	C	1.687059	0.145258	0.001352
C136	C	1.020691	-0.272145	-0.392345
C137	C	1.354024	0.061189	-0.059011
C138	C	1.687358	0.394522	0.274322
C139	C	1.025068	-0.171873	-0.388025
C140	C	1.358402	0.161460	-0.054692
C141	C	1.691735	0.494793	0.278641
C142	C	0.979335	-0.463255	-0.697807
C143	C	1.312668	-0.129921	-0.364474
C144	C	1.646001	0.203412	-0.031141
C145	C	0.982132	-0.467182	-0.771601
C146	C	1.315465	-0.133849	-0.438268
C147	C	1.648799	0.199484	-0.104934
C148	C	1.025992	-0.529261	-0.812901
C149	C	1.359325	-0.195928	-0.479568
C150	C	1.692658	0.137406	-0.146234
C151	C	1.067051	-0.587422	-0.780404
C152	C	1.400384	-0.254088	-0.447071
C153	C	1.733718	0.079245	-0.113738
C154	C	1.064249	-0.583498	-0.706612
C155	C	1.397583	-0.250164	-0.373279
C156	C	1.730916	0.083169	-0.039945
C157	C	1.038920	-0.547447	-1.034069
C158	C	1.372253	-0.214114	-0.700736
C159	C	1.705586	0.119219	-0.367403
C160	C	1.041720	-0.551365	-1.107866
C161	C	1.375053	-0.218032	-0.774533
C162	C	1.708387	0.115302	-0.441200
C163	C	0.956799	-0.431126	-1.099058
C164	C	1.290133	-0.097793	-0.765725
C165	C	1.623466	0.235540	-0.432391
C166	C	0.954005	-0.427204	-1.025265
C167	C	1.287338	-0.093871	-0.691931
C168	C	1.620672	0.239463	-0.358598
C169	C	0.995062	-0.485368	-0.992774
C170	C	1.328395	-0.152035	-0.659441
C171	C	1.661728	0.181299	-0.326107
N172	N	1.028854	-0.533275	-0.888330
N173	N	1.362187	-0.199942	-0.554997
N174	N	1.695520	0.133391	-0.221664
N175	N	0.992195	-0.481357	-0.917346
N176	N	1.325529	-0.148024	-0.584013
N177	N	1.658862	0.185309	-0.250680
C178	C	1.003495	-0.497630	-0.218900
C179	C	1.336828	-0.164296	0.114434
C180	C	1.670162	0.169037	0.447767
C181	C	1.000662	-0.493210	-0.140358
C182	C	1.333995	-0.159877	0.192975
C183	C	1.667329	0.173456	0.526308
H184	H	0.607995	-0.595075	-0.471798
H185	H	0.941328	-0.261741	-0.138464
H186	H	1.274662	0.071592	0.194869
Br187	Br	1.126433	-1.188670	-0.286863
Br188	Br	1.459767	-0.855337	0.046471
Br189	Br	1.793100	-0.522003	0.379804
Br190	Br	0.922280	-1.188726	-0.490667
Br191	Br	1.255613	-0.855393	-0.157334
Br192	Br	1.588947	-0.522060	0.176000
Br193	Br	0.764501	-0.352245	-0.279715
Br194	Br	1.097834	-0.018912	0.053618
Br195	Br	1.431168	0.314422	0.386952
Br196	Br	0.260791	-0.378986	-0.300860
Br197	Br	0.594124	-0.045652	0.032473
Br198	Br	0.927458	0.287681	0.365807
Br199	Br	1.094644	-0.626379	-0.989984
Br200	Br	1.427978	-0.293046	-0.656651
Br201	Br	1.761311	0.040287	-0.323317
Br202	Br	1.126569	-0.671680	-0.836454
Br203	Br	1.459902	-0.338347	-0.503121
Br204	Br	1.793236	-0.005014	-0.169787
H205	H	1.074097	-0.850855	-0.338891
H206	H	1.407430	-0.517521	-0.005558
H207	H	1.740763	-0.184188	0.327776
H208	H	1.097689	-0.630847	-0.680158
H209	H	1.431022	-0.297514	-0.346825
H210	H	1.764356	0.035820	-0.013492
Br211	Br	1.135940	-0.966587	-0.277208
Br212	Br	1.469273	-0.633253	0.056125
Br213	Br	1.802607	-0.299920	0.389458
Br214	Br	0.885025	-1.047401	-0.527757
Br215	Br	1.218359	-0.714068	-0.194424
Br216	Br	1.551692	-0.380734	0.138910
H217	H	0.277418	-0.631095	-0.500300
H218	H	0.610751	-0.297762	-0.166966
H219	H	0.944084	0.035571	0.166367
Br220	Br	0.919813	-0.378994	-0.641764
Br221	Br	1.253147	-0.045661	-0.308430
Br222	Br	1.586480	0.287672	0.024903
H223	H	0.916958	-0.850875	-0.495755
H224	H	1.250291	-0.517541	-0.162421
H225	H	1.583624	-0.184208	0.170912
Br226	Br	0.433923	-0.388254	-0.308223
Br227	Br	0.767256	-0.054921	0.025111
Br228	Br	1.100590	0.278413	0.358444
H229	H	0.948695	-0.419830	-0.798052
H230	H	1.282029	-0.086497	-0.464719
H231	H	1.615362	0.246837	-0.131386
Br232	Br	0.591365	-0.342947	-0.272370
Br233	Br	0.924699	-0.009614	0.060963
Br234	Br	1.258032	0.323719	0.394297
Br235	Br	0.894483	-0.342947	-0.969219
Br236	Br	1.227816	-0.009614	-0.635885
Br237	Br	1.561149	0.323720	-0.302552
Br238	Br	0.901081	-0.352196	-1.143156
Br239	Br	1.234415	-0.018862	-0.809822
Br240	Br	1.567748	0.314471	-0.476489
Br241	Br	1.101257	-0.635609	-1.163917
Br242	Br	1.434590	-0.302276	-0.830584
Br243	Br	1.767923	0.031057	-0.497250
H244	H	0.410677	-0.638254	-0.505955
H245	H	0.744010	-0.304920	-0.172621
H246	H	1.077343	0.028413	0.160712
Br247	Br	0.760751	-0.635982	-0.504138
Br248	Br	1.094084	-0.302649	-0.170805
Br249	Br	1.427417	0.030685	0.162529
