data_functionalizedCrystal
_audit_creation_method	'MofGen! by Chris Wilmer'
_symmetry_space_group_name_H-M	'P1'
_symmetry_Int_Tables_number	1
_symmetry_cell_setting	triclinic
loop_
_symmetry_equiv_pos_as_xyz
  x,y,z
_cell_length_a	27.732048
_cell_length_b	27.732048
_cell_length_c	26.809956
_cell_angle_alpha	90.000636
_cell_angle_beta	89.996742
_cell_angle_gamma	97.357345
loop_
_atom_site_label
_atom_site_type_symbol
_atom_site_fract_x
_atom_site_fract_y
_atom_site_fract_z
O1	O	0.640931	-0.057510	-0.041421
O2	O	0.500138	-0.066256	-0.041436
O3	O	0.574907	0.008514	-0.041419
O4	O	0.566162	-0.132280	-0.041439
O5	O	0.574893	0.008502	0.041541
O6	O	0.500123	-0.066267	0.041523
O7	O	0.640917	-0.057522	0.041539
Zn8	Zn	0.570518	-0.061896	0.054702
Zn9	Zn	0.570536	-0.061881	-0.054600
O10	O	0.566147	-0.132291	0.041521
C11	C	0.482124	-0.066078	0.000041
C12	C	0.428469	-0.065525	0.000036
C13	C	0.089654	-0.106229	0.000051
C14	C	-0.112006	-0.104178	0.000056
O15	O	-0.143262	-0.141398	0.000073
N16	N	-0.131130	-0.059843	0.000062
C17	C	-0.099835	-0.016017	0.000069
O18	O	-0.120728	0.021740	0.000079
C19	C	0.101824	-0.018068	0.000068
C20	C	0.120944	-0.062407	0.000057
C21	C	0.108775	-0.150563	0.000042
C22	C	0.159187	-0.151076	0.000038
C23	C	0.190477	-0.107253	0.000044
C24	C	0.171356	-0.062919	0.000054
C25	C	0.133117	0.025757	0.000079
C26	C	0.183535	0.025240	0.000080
C27	C	0.202655	-0.019098	0.000069
C28	C	0.253059	-0.019609	0.000056
N29	N	0.272183	-0.063944	0.000050
C30	C	0.240892	-0.107766	0.000044
C31	C	-0.205709	-0.014943	0.000069
C32	C	-0.256124	-0.014430	0.000068
C33	C	-0.268291	-0.102591	0.000056
C34	C	-0.217876	-0.103104	0.000053
C35	C	-0.186585	-0.059278	0.000063
C36	C	0.346761	-0.108839	0.000036
C37	C	0.397178	-0.109347	0.000030
C38	C	0.409341	-0.021186	0.000044
C39	C	0.358929	-0.020678	0.000048
C40	C	0.327639	-0.064508	0.000045
O41	O	0.284343	0.017592	0.000045
O42	O	0.261794	-0.145518	0.000045
C43	C	0.039242	-0.105716	0.000055
C44	C	0.020120	-0.061382	0.000065
C45	C	0.051411	-0.017560	0.000071
C46	C	-0.030294	-0.060869	0.000065
C47	C	-0.061585	-0.104691	0.000059
C48	C	-0.042461	-0.149026	0.000053
C49	C	0.007951	-0.149539	0.000049
C50	C	0.032287	0.026775	0.000077
C51	C	-0.018125	0.027284	0.000080
C52	C	-0.049416	-0.016538	0.000074
C53	C	0.574716	0.026515	0.000062
C54	C	0.574164	0.080170	0.000066
C55	C	0.658931	-0.057699	0.000060
C56	C	0.712586	-0.058252	0.000062
C57	C	0.566338	-0.150292	0.000039
C58	C	0.566891	-0.203947	0.000031
N59	N	0.570509	-0.061906	0.129298
C60	C	0.614867	0.418985	0.000045
C61	C	0.612816	0.620645	0.000038
O62	O	0.650037	0.651900	0.000021
N63	N	0.568481	0.639768	0.000034
C64	C	0.524656	0.608474	0.000028
O65	O	0.486899	0.629367	0.000019
C66	C	0.526707	0.406815	0.000031
C67	C	0.571045	0.387694	0.000041
C68	C	0.659202	0.399864	0.000054
C69	C	0.659714	0.349452	0.000059
C70	C	0.615892	0.318161	0.000054
C71	C	0.571557	0.337282	0.000045
C72	C	0.482882	0.375521	0.000022
C73	C	0.483399	0.325104	0.000021
C74	C	0.527737	0.305983	0.000031
C75	C	0.528247	0.255580	0.000045
N76	N	0.572583	0.236456	0.000050
C77	C	0.616405	0.267747	0.000054
C78	C	0.523582	0.714348	0.000027
C79	C	0.523069	0.764762	0.000027
C80	C	0.611230	0.776930	0.000036
C81	C	0.611742	0.726514	0.000040
C82	C	0.567917	0.695224	0.000031
C83	C	0.617477	0.161878	0.000064
C84	C	0.617986	0.111461	0.000071
C85	C	0.529825	0.099298	0.000059
C86	C	0.529316	0.149710	0.000055
C87	C	0.573147	0.180999	0.000056
O88	O	0.491047	0.224296	0.000057
O89	O	0.654156	0.246844	0.000053
C90	C	0.614355	0.469397	0.000041
C91	C	0.570021	0.488518	0.000032
C92	C	0.526198	0.457228	0.000027
C93	C	0.569508	0.538933	0.000032
C94	C	0.613330	0.570223	0.000036
C95	C	0.657665	0.551100	0.000041
C96	C	0.658177	0.500688	0.000045
C97	C	0.481863	0.476351	0.000023
C98	C	0.481355	0.526764	0.000019
C99	C	0.525177	0.558054	0.000023
N100	N	0.570549	-0.061867	-0.129196
C101	C	0.603640	-0.028781	0.473932
C102	C	0.603652	-0.028774	0.682810
O103	O	0.631801	-0.000613	0.709820
N104	N	0.570539	-0.061870	0.708925
C105	C	0.537419	-0.094969	0.682818
O106	O	0.509252	-0.123116	0.709824
C107	C	0.537406	-0.094974	0.473941
C108	C	0.570524	-0.061878	0.447829
C109	C	0.636755	0.004312	0.447819
C110	C	0.636754	0.004308	0.395603
C111	C	0.603637	-0.028789	0.369500
C112	C	0.570522	-0.061882	0.395612
C113	C	0.504284	-0.128070	0.447835
C114	C	0.504283	-0.128067	0.395613
C115	C	0.537401	-0.094972	0.369500
C116	C	0.537405	-0.094983	0.317293
N117	N	0.570517	-0.061887	0.291177
C118	C	0.603633	-0.028790	0.317281
C119	C	0.537429	-0.094965	0.792481
C120	C	0.537433	-0.094964	0.844700
C121	C	0.603665	-0.028768	0.844689
C122	C	0.603663	-0.028772	0.792469
C123	C	0.570542	-0.061868	0.766366
C124	C	0.603628	-0.028801	0.207623
C125	C	0.603625	-0.028809	0.155402
C126	C	0.537392	-0.095003	0.155418
C127	C	0.537396	-0.094997	0.207635
C128	C	0.570516	-0.061892	0.233735
O129	O	0.509266	-0.123126	0.290250
O130	O	0.631789	-0.000640	0.290266
C131	C	0.603642	-0.028777	0.526149
C132	C	0.570527	-0.061870	0.552261
C133	C	0.537410	-0.094968	0.526158
C134	C	0.570531	-0.061870	0.604480
C135	C	0.603647	-0.028773	0.630584
C136	C	0.636759	0.004324	0.604468
C137	C	0.636758	0.004320	0.552252
C138	C	0.504298	-0.128064	0.552273
C139	C	0.504303	-0.128058	0.604489
C140	C	0.537419	-0.094961	0.630593
H141	H	0.174750	-0.187180	0.000029
C142	C	0.338101	0.027425	0.000133
C143	C	0.309507	0.030285	0.042813
C144	C	0.290313	0.074589	0.042910
H145	H	0.363910	0.053491	0.000160
H146	H	0.318658	0.029469	-0.028778
H147	H	0.328949	0.028247	0.071716
H148	H	0.283691	0.004230	0.042795
H149	H	0.270869	0.076632	0.013999
H150	H	0.316125	0.100651	0.042936
H151	H	0.270906	0.076533	0.071865
H152	H	0.445246	0.542327	0.000015
H153	H	0.434827	0.014492	0.000047
H154	H	0.446177	0.450879	0.000018
H155	H	0.486964	0.780325	0.000028
H156	H	0.630595	-0.001859	0.134142
C157	C	0.639541	0.007224	0.873062
C158	C	0.614008	0.036640	0.903033
C159	C	0.647035	0.069806	0.929174
H160	H	0.659546	-0.009967	0.893472
H161	H	0.659255	0.026967	0.850050
H162	H	0.594302	0.016899	0.926042
H163	H	0.594004	0.053842	0.882635
H164	H	0.666750	0.089550	0.906163
H165	H	0.667039	0.052611	0.949582
H166	H	0.629716	0.089772	0.949509
H167	H	-0.293777	-0.138273	0.000051
H168	H	0.446777	0.391080	0.000011
C169	C	0.705193	0.585159	0.000019
C170	C	0.695247	0.633400	0.000000
C171	C	0.739014	0.664790	-0.000031
H172	H	0.723423	0.579466	0.028942
H173	H	0.723396	0.579425	-0.028921
H174	H	0.677052	0.639130	0.028937
H175	H	0.677024	0.639108	-0.028921
H176	H	0.757217	0.659057	-0.028971
H177	H	0.757241	0.659093	0.028893
H178	H	0.732272	0.697525	-0.000048
H179	H	0.083302	-0.186251	0.000038
H180	H	-0.202311	-0.139207	0.000047
H181	H	0.487892	0.688875	0.000020
C182	C	0.312875	-0.156477	0.000003
C183	C	0.340420	-0.195408	-0.000021
C184	C	0.309221	-0.239299	-0.000062
H185	H	0.292941	-0.158189	0.028924
H186	H	0.292964	-0.158132	-0.028939
H187	H	0.360322	-0.193753	0.028918
H188	H	0.360352	-0.193712	-0.028940
H189	H	0.289310	-0.240954	-0.029004
H190	H	0.289289	-0.241006	0.028860
H191	H	0.327906	-0.265718	-0.000083
C192	C	0.672735	0.040310	0.523996
C193	C	0.701724	0.069300	0.558042
C194	C	0.734868	0.102466	0.532034
H195	H	0.692773	0.023119	0.503621
H196	H	0.655511	0.060341	0.503638
H197	H	0.718946	0.049271	0.578390
H198	H	0.681699	0.086502	0.578417
H199	H	0.717644	0.122497	0.511676
H200	H	0.754903	0.085271	0.511660
H201	H	0.754538	0.122143	0.555130
C202	C	0.501456	-0.130823	0.873112
C203	C	0.472070	-0.105277	0.903103
C204	C	0.438923	-0.138293	0.929285
H205	H	0.481687	-0.150546	0.850139
H206	H	0.518679	-0.150821	0.893509
H207	H	0.454849	-0.085288	0.882707
H208	H	0.491826	-0.085556	0.926084
H209	H	0.456146	-0.158291	0.949683
H210	H	0.419157	-0.158014	0.906309
H211	H	0.418984	-0.120965	0.949641
H212	H	0.654093	0.095896	0.000080
H213	H	0.057760	0.062462	0.000083
C214	C	0.468420	-0.164048	0.632864
C215	C	0.493937	-0.193473	0.662835
C216	C	0.460896	-0.226632	0.688973
H217	H	0.448416	-0.146851	0.653273
H218	H	0.448704	-0.183785	0.609850
H219	H	0.513644	-0.173739	0.685846
H220	H	0.513938	-0.210681	0.642438
H221	H	0.441181	-0.246369	0.665960
H222	H	0.440895	-0.209431	0.709380
H223	H	0.478205	-0.246604	0.709309
H224	H	0.630597	-0.001843	0.228868
C225	C	-0.276786	0.033759	0.000099
C226	C	-0.238586	0.072023	0.000118
C227	C	-0.257599	0.116423	0.000156
H228	H	-0.296189	0.035868	-0.028823
H229	H	-0.296187	0.035815	0.029041
H230	H	-0.219194	0.069968	-0.028821
H231	H	-0.219180	0.069930	0.029037
H232	H	-0.277000	0.118479	0.029098
H233	H	-0.277003	0.118527	-0.028766
H234	H	-0.231684	0.142391	0.000174
C235	C	0.435763	0.291212	0.000038
C236	C	0.396829	0.318753	0.000041
C237	C	0.352941	0.287550	0.000064
H238	H	0.434067	0.271280	-0.028883
H239	H	0.434096	0.271301	0.028980
H240	H	0.398496	0.338656	-0.028898
H241	H	0.398509	0.338684	0.028960
H242	H	0.351273	0.267638	0.029006
H243	H	0.351250	0.267619	-0.028858
H244	H	0.326519	0.306232	0.000071
C245	C	-0.171685	0.032607	-0.000004
C246	C	-0.142376	0.034890	-0.042679
C247	C	-0.111025	0.078683	-0.042763
H248	H	-0.190239	0.059121	-0.000028
H249	H	-0.151737	0.034246	0.028910
H250	H	-0.162320	0.033256	-0.071586
H251	H	-0.123811	0.008387	-0.042664
H252	H	-0.091078	0.080322	-0.013848
H253	H	-0.129583	0.105193	-0.042785
H254	H	-0.091132	0.080236	-0.071714
H255	H	0.117558	0.061861	0.000088
H256	H	0.209009	0.060929	0.000089
C257	C	0.658824	0.810886	0.000140
C258	C	0.685538	0.802310	0.042826
C259	C	0.729378	0.833588	0.042937
H260	H	0.677079	0.805154	-0.028757
H261	H	0.652184	0.843655	0.000165
H262	H	0.692180	0.769549	0.042797
H263	H	0.667298	0.808045	0.071729
H264	H	0.722738	0.866357	0.042962
H265	H	0.747629	0.827853	0.014039
H266	H	0.747508	0.827777	0.071901
C267	C	0.028612	-0.197728	0.000067
C268	C	-0.009589	-0.235991	0.000076
C269	C	0.009421	-0.280392	0.000100
H270	H	0.048019	-0.199830	-0.028855
H271	H	0.048009	-0.199794	0.029008
H272	H	-0.028978	-0.233926	-0.028862
H273	H	-0.028999	-0.233904	0.028996
H274	H	0.028818	-0.282457	0.029041
H275	H	0.028828	-0.282489	-0.028822
H276	H	-0.016495	-0.306358	0.000111
H277	H	0.493213	0.165279	0.000061
C278	C	0.706367	0.480026	0.000026
C279	C	0.744629	0.518228	0.000016
C280	C	0.789030	0.499217	-0.000010
H281	H	0.708468	0.460621	0.028949
H282	H	0.708433	0.460627	-0.028915
H283	H	0.742564	0.537619	0.028954
H284	H	0.742544	0.537636	-0.028904
H285	H	0.791097	0.479818	-0.028950
H286	H	0.791127	0.479813	0.028913
H287	H	0.814997	0.525134	-0.000021
H288	H	-0.033688	0.063392	0.000085
H289	H	0.477330	-0.155015	0.531024
C290	C	0.501447	-0.130959	0.764236
C291	C	0.472463	-0.159948	0.798289
C292	C	0.439317	-0.193117	0.772290
H293	H	0.481405	-0.113770	0.743866
H294	H	0.518669	-0.150990	0.743874
H295	H	0.455243	-0.139919	0.818642
H296	H	0.492492	-0.177148	0.818660
H297	H	0.456539	-0.213149	0.751929
H298	H	0.419279	-0.175924	0.751921
H299	H	0.419651	-0.212793	0.795392
H300	H	0.412743	-0.145454	0.000021
C301	C	0.468401	-0.164054	0.476205
C302	C	0.493917	-0.193483	0.506174
C303	C	0.460875	-0.226643	0.532310
H304	H	0.448399	-0.146858	0.496616
H305	H	0.448685	-0.183789	0.453190
H306	H	0.513625	-0.173751	0.529187
H307	H	0.513917	-0.210691	0.485775
H308	H	0.441158	-0.246377	0.509295
H309	H	0.440874	-0.209442	0.552718
H310	H	0.478182	-0.246617	0.552644
H311	H	-0.067947	-0.184708	0.000046
H312	H	0.653168	0.187348	0.000063
H313	H	0.695819	0.333889	0.000065
C314	C	0.672728	0.040300	0.367347
C315	C	0.701717	0.069291	0.401393
C316	C	0.734858	0.102460	0.375385
H317	H	0.692768	0.023111	0.346971
H318	H	0.655503	0.060330	0.346990
H319	H	0.718941	0.049263	0.421740
H320	H	0.681691	0.086491	0.421769
H321	H	0.717632	0.122490	0.355029
H322	H	0.754894	0.085267	0.355010
H323	H	0.754528	0.122137	0.398481
C324	C	0.639639	0.007218	0.764210
C325	C	0.668632	0.036207	0.798254
C326	C	0.701774	0.069373	0.772244
H327	H	0.659675	-0.009974	0.743834
H328	H	0.622414	0.027250	0.743855
H329	H	0.685855	0.016178	0.818601
H330	H	0.648609	0.053410	0.818632
H331	H	0.684550	0.089405	0.751888
H332	H	0.721807	0.052177	0.751868
H333	H	0.721447	0.089049	0.795338
H334	H	0.494146	0.073812	0.000057
C335	C	0.468301	-0.164058	0.367364
C336	C	0.439310	-0.193046	0.401413
C337	C	0.406165	-0.226211	0.375410
H338	H	0.448263	-0.146867	0.346992
H339	H	0.485523	-0.184091	0.347004
H340	H	0.422090	-0.173016	0.421764
H341	H	0.459335	-0.210249	0.421786
H342	H	0.423387	-0.246244	0.355050
H343	H	0.386130	-0.209015	0.355039
H344	H	0.386494	-0.245886	0.398508
C345	C	0.501385	-0.130949	0.235898
C346	C	0.472376	-0.159927	0.201858
C347	C	0.439187	-0.193043	0.227873
H348	H	0.518559	-0.150999	0.256276
H349	H	0.481369	-0.113704	0.256254
H350	H	0.492389	-0.177171	0.181512
H351	H	0.455191	-0.139891	0.181480
H352	H	0.419171	-0.175798	0.248228
H353	H	0.456365	-0.213089	0.248249
H354	H	0.419497	-0.212705	0.204781
C355	C	0.501514	-0.130956	0.127006
C356	C	0.527036	-0.160363	0.097013
C357	C	0.493998	-0.193482	0.070827
H358	H	0.481774	-0.150715	0.149976
H359	H	0.481534	-0.113713	0.106609
H360	H	0.547007	-0.177606	0.117408
H361	H	0.546773	-0.140618	0.074034
H362	H	0.474019	-0.176238	0.050430
H363	H	0.474260	-0.213237	0.093800
H364	H	0.511310	-0.213435	0.050470
H365	H	0.663722	0.031266	0.469068
H366	H	0.663726	0.031271	0.625730
H367	H	0.694889	0.425336	0.000056
H368	H	0.647846	0.710950	0.000047
