data_functionalizedCrystal
_audit_creation_method	'MofGen! by Chris Wilmer'
_symmetry_space_group_name_H-M	'P1'
_symmetry_Int_Tables_number	1
_symmetry_cell_setting	triclinic
loop_
_symmetry_equiv_pos_as_xyz
  x,y,z
_cell_length_a	23.532407
_cell_length_b	19.188905
_cell_length_c	22.010155
_cell_angle_alpha	89.976716
_cell_angle_beta	89.991245
_cell_angle_gamma	82.991616
loop_
_atom_site_label
_atom_site_type_symbol
_atom_site_fract_x
_atom_site_fract_y
_atom_site_fract_z
O1	O	0.071031	0.925941	-0.050631
O2	O	0.080618	0.722597	-0.050611
O3	O	-0.007095	0.830401	-0.050611
O4	O	0.158744	0.818137	-0.050632
O5	O	-0.007094	0.830368	0.050439
O6	O	0.080619	0.722564	0.050439
O7	O	0.071032	0.925908	0.050419
Cu8	Cu	0.075825	0.824233	0.059656
Cu9	Cu	0.075825	0.824272	-0.059848
O10	O	0.158744	0.818104	0.050418
C11	C	0.080310	0.696570	-0.000084
C12	C	0.079385	0.619067	-0.000075
C13	C	-0.028311	0.830072	-0.000084
C14	C	-0.091530	0.829133	-0.000079
C15	C	0.078941	0.582695	-0.055160
C16	C	0.078065	0.509874	-0.055167
C17	C	0.077623	0.473430	-0.000087
C18	C	0.078071	0.509811	0.055004
C19	C	0.078952	0.582629	0.055010
N20	N	0.043831	0.364505	0.040908
N21	N	0.042993	0.295330	0.040898
C22	C	0.074970	0.254032	-0.000102
N23	N	0.107810	0.284523	-0.041101
N24	N	0.108646	0.353704	-0.041093
C25	C	0.076668	0.394471	-0.000087
C26	C	0.073577	0.138699	-0.055198
C27	C	0.072706	0.065877	-0.055203
C28	C	0.072706	0.065815	0.054970
C29	C	0.073583	0.138636	0.054974
C30	C	0.074016	0.175074	-0.000112
C31	C	-0.490514	0.887040	-0.000118
C32	C	-0.549916	0.886168	-0.000123
O33	O	-0.586551	0.939848	-0.000151
N34	N	-0.572674	0.822078	-0.000116
C35	C	-0.536026	0.758857	-0.000111
O36	O	-0.560837	0.704264	-0.000106
C37	C	-0.476625	0.759730	-0.000111
C38	C	-0.453871	0.823824	-0.000111
C39	C	-0.467759	0.951129	-0.000120
C40	C	-0.408362	0.952000	-0.000114
C41	C	-0.371718	0.888784	-0.000107
C42	C	-0.394473	0.824696	-0.000106
C43	C	-0.439978	0.696509	-0.000110
C44	C	-0.380574	0.697388	-0.000110
C45	C	-0.357820	0.761482	-0.000111
C46	C	-0.298432	0.762351	-0.000093
N47	N	-0.275674	0.826440	-0.000100
C48	C	-0.312317	0.889657	-0.000107
C49	C	-0.660772	0.757029	-0.000112
C50	C	-0.720172	0.756155	-0.000108
C51	C	-0.734058	0.883466	-0.000121
C52	C	-0.674657	0.884339	-0.000121
C53	C	-0.638014	0.821118	-0.000119
C54	C	-0.187577	0.891483	-0.000094
C55	C	-0.128173	0.892350	-0.000086
C56	C	-0.114292	0.765039	-0.000077
C57	C	-0.173691	0.764172	-0.000081
C58	C	-0.210332	0.827400	-0.000093
O59	O	-0.261762	0.708699	-0.000068
O60	O	-0.287498	0.944241	-0.000120
C61	C	0.179961	0.818433	-0.000110
C62	C	0.243180	0.819372	-0.000118
C63	C	0.071340	0.951935	-0.000110
C64	C	0.072265	1.029437	-0.000122
N65	N	0.075826	0.824210	0.143708
C66	C	0.110277	0.866372	0.563479
C67	C	0.110276	0.866380	0.627086
O68	O	0.139560	0.902206	0.659970
N69	N	0.075824	0.824278	0.658915
C70	C	0.041367	0.782172	0.627133
O71	O	0.012062	0.746362	0.660047
C72	C	0.041365	0.782168	0.563527
C73	C	0.075823	0.824267	0.531701
C74	C	0.144731	0.908469	0.531653
C75	C	0.144733	0.908460	0.468050
C76	C	0.110280	0.866355	0.436272
C77	C	0.075825	0.824259	0.468098
C78	C	0.006905	0.740066	0.531746
C79	C	0.006906	0.740067	0.468135
C80	C	0.041364	0.782166	0.436310
C81	C	0.041373	0.782145	0.372717
N82	N	0.075824	0.824247	0.340888
C83	C	0.110278	0.866352	0.372666
C84	C	0.041372	0.782183	0.760711
C85	C	0.041377	0.782182	0.824316
C86	C	0.110285	0.866391	0.824265
C87	C	0.110283	0.866388	0.760658
C88	C	0.075824	0.824284	0.728882
C89	C	0.110279	0.866330	0.239094
C90	C	0.110279	0.866315	0.175486
C91	C	0.041369	0.782109	0.175543
C92	C	0.041371	0.782120	0.239146
C93	C	0.075827	0.824236	0.270920
O94	O	0.012101	0.746339	0.339793
O95	O	0.139572	0.902162	0.339744
N96	N	0.075828	0.824290	0.856099
H97	H	0.079293	0.612359	-0.100015
N98	N	0.179925	0.951475	0.564118
N99	N	0.157602	0.997796	0.599601
H100	H	0.182463	1.028167	0.622528
N101	N	-0.463212	0.631039	-0.000127
N102	N	-0.494796	0.616365	-0.042729
H103	H	-0.511205	0.570123	-0.042744
H104	H	-0.350741	0.645904	-0.000110
H105	H	0.072349	0.036143	0.099817
H106	H	0.077704	0.480254	-0.100024
H107	H	-0.656135	0.936530	-0.000122
N108	N	0.006183	0.739181	0.856831
N109	N	0.006181	0.739188	0.913622
H110	H	-0.018677	0.708820	0.936585
N111	N	-0.104941	0.957829	-0.000082
N112	N	-0.137669	1.014266	-0.000088
H113	H	-0.121264	1.060510	-0.000085
H114	H	0.077713	0.480133	0.099851
H115	H	0.079315	0.612243	0.099868
N116	N	-0.196927	0.698698	-0.000062
N117	N	-0.164201	0.642260	-0.000047
H118	H	-0.180607	0.596016	-0.000035
H119	H	-0.497589	1.002610	-0.000127
H120	H	0.013313	0.747890	0.734843
H121	H	-0.084446	0.713570	-0.000069
N122	N	0.074020	0.175914	-0.111468
N123	N	0.073628	0.143426	-0.160649
H124	H	0.073940	0.169706	-0.200391
H125	H	0.172790	0.942744	0.442143
H126	H	0.072347	0.036263	-0.100061
N127	N	-0.743420	0.690691	-0.000094
N128	N	-0.775024	0.675985	0.042500
H129	H	-0.791443	0.629750	0.042508
H130	H	-0.021156	0.705781	0.442267
N131	N	-0.028297	0.697057	0.564235
N132	N	-0.059056	0.659475	0.535843
H133	H	-0.083921	0.629098	0.558787
H134	H	0.073942	0.168251	0.099829
N135	N	-0.224991	0.956074	-0.000108
N136	N	-0.204657	1.013287	-0.000108
H137	H	-0.231081	1.058905	-0.000114
H138	H	0.138336	0.900625	0.264957
N139	N	0.006184	0.739115	0.271671
N140	N	0.028516	0.692808	0.307187
H141	H	0.003662	0.662440	0.330156
H142	H	-0.389841	1.004192	-0.000117
H143	H	0.138342	0.900597	0.149576
H144	H	0.138343	0.900668	0.734750
N145	N	0.145482	0.909391	0.856741
N146	N	0.145476	0.909381	0.913532
H147	H	0.170335	0.939744	0.936470
N148	N	-0.771503	0.948036	-0.000125
N149	N	-0.824537	0.947240	-0.000126
H150	H	-0.850985	0.992839	-0.000127
N151	N	0.006184	0.739101	0.143067
N152	N	0.006193	0.739107	0.086276
H153	H	-0.018659	0.708736	0.063337
N154	N	-0.623352	0.692439	-0.000108
N155	N	-0.643685	0.635225	-0.000103
H156	H	-0.617260	0.589608	-0.000102
