data_functionalizedCrystal
_audit_creation_method	'MofGen! by Chris Wilmer'
_symmetry_space_group_name_H-M	'P1'
_symmetry_Int_Tables_number	1
_symmetry_cell_setting	triclinic
loop_
_symmetry_equiv_pos_as_xyz
  x,y,z
_cell_length_a	19.121102
_cell_length_b	25.639233
_cell_length_c	19.121063
_cell_angle_alpha	87.579147
_cell_angle_beta	89.873098
_cell_angle_gamma	87.548369
loop_
_atom_site_label
_atom_site_type_symbol
_atom_site_fract_x
_atom_site_fract_y
_atom_site_fract_z
Zn1	Zn	1.059798	-0.339548	0.324995
Zn2	Zn	1.559798	0.160452	0.824995
Zn3	Zn	1.054717	-0.255671	0.442211
Zn4	Zn	1.554717	0.244329	0.942211
Zn5	Zn	0.942574	-0.248248	0.319984
Zn6	Zn	1.442574	0.251752	0.819984
Zn7	Zn	0.937523	-0.339198	0.437185
Zn8	Zn	1.437523	0.160802	0.937185
O9	O	0.998653	-0.295666	0.381094
O10	O	1.498653	0.204334	0.881094
O11	O	1.157228	-0.331674	0.344744
O12	O	1.657228	0.168326	0.844744
O13	O	1.039828	-0.181521	0.426003
O14	O	1.539828	0.318479	0.926003
O15	O	0.962365	-0.257399	0.222545
O16	O	1.462365	0.242601	0.722545
O17	O	1.153495	-0.270050	0.430862
O18	O	1.653495	0.229950	0.930862
O19	O	1.048488	-0.324477	0.226226
O20	O	1.548488	0.175523	0.726226
O21	O	0.957438	-0.176067	0.336204
O22	O	1.457438	0.323933	0.836204
O23	O	0.843800	-0.257060	0.331331
O24	O	1.343800	0.242940	0.831331
O25	O	0.953755	-0.412410	0.422297
O26	O	1.453755	0.087590	0.922297
O27	O	0.840088	-0.323880	0.417438
O28	O	1.340088	0.176120	0.917438
O29	O	1.043590	-0.412667	0.339871
O30	O	1.543590	0.087333	0.839871
O31	O	1.034930	-0.269711	0.539649
O32	O	1.534930	0.230289	1.039649
O33	O	0.948828	-0.331078	0.535956
O34	O	1.448828	0.168922	1.035956
C35	C	0.816506	-0.289627	0.373296
C36	C	1.316506	0.210373	0.873296
C37	C	0.738583	-0.287056	0.369977
C38	C	1.238583	0.212944	0.869977
C39	C	0.700057	-0.320588	0.413317
C40	C	1.200057	0.179412	0.913317
C41	C	0.626840	-0.318175	0.410189
C42	C	1.126840	0.181825	0.910189
C43	C	0.592149	-0.282227	0.363724
C44	C	1.092149	0.217773	0.863724
C45	C	0.630680	-0.248694	0.320380
C46	C	1.130680	0.251306	0.820380
C47	C	0.703896	-0.251110	0.323505
C48	C	1.203896	0.248890	0.823505
C49	C	0.371180	-0.273196	0.352040
C50	C	0.871180	0.226804	0.852040
C51	C	0.297959	-0.270782	0.348919
C52	C	0.797959	0.229218	0.848919
C53	C	0.294124	-0.340263	0.438728
C54	C	0.794124	0.159737	0.938728
C55	C	0.367341	-0.342674	0.441852
C56	C	0.867341	0.157326	0.941852
C57	C	0.405866	-0.309143	0.398505
C58	C	0.905866	0.190857	0.898505
C59	C	0.517310	-0.279758	0.360527
C60	C	1.017310	0.220242	0.860527
C61	C	0.480704	-0.311614	0.401698
C62	C	0.980704	0.188386	0.901698
C63	C	0.998676	-0.432040	0.381083
C64	C	1.498676	0.067960	0.881083
C65	C	0.998686	-0.490154	0.381078
C66	C	1.498686	0.009846	0.881078
C67	C	1.045525	-0.850654	0.338028
C68	C	1.545525	-0.350654	0.838028
C69	C	1.045535	-0.905258	0.338009
C70	C	1.545535	-0.405258	0.838009
O71	O	1.085299	-0.933613	0.301487
O72	O	1.585299	-0.433613	0.801487
N73	N	0.998770	-0.932434	0.380917
N74	N	1.498770	-0.432434	0.880917
C75	C	0.951988	-0.905003	0.423841
C76	C	1.451988	-0.405003	0.923841
O77	O	0.912211	-0.933131	0.460335
O78	O	1.412211	-0.433131	0.960335
C79	C	0.951976	-0.850399	0.423856
C80	C	1.451976	-0.350399	0.923856
C81	C	0.998748	-0.823227	0.380951
C82	C	1.498748	-0.323227	0.880951
C83	C	1.092294	-0.823482	0.295126
C84	C	1.592294	-0.323482	0.795126
C85	C	1.092285	-0.768882	0.295146
C86	C	1.592285	-0.268882	0.795146
C87	C	1.045508	-0.741454	0.338068
C88	C	1.545508	-0.241454	0.838068
C89	C	0.998740	-0.768627	0.380971
C90	C	1.498740	-0.268627	0.880971
C91	C	0.905191	-0.822968	0.466776
C92	C	1.405191	-0.322968	0.966776
C93	C	0.905182	-0.768361	0.466787
C94	C	1.405182	-0.268361	0.966787
C95	C	0.951955	-0.741189	0.423882
C96	C	1.451955	-0.241189	0.923882
C97	C	0.951954	-0.686599	0.423913
C98	C	1.451954	-0.186599	0.923913
N99	N	0.998718	-0.659423	0.381006
N100	N	1.498718	-0.159423	0.881006
C101	C	1.045496	-0.686851	0.338083
C102	C	1.545496	-0.186851	0.838083
C103	C	0.952017	-1.019673	0.423806
C104	C	1.452017	-0.519673	0.923806
C105	C	0.952032	-1.074275	0.423795
C106	C	1.452032	-0.574275	0.923795
C107	C	1.045578	-1.074528	0.337962
C108	C	1.545578	-0.574528	0.837962
C109	C	1.045566	-1.019924	0.337977
C110	C	1.545566	-0.519924	0.837977
C111	C	0.998781	-0.992497	0.380898
C112	C	1.498781	-0.492497	0.880898
C113	C	1.045474	-0.572186	0.338129
C114	C	1.545474	-0.072186	0.838129
C115	C	1.045463	-0.517581	0.338155
C116	C	1.545463	-0.017581	0.838155
C117	C	0.951915	-0.517334	0.423985
C118	C	1.451915	-0.017334	0.923985
C119	C	0.951928	-0.571934	0.423962
C120	C	1.451928	-0.071934	0.923962
C121	C	0.998710	-0.599359	0.381029
C122	C	1.498710	-0.099359	0.881029
O123	O	0.912207	-0.658210	0.460415
O124	O	1.412207	-0.158210	0.960415
O125	O	1.085259	-0.658715	0.301588
O126	O	1.585259	-0.158715	0.801588
C127	C	1.181510	-0.301729	0.388923
C128	C	1.681510	0.198271	0.888923
C129	C	1.259433	-0.304313	0.392259
C130	C	1.759433	0.195687	0.892259
C131	C	0.990799	-0.301174	0.563241
C132	C	1.490799	0.198826	1.063241
C133	C	0.987503	-0.303550	0.641166
C134	C	1.487503	0.196450	1.141166
C135	C	0.998672	-0.159823	0.381056
C136	C	1.498672	0.340177	0.881056
C137	C	0.998807	-0.101708	0.380870
C138	C	1.498807	0.398292	0.880870
C139	C	1.006557	-0.290149	0.198237
C140	C	1.506557	0.209851	0.698237
C141	C	1.009925	-0.287798	0.120314
C142	C	1.509925	0.212202	0.620314
C143	C	1.030818	-0.272744	0.679677
C144	C	1.530818	0.227256	1.179677
C145	C	1.027722	-0.274982	0.752896
C146	C	1.527722	0.225018	1.252896
C147	C	0.981308	-0.308023	0.787604
C148	C	1.481308	0.191977	1.287604
C149	C	0.937991	-0.338832	0.749089
C150	C	1.437991	0.161168	1.249089
C151	C	0.941090	-0.336596	0.675871
C152	C	1.441090	0.163404	1.175871
C153	C	0.969708	-0.316371	1.008581
C154	C	1.469708	0.183629	1.508581
C155	C	0.966610	-0.318603	1.081804
C156	C	1.466610	0.181397	1.581804
C157	C	1.056343	-0.254754	1.085607
C158	C	1.556343	0.245246	1.585607
C159	C	1.059435	-0.252520	1.012387
C160	C	1.559435	0.247480	1.512387
C161	C	1.016121	-0.283330	0.973878
C162	C	1.516121	0.216670	1.473878
C163	C	0.978141	-0.310310	0.862446
C164	C	1.478141	0.189690	1.362446
C165	C	1.019292	-0.281046	0.899037
C166	C	1.519292	0.218954	1.399037
H167	H	0.595476	-0.345479	0.445481
H168	H	1.095476	0.154521	0.945481
N169	N	0.252576	-0.376433	0.485472
N170	N	0.752576	0.123567	0.985472
H171	H	0.263157	-0.370186	0.536090
H172	H	0.763157	0.129814	1.036090
H173	H	0.200945	-0.369433	0.476386
H174	H	0.700945	0.130567	0.976386
H175	H	0.913952	-1.096395	0.458741
H176	H	1.413952	-0.596395	0.958741
N177	N	0.479890	-0.240981	0.310423
N178	N	0.979890	0.259019	0.810423
H179	H	0.515403	-0.220100	0.283441
H180	H	1.015403	0.279900	0.783441
H181	H	0.450918	-0.260321	0.276725
H182	H	0.950918	0.239679	0.776725
H183	H	1.083665	-1.096869	0.303010
H184	H	1.583665	-0.596869	0.803010
H185	H	1.083553	-0.495460	0.303216
H186	H	1.583553	0.004540	0.803216
H187	H	1.083566	-0.594509	0.303166
H188	H	1.583566	-0.094509	0.803166
N189	N	0.404756	-0.381443	0.491971
N190	N	0.904756	0.118557	0.991971
H191	H	0.369240	-0.402320	0.518953
H192	H	0.869240	0.097680	1.018953
H193	H	0.436374	-0.405816	0.464782
H194	H	0.936374	0.094184	0.964782
H195	H	0.602430	-0.219427	0.282544
H196	H	1.102430	0.280573	0.782544
H197	H	0.269717	-0.241512	0.311074
H198	H	0.769717	0.258488	0.811074
H199	H	1.068611	-0.245837	0.651422
H200	H	1.568611	0.254163	1.151422
N201	N	0.887924	-0.374466	0.786518
N202	N	1.387924	0.125534	1.286518
H203	H	0.899318	-0.411800	0.774208
H204	H	1.399318	0.088200	1.274208
H205	H	0.892551	-0.371163	0.838733
H206	H	1.392551	0.128837	1.338733
H207	H	0.940348	-0.337210	0.890714
H208	H	1.440348	0.162790	1.390714
N209	N	0.916549	-0.354245	1.119239
N210	N	1.416549	0.145755	1.619239
H211	H	0.921156	-0.350982	1.171465
H212	H	1.421156	0.149018	1.671465
H213	H	0.867027	-0.344030	1.104346
H214	H	1.367027	0.155970	1.604346
H215	H	0.913918	-0.997345	0.458761
H216	H	1.413918	-0.497345	0.958761
N217	N	0.737471	-0.359357	0.463437
N218	N	1.237471	0.140643	0.963437
H219	H	0.701952	-0.380233	0.490417
H220	H	1.201952	0.119767	0.990417
H221	H	0.769088	-0.383729	0.436247
H222	H	1.269088	0.116271	0.936247
N223	N	0.412727	-0.237040	0.305278
N224	N	0.912727	0.262960	0.805278
H225	H	0.379639	-0.213903	0.275369
H226	H	0.879639	0.286097	0.775369
H227	H	0.441876	-0.214669	0.335049
H228	H	0.941876	0.285331	0.835049
N229	N	1.142731	-0.739578	0.248867
N230	N	1.642731	-0.239578	0.748867
H231	H	1.172360	-0.765245	0.221675
H232	H	1.672360	-0.265245	0.721675
H233	H	1.115593	-0.714995	0.215206
H234	H	1.615593	-0.214995	0.715206
H235	H	1.130386	-0.845807	0.260169
H236	H	1.630386	-0.345807	0.760169
N237	N	0.854737	-0.852265	0.513049
N238	N	1.354737	-0.352265	1.013049
H239	H	0.861833	-0.891019	0.506534
H240	H	1.361833	-0.391019	1.006534
H241	H	0.863480	-0.844595	0.563588
H242	H	1.363480	-0.344595	1.063588
H243	H	0.913832	-0.494993	0.458934
H244	H	1.413832	0.005007	0.958934
N245	N	0.922986	-0.349597	0.967051
N246	N	1.422986	0.150403	1.467051
H247	H	0.893110	-0.370863	1.000151
H248	H	1.393110	0.129137	1.500151
H249	H	0.891848	-0.326291	0.935329
H250	H	1.391848	0.173709	1.435329
H251	H	0.905820	-0.361682	0.644516
H252	H	1.405820	0.138318	1.144516
H253	H	0.867077	-0.746033	0.501732
H254	H	1.367077	-0.246033	1.001732
N255	N	0.518121	-0.350382	0.451814
N256	N	1.018121	0.149618	0.951814
H257	H	0.503220	-0.343291	0.501344
H258	H	1.003220	0.156709	1.001344
H259	H	0.505853	-0.386991	0.440404
H260	H	1.005853	0.113009	0.940404
N261	N	1.096015	-0.990621	0.291701
N262	N	1.596015	-0.490621	0.791701
H263	H	1.127268	-0.969908	0.321591
H264	H	1.627268	-0.469908	0.821591
H265	H	1.125601	-1.016321	0.264523
H266	H	1.625601	-0.516321	0.764523
N267	N	0.901491	-0.601246	0.470246
N268	N	1.401491	-0.101246	0.970246
H269	H	0.871859	-0.575583	0.497443
H270	H	1.371859	-0.075583	0.997443
H271	H	0.870281	-0.621957	0.440312
H272	H	1.370281	-0.121957	0.940312
H273	H	1.062994	-0.249897	0.784248
H274	H	1.562994	0.250103	1.284248
H275	H	0.735263	-0.223808	0.288209
H276	H	1.235263	0.276192	0.788209
N277	N	1.109507	-0.216891	0.974953
N278	N	1.609507	0.283109	1.474953
H279	H	1.136482	-0.197718	1.010461
H280	H	1.636482	0.302282	1.510461
H281	H	1.143214	-0.238348	0.945925
H282	H	1.643214	0.261652	1.445925
N283	N	1.103055	-0.221522	1.127140
N284	N	1.603055	0.278478	1.627140
H285	H	1.094049	-0.227949	1.178790
H286	H	1.594049	0.272051	1.678790
H287	H	1.153661	-0.230955	1.116436
H288	H	1.653661	0.269045	1.616436
H289	H	1.057085	-0.254146	0.870776
H290	H	1.557085	0.245854	1.370776
