data_functionalizedCrystal
_audit_creation_method	'MofGen! by Chris Wilmer'
_symmetry_space_group_name_H-M	'P1'
_symmetry_Int_Tables_number	1
_symmetry_cell_setting	triclinic
loop_
_symmetry_equiv_pos_as_xyz
  x,y,z
_cell_length_a	16.109301
_cell_length_b	9.016244
_cell_length_c	10.540535
_cell_angle_alpha	90.008135
_cell_angle_beta	83.992613
_cell_angle_gamma	90.000023
loop_
_atom_site_label
_atom_site_type_symbol
_atom_site_fract_x
_atom_site_fract_y
_atom_site_fract_z
O1	O	1.104125	0.123263	0.163166
O2	O	0.862187	0.123285	0.183471
O3	O	0.988678	0.123259	-0.011467
O4	O	0.977634	0.123289	0.358104
O5	O	0.988672	-0.123422	-0.011481
O6	O	0.862182	-0.123396	0.183457
O7	O	1.104120	-0.123417	0.163152
Cu8	Cu	0.983150	-0.145931	0.173303
Cu9	Cu	0.983156	0.145798	0.173320
O10	O	0.977629	-0.123391	0.358090
C11	C	0.831204	-0.000053	0.182641
C12	C	0.738894	-0.000045	0.180175
C13	C	0.430553	-0.000062	0.287786
C14	C	0.517287	-0.000053	0.290115
C15	C	0.535748	-0.000053	0.058828
C16	C	0.449016	-0.000051	0.056500
C17	C	0.396420	-0.000063	0.170983
C18	C	0.569887	-0.000056	0.175640
C19	C	0.663928	-0.000047	0.178164
C20	C	0.302372	-0.000070	0.168459
N21	N	0.983152	-0.351117	0.173290
C22	C	1.051069	-0.586117	0.069364
C23	C	1.050885	-0.414226	0.068974
C24	C	0.896240	-0.413537	0.144398
C25	C	0.896644	-0.585482	0.143670
C26	C	1.001385	-0.585611	0.306478
C27	C	1.003346	-0.413656	0.305579
C28	C	1.135102	-0.000076	0.163982
C29	C	1.227412	-0.000074	0.166448
C30	C	0.987847	-0.000082	-0.058765
C31	C	0.985372	-0.000084	-0.199678
N32	N	0.983161	0.350984	0.173323
C33	C	0.893019	-0.000065	-0.235032
C34	C	0.890414	0.000521	-0.381596
C35	C	1.027533	0.140538	-0.409596
C36	C	1.029498	0.140630	-0.262859
C37	C	1.030836	-0.139902	-0.263032
C38	C	1.026564	-0.141723	-0.409318
C39	C	0.978459	-0.000047	0.405388
C40	C	0.980934	-0.000035	0.546301
H41	H	1.115465	-0.372022	0.086173
H42	H	0.421225	-0.000047	-0.038620
N43	N	0.874633	-0.356554	0.017218
H44	H	0.818606	-0.397340	-0.000520
H45	H	0.872151	-0.244642	0.019321
N46	N	1.115817	0.146941	-0.473577
H47	H	1.114781	0.151447	-0.569140
H48	H	1.144538	0.238170	-0.443730
H49	H	0.387731	-0.000071	0.381006
H50	H	0.951875	-0.626294	0.383842
N51	N	1.136902	-0.640878	0.091766
H52	H	1.174037	-0.553435	0.105860
H53	H	1.132530	-0.707015	0.169504
H54	H	0.853963	-0.100219	-0.410426
N55	N	0.592477	-0.000050	-0.064645
H56	H	0.652602	-0.000057	-0.045450
H57	H	0.581344	-0.091499	-0.115558
N58	N	1.035326	-0.359757	-0.061911
H59	H	1.035139	-0.247742	-0.062707
H60	H	1.080893	-0.397493	-0.127015
N61	N	0.554109	-0.000065	0.416090
H62	H	0.589679	0.091382	0.422224
H63	H	0.507583	-0.000129	0.488187
H64	H	0.998033	0.246121	-0.222224
H65	H	1.092633	-0.150641	-0.459296
N66	N	0.846032	-0.133589	-0.178805
H67	H	0.884152	-0.195389	-0.129862
H68	H	0.796475	-0.099560	-0.119299
N69	N	1.035767	-0.643378	-0.060793
H70	H	0.985038	-0.709884	-0.052709
H71	H	1.026045	-0.556977	-0.118391
H72	H	0.880702	-0.625609	0.046561
N73	N	0.827652	-0.640614	0.240157
H74	H	0.797109	-0.553217	0.282969
H75	H	0.787349	-0.702735	0.195560
N76	N	1.083595	-0.643032	0.343287
H77	H	1.109859	-0.710739	0.274011
H78	H	1.122157	-0.556781	0.354507
H79	H	1.067286	-0.372859	0.327504
N80	N	0.827639	-0.359384	0.242004
H81	H	0.852299	-0.293710	0.306044
H82	H	0.785524	-0.301106	0.197773
N83	N	0.942156	-0.356760	0.412853
H84	H	0.900288	-0.289342	0.377058
H85	H	0.912066	-0.443269	0.457820
N86	N	0.846826	0.133283	-0.176813
H87	H	0.885464	0.193680	-0.127634
H88	H	0.826713	0.196195	-0.246734
N89	N	0.842354	0.134786	-0.418552
H90	H	0.870811	0.227819	-0.391823
H91	H	0.840448	0.135610	-0.514017
H92	H	1.097201	0.146610	-0.240792
N93	N	0.985198	0.279672	-0.449900
H94	H	0.935845	0.251966	-0.496716
H95	H	0.965411	0.340152	-0.371895
H96	H	1.002015	-0.246496	-0.220177
N97	N	0.981682	-0.279493	-0.446650
H98	H	0.931996	-0.250265	-0.492116
H99	H	1.021020	-0.342172	-0.505214
H100	H	1.098783	-0.141279	-0.241806
