data_functionalizedCrystal
_audit_creation_method	'MofGen! by Chris Wilmer'
_symmetry_space_group_name_H-M	'P1'
_symmetry_Int_Tables_number	1
_symmetry_cell_setting	triclinic
loop_
_symmetry_equiv_pos_as_xyz
  x,y,z
_cell_length_a	16.120490
_cell_length_b	12.594516
_cell_length_c	12.594510
_cell_angle_alpha	89.966418
_cell_angle_beta	87.081464
_cell_angle_gamma	87.104371
loop_
_atom_site_label
_atom_site_type_symbol
_atom_site_fract_x
_atom_site_fract_y
_atom_site_fract_z
Zn1	Zn	1.274658	-0.506356	-0.684237
Zn2	Zn	1.774658	-0.006356	-0.184237
Zn3	Zn	1.274580	-0.684379	-0.506255
Zn4	Zn	1.774580	-0.184379	-0.006255
Zn5	Zn	1.135232	-0.497373	-0.497256
Zn6	Zn	1.635232	0.002627	0.002744
Zn7	Zn	1.135232	-0.675246	-0.675179
Zn8	Zn	1.635232	-0.175246	-0.175179
O9	O	1.204926	-0.590839	-0.590732
O10	O	1.704926	-0.090839	-0.090732
O11	O	1.391316	-0.537553	-0.668184
O12	O	1.891316	-0.037553	-0.168184
O13	O	1.256062	-0.659635	-0.356113
O14	O	1.756062	-0.159635	0.143887
O15	O	1.153760	-0.349621	-0.522084
O16	O	1.653760	0.150379	-0.022084
O17	O	1.391258	-0.668345	-0.537421
O18	O	1.891258	-0.168345	-0.037421
O19	O	1.256196	-0.356221	-0.659458
O20	O	1.756196	0.143779	-0.159458
O21	O	1.153684	-0.522243	-0.349501
O22	O	1.653684	-0.022243	0.150499
O23	O	1.018565	-0.513387	-0.513301
O24	O	1.518565	-0.013387	-0.013301
O25	O	1.153760	-0.652780	-0.825329
O26	O	1.653760	-0.152780	-0.325329
O27	O	1.018565	-0.644070	-0.644021
O28	O	1.518565	-0.144070	-0.144021
O29	O	1.256196	-0.528697	-0.831984
O30	O	1.756196	-0.028697	-0.331984
O31	O	1.256062	-0.832111	-0.528638
O32	O	1.756062	-0.332111	-0.028638
O33	O	1.153684	-0.825401	-0.652747
O34	O	1.653684	-0.325401	-0.152747
C35	C	0.988314	-0.576763	-0.576702
C36	C	1.488314	-0.076763	-0.076702
C37	C	0.895646	-0.570768	-0.570725
C38	C	1.395646	-0.070768	-0.070725
C39	C	0.684715	-0.621932	-0.621736
C40	C	1.184715	-0.121932	-0.121736
C41	C	0.725987	-0.559831	-0.559812
C42	C	1.225987	-0.059831	-0.059812
C43	C	0.820394	-0.565918	-0.565886
C44	C	1.320394	-0.065918	-0.065886
C45	C	0.590300	-0.615846	-0.615663
C46	C	1.090300	-0.115846	-0.115663
C47	C	1.204887	-0.867377	-0.590711
C48	C	1.704887	-0.367377	-0.090711
C49	C	1.204947	-0.985686	-0.590742
C50	C	1.704947	-0.485686	-0.090742
C51	C	1.260695	-1.058554	-0.523320
C52	C	1.760695	-0.558554	-0.023320
C53	C	1.281071	-1.130563	-0.621786
C54	C	1.781071	-0.630563	-0.121786
C55	C	1.184675	-1.124483	-0.492345
C56	C	1.684675	-0.624483	0.007655
C57	C	1.225362	-1.056140	-0.689262
C58	C	1.725362	-0.556140	-0.189262
C59	C	1.128931	-1.050051	-0.559753
C60	C	1.628931	-0.550051	-0.059753
C61	C	1.149278	-1.122026	-0.658284
C62	C	1.649278	-0.622026	-0.158284
C63	C	1.422383	-0.604970	-0.604817
C64	C	1.922383	-0.104970	-0.104817
C65	C	1.515051	-0.610991	-0.610819
C66	C	2.015051	-0.110991	-0.110819
C67	C	1.204987	-0.590722	-0.868357
C68	C	1.704987	-0.090722	-0.368357
C69	C	1.205013	-0.590672	-0.986664
C70	C	1.705013	-0.090672	-0.486664
C71	C	1.204987	-0.313222	-0.590778
C72	C	1.704987	0.186778	-0.090778
C73	C	1.205013	-0.194918	-0.590797
C74	C	1.705013	0.305082	-0.090797
C75	C	1.260748	-0.523163	-1.130302
C76	C	1.760748	-0.023163	-0.630302
C77	C	1.281109	-0.621605	-1.060797
C78	C	1.781109	-0.121605	-0.560797
C79	C	1.184689	-0.492244	-1.054599
C80	C	1.684689	0.007756	-0.554599
C81	C	1.225449	-0.689137	-1.127950
C82	C	1.725449	-0.189137	-0.627950
C83	C	1.128993	-0.559708	-1.121756
C84	C	1.628993	-0.059708	-0.621756
C85	C	1.149326	-0.658215	-1.052282
C86	C	1.649326	-0.158215	-0.552282
C87	C	1.204913	-0.590881	-0.314190
C88	C	1.704913	-0.090881	0.185810
C89	C	1.205048	-0.590642	-0.195894
C90	C	1.705048	-0.090642	0.304106
H91	H	0.720281	-0.679666	-0.679308
H92	H	1.220281	-0.179666	-0.179308
H93	H	1.242471	-1.026203	-0.772565
H94	H	1.742471	-0.526203	-0.272565
H95	H	0.690419	-0.502093	-0.502235
H96	H	1.190419	-0.002093	-0.002235
C97	C	1.085624	-1.159571	-0.735434
C98	C	1.585624	-0.659571	-0.235434
N99	N	1.037683	-1.187850	-0.793546
N100	N	1.537683	-0.687850	-0.293546
C101	C	1.042149	-0.524294	-1.158193
C102	C	1.542149	-0.024294	-0.658193
N103	N	0.976739	-0.497608	-1.185641
N104	N	1.476739	0.002392	-0.685641
C105	C	1.367978	-0.656972	-1.024392
C106	C	1.867978	-0.156972	-0.524392
N107	N	1.433409	-0.683602	-0.996973
N108	N	1.933409	-0.183602	-0.496973
H109	H	1.307847	-1.030569	-0.466358
H110	H	1.807847	-0.530569	0.033642
H111	H	1.345384	-1.165769	-0.648027
H112	H	1.845384	-0.665769	-0.148027
C113	C	1.042075	-1.002446	-0.524259
C114	C	1.542075	-0.502446	-0.024259
N115	N	0.976655	-0.966585	-0.497512
N116	N	1.476655	-0.466585	0.002488
H117	H	1.167502	-1.154547	-0.409108
H118	H	1.667502	-0.654547	0.090892
H119	H	1.307902	-0.466163	-1.164443
H120	H	1.807902	0.033837	-0.664443
H121	H	1.242747	-0.772387	-1.160002
H122	H	1.742747	-0.272387	-0.660002
H123	H	1.102207	-0.715362	-1.018339
H124	H	1.602207	-0.215362	-0.518339
C125	C	1.161441	-0.379807	-1.011135
C126	C	1.661441	0.120193	-0.511135
N127	N	1.143937	-0.295118	-0.978403
N128	N	1.643937	0.204882	-0.478403
