data_functionalizedCrystal
_audit_creation_method	'MofGen! by Chris Wilmer'
_symmetry_space_group_name_H-M	'P1'
_symmetry_Int_Tables_number	1
_symmetry_cell_setting	triclinic
loop_
_symmetry_equiv_pos_as_xyz
  x,y,z
_cell_length_a	14.044220
_cell_length_b	14.044190
_cell_length_c	9.482900
_cell_angle_alpha	100.185237
_cell_angle_beta	79.855987
_cell_angle_gamma	93.190328
loop_
_atom_site_label
_atom_site_type_symbol
_atom_site_fract_x
_atom_site_fract_y
_atom_site_fract_z
O1	O	1.290775	0.216493	-0.120766
O2	O	1.790775	0.716493	0.379234
O3	O	1.014107	0.208183	-0.120802
O4	O	1.514107	0.708183	0.379198
O5	O	1.148282	0.074005	-0.120756
O6	O	1.648282	0.574005	0.379244
O7	O	1.156601	0.350671	-0.120812
O8	O	1.656601	0.850671	0.379188
O9	O	1.121038	0.101379	0.121027
O10	O	1.621038	0.601379	0.621027
O11	O	0.986864	0.235557	0.120981
O12	O	1.486864	0.735557	0.620981
O13	O	1.263531	0.243867	0.121017
O14	O	1.763531	0.743867	0.621017
Cu15	Cu	1.122710	0.242211	0.143076
Cu16	Cu	1.622710	0.742211	0.643076
Cu17	Cu	1.154929	0.209838	-0.142861
Cu18	Cu	1.654929	0.709838	0.357139
O19	O	1.129357	0.378045	0.120971
O20	O	1.629357	0.878045	0.620971
C21	C	0.964864	0.218234	0.000085
C22	C	1.464864	0.718234	0.500085
C23	C	0.858722	0.207388	0.000073
C24	C	1.358722	0.707388	0.500073
C25	C	0.664381	0.187565	0.000106
C26	C	1.164381	0.687565	0.500106
C27	C	0.613254	0.264479	0.000096
C28	C	1.113254	0.764479	0.500096
C29	C	0.505115	0.253449	0.000115
C30	C	1.005115	0.753449	0.500115
C31	C	0.772529	0.198593	0.000087
C32	C	1.272529	0.698593	0.500087
C33	C	1.131023	0.052070	0.000139
C34	C	1.631023	0.552070	0.500139
C35	C	1.120174	-0.054072	0.000150
C36	C	1.620174	0.445928	0.500150
C37	C	1.177280	-0.299536	0.000101
C38	C	1.677280	0.200464	0.500101
C39	C	1.100364	-0.248410	0.000101
C40	C	1.600364	0.251590	0.500101
C41	C	1.111389	-0.140270	0.000129
C42	C	1.611389	0.359730	0.500129
C43	C	1.166257	-0.407686	0.000073
C44	C	1.666257	0.092314	0.500073
C45	C	1.312775	0.233815	0.000126
C46	C	1.812775	0.733815	0.500126
C47	C	1.418918	0.244660	0.000129
C48	C	1.918918	0.744660	0.500129
C49	C	1.146616	0.399979	0.000072
C50	C	1.646616	0.899979	0.500072
C51	C	1.157466	0.506120	0.000051
C52	C	1.657466	1.006120	0.500051
N53	N	1.100056	0.264981	0.344188
N54	N	1.600056	0.764981	0.844188
N55	N	1.177590	0.187062	-0.343973
N56	N	1.677590	0.687062	0.156027
C57	C	1.148240	0.216549	0.416404
C58	C	1.648240	0.716549	0.916404
C59	C	1.129399	0.235501	0.583815
C60	C	1.629399	0.735501	1.083815
H61	H	0.650697	0.338610	0.000074
H62	H	1.150697	0.838610	0.500074
C63	C	0.613806	0.087425	0.000117
C64	C	1.113806	0.587425	0.500117
H65	H	0.546708	0.093055	0.000111
H66	H	1.046708	0.593055	0.500111
H67	H	0.622254	0.063258	0.084429
H68	H	1.122254	0.563258	0.584429
H69	H	0.641241	0.044184	-0.084212
H70	H	1.141241	0.544184	0.415788
H71	H	1.026234	-0.285856	0.000083
H72	H	1.526234	0.214144	0.500083
C73	C	1.054808	0.310462	0.667697
C74	C	1.554808	0.810462	1.167697
H75	H	1.027012	0.338381	0.600680
H76	H	1.527012	0.838381	1.100680
H77	H	1.085960	0.359720	0.727074
H78	H	1.585960	0.859720	1.227074
H79	H	1.005416	0.279516	0.727072
H80	H	1.505416	0.779516	1.227072
C81	C	1.277415	-0.248954	0.000147
C82	C	1.777415	0.251046	0.500147
H83	H	1.271779	-0.181853	0.000177
H84	H	1.771779	0.318147	0.500177
H85	H	1.320630	-0.276419	-0.084159
H86	H	1.820630	0.223581	0.415841
H87	H	1.301604	-0.257364	0.084482
H88	H	1.801604	0.242636	0.584482
C89	C	1.222810	0.141576	0.332509
C90	C	1.722810	0.641576	0.832509
H91	H	1.225695	0.138677	0.230996
H92	H	1.725695	0.638677	0.730996
H93	H	1.204093	0.079814	0.357398
H94	H	1.704093	0.579814	0.857398
H95	H	1.284659	0.159998	0.357364
H96	H	1.784659	0.659998	0.857364
H97	H	1.232790	0.131559	0.593921
H98	H	1.732790	0.631559	1.093921
C99	C	1.025468	0.339938	0.428076
C100	C	1.525468	0.839938	0.928076
H101	H	0.997672	0.367857	0.361059
H102	H	1.497672	0.867857	0.861059
H103	H	1.056621	0.389196	0.487453
H104	H	1.556621	0.889196	0.987453
H105	H	0.976076	0.308992	0.487451
H106	H	1.476076	0.808992	0.987451
