data_functionalizedCrystal
_audit_creation_method	'MofGen! by Chris Wilmer'
_symmetry_space_group_name_H-M	'P1'
_symmetry_Int_Tables_number	1
_symmetry_cell_setting	triclinic
loop_
_symmetry_equiv_pos_as_xyz
  x,y,z
_cell_length_a	19.188925
_cell_length_b	10.540539
_cell_length_c	9.016244
_cell_angle_alpha	90.005301
_cell_angle_beta	89.998107
_cell_angle_gamma	96.165980
loop_
_atom_site_label
_atom_site_type_symbol
_atom_site_fract_x
_atom_site_fract_y
_atom_site_fract_z
O1	O	0.098389	-1.683722	-0.123269
O2	O	0.598389	-1.183722	0.376731
O3	O	0.107659	-1.314104	-0.123287
O4	O	0.607659	-0.814104	0.376713
O5	O	0.001439	-1.509583	-0.123269
O6	O	0.501439	-1.009583	0.376731
O7	O	0.204609	-1.488243	-0.123287
O8	O	0.704609	-0.988243	0.376713
O9	O	0.001441	-1.509554	0.123411
O10	O	0.501441	-1.009554	0.623411
O11	O	0.107661	-1.314075	0.123393
O12	O	0.607661	-0.814075	0.623393
O13	O	0.098391	-1.683693	0.123412
O14	O	0.598391	-1.183693	0.623412
Cu15	Cu	0.103026	-1.498882	0.145926
Cu16	Cu	0.603026	-0.998882	0.645926
Cu17	Cu	0.103024	-1.498915	-0.145802
Cu18	Cu	0.603024	-0.998915	0.354198
O19	O	0.204611	-1.488214	0.123394
O20	O	0.704611	-0.988214	0.623394
C21	C	0.106965	-1.266802	0.000051
C22	C	0.606965	-0.766802	0.500051
C23	C	0.104885	-1.125900	0.000044
C24	C	0.604885	-0.625900	0.500044
C25	C	-0.024575	-1.508879	0.000070
C26	C	0.475425	-1.008879	0.500070
C27	C	-0.102094	-1.506808	0.000067
C28	C	0.397906	-1.006808	0.500067
C29	C	0.099085	-1.730995	0.000070
C30	C	0.599085	-1.230995	0.500070
C31	C	0.101165	-1.871897	0.000067
C32	C	0.601165	-1.371897	0.500067
C33	C	-0.663192	-1.607640	0.000034
C34	C	-0.163192	-1.107640	0.500034
C35	C	-0.590356	-1.609597	0.000048
C36	C	-0.090356	-1.109597	0.500048
C37	C	-0.546186	-1.494897	0.000042
C38	C	-0.046186	-0.994897	0.500042
C39	C	-0.574858	-1.378230	0.000060
C40	C	-0.074858	-0.878230	0.500060
C41	C	-0.647693	-1.376277	0.000061
C42	C	-0.147693	-0.876277	0.500061
N43	N	-0.426060	-1.411868	-0.083926
N44	N	0.073940	-0.911868	0.416074
N45	N	-0.356870	-1.413732	-0.083930
N46	N	0.143130	-0.913732	0.416070
C47	C	-0.326738	-1.500776	0.000041
C48	C	0.173262	-1.000776	0.500041
N49	N	-0.368410	-1.585906	0.083998
N50	N	0.131590	-1.085906	0.583998
N51	N	-0.437606	-1.584046	0.083996
N52	N	0.062394	-1.084046	0.583996
C53	C	-0.467208	-1.497002	0.000041
C54	C	0.032792	-0.997002	0.500041
C55	C	-0.219097	-1.619557	0.000048
C56	C	0.280903	-1.119557	0.500048
C57	C	-0.146259	-1.621509	0.000071
C58	C	0.353741	-1.121509	0.500071
C59	C	-0.130762	-1.390139	0.000068
C60	C	0.369238	-0.890139	0.500068
C61	C	-0.203599	-1.388190	0.000060
C62	C	0.296401	-0.888190	0.500060
C63	C	-0.247762	-1.502903	0.000043
C64	C	0.252238	-1.002903	0.500043
C65	C	0.230626	-1.488918	0.000051
C66	C	0.730626	-0.988918	0.500051
C67	C	0.308144	-1.490989	0.000044
C68	C	0.808144	-0.990989	0.500044
N69	N	0.103028	-1.498867	0.351113
N70	N	0.603028	-0.998867	0.851113
C71	C	0.025184	-0.944232	0.000627
C72	C	0.525184	-0.444232	0.500627
C73	C	0.027292	-1.090804	0.000055
C74	C	0.527292	-0.590804	0.500055
C75	C	0.142225	-1.063419	-0.140821
C76	C	0.642225	-0.563419	0.359179
C77	C	0.139577	-0.916933	-0.140923
C78	C	0.639577	-0.416933	0.359077
C79	C	0.141158	-0.916378	0.139599
C80	C	0.641158	-0.416378	0.639599
C81	C	0.141872	-1.063344	0.141445
C82	C	0.641872	-0.563344	0.641445
N83	N	0.103017	-1.498940	-0.350988
N84	N	0.603017	-0.998940	0.149012
C85	C	0.159658	-1.393986	0.586136
C86	C	0.659658	-0.893986	1.086136
C87	C	0.159870	-1.394211	0.414244
C88	C	0.659870	-0.894211	0.914244
C89	C	0.119601	-1.631224	0.413456
C90	C	0.619601	-1.131224	0.913456
C91	C	0.120002	-1.630650	0.585401
C92	C	0.620002	-1.130650	1.085401
C93	C	0.029640	-1.472713	0.585661
C94	C	0.529640	-0.972713	1.085661
C95	C	0.030115	-1.469657	0.413707
C96	C	0.530115	-0.969657	0.913707
H97	H	-0.699146	-1.701049	0.000029
H98	H	-0.199146	-1.201049	0.500029
H99	H	-0.226936	-1.293200	0.000057
H100	H	0.273064	-0.793200	0.500057
Br101	Br	0.053837	-1.764563	0.654730
Br102	Br	0.553837	-1.264563	1.154730
H103	H	-0.002088	-1.134054	0.101034
H104	H	0.497912	-0.634054	0.601034
Br105	Br	-0.514915	-1.222564	0.000066
Br106	Br	-0.014915	-0.722564	0.500066
H107	H	-0.671029	-1.281283	0.000073
H108	H	-0.171029	-0.781283	0.500073
Br109	Br	-0.025908	-0.897691	0.169007
Br110	Br	0.474092	-0.397691	0.669007
H111	H	0.197203	-0.867914	0.140546
H112	H	0.697203	-0.367914	0.640546
Br113	Br	-0.279037	-1.775234	0.000028
Br114	Br	0.220963	-1.275234	0.500028
Br115	Br	-0.040628	-1.600287	0.653425
Br116	Br	0.459372	-1.100287	1.153425
Br117	Br	-0.107357	-1.779836	0.000055
Br118	Br	0.392643	-1.279836	0.500055
Br119	Br	-0.551444	-1.767921	0.000058
Br120	Br	-0.051444	-1.267921	0.500058
Br121	Br	0.096328	-1.132423	0.315139
Br122	Br	0.596328	-0.632423	0.815139
H123	H	-0.014060	-1.541159	0.370738
H124	H	0.485940	-1.041159	0.870738
H125	H	0.149839	-1.295277	0.627525
H126	H	0.649839	-0.795277	1.127525
H127	H	-0.094799	-1.296748	0.000076
H128	H	0.405201	-0.796748	0.500076
Br129	Br	-0.025701	-0.895020	-0.166790
Br130	Br	0.474299	-0.395020	0.333210
H131	H	0.198443	-1.086320	0.149946
H132	H	0.698443	-0.586320	0.649946
H133	H	-0.002297	-1.133214	-0.101092
H134	H	0.497703	-0.633214	0.398908
H135	H	0.111977	-0.889344	-0.246216
H136	H	0.611977	-0.389344	0.253784
H137	H	0.195380	-0.867733	-0.147321
H138	H	0.695380	-0.367733	0.352679
Br139	Br	0.052717	-1.764471	0.345307
Br140	Br	0.552717	-1.264471	0.845307
H141	H	0.199207	-1.084515	-0.146067
H142	H	0.699207	-0.584515	0.353933
H143	H	0.116284	-1.106592	-0.245651
H144	H	0.616284	-0.606592	0.254349
H145	H	0.116048	-0.885373	0.246373
H146	H	0.616048	-0.385373	0.746373
Br147	Br	0.143298	-1.230185	0.343986
Br148	Br	0.643298	-0.730185	0.843986
H149	H	0.213789	-1.410458	0.629325
H150	H	0.713789	-0.910458	1.129325
Br151	Br	0.250615	-1.421981	0.345644
Br152	Br	0.750615	-0.921981	0.845644
Br153	Br	0.209227	-1.669273	0.652222
Br154	Br	0.709227	-1.169273	1.152222
H155	H	0.172530	-1.654954	0.370375
H156	H	0.672530	-1.154954	0.870375
Br157	Br	0.003363	-1.315364	0.658017
Br158	Br	0.503363	-0.815364	1.158017
H159	H	0.017553	-1.372296	0.372961
H160	H	0.517553	-0.872296	0.872961
