data_functionalizedCrystal
_audit_creation_method	'MofGen! by Chris Wilmer'
_symmetry_space_group_name_H-M	'P1'
_symmetry_Int_Tables_number	1
_symmetry_cell_setting	triclinic
loop_
_symmetry_equiv_pos_as_xyz
  x,y,z
_cell_length_a	16.109301
_cell_length_b	14.044220
_cell_length_c	14.586319
_cell_angle_alpha	89.995213
_cell_angle_beta	89.999213
_cell_angle_gamma	88.325179
loop_
_atom_site_label
_atom_site_type_symbol
_atom_site_fract_x
_atom_site_fract_y
_atom_site_fract_z
O1	O	1.112195	0.121835	-0.076185
O2	O	0.871261	0.136997	-0.076199
O3	O	0.988112	-0.008568	-0.076183
O4	O	0.995345	0.267399	-0.076201
O5	O	0.988103	-0.008570	0.076298
O6	O	0.871252	0.136995	0.076281
O7	O	1.112186	0.121832	0.076296
Cu8	Cu	0.991719	0.129413	0.090212
Cu9	Cu	0.991729	0.129416	-0.090115
O10	O	0.995336	0.267397	0.076280
C11	C	0.840236	0.136381	0.000039
C12	C	0.747804	0.134540	0.000034
C13	C	0.531640	0.216634	0.000039
C14	C	0.444790	0.214896	0.000045
C15	C	0.451815	0.042189	0.000052
C16	C	0.538663	0.043927	0.000053
C17	C	0.578573	0.131153	0.000042
C18	C	0.404875	0.127677	0.000047
C19	C	0.310709	0.125792	0.000054
C20	C	0.672745	0.133038	0.000037
C21	C	0.984941	-0.043882	0.000058
C22	C	0.975498	-0.149105	0.000058
C23	C	0.958232	-0.341761	0.000044
C24	C	1.025212	-0.399415	0.000045
C25	C	1.015605	-0.506616	0.000037
C26	C	0.967838	-0.234551	0.000052
C27	C	1.143211	0.122448	0.000056
C28	C	1.235644	0.124289	0.000055
C29	C	0.998506	0.302711	0.000037
C30	C	1.007950	0.407934	0.000031
N31	N	0.991717	0.129411	0.217043
N32	N	0.991737	0.129411	-0.216946
C33	C	1.043479	0.064976	0.452057
C34	C	1.043481	0.064974	0.548038
C35	C	0.939969	0.193848	0.548033
C36	C	0.939963	0.193845	0.452054
C37	C	0.991723	0.129410	0.404068
C38	C	0.991731	0.129411	0.596029
C39	C	0.991733	0.129409	0.700096
C40	C	0.991720	0.129411	0.299994
H41	H	0.406580	0.284504	0.000045
H42	H	0.419309	-0.028827	0.000067
O43	O	0.889739	0.256570	0.594545
C44	C	0.910220	0.350406	0.571095
H45	H	0.942257	0.350296	0.501405
H46	H	0.953778	0.379737	0.625107
C47	C	0.791132	0.413569	0.652248
C48	C	0.830473	0.413435	0.566651
H49	H	0.741941	0.452450	0.649511
H50	H	0.777334	0.350351	0.668051
H51	H	0.827438	0.438009	0.697249
H52	H	0.794170	0.388984	0.521654
H53	H	0.844262	0.476651	0.550841
O54	O	1.102292	-0.362418	0.000023
C55	C	1.162681	-0.437138	0.000052
H56	H	1.134497	-0.504342	-0.028830
H57	H	1.184770	-0.451109	0.073209
C58	C	1.271496	-0.326560	-0.024250
C59	C	1.236882	-0.409100	-0.059731
H60	H	1.317269	-0.309265	-0.061123
H61	H	1.230812	-0.276219	-0.024266
H62	H	1.289897	-0.338214	0.036714
H63	H	1.218473	-0.397442	-0.120688
H64	H	1.277566	-0.459439	-0.059726
H65	H	0.897813	0.246315	0.412979
H66	H	0.893680	-0.372911	0.000038
O67	O	1.093775	0.002290	0.405585
C68	C	1.139470	-0.054566	0.468528
H69	H	1.105307	-0.055643	0.536948
H70	H	1.203514	-0.023771	0.478727
C71	C	1.190978	-0.155494	0.347047
C72	C	1.149015	-0.156823	0.431080
H73	H	1.196870	-0.218570	0.323946
H74	H	1.160195	-0.117187	0.304640
H75	H	1.244343	-0.129827	0.355558
H76	H	1.095647	-0.182478	0.422566
H77	H	1.179789	-0.195137	0.473484
O78	O	0.570314	0.301420	-0.000086
C79	C	0.546970	0.353524	-0.079069
H80	H	0.484912	0.327707	-0.105397
H81	H	0.596337	0.342539	-0.134367
C82	C	0.614832	0.491861	-0.022743
C83	C	0.538608	0.460157	-0.055075
H84	H	0.609677	0.557638	-0.007945
H85	H	0.630562	0.456757	0.030468
H86	H	0.655963	0.482699	-0.068831
H87	H	0.497481	0.469309	-0.008984
H88	H	0.522870	0.495265	-0.108278
O89	O	0.584134	-0.039202	0.000014
C90	C	0.530288	-0.116562	0.000038
H91	H	0.467349	-0.092490	-0.028833
H92	H	0.522130	-0.143301	0.073192
C93	C	0.644809	-0.227029	-0.024294
C94	C	0.567510	-0.197465	-0.059761
H95	H	0.667770	-0.276936	-0.061177
H96	H	0.681088	-0.174911	-0.024307
H97	H	0.638001	-0.249305	0.036667
H98	H	0.574321	-0.175178	-0.120716
H99	H	0.531233	-0.249581	-0.059759
O100	O	1.093637	0.002291	0.594695
C101	C	1.044784	-0.056188	0.650238
H102	H	0.979098	-0.057812	0.621319
H103	H	1.042629	-0.026526	0.722978
C104	C	1.163737	-0.155949	0.687235
C105	C	1.083062	-0.157950	0.651712
H106	H	1.187350	-0.218719	0.688148
H107	H	1.196652	-0.116549	0.649818
H108	H	1.161930	-0.131226	0.747848
H109	H	1.084871	-0.182661	0.591096
H110	H	1.050148	-0.197357	0.689119
