data_functionalizedCrystal
_audit_creation_method	'MofGen! by Chris Wilmer'
_symmetry_space_group_name_H-M	'P1'
_symmetry_Int_Tables_number	1
_symmetry_cell_setting	triclinic
loop_
_symmetry_equiv_pos_as_xyz
  x,y,z
_cell_length_a	12.759401
_cell_length_b	18.215405
_cell_length_c	12.759393
_cell_angle_alpha	89.965441
_cell_angle_beta	89.981433
_cell_angle_gamma	90.021776
loop_
_atom_site_label
_atom_site_type_symbol
_atom_site_fract_x
_atom_site_fract_y
_atom_site_fract_z
Zn1	Zn	1.606197	-0.292960	-0.593961
Zn2	Zn	1.606066	-0.416046	-0.418272
Zn3	Zn	1.430499	-0.292996	-0.418301
Zn4	Zn	1.430463	-0.415987	-0.593914
O5	O	1.518306	-0.354497	-0.506112
O6	O	1.753200	-0.309297	-0.570664
O7	O	1.582738	-0.399763	-0.271255
O8	O	1.453875	-0.190007	-0.441634
O9	O	1.753105	-0.399728	-0.441586
O10	O	1.582960	-0.189980	-0.570691
O11	O	1.453749	-0.309358	-0.271276
O12	O	1.283473	-0.309301	-0.441588
O13	O	1.453814	-0.399627	-0.740941
O14	O	1.283446	-0.399662	-0.570610
O15	O	1.582925	-0.309240	-0.740976
O16	O	1.582703	-0.519022	-0.441540
O17	O	1.453687	-0.518979	-0.570583
C18	C	1.245339	-0.354480	-0.506097
C19	C	1.128562	-0.354490	-0.506116
C20	C	1.073743	-0.307492	-0.573431
C21	C	0.964019	-0.307506	-0.573438
C22	C	0.963943	-0.401523	-0.438811
C23	C	1.073665	-0.401505	-0.438800
C24	C	1.073786	-0.253213	-0.651160
C25	C	0.964062	-0.253228	-0.651167
C26	C	1.518205	-0.545703	-0.506076
C27	C	1.518259	-0.627502	-0.506095
C28	C	1.585505	-0.815621	-0.573387
C29	C	1.585543	-0.892480	-0.573406
C30	C	1.451237	-0.892621	-0.438903
C31	C	1.451195	-0.815763	-0.438889
C32	C	1.518334	-0.777266	-0.506129
C33	C	1.518415	-0.930982	-0.506163
C34	C	1.518456	-1.014315	-0.506184
C35	C	1.518292	-0.693927	-0.506110
C36	C	1.792339	-0.354515	-0.506127
C37	C	1.909116	-0.354523	-0.506134
C38	C	1.518380	-0.354423	-0.780145
C39	C	1.518411	-0.354391	-0.896922
C40	C	1.518436	-0.162544	-0.506171
C41	C	1.518491	-0.080745	-0.506197
C42	C	1.585648	-0.307322	-0.951804
C43	C	1.585673	-0.307295	-1.061528
C44	C	1.451221	-0.401414	-1.061479
C45	C	1.451191	-0.401436	-0.951757
C46	C	1.663277	-0.252986	-0.951834
C47	C	1.663302	-0.252959	-1.061558
C48	C	1.518293	-0.354518	-0.233145
C49	C	1.518466	-0.354342	-0.116369
H50	H	1.103564	-0.196193	-0.629510
F51	F	1.625145	-0.182210	-1.106072
F52	F	1.657030	-0.933298	-0.644995
F53	F	1.656958	-0.774652	-0.644952
H54	H	1.641520	-0.195992	-0.922082
H55	H	0.919232	-0.439801	-0.384005
H56	H	0.934314	-0.268564	-0.732501
F57	F	1.379684	-0.451479	-1.119847
H58	H	1.107847	-0.273690	-0.728396
H59	H	1.744670	-0.268225	-1.091335
F60	F	0.919576	-0.182432	-0.613264
F61	F	1.379692	-0.774940	-0.367307
F62	F	1.132004	-0.451509	-0.367129
F63	F	1.379785	-0.933599	-0.367346
F64	F	1.379614	-0.451523	-0.893351
H65	H	1.740545	-0.273418	-0.917796
