data_functionalizedCrystal
_audit_creation_method	'MofGen! by Chris Wilmer'
_symmetry_space_group_name_H-M	'P1'
_symmetry_Int_Tables_number	1
_symmetry_cell_setting	triclinic
loop_
_symmetry_equiv_pos_as_xyz
  x,y,z
_cell_length_a	13.033293
_cell_length_b	16.120507
_cell_length_c	13.032268
_cell_angle_alpha	99.639496
_cell_angle_beta	90.920818
_cell_angle_gamma	79.561229
loop_
_atom_site_label
_atom_site_type_symbol
_atom_site_fract_x
_atom_site_fract_y
_atom_site_fract_z
Zn1	Zn	1.479854	0.262709	0.795774
Zn2	Zn	1.979854	0.762709	1.295774
Zn3	Zn	1.493002	0.384056	0.630403
Zn4	Zn	1.993002	0.884056	1.130403
Zn5	Zn	1.330030	0.258250	0.601707
Zn6	Zn	1.830030	0.758250	1.101707
Zn7	Zn	1.296759	0.419257	0.782358
Zn8	Zn	1.796759	0.919257	1.282358
O9	O	1.399911	0.331068	0.702561
O10	O	1.899911	0.831068	1.202561
O11	O	1.626428	0.265940	0.791462
O12	O	2.126428	0.765940	1.291462
O13	O	1.490810	0.350770	0.481785
O14	O	1.990810	0.850770	0.981785
O15	O	1.358326	0.140675	0.621057
O16	O	1.858326	0.640675	1.121057
O17	O	1.636088	0.355094	0.669964
O18	O	2.136088	0.855094	1.169964
O19	O	1.468401	0.143951	0.763637
O20	O	1.968401	0.643951	1.263637
O21	O	1.371075	0.258340	0.460703
O22	O	1.871075	0.758340	0.960703
O23	O	1.180787	0.292473	0.608047
O24	O	1.680787	0.792473	1.108047
O25	O	1.301621	0.415088	0.928949
O26	O	1.801621	0.915088	1.428949
O27	O	1.156343	0.410764	0.740770
O28	O	1.656343	0.910764	1.240770
O29	O	1.436140	0.300073	0.938806
O30	O	1.936140	0.800073	1.438806
O31	O	1.458548	0.506892	0.656954
O32	O	1.958548	1.006892	1.156954
O33	O	1.314370	0.532754	0.768595
O34	O	1.814370	1.032754	1.268595
C35	C	1.131012	0.354955	0.669840
C36	C	1.631012	0.854955	1.169840
C37	C	1.015971	0.365198	0.655867
C38	C	1.515971	0.865198	1.155867
C39	C	0.959883	0.325744	0.709854
C40	C	1.459883	0.825744	1.209854
C41	C	0.840982	0.336329	0.695414
C42	C	1.340982	0.836329	1.195414
C43	C	1.384300	0.550462	0.714459
C44	C	1.884300	1.050462	1.214459
C45	C	1.377712	0.644315	0.719595
C46	C	1.877712	1.144315	1.219595
C47	C	1.434162	0.845137	0.676088
C48	C	1.934162	1.345137	1.176088
C49	C	1.365700	0.816139	0.728986
C50	C	1.865700	1.316139	1.228986
C51	C	1.372386	0.720527	0.723759
C52	C	1.872386	1.220527	1.223759
C53	C	1.427479	0.940757	0.681313
C54	C	1.927479	1.440757	1.181313
C55	C	1.669861	0.307088	0.735410
C56	C	2.169861	0.807088	1.235410
C57	C	1.784897	0.296869	0.749409
C58	C	2.284897	0.796869	1.249409
C59	C	1.363702	0.362005	0.972475
C60	C	1.863702	0.862005	1.472475
C61	C	1.348272	0.375188	1.087497
C62	C	1.848272	0.875188	1.587497
C63	C	1.415571	1.110819	0.690622
C64	C	1.915571	1.610819	1.190622
C65	C	1.422148	1.016966	0.685481
C66	C	1.922148	1.516966	1.185481
C67	C	1.436043	0.300185	0.433700
C68	C	1.936043	0.800185	0.933700
C69	C	1.451691	0.286746	0.318690
C70	C	1.951691	0.786746	0.818690
C71	C	1.407951	0.324158	1.143654
C72	C	1.907951	0.824158	1.643654
C73	C	1.392004	0.337783	1.262535
C74	C	1.892004	0.837783	1.762535
H75	H	0.800979	0.377944	0.638497
H76	H	1.300979	0.877944	1.138497
H77	H	0.999892	0.284126	0.766761
H78	H	1.499892	0.784126	1.266761
H79	H	1.497790	0.798160	0.626878
H80	H	1.997790	1.298160	1.126878
H81	H	0.824900	0.255246	0.806318
H82	H	1.324900	0.755246	1.306318
H83	H	0.975963	0.406810	0.598954
H84	H	1.475963	0.906810	1.098954
H85	H	1.285368	0.428958	1.127429
H86	H	1.785368	0.928958	1.627429
C87	C	1.289708	0.963368	0.787796
C88	C	1.789708	1.463368	1.287796
C89	C	1.279790	0.879556	0.795416
C90	C	1.779790	1.379556	1.295416
H91	H	1.236667	1.002519	0.828800
H92	H	1.736667	1.502519	1.328800
H93	H	1.356201	0.973267	0.812234
H94	H	1.856201	1.473267	1.312234
H95	H	1.282963	0.971161	0.717187
H96	H	1.782963	1.471161	1.217187
H97	H	1.286543	0.871760	0.866024
H98	H	1.786543	1.371760	1.366024
H99	H	1.213281	0.869653	0.770983
H100	H	1.713281	1.369653	1.270983
H101	H	1.470845	0.270381	1.103721
H102	H	1.970845	0.770381	1.603721
H103	H	1.329095	0.391557	1.302463
H104	H	1.829095	0.891557	1.802463
H105	H	1.514588	0.232963	1.278763
H106	H	2.014588	0.732963	1.778763
