data_functionalizedCrystal
_audit_creation_method	'MofGen! by Chris Wilmer'
_symmetry_space_group_name_H-M	'P1'
_symmetry_Int_Tables_number	1
_symmetry_cell_setting	triclinic
loop_
_symmetry_equiv_pos_as_xyz
  x,y,z
_cell_length_a	17.019386
_cell_length_b	15.500227
_cell_length_c	11.792241
_cell_angle_alpha	87.152554
_cell_angle_beta	96.203220
_cell_angle_gamma	83.288903
loop_
_atom_site_label
_atom_site_type_symbol
_atom_site_fract_x
_atom_site_fract_y
_atom_site_fract_z
O1	O	-1.054909	0.150458	0.133674
O2	O	-0.824457	0.133308	0.153346
O3	O	-0.945275	0.142293	-0.021749
O4	O	-0.934091	0.141473	0.308768
O5	O	-0.937944	-0.002141	-0.011165
O6	O	-0.817125	-0.011126	0.163929
O7	O	-1.047578	0.006024	0.144258
Cu8	Cu	-0.931682	-0.015739	0.155060
Cu9	Cu	-0.940353	0.155071	0.142543
O10	O	-0.926759	-0.002961	0.319352
C11	C	-0.791288	0.058895	0.158096
C12	C	-0.703379	0.052353	0.156470
N13	N	-0.925589	-0.135877	0.163863
C14	C	-0.666067	0.128004	0.149940
C15	C	-0.583465	0.121844	0.148431
C16	C	-0.538176	0.040032	0.153444
C17	C	-0.575492	-0.035624	0.159978
C18	C	-0.658092	-0.029464	0.161495
C19	C	-0.288575	0.017492	0.149159
C20	C	-0.205970	0.011337	0.147638
C21	C	-0.213948	0.168806	0.136093
C22	C	-0.296550	0.174959	0.137604
C23	C	-0.333859	0.099303	0.144144
C24	C	-0.453743	0.033734	0.151898
C25	C	-0.418290	0.105602	0.145698
C26	C	-0.976802	-0.177345	0.089696
C27	C	-0.972202	-0.268260	0.096364
C28	C	-0.916392	-0.317705	0.177204
C29	C	-0.865173	-0.276231	0.251374
C30	C	-0.869771	-0.185318	0.244700
C31	C	-0.899830	-0.592404	0.201228
C32	C	-0.895239	-0.683323	0.207898
C33	C	-1.002267	-0.675345	0.052886
C34	C	-1.006862	-0.584431	0.046224
C35	C	-0.955641	-0.542965	0.120389
C36	C	-0.911690	-0.410635	0.184024
C37	C	-0.960340	-0.450037	0.113563
C38	C	-0.080747	0.080439	0.139501
C39	C	-0.168659	0.086987	0.141108
C40	C	-0.940907	0.070024	-0.058737
C41	C	-0.938804	0.069868	-0.184717
N42	N	-0.946452	0.275209	0.133732
C43	C	-0.934938	0.069595	-0.415369
C44	C	-0.937086	0.069747	-0.287017
C45	C	-0.931128	0.069310	0.356340
C46	C	-0.933231	0.069471	0.482320
H47	H	-0.553090	0.183447	0.143113
O48	O	-1.060732	-0.536295	-0.032659
C49	C	-1.114465	-0.392766	-0.112732
C50	C	-1.053642	-0.447156	-0.023035
H51	H	-1.108743	-0.320688	-0.104997
H52	H	-1.177265	-0.405538	-0.097725
H53	H	-1.102380	-0.411818	-0.201942
H54	H	-1.065654	-0.428136	0.066212
H55	H	-0.990863	-0.434379	-0.038141
O56	O	-0.340609	0.254384	0.132899
C57	C	-0.429908	0.352122	0.226271
C58	C	-0.380065	0.262136	0.231738
H59	H	-0.461809	0.358425	0.306183
H60	H	-0.475729	0.359472	0.147320
H61	H	-0.389036	0.405115	0.221291
H62	H	-0.420875	0.209088	0.236760
H63	H	-0.334237	0.254860	0.310676
H64	H	-0.183562	0.230401	0.130772
H65	H	-0.169094	-0.055288	0.151753
H66	H	-1.022252	-0.137092	0.023872
O67	O	-0.710109	0.207459	0.144872
C68	C	-0.816564	0.306422	0.041607
C69	C	-0.766740	0.216419	0.047187
H70	H	-0.862373	0.313688	-0.037351
H71	H	-0.775746	0.359469	0.036609
H72	H	-0.848495	0.312717	0.121492
H73	H	-0.734802	0.210039	-0.032679
H74	H	-0.807597	0.163416	0.052242
O75	O	-0.811028	-0.324388	0.329870
C76	C	-0.756484	-0.467979	0.408812
C77	C	-0.817851	-0.413549	0.319875
H78	H	-0.761967	-0.540077	0.400746
H79	H	-0.768089	-0.449356	0.498369
H80	H	-0.693918	-0.454795	0.393107
H81	H	-0.880440	-0.426705	0.335473
H82	H	-0.806176	-0.432182	0.230348
H83	H	-1.043968	-0.709115	-0.007498
O84	O	-0.324911	-0.055938	0.155341
C85	C	-0.422037	-0.139774	0.065381
C86	C	-0.380961	-0.056564	0.058255
H87	H	-0.467350	-0.140316	-0.013114
H88	H	-0.453666	-0.141357	0.145754
H89	H	-0.375455	-0.199285	0.068748
H90	H	-0.427493	0.002993	0.054842
H91	H	-0.349316	-0.055057	-0.022106
H92	H	-1.013903	-0.302023	0.035971
H93	H	-0.858125	-0.558649	0.261619
H94	H	-0.538610	-0.102237	0.164066
O95	O	-0.840944	-0.731227	0.286453
C96	C	-0.735285	-0.729550	0.439520
C97	C	-0.796721	-0.675195	0.350603
H98	H	-0.699526	-0.684270	0.491425
H99	H	-0.693326	-0.775067	0.393926
H100	H	-0.767565	-0.769561	0.499091
H101	H	-0.764509	-0.635133	0.291008
H102	H	-0.838677	-0.629733	0.396272
O103	O	-0.819988	-0.145170	0.316868
C104	C	-0.713315	-0.162674	0.471278
C105	C	-0.769662	-0.208250	0.389637
H106	H	-0.672601	-0.213654	0.530116
H107	H	-0.749850	-0.117558	0.524722
H108	H	-0.675742	-0.123061	0.419369
H109	H	-0.807247	-0.247909	0.441456
H110	H	-0.733081	-0.253314	0.336190
O111	O	-0.409767	-0.045759	0.156961
C112	C	-0.369169	-0.182887	0.264638
C113	C	-0.418993	-0.092884	0.259060
H114	H	-0.376624	-0.221021	0.347166
H115	H	-0.303705	-0.174344	0.262511
H116	H	-0.390337	-0.219952	0.188311
H117	H	-0.397894	-0.055771	0.335371
H118	H	-0.484448	-0.101489	0.261131
O119	O	-1.014434	-0.401941	0.034947
C120	C	-1.035764	-0.298198	-0.127786
C121	C	-0.974427	-0.352601	-0.038784
H122	H	-1.003441	-0.258307	-0.187436
H123	H	-1.077688	-0.252582	-0.082269
H124	H	-1.071578	-0.343485	-0.179595
H125	H	-0.938557	-0.307381	0.013051
H126	H	-0.932557	-0.398226	-0.084371
H127	H	-0.866249	-0.450900	0.249848
H128	H	-0.688469	-0.091067	0.166817
O129	O	-0.462352	0.185021	0.140986
C130	C	-0.551667	0.282745	0.234353
C131	C	-0.501807	0.192768	0.239827
H132	H	-0.583567	0.289044	0.314266
H133	H	-0.597488	0.290082	0.155403
H134	H	-0.510806	0.335749	0.229365
H135	H	-0.542605	0.139710	0.244857
H136	H	-0.455979	0.185505	0.318763
