data_functionalizedCrystal
_audit_creation_method	'MofGen! by Chris Wilmer'
_symmetry_space_group_name_H-M	'P1'
_symmetry_Int_Tables_number	1
_symmetry_cell_setting	triclinic
loop_
_symmetry_equiv_pos_as_xyz
  x,y,z
_cell_length_a	17.699083
_cell_length_b	14.519709
_cell_length_c	16.776229
_cell_angle_alpha	89.992406
_cell_angle_beta	89.998886
_cell_angle_gamma	83.481580
loop_
_atom_site_label
_atom_site_type_symbol
_atom_site_fract_x
_atom_site_fract_y
_atom_site_fract_z
O1	O	1.004412	0.116624	-0.066178
O2	O	0.784077	0.131797	-0.066204
O3	O	0.900087	-0.010052	-0.066183
O4	O	0.888403	0.258474	-0.066199
O5	O	0.900071	-0.010061	0.066393
O6	O	0.784062	0.131789	0.066372
O7	O	1.004397	0.116616	0.066398
Zn8	Zn	0.894227	0.124201	0.087435
Zn9	Zn	0.894247	0.124212	-0.087241
O10	O	0.888388	0.258465	0.066377
C11	C	0.755871	0.131249	0.000080
C12	C	0.671848	0.129618	0.000071
C13	C	0.623466	0.212881	0.000066
C14	C	0.544518	0.211343	0.000076
C15	C	0.513954	0.126541	0.000086
C16	C	0.562343	0.043272	0.000093
C17	C	0.641289	0.044811	0.000088
C18	C	0.243962	0.037064	0.000113
C19	C	0.165010	0.035531	0.000115
C20	C	0.147191	0.203596	0.000101
C21	C	0.226137	0.205135	0.000097
C22	C	0.274519	0.121866	0.000108
C23	C	0.360123	0.123535	0.000098
C24	C	0.428352	0.124872	0.000090
C25	C	0.899534	-0.044414	0.000105
C26	C	0.897903	-0.146789	0.000105
C27	C	0.891896	-0.521659	0.000084
C28	C	0.893564	-0.417358	0.000090
C29	C	0.894899	-0.334227	0.000095
C30	C	0.896568	-0.229920	0.000100
C31	C	1.032603	0.117164	0.000112
C32	C	1.116626	0.118795	0.000116
C33	C	0.888940	0.292827	0.000087
C34	C	0.890572	0.395202	0.000082
N35	N	0.894219	0.124192	0.206646
N36	N	0.894262	0.124213	-0.206452
C37	C	0.945603	0.061407	0.248372
C38	C	0.945607	0.061406	0.331824
C39	C	0.894230	0.124196	0.373549
C40	C	0.842840	0.186984	0.331816
C41	C	0.842833	0.186980	0.248366
C42	C	0.842867	0.187002	0.668364
C43	C	0.842880	0.187004	0.751820
C44	C	0.945642	0.061429	0.751822
C45	C	0.945635	0.061424	0.668372
C46	C	0.894242	0.124209	0.626647
C47	C	0.894238	0.124208	0.536158
C48	C	0.894238	0.124202	0.464036
H49	H	0.251017	0.274189	0.000085
H50	H	0.505128	0.279144	0.000072
H51	H	0.987444	0.010280	0.214406
H52	H	0.801040	0.238137	0.785791
O53	O	0.135284	-0.046828	-0.000012
C54	C	0.090136	-0.052736	-0.068663
H55	H	0.108874	-0.004590	-0.116662
H56	H	0.097119	-0.127079	-0.091699
H57	H	0.027911	-0.031319	-0.053142
H58	H	0.283346	-0.030739	0.000123
H59	H	0.801023	0.238126	0.634398
O60	O	0.100222	0.284510	-0.000043
C61	C	0.114103	0.336018	-0.068703
H62	H	0.141015	0.287270	-0.116691
H63	H	0.058142	0.373127	-0.091750
H64	H	0.154374	0.389306	-0.053190
O65	O	0.995604	0.000392	0.372234
C66	C	1.040944	-0.055035	0.317512
H67	H	1.041832	-0.017228	0.258018
H68	H	1.101370	-0.069177	0.341615
H69	H	1.016293	-0.123517	0.308654
H70	H	0.537452	-0.025775	0.000112
O71	O	0.995630	0.000391	0.792232
C72	C	1.040962	-0.055042	0.737508
H73	H	1.041864	-0.017229	0.678019
H74	H	1.101385	-0.069210	0.761616
H75	H	1.016295	-0.123513	0.728640
H76	H	0.680683	-0.022990	0.000091
O77	O	0.793004	0.247944	0.372468
C78	C	0.804017	0.234473	0.455072
H79	H	0.864143	0.199914	0.466468
H80	H	0.795691	0.304330	0.486776
H81	H	0.761122	0.188285	0.478769
H82	H	0.800989	0.238105	0.214393
O83	O	0.995402	0.000383	0.627718
C84	C	0.984303	0.013754	0.545115
H85	H	0.956271	0.087181	0.533667
H86	H	1.041558	0.003155	0.513326
H87	H	0.946105	-0.038263	0.521557
O88	O	0.653026	0.295340	0.000091
C89	C	0.593389	0.368499	0.000071
H90	H	0.539728	0.342763	0.025175
H91	H	0.609966	0.427714	0.038556
H92	H	0.582249	0.394178	-0.063534
