data_functionalizedCrystal
_audit_creation_method	'MofGen! by Chris Wilmer'
_symmetry_space_group_name_H-M	'P1'
_symmetry_Int_Tables_number	1
_symmetry_cell_setting	triclinic
loop_
_symmetry_equiv_pos_as_xyz
  x,y,z
_cell_length_a	19.805407
_cell_length_b	12.759394
_cell_length_c	19.805399
_cell_angle_alpha	89.976033
_cell_angle_beta	89.979591
_cell_angle_gamma	90.016777
loop_
_atom_site_label
_atom_site_type_symbol
_atom_site_fract_x
_atom_site_fract_y
_atom_site_fract_z
Zn1	Zn	1.034790	-0.418236	-0.382752
Zn2	Zn	1.034728	-0.593930	-0.269571
Zn3	Zn	0.921605	-0.418271	-0.269575
Zn4	Zn	0.921591	-0.593880	-0.382716
O5	O	0.978178	-0.506079	-0.326153
O6	O	1.129498	-0.441549	-0.367751
O7	O	1.019701	-0.570664	-0.174855
O8	O	0.936651	-0.271246	-0.284605
O9	O	1.129453	-0.570630	-0.284598
O10	O	1.019808	-0.271220	-0.367755
O11	O	0.936590	-0.441608	-0.174858
O12	O	0.826886	-0.441560	-0.284570
O13	O	0.936628	-0.570545	-0.477437
O14	O	0.826876	-0.570579	-0.367694
O15	O	1.019794	-0.441500	-0.477464
O16	O	1.019688	-0.740944	-0.284563
O17	O	0.936567	-0.740908	-0.367690
C18	C	0.802322	-0.506069	-0.326129
C19	C	0.727090	-0.506089	-0.326134
C20	C	0.265327	-0.438993	-0.369544
C21	C	0.336015	-0.438994	-0.369539
C22	C	0.371329	-0.506095	-0.326175
C23	C	0.335950	-0.573206	-0.282818
C24	C	0.265263	-0.573209	-0.282827
C25	C	0.621023	-0.573198	-0.282782
C26	C	0.691716	-0.573188	-0.282775
C27	C	0.691776	-0.438984	-0.369494
C28	C	0.621088	-0.438986	-0.369503
C29	C	0.585716	-0.506101	-0.326149
C30	C	0.509068	-0.506099	-0.326156
C31	C	0.447976	-0.506092	-0.326164
C32	C	0.978138	-0.779047	-0.326137
C33	C	0.978182	-0.895824	-0.326153
C34	C	1.064801	-0.895808	-0.239657
C35	C	1.108128	-0.950662	-0.196417
C36	C	1.108168	-1.060383	-0.196436
C37	C	1.064877	-1.115254	-0.239700
C38	C	1.021550	-1.060401	-0.282940
C39	C	1.021514	-0.950677	-0.282915
C40	C	0.934936	-1.060416	-0.369438
C41	C	0.934892	-0.950694	-0.369417
C42	C	0.891645	-1.115287	-0.412702
C43	C	0.848314	-1.060434	-0.455939
C44	C	0.848275	-0.950706	-0.455919
C45	C	0.891565	-0.895841	-0.412657
C46	C	1.154721	-0.506091	-0.326178
C47	C	1.229953	-0.506096	-0.326189
C48	C	0.978216	-0.506013	-0.502696
C49	C	0.978233	-0.505985	-0.577928
C50	C	0.978238	-0.232046	-0.326184
C51	C	0.978263	-0.115269	-0.326198
C52	C	1.021539	-0.438788	-0.613287
C53	C	1.021545	-0.438758	-0.683976
C54	C	0.978249	-0.505930	-0.719304
C55	C	0.934939	-0.573130	-0.683940
C56	C	0.934929	-0.573154	-0.613253
C57	C	0.934977	-0.573032	-0.969013
C58	C	0.934992	-0.573005	-1.039705
C59	C	1.021594	-0.438635	-1.039736
C60	C	1.021584	-0.438660	-0.969049
C61	C	0.978271	-0.505855	-0.933691
C62	C	0.978263	-0.505886	-0.857043
C63	C	0.978260	-0.505905	-0.795951
C64	C	0.978180	-0.506069	-0.150297
C65	C	0.978295	-0.505802	-0.075066
H66	H	0.364708	-0.627845	-0.247513
H67	H	0.891533	-0.806500	-0.412631
H68	H	0.899719	-0.627762	-0.940233
H69	H	0.812996	-0.906050	-0.491132
O70	O	0.806288	-1.113896	-0.497899
C71	C	0.815632	-1.222500	-0.488660
H72	H	0.837833	-1.237513	-0.436448
H73	H	0.764948	-1.264270	-0.493215
H74	H	0.851669	-1.253538	-0.528846
H75	H	0.720584	-0.384339	-0.404797
O76	O	1.150114	-0.897197	-0.154413
C77	C	1.140803	-0.788591	-0.163676
H78	H	1.088553	-0.773648	-0.185797
H79	H	1.145404	-0.746942	-0.112973
H80	H	1.180923	-0.757362	-0.199748
H81	H	1.056797	-0.384092	-0.584528
O82	O	0.892960	-0.638484	-0.578824
C83	C	0.931480	-0.706369	-0.537948
H84	H	0.982781	-0.669319	-0.527380
H85	H	0.903905	-0.720459	-0.488230
H86	H	0.938902	-0.784222	-0.565179
H87	H	1.056842	-0.383965	-0.940288
O88	O	0.231131	-0.373777	-0.411733
C89	C	0.277514	-0.314534	-0.449987
H90	H	0.327896	-0.357571	-0.452274
H91	H	0.257120	-0.303439	-0.503331
H92	H	0.285034	-0.234690	-0.425290
H93	H	0.592340	-0.384342	-0.404812
O94	O	0.370405	-0.373956	-0.411725
C95	C	0.411314	-0.433850	-0.455365
H96	H	0.390001	-0.516607	-0.459459
H97	H	0.412141	-0.395951	-0.507495
H98	H	0.464877	-0.437424	-0.434432
H99	H	0.899684	-0.627819	-0.712710
H100	H	1.056811	-0.384042	-0.712762
O101	O	1.150277	-1.113510	-0.154370
C102	C	1.188492	-1.041560	-0.116194
H103	H	1.160746	-0.963381	-0.113809
H104	H	1.195749	-1.073316	-0.062879
H105	H	1.239881	-1.029801	-0.141022
O106	O	0.725916	-0.638480	-0.240632
C107	C	0.679538	-0.697702	-0.202357
H108	H	0.629162	-0.701399	-0.230081
H109	H	0.699949	-0.780463	-0.195050
H110	H	0.672003	-0.659136	-0.150992
H111	H	0.891684	-1.204628	-0.412717
H112	H	0.899732	-0.627707	-1.068468
O113	O	0.586641	-0.638501	-0.240763
C114	C	0.545751	-0.706428	-0.279226
H115	H	0.567075	-0.713018	-0.332526
H116	H	0.544933	-0.787234	-0.254658
H117	H	0.492182	-0.673964	-0.281596
O118	O	0.231003	-0.638426	-0.240648
C119	C	0.277328	-0.697670	-0.202383
H120	H	0.327722	-0.654629	-0.200077
H121	H	0.256875	-0.708776	-0.149046
H122	H	0.284846	-0.777510	-0.227083
O123	O	1.063567	-0.373238	-1.074114
C124	C	1.025054	-0.305374	-1.115012
H125	H	0.971744	-0.298888	-1.093700
H126	H	1.049554	-0.224523	-1.115825
H127	H	1.022724	-0.337833	-1.168582
O128	O	1.064650	-0.789226	-0.239576
C129	C	0.999769	-0.752678	-0.222151
H130	H	0.971826	-0.815981	-0.192633
H131	H	1.004601	-0.679304	-0.189685
H132	H	0.970418	-0.733196	-0.270042
H133	H	1.064919	-1.204595	-0.239717
