data_functionalizedCrystal
_audit_creation_method	'MofGen! by Chris Wilmer'
_symmetry_space_group_name_H-M	'P1'
_symmetry_Int_Tables_number	1
_symmetry_cell_setting	triclinic
loop_
_symmetry_equiv_pos_as_xyz
  x,y,z
_cell_length_a	14.628931
_cell_length_b	20.016444
_cell_length_c	20.016444
_cell_angle_alpha	89.997179
_cell_angle_beta	119.996855
_cell_angle_gamma	60.002399
loop_
_atom_site_label
_atom_site_type_symbol
_atom_site_fract_x
_atom_site_fract_y
_atom_site_fract_z
Zr1	Zr	1.000635	-0.087681	-0.643574
O2	O	1.191323	-0.194352	-0.536902
O3	O	0.809935	-0.054980	-0.676274
O4	O	1.000631	-0.194353	-0.676274
O5	O	1.000634	0.054962	-0.536903
O6	O	1.000642	-0.194355	-0.786212
O7	O	1.000627	-0.054978	-0.536903
O8	O	0.659521	0.054958	-0.786213
O9	O	1.341755	-0.194352	-0.536903
O10	O	0.888385	-0.041035	-0.772266
O11	O	0.888382	0.041013	-0.690221
O12	O	1.112903	-0.123081	-0.690220
O13	O	1.112900	-0.041033	-0.608175
Zr14	Zr	1.000663	0.087658	-0.818914
Zr15	Zr	1.000652	-0.087683	-0.818913
Zr16	Zr	1.000646	0.087661	-0.643574
Zr17	Zr	1.240556	-0.087681	-0.643574
Zr18	Zr	0.760742	0.087659	-0.818913
O19	O	1.191364	0.054958	-0.786213
O20	O	1.191347	-0.194355	-0.786212
O21	O	1.191340	0.054961	-0.536903
O22	O	0.809975	0.194329	-0.925585
O23	O	0.809959	-0.054983	-0.925584
O24	O	0.809951	0.194333	-0.676275
O25	O	1.000664	-0.054984	-0.925584
O26	O	1.000667	0.194331	-0.786214
O27	O	1.000656	0.194333	-0.676275
O28	O	1.000671	0.054956	-0.925585
O29	O	1.341769	-0.194354	-0.676274
O30	O	0.659530	0.194331	-0.786213
O31	O	0.659543	0.194330	-0.925585
O32	O	0.659534	0.054957	-0.925584
O33	O	1.341764	-0.054979	-0.536903
O34	O	1.341778	-0.054981	-0.676275
O35	O	0.888395	0.123059	-0.772267
O36	O	0.888398	0.041011	-0.854313
O37	O	1.112916	-0.041035	-0.772267
O38	O	1.112913	0.041013	-0.690221
C39	C	0.700544	-0.000011	-0.731243
C40	C	0.598691	-0.000011	-0.731243
C41	C	1.000628	-0.000008	-0.511921
C42	C	1.000621	-0.000007	-0.437485
C43	C	1.000663	0.219314	-0.731244
C44	C	1.000668	0.293751	-0.731245
C45	C	0.553283	-0.040712	-0.771943
C46	C	0.448013	-0.040713	-0.771944
C47	C	1.300754	-0.000011	-0.731244
C48	C	1.402607	-0.000012	-0.731244
C49	C	1.000635	-0.219336	-0.731243
C50	C	1.000630	-0.293773	-0.731243
C51	C	1.117849	0.422191	-0.688415
C52	C	1.117844	0.492136	-0.688412
C53	C	0.883440	0.577785	-0.774074
C54	C	0.883446	0.507841	-0.774071
C55	C	1.000655	0.430044	-0.731244
C56	C	1.000643	0.569934	-0.731244
C57	C	1.000636	0.645772	-0.731241
C58	C	1.000662	0.354201	-0.731245
C59	C	0.883434	0.042824	-0.309047
C60	C	0.883437	0.042827	-0.239102
C61	C	1.117842	-0.042835	-0.153454
C62	C	1.117837	-0.042833	-0.223397
C63	C	1.000630	-0.000005	-0.301193
C64	C	1.000637	-0.000005	-0.161305
C65	C	1.000642	-0.000002	-0.085468
C66	C	1.000625	-0.000006	-0.377035
C67	C	1.000662	-0.000011	0.049431
C68	C	1.000646	-0.000003	-0.025014
C69	C	0.700565	-0.000014	-0.950566
C70	C	0.598719	-0.000015	-1.025002
C71	C	0.700558	0.219315	-0.731244
C72	C	0.598710	0.293752	-0.731244
C73	C	0.700579	0.219312	-0.950567
C74	C	0.598738	0.293748	-1.025003
C75	C	1.300719	-0.219334	-0.511920
C76	C	1.402560	-0.293770	-0.437484
C77	C	1.300733	-0.000008	-0.511921
C78	C	1.402579	-0.000007	-0.437485
C79	C	1.300740	-0.219337	-0.731243
C80	C	1.402588	-0.293774	-0.731243
C81	C	0.550884	-0.042849	-1.017131
C82	C	0.455203	-0.042867	-1.087065
C83	C	0.407351	-0.000044	-1.164869
C84	C	0.455195	0.042792	-1.172739
C85	C	0.550882	0.042804	-1.102806
C86	C	0.550888	0.371543	-0.774072
C87	C	0.455204	0.441491	-0.774069
C88	C	0.407338	0.433647	-0.731243
C89	C	0.455169	0.355847	-0.688410
C90	C	0.550858	0.285901	-0.688409
C91	C	0.550914	0.285875	-1.102794
C92	C	0.455237	0.355809	-1.172741
C93	C	0.407380	0.433615	-1.164897
C94	C	0.455213	0.441485	-1.087098
C95	C	0.550895	0.371552	-1.017152
C96	C	1.450396	-0.285898	-0.359694
C97	C	1.546102	-0.355832	-0.289746
C98	C	1.593965	-0.433637	-0.297591
C99	C	1.546125	-0.441508	-0.375389
C100	C	1.450427	-0.371574	-0.445335
C101	C	1.450424	0.042820	-0.445356
C102	C	1.546132	0.042818	-0.375423
C103	C	1.593987	-0.000007	-0.297618
C104	C	1.546138	-0.042840	-0.289748
C105	C	1.450438	-0.042842	-0.359681
C106	C	1.450424	-0.285903	-0.774077
C107	C	1.546109	-0.355838	-0.774093
C108	C	1.593962	-0.433643	-0.731269
C109	C	1.546116	-0.441512	-0.688434
C110	C	1.450427	-0.371578	-0.688423
H111	H	0.592335	-0.075554	-0.806792
H112	H	1.213268	-0.077705	-0.090105
F113	F	1.399512	-0.203104	-0.819660
H114	H	0.416234	0.504844	-1.080723
H115	H	0.408969	-0.075563	-0.806786
H116	H	1.213278	-0.077708	-0.216997
F117	F	0.601774	0.088403	-1.111196
F118	F	0.453646	0.045533	-0.685691
H119	H	1.585037	-0.349407	-0.226406
F120	F	1.695816	-0.508060	-0.223140
H121	H	0.559629	0.034837	-0.696401
F122	F	1.242593	0.339396	-0.642831
H123	H	0.589866	0.222529	-1.109197
F124	F	0.404297	-0.088458	-1.078672
H125	H	0.329422	0.490608	-0.731250
F126	F	1.399513	0.088402	-0.528155
H127	H	0.416301	0.349386	-1.236082
F128	F	1.242578	0.483773	-0.642820
F129	F	0.601738	0.203112	-0.642827
H130	H	0.788013	0.641134	-0.808944
H131	H	0.329469	0.490552	-1.221858
H132	H	0.788007	0.514241	-0.808948
F133	F	0.601777	0.379943	-0.934364
F134	F	0.601798	-0.088433	-0.934332
F135	F	1.399521	-0.088423	-0.351291
H136	H	0.787996	0.077706	-0.372389
F137	F	1.399471	-0.203098	-0.351326
H138	H	0.329436	-0.000060	-1.221807
F139	F	0.758702	0.088415	-0.247466
F140	F	1.597018	-0.347446	-0.819683
H141	H	1.585107	-0.504865	-0.381767
H142	H	0.416221	0.077657	-1.236097
H143	H	0.589850	0.377945	-0.808946
F144	F	0.404313	0.524282	-0.819661
H145	H	1.585074	0.077701	-0.381846
H146	H	1.411479	-0.377994	-0.508674
H147	H	0.416182	0.349473	-0.653542
H148	H	1.671878	-0.490581	-0.731284
F149	F	1.597066	-0.524324	-0.642854
F150	F	1.399535	-0.379967	-0.642823
H151	H	1.671912	0.000001	-0.240681
H152	H	1.585116	-0.077707	-0.226391
