data_functionalizedCrystal
_audit_creation_method	'MofGen! by Chris Wilmer'
_symmetry_space_group_name_H-M	'P1'
_symmetry_Int_Tables_number	1
_symmetry_cell_setting	triclinic
loop_
_symmetry_equiv_pos_as_xyz
  x,y,z
_cell_length_a	13.635800
_cell_length_b	17.982959
_cell_length_c	9.582880
_cell_angle_alpha	86.497529
_cell_angle_beta	111.207034
_cell_angle_gamma	77.548143
loop_
_atom_site_label
_atom_site_type_symbol
_atom_site_fract_x
_atom_site_fract_y
_atom_site_fract_z
V1	V	2.055810	-0.105091	0.467224
O2	O	2.051321	0.005381	0.457687
O3	O	2.028815	-0.208695	0.464647
O4	O	2.051239	-0.103329	0.670715
O5	O	2.028742	-0.100715	0.250193
V6	V	2.295443	-0.091894	0.441191
O7	O	2.191109	-0.134038	0.524332
O8	O	2.385243	-0.062946	0.384083
O9	O	2.210836	0.011710	0.443768
O10	O	2.358631	-0.202366	0.450728
O11	O	2.381211	-0.096270	0.658222
O12	O	2.188411	-0.093656	0.237700
V13	V	2.555810	-0.105091	0.467224
O14	O	2.551321	0.005381	0.457687
O15	O	2.528815	-0.208695	0.464647
O16	O	2.551239	-0.103329	0.670715
O17	O	2.528742	-0.100715	0.250193
V18	V	2.795443	-0.091894	0.441191
O19	O	2.691109	-0.134038	0.524332
O20	O	2.885243	-0.062946	0.384083
O21	O	2.710836	0.011710	0.443768
O22	O	2.858631	-0.202366	0.450728
O23	O	2.881211	-0.096270	0.658222
O24	O	2.688411	-0.093656	0.237700
C25	C	1.950000	-0.233956	0.457436
C26	C	1.968702	-0.318653	0.456686
C27	C	2.069169	-0.362320	0.463821
C28	C	2.086737	-0.441902	0.463124
C29	C	2.003835	-0.477816	0.455282
C30	C	1.903361	-0.434144	0.448151
C31	C	1.885796	-0.354564	0.448858
C32	C	1.974196	-0.755082	0.445300
C33	C	1.991768	-0.834667	0.444589
C34	C	2.175137	-0.842420	0.459566
C35	C	2.157573	-0.762840	0.460274
C36	C	2.057103	-0.719176	0.453151
C37	C	2.038054	-0.632884	0.453909
C38	C	2.022879	-0.564106	0.454513
C39	C	1.978604	-0.099550	0.720294
C40	C	2.015490	-0.098795	0.886653
C41	C	2.121321	0.036968	0.450975
C42	C	2.092239	0.121664	0.451735
C43	C	2.092717	-0.097437	0.188113
C44	C	2.045450	-0.098188	0.021753
C45	C	2.450000	-0.233956	0.457436
C46	C	2.468702	-0.318653	0.456686
C47	C	2.478604	-0.099550	0.720294
C48	C	2.515490	-0.098795	0.886653
C49	C	2.621321	0.036968	0.450975
C50	C	2.592239	0.121664	0.451735
C51	C	2.592717	-0.097437	0.188113
C52	C	2.545450	-0.098188	0.021753
C53	C	2.569179	-0.362308	0.463833
C54	C	2.586771	-0.441892	0.463151
C55	C	2.503882	-0.477820	0.455310
C56	C	2.403398	-0.434160	0.448167
C57	C	2.385810	-0.354578	0.448860
C58	C	2.664256	0.165318	0.444591
C59	C	2.636937	0.244901	0.445281
C60	C	2.537603	0.280829	0.453125
C61	C	2.465580	0.237170	0.460265
C62	C	2.492896	0.157588	0.459564
H63	H	2.136676	-0.333084	0.470192
H64	H	2.668595	-0.477429	0.468964
H65	H	2.745144	0.136076	0.438205
H66	H	2.518218	-0.542621	0.454747
H67	H	2.636681	-0.333066	0.470209
C68	C	2.507891	0.367208	0.454143
C69	C	2.492533	0.381254	0.587853
C70	C	2.465155	0.460816	0.588839
H71	H	2.564953	0.388145	0.448852
H72	H	2.442659	0.390711	0.369406
H73	H	2.557757	0.357760	0.672568
H74	H	2.435467	0.360335	0.593173
H75	H	2.399923	0.484320	0.504102
H76	H	2.522221	0.481747	0.583544
H77	H	2.454721	0.470357	0.679553
H78	H	2.434249	0.122050	0.465395
C79	C	2.195855	-0.489380	0.471134
C80	C	2.242531	-0.545469	0.600583
C81	C	2.343054	-0.589216	0.608007
H82	H	2.185475	-0.513753	0.383553
H83	H	2.242772	-0.456632	0.475970
H84	H	2.195625	-0.578213	0.595734
H85	H	2.252938	-0.521117	0.688186
H86	H	2.389972	-0.556468	0.612843
H87	H	2.332664	-0.613584	0.520420
H88	H	2.374742	-0.627273	0.695844
C89	C	2.276610	-0.307200	0.440761
C90	C	2.194394	-0.314048	0.306638
C91	C	2.093783	-0.270411	0.299114
H92	H	2.262810	-0.325506	0.525165
H93	H	2.277927	-0.254641	0.442205
H94	H	2.193075	-0.366597	0.305207
H95	H	2.208158	-0.295737	0.222210
H96	H	2.095100	-0.217852	0.300559
H97	H	2.079994	-0.288721	0.383525
H98	H	2.037989	-0.275046	0.208107
H99	H	2.256947	-0.877981	0.465369
H100	H	2.225080	-0.733602	0.466652
H101	H	2.335915	-0.463424	0.441783
C102	C	1.901721	-0.873679	0.435775
C103	C	1.875221	-0.908939	0.305499
C104	C	1.792271	-0.944875	0.297317
H105	H	1.925811	-0.911515	0.522790
H106	H	1.839326	-0.836294	0.431554
H107	H	1.937604	-0.946321	0.309734
H108	H	1.851113	-0.871120	0.218462
H109	H	1.729875	-0.907490	0.293096
H110	H	1.816369	-0.982708	0.384338
H111	H	1.774273	-0.968797	0.208919
H112	H	2.695595	0.280438	0.439469
C113	C	1.865105	-0.707571	0.437307
C114	C	1.818476	-0.651468	0.307883
C115	C	1.717980	-0.607678	0.300470
H116	H	1.818130	-0.740266	0.432440
H117	H	1.875546	-0.683216	0.524937
H118	H	1.808030	-0.675822	0.220275
H119	H	1.865420	-0.618756	0.312721
H120	H	1.728420	-0.583323	0.388100
H121	H	1.671014	-0.640379	0.295608
H122	H	1.686334	-0.569603	0.212665
C123	C	1.776711	-0.307038	0.440877
C124	C	1.730079	-0.250931	0.311461
C125	C	1.629597	-0.207131	0.304076
H126	H	1.729728	-0.339726	0.436019
H127	H	1.787171	-0.282687	0.528514
H128	H	1.719615	-0.275281	0.223846
H129	H	1.777031	-0.218226	0.316290
H130	H	1.640056	-0.182779	0.391713
H131	H	1.582623	-0.239824	0.299222
H132	H	1.597949	-0.169052	0.216276
C133	C	2.357702	0.276303	0.468557
C134	C	2.296641	0.331962	0.340018
C135	C	2.197269	0.368036	0.347626
H136	H	2.318579	0.239002	0.472646
H137	H	2.370840	0.300332	0.556819
H138	H	2.283500	0.307934	0.251780
H139	H	2.335730	0.369278	0.335903
H140	H	2.210408	0.392065	0.435888
H141	H	2.158157	0.330730	0.351719
H142	H	2.155832	0.405810	0.260423
H143	H	1.835864	-0.463392	0.441775
