data_functionalizedCrystal
_audit_creation_method	'MofGen! by Chris Wilmer'
_symmetry_space_group_name_H-M	'P1'
_symmetry_Int_Tables_number	1
_symmetry_cell_setting	triclinic
loop_
_symmetry_equiv_pos_as_xyz
  x,y,z
_cell_length_a	15.995292
_cell_length_b	17.038272
_cell_length_c	14.472310
_cell_angle_alpha	89.999298
_cell_angle_beta	89.985801
_cell_angle_gamma	87.290086
loop_
_atom_site_label
_atom_site_type_symbol
_atom_site_fract_x
_atom_site_fract_y
_atom_site_fract_z
O1	O	1.118190	0.100556	-0.076867
O2	O	1.618190	0.600556	0.423133
O3	O	0.875298	0.113048	-0.076864
O4	O	1.375298	0.613048	0.423136
O5	O	0.995300	-0.007013	-0.076858
O6	O	1.495300	0.492987	0.423142
O7	O	0.998187	0.220618	-0.076873
O8	O	1.498187	0.720618	0.423127
O9	O	0.995268	-0.007006	0.076824
O10	O	1.495268	0.492994	0.576824
O11	O	0.875265	0.113055	0.076818
O12	O	1.375265	0.613055	0.576818
O13	O	1.118157	0.100563	0.076815
O14	O	1.618157	0.600563	0.576815
Cu15	Cu	0.996708	0.106810	0.090849
Cu16	Cu	1.496708	0.606810	0.590849
Cu17	Cu	0.996747	0.106801	-0.090898
Cu18	Cu	1.496747	0.606801	0.409102
O19	O	0.998155	0.220625	0.076809
O20	O	1.498155	0.720625	0.576809
C21	C	0.844050	0.112543	-0.000022
C22	C	1.344050	0.612543	0.499978
C23	C	0.750988	0.111019	-0.000021
C24	C	1.250988	0.611019	0.499979
C25	C	0.412851	0.105415	-0.000031
C26	C	0.912851	0.605415	0.499969
C27	C	0.442336	0.192073	-0.000379
C28	C	0.942336	0.692073	0.499621
C29	C	0.539129	0.193720	-0.000029
C30	C	1.039129	0.693720	0.499971
C31	C	0.580605	0.108196	-0.000026
C32	C	1.080605	0.608196	0.499974
C33	C	0.548398	0.064875	0.087733
C34	C	1.048398	0.564875	0.587733
C35	C	0.451533	0.063832	0.087803
C36	C	0.951533	0.563832	0.587803
C37	C	0.451589	0.062055	-0.086962
C38	C	0.951589	0.562055	0.413038
C39	C	0.548310	0.065266	-0.088118
C40	C	1.048310	0.565266	0.411882
C41	C	0.675412	0.109763	-0.000021
C42	C	1.175412	0.609763	0.499979
C43	C	0.318043	0.103846	-0.000030
C44	C	0.818043	0.603846	0.499970
C45	C	0.992658	-0.036138	-0.000017
C46	C	1.492658	0.463862	0.499983
C47	C	0.984824	-0.122932	-0.000017
C48	C	1.484824	0.377068	0.499983
C49	C	1.056753	-0.173042	-0.000017
C50	C	1.556753	0.326958	0.499983
C51	C	1.049387	-0.254593	-0.000026
C52	C	1.549387	0.245407	0.499974
C53	C	0.970090	-0.286032	-0.000028
C54	C	1.470090	0.213968	0.499972
C55	C	0.898155	-0.235915	-0.000031
C56	C	1.398155	0.264085	0.499969
C57	C	0.905522	-0.154365	-0.000029
C58	C	1.405522	0.345635	0.499971
C59	C	0.944064	-0.531791	-0.000040
C60	C	1.444064	-0.031791	0.499960
C61	C	0.936702	-0.613347	-0.000040
C62	C	1.436702	-0.113347	0.499960
C63	C	1.087934	-0.632019	-0.000037
C64	C	1.587934	-0.132019	0.499963
C65	C	1.095294	-0.550468	-0.000029
C66	C	1.595294	-0.050468	0.499971
C67	C	1.023359	-0.500358	-0.000037
C68	C	1.523359	-0.000358	0.499963
C69	C	0.962559	-0.369390	-0.000034
C70	C	1.462559	0.130610	0.499966
C71	C	1.030892	-0.417001	-0.000037
C72	C	1.530892	0.082999	0.499963
C73	C	1.149405	0.101068	-0.000029
C74	C	1.649405	0.601068	0.499971
C75	C	1.242467	0.102592	-0.000036
C76	C	1.742467	0.602592	0.499964
C77	C	1.000797	0.249749	-0.000034
C78	C	1.500797	0.749749	0.499966
C79	C	1.008632	0.336543	-0.000040
C80	C	1.508632	0.836543	0.499960
N81	N	0.996687	0.106815	0.218680
N82	N	1.496687	0.606815	0.718680
N83	N	0.996774	0.106790	-0.218729
N84	N	1.496774	0.606790	0.281271
C85	C	0.996745	0.106798	0.592771
C86	C	1.496745	0.606798	1.092771
C87	C	0.932289	0.170825	0.553602
C88	C	1.432289	0.670825	1.053602
C89	C	0.932464	0.171059	0.446514
C90	C	1.432464	0.671059	0.946514
C91	C	0.996716	0.106807	0.407180
C92	C	1.496716	0.606807	0.907180
C93	C	1.085351	0.124607	0.446014
C94	C	1.585351	0.624607	0.946014
C95	C	1.084995	0.125063	0.553136
C96	C	1.584995	0.625063	1.053136
C97	C	0.973333	0.024780	0.553306
C98	C	1.473333	0.524780	1.053306
C99	C	0.971369	0.025328	0.446179
C100	C	1.471369	0.525328	0.946179
C101	C	0.996705	0.106810	0.302292
C102	C	1.496705	0.606810	0.802292
C103	C	0.996763	0.106797	0.697659
C104	C	1.496763	0.606797	1.197659
H105	H	0.416733	0.225471	-0.063316
H106	H	0.916733	0.725471	0.436684
H107	H	0.947664	0.231347	0.580508
H108	H	1.447664	0.731347	1.080508
Br109	Br	0.846437	-0.463795	-0.000056
Br110	Br	1.346437	0.036205	0.499944
H111	H	1.095455	-0.391400	-0.000056
H112	H	1.595455	0.108600	0.499944
Br113	Br	0.420701	-0.044260	-0.087944
Br114	Br	0.920701	0.455740	0.412056
Br115	Br	0.822953	0.153441	0.402750
Br116	Br	1.322953	0.653441	0.902750
H117	H	0.559950	0.227857	0.062983
H118	H	1.059950	0.727857	0.562983
Br119	Br	0.594026	-0.040024	0.093175
Br120	Br	1.094026	0.459976	0.593175
Br121	Br	0.397890	0.247447	0.103918
Br122	Br	0.897890	0.747447	0.603918
H123	H	0.570586	0.094965	0.153042
H124	H	1.070586	0.594965	0.653042
Br125	Br	1.185555	-0.700029	-0.000026
Br126	Br	1.685555	-0.200029	0.499974
H127	H	0.425205	0.089138	-0.153479
H128	H	0.925205	0.589138	0.346521
H129	H	0.569141	0.096808	-0.153042
H130	H	1.069141	0.596808	0.346958
Br131	Br	0.595845	-0.038783	-0.096949
Br132	Br	1.095845	0.461217	0.403051
Br133	Br	1.043798	-0.057807	0.401572
Br134	Br	1.543798	0.442193	0.901572
Br135	Br	1.051564	-0.054634	0.595519
Br136	Br	1.551564	0.445366	1.095519
H137	H	0.897995	-0.394996	-0.000034
H138	H	1.397995	0.105004	0.499966
H139	H	1.121325	-0.147452	-0.000010
H140	H	1.621325	0.352548	0.499990
H141	H	1.107960	-0.295390	-0.000024
H142	H	1.607960	0.204610	0.499976
Br143	Br	1.202915	-0.507807	-0.000056
Br144	Br	1.702915	-0.007807	0.499944
H145	H	0.560585	0.227642	-0.062941
H146	H	1.060585	0.727642	0.437059
H147	H	0.426840	0.093840	0.153403
H148	H	0.926840	0.593840	0.653403
H149	H	0.948020	0.231923	0.420876
H150	H	1.448020	0.731923	0.920876
H151	H	0.432456	0.000295	0.091792
H152	H	0.932456	0.500295	0.591792
Br153	Br	0.829078	-0.656013	-0.000033
Br154	Br	1.329078	-0.156013	0.499967
Br155	Br	1.117903	0.224756	0.594762
Br156	Br	1.617903	0.724756	1.094762
H157	H	0.833590	-0.261519	-0.000038
H158	H	1.333590	0.238481	0.499962
H159	H	0.846949	-0.113565	-0.000029
H160	H	1.346949	0.386435	0.499971
Br161	Br	0.822450	0.153432	0.596559
Br162	Br	1.322450	0.653432	1.096559
H163	H	1.134767	0.080266	0.579044
H164	H	1.634767	0.580266	1.079044
H165	H	1.105416	0.183740	0.419173
H166	H	1.605416	0.683740	0.919173
Br167	Br	1.167612	0.048947	0.403554
Br168	Br	1.667612	0.548947	0.903554
H169	H	0.909789	0.007659	0.580376
H170	H	1.409789	0.507659	1.080376
Br171	Br	0.862645	0.002807	0.403881
Br172	Br	1.362645	0.502807	0.903881
