data_functionalizedCrystal
_audit_creation_method	'MofGen! by Chris Wilmer'
_symmetry_space_group_name_H-M	'P1'
_symmetry_Int_Tables_number	1
_symmetry_cell_setting	triclinic
loop_
_symmetry_equiv_pos_as_xyz
  x,y,z
_cell_length_a	17.917559
_cell_length_b	23.196402
_cell_length_c	23.196401
_cell_angle_alpha	60.007332
_cell_angle_beta	90.012927
_cell_angle_gamma	57.014568
loop_
_atom_site_label
_atom_site_type_symbol
_atom_site_fract_x
_atom_site_fract_y
_atom_site_fract_z
Zr1	Zr	0.754983	0.577884	-0.049087
O2	O	0.629843	0.706947	-0.145534
O3	O	0.793334	0.454926	-0.019525
O4	O	0.793312	0.575191	-0.139791
O5	O	0.629897	0.586679	0.069605
O6	O	0.922271	0.566122	-0.135257
O7	O	0.629866	0.586683	-0.025267
O8	O	0.922312	0.350990	0.079878
O9	O	0.629856	0.801811	-0.145530
O10	O	0.905945	0.496472	-0.003529
O11	O	0.809727	0.503237	0.063890
O12	O	0.809701	0.644833	-0.077709
O13	O	0.713482	0.651598	-0.010290
Zr14	Zr	0.960709	0.563415	0.109455
Zr15	Zr	0.960659	0.563421	-0.041856
Zr16	Zr	0.755033	0.577879	0.102223
Zr17	Zr	0.755004	0.729180	-0.049081
Zr18	Zr	0.960688	0.412119	0.109448
O19	O	0.922358	0.686373	0.079892
O20	O	0.922288	0.686382	-0.135252
O21	O	0.629913	0.706939	0.069610
O22	O	1.085849	0.434352	0.205901
O23	O	1.085779	0.434360	-0.009243
O24	O	0.793404	0.454918	0.195620
O25	O	1.085796	0.554620	-0.009238
O26	O	0.922381	0.566109	0.200159
O27	O	0.793421	0.575178	0.195625
O28	O	1.085826	0.554617	0.085635
O29	O	0.793341	0.790314	-0.139782
O30	O	0.922351	0.350986	0.200150
O31	O	1.085836	0.339489	0.205897
O32	O	1.085797	0.339493	0.085626
O33	O	0.629895	0.801806	-0.025258
O34	O	0.793380	0.790309	-0.019510
O35	O	0.905992	0.496466	0.138076
O36	O	1.002210	0.489701	0.070657
O37	O	0.905965	0.638062	-0.003523
O38	O	0.809747	0.644828	0.063896
C39	C	0.857820	0.381402	0.030176
C40	C	0.857811	0.317173	0.030173
C41	C	0.928874	0.229746	0.084932
C42	C	0.928881	0.169385	0.084939
C43	C	0.857832	0.196455	0.030176
C44	C	0.786756	0.283897	-0.024588
C45	C	0.786746	0.344256	-0.024590
C46	C	0.835690	0.142426	-0.034395
C47	C	0.835706	0.082066	-0.034393
C48	C	0.857857	0.010292	0.030180
C49	C	0.880012	-0.001126	0.094756
C50	C	0.880002	0.059233	0.094755
C51	C	0.857834	0.131013	0.030171
C52	C	0.928931	-0.142589	0.084950
C53	C	0.928932	-0.202949	0.084957
C54	C	0.786811	-0.088434	-0.024575
C55	C	0.786807	-0.028077	-0.024577
C56	C	0.857872	-0.055160	0.030186
C57	C	0.600577	0.588742	0.021139
C58	C	0.513262	0.594882	0.018069
C59	C	0.362271	0.535211	0.047903
C60	C	0.353428	0.606084	0.012467
C61	C	0.442369	0.599849	0.015585
C62	C	0.273324	0.541445	0.044785
C63	C	1.115115	0.552558	0.039229
C64	C	1.202430	0.546417	0.042299
C65	C	0.857785	0.570657	-0.159083
C66	C	0.857764	0.570659	-0.223318
C67	C	0.857872	0.759898	0.030192
C68	C	0.857881	0.824127	0.030194
C69	C	0.807530	0.648100	-0.292212
C70	C	0.807554	0.648099	-0.352567
C71	C	0.857799	0.570655	-0.344023
C72	C	0.908044	0.493204	-0.275117
C73	C	0.908027	0.493206	-0.214764
C74	C	0.850655	0.514531	-0.411594
C75	C	0.850666	0.514532	-0.471947
C76	C	0.857860	0.570644	-0.530169
C77	C	0.865023	0.626770	-0.528038
C78	C	0.865006	0.626772	-0.467685
C79	C	0.857825	0.570644	-0.409461
C80	C	0.807650	0.648089	-0.664509
C81	C	0.807681	0.648085	-0.724862
C82	C	0.908165	0.493188	-0.647411
C83	C	0.908141	0.493194	-0.587059
C84	C	0.857878	0.570647	-0.595613
C85	C	0.857908	0.570642	0.219450
C86	C	0.857929	0.570640	0.283686
C87	C	1.115089	0.363310	0.039221
C88	C	1.202395	0.292940	0.042288
C89	C	0.857882	0.381394	0.219442
C90	C	0.857894	0.317163	0.283675
C91	C	1.115151	0.363302	0.228487
C92	C	1.202478	0.292931	0.295790
C93	C	0.600541	0.777997	-0.168120
C94	C	0.513214	0.848369	-0.235422
C95	C	0.600603	0.777990	0.021147
C96	C	0.513297	0.848359	0.018080
C97	C	0.857811	0.759905	-0.159075
C98	C	0.857798	0.824136	-0.223308
C99	C	1.193146	0.263428	0.004998
C100	C	1.275172	0.197318	0.007865
C101	C	1.366445	0.160716	0.048027
C102	C	1.375693	0.190234	0.085319
C103	C	1.293668	0.256348	0.082447
C104	C	0.908148	0.283465	0.352570
C105	C	0.908156	0.223121	0.412929
C106	C	0.857914	0.196472	0.404392
C107	C	0.807653	0.230177	0.335489
C108	C	0.807641	0.290524	0.275132
C109	C	1.293721	0.256351	0.292204
C110	C	1.375782	0.190237	0.355436
C111	C	1.366597	0.160700	0.422254
C112	C	1.275345	0.197286	0.425837
C113	C	1.193286	0.263403	0.362606
C114	C	0.421971	0.884955	-0.231837
C115	C	0.339910	0.951088	-0.295069
C116	C	0.349095	0.980629	-0.361886
C117	C	0.440348	0.944039	-0.365470
C118	C	0.522406	0.877912	-0.302239
C119	C	0.522546	0.877877	0.055363
C120	C	0.440520	0.944004	0.052479
C121	C	0.349247	0.980608	0.012315
C122	C	0.340000	0.951087	-0.024973
C123	C	0.422024	0.884965	-0.022093
C124	C	0.908050	0.850766	-0.214747
C125	C	0.908058	0.911109	-0.275094
C126	C	0.857807	0.944826	-0.344001
C127	C	0.807554	0.918191	-0.352560
C128	C	0.807553	0.857844	-0.292213
H129	H	0.898042	-0.059564	0.147337
Cl130	Cl	0.246138	1.063732	0.008703
H131	H	0.949088	0.195686	0.469026
H132	H	0.728874	0.415447	-0.069181
Cl133	Cl	0.225248	0.997109	-0.075459
H134	H	0.447815	0.968099	-0.419880
Cl135	Cl	0.238613	0.706995	-0.037992
H136	H	0.728907	0.305934	-0.069176
Cl137	Cl	0.971320	0.316951	0.363321
Cl138	Cl	0.410380	0.847860	-0.068965
H139	H	0.436633	0.469857	0.080579
Cl140	Cl	1.469554	0.077600	0.051632
H141	H	0.857932	0.147333	0.453545
Cl142	Cl	0.857815	1.020693	-0.419859
H143	H	0.766606	0.711168	-0.299183
Cl144	Cl	0.744398	0.745461	-0.439188
H145	H	1.118834	0.293229	-0.027716
Cl146	Cl	0.874013	0.697325	-0.465005
H147	H	0.596698	0.848123	-0.305166
H148	H	0.870877	0.672465	-0.575445
Cl149	Cl	1.263525	0.160220	-0.039016
Cl150	Cl	1.305313	0.293434	0.129337
H151	H	0.948978	0.932788	-0.268111
H152	H	0.766724	0.711157	-0.671474
H153	H	0.948970	0.823322	-0.158645
H154	H	0.844828	0.468835	-0.473677
H155	H	0.766748	0.208470	0.328549
H156	H	1.118995	0.293178	0.365535
H157	H	0.898038	0.049934	0.147335
Cl158	Cl	1.469768	0.077578	0.501739
H159	H	0.766641	0.945653	-0.408672
H160	H	0.766778	0.711149	-0.780961
H161	H	0.949077	0.430131	-0.640453
Cl162	Cl	0.971275	0.395836	-0.500445
H163	H	0.844790	0.468839	-0.364191
Cl164	Cl	0.971214	0.395845	-0.264375
Cl165	Cl	1.490444	0.144208	0.135809
H166	H	0.817671	0.091367	-0.086975
Cl167	Cl	0.697468	0.081837	-0.093423
H168	H	0.817642	0.200871	-0.086982
H169	H	0.766628	0.836170	-0.299193
H170	H	0.986740	0.207687	0.129525
H171	H	0.596858	0.848079	0.088074
H172	H	0.414475	0.860908	-0.177437
Cl173	Cl	1.018226	0.059463	0.153782
Cl174	Cl	0.744463	0.332875	0.188523
H175	H	0.948934	0.430143	-0.158665
H176	H	0.986792	-0.164642	0.129544
H177	H	0.448069	0.968029	0.082847
H178	H	1.301218	0.280390	0.237804
Cl179	Cl	1.490487	0.144253	0.350914
Cl180	Cl	1.263814	0.160142	0.509842
Cl181	Cl	0.245925	1.063760	-0.441372
Cl182	Cl	0.697486	-0.054396	-0.093418
Cl183	Cl	1.018270	-0.312864	0.153809
Cl184	Cl	0.225205	0.997070	-0.290547
