data_functionalizedCrystal
_audit_creation_method	'MofGen! by Chris Wilmer'
_symmetry_space_group_name_H-M	'P1'
_symmetry_Int_Tables_number	1
_symmetry_cell_setting	triclinic
loop_
_symmetry_equiv_pos_as_xyz
  x,y,z
_cell_length_a	19.188905
_cell_length_b	13.185408
_cell_length_c	12.376457
_cell_angle_alpha	97.388518
_cell_angle_beta	78.739884
_cell_angle_gamma	67.554028
loop_
_atom_site_label
_atom_site_type_symbol
_atom_site_fract_x
_atom_site_fract_y
_atom_site_fract_z
O1	O	0.918208	0.115113	-0.094190
O2	O	0.711471	0.133495	-0.094151
O3	O	0.850258	-0.034618	-0.094169
O4	O	0.779421	0.283226	-0.094172
O5	O	0.815581	0.007353	0.093847
O6	O	0.676794	0.175466	0.093865
O7	O	0.883531	0.157084	0.093826
Zn8	Zn	0.774657	0.172939	0.123698
Zn9	Zn	0.820345	0.117640	-0.124022
O10	O	0.744744	0.325198	0.093844
C11	C	0.668230	0.153891	-0.000138
C12	C	0.591051	0.152122	-0.000123
C13	C	0.573720	0.128392	-0.102614
C14	C	0.501211	0.126711	-0.102628
C15	C	0.446041	0.148740	-0.000145
C16	C	0.463376	0.172480	0.102359
C17	C	0.535881	0.174171	0.102370
N18	N	0.334997	0.100999	0.076123
N19	N	0.266122	0.099389	0.076106
C20	C	0.227585	0.143649	-0.000173
N21	N	0.260531	0.189563	-0.076450
N22	N	0.329414	0.191168	-0.076436
C23	C	0.367419	0.146910	-0.000146
C24	C	0.131632	0.118097	-0.102686
C25	C	0.059119	0.116424	-0.102695
C26	C	0.021287	0.162182	0.102295
C27	C	0.093797	0.163866	0.102301
C28	C	0.148967	0.141817	-0.000192
C29	C	0.840101	-0.054297	-0.000163
C30	C	0.861492	-0.175463	-0.000168
C31	C	0.926773	0.136688	-0.000190
C32	C	1.003953	0.138455	-0.000212
C33	C	0.937654	-0.245710	-0.000180
C34	C	0.957756	-0.359554	-0.000194
C35	C	0.901697	-0.403161	-0.000187
C36	C	0.825532	-0.332912	-0.000166
C37	C	0.805429	-0.219059	-0.000161
C38	C	0.769472	-0.376510	-0.000168
C39	C	0.693307	-0.306262	-0.000148
C40	C	0.673208	-0.192419	-0.000142
C41	C	0.729268	-0.148812	-0.000149
C42	C	0.789574	-0.490364	-0.000173
C43	C	0.657350	-0.463713	-0.000155
C44	C	0.637248	-0.349869	-0.000141
C45	C	0.754901	0.344876	-0.000165
C46	C	0.733512	0.466040	-0.000167
N47	N	0.743482	0.210678	0.292760
N48	N	0.851528	0.079892	-0.293085
C49	C	0.923900	-0.007734	0.647721
C50	C	0.945716	-0.034148	0.529379
C51	C	0.895159	0.027056	0.470218
C52	C	0.822783	0.114679	0.529412
C53	C	0.800967	0.141101	0.647766
C54	C	0.772226	0.175892	0.470263
C55	C	0.699850	0.263515	0.529457
C56	C	0.678038	0.289932	0.647800
C57	C	0.728595	0.228728	0.706960
C58	C	0.794042	0.149469	0.351909
C59	C	0.671109	0.298305	0.351954
C60	C	0.649293	0.324719	0.470296
H61	H	-0.023634	0.180126	0.185738
Br62	Br	0.206507	0.088182	-0.241780
Br63	Br	0.602495	0.381380	0.271673
Br64	Br	1.013729	-0.186528	-0.000210
H65	H	0.045011	0.097105	-0.186159
H66	H	0.712904	-0.056111	-0.000134
H67	H	0.611702	-0.499217	-0.000152
H68	H	0.618637	0.110438	-0.186072
Br69	Br	0.569848	-0.097090	-0.000146
H70	H	0.619109	0.361288	0.695995
Br71	Br	0.117320	0.196070	0.241404
H72	H	0.851589	-0.547550	-0.000192
H73	H	0.575234	-0.292656	-0.000125
H74	H	0.852971	0.078127	0.303724
Br75	Br	0.928984	-0.557673	-0.000231
H76	H	1.019769	-0.416743	-0.000209
H77	H	0.487097	0.107388	-0.186091
H78	H	0.912925	0.005546	0.373858
Br79	Br	0.388500	0.202389	0.241444
Br80	Br	0.992512	-0.090776	0.728010
H81	H	0.549988	0.193497	0.185833
Br82	Br	0.698982	0.264571	0.867575
H83	H	0.590363	0.396064	0.518507
H84	H	1.004644	-0.105489	0.481187
