data_functionalizedCrystal
_audit_creation_method	'MofGen! by Chris Wilmer'
_symmetry_space_group_name_H-M	'P1'
_symmetry_Int_Tables_number	1
_symmetry_cell_setting	triclinic
loop_
_symmetry_equiv_pos_as_xyz
  x,y,z
_cell_length_a	21.295417
_cell_length_b	13.033286
_cell_length_c	13.032268
_cell_angle_alpha	74.836591
_cell_angle_beta	82.859352
_cell_angle_gamma	82.861304
loop_
_atom_site_label
_atom_site_type_symbol
_atom_site_fract_x
_atom_site_fract_y
_atom_site_fract_z
Zn1	Zn	-0.398973	1.547324	0.393846
Zn2	Zn	-0.492380	1.569745	0.216237
Zn3	Zn	-0.375296	1.392283	0.238859
Zn4	Zn	-0.492355	1.369660	0.416391
O5	O	-0.439751	1.469753	0.316333
O6	O	-0.421283	1.698920	0.351384
O7	O	-0.466949	1.565055	0.070610
O8	O	-0.290356	1.412935	0.259451
O9	O	-0.489909	1.715393	0.220895
O10	O	-0.307752	1.526843	0.373320
O11	O	-0.380929	1.434675	0.087231
O12	O	-0.380905	1.240660	0.281312
O13	O	-0.489866	1.374376	0.562028
O14	O	-0.466907	1.224039	0.411743
O15	O	-0.421259	1.504906	0.545465
O16	O	-0.580457	1.543118	0.242755
O17	O	-0.580439	1.396116	0.389807
C18	C	-0.421334	1.193813	0.351429
C19	C	-0.413473	1.075762	0.366469
C20	C	-0.443856	1.031294	0.308511
C21	C	-0.435731	0.909282	0.324053
C22	C	-0.603289	1.469621	0.316292
C23	C	-0.673261	1.469658	0.316298
C24	C	-0.706125	1.546253	0.239790
C25	C	-0.771872	1.546300	0.239807
C26	C	-0.804751	1.469733	0.316324
C27	C	-0.771880	1.393132	0.392846
C28	C	-0.706135	1.393094	0.392833
N29	N	-0.902360	1.375796	0.336238
N30	N	-0.964815	1.375836	0.336244
C31	C	-1.002838	1.469845	0.316370
N32	N	-0.976044	1.563816	0.296469
N33	N	-0.913583	1.563776	0.296457
C34	C	-0.876041	1.469767	0.316347
C35	C	-1.106993	1.546497	0.239876
C36	C	-1.172742	1.546545	0.239901
C37	C	-1.172747	1.393368	0.392936
C38	C	-1.107000	1.393329	0.392915
C39	C	-1.074126	1.469893	0.316380
C40	C	-0.275577	1.469911	0.316394
C41	C	-0.205616	1.469979	0.316420
C42	C	-0.458201	1.434616	0.593361
C43	C	-0.466064	1.419643	0.711414
C44	C	-0.458240	1.746770	0.281101
C45	C	-0.466119	1.864818	0.266087
C46	C	-0.421331	1.504814	0.040375
C47	C	-0.413305	1.519993	-0.077703
C48	C	-0.435624	1.477551	0.755851
C49	C	-0.443749	1.462077	0.877864
H50	H	-0.475886	1.083552	0.247387
Br51	Br	-0.359846	1.621742	0.835165
H52	H	-0.798654	1.330793	0.455149
H53	H	-0.403704	0.857027	0.385188
H54	H	-0.498154	0.917071	0.204964
Br55	Br	-0.360095	0.988671	0.468364
Br56	Br	-0.661531	1.289136	0.496675
H57	H	-1.199499	1.608924	0.177600
H58	H	-1.199517	1.331030	0.455242
Br59	Br	-0.519523	1.317904	0.798552
Br60	Br	-0.661515	1.650173	0.135934
H61	H	-0.798635	1.608677	0.177505
H62	H	-1.080226	1.608843	0.177560
Br63	Br	-0.497211	1.360334	0.964999
H64	H	-0.403545	1.538580	0.703565
Br65	Br	-1.062396	1.289370	0.496752
