data_functionalizedCrystal
_audit_creation_method	'MofGen! by Chris Wilmer'
_symmetry_space_group_name_H-M	'P1'
_symmetry_Int_Tables_number	1
_symmetry_cell_setting	triclinic
loop_
_symmetry_equiv_pos_as_xyz
  x,y,z
_cell_length_a	10.654550
_cell_length_b	19.188930
_cell_length_c	9.130313
_cell_angle_alpha	89.993647
_cell_angle_beta	89.996220
_cell_angle_gamma	83.814841
loop_
_atom_site_label
_atom_site_type_symbol
_atom_site_fract_x
_atom_site_fract_y
_atom_site_fract_z
O1	O	1.665759	0.098059	-0.121938
O2	O	1.300083	0.107401	-0.121916
O3	O	1.493474	0.001143	-0.121899
O4	O	1.472368	0.204317	-0.121955
O5	O	1.493471	0.001146	0.121700
O6	O	1.300081	0.107404	0.121682
O7	O	1.665757	0.098062	0.121661
Cu8	Cu	1.482918	0.102733	0.143914
Cu9	Cu	1.482921	0.102730	-0.144170
O10	O	1.472366	0.204320	0.121644
C11	C	1.253298	0.106717	-0.000114
C12	C	1.113898	0.104664	-0.000104
C13	C	1.033089	0.167227	-0.000143
C14	C	0.902109	0.165295	-0.000168
C15	C	0.932761	0.038231	-0.000121
C16	C	1.063738	0.040164	-0.000086
C17	C	1.083249	0.231728	-0.000161
C18	C	1.002438	0.294296	-0.000201
C19	C	0.871458	0.292363	-0.000226
C20	C	0.821289	0.227863	-0.000211
C21	C	1.492789	-0.024871	-0.000096
C22	C	1.490737	-0.102389	-0.000083
C23	C	1.604213	-0.146570	-0.000083
C24	C	1.602285	-0.219407	-0.000106
C25	C	1.486876	-0.248058	-0.000100
C26	C	1.373386	-0.203867	-0.000109
C27	C	1.375316	-0.131032	-0.000100
N28	N	1.398658	-0.356639	0.082806
N29	N	1.396832	-0.425830	0.082801
C30	C	1.481052	-0.467505	-0.000129
N31	N	1.567186	-0.437377	-0.083037
N32	N	1.569016	-0.368180	-0.083025
C33	C	1.484770	-0.327034	-0.000110
C34	C	1.592445	-0.590665	-0.000157
C35	C	1.590513	-0.663502	-0.000189
C36	C	1.361610	-0.647960	-0.000177
C37	C	1.363545	-0.575125	-0.000159
C38	C	1.478966	-0.546481	-0.000142
C39	C	1.712541	0.098746	-0.000145
C40	C	1.851941	0.100798	-0.000164
C41	C	1.473051	0.230334	-0.000163
C42	C	1.475102	0.307852	-0.000186
N43	N	1.482926	0.102735	0.346537
N44	N	1.482924	0.102722	-0.346792
C45	C	1.568581	0.055700	0.423196
C46	C	1.568577	0.055692	0.576533
C47	C	1.397260	0.149759	0.576537
C48	C	1.397258	0.149764	0.423203
C49	C	1.654248	0.008672	0.346530
C50	C	1.739911	-0.038367	0.423189
C51	C	1.739908	-0.038375	0.576526
C52	C	1.654241	0.008655	0.653203
H53	H	1.189898	0.233309	-0.000147
O54	O	1.304884	0.200495	0.659223
H55	H	1.244019	0.170796	0.729108
H56	H	1.271141	-0.539151	-0.000151
O57	O	1.712914	-0.711157	-0.000175
H58	H	1.768184	-0.700891	-0.099445
H59	H	1.686428	-0.567342	-0.000149
O60	O	0.784302	0.359846	-0.000261
H61	H	0.723883	0.362011	0.099021
O62	O	1.304883	0.200497	0.340503
H63	H	1.245328	0.233206	0.419572
H64	H	1.698197	-0.123254	-0.000074
O65	O	1.252917	-0.083375	-0.000073
H66	H	1.197657	-0.093620	-0.099351
O67	O	1.237132	-0.678857	-0.000169
H68	H	1.158547	-0.635893	-0.000169
H69	H	1.129536	-0.010780	-0.000058
H70	H	1.809651	-0.076661	0.360751
O71	O	1.056535	0.363864	-0.000203
H72	H	1.115487	0.367788	-0.099484
O73	O	0.680018	0.225771	-0.000223
H74	H	0.638883	0.252680	-0.099529
H75	H	1.694693	-0.255386	-0.000112
O76	O	1.654237	0.008676	0.181146
H77	H	1.728185	-0.031931	0.140710
O78	O	0.878659	-0.031335	-0.000117
H79	H	0.774006	-0.022169	-0.000161
H80	H	1.809649	-0.076680	0.638941
O81	O	1.248904	-0.234762	-0.000086
H82	H	1.266624	-0.292832	-0.000071
H83	H	1.654238	0.008639	0.778061
