data_functionalizedCrystal
_audit_creation_method	'MofGen! by Chris Wilmer'
_symmetry_space_group_name_H-M	'P1'
_symmetry_Int_Tables_number	1
_symmetry_cell_setting	triclinic
loop_
_symmetry_equiv_pos_as_xyz
  x,y,z
_cell_length_a	14.971486
_cell_length_b	10.868271
_cell_length_c	14.971486
_cell_angle_alpha	90.005345
_cell_angle_beta	83.614129
_cell_angle_gamma	89.999359
loop_
_atom_site_label
_atom_site_type_symbol
_atom_site_fract_x
_atom_site_fract_y
_atom_site_fract_z
O1	O	1.186944	0.102181	0.116563
O2	O	0.926544	0.102215	0.130522
O3	O	1.063724	0.102188	-0.006657
O4	O	1.049765	0.102208	0.253743
O5	O	1.063712	-0.102456	-0.006663
O6	O	0.926533	-0.102430	0.130517
O7	O	1.186933	-0.102463	0.116558
Zn8	Zn	1.056731	-0.134938	0.123536
Zn9	Zn	1.056746	0.134690	0.123543
O10	O	1.049754	-0.102437	0.253737
C11	C	0.893214	-0.000103	0.129895
C12	C	0.793917	-0.000091	0.128024
N13	N	1.056728	-0.318952	0.123531
C14	C	0.736692	-0.000086	0.208614
C15	C	0.643392	-0.000105	0.206850
C16	C	0.607320	-0.000119	0.124497
C17	C	0.664552	-0.000127	0.043902
C18	C	0.757850	-0.000117	0.045666
C19	C	0.470090	-0.000144	0.040231
C20	C	0.376786	-0.000151	0.038466
C21	C	0.355632	-0.000132	0.201415
C22	C	0.448930	-0.000122	0.203179
C23	C	0.506156	-0.000128	0.122584
C24	C	1.056741	-0.569958	0.123542
C25	C	1.056731	-0.430281	0.123538
C26	C	1.220263	-0.000142	0.117185
C27	C	1.319561	-0.000147	0.119056
C28	C	1.063094	-0.000133	-0.039985
C29	C	1.061223	-0.000132	-0.139282
N30	N	1.056757	0.318704	0.123542
C31	C	1.141812	-0.000143	-0.196507
C32	C	1.140049	-0.000131	-0.289807
C33	C	1.057696	-0.000116	-0.325879
C34	C	0.977101	-0.000101	-0.268646
C35	C	0.978865	-0.000104	-0.175349
C36	C	0.973430	-0.000096	-0.463109
C37	C	0.971665	-0.000094	-0.556413
C38	C	1.134614	-0.000122	-0.577567
C39	C	1.136378	-0.000126	-0.484269
C40	C	1.055782	-0.000113	-0.427043
C41	C	1.050384	-0.000112	0.287065
C42	C	1.052254	-0.000106	0.386362
H43	H	0.766054	-0.000074	0.275675
C44	C	0.581410	-0.000036	0.294446
C45	C	0.632970	0.000018	0.366944
C46	C	0.575904	0.000095	0.447654
H47	H	0.544562	-0.071386	0.297274
H48	H	0.544581	0.071351	0.297194
H49	H	0.669784	-0.071362	0.364197
H50	H	0.669816	0.071363	0.364145
H51	H	0.539074	0.071482	0.450402
H52	H	0.539058	-0.071257	0.450473
H53	H	0.610878	0.000143	0.496853
C54	C	0.819835	-0.000052	-0.041929
C55	C	0.768278	-0.000030	-0.114429
C56	C	0.825347	0.000042	-0.195137
H57	H	0.856695	-0.071393	-0.044758
H58	H	0.856653	0.071345	-0.044674
H59	H	0.731476	-0.071420	-0.111685
H60	H	0.731420	0.071305	-0.111630
H61	H	0.862165	0.071439	-0.197883
H62	H	0.862204	-0.071300	-0.197957
H63	H	0.790374	0.000068	-0.244338
H64	H	0.478296	-0.000099	0.270239
H65	H	0.913240	-0.000095	-0.128756
H66	H	1.200238	-0.000128	-0.624165
C67	C	1.231318	-0.000093	-0.157521
C68	C	1.301516	-0.000063	-0.227611
C69	C	1.383983	0.000006	-0.191734
H70	H	1.235522	-0.071438	-0.121584
H71	H	1.235443	0.071300	-0.121586
H72	H	1.297393	-0.071449	-0.263530
H73	H	1.297342	0.071276	-0.263554
H74	H	1.388108	0.071399	-0.155800
H75	H	1.388177	-0.071340	-0.155797
H76	H	1.431622	0.000038	-0.239284
H77	H	0.516682	-0.000150	-0.025399
H78	H	1.205673	-0.000143	-0.336396
H79	H	0.309033	-0.000133	0.267039
C80	C	0.625339	0.000112	-0.045485
C81	C	0.572410	0.105410	-0.051265
C82	C	0.536284	0.105684	-0.133601
H83	H	0.589324	-0.071171	-0.049650
H84	H	0.672760	0.000175	-0.093257
H85	H	0.524996	0.105335	-0.003507
H86	H	0.608405	0.176709	-0.047116
H87	H	0.583705	0.105747	-0.181373
H88	H	0.500274	0.034397	-0.137759
H89	H	0.500375	0.177132	-0.137537
H90	H	0.347419	-0.000164	-0.028593
C91	C	0.885829	-0.000142	-0.401124
C92	C	0.813329	-0.000163	-0.452681
C93	C	0.732621	-0.000227	-0.395613
H94	H	0.883006	0.071202	-0.364264
H95	H	0.883077	-0.071536	-0.364308
H96	H	0.816079	0.071223	-0.489482
H97	H	0.816122	-0.071502	-0.489540
H98	H	0.729869	-0.071621	-0.358796
H99	H	0.729807	0.071118	-0.358755
H100	H	0.683420	-0.000253	-0.430585
H101	H	0.910047	-0.000081	-0.298024
C102	C	1.225880	-0.000085	-0.445276
C103	C	1.296085	-0.000062	-0.515358
C104	C	1.378547	-0.000006	-0.479472
H105	H	1.230074	-0.071432	-0.409338
H106	H	1.230006	0.071306	-0.409339
H107	H	1.291961	-0.071445	-0.551280
H108	H	1.291921	0.071280	-0.551301
H109	H	1.382673	0.071385	-0.443535
H110	H	1.382732	-0.071354	-0.443535
H111	H	1.426191	0.000021	-0.527017
H112	H	0.904606	-0.000102	-0.585780
