data_functionalizedCrystal
_audit_creation_method	'MofGen! by Chris Wilmer'
_symmetry_space_group_name_H-M	'P1'
_symmetry_Int_Tables_number	1
_symmetry_cell_setting	triclinic
loop_
_symmetry_equiv_pos_as_xyz
  x,y,z
_cell_length_a	12.837943
_cell_length_b	18.266242
_cell_length_c	12.811415
_cell_angle_alpha	95.435962
_cell_angle_beta	89.411917
_cell_angle_gamma	90.007738
loop_
_atom_site_label
_atom_site_type_symbol
_atom_site_fract_x
_atom_site_fract_y
_atom_site_fract_z
O1	O	1.376641	0.078989	0.272978
O2	O	1.876641	0.578989	0.772978
O3	O	1.074777	0.078098	0.259494
O4	O	1.574777	0.578098	0.759494
O5	O	1.233302	0.068446	0.114203
O6	O	1.733302	0.568446	0.614203
O7	O	1.218116	0.088640	0.418269
O8	O	1.718116	0.588640	0.918269
O9	O	1.233274	-0.053316	0.114196
O10	O	1.733274	0.446684	0.614196
O11	O	1.074750	-0.043665	0.259486
O12	O	1.574750	0.456335	0.759486
O13	O	1.376614	-0.042774	0.272971
O14	O	1.876614	0.457226	0.772971
Zn15	Zn	1.225677	-0.062552	0.266228
Zn16	Zn	1.725677	0.437448	0.766228
Zn17	Zn	1.225713	0.097876	0.266237
Zn18	Zn	1.725713	0.597876	0.766237
O19	O	1.218089	-0.033122	0.418262
O20	O	1.718089	0.466878	0.918262
C21	C	1.036123	0.016915	0.254935
C22	C	1.536123	0.516915	0.754935
C23	C	0.920987	0.016014	0.241349
C24	C	1.420987	0.516014	0.741349
C25	C	0.680735	0.026851	0.404679
C26	C	1.180735	0.526851	0.904679
C27	C	0.572554	0.026005	0.391919
C28	C	1.072554	0.526005	0.891919
C29	C	0.596442	0.013471	0.203068
C30	C	1.096442	0.513471	0.703068
C31	C	0.704623	0.014317	0.215829
C32	C	1.204623	0.514317	0.715829
C33	C	0.746765	0.021009	0.316637
C34	C	1.246765	0.521009	0.816637
C35	C	0.854949	0.021860	0.329397
C36	C	1.354949	0.521860	0.829397
C37	C	0.878834	0.009320	0.140547
C38	C	1.378834	0.509320	0.640547
C39	C	0.770653	0.008474	0.127787
C40	C	1.270653	0.508474	0.627787
N41	N	1.225661	-0.172039	0.266221
N42	N	1.725661	0.327961	0.766221
C43	C	1.288823	-0.205692	0.336240
C44	C	1.788823	0.294308	0.836240
C45	C	1.288840	-0.282337	0.336239
C46	C	1.788840	0.217663	0.836239
C47	C	1.225676	-0.325325	0.266229
C48	C	1.725676	0.174675	0.766229
C49	C	1.162509	-0.291663	0.196197
C50	C	1.662509	0.208337	0.696197
C51	C	1.162501	-0.215020	0.196193
C52	C	1.662501	0.284980	0.696193
N53	N	1.134829	-0.446470	0.254276
N54	N	1.634829	0.053530	0.754276
N55	N	1.134839	-0.519278	0.254286
N56	N	1.634839	-0.019278	0.754286
C57	C	1.225696	-0.556247	0.266235
C58	C	1.725696	-0.056247	0.766235
N59	N	1.316544	-0.517658	0.278194
N60	N	1.816544	-0.017658	0.778194
N61	N	1.316533	-0.444843	0.278189
N62	N	1.816533	0.055157	0.778189
C63	C	1.225677	-0.408433	0.266225
C64	C	1.725677	0.091567	0.766225
C65	C	1.288883	-0.673008	0.336257
C66	C	1.788883	-0.173008	0.836257
C67	C	1.288902	-0.749655	0.336248
C68	C	1.788902	-0.249655	0.836248
C69	C	1.162561	-0.758979	0.196211
C70	C	1.662561	-0.258979	0.696211
C71	C	1.162552	-0.682334	0.196214
C72	C	1.662552	-0.182334	0.696214
C73	C	1.225711	-0.639352	0.266243
C74	C	1.725711	-0.139352	0.766243
C75	C	1.415268	0.018411	0.277530
C76	C	1.915268	0.518411	0.777530
C77	C	1.530403	0.019316	0.291116
C78	C	2.030403	0.519316	0.791116
C79	C	1.232436	0.004964	0.075010
C80	C	1.732436	0.504964	0.575010
C81	C	1.229887	-0.002787	-0.041764
C82	C	1.729887	0.497213	0.458236
N83	N	1.225738	0.207363	0.266236
N84	N	1.725738	0.707363	0.766236
C85	C	1.225106	0.115410	-0.261175
C86	C	1.725106	0.615410	0.238825
C87	C	1.222710	0.108131	-0.370894
C88	C	1.722710	0.608131	0.129106
C89	C	1.222691	-0.024622	-0.370922
C90	C	1.722691	0.475378	0.129078
C91	C	1.225087	-0.017344	-0.261203
C92	C	1.725087	0.482656	0.238797
C93	C	1.226296	0.052675	-0.206334
C94	C	1.726296	0.552675	0.293666
C95	C	1.228699	0.059953	-0.096613
C96	C	1.728699	0.559953	0.403387
C97	C	1.228673	-0.072800	-0.096643
C98	C	1.728673	0.427200	0.403357
C99	C	1.226277	-0.080079	-0.206361
C100	C	1.726277	0.419921	0.293639
C101	C	1.218954	0.030362	0.457455
C102	C	1.718954	0.530362	0.957455
C103	C	1.221504	0.038117	0.574228
C104	C	1.721504	0.538117	1.074228
H105	H	0.736326	0.003018	0.045711
H106	H	1.236326	0.503018	0.545711
H107	H	1.340344	-0.777054	0.393264
H108	H	1.840344	-0.277054	0.893264
C109	C	1.229985	-0.141813	-0.036308
C110	C	1.729985	0.358187	0.463692
N111	N	1.230976	-0.193792	0.009137
N112	N	1.730976	0.306208	0.509137
C113	C	0.499924	0.032432	0.488772
C114	C	0.999924	0.532432	0.988772
N115	N	0.445218	0.037273	0.561727
N116	N	0.945218	0.537273	1.061727
C117	C	0.951477	0.002895	0.043695
C118	C	1.451477	0.502895	0.543695
N119	N	1.006193	-0.001943	-0.029252
N120	N	1.506193	0.498057	0.470748
C121	C	1.093055	-0.645313	0.119197
C122	C	1.593055	-0.145313	0.619197
N123	N	1.040708	-0.617429	0.061183
N124	N	1.540708	-0.117429	0.561183
H125	H	1.225289	-0.137086	-0.251051
H126	H	1.725289	0.362914	0.248949
C127	C	0.550066	0.006103	0.092187
C128	C	1.050066	0.506103	0.592187
N129	N	0.515134	0.000552	0.008670
N130	N	1.015134	0.500552	0.508670
C131	C	1.358327	-0.319364	0.413269
C132	C	1.858327	0.180636	0.913269
N133	N	1.410664	-0.347251	0.471288
N134	N	1.910664	0.152749	0.971288
H135	H	1.340257	-0.170702	0.393259
H136	H	1.840257	0.329298	0.893259
H137	H	1.111081	-0.326669	0.139193
H138	H	1.611081	0.173331	0.639193
H139	H	1.111065	-0.187620	0.139173
H140	H	1.611065	0.312380	0.639173
H141	H	1.111132	-0.793979	0.139206
H142	H	1.611132	-0.293979	0.639206
H143	H	1.340312	-0.638011	0.393277
H144	H	1.840312	-0.138011	0.893277
H145	H	1.226099	0.172422	-0.216500
H146	H	1.726099	0.672422	0.283500
C147	C	1.230025	0.136974	-0.036258
C148	C	1.730025	0.636974	0.463742
N149	N	1.231020	0.194989	0.009198
N150	N	1.731020	0.694989	0.509198
C151	C	1.221426	0.177145	-0.431217
C152	C	1.721426	0.677145	0.068783
N153	N	1.220467	0.229129	-0.476652
N154	N	1.720467	0.729129	0.023348
C155	C	1.221339	-0.101636	-0.431297
C156	C	1.721339	0.398364	0.068703
N157	N	1.220315	-0.159644	-0.476772
N158	N	1.720315	0.340356	0.023228
C159	C	0.901303	0.029217	0.440288
C160	C	1.401303	0.529217	0.940288
N161	N	0.936214	0.034755	0.523814
N162	N	1.436214	0.534755	1.023814
C163	C	0.727094	0.034217	0.515568
C164	C	1.227094	0.534217	1.015568
N165	N	0.762010	0.039764	0.599092
N166	N	1.262010	0.539764	1.099092
