data_functionalizedCrystal
_audit_creation_method	'MofGen! by Chris Wilmer'
_symmetry_space_group_name_H-M	'P1'
_symmetry_Int_Tables_number	1
_symmetry_cell_setting	triclinic
loop_
_symmetry_equiv_pos_as_xyz
  x,y,z
_cell_length_a	23.532361
_cell_length_b	22.010155
_cell_length_c	17.699083
_cell_angle_alpha	90.003354
_cell_angle_beta	96.943659
_cell_angle_gamma	90.004127
loop_
_atom_site_label
_atom_site_type_symbol
_atom_site_fract_x
_atom_site_fract_y
_atom_site_fract_z
O1	O	0.755544	0.050465	-0.091699
O2	O	0.589716	0.050480	-0.105030
O3	O	0.677315	0.050467	0.011850
O4	O	0.667945	0.050479	-0.208578
O5	O	0.677299	-0.050583	0.011832
O6	O	0.589700	-0.050570	-0.105047
O7	O	0.755528	-0.050585	-0.091717
Cu8	Cu	0.672613	-0.059804	-0.098384
Cu9	Cu	0.672631	0.059700	-0.098363
O10	O	0.667929	-0.050572	-0.208596
C11	C	0.568490	-0.000043	-0.104705
C12	C	0.505269	-0.000038	-0.103701
C13	C	0.232021	0.055041	-0.099301
C14	C	0.291424	0.055043	-0.100251
O15	O	0.322158	0.101887	-0.100708
N16	N	0.321122	-0.000040	-0.100741
C17	C	0.291415	-0.055128	-0.100273
O18	O	0.322131	-0.101980	-0.100775
C19	C	0.232015	-0.055129	-0.099317
C20	C	0.202319	-0.000043	-0.098835
C21	C	0.202325	0.110123	-0.098819
C22	C	0.142926	0.110121	-0.097870
C23	C	0.113224	0.055037	-0.097404
C24	C	0.142920	-0.000044	-0.097887
C25	C	0.202310	-0.110216	-0.098843
C26	C	0.142905	-0.110212	-0.097887
C27	C	0.113209	-0.055126	-0.097405
C28	C	0.053819	-0.055130	-0.096472
N29	N	0.024121	-0.000047	-0.095982
C30	C	0.053823	0.055037	-0.096448
C31	C	0.416161	-0.055122	-0.102278
C32	C	0.475561	-0.055122	-0.103239
C33	C	0.475565	0.055049	-0.103216
C34	C	0.416164	0.055048	-0.102261
C35	C	0.386463	-0.000039	-0.101788
C36	C	-0.070918	0.055029	-0.094457
C37	C	-0.130322	0.055022	-0.093511
C38	C	-0.130321	-0.055148	-0.093530
C39	C	-0.070922	-0.055142	-0.094480
C40	C	-0.041222	-0.000049	-0.094940
O41	O	0.023047	-0.101950	-0.096011
O42	O	0.023101	0.101881	-0.095935
N43	N	0.672604	-0.143857	-0.098398
C44	C	0.711423	-0.563642	-0.046616
C45	C	0.711425	-0.627249	-0.046611
O46	O	0.744408	-0.660146	-0.002594
N47	N	0.672631	-0.659064	-0.098347
C48	C	0.633828	-0.627267	-0.150087
O49	O	0.600830	-0.660168	-0.194091
C50	C	0.633823	-0.563661	-0.150088
C51	C	0.672624	-0.531850	-0.098353
C52	C	0.750220	-0.531831	0.005115
C53	C	0.750218	-0.468228	0.005109
C54	C	0.711419	-0.436435	-0.046629
C55	C	0.672621	-0.468247	-0.098360
C56	C	0.595017	-0.531865	-0.201823
C57	C	0.595015	-0.468255	-0.201819
C58	C	0.633816	-0.436444	-0.150085
C59	C	0.633820	-0.372851	-0.150103
N60	N	0.672614	-0.341037	-0.098367
C61	C	0.711414	-0.372829	-0.046630
C62	C	0.633840	-0.760845	-0.150080
C63	C	0.633848	-0.824450	-0.150083
C64	C	0.711445	-0.824428	-0.046606
C65	C	0.711440	-0.760822	-0.046607
C66	C	0.672635	-0.729031	-0.098343
C67	C	0.711407	-0.239258	-0.046647
C68	C	0.711403	-0.175649	-0.046660
C69	C	0.633804	-0.175676	-0.150134
C70	C	0.633810	-0.239280	-0.150124
C71	C	0.672613	-0.271069	-0.098375
O72	O	0.600853	-0.339914	-0.194095
O73	O	0.744401	-0.339920	-0.002626
C74	C	0.776754	-0.000060	-0.092042
C75	C	0.839975	-0.000062	-0.093045
C76	C	0.676971	-0.000058	0.040036
C77	C	0.675964	-0.000058	0.124049
N78	N	0.672645	0.143752	-0.098343
C79	C	0.668273	-0.000045	-0.236782
C80	C	0.669280	-0.000041	-0.320795
C81	C	0.727383	-0.000064	0.172942
C82	C	0.726433	-0.000058	0.251880
C83	C	0.674064	-0.000052	0.281924
C84	C	0.622641	-0.000044	0.233024
C85	C	0.623591	-0.000046	0.154088
C86	C	0.618807	-0.000039	0.551367
C87	C	0.617860	-0.000040	0.630310
C88	C	0.721649	-0.000052	0.649160
C89	C	0.722599	-0.000053	0.570223
C90	C	0.671177	-0.000043	0.521331
C91	C	0.672207	-0.000047	0.435737
C92	C	0.673033	-0.000051	0.367516
H93	H	0.391982	-0.099984	-0.101903
C94	C	0.556563	-0.051974	0.708137
C95	C	0.560291	-0.000028	0.663334
H96	H	0.521022	-0.051967	0.728520
H97	H	0.587048	-0.051977	0.748548
H98	H	0.559080	-0.087209	0.677721
H99	H	0.557778	0.035207	0.693751
H100	H	0.529797	-0.000019	0.622917
H101	H	0.602258	-0.850346	-0.192218
C102	C	0.814622	0.051870	0.292244
C103	C	0.782957	-0.000068	0.305619
H104	H	0.849521	0.051861	0.325417
H105	H	0.793153	0.087107	0.301317
H106	H	0.822674	0.051860	0.240929
H107	H	0.774902	-0.000055	0.356933
H108	H	0.804430	-0.035313	0.296553
C109	C	0.516119	-0.000041	0.540675
C110	C	0.562284	-0.000039	0.497631
H111	H	0.481223	-0.000046	0.507496
H112	H	0.517911	0.035197	0.571854
H113	H	0.517911	-0.035281	0.571856
H114	H	0.560494	0.035203	0.466453
H115	H	0.560491	-0.035280	0.466439
C116	C	0.825098	-0.000057	0.596787
C117	C	0.780165	-0.000057	0.537201
H118	H	0.860637	-0.000054	0.576399
H119	H	0.822566	-0.035294	0.627177
H120	H	0.822569	0.035184	0.627188
H121	H	0.782692	-0.035300	0.506803
H122	H	0.782699	0.035183	0.506797
H123	H	0.602242	-0.734964	-0.192216
C124	C	0.518308	-0.525471	-0.304088
C125	C	0.552363	-0.566821	-0.258689
H126	H	0.491972	-0.547051	-0.339193
H127	H	0.541975	-0.500664	-0.331149
H128	H	0.497876	-0.500660	-0.272710
H129	H	0.572798	-0.591628	-0.290067
H130	H	0.528693	-0.591638	-0.231626
C131	C	0.575097	-0.000044	0.345657
C132	C	0.565075	-0.000040	0.266046
H133	H	0.539557	-0.000047	0.366040
H134	H	0.596265	0.035190	0.362467
H135	H	0.596260	-0.035287	0.362454
H136	H	0.543915	0.035206	0.249248
H137	H	0.543898	-0.035278	0.249229
C138	C	0.535427	0.051909	0.113721
C139	C	0.567069	-0.000040	0.100341
H140	H	0.500530	0.051911	0.080543
H141	H	0.556912	0.087138	0.104659
H142	H	0.527370	0.051902	0.165034
H143	H	0.575130	-0.000032	0.049029
H144	H	0.545580	-0.035278	0.109397
C145	C	-0.124342	0.163924	-0.093581
C146	C	-0.162963	0.115577	-0.092977
H147	H	-0.144492	0.201306	-0.093246
H148	H	-0.105581	0.161636	-0.138092
H149	H	-0.096766	0.161623	-0.049807
H150	H	-0.190537	0.117876	-0.136755
H151	H	-0.181733	0.117867	-0.048462
C152	C	0.227070	-0.204115	-0.034061
C153	C	0.234942	-0.170771	-0.099364
H154	H	0.247218	-0.241500	-0.034381
H155	H	0.187445	-0.211988	-0.033435
H156	H	0.241220	-0.181475	0.009919
H157	H	0.220788	-0.193409	-0.143345
H158	H	0.274576	-0.162900	-0.099998
H159	H	-0.046743	0.099891	-0.094833
H160	H	0.499733	-0.099979	-0.103643
H161	H	0.226503	0.154981	-0.099196
C162	C	0.148917	0.219017	-0.097926
C163	C	0.110291	0.170674	-0.097324
H164	H	0.128772	0.256401	-0.097581
H165	H	0.167673	0.216730	-0.142441
H166	H	0.176497	0.216708	-0.054156
H167	H	0.082714	0.172981	-0.141097
H168	H	0.091526	0.172962	-0.052804
H169	H	0.499759	0.099901	-0.103595
H170	H	0.118725	-0.155072	-0.097509
H171	H	-0.046744	-0.099998	-0.094887
C172	C	0.422148	0.163945	-0.102337
C173	C	0.383526	0.115600	-0.101725
H174	H	0.402000	0.201328	-0.102001
H175	H	0.440905	0.161653	-0.146851
H176	H	0.449727	0.161644	-0.058566
H177	H	0.355948	0.117898	-0.145499
H178	H	0.364760	0.117893	-0.057207
C179	C	-0.221385	-0.104056	-0.092074
C180	C	-0.162977	-0.115695	-0.093015
H181	H	-0.241545	-0.141436	-0.091747
H182	H	-0.235520	-0.081427	-0.136056
H183	H	-0.226701	-0.081420	-0.047771
H184	H	-0.157661	-0.138327	-0.137321
H185	H	-0.148838	-0.138333	-0.049028
H186	H	0.770028	-0.000073	0.148487
H187	H	0.743003	-0.265133	-0.004507
C188	C	0.744989	-0.156151	0.084622
C189	C	0.754052	-0.140728	0.010263
H190	H	0.771316	-0.134604	0.119777
H191	H	0.750516	-0.198586	0.091970
H192	H	0.706992	-0.145711	0.092550
H193	H	0.792048	-0.151172	0.002333
H194	H	0.748530	-0.098283	0.002912
C195	C	0.826911	-0.474615	0.107396
C196	C	0.792863	-0.433266	0.061986
H197	H	0.853235	-0.453033	0.142516
H198	H	0.847352	-0.499419	0.076033
H199	H	0.803234	-0.499428	0.134447
H200	H	0.816539	-0.408456	0.034932
H201	H	0.772420	-0.408452	0.093354
H202	H	0.781815	-0.557710	0.047249
H203	H	0.743034	-0.734925	-0.004480
H204	H	0.763520	-0.000057	0.688978
C205	C	0.745073	-0.844003	0.084662
C206	C	0.754092	-0.859380	0.010272
H207	H	0.771403	-0.865579	0.119772
H208	H	0.707081	-0.854431	0.092609
H209	H	0.750628	-0.801568	0.092058
H210	H	0.748533	-0.901815	0.002874
H211	H	0.792093	-0.848956	0.002322
H212	H	0.563414	-0.442373	-0.243949
C213	C	0.557102	-0.232909	-0.252399
C214	C	0.591158	-0.274250	-0.206988
H215	H	0.530764	-0.254497	-0.287495
H216	H	0.580767	-0.208109	-0.279469
H217	H	0.536670	-0.208092	-0.221027
H218	H	0.611593	-0.299065	-0.238359
H219	H	0.567490	-0.299061	-0.179915
H220	H	0.602216	-0.149781	-0.192261
