data_functionalizedCrystal
_audit_creation_method	'MofGen! by Chris Wilmer'
_symmetry_space_group_name_H-M	'P1'
_symmetry_Int_Tables_number	1
_symmetry_cell_setting	triclinic
loop_
_symmetry_equiv_pos_as_xyz
  x,y,z
_cell_length_a	13.897448
_cell_length_b	16.959455
_cell_length_c	16.959447
_cell_angle_alpha	89.985678
_cell_angle_beta	90.029368
_cell_angle_gamma	89.985361
loop_
_atom_site_label
_atom_site_type_symbol
_atom_site_fract_x
_atom_site_fract_y
_atom_site_fract_z
Zn1	Zn	-0.384074	-1.208397	0.446914
Zn2	Zn	-0.545393	-1.208325	0.314738
Zn3	Zn	-0.384105	-1.076225	0.314751
Zn4	Zn	-0.545321	-1.076195	0.446876
O5	O	-0.464723	-1.142286	0.380820
O6	O	-0.405491	-1.318998	0.429390
O7	O	-0.524040	-1.190784	0.204128
O8	O	-0.249119	-1.093801	0.332305
O9	O	-0.524011	-1.318945	0.332281
O10	O	-0.249097	-1.190907	0.429404
O11	O	-0.405543	-1.093731	0.204139
O12	O	-0.405473	-0.965610	0.332268
O13	O	-0.523888	-1.093750	0.557492
O14	O	-0.523917	-0.965589	0.429340
O15	O	-0.405421	-1.190878	0.557520
O16	O	-0.680365	-1.190755	0.332244
O17	O	-0.680312	-1.093680	0.429326
C18	C	-0.464691	-0.936919	0.380802
C19	C	-0.464701	-0.849063	0.380813
C20	C	-0.715337	-1.142228	0.380797
C21	C	-0.822551	-1.142276	0.380814
C22	C	-0.464643	-1.142319	0.586988
C23	C	-0.464609	-1.142333	0.674845
C24	C	-1.018846	-1.142359	0.380863
C25	C	-0.909614	-1.142310	0.380838
C26	C	-0.213130	-1.142365	0.380860
C27	C	-0.105916	-1.142399	0.380877
C28	C	-0.464756	-1.348454	0.380838
C29	C	-0.464770	-1.436310	0.380846
C30	C	-0.402998	-0.477574	0.330380
C31	C	-0.526527	-0.477600	0.431305
C32	C	-0.526513	-0.560146	0.431300
C33	C	-0.464742	-0.601410	0.380834
C34	C	-0.402985	-0.560128	0.330372
C35	C	-0.588276	-0.601434	0.481754
C36	C	-0.588266	-0.683985	0.481751
C37	C	-0.526489	-0.725251	0.431288
C38	C	-0.464728	-0.683963	0.380825
C39	C	-0.402957	-0.725227	0.330359
C40	C	-0.341191	-0.683941	0.279900
C41	C	-0.341208	-0.601393	0.279909
C42	C	-0.526472	-0.807799	0.431279
C43	C	-0.402944	-0.807781	0.330351
C44	C	-0.464733	-1.142298	0.175454
C45	C	-0.464495	-1.142437	0.087597
C46	C	-0.526188	-1.091857	1.046309
C47	C	-0.402827	-1.192997	1.046333
C48	C	-0.402848	-1.192976	0.963787
C49	C	-0.464540	-1.142395	0.922498
C50	C	-0.526212	-1.091836	0.963755
C51	C	-0.341184	-1.243540	0.922523
C52	C	-0.341203	-1.243522	0.839972
C53	C	-0.402891	-1.192937	0.798682
C54	C	-0.464564	-1.142375	0.839944
C55	C	-0.526257	-1.091794	0.798655
C56	C	-0.587926	-1.041227	0.839916
C57	C	-0.587900	-1.041251	0.922465
C58	C	-0.402917	-1.192913	0.716134
C59	C	-0.526281	-1.091773	0.716102
H60	H	-0.352635	-0.841372	0.289260
H61	H	-0.290922	-0.567771	0.238827
C62	C	-0.273243	-0.729333	0.224391
H63	H	-0.236461	-0.692927	0.194337
H64	H	-0.231264	-0.761554	0.254688
H65	H	-0.310092	-0.761516	0.189891
C66	C	-0.594022	-1.036240	1.091690
H67	H	-0.585179	-1.043497	1.146767
H68	H	-0.579904	-0.983133	1.078162
H69	H	-0.658841	-1.047792	1.078147
C70	C	-0.334974	-1.248635	1.091744
H71	H	-0.298253	-1.278747	1.055348
H72	H	-0.292934	-1.218423	1.123960
H73	H	-0.371878	-1.283076	1.123933
H74	H	-0.352707	-0.443956	0.289300
C75	C	-0.273332	-1.299178	0.967937
H76	H	-0.236616	-1.329295	0.931542
H77	H	-0.231288	-1.268965	1.000148
H78	H	-0.310237	-1.333613	1.000131
C79	C	-0.655808	-0.985609	0.794497
H80	H	-0.692544	-0.955505	0.830888
H81	H	-0.618933	-0.951173	0.762288
H82	H	-0.697847	-1.015850	0.762300
C83	C	-0.273362	-1.299135	0.794593
H84	H	-0.236614	-1.329257	0.831007
H85	H	-0.310269	-1.333555	0.762377
H86	H	-0.231334	-1.268895	0.762405
C87	C	-0.594141	-1.036134	0.670687
H88	H	-0.585322	-1.043359	0.615614
H89	H	-0.658949	-1.047680	0.684203
H90	H	-0.580000	-0.983031	0.684217
H91	H	-0.576824	-0.443998	0.472387
H92	H	-0.638559	-0.717593	0.522839
H93	H	-0.352709	-1.234086	0.682543
C94	C	-0.656112	-0.556049	0.537351
H95	H	-0.692868	-0.592458	0.567423
H96	H	-0.619167	-0.523910	0.571817
H97	H	-0.698137	-0.523783	0.507136
C98	C	-0.594405	-0.853210	0.486777
H99	H	-0.631194	-0.816812	0.516835
H100	H	-0.636378	-0.885401	0.456477
H101	H	-0.557548	-0.885424	0.521273
H102	H	-0.638111	-1.000085	0.956067
