data_functionalizedCrystal
_audit_creation_method	'MofGen! by Chris Wilmer'
_symmetry_space_group_name_H-M	'P1'
_symmetry_Int_Tables_number	1
_symmetry_cell_setting	triclinic
loop_
_symmetry_equiv_pos_as_xyz
  x,y,z
_cell_length_a	10.654554
_cell_length_b	11.792254
_cell_length_c	9.730223
_cell_angle_alpha	89.998472
_cell_angle_beta	90.001137
_cell_angle_gamma	84.342671
loop_
_atom_site_label
_atom_site_type_symbol
_atom_site_fract_x
_atom_site_fract_y
_atom_site_fract_z
O1	O	1.667388	0.159438	-0.114248
O2	O	1.301868	0.174621	-0.114260
O3	O	1.493490	0.001881	-0.114244
O4	O	1.475766	0.332179	-0.114264
O5	O	1.493487	0.001885	0.114336
O6	O	1.301866	0.174626	0.114320
O7	O	1.667386	0.159443	0.114332
Zn8	Zn	1.484625	0.167035	0.150618
Zn9	Zn	1.484628	0.167029	-0.150546
O10	O	1.475764	0.332183	0.114316
C11	C	1.255072	0.173508	0.000028
C12	C	1.115638	0.170169	0.000024
C13	C	0.904856	0.268743	0.000030
C14	C	1.035869	0.271881	0.000020
C15	C	1.064389	0.065313	0.000025
C16	C	0.933379	0.062176	0.000026
C17	C	0.825092	0.370461	0.000040
C18	C	0.876332	0.475318	0.000036
C19	C	1.007344	0.478456	0.000025
C20	C	1.087117	0.376737	0.000018
C21	C	1.492372	-0.040410	0.000045
C22	C	1.489030	-0.166431	0.000044
C23	C	1.486315	-0.268774	0.000039
C24	C	1.482920	-0.397168	0.000026
C25	C	1.714181	0.160556	0.000040
C26	C	1.853615	0.163895	0.000036
C27	C	1.476881	0.374474	0.000023
C28	C	1.480223	0.500495	0.000016
N29	N	1.484632	0.167038	0.356154
N30	N	1.484631	0.167017	-0.356082
C31	C	1.569504	0.090575	0.428087
C32	C	1.569501	0.090561	0.571970
C33	C	1.399750	0.243484	0.571974
C34	C	1.399748	0.243491	0.428094
C35	C	1.654389	0.014122	0.356148
C36	C	1.739269	-0.062347	0.428081
C37	C	1.739265	-0.062361	0.571964
C38	C	1.654382	0.014094	0.643914
H39	H	0.891659	-0.023200	0.000029
H40	H	1.654402	0.014128	0.238991
N41	N	1.830790	-0.144830	0.350489
H42	H	1.817912	-0.133225	0.248425
H43	H	1.919975	-0.130986	0.375635
H44	H	1.808369	-0.124632	0.630531
N45	N	1.308217	0.325950	0.649575
H46	H	1.254447	0.374392	0.582171
H47	H	1.252407	0.282024	0.709271
N48	N	0.790297	0.585021	0.000080
H49	H	0.842642	0.651919	0.000080
H50	H	0.735297	0.588237	-0.084643
N51	N	0.683786	0.367093	0.000048
H52	H	0.657815	0.325792	-0.084685
H53	H	0.657930	0.325810	0.084841
H54	H	1.193796	0.379300	-0.000019
H55	H	1.330636	0.305754	0.369525
N56	N	1.150418	-0.044394	0.000043
H57	H	1.133858	-0.090099	-0.084687
H58	H	1.241154	-0.026406	0.000100
H59	H	1.654378	0.014069	0.761073
H60	H	1.049060	0.563834	0.000010
