data_functionalizedCrystal
_audit_creation_method	'MofGen! by Chris Wilmer'
_symmetry_space_group_name_H-M	'P1'
_symmetry_Int_Tables_number	1
_symmetry_cell_setting	triclinic
loop_
_symmetry_equiv_pos_as_xyz
  x,y,z
_cell_length_a	16.625547
_cell_length_b	21.295417
_cell_length_c	16.625539
_cell_angle_alpha	90.033373
_cell_angle_beta	90.024822
_cell_angle_gamma	90.030443
loop_
_atom_site_label
_atom_site_type_symbol
_atom_site_fract_x
_atom_site_fract_y
_atom_site_fract_z
Zn1	Zn	1.232635	-0.250609	0.455972
Zn2	Zn	1.482635	-0.000609	0.705972
Zn3	Zn	1.732635	0.249391	0.955972
Zn4	Zn	1.982635	0.499391	1.205972
Zn5	Zn	1.232520	-0.355882	0.321128
Zn6	Zn	1.482520	-0.105882	0.571128
Zn7	Zn	1.732520	0.144118	0.821128
Zn8	Zn	1.982520	0.394118	1.071128
Zn9	Zn	1.097797	-0.250631	0.321143
Zn10	Zn	1.347797	-0.000631	0.571143
Zn11	Zn	1.597797	0.249369	0.821143
Zn12	Zn	1.847797	0.499369	1.071143
Zn13	Zn	1.097749	-0.355844	0.455908
Zn14	Zn	1.347749	-0.105844	0.705908
Zn15	Zn	1.597749	0.144156	0.955908
Zn16	Zn	1.847749	0.394156	1.205908
O17	O	1.165175	-0.303242	0.388538
O18	O	1.415175	-0.053242	0.638538
O19	O	1.665175	0.196758	0.888538
O20	O	1.915175	0.446758	1.138538
O21	O	1.345452	-0.264581	0.438106
O22	O	1.595452	-0.014581	0.688106
O23	O	1.845452	0.235419	0.938106
O24	O	2.095452	0.485419	1.188106
O25	O	1.214620	-0.341946	0.208297
O26	O	1.464620	-0.091946	0.458297
O27	O	1.714620	0.158054	0.708297
O28	O	1.964620	0.408054	0.958297
O29	O	1.115753	-0.162539	0.339062
O30	O	1.365753	0.087461	0.589062
O31	O	1.615753	0.337461	0.839062
O32	O	1.865753	0.587461	1.089062
O33	O	1.345367	-0.341925	0.339036
O34	O	1.595367	-0.091925	0.589036
O35	O	1.845367	0.158075	0.839036
O36	O	2.095367	0.408075	1.089036
O37	O	1.214818	-0.162523	0.438121
O38	O	1.464818	0.087477	0.688121
O39	O	1.714818	0.337477	0.938121
O40	O	1.964818	0.587477	1.188121
O41	O	1.115640	-0.264618	0.208308
O42	O	1.365640	-0.014618	0.458308
O43	O	1.615640	0.235382	0.708308
O44	O	1.865640	0.485382	0.958308
O45	O	0.984958	-0.264581	0.338999
O46	O	1.234958	-0.014581	0.588999
O47	O	1.484958	0.235419	0.838999
O48	O	1.734958	0.485419	1.088999
O49	O	1.115670	-0.341859	0.568749
O50	O	1.365670	-0.091859	0.818749
O51	O	1.615670	0.158141	1.068749
O52	O	1.865670	0.408141	1.318749
O53	O	0.984923	-0.341881	0.438010
O54	O	1.234923	-0.091881	0.688010
O55	O	1.484923	0.158119	0.938010
O56	O	1.734923	0.408119	1.188010
O57	O	1.214771	-0.264544	0.568796
O58	O	1.464771	-0.014544	0.818796
O59	O	1.714771	0.235456	1.068796
O60	O	1.964771	0.485456	1.318796
O61	O	1.214573	-0.443967	0.338973
O62	O	1.464573	-0.193967	0.588973
O63	O	1.714573	0.056033	0.838973
O64	O	1.964573	0.306033	1.088973
O65	O	1.115558	-0.443939	0.437995
O66	O	1.365558	-0.193939	0.687995
O67	O	1.615558	0.056061	0.937995
O68	O	1.865558	0.306061	1.187995
C69	C	0.955684	-0.303229	0.388500
C70	C	1.205684	-0.053229	0.638500
C71	C	1.455684	0.196771	0.888500
C72	C	1.705684	0.446771	1.138500
C73	C	0.866063	-0.303239	0.388502
C74	C	1.116063	-0.053239	0.638502
C75	C	1.366063	0.196761	0.888502
C76	C	1.616063	0.446761	1.138502
C77	C	0.793281	-0.303241	0.388512
C78	C	1.043281	-0.053241	0.638512
C79	C	1.293281	0.196759	0.888512
C80	C	1.543281	0.446759	1.138512
C81	C	0.701972	-0.303244	0.388533
C82	C	0.951972	-0.053244	0.638533
C83	C	1.201972	0.196756	0.888533
C84	C	1.451972	0.446756	1.138533
C85	C	0.629196	-0.303250	0.388553
C86	C	0.879196	-0.053250	0.638553
C87	C	1.129196	0.196750	0.888553
C88	C	1.379196	0.446750	1.138553
C89	C	0.537882	-0.303254	0.388572
C90	C	0.787882	-0.053254	0.638572
C91	C	1.037882	0.196746	0.888572
C92	C	1.287882	0.446746	1.138572
C93	C	1.165070	-0.466793	0.388493
C94	C	1.415070	-0.216793	0.638493
C95	C	1.665070	0.033207	0.888493
C96	C	1.915070	0.283207	1.138493
C97	C	1.165098	-0.536761	0.388501
C98	C	1.415098	-0.286761	0.638501
C99	C	1.665098	-0.036761	0.888501
C100	C	1.915098	0.213239	1.138501
C101	C	1.216701	-0.569622	0.336993
C102	C	1.466701	-0.319622	0.586993
C103	C	1.716701	-0.069622	0.836993
C104	C	1.966701	0.180378	1.086993
C105	C	1.216739	-0.635364	0.337011
C106	C	1.466739	-0.385364	0.587011
C107	C	1.716739	-0.135364	0.837011
C108	C	1.966739	0.114636	1.087011
C109	C	1.165159	-0.668244	0.388529
C110	C	1.415159	-0.418244	0.638529
C111	C	1.665159	-0.168244	0.888529
C112	C	1.915159	0.081756	1.138529
C113	C	1.113552	-0.635376	0.440047
C114	C	1.363552	-0.385376	0.690047
C115	C	1.613552	-0.135376	0.940047
C116	C	1.863552	0.114624	1.190047
C117	C	1.113522	-0.569634	0.440033
C118	C	1.363522	-0.319634	0.690033
C119	C	1.613522	-0.069634	0.940033
C120	C	1.863522	0.180366	1.190033
N121	N	1.094624	-0.771510	0.394663
N122	N	1.344624	-0.521510	0.644663
N123	N	1.594624	-0.271510	0.894663
N124	N	1.844624	-0.021510	1.144663
N125	N	1.094656	-0.833961	0.394671
N126	N	1.344656	-0.583961	0.644671
N127	N	1.594656	-0.333961	0.894671
N128	N	1.844656	-0.083961	1.144671
C129	C	1.165250	-0.866319	0.388575
C130	C	1.415250	-0.616319	0.638575
C131	C	1.665250	-0.366319	0.888575
C132	C	1.915250	-0.116319	1.138575
N133	N	1.235813	-0.833866	0.382454
N134	N	1.485813	-0.583866	0.632454
N135	N	1.735813	-0.333866	0.882454
N136	N	1.985813	-0.083866	1.132454
N137	N	1.235780	-0.771408	0.382441
N138	N	1.485780	-0.521408	0.632441
N139	N	1.735780	-0.271408	0.882441
N140	N	1.985780	-0.021408	1.132441
C141	C	1.165187	-0.739529	0.388550
C142	C	1.415187	-0.489529	0.638550
C143	C	1.665187	-0.239529	0.888550
C144	C	1.915187	0.010471	1.138550
C145	C	1.216898	-0.970465	0.337084
C146	C	1.466898	-0.720465	0.587084
C147	C	1.716898	-0.470465	0.837084
C148	C	1.966898	-0.220465	1.087084
C149	C	1.216937	-1.036208	0.337108
C150	C	1.466937	-0.786208	0.587108
C151	C	1.716937	-0.536208	0.837108
C152	C	1.966937	-0.286208	1.087108
C153	C	1.113743	-1.036218	0.440139
C154	C	1.363743	-0.786218	0.690139
C155	C	1.613743	-0.536218	0.940139
C156	C	1.863743	-0.286218	1.190139
C157	C	1.113712	-0.970476	0.440120
C158	C	1.363712	-0.720476	0.690120
C159	C	1.613712	-0.470476	0.940120
C160	C	1.863712	-0.220476	1.190120
C161	C	1.165288	-0.937603	0.388588
C162	C	1.415288	-0.687603	0.638588
C163	C	1.665288	-0.437603	0.888588
C164	C	1.915288	-0.187603	1.138588
C165	C	1.375484	-0.303254	0.388576
C166	C	1.625484	-0.053254	0.638576
C167	C	1.875484	0.196746	0.888576
C168	C	2.125484	0.446746	1.138576
C169	C	1.465105	-0.303260	0.388593
C170	C	1.715105	-0.053260	0.638593
C171	C	1.965105	0.196740	0.888593
C172	C	2.215105	0.446740	1.138593
C173	C	1.165228	-0.303195	0.598847
C174	C	1.415228	-0.053195	0.848847
C175	C	1.665228	0.196805	1.098847
C176	C	1.915228	0.446805	1.348847
C177	C	1.165250	-0.303175	0.688468
C178	C	1.415250	-0.053175	0.938468
C179	C	1.665250	0.196825	1.188468
C180	C	1.915250	0.446825	1.438468
C181	C	1.165303	-0.139051	0.388600
C182	C	1.415303	0.110949	0.638600
C183	C	1.665303	0.360949	0.888600
C184	C	1.915303	0.610949	1.138600
C185	C	1.165358	-0.069083	0.388627
C186	C	1.415358	0.180917	0.638627
C187	C	1.665358	0.430917	0.888627
C188	C	1.915358	0.680917	1.138627
C189	C	1.165169	-0.303243	0.179047
C190	C	1.415169	-0.053243	0.429047
C191	C	1.665169	0.196757	0.679047
C192	C	1.915169	0.446757	0.929047
C193	C	1.165303	-0.303086	0.089426
C194	C	1.415303	-0.053086	0.339426
C195	C	1.665303	0.196914	0.589426
C196	C	1.915303	0.446914	0.839426
C197	C	1.165287	-0.303104	1.016644
C198	C	1.415287	-0.053104	1.266644
C199	C	1.665287	0.196896	1.516644
C200	C	1.915287	0.446896	1.766644
C201	C	1.165275	-0.303126	0.925335
C202	C	1.415275	-0.053126	1.175335
C203	C	1.665275	0.196874	1.425335
C204	C	1.915275	0.446874	1.675335
C205	C	1.165269	-0.303140	0.852559
C206	C	1.415269	-0.053140	1.102559
C207	C	1.665269	0.196860	1.352559
C208	C	1.915269	0.446860	1.602559
C209	C	1.165256	-0.303161	0.761244
C210	C	1.415256	-0.053161	1.011244
C211	C	1.665256	0.196839	1.261244
C212	C	1.915256	0.446839	1.511244
H213	H	1.258700	-0.542859	0.295035
H214	H	1.508700	-0.292859	0.545035
H215	H	1.758700	-0.042859	0.795035
H216	H	2.008700	0.207141	1.045035
F217	F	1.058852	-1.071207	0.494973
F218	F	1.308852	-0.821207	0.744973
F219	F	1.558852	-0.571207	0.994973
F220	F	1.808852	-0.321207	1.244973
F221	F	1.058661	-0.670369	0.494878
F222	F	1.308661	-0.420369	0.744878
F223	F	1.558661	-0.170369	0.994878
F224	F	1.808661	0.079631	1.244878
F225	F	1.058784	-0.935502	0.494939
F226	F	1.308784	-0.685502	0.744939
F227	F	1.558784	-0.435502	0.994939
F228	F	1.808784	-0.185502	1.244939
H229	H	1.071500	-0.542879	0.481978
H230	H	1.321500	-0.292879	0.731978
H231	H	1.571500	-0.042879	0.981978
H232	H	1.821500	0.207121	1.231978
F233	F	1.271789	-0.935476	0.282239
F234	F	1.521789	-0.685476	0.532239
F235	F	1.771789	-0.435476	0.782239
F236	F	2.021789	-0.185476	1.032239
H237	H	1.258764	-0.662124	0.295067
H238	H	1.508764	-0.412124	0.545067
H239	H	1.758764	-0.162124	0.795067
H240	H	2.008764	0.087876	1.045067
F241	F	1.271869	-1.071180	0.282288
F242	F	1.521869	-0.821180	0.532288
F243	F	1.771869	-0.571180	0.782288
F244	F	2.021869	-0.321180	1.032288
