data_functionalizedCrystal
_audit_creation_method	'MofGen! by Chris Wilmer'
_symmetry_space_group_name_H-M	'P1'
_symmetry_Int_Tables_number	1
_symmetry_cell_setting	triclinic
loop_
_symmetry_equiv_pos_as_xyz
  x,y,z
_cell_length_a	18.215407
_cell_length_b	25.639240
_cell_length_c	18.215399
_cell_angle_alpha	89.967897
_cell_angle_beta	90.019833
_cell_angle_gamma	89.956389
loop_
_atom_site_label
_atom_site_type_symbol
_atom_site_fract_x
_atom_site_fract_y
_atom_site_fract_z
Zn1	Zn	1.124978	0.208150	0.416095
Zn2	Zn	1.458312	0.541483	0.749428
Zn3	Zn	1.791645	0.874817	1.082761
Zn4	Zn	1.124848	0.295586	0.293019
Zn5	Zn	1.458181	0.628919	0.626353
Zn6	Zn	1.791514	0.962253	0.959686
Zn7	Zn	1.001911	0.208167	0.293042
Zn8	Zn	1.335244	0.541500	0.626375
Zn9	Zn	1.668578	0.874834	0.959709
Zn10	Zn	1.001838	0.295557	0.416044
Zn11	Zn	1.335171	0.628890	0.749378
Zn12	Zn	1.668504	0.962224	1.082711
O13	O	1.063394	0.251865	0.354550
O14	O	1.396727	0.585198	0.687883
O15	O	1.730060	0.918532	1.021217
O16	O	1.227945	0.219754	0.399780
O17	O	1.561279	0.553087	0.733113
O18	O	1.894612	0.886420	1.066447
O19	O	1.108516	0.284009	0.190038
O20	O	1.441849	0.617342	0.523371
O21	O	1.775182	0.950676	0.856705
O22	O	1.018322	0.135000	0.309396
O23	O	1.351655	0.468333	0.642729
O24	O	1.684988	0.801666	0.976062
O25	O	1.227849	0.283992	0.309357
O26	O	1.561183	0.617326	0.642690
O27	O	1.894516	0.950659	0.976024
O28	O	1.108739	0.134987	0.399802
O29	O	1.442072	0.468320	0.733135
O30	O	1.775405	0.801654	1.066469
O31	O	1.018195	0.219783	0.190055
O32	O	1.351528	0.553116	0.523388
O33	O	1.684861	0.886449	0.856721
O34	O	0.898917	0.219754	0.309347
O35	O	1.232250	0.553088	0.642680
O36	O	1.565584	0.886421	0.976014
O37	O	1.018197	0.283943	0.519035
O38	O	1.351530	0.617276	0.852369
O39	O	1.684863	0.950609	1.185702
O40	O	0.898863	0.283959	0.399716
O41	O	1.232196	0.617293	0.733049
O42	O	1.565530	0.950626	1.066383
O43	O	1.108668	0.219725	0.519072
O44	O	1.442001	0.553059	0.852406
O45	O	1.775334	0.886392	1.185739
O46	O	1.108445	0.368747	0.309308
O47	O	1.441778	0.702081	0.642642
O48	O	1.775111	1.035414	0.975975
O49	O	1.018070	0.368726	0.399694
O50	O	1.351403	0.702059	0.733028
O51	O	1.684736	1.035393	1.066361
C52	C	0.872187	0.251856	0.354529
C53	C	1.205521	0.585189	0.687862
C54	C	1.538854	0.918523	1.021196
C55	C	0.790389	0.251865	0.354537
C56	C	1.123722	0.585198	0.687871
C57	C	1.457055	0.918531	1.021204
C58	C	0.602186	0.285349	0.401534
C59	C	0.935519	0.618682	0.734867
C60	C	1.268852	0.952015	1.068200
C61	C	0.525327	0.285350	0.401543
C62	C	0.858660	0.618684	0.734876
C63	C	1.191994	0.952017	1.068209
C64	C	0.525354	0.218391	0.307583
C65	C	0.858687	0.551724	0.640916
C66	C	1.192020	0.885057	0.974249
C67	C	0.602211	0.218387	0.307578
C68	C	0.935544	0.551720	0.640911
C69	C	1.268878	0.885053	0.974244
C70	C	0.640625	0.251869	0.354552
C71	C	0.973958	0.585202	0.687885
C72	C	1.307292	0.918535	1.021219
C73	C	0.486909	0.251874	0.354566
C74	C	0.820242	0.585208	0.687900
C75	C	1.153576	0.918541	1.021233
C76	C	0.403575	0.251876	0.354576
C77	C	0.736909	0.585209	0.687909
C78	C	1.070242	0.918542	1.021242
C79	C	0.723964	0.251867	0.354544
C80	C	1.057297	0.585200	0.687877
C81	C	1.390631	0.918533	1.021210
C82	C	1.063255	0.387708	0.354509
C83	C	1.396588	0.721041	0.687843
C84	C	1.729922	1.054374	1.021176
C85	C	1.063263	0.445822	0.354517
C86	C	1.396596	0.779155	0.687850
C87	C	1.729930	1.112488	1.021183
C88	C	1.110514	0.806183	0.307538
C89	C	1.443847	1.139516	0.640871
C90	C	1.777180	1.472850	0.974205
C91	C	1.110536	0.860787	0.307545
C92	C	1.443870	1.194121	0.640879
C93	C	1.777203	1.527454	0.974212
O94	O	1.150613	0.889023	0.267580
O95	O	1.483946	1.222356	0.600913
O96	O	1.817279	1.555690	0.934246
N97	N	1.063453	0.888104	0.354566
N98	N	1.396786	1.221437	0.687900
N99	N	1.730120	1.554771	1.021233
C100	C	1.016350	0.860813	0.401589
C101	C	1.349683	1.194147	0.734922
C102	C	1.683016	1.527480	1.068256
O103	O	0.976304	0.889062	0.441585
O104	O	1.309638	1.222396	0.774919
O105	O	1.642971	1.555729	1.108252
C106	C	1.016331	0.806210	0.401585
C107	C	1.349665	1.139543	0.734918
C108	C	1.682998	1.472877	1.068252
C109	C	1.063412	0.778896	0.354555
C110	C	1.396746	1.112230	0.687889
C111	C	1.730079	1.445563	1.021222
C112	C	1.157591	0.778869	0.260513
C113	C	1.490925	1.112203	0.593846
C114	C	1.824258	1.445536	0.927180
C115	C	1.157568	0.724269	0.260505
C116	C	1.490901	1.057602	0.593838
C117	C	1.824234	1.390936	0.927172
C118	C	1.110466	0.696982	0.307522
C119	C	1.443800	1.030315	0.640856
C120	C	1.777133	1.363649	0.974189
C121	C	1.063389	0.724296	0.354548
C122	C	1.396722	1.057629	0.687881
C123	C	1.730055	1.390963	1.021214
C124	C	0.969232	0.778920	0.448611
C125	C	1.302565	1.112254	0.781944
C126	C	1.635899	1.445587	1.115277
C127	C	0.969218	0.724313	0.448603
C128	C	1.302552	1.057647	0.781937
C129	C	1.635885	1.390980	1.115270
C130	C	1.016299	0.697000	0.401574
C131	C	1.349633	1.030333	0.734907
C132	C	1.682966	1.363666	1.068240
C133	C	1.016264	0.642409	0.401557
C134	C	1.349597	0.975742	0.734890
C135	C	1.682930	1.309075	1.068224
N136	N	1.063347	0.615092	0.354536
N137	N	1.396680	0.948425	0.687869
N138	N	1.730013	1.281759	1.021203
C139	C	1.110448	0.642379	0.307519
C140	C	1.443781	0.975712	0.640852
C141	C	1.777115	1.309045	0.974185
C142	C	1.016392	0.975484	0.401595
C143	C	1.349726	1.308817	0.734928
C144	C	1.683059	1.642151	1.068261
C145	C	1.016406	1.030086	0.401595
C146	C	1.349740	1.363420	0.734929
C147	C	1.683073	1.696753	1.068262
C148	C	1.110594	1.030057	0.307552
C149	C	1.443928	1.363390	0.640886
C150	C	1.777261	1.696723	0.974219
C151	C	1.110576	0.975453	0.307548
C152	C	1.443909	1.308787	0.640882
C153	C	1.777243	1.642120	0.974215
C154	C	1.063476	0.948167	0.354573
C155	C	1.396809	1.281501	0.687907
C156	C	1.730142	1.614834	1.021240
C157	C	1.110394	0.527714	0.307505
C158	C	1.443728	0.861047	0.640838
C159	C	1.777061	1.194380	0.974172
C160	C	1.110364	0.473108	0.307499
C161	C	1.443698	0.806442	0.640833
C162	C	1.777031	1.139775	0.974166
C163	C	1.016180	0.473143	0.401545
C164	C	1.349513	0.806476	0.734878
C165	C	1.682846	1.139809	1.068211
C166	C	1.016207	0.527743	0.401548
C167	C	1.349540	0.861077	0.734882
C168	C	1.682873	1.194410	1.068215
C169	C	1.063320	0.555028	0.354526
C170	C	1.396653	0.888361	0.687859
C171	C	1.729987	1.221694	1.021193
O172	O	0.976210	0.614138	0.441505
O173	O	1.309543	0.947472	0.774838
O174	O	1.642876	1.280805	1.108171
O175	O	1.150494	0.614123	0.267536
O176	O	1.483827	0.947457	0.600869
O177	O	1.817160	1.280790	0.934202
C178	C	1.255347	0.251874	0.354572
C179	C	1.588680	0.585208	0.687905
C180	C	1.922013	0.918541	1.021238
C181	C	1.337145	0.251878	0.354581
C182	C	1.670479	0.585212	0.687914
C183	C	2.003812	0.918545	1.021248
C184	C	1.063439	0.251829	0.546503
C185	C	1.396772	0.585162	0.879836
C186	C	1.730105	0.918496	1.213170
C187	C	1.063458	0.251814	0.628302
C188	C	1.396791	0.585147	0.961635
C189	C	1.730124	0.918480	1.294969
C190	C	1.063525	1.115492	0.354594
C191	C	1.396859	1.448825	0.687927
C192	C	1.730192	1.782159	1.021261
C193	C	1.063511	1.057378	0.354580
C194	C	1.396844	1.390711	0.687914
C195	C	1.730178	1.724045	1.021247
C196	C	1.063391	0.251863	0.163344
C197	C	1.396725	0.585196	0.496677
C198	C	1.730058	0.918530	0.830010
C199	C	1.063515	0.251731	0.081545
C200	C	1.396848	0.585065	0.414879
C201	C	1.730182	0.918398	0.748212
C202	C	1.110583	0.218344	0.816516
C203	C	1.443916	0.551678	1.149850
C204	C	1.777250	0.885011	1.483183
C205	C	1.110592	0.218329	0.893375
C206	C	1.443925	0.551662	1.226709
C207	C	1.777258	0.884996	1.560042
C208	C	1.016385	0.285202	0.893325
C209	C	1.349718	0.618535	1.226659
C210	C	1.683051	0.951869	1.559992
C211	C	1.016373	0.285214	0.816468
C212	C	1.349706	0.618548	1.149801
C213	C	1.683039	0.951881	1.483135
C214	C	1.063476	0.251786	0.778066
C215	C	1.396809	0.585119	1.111399
C216	C	1.730143	0.918453	1.444732
C217	C	1.063497	0.251759	0.931782
C218	C	1.396830	0.585092	1.265115
C219	C	1.730163	0.918425	1.598448
C220	C	1.063506	0.251742	1.015115
C221	C	1.396839	0.585076	1.348449
C222	C	1.730173	0.918409	1.681782
C223	C	1.063466	0.251802	0.694727
C224	C	1.396799	0.585135	1.028060
C225	C	1.730133	0.918468	1.361393
H226	H	0.633460	0.312611	0.439785
H227	H	0.966794	0.645944	0.773118
H228	H	1.300127	0.979277	1.106452
H229	H	0.494033	0.312613	0.439801
H230	H	0.827367	0.645946	0.773134
H231	H	1.160700	0.979279	1.106468
H232	H	1.148949	1.052283	0.269271
H233	H	1.482283	1.385617	0.602604
H234	H	1.815616	1.718950	0.935937
H235	H	1.195951	0.801081	0.222226
H236	H	1.529284	1.134414	0.555559
H237	H	1.862618	1.467747	0.888892
N238	N	1.161408	0.182264	0.934845
N239	N	1.494741	0.515597	1.268179
N240	N	1.828074	0.848930	1.601512
H241	H	1.154268	0.187326	0.989362
H242	H	1.487602	0.520659	1.322695
H243	H	1.820935	0.853992	1.656029
H244	H	1.149996	0.144925	0.921424
H245	H	1.483330	0.478258	1.254758
H246	H	1.816663	0.811591	1.588091
N247	N	1.161153	0.443652	0.256776
N248	N	1.494487	0.776985	0.590109
N249	N	1.827820	1.110319	0.923442
H250	H	1.195230	0.420958	0.286713
H251	H	1.528563	0.754291	0.620047
H252	H	1.861897	1.087625	0.953380
H253	H	1.131208	0.421066	0.222647
H254	H	1.464542	0.754399	0.555980
H255	H	1.797875	1.087732	0.889313
H256	H	0.494068	0.191131	0.269337
H257	H	0.827401	0.524465	0.602670
H258	H	1.160734	0.857798	0.936003
H259	H	0.978036	0.312419	0.924602
H260	H	1.311370	0.645752	1.257936
H261	H	1.644703	0.979086	1.591269
N262	N	0.965547	0.321275	0.774989
N263	N	1.298880	0.654608	1.108323
N264	N	1.632214	0.987941	1.441656
H265	H	0.935709	0.342449	0.810978
H266	H	1.269042	0.675783	1.144312
H267	H	1.602376	1.009116	1.477645
H268	H	0.995460	0.345479	0.743087
H269	H	1.328793	0.678812	1.076420
H270	H	1.662126	1.012145	1.409753
H271	H	0.633509	0.191120	0.269320
H272	H	0.966842	0.524453	0.602653
H273	H	1.300176	0.857787	0.935986
N274	N	1.161208	0.557137	0.256790
N275	N	1.494542	0.890470	0.590124
N276	N	1.827875	1.223804	0.923457
H277	H	1.191024	0.531542	0.227002
H278	H	1.524357	0.864875	0.560335
H279	H	1.857690	1.198208	0.893669
H280	H	1.131282	0.579830	0.222706
H281	H	1.464616	0.913163	0.556039
H282	H	1.797949	1.246496	0.889373
N283	N	1.208359	0.694813	0.209791
N284	N	1.541692	1.028146	0.543125
N285	N	1.875026	1.361480	0.876458
H286	H	1.238201	0.720391	0.180016
H287	H	1.571535	1.053725	0.513349
H288	H	1.904868	1.387058	0.846682
H289	H	1.242390	0.672124	0.239785
H290	H	1.575723	1.005457	0.573118
H291	H	1.909057	1.338791	0.906452
N292	N	1.161358	0.945995	0.256827
N293	N	1.494691	1.279329	0.590160
N294	N	1.828024	1.612662	0.923494
H295	H	1.191196	0.971572	0.227044
H296	H	1.524529	1.304905	0.560378
H297	H	1.857862	1.638239	0.893711
H298	H	1.195393	0.923305	0.286813
H299	H	1.528726	1.256638	0.620147
H300	H	1.862060	1.589972	0.953480
N301	N	0.965614	1.059543	0.452307
N302	N	1.298947	1.392877	0.785640
N303	N	1.632281	1.726210	1.118974
H304	H	0.935773	1.033967	0.482087
H305	H	1.269107	1.367300	0.815420
H306	H	1.602440	1.700633	1.148754
H307	H	0.995554	1.082161	0.486399
H308	H	1.328887	1.415494	0.819733
H309	H	1.662221	1.748828	1.153066
H310	H	0.978032	0.953271	0.439886
H311	H	1.311365	1.286604	0.773219
H312	H	1.644698	1.619937	1.106552
H313	H	0.930890	0.801150	0.486904
H314	H	1.264223	1.134483	0.820237
H315	H	1.597557	1.467817	1.153571
H316	H	0.930864	0.702100	0.486899
H317	H	1.264198	1.035433	0.820232
H318	H	1.597531	1.368767	1.153566
N319	N	0.965420	0.557207	0.452263
N320	N	1.298754	0.890541	0.785596
N321	N	1.632087	1.223874	1.118930
H322	H	0.935577	0.531633	0.482044
H323	H	1.268910	0.864967	0.815378
H324	H	1.602243	1.198300	1.148711
H325	H	0.995368	0.579821	0.486354
H326	H	1.328702	0.913154	0.819687
H327	H	1.662035	1.246488	1.153020
H328	H	0.977828	0.450917	0.439824
H329	H	1.311161	0.784251	0.773157
H330	H	1.644495	1.117584	1.106490
H331	H	1.148935	0.191123	0.785251
H332	H	1.482269	0.524457	1.118585
H333	H	1.815602	0.857790	1.451918
