data_functionalizedCrystal
_audit_creation_method	'MofGen! by Chris Wilmer'
_symmetry_space_group_name_H-M	'P1'
_symmetry_Int_Tables_number	1
_symmetry_cell_setting	triclinic
loop_
_symmetry_equiv_pos_as_xyz
  x,y,z
_cell_length_a	17.699083
_cell_length_b	9.130307
_cell_length_c	17.699083
_cell_angle_alpha	90.006159
_cell_angle_beta	83.283015
_cell_angle_gamma	89.997957
loop_
_atom_site_label
_atom_site_type_symbol
_atom_site_fract_x
_atom_site_fract_y
_atom_site_fract_z
O1	O	1.004075	0.121597	0.095712
O2	O	1.504075	0.621597	0.595712
O3	O	0.783697	0.121645	0.108164
O4	O	1.283697	0.621645	0.608164
O5	O	0.900112	0.121607	-0.008251
O6	O	1.400112	0.621607	0.491749
O7	O	0.887660	0.121635	0.212127
O8	O	1.387660	0.621635	0.712127
O9	O	0.900103	-0.121992	-0.008256
O10	O	1.400103	0.378008	0.491744
O11	O	0.783688	-0.121954	0.108159
O12	O	1.283688	0.378046	0.608159
O13	O	1.004066	-0.122002	0.095707
O14	O	1.504066	0.377998	0.595707
Cu15	Cu	0.893876	-0.144220	0.101933
Cu16	Cu	1.393876	0.355780	0.601933
Cu17	Cu	0.893887	0.143864	0.101939
Cu18	Cu	1.393887	0.643864	0.601939
O19	O	0.887651	-0.121964	0.212122
O20	O	1.387651	0.378036	0.712122
C21	C	0.755495	-0.000148	0.107716
C22	C	1.255495	0.499852	0.607716
C23	C	0.671477	-0.000130	0.106377
C24	C	1.171477	0.499870	0.606377
N25	N	0.893875	-0.346843	0.101928
N26	N	1.393875	0.153157	0.601928
C27	C	0.622856	-0.000122	0.174710
C28	C	1.122856	0.499878	0.674710
C29	C	0.543913	-0.000141	0.173448
C30	C	1.043913	0.499859	0.673448
C31	C	0.513592	-0.000158	0.103852
C32	C	1.013592	0.499842	0.603852
C33	C	0.562219	-0.000171	0.035513
C34	C	1.062219	0.499829	0.535513
C35	C	0.641161	-0.000162	0.036776
C36	C	1.141161	0.499838	0.536776
C37	C	0.243856	-0.000207	0.030418
C38	C	0.743856	0.499793	0.530418
C39	C	0.164908	-0.000212	0.029160
C40	C	0.664908	0.499788	0.529160
C41	C	0.146608	-0.000186	0.167090
C42	C	0.646608	0.499814	0.667090
C43	C	0.225550	-0.000178	0.168353
C44	C	0.725550	0.499822	0.668353
C45	C	0.274170	-0.000198	0.100015
C46	C	0.774170	0.499802	0.600015
C47	C	0.359769	-0.000180	0.101384
C48	C	0.859769	0.499820	0.601384
C49	C	0.427995	-0.000165	0.102481
C50	C	0.927995	0.499835	0.602481
C51	C	0.802252	-0.346894	0.010225
C52	C	1.302252	0.153106	0.510225
C53	C	0.756448	-0.423586	-0.035628
C54	C	1.256448	0.076414	0.464372
C55	C	0.756459	-0.576920	-0.035628
C56	C	1.256459	-0.076920	0.464372
C57	C	0.802277	-0.653565	0.010231
C58	C	1.302277	-0.153565	0.510231
C59	C	0.848080	-0.576872	0.056084
C60	C	1.348080	-0.076872	0.556084
C61	C	0.848066	-0.423535	0.056078
C62	C	1.348066	0.076465	0.556078
C63	C	0.939698	-0.576821	0.147790
C64	C	1.439698	-0.076821	0.647790
C65	C	0.939692	-0.423488	0.147788
C66	C	1.439692	0.076512	0.647788
C67	C	0.985516	-0.653466	0.193650
C68	C	1.485516	-0.153466	0.693650
C69	C	1.031324	-0.576774	0.239500
C70	C	1.531324	-0.076774	0.739500
C71	C	1.031312	-0.423431	0.239498
C72	C	1.531312	0.076569	0.739498
C73	C	0.985496	-0.346796	0.193641
C74	C	1.485496	0.153204	0.693641
C75	C	1.032268	-0.000205	0.096156
C76	C	1.532268	0.499795	0.596156
C77	C	1.116286	-0.000214	0.097494
C78	C	1.616286	0.499786	0.597494
C79	C	0.899662	-0.000193	-0.036451
C80	C	1.399662	0.499807	0.463549
C81	C	0.898323	-0.000193	-0.120469
C82	C	1.398323	0.499807	0.379531
N83	N	0.893895	0.346486	0.101937
N84	N	1.393895	0.846486	0.601937
C85	C	0.966656	-0.000210	-0.169090
C86	C	1.466656	0.499790	0.330910
C87	C	0.965394	-0.000197	-0.248033
C88	C	1.465394	0.499803	0.251967
C89	C	0.895798	-0.000177	-0.278354
C90	C	1.395798	0.499823	0.221646
C91	C	0.827459	-0.000156	-0.229727
C92	C	1.327459	0.499844	0.270273
C93	C	0.828722	-0.000158	-0.150785
C94	C	1.328722	0.499842	0.349215
C95	C	0.822364	-0.000143	-0.548090
C96	C	1.322364	0.499857	-0.048090
C97	C	0.821106	-0.000144	-0.627038
C98	C	1.321106	0.499856	-0.127038
C99	C	0.959036	-0.000181	-0.645338
C100	C	1.459036	0.499819	-0.145338
C101	C	0.960299	-0.000184	-0.566396
C102	C	1.460299	0.499816	-0.066396
C103	C	0.891961	-0.000155	-0.517776
C104	C	1.391961	0.499845	-0.017776
C105	C	0.893330	-0.000166	-0.432177
C106	C	1.393330	0.499834	0.067823
C107	C	0.894427	-0.000176	-0.363951
C108	C	1.394427	0.499824	0.136049
C109	C	0.888102	-0.000161	0.240322
C110	C	1.388102	0.499839	0.740322
C111	C	0.889440	-0.000151	0.324340
C112	C	1.389440	0.499849	0.824340
H113	H	0.647537	-0.000107	0.231384
H114	H	1.147537	0.499893	0.731384
N115	N	0.094165	-0.000227	0.240799
N116	N	0.594165	0.499773	0.740799
H117	H	0.125353	-0.000221	0.285078
H118	H	0.625353	0.499779	0.785078
H119	H	0.060998	0.090060	0.243294
H120	H	0.560998	0.590060	0.743294
H121	H	0.283434	-0.000225	-0.025228
H122	H	0.783434	0.499775	0.474772
H123	H	0.140225	-0.000228	-0.027517
H124	H	0.640225	0.499772	0.472483
H125	H	0.773078	-0.000144	-0.111198
H126	H	1.273078	0.499856	0.388802
N127	N	0.693601	-0.000179	-0.036929
N128	N	1.193601	0.499821	0.463071
H129	H	0.683863	0.090116	-0.067301
H130	H	1.183863	0.590116	0.432699
H131	H	0.748190	-0.000233	-0.025508
H132	H	1.248190	0.499767	0.474492
H133	H	1.068621	-0.639190	0.276839
H134	H	1.568621	-0.139190	0.776839
H135	H	0.537526	-0.000205	-0.021154
H136	H	1.037526	0.499795	0.478846
H137	H	0.504328	-0.000132	0.229092
H138	H	1.004328	0.499868	0.729092
N139	N	0.707039	-0.340918	-0.085093
N140	N	1.207039	0.159082	0.414907
H141	H	0.722084	-0.367625	-0.140178
H142	H	1.222084	0.132375	0.359822
H143	H	0.651963	-0.367642	-0.070039
H144	H	1.151963	0.132358	0.429961
H145	H	1.014680	-0.000197	-0.684934
H146	H	1.514680	0.499803	-0.184934
H147	H	0.770792	-0.000130	-0.254420
H148	H	1.270792	0.499870	0.245580
H149	H	0.719158	-0.639362	-0.072962
H150	H	1.219158	-0.139362	0.427038
N151	N	0.258253	-0.000139	0.243417
N152	N	0.758253	0.499861	0.743417
H153	H	0.215472	-0.000136	0.286516
H154	H	0.715472	0.499864	0.786516
H155	H	0.290614	-0.090437	0.246946
H156	H	0.790614	0.409563	0.746946
H157	H	0.802275	-0.778417	0.010234
H158	H	1.302275	-0.278417	0.510234
H159	H	0.802244	-0.222042	0.010215
H160	H	1.302244	0.277958	0.510215
H161	H	0.985517	-0.778318	0.193650
H162	H	1.485517	-0.278318	0.693650
H163	H	1.068607	-0.360997	0.276841
H164	H	1.568607	0.139003	0.776841
N165	N	0.985488	-0.181416	0.193634
N166	N	1.485488	0.318584	0.693634
H167	H	0.949514	-0.144505	0.157626
H168	H	1.449514	0.355495	0.657626
H169	H	0.968424	-0.144583	0.246700
H170	H	1.468424	0.355417	0.746700
H171	H	1.021038	-0.000214	-0.287618
H172	H	1.521038	0.499786	0.212382
N173	N	1.041722	-0.000245	-0.136389
N174	N	1.541722	0.499755	0.363611
H175	H	1.084819	-0.000252	-0.179172
H176	H	1.584819	0.499748	0.320828
H177	H	1.045255	0.090056	-0.104028
H178	H	1.545255	0.590056	0.395972
N179	N	1.035363	-0.000217	-0.533693
N180	N	1.535363	0.499783	-0.033693
H181	H	1.078462	-0.000224	-0.576473
H182	H	1.578462	0.499776	-0.076473
H183	H	1.038894	0.090086	-0.501332
H184	H	1.538894	0.590086	-0.001332
N185	N	0.746038	-0.000131	-0.659743
N186	N	1.246038	0.499869	-0.159743
H187	H	0.702937	-0.000112	-0.616964
H188	H	1.202937	0.499888	-0.116964
H189	H	0.742517	0.090170	-0.692098
H190	H	1.242517	0.590170	-0.192098
N191	N	0.748660	-0.000117	-0.495655
N192	N	1.248660	0.499883	0.004345
H193	H	0.704382	-0.000112	-0.526845
H194	H	1.204382	0.499888	-0.026845
H195	H	0.746175	-0.090421	-0.462507
H196	H	1.246175	0.409579	0.037493
