data_functionalizedCrystal
_audit_creation_method	'MofGen! by Chris Wilmer'
_symmetry_space_group_name_H-M	'P1'
_symmetry_Int_Tables_number	1
_symmetry_cell_setting	triclinic
loop_
_symmetry_equiv_pos_as_xyz
  x,y,z
_cell_length_a	9.616153
_cell_length_b	11.792241
_cell_length_c	11.792241
_cell_angle_alpha	84.193416
_cell_angle_beta	90.007678
_cell_angle_gamma	89.992946
loop_
_atom_site_label
_atom_site_type_symbol
_atom_site_fract_x
_atom_site_fract_y
_atom_site_fract_z
O1	O	-0.115511	-1.506896	-0.155574
O2	O	-0.115544	-1.176555	-0.171607
O3	O	-0.115517	-1.349742	0.001580
O4	O	-0.115538	-1.333709	-0.328761
O5	O	0.115775	-1.349752	0.001598
O6	O	0.115748	-1.176565	-0.171589
O7	O	0.115780	-1.506906	-0.155556
Zn8	Zn	0.152487	-1.341737	-0.163570
Zn9	Zn	-0.152250	-1.341724	-0.163593
O10	O	0.115753	-1.333719	-0.328743
C11	C	0.000098	-1.134269	-0.170591
C12	C	0.000086	-1.008255	-0.167576
N13	N	-0.360224	-1.341715	-0.163600
C14	C	0.000128	-1.348740	0.043880
C15	C	0.000127	-1.345726	0.169894
C16	C	-0.580609	-1.249186	-0.256331
C17	C	-0.419441	-1.248830	-0.256115
C18	C	-0.418694	-1.315430	-0.044915
C19	C	-0.579912	-1.314787	-0.045433
C20	C	-0.580102	-1.460875	-0.188409
C21	C	-0.418875	-1.460076	-0.191122
N22	N	0.360461	-1.341755	-0.163554
C23	C	0.000136	-1.549192	-0.156572
C24	C	0.000139	-1.675206	-0.159587
C25	C	0.000126	-0.777543	-0.162034
C26	C	0.000104	-0.905928	-0.165113
C27	C	0.000105	-1.334721	-0.371043
C28	C	0.000098	-1.337736	-0.497057
C29	C	0.000103	-1.340183	0.400606
C30	C	0.000116	-1.343262	0.272221
H31	H	-0.619408	-1.264663	-0.344799
C32	C	-0.634817	-1.131992	-0.235507
C33	C	-0.710432	-1.086067	-0.330763
C34	C	-0.760408	-0.978120	-0.311610
H35	H	-0.558771	-1.083365	-0.223046
H36	H	-0.693499	-1.138553	-0.170364
H37	H	-0.651753	-1.079500	-0.395886
H38	H	-0.786497	-1.134662	-0.343239
H39	H	-0.819090	-0.984680	-0.246468
H40	H	-0.684354	-0.929503	-0.299148
H41	H	-0.811729	-0.946950	-0.376233
H42	H	-0.380887	-1.160433	-0.240141
H43	H	-0.618891	-1.379624	0.025731
H44	H	-0.620789	-1.486037	-0.273145
H45	H	-0.378562	-1.532215	-0.128021
C46	C	-0.629802	-1.198843	-0.016484
C47	C	-0.514787	-1.130031	0.001315
C48	C	-0.560683	-1.023208	0.027968
H49	H	-0.684759	-1.208013	0.050747
H50	H	-0.683982	-1.163875	-0.077726
H51	H	-0.460630	-1.164991	0.062552
H52	H	-0.459817	-1.120828	-0.065902
H53	H	-0.614864	-0.988241	-0.033274
H54	H	-0.615641	-1.032390	0.095196
H55	H	-0.482654	-0.976503	0.040037
C56	C	-0.367648	-1.486713	-0.307448
C57	C	-0.222117	-1.490411	-0.307345
C58	C	-0.174868	-1.514956	-0.414479
H59	H	-0.398567	-1.429147	-0.364003
H60	H	-0.403383	-1.558440	-0.323628
H61	H	-0.186395	-1.418694	-0.291178
H62	H	-0.191161	-1.547979	-0.250813
H63	H	-0.210604	-1.586683	-0.430659
H64	H	-0.205797	-1.457386	-0.471026
H65	H	-0.076122	-1.517478	-0.414421
C66	C	-0.366995	-1.269734	-0.373797
C67	C	-0.480469	-1.282810	-0.445736
C68	C	-0.432218	-1.302047	-0.554163
H69	H	-0.311937	-1.336951	-0.368308
H70	H	-0.312364	-1.206678	-0.404049
H71	H	-0.535077	-1.345860	-0.415491
H72	H	-0.535539	-1.215604	-0.451258
H73	H	-0.377587	-1.238991	-0.584415
H74	H	-0.377159	-1.369263	-0.548662
H75	H	-0.509201	-1.310911	-0.602989
C76	C	-0.367339	-1.402973	0.049250
C77	C	-0.282043	-1.482309	0.002230
C78	C	-0.234693	-1.562962	0.088941
H79	H	-0.444602	-1.441169	0.085884
H80	H	-0.315790	-1.365667	0.103325
H81	H	-0.333591	-1.519612	-0.051825
H82	H	-0.204760	-1.444148	-0.034396
H83	H	-0.183143	-1.525656	0.143016
H84	H	-0.311963	-1.601149	0.125569
H85	H	-0.176804	-1.616795	0.057052
C86	C	-0.631192	-1.552732	-0.098328
C87	C	-0.776699	-1.556341	-0.100261
C88	C	-0.823822	-1.640947	-0.017307
H89	H	-0.600639	-1.535874	-0.025288
H90	H	-0.595022	-1.624546	-0.113801
H91	H	-0.812856	-1.484545	-0.084781
H92	H	-0.807289	-1.573215	-0.173282
H93	H	-0.787652	-1.712760	-0.032779
H94	H	-0.793260	-1.624080	0.055728
H95	H	-0.922552	-1.643414	-0.018614
H96	H	-0.378317	-1.229528	-0.022673
