data_functionalizedCrystal
_audit_creation_method	'MofGen! by Chris Wilmer'
_symmetry_space_group_name_H-M	'P1'
_symmetry_Int_Tables_number	1
_symmetry_cell_setting	triclinic
loop_
_symmetry_equiv_pos_as_xyz
  x,y,z
_cell_length_a	14.519731
_cell_length_b	14.519731
_cell_length_c	14.750779
_cell_angle_alpha	77.331756
_cell_angle_beta	102.666662
_cell_angle_gamma	83.688853
loop_
_atom_site_label
_atom_site_type_symbol
_atom_site_fract_x
_atom_site_fract_y
_atom_site_fract_z
O1	O	1.203879	0.140959	-0.079831
O2	O	0.935405	0.155175	-0.079832
O3	O	1.076752	0.013828	-0.079823
O4	O	1.062532	0.282306	-0.079840
O5	O	1.116709	-0.026125	0.079830
O6	O	0.975362	0.115222	0.079821
O7	O	1.243836	0.101006	0.079822
Zn8	Zn	1.115943	0.101771	0.105170
Zn9	Zn	1.063298	0.154410	-0.105180
O10	O	1.102489	0.242353	0.079813
C11	C	0.921024	0.134533	-0.000006
C12	C	0.818644	0.132537	-0.000006
C13	C	1.096065	-0.040508	0.000004
C14	C	1.094069	-0.142888	0.000004
C15	C	0.735499	0.130916	-0.000010
C16	C	0.631190	0.128889	-0.000010
C17	C	0.548051	0.127281	-0.000010
C18	C	0.443735	0.125255	-0.000012
C19	C	1.092446	-0.226032	0.000002
C20	C	1.090418	-0.330339	-0.000005
C21	C	1.088808	-0.413477	-0.000011
C22	C	1.086780	-0.517791	-0.000017
C23	C	1.258216	0.121649	-0.000006
C24	C	1.360595	0.123647	-0.000012
C25	C	1.083176	0.296689	-0.000016
C26	C	1.085170	0.399072	-0.000023
N27	N	1.151879	0.065845	0.248728
N28	N	1.027370	0.190329	-0.248738
C29	C	0.927006	0.290623	0.600531
C30	C	0.952195	0.265454	0.701032
C31	C	1.077383	0.140338	0.701003
C32	C	1.052202	0.165493	0.600500
C33	C	0.977014	0.240636	0.550272
C34	C	1.102210	0.115506	0.550241
C35	C	1.077034	0.140663	0.449747
C36	C	1.001851	0.215805	0.399512
C37	C	0.951838	0.265793	0.449778
C38	C	1.177403	0.040367	0.600471
C39	C	1.227410	-0.009619	0.550212
C40	C	1.202230	0.015533	0.449716
C41	C	1.127047	0.090675	0.399481
C42	C	1.252243	-0.034455	0.399450
C43	C	1.227067	-0.009298	0.298956
C44	C	1.101871	0.115832	0.298987
H45	H	1.040639	0.177015	0.258089
H46	H	1.197901	0.019891	0.682300
H47	H	1.313468	-0.095631	0.440359
H48	H	1.267790	-0.050002	0.258035
H49	H	0.981357	0.236289	0.317683
H50	H	0.865774	0.351806	0.559633
H51	H	0.911466	0.306167	0.741948
H52	H	0.890606	0.326976	0.408880
H53	H	1.288632	-0.070799	0.591119
H54	H	1.138605	0.079157	0.741910
