data_functionalizedCrystal
_audit_creation_method	'MofGen! by Chris Wilmer'
_symmetry_space_group_name_H-M	'P1'
_symmetry_Int_Tables_number	1
_symmetry_cell_setting	triclinic
loop_
_symmetry_equiv_pos_as_xyz
  x,y,z
_cell_length_a	16.974829
_cell_length_b	14.044220
_cell_length_c	16.053789
_cell_angle_alpha	92.661029
_cell_angle_beta	96.542606
_cell_angle_gamma	88.283427
loop_
_atom_site_label
_atom_site_type_symbol
_atom_site_fract_x
_atom_site_fract_y
_atom_site_fract_z
O1	O	1.064233	0.128083	0.141338
O2	O	0.834390	0.142665	0.125810
O3	O	0.945861	-0.002618	0.133333
O4	O	0.952762	0.273367	0.133816
O5	O	0.939381	-0.009766	-0.005965
O6	O	0.827910	0.135518	-0.013487
O7	O	1.057752	0.120936	0.002040
Zn8	Zn	0.941802	0.127092	-0.027840
Zn9	Zn	0.950341	0.136509	0.155691
O10	O	0.946281	0.266220	-0.005482
C11	C	0.801557	0.138403	0.054162
C12	C	0.713380	0.136339	0.048205
C13	C	0.216655	0.124336	0.006521
C14	C	0.299507	0.126275	0.012120
C15	C	0.344466	0.131134	0.090852
C16	C	0.306568	0.134063	0.163990
C17	C	0.223718	0.132130	0.158390
C18	C	0.592632	0.137336	0.115743
C19	C	0.675488	0.139265	0.121337
C20	C	0.668421	0.131480	-0.030533
C21	C	0.585569	0.129542	-0.036126
C22	C	0.547679	0.132476	0.037011
N23	N	0.429154	0.133113	0.096577
N24	N	0.462992	0.130504	0.031285
C25	C	0.939601	-0.041513	0.063480
C26	C	0.930592	-0.146759	0.062870
C27	C	0.914122	-0.339456	0.061769
C28	C	0.978018	-0.396948	0.066089
C29	C	0.968854	-0.504172	0.065476
C30	C	0.923285	-0.232222	0.062382
C31	C	1.090585	0.125198	0.073690
C32	C	1.178763	0.127262	0.079653
C33	C	0.952542	0.305114	0.064373
C34	C	0.961551	0.410360	0.064988
N35	N	0.935980	0.120665	-0.153094
C36	C	0.986113	0.176057	-0.193394
C37	C	0.982051	0.171555	-0.281076
C38	C	0.927852	0.111665	-0.328457
C39	C	0.877717	0.056267	-0.288150
C40	C	0.881783	0.060765	-0.200470
C41	C	0.910099	0.092028	-0.591068
C42	C	0.906035	0.087537	-0.678754
C43	C	1.010371	0.202823	-0.671674
C44	C	1.014430	0.207320	-0.583992
C45	C	0.964297	0.151918	-0.543694
N46	N	0.923697	0.107064	-0.418082
N47	N	0.968457	0.156515	-0.454070
N48	N	0.956168	0.142929	0.280946
H49	H	0.561792	0.139722	0.175297
F50	F	0.833630	-0.380373	0.056336
F51	F	1.035409	0.230512	-0.323963
F52	F	1.058515	-0.356032	0.071520
H53	H	0.548969	0.125565	-0.100238
F54	F	0.828431	0.001801	-0.157580
H55	H	0.712092	0.143230	0.185454
F56	F	0.168813	0.119157	-0.077277
H57	H	0.330354	0.123890	-0.047432
H58	H	0.343181	0.138024	0.228095
H59	H	1.030244	0.224831	-0.154823
H60	H	0.699280	0.129093	-0.090078
F61	F	1.072092	0.271094	-0.533574
H62	H	0.192868	0.134516	0.217942
H63	H	1.051186	0.247928	-0.704495
F64	F	0.848346	0.023791	-0.729179
F65	F	0.856721	0.033093	-0.548192
F66	F	0.820035	-0.007474	-0.338578
