data_functionalizedCrystal
_audit_creation_method	'MofGen! by Chris Wilmer'
_symmetry_space_group_name_H-M	'P1'
_symmetry_Int_Tables_number	1
_symmetry_cell_setting	triclinic
loop_
_symmetry_equiv_pos_as_xyz
  x,y,z
_cell_length_a	15.297475
_cell_length_b	25.639239
_cell_length_c	25.639234
_cell_angle_alpha	89.975416
_cell_angle_beta	80.317879
_cell_angle_gamma	80.340538
loop_
_atom_site_label
_atom_site_type_symbol
_atom_site_fract_x
_atom_site_fract_y
_atom_site_fract_z
Zn1	Zn	1.379042	-0.346723	-0.433686
Zn2	Zn	1.879042	0.153277	0.066314
Zn3	Zn	1.378897	-0.434136	-0.346235
Zn4	Zn	1.878897	0.065864	0.153765
Zn5	Zn	1.228187	-0.331576	-0.331160
Zn6	Zn	1.728187	0.168424	0.168840
Zn7	Zn	1.228105	-0.418966	-0.418542
Zn8	Zn	1.728105	0.081034	0.081458
O9	O	1.303558	-0.382851	-0.382406
O10	O	1.803558	0.117149	0.117594
O11	O	1.505263	-0.371007	-0.434732
O12	O	2.005263	0.128993	0.065268
O13	O	1.358879	-0.420541	-0.271068
O14	O	1.858879	0.079459	0.228932
O15	O	1.248293	-0.260430	-0.344789
O16	O	1.748293	0.239570	0.155211
O17	O	1.505157	-0.435229	-0.370483
O18	O	2.005157	0.064771	0.129517
O19	O	1.359125	-0.271558	-0.420114
O20	O	1.859125	0.228442	0.079886
O21	O	1.248152	-0.345191	-0.259992
O22	O	1.748152	0.154809	0.240008
O23	O	1.101935	-0.330481	-0.330104
O24	O	1.601935	0.169519	0.169896
O25	O	1.248153	-0.409373	-0.493718
O26	O	1.748153	0.090627	0.006282
O27	O	1.101875	-0.394686	-0.394303
O28	O	1.601875	0.105314	0.105697
O29	O	1.359046	-0.356297	-0.504845
O30	O	1.859046	0.143703	-0.004845
O31	O	1.358799	-0.505280	-0.355798
O32	O	1.858799	-0.005280	0.144202
O33	O	1.248013	-0.494134	-0.408922
O34	O	1.748013	0.005866	0.091078
C35	C	1.069172	-0.359294	-0.358925
C36	C	1.569172	0.140706	0.141075
C37	C	0.968901	-0.349229	-0.348892
C38	C	1.468901	0.150771	0.151108
C39	C	0.686228	-0.454790	-0.454112
C40	C	1.186228	0.045210	0.045888
C41	C	0.780437	-0.464250	-0.463537
C42	C	1.280437	0.035750	0.036463
C43	C	0.827558	-0.435496	-0.434877
C44	C	1.327558	0.064504	0.065123
C45	C	0.780460	-0.397279	-0.396790
C46	C	1.280460	0.102721	0.103210
C47	C	0.686241	-0.387821	-0.387361
C48	C	1.186241	0.112179	0.112639
C49	C	0.827571	-0.368527	-0.368126
C50	C	1.327571	0.131473	0.131874
C51	C	0.780472	-0.330310	-0.330039
C52	C	1.280472	0.169690	0.169961
C53	C	0.686263	-0.320853	-0.320612
C54	C	1.186263	0.179147	0.179388
C55	C	0.639142	-0.349608	-0.349273
C56	C	1.139142	0.150392	0.150727
C57	C	0.921790	-0.377985	-0.377554
C58	C	1.421790	0.122015	0.122446
C59	C	0.921803	-0.311016	-0.310804
C60	C	1.421803	0.188984	0.189196
C61	C	0.827593	-0.301556	-0.301379
C62	C	1.327593	0.198444	0.198621
C63	C	1.303406	-0.518678	-0.382367
C64	C	1.803406	-0.018678	0.117633
C65	C	1.303423	-0.576794	-0.382376
C66	C	1.803423	-0.076794	0.117624
C67	C	1.361395	-0.942976	-0.354816
C68	C	1.861395	-0.442976	0.145184
C69	C	1.361430	-0.997584	-0.354827
C70	C	1.861430	-0.497584	0.145173
O71	O	1.410561	-1.030753	-0.331353
O72	O	1.910561	-0.530753	0.168647
N73	N	1.303716	-1.019105	-0.382456
N74	N	1.803716	-0.519105	0.117544
C75	C	1.245970	-0.986017	-0.410081
C76	C	1.745970	-0.486017	0.089919
O77	O	1.196884	-1.009337	-0.433583
O78	O	1.696884	-0.509337	0.066417
C79	C	1.245941	-0.931410	-0.410073
C80	C	1.745941	-0.431410	0.089927
C81	C	1.303651	-0.909891	-0.382438
C82	C	1.803651	-0.409891	0.117562
C83	C	1.419102	-0.921457	-0.327184
C84	C	1.919102	-0.421457	0.172816
C85	C	1.419065	-0.866853	-0.327173
C86	C	1.919065	-0.366853	0.172827
C87	C	1.361322	-0.833768	-0.354794
C88	C	1.861322	-0.333768	0.145206
C89	C	1.303615	-0.855287	-0.382427
C90	C	1.803615	-0.355287	0.117573
C91	C	1.188200	-0.898323	-0.437701
C92	C	1.688200	-0.398323	0.062299
C93	C	1.188176	-0.843714	-0.437691
C94	C	1.688176	-0.343714	0.062309
C95	C	1.245887	-0.822195	-0.410056
C96	C	1.745887	-0.322195	0.089944
C97	C	1.245835	-0.767598	-0.410037
C98	C	1.745835	-0.267598	0.089963
N99	N	1.303549	-0.746077	-0.382408
N100	N	1.803549	-0.246077	0.117592
C101	C	1.361292	-0.779161	-0.354786
C102	C	1.861292	-0.279161	0.145214
C103	C	1.246038	-1.100694	-0.410096
C104	C	1.746038	-0.600694	0.089904
C105	C	1.246063	-1.155299	-0.410101
C106	C	1.746063	-0.655299	0.089899
C107	C	1.361524	-1.166863	-0.354847
C108	C	1.861524	-0.666863	0.145153
C109	C	1.361494	-1.112256	-0.354840
C110	C	1.861494	-0.612256	0.145160
C111	C	1.303752	-1.079173	-0.382467
C112	C	1.803752	-0.579173	0.117533
C113	C	1.361211	-0.664488	-0.354765
C114	C	1.861211	-0.164488	0.145235
C115	C	1.361167	-0.609878	-0.354754
C116	C	1.861167	-0.109878	0.145246
C117	C	1.245710	-0.598320	-0.410010
C118	C	1.745710	-0.098320	0.089990
C119	C	1.245750	-0.652925	-0.410018
C120	C	1.745750	-0.152925	0.089982
C121	C	1.303508	-0.686008	-0.382394
C122	C	1.803508	-0.186008	0.117606
O123	O	1.196731	-0.734398	-0.433501
O124	O	1.696731	-0.234398	0.066499
O125	O	1.410378	-0.755835	-0.331294
O126	O	1.910378	-0.255835	0.168706
C127	C	1.538858	-0.406499	-0.405978
C128	C	2.038858	0.093501	0.094022
C129	C	1.639129	-0.416577	-0.416024
C130	C	2.139129	0.083423	0.083976
C131	C	1.303606	-0.382832	-0.518784
C132	C	1.803606	0.117168	-0.018784
C133	C	1.303627	-0.382825	-0.576900
C134	C	1.803627	0.117175	-0.076900
C135	C	1.303734	-0.246495	-0.382459
C136	C	1.803734	0.253505	0.117541
C137	C	1.303810	-0.188389	-0.382481
C138	C	1.803810	0.311611	0.117519
C139	C	1.361306	-0.422019	-0.833855
C140	C	1.861306	0.077981	-0.333855
C141	C	1.361297	-0.422029	-0.779250
C142	C	1.861297	0.077971	-0.279250
O143	O	1.410295	-0.455407	-0.755908
O144	O	1.910295	0.044593	-0.255908
N145	N	1.303647	-0.382801	-0.746176
N146	N	1.803647	0.117199	-0.246176
C147	C	1.245996	-0.343564	-0.767708
C148	C	1.745996	0.156436	-0.267708
O149	O	1.196959	-0.310199	-0.734562
O150	O	1.696959	0.189801	-0.234562
C151	C	1.246002	-0.343557	-0.822312
C152	C	1.746002	0.156443	-0.322312
C153	C	1.303662	-0.382784	-0.855385
C154	C	1.803662	0.117216	-0.355385
C155	C	1.418961	-0.461243	-0.866927
C156	C	1.918961	0.038757	-0.366927
C157	C	1.418971	-0.461233	-0.921529
C158	C	1.918971	0.038767	-0.421529
C159	C	1.361327	-0.421998	-0.943059
C160	C	1.861327	0.078002	-0.443059
C161	C	1.303672	-0.382773	-0.909986
C162	C	1.803672	0.117227	-0.409986
C163	C	1.188347	-0.304322	-0.843844
C164	C	1.688347	0.195678	-0.343844
C165	C	1.188358	-0.304318	-0.898452
C166	C	1.688358	0.195682	-0.398452
C167	C	1.246018	-0.343546	-0.931524
C168	C	1.746018	0.156454	-0.431524
C169	C	1.246039	-0.343528	-0.986118
C170	C	1.746039	0.156472	-0.486118
N171	N	1.303689	-0.382755	-1.019192
N172	N	1.803689	0.117245	-0.519192
C173	C	1.361333	-0.421990	-0.997662
C174	C	1.861333	0.078010	-0.497662
C175	C	1.245988	-0.343583	-0.653037
C176	C	1.745988	0.156417	-0.153037
C177	C	1.245986	-0.343588	-0.598434
C178	C	1.745986	0.156412	-0.098434
C179	C	1.361286	-0.422053	-0.609980
C180	C	1.861286	0.077947	-0.109980
C181	C	1.361291	-0.422046	-0.664584
C182	C	1.861291	0.077954	-0.164584
C183	C	1.303638	-0.382811	-0.686111
C184	C	1.803638	0.117189	-0.186111
C185	C	1.361351	-0.421965	-1.112329
C186	C	1.861351	0.078035	-0.612329
C187	C	1.361359	-0.421949	-1.166936
C188	C	1.861359	0.078051	-0.666936
C189	C	1.246056	-0.343485	-1.155385
C190	C	1.746056	0.156515	-0.655385
C191	C	1.246051	-0.343499	-1.100784
C192	C	1.746051	0.156501	-0.600784
C193	C	1.303702	-0.382743	-1.079258
C194	C	1.803702	0.117257	-0.579258
O195	O	1.197062	-0.310168	-1.009496
O196	O	1.697062	0.189832	-0.509496
O197	O	1.410353	-0.455354	-1.030814
O198	O	1.910353	0.044646	-0.530814
C199	C	1.303561	-0.382836	-0.246563
C200	C	1.803561	0.117164	0.253437
C201	C	1.303715	-0.382714	-0.188465
C202	C	1.803715	0.117286	0.311535
H203	H	0.960128	-0.409101	-0.408566
H204	H	1.460128	0.090899	0.091434
H205	H	1.141156	-0.816779	-0.460190
H206	H	1.641156	-0.316779	0.039810
H207	H	0.562429	-0.341906	-0.341602
H208	H	1.062429	0.158094	0.158398
F209	F	1.126976	-0.262571	-0.808656
F210	F	1.626976	0.237429	-0.308656
F211	F	0.971947	-0.280413	-0.280297
F212	F	1.471947	0.219587	0.219703
H213	H	0.904268	-0.443201	-0.442553
H214	H	1.404268	0.056799	0.057447
F215	F	1.422709	-0.463733	-1.089427
F216	F	1.922709	0.036267	-0.589427
F217	F	0.636139	-0.280184	-0.280073
F218	F	1.136139	0.219816	0.219927
H219	H	1.465921	-0.493177	-0.948452
H220	H	1.965921	0.006823	-0.448452
F221	F	1.422683	-0.699691	-0.325364
F222	F	1.922683	-0.199691	0.174636
F223	F	0.777456	-0.260884	-0.260845
F224	F	1.277456	0.239116	0.239155
F225	F	1.422593	-0.586980	-0.325339
F226	F	1.922593	-0.086980	0.174661
H227	H	1.466128	-0.948390	-0.304691
H228	H	1.966128	-0.448390	0.195309
H229	H	1.141201	-0.915833	-0.460202
H230	H	1.641201	-0.415833	0.039798
F231	F	1.184261	-0.563100	-0.439406
F232	F	1.684261	-0.063100	0.060594
F233	F	0.636074	-0.485397	-0.484601
F234	F	1.136074	0.014603	0.015399
H235	H	1.408317	-0.453893	-1.193862
H236	H	1.908317	0.046107	-0.693862
H237	H	1.465903	-0.493196	-0.849405
H238	H	1.965903	0.006804	-0.349405
F239	F	1.480500	-0.843959	-0.297766
F240	F	1.980500	-0.343959	0.202234
F241	F	1.422917	-1.089359	-0.325427
F242	F	1.922917	-0.589359	0.174573
H243	H	1.408243	-0.453988	-0.691508
H244	H	1.908243	0.046012	-0.191508
H245	H	1.408544	-1.193811	-0.332359
H246	H	1.908544	-0.693811	0.167641
F247	F	1.184629	-1.178194	-0.439507
F248	F	1.684629	-0.678194	0.060493
F249	F	1.184571	-1.065487	-0.439498
F250	F	1.684571	-0.565487	0.060502
H251	H	1.198760	-0.670446	-0.432523
H252	H	1.698760	-0.170446	0.067477
H253	H	1.408222	-0.454001	-0.592441
H254	H	1.908222	0.045999	-0.092441
F255	F	1.184628	-0.301831	-0.563243
F256	F	1.684628	0.198169	-0.063243
H257	H	1.199042	-0.311628	-0.670561
H258	H	1.699042	0.188372	-0.170561
F259	F	1.126997	-0.262556	-0.921359
F260	F	1.626997	0.237444	-0.421359
F261	F	1.184693	-0.301745	-1.065586
F262	F	1.684693	0.198255	-0.565586
H263	H	1.199126	-0.311540	-1.172925
H264	H	1.699126	0.188460	-0.672925
H265	H	0.818778	-0.495367	-0.494546
H266	H	1.318778	0.004633	0.005454
