data_functionalizedCrystal
_audit_creation_method	'MofGen! by Chris Wilmer'
_symmetry_space_group_name_H-M	'P1'
_symmetry_Int_Tables_number	1
_symmetry_cell_setting	triclinic
loop_
_symmetry_equiv_pos_as_xyz
  x,y,z
_cell_length_a	21.395364
_cell_length_b	12.645330
_cell_length_c	12.645331
_cell_angle_alpha	90.012816
_cell_angle_beta	90.009812
_cell_angle_gamma	90.027597
loop_
_atom_site_label
_atom_site_type_symbol
_atom_site_fract_x
_atom_site_fract_y
_atom_site_fract_z
Zn1	Zn	0.957847	-0.421757	0.599425
Zn2	Zn	1.291180	-0.088423	0.932758
Zn3	Zn	1.624513	0.244910	1.266092
Zn4	Zn	0.957809	-0.599001	0.422159
Zn5	Zn	1.291142	-0.265667	0.755492
Zn6	Zn	1.624476	0.067666	1.088825
Zn7	Zn	0.853089	-0.421798	0.422170
Zn8	Zn	1.186422	-0.088465	0.755503
Zn9	Zn	1.519755	0.244869	1.088837
Zn10	Zn	0.853064	-0.599025	0.599374
Zn11	Zn	1.186397	-0.265691	0.932708
Zn12	Zn	1.519731	0.067642	1.266041
O13	O	0.905452	-0.510395	0.510782
O14	O	1.238785	-0.177062	0.844115
O15	O	1.572119	0.156272	1.177449
O16	O	1.045520	-0.445241	0.575927
O17	O	1.378853	-0.111908	0.909260
O18	O	1.712186	0.221426	1.242593
O19	O	0.943912	-0.575501	0.273813
O20	O	1.277246	-0.242168	0.607146
O21	O	1.610579	0.091165	0.940480
O22	O	0.867011	-0.273445	0.445709
O23	O	1.200344	0.059888	0.779043
O24	O	1.533678	0.393222	1.112376
O25	O	1.045492	-0.575461	0.445690
O26	O	1.378825	-0.242128	0.779023
O27	O	1.712159	0.091205	1.112356
O28	O	0.943976	-0.273415	0.575938
O29	O	1.277310	0.059919	0.909271
O30	O	1.610643	0.393252	1.242604
O31	O	0.866975	-0.445311	0.273821
O32	O	1.200308	-0.111978	0.607155
O33	O	1.533641	0.221355	0.940488
O34	O	0.765407	-0.445335	0.445660
O35	O	1.098741	-0.112001	0.778994
O36	O	1.432074	0.221332	1.112327
O37	O	0.866969	-0.575502	0.747728
O38	O	1.200302	-0.242169	1.081062
O39	O	1.533636	0.091164	1.414395
O40	O	0.765389	-0.575542	0.575851
O41	O	1.098723	-0.242209	0.909185
O42	O	1.432056	0.091124	1.242518
O43	O	0.943952	-0.445264	0.747765
O44	O	1.277286	-0.111931	1.081099
O45	O	1.610619	0.221402	1.414432
O46	O	0.943888	-0.747351	0.445641
O47	O	1.277222	-0.414018	0.778974
O48	O	1.610555	-0.080684	1.112307
O49	O	0.866932	-0.747369	0.575840
O50	O	1.200266	-0.414035	0.909174
O51	O	1.533599	-0.080702	1.242507
C52	C	0.742664	-0.510446	0.510752
C53	C	1.075998	-0.177113	0.844086
C54	C	1.409331	0.156220	1.177419
C55	C	0.673023	-0.510494	0.510765
C56	C	1.006357	-0.177161	0.844098
C57	C	1.339690	0.156173	1.177431
C58	C	0.640347	-0.442799	0.578684
C59	C	0.973680	-0.109466	0.912017
C60	C	1.307013	0.223867	1.245350
C61	C	0.574911	-0.442771	0.578688
C62	C	0.908245	-0.109438	0.912021
C63	C	1.241578	0.223896	1.245355
C64	C	0.542155	-0.510457	0.510784
C65	C	0.875488	-0.177123	0.844117
C66	C	1.208822	0.156210	1.177451
C67	C	0.574839	-0.578156	0.442852
C68	C	0.908172	-0.244823	0.776185
C69	C	1.241506	0.088511	1.109518
C70	C	0.640273	-0.578175	0.442842
C71	C	0.973607	-0.244842	0.776175
C72	C	1.306940	0.088492	1.109509
C73	C	0.438450	-0.605924	0.502267
C74	C	0.771783	-0.272591	0.835601
C75	C	1.105116	0.060742	1.168934
C76	C	0.373017	-0.605908	0.502284
C77	C	0.706350	-0.272574	0.835618
C78	C	1.039683	0.060759	1.168951
C79	C	0.340334	-0.510398	0.510808
C80	C	0.673667	-0.177065	0.844141
C81	C	1.007001	0.156268	1.177474
C82	C	0.373093	-0.414903	0.519336
C83	C	0.706426	-0.081570	0.852669
C84	C	1.039759	0.251764	1.186002
C85	C	0.438527	-0.414922	0.519326
C86	C	0.771860	-0.081588	0.852659
C87	C	1.105193	0.251745	1.185993
C88	C	0.471202	-0.510443	0.510786
C89	C	0.804536	-0.177110	0.844120
C90	C	1.137869	0.156223	1.177453
C91	C	0.236705	-0.442667	0.578735
C92	C	0.570039	-0.109334	0.912068
C93	C	0.903372	0.223999	1.245401
C94	C	0.171269	-0.442637	0.578731
C95	C	0.504602	-0.109304	0.912065
C96	C	0.837935	0.224029	1.245398
C97	C	0.171198	-0.578032	0.442901
C98	C	0.504531	-0.244698	0.776234
C99	C	0.837864	0.088635	1.109567
C100	C	0.236633	-0.578052	0.442898
C101	C	0.569966	-0.244719	0.776232
C102	C	0.903300	0.088614	1.109565
C103	C	0.269383	-0.510371	0.510821
C104	C	0.602716	-0.177038	0.844154
C105	C	0.936049	0.156295	1.177488
C106	C	0.905421	-0.785825	0.510757
C107	C	1.238754	-0.452491	0.844090
C108	C	1.572087	-0.119158	1.177424
C109	C	0.905465	-0.903655	0.510782
C110	C	1.238798	-0.570321	0.844115
C111	C	1.572131	-0.236988	1.177448
C112	C	0.953800	-1.071163	0.428707
C113	C	1.287133	-0.737830	0.762040
C114	C	1.620467	-0.404497	1.095373
C115	C	0.953957	-0.948603	0.428908
C116	C	1.287291	-0.615270	0.762241
C117	C	1.620624	-0.281936	1.095574
C118	C	0.923358	-0.948057	0.622526
C119	C	1.256692	-0.614723	0.955860
C120	C	1.590025	-0.281390	1.289193
C121	C	0.923742	-1.070654	0.622091
C122	C	1.257075	-0.737321	0.955424
C123	C	1.590408	-0.403988	1.288757
C124	C	0.839217	-1.071004	0.482213
C125	C	1.172550	-0.737671	0.815546
C126	C	1.505883	-0.404338	1.148880
C127	C	0.839534	-0.948399	0.479707
C128	C	1.172868	-0.615066	0.813040
C129	C	1.506201	-0.281732	1.146374
C130	C	1.068875	-0.510344	0.510812
C131	C	1.402209	-0.177011	0.844146
C132	C	1.735542	0.156323	1.177479
C133	C	1.138517	-0.510322	0.510825
C134	C	1.471850	-0.176989	0.844159
C135	C	1.805183	0.156345	1.177492
C136	C	0.905462	-0.510381	0.787287
C137	C	1.238795	-0.177048	1.120621
C138	C	1.572129	0.156285	1.453954
C139	C	0.905466	-0.510376	0.905117
C140	C	1.238800	-0.177042	1.238451
C141	C	1.572133	0.156291	1.571784
C142	C	0.905501	-0.233890	0.510830
C143	C	1.238834	0.099444	0.844164
C144	C	1.572167	0.432777	1.177497
C145	C	0.905521	-0.116060	0.510851
C146	C	1.238855	0.217274	0.844184
C147	C	1.572188	0.550607	1.177518
C148	C	0.954063	-0.428742	1.072705
C149	C	1.287396	-0.095408	1.406038
C150	C	1.620729	0.237925	1.739371
C151	C	0.953923	-0.428402	0.950145
C152	C	1.287257	-0.095069	1.283478
C153	C	1.620590	0.238265	1.616811
C154	C	0.839451	-0.480063	0.949597
C155	C	1.172784	-0.146730	1.282930
C156	C	1.506118	0.186603	1.616263
C157	C	0.839730	-0.479488	1.072195
C158	C	1.173063	-0.146155	1.405529
C159	C	1.506397	0.187179	1.738862
C160	C	0.922299	-0.622581	1.072311
C161	C	1.255632	-0.289248	1.405644
C162	C	1.588965	0.044086	1.738977
C163	C	0.923759	-0.621971	0.949705
C164	C	1.257093	-0.288638	1.283039
C165	C	1.590426	0.044695	1.616372
C166	C	0.905445	-0.510424	1.235352
C167	C	1.238778	-0.177091	1.568686
C168	C	1.572111	0.156242	1.902019
C169	C	0.905461	-0.510407	1.117522
C170	C	1.238795	-0.177074	1.450856
C171	C	1.572128	0.156260	1.784189
H172	H	0.346484	-0.337130	0.526276
H173	H	0.679817	-0.003797	0.859610
H174	H	1.013151	0.329537	1.192943
H175	H	0.822942	-1.102001	0.402148
H176	H	1.156275	-0.768667	0.735481
H177	H	1.489609	-0.435334	1.068815
H178	H	0.886903	-0.683429	1.101301
H179	H	1.220237	-0.350096	1.434635
H180	H	1.553570	-0.016762	1.767968
H181	H	0.824927	-0.398958	0.918905
H182	H	1.158261	-0.065624	1.252238
H183	H	1.491594	0.267709	1.585571
H184	H	0.465054	-0.683705	0.495326
H185	H	0.798388	-0.350372	0.828659
H186	H	1.131721	-0.017039	1.161992
Br187	Br	1.003224	-0.896720	0.663638
Br188	Br	1.336558	-0.563387	0.996971
Br189	Br	1.669891	-0.230053	1.330305
H190	H	0.972207	-1.099152	0.646349
H191	H	1.305540	-0.765818	0.979682
H192	H	1.638874	-0.432485	1.313015
Br193	Br	0.328565	-0.735508	0.490733
Br194	Br	0.661899	-0.402174	0.824067
Br195	Br	0.995232	-0.068841	1.157400
H196	H	0.890117	-1.100352	0.685403
H197	H	1.223451	-0.767019	1.018737
H198	H	1.556784	-0.433686	1.352070
Br199	Br	0.817040	-0.900041	0.342646
Br200	Br	1.150374	-0.566708	0.675980
Br201	Br	1.483707	-0.233374	1.009313
H202	H	0.667008	-0.387687	0.633991
H203	H	1.000341	-0.054354	0.967324
H204	H	1.333674	0.278979	1.300658
Br205	Br	0.866528	-0.899550	0.727273
Br206	Br	1.199862	-0.566217	1.060607
Br207	Br	1.533195	-0.232884	1.393940
H208	H	0.803245	-1.100043	0.542042
H209	H	1.136578	-0.766709	0.875375
H210	H	1.469912	-0.433376	1.208709
H211	H	0.548301	-0.387641	0.633994
H212	H	0.881634	-0.054307	0.967327
H213	H	1.214968	0.279026	1.300661
H214	H	0.890942	-0.686066	0.919051
H215	H	1.224275	-0.352732	1.252384
H216	H	1.557609	-0.019399	1.585717
Br217	Br	1.004734	-0.660072	0.901264
Br218	Br	1.338068	-0.326739	1.234597
Br219	Br	1.671401	0.006595	1.567931
H220	H	0.263238	-0.633181	0.387596
H221	H	0.596572	-0.299848	0.720929
H222	H	0.929905	0.033486	1.054262
Br223	Br	0.482983	-0.285329	0.530896
Br224	Br	0.816317	0.048005	0.864230
Br225	Br	1.149650	0.381338	1.197563
H226	H	0.263372	-0.387551	0.634035
H227	H	0.596705	-0.054217	0.967368
H228	H	0.930038	0.279116	1.300701
H229	H	1.002874	-0.447381	0.920073
H230	H	1.336207	-0.114048	1.253406
H231	H	1.669541	0.219286	1.586740
H232	H	0.801624	-0.917815	0.535150
H233	H	1.134957	-0.584482	0.868483
H234	H	1.468290	-0.251148	1.201817
Br235	Br	0.530386	-0.670008	0.350687
Br236	Br	0.863719	-0.336674	0.684021
Br237	Br	1.197053	-0.003341	1.017354
H238	H	0.802286	-0.536383	1.101841
H239	H	1.135619	-0.203049	1.435174
H240	H	1.468953	0.130284	1.768507
H241	H	0.144665	-0.387506	0.634038
H242	H	0.477998	-0.054172	0.967371
H243	H	0.811331	0.279161	1.300704
Br244	Br	0.126750	-0.669881	0.350732
Br245	Br	0.460083	-0.336548	0.684065
Br246	Br	0.793416	-0.003215	1.017399
H247	H	1.003168	-0.447504	1.102197
H248	H	1.336501	-0.114170	1.435530
H249	H	1.669834	0.219163	1.768863
H250	H	0.943057	-0.346103	1.103531
H251	H	1.276391	-0.012770	1.436865
H252	H	1.609724	0.320563	1.770198
H253	H	0.802262	-0.537696	0.920428
H254	H	1.135595	-0.204362	1.253761
H255	H	1.468929	0.128971	1.587095
Br256	Br	0.935356	-0.289862	0.901283
Br257	Br	1.268689	0.043472	1.234616
Br258	Br	1.602022	0.376805	1.567949
H259	H	0.942763	-0.918584	0.346051
H260	H	1.276097	-0.585251	0.679384
H261	H	1.609430	-0.251918	1.012717
H262	H	0.969587	-0.650209	1.103295
H263	H	1.302921	-0.316876	1.436628
H264	H	1.636254	0.016457	1.769962
Br265	Br	0.684623	-0.670048	0.350653
Br266	Br	1.017957	-0.336715	0.683987
Br267	Br	1.351290	-0.003382	1.017320
Br268	Br	0.935382	-1.120397	0.290196
Br269	Br	1.268715	-0.787064	0.623529
Br270	Br	1.602048	-0.453730	0.956863
H271	H	1.003067	-0.919178	0.447850
H272	H	1.336401	-0.585845	0.781183
H273	H	1.669734	-0.252511	1.114516
Br274	Br	1.035216	-1.122348	0.459920
Br275	Br	1.368550	-0.789015	0.793253
Br276	Br	1.701883	-0.455682	1.126586
Br277	Br	0.815911	-0.342836	1.119891
Br278	Br	1.149245	-0.009502	1.453225
Br279	Br	1.482578	0.323831	1.786558
