data_functionalizedCrystal
_audit_creation_method	'MofGen! by Chris Wilmer'
_symmetry_space_group_name_H-M	'P1'
_symmetry_Int_Tables_number	1
_symmetry_cell_setting	triclinic
loop_
_symmetry_equiv_pos_as_xyz
  x,y,z
_cell_length_a	27.731994
_cell_length_b	27.732025
_cell_length_c	9.616153
_cell_angle_alpha	90.012260
_cell_angle_beta	89.999246
_cell_angle_gamma	82.627001
loop_
_atom_site_label
_atom_site_type_symbol
_atom_site_fract_x
_atom_site_fract_y
_atom_site_fract_z
O1	O	0.640942	0.057391	-0.115406
O2	O	0.500144	0.066164	-0.115446
O3	O	0.574921	-0.008621	-0.115467
O4	O	0.566164	0.132176	-0.115385
O5	O	0.574911	-0.008619	0.115825
O6	O	0.500133	0.066166	0.115846
O7	O	0.640931	0.057393	0.115886
Zn8	Zn	0.570531	0.061779	0.152588
Zn9	Zn	0.570544	0.061777	-0.152148
O10	O	0.566154	0.132177	0.115907
C11	C	0.482131	0.065985	0.000194
C12	C	0.428475	0.065442	0.000176
C13	C	0.095751	0.062027	0.126305
C14	C	-0.105907	0.059966	0.126319
O15	O	-0.131984	0.059679	0.233543
N16	N	-0.131116	0.059709	0.000242
C17	C	-0.105907	0.059964	-0.125847
O18	O	-0.131976	0.059693	-0.233083
C19	C	0.095750	0.062022	-0.125860
C20	C	0.120956	0.062284	0.000225
C21	C	0.120957	0.062289	0.252380
C22	C	0.171368	0.062807	0.252375
C23	C	0.196573	0.063064	0.126295
C24	C	0.171367	0.062802	0.000220
C25	C	0.120959	0.062274	-0.251948
C26	C	0.171376	0.062787	-0.251941
C27	C	0.196582	0.063049	-0.125855
C28	C	0.246983	0.063577	-0.125865
N29	N	0.272193	0.063834	0.000212
C30	C	0.246988	0.063577	0.126292
C31	C	-0.211781	0.058885	-0.125831
C32	C	-0.262195	0.058371	-0.125828
C33	C	-0.262191	0.058372	0.126339
C34	C	-0.211776	0.058889	0.126334
C35	C	-0.186571	0.059141	0.000246
C36	C	0.352855	0.064666	0.126272
C37	C	0.403270	0.065186	0.126256
C38	C	0.403262	0.065182	-0.125910
C39	C	0.352851	0.064665	-0.125895
C40	C	0.327648	0.064405	0.000208
O41	O	0.273093	0.063858	-0.233032
O42	O	0.273066	0.063837	0.233512
C43	C	0.045340	0.061509	0.126310
C44	C	0.020134	0.061248	0.000235
C45	C	0.045339	0.061505	-0.125845
C46	C	-0.030280	0.060734	0.000238
C47	C	-0.055485	0.060478	0.126318
C48	C	-0.030276	0.060735	0.252395
C49	C	0.020135	0.061253	0.252390
C50	C	0.020130	0.061248	-0.251922
C51	C	-0.030281	0.060730	-0.251907
C52	C	-0.055486	0.060474	-0.125827
C53	C	0.574734	-0.026627	0.000165
C54	C	0.574186	-0.080283	0.000124
C55	C	0.570294	-0.463448	-0.125873
C56	C	0.572347	-0.261789	-0.125918
O57	O	0.572636	-0.235723	-0.233145
N58	N	0.572598	-0.236567	0.000156
C59	C	0.572339	-0.261763	0.126249
O60	O	0.572605	-0.235684	0.233481
C61	C	0.570290	-0.463422	0.126292
C62	C	0.570034	-0.488641	0.000210
C63	C	0.570039	-0.488667	-0.251945
C64	C	0.569523	-0.539079	-0.251932
C65	C	0.569263	-0.564271	-0.125849
C66	C	0.569518	-0.539052	0.000222
C67	C	0.570034	-0.488618	0.252384
C68	C	0.569523	-0.539036	0.252383
C69	C	0.569267	-0.564254	0.126302
C70	C	0.568742	-0.614656	0.126318
N71	N	0.568491	-0.639878	0.000245
C72	C	0.568751	-0.614686	-0.125838
C73	C	0.573414	-0.155890	0.126218
C74	C	0.573925	-0.105475	0.126207
C75	C	0.573934	-0.105505	-0.125960
C76	C	0.573419	-0.155920	-0.125948
C77	C	0.573163	-0.181112	0.000144
C78	C	0.567668	-0.720553	-0.125803
C79	C	0.567150	-0.770968	-0.125780
C80	C	0.567144	-0.770935	0.126387
C81	C	0.567659	-0.720523	0.126364
C82	C	0.567923	-0.695334	0.000258
O83	O	0.568458	-0.640754	0.233489
O84	O	0.568496	-0.640775	-0.233055
C85	C	0.570810	-0.413037	-0.125886
C86	C	0.571065	-0.387818	0.000185
C87	C	0.570805	-0.413010	0.126269
C88	C	0.571577	-0.337403	0.000175
C89	C	0.571837	-0.312211	-0.125908
C90	C	0.571586	-0.337433	-0.251982
C91	C	0.571070	-0.387844	-0.251969
C92	C	0.571056	-0.387788	0.252342
C93	C	0.571571	-0.337377	0.252320
C94	C	0.571832	-0.312184	0.126236
C95	C	0.658944	0.057572	0.000243
C96	C	0.712600	0.058114	0.000251
C97	C	0.566341	0.150184	0.000272
C98	C	0.566890	0.203839	0.000304
N99	N	0.570525	0.061781	0.360563
N100	N	0.570554	0.061772	-0.360123
C101	C	0.530406	0.101655	0.580944
C102	C	0.530491	0.101801	0.419776
C103	C	0.620882	0.072411	0.419035
C104	C	0.620663	0.072692	0.580253
C105	C	0.560793	0.011138	0.580440
C106	C	0.559627	0.011487	0.419214
H107	H	0.191887	0.063017	0.355047
Cl108	Cl	0.634031	0.129687	0.638331
Cl109	Cl	0.567998	-0.688894	-0.284339
Cl110	Cl	-0.180102	0.059204	-0.284360
Cl111	Cl	0.434958	0.065502	-0.284402
H112	H	0.040653	0.061466	0.355061
H113	H	0.629756	0.108904	0.378669
Cl114	Cl	0.566813	-0.802614	0.284883
H115	H	0.571795	-0.316912	-0.354644
Cl116	Cl	-0.061972	0.060414	0.410893
H117	H	0.524893	0.000819	0.621160
Cl118	Cl	0.321180	0.064339	0.284803
H119	H	0.100441	0.062079	0.355055
Cl120	Cl	-0.293877	0.058051	-0.284342
Cl121	Cl	0.606000	-0.034679	0.639276
Cl122	Cl	0.539838	0.159357	0.643476
Cl123	Cl	0.051808	0.061571	-0.410440
H124	H	0.423790	0.065400	0.228934
H125	H	0.569315	-0.559545	0.355065
H126	H	0.522586	0.003410	0.380997
H127	H	0.586995	-0.019552	0.378909
H128	H	-0.191257	0.059103	0.229004
Cl129	Cl	0.321161	0.064343	-0.284403
H130	H	-0.282721	0.058164	0.228998
Cl131	Cl	-0.061963	0.060404	-0.410431
H132	H	0.536681	0.139385	0.381221
H133	H	0.569318	-0.559608	-0.354601
H134	H	0.574143	-0.084984	-0.228622
H135	H	0.100445	0.062060	-0.354621
Cl136	Cl	0.668098	0.029472	0.640444
H137	H	0.191895	0.062993	-0.354620
Cl138	Cl	0.570750	-0.419541	-0.410481
Cl139	Cl	0.570366	-0.457006	-0.410472
Cl140	Cl	0.566827	-0.802669	-0.284294
H141	H	0.571775	-0.316847	0.354998
Cl142	Cl	0.573099	-0.187618	-0.284456
Cl143	Cl	0.574235	-0.073776	0.284717
Cl144	Cl	0.570727	-0.419451	0.410865
H145	H	0.573205	-0.176396	0.228903
H146	H	0.570248	-0.468094	0.355053
H147	H	0.567848	-0.699987	0.229030
H148	H	0.651452	0.044120	0.380675
H149	H	0.493047	0.095524	0.380246
H150	H	0.492843	0.095487	0.619739
