data_functionalizedCrystal
_audit_creation_method	'MofGen! by Chris Wilmer'
_symmetry_space_group_name_H-M	'P1'
_symmetry_Int_Tables_number	1
_symmetry_cell_setting	triclinic
loop_
_symmetry_equiv_pos_as_xyz
  x,y,z
_cell_length_a	10.723024
_cell_length_b	17.699083
_cell_length_c	16.176319
_cell_angle_alpha	89.999648
_cell_angle_beta	90.007092
_cell_angle_gamma	96.124558
loop_
_atom_site_label
_atom_site_type_symbol
_atom_site_fract_x
_atom_site_fract_y
_atom_site_fract_z
O1	O	-1.655373	0.106155	-0.068728
O2	O	-1.292047	0.116315	-0.068730
O3	O	-1.483975	0.001110	-0.068737
O4	O	-1.463445	0.221359	-0.068721
O5	O	-1.483949	0.001103	0.068756
O6	O	-1.292020	0.116308	0.068763
O7	O	-1.655347	0.106147	0.068765
Cu8	Cu	-1.473681	0.111227	0.081318
Cu9	Cu	-1.473712	0.111236	-0.081283
O10	O	-1.463419	0.221352	0.068772
C11	C	-1.245547	0.115572	0.000016
C12	C	-1.107030	0.113360	0.000015
C13	C	-1.483226	-0.027095	0.000006
C14	C	-1.481019	-0.111127	-0.000006
C15	C	-1.701847	0.106890	0.000017
C16	C	-1.840363	0.109102	0.000013
C17	C	-1.030942	0.177822	0.000019
C18	C	-0.887778	0.175537	0.000018
C19	C	-1.464168	0.249557	0.000028
C20	C	-1.466374	0.333589	0.000034
N21	N	-1.473668	0.111220	0.195684
C22	C	-1.353717	0.381500	0.000033
C23	C	-1.355798	0.460456	0.000024
C24	C	-1.470538	0.491501	0.000020
C25	C	-1.583204	0.443584	0.000018
C26	C	-1.581122	0.364629	0.000022
C27	C	-1.591605	0.762000	0.000002
C28	C	-1.593678	0.840961	0.000001
C29	C	-1.366280	0.857827	0.000003
C30	C	-1.364198	0.778872	0.000007
C31	C	-1.476864	0.730962	0.000001
C32	C	-1.474606	0.645349	0.000010
C33	C	-1.472797	0.577112	0.000017
N34	N	-1.473735	0.111236	-0.195648
C35	C	-1.558680	0.060228	0.238945
C36	C	-1.558686	0.060228	0.325492
C37	C	-1.473686	0.111223	0.368776
C38	C	-1.388666	0.162217	0.325509
C39	C	-1.388654	0.162213	0.238964
C40	C	-1.388708	0.162231	0.674538
C41	C	-1.388729	0.162232	0.761089
C42	C	-1.558740	0.060246	0.761066
C43	C	-1.558729	0.060242	0.674520
C44	C	-1.473705	0.111233	0.631261
C45	C	-1.473697	0.111232	0.537416
C46	C	-1.473699	0.111228	0.462619
H47	H	-0.822399	0.230722	0.000018
C48	C	-1.313202	0.207525	0.541888
C49	C	-1.295272	0.218291	0.626993
H50	H	-1.255514	0.242137	0.512535
H51	H	-1.396442	0.216200	0.527698
H52	H	-1.299789	0.156938	0.527713
H53	H	-1.308695	0.268877	0.641169
H54	H	-1.212013	0.209622	0.641189
H55	H	-1.319428	0.203735	0.203741
H56	H	-1.071789	0.234703	0.000028
H57	H	-1.676628	0.468867	0.000017
H58	H	-1.687119	0.866234	-0.000003
H59	H	-1.319451	0.203735	0.360757
C60	C	-1.632430	-0.070378	0.787699
C61	C	-1.652188	0.004185	0.808619
H62	H	-1.690125	-0.104984	0.817053
H63	H	-1.549194	-0.079054	0.801897
H64	H	-1.644592	-0.077665	0.729960
H65	H	-1.640017	0.011473	0.866358
H66	H	-1.735445	0.012864	0.794427
H67	H	-1.627948	0.018720	0.639280
C68	C	-1.139625	0.803476	-0.000001
C69	C	-1.238072	0.744749	0.000007
H70	H	-1.061761	0.782409	-0.000009
H71	H	-1.145152	0.833920	0.047943
H72	H	-1.145188	0.833921	-0.047951
H73	H	-1.232515	0.714308	0.047961
H74	H	-1.232543	0.714292	-0.047942
H75	H	-1.319507	0.203760	0.796330
C76	C	-1.721220	0.663440	-0.070686
C77	C	-1.715450	0.709349	-0.000003
H78	H	-1.797686	0.630938	-0.070691
H79	H	-1.652605	0.633648	-0.070678
H80	H	-1.717301	0.694602	-0.118626
H81	H	-1.719359	0.678187	0.047937
H82	H	-1.784083	0.739144	-0.000003
H83	H	-0.905735	0.053914	0.000004
C84	C	-1.632417	-0.070385	0.352121
C85	C	-1.652152	0.004182	0.373037
H86	H	-1.690131	-0.104984	0.381468
H87	H	-1.549189	-0.079073	0.366327
H88	H	-1.644568	-0.077670	0.294380
H89	H	-1.639992	0.011469	0.430777
H90	H	-1.735399	0.012873	0.358837
C91	C	-0.977989	0.031230	-0.070676
C92	C	-1.051906	0.036567	0.000006
H93	H	-0.943969	-0.016182	-0.070683
H94	H	-0.911708	0.071371	-0.070666
H95	H	-1.028172	0.034869	-0.118617
H96	H	-1.001721	0.032934	0.047947
H97	H	-1.118197	-0.003585	0.000003
C98	C	-1.129146	0.406110	0.000024
C99	C	-1.227588	0.347380	0.000032
H100	H	-1.051279	0.385046	0.000015
H101	H	-1.134674	0.436554	0.047967
H102	H	-1.134713	0.436554	-0.047927
H103	H	-1.222027	0.316939	0.047986
H104	H	-1.222057	0.316923	-0.047916
C105	C	-1.226210	0.559019	-0.070664
C106	C	-1.231956	0.513116	0.000022
H107	H	-1.149746	0.591524	-0.070667
H108	H	-1.294828	0.588808	-0.070663
H109	H	-1.230137	0.527853	-0.118601
H110	H	-1.228038	0.544281	0.047960
H111	H	-1.163319	0.483324	0.000029
H112	H	-1.672860	0.325621	0.000019
C113	C	-1.236688	0.956395	-0.070688
C114	C	-1.242431	0.910491	-0.000002
H115	H	-1.160226	0.988902	-0.070691
H116	H	-1.305309	0.986182	-0.070686
H117	H	-1.240613	0.925231	-0.118626
H118	H	-1.238515	0.941656	0.047936
H119	H	-1.173791	0.880701	0.000004
H120	H	-1.627902	0.018706	0.203708
