data_functionalizedCrystal
_audit_creation_method	'MofGen! by Chris Wilmer'
_symmetry_space_group_name_H-M	'P1'
_symmetry_Int_Tables_number	1
_symmetry_cell_setting	triclinic
loop_
_symmetry_equiv_pos_as_xyz
  x,y,z
_cell_length_a	12.594516
_cell_length_b	19.077142
_cell_length_c	19.076919
_cell_angle_alpha	89.925643
_cell_angle_beta	92.277239
_cell_angle_gamma	92.288207
loop_
_atom_site_label
_atom_site_type_symbol
_atom_site_fract_x
_atom_site_fract_y
_atom_site_fract_z
Zn1	Zn	-0.514956	-1.058318	-0.440485
Zn2	Zn	-0.686095	-1.062974	-0.322990
Zn3	Zn	-0.500695	-0.945534	-0.318274
Zn4	Zn	-0.685450	-0.940795	-0.435738
O5	O	-0.596799	-1.001905	-0.379372
O6	O	-0.543896	-1.157267	-0.428860
O7	O	-0.655803	-1.051327	-0.224033
O8	O	-0.353644	-0.960530	-0.334499
O9	O	-0.669631	-1.160688	-0.342536
O10	O	-0.364121	-1.043391	-0.424287
O11	O	-0.519590	-0.965045	-0.220568
O12	O	-0.518965	-0.846573	-0.329896
O13	O	-0.668532	-0.952453	-0.534699
O14	O	-0.654704	-0.843092	-0.416196
O15	O	-0.543271	-1.038796	-0.538187
O16	O	-0.834952	-1.046732	-0.337932
O17	O	-0.834478	-0.956968	-0.420768
C18	C	-0.585217	-0.819336	-0.372019
C19	C	-0.580289	-0.741232	-0.368891
C20	C	-0.648745	-0.702747	-0.412282
C21	C	-0.644100	-0.629359	-0.409346
C22	C	-0.571005	-0.594458	-0.363014
C23	C	-0.502543	-0.632948	-0.319621
C24	C	-0.507182	-0.706334	-0.322561
C25	C	-0.549535	-0.375169	-0.349413
C26	C	-0.544902	-0.301777	-0.346474
C27	C	-0.686459	-0.298193	-0.436200
C28	C	-0.691097	-0.371581	-0.439134
C29	C	-0.622630	-0.410065	-0.395743
N30	N	-0.566259	-0.519444	-0.360010
N31	N	-0.627373	-0.485077	-0.398751
C32	C	-0.873337	-1.001859	-0.379363
C33	C	-0.991646	-1.001903	-0.379385
C34	C	-1.060678	-0.953077	-0.424407
C35	C	-1.126712	-0.938537	-0.359601
C36	C	-1.136416	-1.016508	-0.444205
C37	C	-1.056118	-0.987330	-0.314544
C38	C	-1.065820	-1.065329	-0.399193
C39	C	-1.131821	-1.050814	-0.334344
C40	C	-0.319184	-1.001970	-0.379397
C41	C	-0.200880	-1.001997	-0.379407
C42	C	-0.607420	-0.994577	-0.562652
C43	C	-0.611947	-0.991454	-0.640756
C44	C	-0.608420	-0.185188	-0.386745
C45	C	-0.613357	-0.263292	-0.389866
C46	C	-0.548859	-1.034939	-0.679266
C47	C	-0.553108	-1.031996	-0.752652
C48	C	-0.620450	-0.985571	-0.787526
C49	C	-0.683539	-0.942082	-0.749011
C50	C	-0.679285	-0.945021	-0.675626
C51	C	-0.640162	-0.971955	-1.006808
C52	C	-0.644414	-0.969020	-1.080198
C53	C	-0.513981	-1.058933	-1.083834
C54	C	-0.509737	-1.061872	-1.010448
C55	C	-0.572822	-1.018380	-0.971939
N56	N	-0.624796	-0.982563	-0.862539
N57	N	-0.568469	-1.021385	-0.896928
C58	C	-0.586144	-1.009246	-0.196806
C59	C	-0.581327	-1.012505	-0.118708
H60	H	-0.485367	-0.273363	-0.308749
H61	H	-1.153649	-0.884942	-0.342864
H62	H	-1.038886	-1.118910	-0.415959
H63	H	-0.699845	-0.598027	-0.444679
N64	N	-1.182922	-1.032825	-0.516803
H65	H	-1.229587	-1.077060	-0.515273
H66	H	-1.226761	-0.992559	-0.533884
H67	H	-0.750621	-0.399992	-0.476860
H68	H	-0.501738	-1.067407	-0.784004
N69	N	-0.727591	-0.740388	-0.462250
H70	H	-0.770250	-0.704869	-0.489293
H71	H	-0.688157	-0.769548	-0.496037
H72	H	-0.454903	-1.099678	-0.982058
H73	H	-1.029441	-0.911718	-0.462419
H74	H	-1.021130	-0.974953	-0.259718
H75	H	-0.494026	-1.072745	-0.650876
H76	H	-0.493792	-0.406494	-0.314076
N77	N	-0.717012	-0.918919	-1.117812
H78	H	-0.710125	-0.923654	-1.170144
H79	H	-0.792989	-0.930326	-1.105428
H80	H	-0.742199	-0.266852	-0.471527
N81	N	-1.172933	-1.105567	-0.283871
H82	H	-1.143449	-1.094481	-0.234956
H83	H	-1.253156	-1.105560	-0.284512
N84	N	-0.445925	-1.105828	-1.125370
H85	H	-0.402617	-1.135681	-1.092141
H86	H	-0.493071	-1.137119	-1.157128
N87	N	-0.708165	-0.925025	-0.965278
H88	H	-0.751460	-0.895165	-0.998508
H89	H	-0.757482	-0.954810	-0.935963
N90	N	-0.433342	-0.747847	-0.275766
H91	H	-0.386332	-0.714603	-0.245968
H92	H	-0.476622	-0.779587	-0.244418
N93	N	-0.756149	-0.891993	-0.786621
H94	H	-0.749269	-0.896725	-0.838954
H95	H	-0.832120	-0.903412	-0.774232
N96	N	-0.423723	-0.595304	-0.269638
H97	H	-0.374199	-0.563716	-0.297018
H98	H	-0.463191	-0.566196	-0.235824
H99	H	-0.730646	-0.909604	-0.644272
