data_functionalizedCrystal
_audit_creation_method	'MofGen! by Chris Wilmer'
_symmetry_space_group_name_H-M	'P1'
_symmetry_Int_Tables_number	1
_symmetry_cell_setting	triclinic
loop_
_symmetry_equiv_pos_as_xyz
  x,y,z
_cell_length_a	12.645331
_cell_length_b	19.120786
_cell_length_c	12.645323
_cell_angle_alpha	92.471912
_cell_angle_beta	90.015738
_cell_angle_gamma	92.464644
loop_
_atom_site_label
_atom_site_type_symbol
_atom_site_fract_x
_atom_site_fract_y
_atom_site_fract_z
Zn1	Zn	1.602668	-0.279639	0.581191
Zn2	Zn	2.102668	0.220361	1.081191
Zn3	Zn	1.594962	-0.397105	0.396346
Zn4	Zn	2.094962	0.102895	0.896346
Zn5	Zn	1.425381	-0.279664	0.403956
Zn6	Zn	1.925381	0.220336	0.903956
Zn7	Zn	1.417779	-0.397060	0.573586
Zn8	Zn	1.917779	0.102940	1.073586
O9	O	1.510197	-0.338367	0.488770
O10	O	2.010197	0.161633	0.988770
O11	O	1.749992	-0.295230	0.556670
O12	O	2.249992	0.204770	1.056670
O13	O	1.572423	-0.381555	0.249006
O14	O	2.072423	0.118445	0.749006
O15	O	1.455304	-0.181370	0.433834
O16	O	1.955304	0.318630	0.933834
O17	O	1.744330	-0.381532	0.420864
O18	O	2.244330	0.118468	0.920864
O19	O	1.585556	-0.181352	0.564049
O20	O	2.085556	0.318648	1.064049
O21	O	1.447832	-0.295272	0.254597
O22	O	1.947832	0.204728	0.754597
O23	O	1.276026	-0.295228	0.426459
O24	O	1.776026	0.204772	0.926459
O25	O	1.442349	-0.381454	0.722944
O26	O	1.942349	0.118546	1.222944
O27	O	1.270441	-0.381478	0.551086
O28	O	1.770441	0.118522	1.051086
O29	O	1.578186	-0.295186	0.728532
O30	O	2.078186	0.204814	1.228532
O31	O	1.565052	-0.495389	0.413489
O32	O	2.065052	0.004611	0.913489
O33	O	1.434876	-0.495356	0.543706
O34	O	1.934876	0.004644	1.043706
C35	C	1.234769	-0.338351	0.488773
C36	C	1.734769	0.161649	0.988773
C37	C	1.116938	-0.338361	0.488799
C38	C	1.616938	0.161639	0.988799
C39	C	0.945877	-0.392919	0.566755
C40	C	1.445877	0.107081	1.066755
C41	C	1.068448	-0.392743	0.567107
C42	C	1.568448	0.107257	1.067107
C43	C	1.077239	-0.264382	0.524098
C44	C	1.577239	0.235618	1.024098
C45	C	0.954619	-0.264715	0.524650
C46	C	1.454619	0.235285	1.024650
C47	C	0.948476	-0.357187	0.375324
C48	C	1.448476	0.142813	0.875324
C49	C	1.070978	-0.358805	0.375825
C50	C	1.570978	0.141195	0.875825
C51	C	1.498332	-0.520858	0.476970
C52	C	1.998332	-0.020858	0.976970
C53	C	1.493353	-0.598929	0.471957
C54	C	1.993353	-0.098929	0.971957
C55	C	1.558778	-0.635537	0.537453
C56	C	2.058778	-0.135537	1.037453
C57	C	1.554095	-0.708893	0.532745
C58	C	2.054095	-0.208893	1.032745
C59	C	1.483992	-0.745639	0.462535
C60	C	1.983992	-0.245639	0.962535
C61	C	1.418559	-0.709026	0.397037
C62	C	1.918559	-0.209026	0.897037
C63	C	1.423237	-0.635671	0.401751
C64	C	1.923237	-0.135671	0.901751
C65	C	1.466472	-0.967125	0.444912
C66	C	1.966472	-0.467125	0.944912
C67	C	1.461801	-1.040484	0.440201
C68	C	1.961801	-0.540484	0.940201
C69	C	1.597336	-1.040346	0.575911
C70	C	2.097336	-0.540346	1.075911
C71	C	1.602013	-0.966990	0.580614
C72	C	2.102013	-0.466990	1.080614
C73	C	1.536576	-0.930384	0.515120
C74	C	2.036576	-0.430384	1.015120
C75	C	1.479206	-0.820620	0.457719
C76	C	1.979206	-0.320620	0.957719
C77	C	1.541357	-0.855404	0.519942
C78	C	2.041357	-0.355404	1.019942
C79	C	1.786701	-0.338383	0.488766
C80	C	2.286701	0.161617	0.988766
C81	C	1.904531	-0.338390	0.488765
C82	C	2.404531	0.161610	0.988765
C83	C	1.510279	-0.338313	0.765279
C84	C	2.010279	0.161687	1.265279
C85	C	1.510314	-0.338289	0.883110
C86	C	2.010314	0.161711	1.383110
C87	C	1.522138	-0.155163	0.500639
C88	C	2.022138	0.344837	1.000639
C89	C	1.527226	-0.077092	0.505697
C90	C	2.027226	0.422908	1.005697
C91	C	1.510180	-0.338370	0.213340
C92	C	2.010180	0.161630	0.713340
C93	C	1.510364	-0.338196	0.095521
C94	C	2.010364	0.161804	0.595521
C95	C	1.424622	-0.392305	1.047175
C96	C	1.924622	0.107695	1.547175
C97	C	1.424820	-0.392572	0.924598
C98	C	1.924820	0.107428	1.424598
C99	C	1.620716	-0.358378	0.926319
C100	C	2.120716	0.141622	1.426319
C101	C	1.620243	-0.358717	1.048896
C102	C	2.120243	0.141283	1.548896
C103	C	1.486679	-0.263883	1.055117
C104	C	1.986679	0.236117	1.555117
C105	C	1.484158	-0.264329	0.932482
C106	C	1.984158	0.235671	1.432482
H107	H	1.103974	-0.321970	0.314213
H108	H	1.603974	0.178030	0.814213
H109	H	1.407828	-0.245571	1.087213
H110	H	1.907828	0.254429	1.587213
H111	H	1.641802	-0.412133	0.892156
H112	H	2.141802	0.087867	1.392156
H113	H	1.659097	-0.937073	0.637785
H114	H	2.159097	-0.437073	1.137785
H115	H	0.922025	-0.317469	0.317156
H116	H	1.422025	0.182531	0.817156
H117	H	0.912830	-0.447960	0.544283
H118	H	1.412830	0.052040	1.044283
H119	H	1.615868	-0.605623	0.594621
H120	H	2.115868	-0.105623	1.094621
H121	H	0.927656	-0.222631	0.470721
H122	H	1.427656	0.277369	0.970721
F123	F	1.615959	-0.816294	0.594668
F124	F	2.115959	-0.316294	1.094668
H125	H	1.342803	-0.380001	0.895318
H126	H	1.842803	0.119999	1.395318
H127	H	1.640879	-0.413041	1.073995
H128	H	2.140879	0.086959	1.573995
F129	F	1.118765	-0.243162	0.631543
F130	F	1.618765	0.256838	1.131543
H131	H	1.422130	-0.850547	0.400551
H132	H	1.922130	-0.350547	0.900551
H133	H	1.098601	-0.380303	0.651067
H134	H	1.598601	0.119697	1.151067
F135	F	1.377988	-0.244528	0.895751
F136	F	1.877988	0.255472	1.395751
F137	F	1.118842	-0.209833	0.452450
F138	F	1.618842	0.290167	0.952450
F139	F	1.623719	-0.747850	0.602467
F140	F	2.123719	-0.247850	1.102467
H141	H	0.914129	-0.410212	0.344158
H142	H	1.414129	0.089788	0.844158
H143	H	1.404709	-1.070401	0.383027
H144	H	1.904709	-0.570401	0.883027
H145	H	1.542427	-0.221883	0.904595
H146	H	2.042427	0.278117	1.404595
F147	F	1.317084	-0.376029	1.086753
F148	F	1.817084	0.123971	1.586753
H149	H	1.686103	-0.320214	0.899641
H150	H	2.186103	0.179786	1.399641
H151	H	1.096544	-0.413243	0.349290
H152	H	1.596544	0.086757	0.849290
F153	F	1.444289	-0.463856	1.082896
F154	F	1.944289	0.036144	1.582896
F155	F	1.568380	-0.211190	1.096431
F156	F	2.068380	0.288810	1.596431
H157	H	1.650610	-1.070159	0.629234
H158	H	2.150610	-0.570159	1.129234
F159	F	1.353601	-0.596711	0.332042
F160	F	1.853601	-0.096711	0.832042
H161	H	1.413193	-0.937325	0.391582
H162	H	1.913193	-0.437325	0.891582
F163	F	1.343940	-0.748136	0.322323
F164	F	1.843940	-0.248136	0.822323
H165	H	1.440066	-0.447664	0.891724
H166	H	1.940066	0.052336	1.391724
H167	H	0.915879	-0.380640	0.650221
H168	H	1.415879	0.119360	1.150221
F169	F	1.706196	-0.309410	1.090865
F170	F	2.206196	0.190590	1.590865
H171	H	1.094977	-0.447602	0.544436
H172	H	1.594977	0.052398	1.044436
H173	H	0.927074	-0.248772	0.607723
H174	H	1.427074	0.251228	1.107723
