data_functionalizedCrystal
_audit_creation_method	'MofGen! by Chris Wilmer'
_symmetry_space_group_name_H-M	'P1'
_symmetry_Int_Tables_number	1
_symmetry_cell_setting	triclinic
loop_
_symmetry_equiv_pos_as_xyz
  x,y,z
_cell_length_a	10.654559
_cell_length_b	10.654559
_cell_length_c	9.730223
_cell_angle_alpha	89.999563
_cell_angle_beta	90.001685
_cell_angle_gamma	95.511385
loop_
_atom_site_label
_atom_site_type_symbol
_atom_site_fract_x
_atom_site_fract_y
_atom_site_fract_z
O1	O	-0.176448	1.667833	-0.114299
O2	O	-0.193242	1.302356	-0.114300
O3	O	-0.002107	1.493492	-0.114289
O4	O	-0.367583	1.476697	-0.114310
O5	O	-0.002111	1.493490	0.114291
O6	O	-0.193247	1.302354	0.114280
O7	O	-0.176453	1.667831	0.114281
Zn8	Zn	-0.184850	1.485092	0.150573
Zn9	Zn	-0.184844	1.485095	-0.150591
O10	O	-0.367588	1.476695	0.114270
C11	C	-0.192009	1.255557	-0.000010
C12	C	-0.188312	1.116115	-0.000010
C13	C	-0.072300	1.064571	-0.000000
C14	C	-0.068835	0.933549	-0.000010
C15	C	-0.297403	0.905624	-0.000035
C16	C	-0.300867	1.036644	-0.000034
C17	C	0.040255	1.144042	0.000024
C18	C	0.156276	1.092499	0.000036
C19	C	0.159742	0.961477	0.000026
C20	C	0.047186	0.881997	0.000004
C21	C	-0.414383	1.477932	-0.000022
C22	C	-0.553826	1.481628	-0.000031
C23	C	-0.619348	1.483357	-0.124623
C24	C	-0.750370	1.486827	-0.124609
C25	C	-0.750337	1.486834	0.124602
C26	C	-0.619316	1.483373	0.124586
C27	C	-0.553858	1.481612	-0.249240
C28	C	-0.619380	1.483339	-0.373842
C29	C	-0.750402	1.486809	-0.373828
C30	C	-0.815901	1.488552	-0.249211
C31	C	0.044689	1.492255	0.000001
C32	C	0.184132	1.488559	-0.000000
C33	C	-0.177686	1.714630	-0.000012
C34	C	-0.181382	1.854072	-0.000021
N35	N	-0.184854	1.485099	0.356109
N36	N	-0.184830	1.485098	-0.356128
C37	C	-0.100248	1.569756	0.428040
C38	C	-0.100233	1.569753	0.571923
C39	C	-0.269440	1.400432	0.571931
C40	C	-0.269448	1.400430	0.428051
C41	C	-0.015654	1.654425	0.356098
C42	C	0.068958	1.739090	0.428029
C43	C	0.068973	1.739086	0.571912
C44	C	-0.015623	1.654418	0.643864
H45	H	-0.447174	1.478782	-0.249265
O46	O	0.151290	1.821146	0.641849
C47	C	0.229394	1.753224	0.725094
H48	H	0.232442	1.654166	0.681734
H49	H	0.190160	1.746981	0.834142
C50	C	0.359848	1.942940	0.780547
C51	C	0.363600	1.821278	0.727285
H52	H	0.442632	1.984921	0.781905
H53	H	0.307226	1.988702	0.724468
H54	H	0.327148	1.937721	0.871415
H55	H	0.396285	1.826500	0.636413
H56	H	0.416231	1.775519	0.783349
O57	O	-0.406648	0.828293	-0.000228
C58	C	-0.411492	0.751691	-0.118627
H59	H	-0.311748	0.744189	-0.158090
H60	H	-0.469225	0.795292	-0.201528
C61	C	-0.596043	0.628466	-0.034198
C62	C	-0.473534	0.619243	-0.082660
H63	H	-0.634318	0.546767	-0.012015
H64	H	-0.592783	0.680077	0.045568
H65	H	-0.644137	0.664805	-0.103290
H66	H	-0.425438	0.582919	-0.013562
H67	H	-0.476788	0.567623	-0.162413
H68	H	-0.338341	1.331494	0.369484
H69	H	0.254211	0.919515	0.000022
O70	O	0.265691	1.169570	0.000232
C71	C	0.336045	1.146062	0.118634
H72	H	0.306063	1.046962	0.158096
H73	H	0.318253	1.217863	0.201534
C74	C	0.514256	1.278979	0.034212
C75	C	0.477439	1.157258	0.082673
H76	H	0.601475	1.285891	0.012033
H77	H	0.466856	1.294821	-0.045556
H78	H	0.499419	1.338800	0.103304
H79	H	0.492261	1.097442	0.013576
H80	H	0.524845	1.141406	0.162429
H81	H	0.050017	0.775311	-0.000016
O82	O	-0.555721	1.481419	-0.494846
C83	C	-0.493183	1.370846	-0.502274
H84	H	-0.541944	1.296009	-0.431560
H85	H	-0.390885	1.392763	-0.468796
C86	C	-0.437300	1.413464	-0.737987
C87	C	-0.497196	1.321544	-0.651143
H88	H	-0.439770	1.383055	-0.829817
H89	H	-0.479429	1.487962	-0.732982
H90	H	-0.352057	1.431720	-0.710073
H91	H	-0.582441	1.303302	-0.679048
H92	H	-0.455082	1.247042	-0.656156
H93	H	-0.803745	1.488227	-0.475285
H94	H	-0.395334	1.078611	-0.000030
O95	O	-0.351445	1.318145	0.641975
C96	C	-0.283454	1.240068	0.725177
H97	H	-0.185641	1.289234	0.746722
H98	H	-0.274060	1.147174	0.669733
C99	C	-0.474138	1.153464	0.835392
C100	C	-0.354007	1.213855	0.861864
H101	H	-0.517660	1.137289	0.919705
H102	H	-0.519947	1.206062	0.779334
H103	H	-0.466293	1.076059	0.789186
H104	H	-0.361854	1.291265	0.908055
H105	H	-0.308201	1.161269	0.917934
O106	O	-0.814050	1.488290	0.245607
C107	C	-0.903117	1.381727	0.253042
H108	H	-0.872900	1.304799	0.182329
H109	H	-0.999419	1.408894	0.219568
C110	C	-0.948251	1.427022	0.488756
C111	C	-0.911132	1.332534	0.401914
H112	H	-0.953201	1.396680	0.580587
H113	H	-0.888249	1.498819	0.483746
H114	H	-1.028499	1.449653	0.460844
H115	H	-0.830879	1.309916	0.429816
H116	H	-0.971121	1.260732	0.406932
O117	O	0.151329	1.821202	0.358230
C118	C	0.275834	1.799703	0.393440
H119	H	0.277364	1.699140	0.432972
H120	H	0.312066	1.868969	0.476981
C121	C	0.358947	1.942005	0.217100
C122	C	0.360828	1.818489	0.265642
H123	H	0.411378	1.953598	0.138271
H124	H	0.275066	1.956494	0.193380
H125	H	0.389137	1.999713	0.286729
H126	H	0.330623	1.760784	0.196019
H127	H	0.444706	1.803991	0.289347
H128	H	-0.015595	1.654414	0.761023
H129	H	0.037446	1.250728	0.000036
H130	H	-0.922587	1.491388	-0.249209
H131	H	-0.565967	1.481962	0.226040
H132	H	-0.015661	1.654438	0.238941
