data_functionalizedCrystal
_audit_creation_method	'MofGen! by Chris Wilmer'
_symmetry_space_group_name_H-M	'P1'
_symmetry_Int_Tables_number	1
_symmetry_cell_setting	triclinic
loop_
_symmetry_equiv_pos_as_xyz
  x,y,z
_cell_length_a	15.624967
_cell_length_b	15.538191
_cell_length_c	14.185292
_cell_angle_alpha	97.879464
_cell_angle_beta	59.445144
_cell_angle_gamma	66.740751
loop_
_atom_site_label
_atom_site_type_symbol
_atom_site_fract_x
_atom_site_fract_y
_atom_site_fract_z
O1	O	0.301300	-1.256212	-0.026185
O2	O	0.183107	-0.971096	0.016815
O3	O	0.394001	-1.135097	-0.059918
O4	O	0.090406	-1.092210	0.050548
O5	O	0.456307	-1.183559	-0.249431
O6	O	0.245413	-1.019558	-0.172697
O7	O	0.363606	-1.304674	-0.215698
Cu8	Cu	0.310199	-1.166541	-0.211501
Cu9	Cu	0.236515	-1.109229	0.012619
O10	O	0.152712	-1.140673	-0.138964
C11	C	0.201894	-0.959095	-0.073442
C12	C	0.165060	-0.851138	-0.060042
C13	C	0.463060	-1.162190	-0.168465
C14	C	0.576002	-1.170707	-0.209554
C15	C	0.344818	-1.316674	-0.125438
C16	C	0.381650	-1.424629	-0.138831
C17	C	0.083653	-1.113579	-0.030416
C18	C	-0.029292	-1.105060	0.010681
C19	C	0.769157	-1.209127	-0.370765
C20	C	0.663026	-1.201121	-0.332143
C21	C	0.595084	-1.148292	-0.125538
C22	C	0.701213	-1.156298	-0.164143
C23	C	0.788242	-1.186715	-0.286758
C24	C	0.720299	-1.133887	-0.080136
C25	C	0.826416	-1.141887	-0.118738
C26	C	0.913449	-1.172300	-0.241346
C27	C	0.894360	-1.194716	-0.325359
C28	C	0.633265	-1.103463	0.042479
C29	C	0.652350	-1.081051	0.126487
C30	C	0.758473	-1.089059	0.087884
C31	C	0.845505	-1.119471	-0.034725
C32	C	0.777562	-1.066643	0.171897
C33	C	0.883679	-1.074644	0.133296
C34	C	0.951623	-1.127472	-0.073326
N35	N	0.362027	-1.206858	-0.369137
C36	C	0.531000	-0.596964	-0.193177
C37	C	0.496362	-0.495515	-0.180573
C38	C	0.301532	-0.455173	-0.109682
C39	C	0.336156	-0.556621	-0.122286
C40	C	0.450891	-0.627509	-0.164033
C41	C	0.256046	-0.587166	-0.093142
C42	C	0.290666	-0.688604	-0.105739
C43	C	0.405395	-0.759497	-0.147480
C44	C	0.485510	-0.728947	-0.176630
C45	C	0.141309	-0.516275	-0.051387
C46	C	0.061200	-0.546820	-0.022243
C47	C	0.095821	-0.648262	-0.034848
C48	C	0.210550	-0.719154	-0.076589
C49	C	0.015706	-0.678812	-0.005698
C50	C	0.050325	-0.780250	-0.018295
C51	C	0.245170	-0.820593	-0.089186
C52	C	0.514224	-1.325269	-0.582039
C53	C	0.474983	-1.294734	-0.462735
C54	C	0.288272	-1.149480	-0.394816
C55	C	0.327500	-1.180000	-0.514118
C56	C	0.440476	-1.267896	-0.607721
C57	C	0.253752	-1.122626	-0.539800
C58	C	0.292975	-1.153147	-0.659090
C59	C	0.405946	-1.241042	-0.752699
C60	C	0.479699	-1.298417	-0.727011
C61	C	0.140773	-1.034735	-0.446193
C62	C	0.067025	-0.977361	-0.471875
C63	C	0.106251	-1.007878	-0.591169
C64	C	0.219221	-1.095772	-0.684777
C65	C	0.032497	-0.950503	-0.616856
C66	C	0.071720	-0.981024	-0.736147
C67	C	0.258444	-1.126293	-0.804068
N68	N	0.184697	-1.068920	0.170250
H69	H	1.022491	-1.152246	-0.173172
H70	H	0.113125	-0.433678	-0.041129
H71	H	0.606226	-1.396837	-0.658259
H72	H	0.706684	-1.041868	0.271732
Cl73	Cl	0.878582	-1.247384	-0.524915
H74	H	0.338600	-0.878316	-0.123187
H75	H	-0.032219	-0.489089	0.011752
H76	H	0.965228	-1.219490	-0.425205
Cl77	Cl	-0.128533	-0.589681	0.046801
Cl78	Cl	0.448917	-0.887020	-0.163311
H79	H	-0.014905	-0.805122	0.005427
H80	H	0.011666	-0.934304	-0.757054
Cl81	Cl	0.157297	-0.366047	-0.057196
Cl82	Cl	0.639046	-1.229310	-0.437769
Cl83	Cl	0.597091	-0.457126	-0.217236
H84	H	0.546852	-1.096935	0.073907
H85	H	0.196283	-1.077916	-0.318591
H86	H	0.535047	-1.341464	-0.441836
H87	H	0.350446	-1.197861	-0.880288
H88	H	0.524211	-1.123523	-0.025704
Cl89	Cl	0.542948	-1.042840	0.280621
Cl90	Cl	0.455253	-1.279416	-0.902665
Cl91	Cl	0.621738	-1.408909	-0.844692
H92	H	0.578941	-0.786671	-0.210631
H93	H	0.108840	-1.009891	-0.349061
Cl94	Cl	0.675246	-0.686091	-0.245674
H95	H	0.899213	-1.056386	0.201704
Cl96	Cl	-0.109533	-0.840017	-0.499172
Cl97	Cl	1.046854	-1.182354	-0.289877
Cl98	Cl	-0.075000	-0.866868	-0.354196
