data_functionalizedCrystal
_audit_creation_method	'MofGen! by Chris Wilmer'
_symmetry_space_group_name_H-M	'P1'
_symmetry_Int_Tables_number	1
_symmetry_cell_setting	triclinic
loop_
_symmetry_equiv_pos_as_xyz
  x,y,z
_cell_length_a	19.288864
_cell_length_b	10.654541
_cell_length_c	17.766277
_cell_angle_alpha	89.993913
_cell_angle_beta	89.976791
_cell_angle_gamma	83.810087
loop_
_atom_site_label
_atom_site_type_symbol
_atom_site_fract_x
_atom_site_fract_y
_atom_site_fract_z
O1	O	0.922378	0.156657	-0.062836
O2	O	0.720256	0.177790	-0.062784
O3	O	0.825965	-0.015616	-0.062806
O4	O	0.816669	0.350062	-0.062813
O5	O	0.825946	-0.015625	0.062382
O6	O	0.720237	0.177780	0.062404
O7	O	0.922359	0.156647	0.062353
Cu8	Cu	0.821296	0.167213	0.073809
Cu9	Cu	0.821319	0.167224	-0.074241
O10	O	0.816650	0.350053	0.062375
C11	C	0.694365	0.177105	-0.000183
C12	C	0.617248	0.175064	-0.000163
C13	C	0.573295	0.288545	-0.000177
C14	C	0.500835	0.286627	-0.000186
C15	C	0.472332	0.171222	-0.000195
C16	C	0.516296	0.057725	-0.000177
C17	C	0.588754	0.059646	-0.000161
C18	C	0.363483	0.080504	-0.044078
C19	C	0.291026	0.078588	-0.044098
C20	C	0.248848	0.165292	-0.000241
C21	C	0.279134	0.253935	0.043628
C22	C	0.351592	0.255856	0.043644
C23	C	0.393765	0.169126	-0.000212
C24	C	0.126325	0.276702	-0.000262
C25	C	0.053864	0.274780	-0.000266
C26	C	0.069327	0.045875	-0.000265
C27	C	0.141786	0.047800	-0.000254
C28	C	0.170280	0.163218	-0.000256
C29	C	0.825273	-0.062404	-0.000212
C30	C	0.823232	-0.201804	-0.000213
C31	C	0.949636	-0.232480	-0.000236
C32	C	1.011877	-0.313307	-0.000245
C33	C	1.009955	-0.444284	-0.000247
C34	C	0.945785	-0.494436	-0.000242
C35	C	0.883545	-0.413609	-0.000232
C36	C	0.885474	-0.282631	-0.000228
C37	C	0.757142	-0.382933	-0.000215
C38	C	0.759063	-0.251955	-0.000208
C39	C	0.692973	-0.433084	-0.000210
C40	C	0.630732	-0.352257	-0.000195
C41	C	0.632656	-0.221273	-0.000192
C42	C	0.696823	-0.171129	-0.000198
C43	C	0.948250	0.157332	-0.000250
C44	C	1.025367	0.159373	-0.000274
C45	C	0.817342	0.396841	-0.000220
C46	C	0.819383	0.536241	-0.000225
N47	N	0.821286	0.167204	0.177940
N48	N	0.821335	0.167223	-0.178371
C49	C	0.868109	0.081606	0.217317
C50	C	0.868113	0.081600	0.296119
C51	C	0.821301	0.167214	0.335540
C52	C	0.774468	0.252818	0.296154
C53	C	0.774461	0.252813	0.217354
C54	C	0.812750	0.281635	0.460378
C55	C	0.812763	0.281642	0.539176
C56	C	0.821319	0.167229	0.578587
C57	C	0.829878	0.052804	0.539188
C58	C	0.829871	0.052799	0.460388
C59	C	0.821303	0.167228	0.420986
C60	C	0.868150	0.081617	0.703410
C61	C	0.868149	0.081610	0.782213
C62	C	0.774507	0.252839	0.782247
C63	C	0.774504	0.252836	0.703445
C64	C	0.821329	0.167226	0.664031
H65	H	0.951208	-0.125834	-0.000224
H66	H	0.736351	0.322525	0.328255
N67	N	0.918663	-0.010711	0.824681
H68	H	0.891871	-0.066210	0.857395
H69	H	0.948310	-0.064843	0.787699
H70	H	0.805771	0.374810	0.428296
H71	H	0.736379	0.322543	0.671382
H72	H	0.578490	-0.393102	-0.000195
N73	N	0.918609	-0.010730	0.174806
H74	H	0.948272	-0.064959	0.211714
H75	H	0.891752	-0.066131	0.142133
N76	N	0.384260	0.351448	0.090958
H77	H	0.346551	0.406088	0.118741
H78	H	0.417423	0.306024	0.128425
N79	N	0.698898	-0.029863	-0.000192
H80	H	0.748992	-0.010361	-0.000198
H81	H	0.674528	0.007624	-0.046599
H82	H	0.836846	-0.040362	0.571274
H83	H	1.064122	-0.272459	-0.000243
H84	H	0.244794	0.324538	0.079342
H85	H	0.149526	0.370682	-0.000253
N86	N	0.723954	0.345136	0.174877
H87	H	0.694295	0.399370	0.211805
H88	H	0.750804	0.400534	0.142163
H89	H	0.018077	0.367194	-0.000273
N90	N	0.565519	-0.134115	-0.000173
H91	H	0.563487	-0.079105	0.046239
H92	H	0.563542	-0.079153	-0.046606
N93	N	0.918616	-0.010730	0.338603
H94	H	0.948276	-0.064965	0.301677
H95	H	0.949549	0.037218	0.371275
N96	N	1.077087	-0.531458	-0.000253
H97	H	1.079091	-0.586489	0.046154
H98	H	1.079078	-0.586396	-0.046692
N99	N	0.839100	-0.070603	0.417893
H100	H	0.844522	-0.143088	0.454810
H101	H	0.796867	-0.077739	0.385222
H102	H	0.805798	0.374812	0.571249
N103	N	0.453421	0.409035	-0.000209
H104	H	0.423042	0.413327	-0.046625
H105	H	0.423029	0.413274	0.046221
N106	N	0.604018	0.413035	-0.000170
H107	H	0.633709	0.418937	0.046245
H108	H	0.633727	0.418871	-0.046600
H109	H	0.046121	-0.048091	-0.000319
N110	N	0.943706	-0.635701	-0.000251
H111	H	0.968066	-0.673258	-0.046665
H112	H	0.968034	-0.673184	0.046181
N113	N	0.918648	-0.010716	0.660892
H114	H	0.948309	-0.064952	0.697798
H115	H	0.891791	-0.066110	0.628214
H116	H	0.177574	-0.044609	-0.000246
N117	N	0.724009	0.345171	0.824755
H118	H	0.750812	0.400660	0.857432
H119	H	0.694358	0.399312	0.787799
N120	N	0.258361	-0.017013	-0.091409
H121	H	0.270214	-0.004992	-0.146135
H122	H	0.276941	-0.104988	-0.074961
N123	N	0.408973	-0.013023	-0.091382
H124	H	0.378794	-0.069459	-0.119178
H125	H	0.435936	0.033989	-0.128837
N126	N	0.485551	-0.066742	-0.000189
H127	H	0.501567	-0.116443	-0.046592
H128	H	0.501519	-0.116345	0.046254
N129	N	0.690892	-0.574349	-0.000211
H130	H	0.715255	-0.611919	-0.046621
H131	H	0.715216	-0.611823	0.046225
H132	H	0.624542	-0.032767	-0.000150
