data_functionalizedCrystal
_audit_creation_method	'MofGen! by Chris Wilmer'
_symmetry_space_group_name_H-M	'P1'
_symmetry_Int_Tables_number	1
_symmetry_cell_setting	triclinic
loop_
_symmetry_equiv_pos_as_xyz
  x,y,z
_cell_length_a	27.732064
_cell_length_b	27.732048
_cell_length_c	12.996460
_cell_angle_alpha	89.988908
_cell_angle_beta	90.002042
_cell_angle_gamma	82.646040
loop_
_atom_site_label
_atom_site_type_symbol
_atom_site_fract_x
_atom_site_fract_y
_atom_site_fract_z
O1	O	0.640923	0.057556	-0.085394
O2	O	0.974256	0.390889	0.247939
O3	O	1.307589	0.724223	0.581272
O4	O	0.500130	0.066293	-0.085438
O5	O	0.833464	0.399626	0.247895
O6	O	1.166797	0.732960	0.581229
O7	O	0.574899	-0.008472	-0.085395
O8	O	0.908232	0.324861	0.247938
O9	O	1.241566	0.658195	0.581271
O10	O	0.566154	0.132321	-0.085437
O11	O	0.899487	0.465654	0.247896
O12	O	1.232820	0.798988	0.581230
O13	O	0.574891	-0.008476	0.085739
O14	O	0.908225	0.324857	0.419072
O15	O	1.241558	0.658191	0.752405
O16	O	0.500123	0.066289	0.085696
O17	O	0.833456	0.399622	0.419029
O18	O	1.166789	0.732956	0.752362
O19	O	0.640915	0.057552	0.085740
O20	O	0.974248	0.390885	0.419073
O21	O	1.307581	0.724219	0.752406
Cu22	Cu	0.570518	0.061920	0.101344
Cu23	Cu	0.903851	0.395254	0.434677
Cu24	Cu	1.237185	0.728587	0.768010
Cu25	Cu	0.570527	0.061925	-0.101042
Cu26	Cu	0.903860	0.395258	0.232291
Cu27	Cu	1.237194	0.728592	0.565625
O28	O	0.566146	0.132317	0.085697
O29	O	0.899479	0.465650	0.419030
O30	O	1.232813	0.798984	0.752363
C31	C	0.482120	0.066106	0.000123
C32	C	0.815453	0.399440	0.333457
C33	C	1.148786	0.732773	0.666790
C34	C	0.428465	0.065551	0.000108
C35	C	0.761798	0.398884	0.333441
C36	C	1.095132	0.732217	0.666774
C37	C	0.051392	0.017583	0.000180
C38	C	0.384726	0.350917	0.333514
C39	C	0.718059	0.684250	0.666847
C40	C	0.253053	0.019630	0.000153
C41	C	0.586386	0.352963	0.333486
C42	C	0.919719	0.686296	0.666820
O43	O	0.284305	-0.017591	0.000203
O44	O	0.617639	0.315742	0.333536
O45	O	0.950972	0.649075	0.666869
N46	N	0.272180	0.063964	0.000135
N47	N	0.605513	0.397297	0.333469
N48	N	0.938847	0.730631	0.666802
C49	C	0.240889	0.107790	0.000131
C50	C	0.574222	0.441123	0.333464
C51	C	0.907556	0.774456	0.666798
O52	O	0.261785	0.145546	0.000126
O53	O	0.595119	0.478879	0.333459
O54	O	0.928452	0.812212	0.666793
C55	C	0.039230	0.105743	0.000166
C56	C	0.372563	0.439076	0.333499
C57	C	0.705896	0.772410	0.666833
C58	C	0.020105	0.061406	0.000173
C59	C	0.353439	0.394739	0.333507
C60	C	0.686772	0.728072	0.666840
C61	C	0.032267	-0.026750	0.000189
C62	C	0.365601	0.306583	0.333522
C63	C	0.698934	0.639916	0.666856
C64	C	-0.018145	-0.027261	0.000190
C65	C	0.315189	0.306072	0.333524
C66	C	0.648522	0.639405	0.666857
C67	C	-0.049432	0.016561	0.000183
C68	C	0.283902	0.349895	0.333516
C69	C	0.617235	0.683228	0.666850
C70	C	-0.030307	0.060895	0.000174
C71	C	0.303027	0.394228	0.333508
C72	C	0.636360	0.727561	0.666841
C73	C	0.007940	0.149568	0.000169
C74	C	0.341273	0.482902	0.333502
C75	C	0.674606	0.816235	0.666836
C76	C	-0.042478	0.149053	0.000180
C77	C	0.290856	0.482386	0.333514
C78	C	0.624189	0.815719	0.666847
C79	C	-0.061602	0.104716	0.000188
C80	C	0.271731	0.438049	0.333521
C81	C	0.605064	0.771382	0.666854
C82	C	-0.112006	0.104206	0.000168
C83	C	0.221327	0.437539	0.333502
C84	C	0.554661	0.770873	0.666835
N85	N	-0.131134	0.059872	0.000186
N86	N	0.202200	0.393205	0.333520
N87	N	0.535533	0.726539	0.666853
C88	C	-0.099846	0.016049	0.000193
C89	C	0.233487	0.349383	0.333527
C90	C	0.566820	0.682716	0.666860
C91	C	0.346763	0.108861	0.000111
C92	C	0.680097	0.442194	0.333444
C93	C	1.013430	0.775528	0.666778
C94	C	0.397178	0.109373	0.000100
C95	C	0.730511	0.442706	0.333434
C96	C	1.063845	0.776040	0.666767
C97	C	0.409338	0.021213	0.000124
C98	C	0.742672	0.354546	0.333458
C99	C	1.076005	0.687879	0.666791
C100	C	0.358923	0.020701	0.000127
C101	C	0.692256	0.354035	0.333461
C102	C	1.025589	0.687368	0.666794
C103	C	0.327636	0.064527	0.000129
C104	C	0.660969	0.397860	0.333462
C105	C	0.994303	0.731194	0.666795
C106	C	-0.205716	0.014979	0.000195
C107	C	0.127617	0.348313	0.333528
C108	C	0.460951	0.681646	0.666862
C109	C	-0.256133	0.014472	0.000192
C110	C	0.077200	0.347806	0.333525
C111	C	0.410534	0.681139	0.666859
C112	C	-0.268289	0.102632	0.000174
C113	C	0.065045	0.435966	0.333507
C114	C	0.398378	0.769299	0.666840
C115	C	-0.217876	0.103140	0.000171
C116	C	0.115457	0.436473	0.333505
C117	C	0.448791	0.769806	0.666838
C118	C	-0.186590	0.059309	0.000185
C119	C	0.146743	0.392643	0.333519
C120	C	0.480076	0.725976	0.666852
O121	O	-0.143287	0.141407	0.000131
O122	O	0.190046	0.474741	0.333464
O123	O	0.523380	0.808074	0.666797
O124	O	-0.120752	-0.021701	0.000221
O125	O	0.212581	0.311632	0.333555
O126	O	0.545915	0.644966	0.666888
C127	C	0.101805	0.018094	0.000179
C128	C	0.435138	0.351428	0.333513
C129	C	0.768471	0.684761	0.666846
C130	C	0.120930	0.062428	0.000171
C131	C	0.454263	0.395761	0.333504
C132	C	0.787596	0.729095	0.666837
C133	C	0.089642	0.106250	0.000163
C134	C	0.422976	0.439584	0.333497
C135	C	0.756309	0.772917	0.666830
C136	C	0.171344	0.062940	0.000160
C137	C	0.504677	0.396273	0.333494
C138	C	0.838011	0.729606	0.666827
C139	C	0.202631	0.019117	0.000167
C140	C	0.535965	0.352451	0.333501
C141	C	0.869298	0.685784	0.666834
C142	C	0.183504	-0.025217	0.000185
C143	C	0.516837	0.308116	0.333519
C144	C	0.850170	0.641450	0.666852
C145	C	0.133092	-0.025728	0.000186
C146	C	0.466425	0.307605	0.333520
C147	C	0.799758	0.640939	0.666853
C148	C	0.108770	0.150585	0.000146
C149	C	0.442103	0.483918	0.333479
C150	C	0.775437	0.817251	0.666812
C151	C	0.159183	0.151092	0.000143
C152	C	0.492516	0.484426	0.333477
C153	C	0.825849	0.817759	0.666810
C154	C	0.190470	0.107270	0.000151
C155	C	0.523803	0.440603	0.333484
C156	C	0.857136	0.773936	0.666817
C157	C	0.574712	-0.026481	0.000174
C158	C	0.908045	0.306853	0.333508
C159	C	1.241378	0.640186	0.666841
C160	C	0.574159	-0.080136	0.000183
C161	C	0.907492	0.253198	0.333516
C162	C	1.240826	0.586531	0.666849
C163	C	0.614862	-0.418948	0.000143
C164	C	0.948196	-0.085615	0.333476
C165	C	1.281529	0.247718	0.666809
C166	C	0.612811	-0.620608	0.000128
C167	C	0.946145	-0.287275	0.333461
C168	C	1.279478	0.046059	0.666794
O169	O	0.650032	-0.651862	0.000094
O170	O	0.983365	-0.318528	0.333428
O171	O	1.316698	0.014805	0.666761
N172	N	0.568476	-0.639735	0.000115
N173	N	0.901810	-0.306401	0.333448
N174	N	1.235143	0.026932	0.666781
C175	C	0.524651	-0.608442	0.000099
C176	C	0.857985	-0.275109	0.333432
C177	C	1.191318	0.058224	0.666766
O178	O	0.486895	-0.629338	0.000077
O179	O	0.820228	-0.296004	0.333410
O180	O	1.153561	0.037329	0.666744
C181	C	0.526703	-0.406784	0.000107
C182	C	0.860036	-0.073450	0.333440
C183	C	1.193369	0.259883	0.666773
C184	C	0.571040	-0.387660	0.000130
C185	C	0.904374	-0.054327	0.333463
C186	C	1.237707	0.279006	0.666796
C187	C	0.659196	-0.399824	0.000165
C188	C	0.992530	-0.066491	0.333498
C189	C	1.325863	0.266842	0.666831
C190	C	0.659709	-0.349412	0.000174
C191	C	0.993042	-0.016079	0.333507
C192	C	1.326375	0.317254	0.666841
C193	C	0.615887	-0.318124	0.000161
C194	C	0.949220	0.015209	0.333495
C195	C	1.282554	0.348542	0.666828
C196	C	0.571553	-0.337248	0.000139
C197	C	0.904886	-0.003915	0.333473
C198	C	1.238219	0.329418	0.666806
C199	C	0.482878	-0.375493	0.000083
C200	C	0.816211	-0.042159	0.333417
C201	C	1.149545	0.291174	0.666750
C202	C	0.483395	-0.325075	0.000083
C203	C	0.816728	0.008258	0.333416
C204	C	1.150062	0.341591	0.666749
C205	C	0.527733	-0.305952	0.000106
C206	C	0.861066	0.027381	0.333439
C207	C	1.194399	0.360715	0.666773
C208	C	0.528243	-0.255548	0.000136
C209	C	0.861576	0.077785	0.333469
C210	C	1.194910	0.411118	0.666802
N211	N	0.572578	-0.236422	0.000149
N212	N	0.905911	0.096911	0.333482
N213	N	1.239245	0.430245	0.666815
C214	C	0.616400	-0.267710	0.000161
C215	C	0.949733	0.065623	0.333495
C216	C	1.283067	0.398957	0.666828
C217	C	0.523577	-0.714317	0.000097
C218	C	0.856911	-0.380983	0.333430
C219	C	1.190244	-0.047650	0.666764
C220	C	0.523064	-0.764731	0.000097
C221	C	0.856398	-0.431398	0.333430
C222	C	1.189731	-0.098064	0.666764
C223	C	0.611225	-0.776893	0.000124
C224	C	0.944558	-0.443560	0.333457
C225	C	1.277891	-0.110227	0.666790
C226	C	0.611737	-0.726478	0.000131
C227	C	0.945070	-0.393145	0.333464
C228	C	1.278404	-0.059811	0.666798
C229	C	0.567912	-0.695190	0.000110
C230	C	0.901245	-0.361857	0.333443
C231	C	1.234579	-0.028524	0.666776
C232	C	0.617472	-0.161841	0.000182
C233	C	0.950806	0.171493	0.333515
C234	C	1.284139	0.504826	0.666849
C235	C	0.617981	-0.111424	0.000196
C236	C	0.951314	0.221910	0.333529
C237	C	1.284647	0.555243	0.666862
C238	C	0.529821	-0.099266	0.000163
C239	C	0.863154	0.234067	0.333497
C240	C	1.196487	0.567401	0.666830
C241	C	0.529312	-0.149679	0.000155
C242	C	0.862645	0.183655	0.333488
C243	C	1.195979	0.516988	0.666822
C244	C	0.573142	-0.180965	0.000161
C245	C	0.906475	0.152368	0.333494
C246	C	1.239808	0.485701	0.666828
O247	O	0.491043	-0.224267	0.000158
O248	O	0.824376	0.109067	0.333491
O249	O	1.157709	0.442400	0.666824
O250	O	0.654151	-0.246805	0.000160
O251	O	0.987484	0.086528	0.333494
O252	O	1.320818	0.419861	0.666827
C253	C	0.614350	-0.469360	0.000133
C254	C	0.947683	-0.136027	0.333467
C255	C	1.281017	0.197306	0.666800
C256	C	0.570016	-0.488484	0.000111
C257	C	0.903349	-0.155151	0.333444
C258	C	1.236683	0.178182	0.666778
C259	C	0.526194	-0.457196	0.000098
C260	C	0.859527	-0.123863	0.333432
C261	C	1.192861	0.209470	0.666765
C262	C	0.569503	-0.538899	0.000111
C263	C	0.902836	-0.205565	0.333444
C264	C	1.236170	0.127768	0.666778
C265	C	0.613325	-0.570187	0.000124
C266	C	0.946658	-0.236853	0.333457
C267	C	1.279991	0.096480	0.666791
C268	C	0.657660	-0.551060	0.000137
C269	C	0.990993	-0.217727	0.333470
C270	C	1.324326	0.115606	0.666803
C271	C	0.658172	-0.500648	0.000146
C272	C	0.991505	-0.167315	0.333479
C273	C	1.324839	0.166018	0.666813
C274	C	0.481859	-0.476323	0.000085
C275	C	0.815193	-0.142989	0.333419
C276	C	1.148526	0.190344	0.666752
C277	C	0.481351	-0.526735	0.000077
C278	C	0.814684	-0.193402	0.333411
C279	C	1.148017	0.139932	0.666744
C280	C	0.525172	-0.558023	0.000090
C281	C	0.858506	-0.224690	0.333423
C282	C	1.191839	0.108643	0.666757
C283	C	0.658925	0.057739	0.000176
C284	C	0.992259	0.391072	0.333509
C285	C	1.325592	0.724405	0.666842
C286	C	0.712580	0.058295	0.000185
C287	C	1.045913	0.391628	0.333518
C288	C	1.379247	0.724961	0.666852
C289	C	0.566333	0.150326	0.000125
C290	C	0.899667	0.483659	0.333458
C291	C	1.233000	0.816993	0.666791
C292	C	0.566886	0.203981	0.000110
C293	C	0.900219	0.537314	0.333443
C294	C	1.233553	0.870648	0.666776
N295	N	0.570515	0.061916	0.243691
N296	N	0.903848	0.395250	0.577024
N297	N	1.237182	0.728583	0.910357
N298	N	0.570534	0.061925	-0.243389
N299	N	0.903867	0.395258	0.089944
N300	N	1.237200	0.728591	0.423278
C301	C	0.570526	0.061925	0.663505
C302	C	0.903860	0.395259	0.996838
C303	C	1.237193	0.728592	1.330172
C304	C	0.570522	0.061925	0.546700
C305	C	0.903855	0.395258	0.880033
C306	C	1.237188	0.728591	1.213366
C307	C	0.570521	0.061921	0.453601
C308	C	0.903854	0.395255	0.786935
C309	C	1.237188	0.728588	1.120268
C310	C	0.570516	0.061920	0.336789
C311	C	0.903849	0.395253	0.670122
C312	C	1.237183	0.728586	1.003456
H313	H	-0.033711	-0.063365	0.000200
H314	H	0.299623	0.269968	0.333534
H315	H	0.632956	0.603302	0.666867
H316	H	0.693341	-0.576544	0.000152
H317	H	1.026674	-0.243211	0.333485
H318	H	1.360008	0.090122	0.666818
H319	H	0.057737	-0.062438	0.000198
H320	H	0.391070	0.270896	0.333532
H321	H	0.724404	0.604229	0.666865
H322	H	-0.202304	0.139243	0.000164
H323	H	0.131029	0.472576	0.333497
H324	H	0.464362	0.805909	0.666831
H325	H	-0.180248	-0.020712	0.000206
H326	H	0.153085	0.312622	0.333540
H327	H	0.486418	0.645955	0.666873
H328	H	0.493209	-0.165249	0.000165
H329	H	0.826542	0.168084	0.333498
H330	H	1.159875	0.501417	0.666831
H331	H	0.321293	0.144551	0.000110
H332	H	0.654627	0.477885	0.333444
H333	H	0.987960	0.811218	0.666777
H334	H	-0.271701	-0.021634	0.000195
H335	H	0.061632	0.311699	0.333529
H336	H	0.394966	0.645033	0.666862
H337	H	-0.293772	0.138311	0.000163
H338	H	0.039562	0.471645	0.333496
H339	H	0.372895	0.804978	0.666829
C340	C	0.083459	-0.077455	-0.087773
C341	C	0.416792	0.255878	0.245561
C342	C	0.750125	0.589212	0.578894
C343	C	0.112076	-0.074466	0.000198
C344	C	0.445409	0.258867	0.333532
C345	C	0.778742	0.592201	0.666865
H346	H	0.070490	-0.107547	-0.087766
H347	H	0.403824	0.225786	0.245568
H348	H	0.737157	0.559119	0.578901
H349	H	0.057607	-0.051437	-0.087768
H350	H	0.390940	0.281896	0.245565
H351	H	0.724274	0.615229	0.578898
H352	H	0.102875	-0.075416	-0.147446
H353	H	0.436208	0.257917	0.185887
H354	H	0.769541	0.591251	0.519221
H355	H	0.092659	-0.076502	0.059872
H356	H	0.425992	0.256832	0.393205
H357	H	0.759325	0.590165	0.726539
H358	H	0.137931	-0.100491	0.000203
H359	H	0.471265	0.232842	0.333537
H360	H	0.804598	0.566176	0.666870
C361	C	0.376018	-0.066388	0.000149
C362	C	0.709351	0.266946	0.333482
C363	C	1.042684	0.600279	0.666816
C364	C	0.337904	-0.028035	0.000146
C365	C	0.671237	0.305298	0.333479
C366	C	1.004570	0.638632	0.666813
H367	H	0.363042	-0.096476	0.000168
H368	H	0.696376	0.236857	0.333502
H369	H	1.029709	0.570191	0.666835
H370	H	0.395421	-0.064350	-0.059532
H371	H	0.728755	0.268983	0.273801
H372	H	1.062088	0.602317	0.607135
H373	H	0.395434	-0.064351	0.059825
H374	H	0.728767	0.268983	0.393158
H375	H	1.062100	0.602316	0.726492
H376	H	0.318490	-0.030070	-0.059534
H377	H	0.651823	0.303264	0.273799
H378	H	0.985157	0.636597	0.607133
H379	H	0.318492	-0.030074	0.059833
H380	H	0.651825	0.303260	0.393166
H381	H	0.985159	0.636593	0.726500
C382	C	0.471330	-0.814370	0.088055
C383	C	0.804663	-0.481036	0.421388
C384	C	1.137997	-0.147703	0.754721
C385	C	0.474327	-0.785748	0.000083
C386	C	0.807660	-0.452414	0.333417
C387	C	1.140994	-0.119081	0.666750
H388	H	0.441239	-0.827340	0.088042
H389	H	0.774572	-0.494007	0.421376
H390	H	1.107905	-0.160673	0.754709
H391	H	0.497349	-0.840220	0.088056
H392	H	0.830682	-0.506887	0.421390
H393	H	1.164016	-0.173553	0.754723
H394	H	0.473361	-0.794956	0.147728
H395	H	0.806695	-0.461623	0.481061
H396	H	1.140028	-0.128290	0.814394
H397	H	0.472299	-0.805162	-0.059590
H398	H	0.805632	-0.471829	0.273743
H399	H	1.138966	-0.138495	0.607077
H400	H	0.448300	-0.759894	0.000072
H401	H	0.781634	-0.426560	0.333406
H402	H	1.114967	-0.093227	0.666739
H403	H	0.412744	0.145477	0.000080
H404	H	0.746078	0.478810	0.333413
H405	H	1.079411	0.812143	0.666747
H406	H	0.494142	-0.073782	0.000157
H407	H	0.827476	0.259551	0.333490
H408	H	1.160809	0.592884	0.666823
H409	H	0.023502	0.185672	0.000158
H410	H	0.356835	0.519006	0.333492
H411	H	0.690168	0.852339	0.666825
H412	H	0.654087	-0.095857	0.000217
H413	H	0.987421	0.237477	0.333550
H414	H	1.320754	0.570810	0.666884
H415	H	-0.067950	0.184742	0.000186
H416	H	0.265384	0.518075	0.333519
H417	H	0.598717	0.851408	0.666853
H418	H	0.694276	-0.485083	0.000165
H419	H	1.027609	-0.151750	0.333498
H420	H	1.360943	0.181583	0.666831
C421	C	0.266188	-0.063569	0.000197
C422	C	0.599522	0.269764	0.333530
C423	C	0.932855	0.603098	0.666864
C424	C	0.217902	-0.073388	0.000198
C425	C	0.551235	0.259946	0.333531
C426	C	0.884568	0.593279	0.666864
H427	H	0.287425	-0.093306	0.000215
H428	H	0.620758	0.240027	0.333548
H429	H	0.954091	0.573360	0.666882
H430	H	0.271945	-0.045376	-0.059485
H431	H	0.605278	0.287958	0.273848
H432	H	0.938612	0.621291	0.607182
H433	H	0.271945	-0.045372	0.059872
H434	H	0.605278	0.287961	0.393205
H435	H	0.938611	0.621294	0.726539
H436	H	0.212144	-0.091581	-0.059481
H437	H	0.545478	0.241752	0.273852
H438	H	0.878811	0.575085	0.607185
H439	H	0.212143	-0.091589	0.059886
H440	H	0.545476	0.241744	0.393219
H441	H	0.878809	0.575078	0.726552
C442	C	0.394258	-0.509636	0.000032
C443	C	0.727591	-0.176303	0.333366
C444	C	1.060924	0.157030	0.666699
C445	C	0.432610	-0.547751	0.000048
C446	C	0.765943	-0.214418	0.333382
C447	C	1.099276	0.118915	0.666715
H448	H	0.364169	-0.522611	0.000001
H449	H	0.697502	-0.189278	0.333334
H450	H	1.030835	0.144056	0.666668
H451	H	0.396287	-0.490237	0.059715
H452	H	0.729620	-0.156904	0.393048
H453	H	1.062953	0.176430	0.726381
H454	H	0.396304	-0.490217	-0.059642
H455	H	0.729637	-0.156884	0.273691
H456	H	1.062971	0.176450	0.607025
H457	H	0.430565	-0.567169	0.059727
H458	H	0.763899	-0.233836	0.393060
H459	H	1.097232	0.099498	0.726394
H460	H	0.430579	-0.567159	-0.059640
H461	H	0.763913	-0.233826	0.273693
H462	H	1.097246	0.099508	0.607026
C463	C	0.431283	-0.412567	-0.087895
C464	C	0.764616	-0.079233	0.245438
C465	C	1.097949	0.254100	0.578772
C466	C	0.433685	-0.441936	0.000074
C467	C	0.767018	-0.108603	0.333407
C468	C	1.100352	0.224730	0.666741
H469	H	0.401538	-0.391342	-0.087899
H470	H	0.734871	-0.058009	0.245434
H471	H	1.068205	0.275325	0.578767
H472	H	0.457752	-0.393957	-0.087877
H473	H	0.791086	-0.060624	0.245457
H474	H	1.124419	0.272710	0.578790
H475	H	0.432921	-0.432484	-0.147570
H476	H	0.766254	-0.099151	0.185764
H477	H	1.099588	0.234183	0.519097
H478	H	0.432051	-0.422019	0.059749
H479	H	0.765384	-0.088685	0.393082
H480	H	1.098717	0.244648	0.726416
H481	H	0.407208	-0.460547	0.000065
H482	H	0.740542	-0.127214	0.333398
H483	H	1.073875	0.206119	0.666731
C484	C	0.473092	-0.029353	-0.087834
C485	C	0.806426	0.303980	0.245499
C486	C	1.139759	0.637314	0.578832
C487	C	0.443736	-0.026958	0.000139
C488	C	0.777069	0.306375	0.333472
C489	C	1.110403	0.639709	0.666805
H490	H	0.494331	-0.059089	-0.087814
H491	H	0.827664	0.274245	0.245519
H492	H	1.160998	0.607578	0.578852
H493	H	0.453170	-0.027727	-0.147500
H494	H	0.786503	0.305606	0.185834
H495	H	1.119837	0.638939	0.519167
H496	H	0.491691	-0.002870	-0.087840
H497	H	0.825025	0.330463	0.245493
H498	H	1.158358	0.663797	0.578827
H499	H	0.425134	-0.053439	0.000141
H500	H	0.758468	0.279894	0.333474
H501	H	1.091801	0.613227	0.666807
H502	H	0.463661	-0.028588	0.059820
H503	H	0.796994	0.304745	0.393153
H504	H	1.130327	0.638078	0.726486
H505	H	0.174748	0.187200	0.000130
H506	H	0.508082	0.520533	0.333463
H507	H	0.841415	0.853866	0.666797
H508	H	0.083300	0.186271	0.000141
H509	H	0.416634	0.519604	0.333474
H510	H	0.749967	0.852938	0.666808
H511	H	0.653163	-0.187309	0.000183
H512	H	0.986496	0.146024	0.333516
H513	H	1.319829	0.479358	0.666849
C514	C	0.661786	-0.840636	-0.087855
C515	C	0.995119	-0.507302	0.245478
C516	C	1.328453	-0.173969	0.578812
C517	C	0.659396	-0.811290	0.000124
C518	C	0.992729	-0.477957	0.333458
C519	C	1.326063	-0.144623	0.666791
H520	H	0.691525	-0.861869	-0.087862
H521	H	1.024858	-0.528536	0.245471
H522	H	1.358192	-0.195203	0.578804
H523	H	0.635309	-0.859236	-0.087848
H524	H	0.968643	-0.525902	0.245485
H525	H	1.301976	-0.192569	0.578818
H526	H	0.660153	-0.820702	-0.147523
H527	H	0.993486	-0.487369	0.185811
H528	H	1.326819	-0.154036	0.519144
H529	H	0.661026	-0.831223	0.059792
H530	H	0.994359	-0.497890	0.393126
H531	H	1.327692	-0.164557	0.726459
H532	H	0.685880	-0.792688	0.000127
H533	H	1.019213	-0.459355	0.333460
H534	H	1.352547	-0.126022	0.666794
C535	C	0.746797	-0.366514	0.000189
C536	C	1.080130	-0.033180	0.333523
C537	C	1.413463	0.300153	0.666856
C538	C	0.708447	-0.328397	0.000186
C539	C	1.041780	0.004937	0.333519
C540	C	1.375113	0.338270	0.666853
H541	H	0.776886	-0.353541	0.000188
H542	H	1.110220	-0.020207	0.333521
H543	H	1.443553	0.313126	0.666855
H544	H	0.744759	-0.385927	0.059864
H545	H	1.078092	-0.052594	0.393197
H546	H	1.411426	0.280739	0.726530
H547	H	0.744756	-0.385918	-0.059493
H548	H	1.078090	-0.052585	0.273840
H549	H	1.411423	0.280748	0.607173
H550	H	0.710485	-0.308994	0.059873
H551	H	1.043818	0.024340	0.393206
H552	H	1.377151	0.357673	0.726540
H553	H	0.710485	-0.308975	-0.059494
H554	H	1.043818	0.024358	0.273839
H555	H	1.377152	0.357692	0.607172
H556	H	0.447706	-0.299603	0.000064
H557	H	0.781040	0.033731	0.333397
H558	H	1.114373	0.367064	0.666730
C559	C	0.709784	-0.463562	-0.087792
C560	C	1.043118	-0.130229	0.245541
C561	C	1.376451	0.203104	0.578874
C562	C	0.707372	-0.434210	0.000179
C563	C	1.040705	-0.100877	0.333513
C564	C	1.374039	0.232456	0.666846
H565	H	0.739530	-0.484785	-0.087779
H566	H	1.072863	-0.151452	0.245554
H567	H	1.406197	0.181881	0.578888
H568	H	0.683316	-0.482173	-0.087795
H569	H	1.016649	-0.148840	0.245538
H570	H	1.349983	0.184493	0.578871
H571	H	0.708151	-0.443632	-0.147465
H572	H	1.041484	-0.110299	0.185868
H573	H	1.374817	0.223034	0.519202
H574	H	0.709002	-0.454140	0.059853
H575	H	1.042335	-0.120807	0.393186
H576	H	1.375669	0.212527	0.726519
H577	H	0.733848	-0.415598	0.000192
H578	H	1.067181	-0.082264	0.333525
H579	H	1.400514	0.251069	0.666858
H580	H	0.647841	-0.710911	0.000149
H581	H	0.981174	-0.377578	0.333483
H582	H	1.314507	-0.044245	0.666816
C583	C	0.436383	-0.707370	0.000085
C584	C	0.769717	-0.374036	0.333419
C585	C	1.103050	-0.040703	0.666752
C586	C	0.475400	-0.679929	0.000088
C587	C	0.808734	-0.346595	0.333422
C588	C	1.142067	-0.013262	0.666755
H589	H	0.406641	-0.686141	0.000091
H590	H	0.739975	-0.352807	0.333424
H591	H	1.073308	-0.019474	0.666757
H592	H	0.438020	-0.727278	-0.059591
H593	H	0.771353	-0.393945	0.273742
H594	H	1.104686	-0.060612	0.607076
H595	H	0.438025	-0.727295	0.059766
H596	H	0.771358	-0.393961	0.393099
H597	H	1.104691	-0.060628	0.726432
H598	H	0.473761	-0.660006	-0.059596
H599	H	0.807094	-0.326673	0.273737
H600	H	1.140428	0.006660	0.607070
H601	H	0.473763	-0.660012	0.059771
H602	H	0.807096	-0.326678	0.393104
H603	H	1.140430	0.006655	0.726437
H604	H	0.446774	-0.391054	0.000058
H605	H	0.780107	-0.057720	0.333391
H606	H	1.113440	0.275613	0.666725
