data_functionalizedCrystal
_audit_creation_method	'MofGen! by Chris Wilmer'
_symmetry_space_group_name_H-M	'P1'
_symmetry_Int_Tables_number	1
_symmetry_cell_setting	triclinic
loop_
_symmetry_equiv_pos_as_xyz
  x,y,z
_cell_length_a	19.377372
_cell_length_b	23.096457
_cell_length_c	19.377372
_cell_angle_alpha	48.620770
_cell_angle_beta	93.588494
_cell_angle_gamma	72.113844
loop_
_atom_site_label
_atom_site_type_symbol
_atom_site_fract_x
_atom_site_fract_y
_atom_site_fract_z
Zr1	Zr	0.544108	0.865378	-0.236096
O2	O	0.430301	0.986164	-0.349903
O3	O	0.578993	0.744593	-0.201212
O4	O	0.551825	0.909531	-0.377087
O5	O	0.478903	0.786398	-0.035290
O6	O	0.647689	0.944359	-0.398525
O7	O	0.457469	0.821226	-0.174028
O8	O	0.696288	0.649315	-0.083917
O9	O	0.430304	1.081442	-0.349898
O10	O	0.665417	0.820265	-0.202328
O11	O	0.609871	0.768281	-0.082790
O12	O	0.577884	0.962474	-0.289860
O13	O	0.522338	0.910491	-0.170322
Zr14	Zr	0.731185	0.865377	-0.049015
Zr15	Zr	0.697000	0.920924	-0.270286
Zr16	Zr	0.578293	0.809831	-0.014824
Zr17	Zr	0.544114	1.017335	-0.236087
Zr18	Zr	0.731179	0.713420	-0.049023
O19	O	0.696299	0.986162	-0.083898
O20	O	0.647693	1.065144	-0.398518
O21	O	0.478908	0.907183	-0.035283
O22	O	0.844992	0.744591	0.064793
O23	O	0.796385	0.823572	-0.249827
O24	O	0.627600	0.665611	0.113408
O25	O	0.796389	0.944358	-0.249820
O26	O	0.723468	0.821224	0.091977
O27	O	0.627604	0.786396	0.113414
O28	O	0.817823	0.909529	-0.111082
O29	O	0.551833	1.125593	-0.377075
O30	O	0.723460	0.605162	0.091965
O31	O	0.844988	0.649314	0.064787
O32	O	0.817816	0.693467	-0.111094
O33	O	0.457477	1.037289	-0.174016
O34	O	0.579005	1.081440	-0.201193
O35	O	0.697409	0.768281	0.004750
O36	O	0.752955	0.820264	-0.114788
O37	O	0.665422	0.962474	-0.202320
O38	O	0.609876	0.910490	-0.082782
C39	C	0.446403	0.795898	-0.099788
C40	C	0.381496	0.772317	-0.085273
C41	C	0.637640	0.675303	-0.142566
C42	C	0.637637	0.610794	-0.142569
C43	C	-0.060425	1.065915	-0.265991
C44	C	-0.121402	1.043737	-0.252339
C45	C	-0.030015	0.895281	-0.160962
C46	C	0.030972	0.917446	-0.174602
C47	C	0.015760	1.002764	-0.227119
C48	C	0.107157	0.854295	-0.135730
C49	C	0.168138	0.876458	-0.149374
C50	C	0.152934	0.961773	-0.201890
C51	C	0.076741	1.024928	-0.240763
C52	C	0.122367	0.768978	-0.083220
C53	C	0.198552	0.705827	-0.044348
C54	C	0.259535	0.727989	-0.057985
C55	C	0.244330	0.813304	-0.110501
C56	C	0.335727	0.664835	-0.019113
C57	C	0.396708	0.686998	-0.032757
C58	C	0.305311	0.835468	-0.124145
C59	C	0.666626	0.607627	-0.204969
C60	C	0.666635	0.547005	-0.204963
C61	C	0.637638	0.489562	-0.142566
C62	C	0.608649	0.492730	-0.080154
C63	C	0.608649	0.553345	-0.080156
N64	N	0.575706	0.406969	-0.136470
N65	N	0.575707	0.349389	-0.136474
C66	C	0.637639	0.306928	-0.142557
N67	N	0.699566	0.324233	-0.148654
N68	N	0.699563	0.381821	-0.148655
C69	C	0.637636	0.423831	-0.142557
C70	C	0.666640	0.238029	-0.204953
C71	C	0.666651	0.177401	-0.204939
C72	C	0.608658	0.123132	-0.080136
C73	C	0.608654	0.183753	-0.080144
C74	C	0.637643	0.241202	-0.142558
C75	C	0.828890	0.934857	-0.185323
C76	C	0.893796	0.958438	-0.199837
C77	C	0.594886	0.934859	-0.419332
C78	C	0.580374	0.958441	-0.513268
C79	C	0.637653	1.055452	-0.142545
C80	C	0.637655	1.119961	-0.142541
C81	C	0.761077	0.664839	-0.593757
C82	C	0.747425	0.687016	-0.682035
C83	C	0.656047	0.835472	-0.773402
C84	C	0.669694	0.813309	-0.685131
C85	C	0.722209	0.727991	-0.595313
C86	C	0.630827	0.876460	-0.686687
C87	C	0.644470	0.854297	-0.598423
C88	C	0.696981	0.768983	-0.508602
C89	C	0.735852	0.705828	-0.507049
C90	C	0.578308	0.961776	-0.776505
C91	C	0.539440	1.024927	-0.778062
C92	C	0.553087	1.002766	-0.689797
C93	C	0.605598	0.917452	-0.599976
C94	C	0.514216	1.065921	-0.691350
C95	C	0.527859	1.043758	-0.603086
C96	C	0.619241	0.895289	-0.511711
C97	C	0.680407	0.795896	0.134222
C98	C	0.694919	0.772315	0.228157
C99	C	0.828883	0.744783	-0.185333
C100	C	0.893788	0.703854	-0.199852
C101	C	0.680400	0.605822	0.134211
C102	C	0.694910	0.517731	0.228143
C103	C	0.871644	0.675302	0.091444
C104	C	0.951060	0.610791	0.170861
C105	C	0.403649	1.055454	-0.376554
C106	C	0.324233	1.119964	-0.455971
C107	C	0.446409	0.985972	-0.099777
C108	C	0.381505	1.026901	-0.085259
C109	C	0.594893	1.124933	-0.419322
C110	C	0.580383	1.213024	-0.513254
C111	C	0.878572	0.684637	-0.252374
C112	C	0.939547	0.646191	-0.266035
C113	C	1.015738	0.626959	-0.227167
C114	C	1.030953	0.646182	-0.174643
C115	C	0.969977	0.684632	-0.160988
C116	C	0.747420	0.476360	0.317959
C117	C	0.761052	0.393594	0.406227
C118	C	0.722178	0.352199	0.404677
C119	C	0.669663	0.393577	0.314851
C120	C	0.656027	0.476343	0.226586
C121	C	1.017356	0.607634	0.145757
C122	C	1.091981	0.547033	0.220368
C123	C	1.100308	0.489585	0.320083
C124	C	1.034005	0.492747	0.345186
C125	C	0.959382	0.553351	0.270575
C126	C	0.257937	1.123128	-0.430868
C127	C	0.183312	1.183748	-0.505479
C128	C	0.174985	1.241199	-0.605193
C129	C	0.241288	1.238034	-0.630296
C130	C	0.315911	1.177419	-0.555686
C131	C	0.396719	1.046127	-0.032746
C132	C	0.335740	1.084595	-0.019109
C133	C	0.259549	1.103831	-0.057980
C134	C	0.244335	1.084604	-0.110500
C135	C	0.305312	1.046142	-0.124142
C136	C	0.619269	1.254395	-0.511671
C137	C	0.605650	1.337160	-0.599925
C138	C	0.553141	1.378557	-0.689759
C139	C	0.514254	1.337179	-0.691339
C140	C	0.527877	1.254413	-0.603087
H141	H	0.292927	0.904935	-0.166879
H142	H	0.471500	1.370897	-0.764494
H143	H	0.496206	1.220736	-0.604388
H144	H	0.202590	0.979818	-0.213000
H145	H	0.064357	1.094395	-0.283496
H146	H	0.982378	0.700272	-0.118214
C147	C	0.922800	0.625041	-0.323798
H148	H	0.868692	0.641989	-0.344972
H149	H	0.937123	0.655896	-0.379927
H150	H	0.952245	0.564179	-0.282118
H151	H	0.779078	0.510054	0.319241
H152	H	-0.072809	1.135382	-0.308725
H153	H	0.585041	0.555920	-0.029341
H154	H	1.065382	0.595649	-0.238291
H155	H	0.803816	0.359915	0.479357
C156	C	-0.205206	1.113207	-0.295092
H157	H	-0.205526	1.167189	-0.328314
H158	H	-0.238453	1.119924	-0.340565
H159	H	-0.223333	1.095368	-0.242762
C160	C	0.818845	0.570992	-0.494954
H161	H	0.840040	0.536550	-0.506664
H162	H	0.859850	0.571537	-0.466179
H163	H	0.792273	0.546986	-0.451068
C164	C	0.737189	0.261154	0.501772
H165	H	0.774037	0.242446	0.555480
H166	H	0.689617	0.263724	0.512431
H167	H	0.757193	0.221118	0.497311
H168	H	0.369888	1.174846	-0.576138
H169	H	1.092996	0.630517	-0.143000
H170	H	0.209904	1.135149	-0.046865
C171	C	0.288570	1.024983	-0.181894
H172	H	0.234460	1.041941	-0.203076
H173	H	0.302902	1.055826	-0.238015
H174	H	0.318007	0.964119	-0.140205
H175	H	1.145959	0.544469	0.199911
H176	H	0.662025	1.220702	-0.438533
C177	C	0.160524	1.105758	-0.153245
H178	H	0.126395	1.131408	-0.137583
H179	H	0.144175	1.145311	-0.223152
H180	H	0.159295	1.053594	-0.125345
H181	H	0.690247	0.284803	-0.255771
C182	C	0.481676	1.118771	-0.876858
H183	H	0.460479	1.153206	-0.865140
H184	H	0.508239	1.142778	-0.920750
H185	H	0.440663	1.118225	-0.905626
H186	H	-0.017640	0.825816	-0.118206
H187	H	0.585045	0.186332	-0.029335
C188	C	0.055292	0.744594	-0.068212
H189	H	0.075260	0.684741	-0.031381
H190	H	0.032174	0.754717	-0.033100
H191	H	0.017065	0.779274	-0.130904
H192	H	1.161076	0.440241	0.380825
H193	H	0.638015	0.359860	0.313604
H194	H	1.040798	0.445965	0.426382
C195	C	0.598270	0.521840	0.127794
H196	H	0.577081	0.485323	0.139520
H197	H	0.557261	0.575436	0.099008
H198	H	0.624843	0.532810	0.083911
H199	H	1.010590	0.654403	0.064570
H200	H	0.662008	0.825816	-0.438575
H201	H	0.210926	0.636362	-0.001592
H202	H	0.458745	0.635570	-0.001085
C203	C	0.352450	0.570993	0.038647
H204	H	0.305221	0.566838	0.041207
H205	H	0.373669	0.556397	0.006291
H206	H	0.388771	0.531848	0.104090
H207	H	0.905405	0.555910	0.291030
C208	C	0.576761	0.059955	-0.011499
H209	H	0.559497	0.070523	0.025667
H210	H	0.534217	0.068756	-0.050243
H211	H	0.616902	0.001599	0.032442
H212	H	0.264703	1.076351	-0.349680
H213	H	0.496206	1.095182	-0.604355
H214	H	0.129334	1.186311	-0.485020
C215	C	0.456446	1.159762	-0.790147
H216	H	0.435247	1.194199	-0.778431
H217	H	0.483004	1.183773	-0.834044
H218	H	0.415435	1.159209	-0.818907
H219	H	0.637318	1.370840	-0.598619
H220	H	0.779077	0.635583	-0.680756
H221	H	0.114217	1.290551	-0.665936
H222	H	0.690233	0.654399	-0.255788
C223	C	0.232118	1.301226	-0.739982
H224	H	0.178178	1.337767	-0.780813
H225	H	0.256259	1.336029	-0.753409
H226	H	0.256249	1.268858	-0.753397
C227	C	0.480524	1.024977	0.010013
H228	H	0.514670	0.999310	-0.005620
H229	H	0.481749	1.077137	-0.017878
H230	H	0.496858	0.985424	0.079925
H231	H	0.348143	1.100242	0.023660
H232	H	0.690242	0.544426	-0.255778
C233	C	0.711992	0.744596	-0.411508
H234	H	0.748829	0.684739	-0.357794
H235	H	0.731990	0.779271	-0.415967
H236	H	0.664413	0.754719	-0.400854
H237	H	0.542055	1.445951	-0.761612
H238	H	0.690262	0.174822	-0.255749
C239	C	0.576774	0.429531	-0.011497
H240	H	0.559520	0.440091	0.025679
H241	H	0.534228	0.438317	-0.050221
H242	H	0.616927	0.371182	0.032433
C243	C	0.793620	0.611980	-0.408245
H244	H	0.814815	0.577539	-0.419956
H245	H	0.834625	0.612526	-0.379471
H246	H	0.767049	0.587974	-0.364359
C247	C	0.794768	0.705792	-0.295142
H248	H	0.794448	0.688845	-0.328386
H249	H	0.776626	0.674939	-0.242831
H250	H	0.761529	0.766654	-0.340618
H251	H	0.567201	0.979817	-0.848373
H252	H	0.613288	0.904937	-0.846542
