data_functionalizedCrystal
_audit_creation_method	'MofGen! by Chris Wilmer'
_symmetry_space_group_name_H-M	'P1'
_symmetry_Int_Tables_number	1
_symmetry_cell_setting	triclinic
loop_
_symmetry_equiv_pos_as_xyz
  x,y,z
_cell_length_a	12.645331
_cell_length_b	18.101395
_cell_length_c	12.645323
_cell_angle_alpha	89.971733
_cell_angle_beta	89.977324
_cell_angle_gamma	90.030083
loop_
_atom_site_label
_atom_site_type_symbol
_atom_site_fract_x
_atom_site_fract_y
_atom_site_fract_z
Zn1	Zn	1.620632	-0.294844	-0.599421
Zn2	Zn	1.620473	-0.418694	-0.422151
Zn3	Zn	1.443347	-0.294869	-0.422166
Zn4	Zn	1.443287	-0.418646	-0.599366
O5	O	1.531935	-0.356763	-0.510776
O6	O	1.768958	-0.311283	-0.575923
O7	O	1.596935	-0.402299	-0.273805
O8	O	1.466956	-0.191233	-0.445708
O9	O	1.768841	-0.402275	-0.445683
O10	O	1.597207	-0.191214	-0.575937
O11	O	1.466801	-0.311325	-0.273816
O12	O	1.294992	-0.311278	-0.445655
O13	O	1.466854	-0.402193	-0.747721
O14	O	1.294948	-0.402217	-0.575843
O15	O	1.597149	-0.311236	-0.747761
O16	O	1.596877	-0.522321	-0.445630
O17	O	1.466699	-0.522285	-0.575829
C18	C	1.256505	-0.356746	-0.510745
C19	C	1.138675	-0.356756	-0.510757
C20	C	0.971103	-0.299284	-0.429308
C21	C	1.093663	-0.299432	-0.428949
C22	C	1.094129	-0.434770	-0.480236
C23	C	0.971530	-0.434456	-0.479680
C24	C	0.971532	-0.336957	-0.623043
C25	C	1.094139	-0.335215	-0.622419
C26	C	1.531793	-0.549174	-0.510745
C27	C	1.531829	-0.631488	-0.510767
C28	C	1.532062	-0.930579	-0.510824
C29	C	1.450348	-0.899262	-0.592945
C30	C	1.449960	-0.813644	-0.592688
C31	C	1.531946	-0.782196	-0.510797
C32	C	1.501694	-0.813349	-0.399071
C33	C	1.501167	-0.898994	-0.399562
C34	C	1.644207	-0.898924	-0.539445
C35	C	1.643548	-0.813273	-0.541895
C36	C	1.531883	-0.698337	-0.510774
C37	C	1.532123	-1.014438	-0.510839
C38	C	1.808440	-0.356781	-0.510807
C39	C	1.926270	-0.356789	-0.510821
C40	C	1.532013	-0.356706	-0.787281
C41	C	1.532046	-0.356682	-0.905112
C42	C	1.532106	-0.163601	-0.510830
C43	C	1.532179	-0.081287	-0.510854
C44	C	1.449825	-0.413633	-1.072650
C45	C	1.450040	-0.413915	-0.950090
C46	C	1.643739	-0.377863	-0.949630
C47	C	1.643288	-0.378220	-1.072228
C48	C	1.503631	-0.278231	-1.072316
C49	C	1.501139	-0.278701	-0.949710
C50	C	1.531918	-0.356767	-0.235346
C51	C	1.532090	-0.356583	-0.117517
H52	H	1.124778	-0.451877	-0.399076
H53	H	1.668278	-0.434540	-0.918936
C54	C	1.579561	-0.785827	-0.314152
N55	N	1.638210	-0.765094	-0.250191
C56	C	0.929828	-0.261442	-0.660536
N57	N	0.898419	-0.204560	-0.688762
H58	H	1.666361	-0.792909	-0.624119
C59	C	1.475399	-0.492390	-0.910477
N60	N	1.494480	-0.551504	-0.880641
C61	C	1.475526	-0.785185	-0.704608
N62	N	1.494780	-0.763753	-0.788911
C63	C	1.392113	-0.784466	-0.365733
N64	N	1.309572	-0.762714	-0.340630
C65	C	1.675872	-0.455601	-1.110876
N66	N	1.700410	-0.513886	-1.139980
H67	H	1.556682	-0.233948	-0.919092
H68	H	1.123262	-0.277805	-0.645434
C69	C	1.474964	-0.491617	-1.114262
N70	N	1.493907	-0.550356	-1.145600
H71	H	1.671788	-0.920471	-0.619527
H72	H	1.366835	-0.793220	-0.573730
H73	H	1.419189	-0.919036	-0.375318
C74	C	1.728914	-0.324535	-1.112330
N75	N	1.793413	-0.284105	-1.142530
H76	H	1.558102	-0.919713	-0.336289
C77	C	1.728767	-0.323507	-0.910269
N78	N	1.792809	-0.282566	-0.880619
H79	H	1.423605	-0.258923	-1.103222
H80	H	1.418943	-0.262727	-0.920612
C81	C	1.730150	-0.784350	-0.466977
N82	N	1.795376	-0.762568	-0.410540
C83	C	1.338148	-0.396006	-0.909423
N84	N	1.253865	-0.382520	-0.878797
C85	C	0.932359	-0.393538	-0.705094
N86	N	0.902846	-0.436157	-0.766887
C87	C	1.726455	-0.926287	-0.458647
N88	N	1.788396	-0.946902	-0.397788
H89	H	1.124783	-0.374044	-0.686401
C90	C	1.475657	-0.927026	-0.705227
N91	N	1.494719	-0.947944	-0.789801
H92	H	1.366755	-0.400505	-1.102125
H93	H	1.123283	-0.478761	-0.537743
C94	C	0.931321	-0.220893	-0.454870
N95	N	0.901348	-0.161848	-0.474125
H96	H	1.563549	-0.235726	-1.101333
H97	H	1.123783	-0.241582	-0.448080
H98	H	0.940251	-0.312246	-0.346636
C99	C	1.133215	-0.317145	-0.316602
N100	N	1.163004	-0.330489	-0.231978
H101	H	0.942879	-0.451274	-0.397640
H102	H	1.367728	-0.920848	-0.574226
H103	H	0.941871	-0.478752	-0.536461
