data_functionalizedCrystal
_audit_creation_method	'MofGen! by Chris Wilmer'
_symmetry_space_group_name_H-M	'P1'
_symmetry_Int_Tables_number	1
_symmetry_cell_setting	triclinic
loop_
_symmetry_equiv_pos_as_xyz
  x,y,z
_cell_length_a	10.685980
_cell_length_b	13.031981
_cell_length_c	10.685880
_cell_angle_alpha	87.686082
_cell_angle_beta	80.918858
_cell_angle_gamma	100.943887
loop_
_atom_site_label
_atom_site_type_symbol
_atom_site_fract_x
_atom_site_fract_y
_atom_site_fract_z
Zn1	Zn	1.938546	-0.344387	-0.809416
Zn2	Zn	1.895168	-0.506768	-0.570162
Zn3	Zn	1.709977	-0.344442	-0.580879
Zn4	Zn	1.695164	-0.531557	-0.761944
O5	O	1.809714	-0.431789	-0.680600
O6	O	2.112151	-0.355530	-0.793060
O7	O	1.858648	-0.474885	-0.395679
O8	O	1.764649	-0.198169	-0.635547
O9	O	2.080282	-0.474831	-0.617282
O10	O	1.932578	-0.198128	-0.803452
O11	O	1.722588	-0.355624	-0.403553
O12	O	1.528652	-0.379661	-0.589516
O13	O	1.739404	-0.517080	-0.944146
O14	O	1.517770	-0.517133	-0.722544
O15	O	1.918215	-0.379566	-0.979024
O16	O	1.844285	-0.656322	-0.571251
O17	O	1.697343	-0.674535	-0.712152
C18	C	1.476705	-0.451094	-0.652042
C19	C	1.334240	-0.459379	-0.639850
C20	C	1.764536	-0.703353	-0.635417
C21	C	1.745329	-0.819525	-0.616140
C22	C	1.819808	-0.871222	-0.690692
C23	C	1.799958	-0.991292	-0.670770
C24	C	2.144023	-0.412409	-0.709271
C25	C	2.286485	-0.404151	-0.721489
C26	C	1.831996	-0.451082	-1.008470
C27	C	1.841491	-0.459304	-1.148189
C28	C	1.855105	-0.159163	-0.725990
C29	C	1.874448	-0.042987	-0.745333
C30	C	1.787605	-0.412491	-0.354025
C31	C	1.778407	-0.403960	-0.214377
H32	H	1.266128	-0.513005	-0.560618
N33	N	1.923729	-0.812118	-0.794791
H34	H	1.923174	-0.734722	-0.794271
H35	H	2.010851	-0.824623	-0.780035
N36	N	1.696017	-1.050394	-0.566680
H37	H	1.696570	-1.127790	-0.567202
H38	H	1.713066	-1.024939	-0.481771
H39	H	1.354591	-0.350521	-0.800709
N40	N	1.697244	-0.332846	-1.147857
H41	H	1.656502	-0.297081	-1.211875
H42	H	1.627179	-0.375655	-1.081209
H43	H	1.666864	-0.864157	-0.537570
H44	H	1.902769	-0.512977	-1.198412
H45	H	1.952909	-0.998361	-0.823919
