data_functionalizedCrystal
_audit_creation_method	'MofGen! by Chris Wilmer'
_symmetry_space_group_name_H-M	'P1'
_symmetry_Int_Tables_number	1
_symmetry_cell_setting	triclinic
loop_
_symmetry_equiv_pos_as_xyz
  x,y,z
_cell_length_a	17.699077
_cell_length_b	19.188930
_cell_length_c	16.176319
_cell_angle_alpha	90.008567
_cell_angle_beta	90.005422
_cell_angle_gamma	83.212679
loop_
_atom_site_label
_atom_site_type_symbol
_atom_site_fract_x
_atom_site_fract_y
_atom_site_fract_z
O1	O	1.003964	0.088271	0.068745
O2	O	1.503964	0.588271	0.568745
O3	O	0.783570	0.099763	0.068750
O4	O	1.283570	0.599763	0.568750
O5	O	0.900127	-0.007631	0.068731
O6	O	1.400127	0.492369	0.568731
O7	O	0.887407	0.195666	0.068764
O8	O	1.387407	0.695666	0.568764
O9	O	0.900114	-0.007632	-0.068762
O10	O	1.400114	0.492368	0.431238
O11	O	0.783556	0.099763	-0.068743
O12	O	1.283556	0.599763	0.431257
O13	O	1.003951	0.088271	-0.068748
O14	O	1.503951	0.588271	0.431252
Cu15	Cu	0.893752	0.094017	-0.081300
Cu16	Cu	1.393752	0.594017	0.418700
Cu17	Cu	0.893768	0.094017	0.081302
Cu18	Cu	1.393768	0.594017	0.581302
O19	O	0.887393	0.195666	-0.068729
O20	O	1.387393	0.695666	0.431271
C21	C	0.755367	0.099352	0.000004
C22	C	1.255367	0.599352	0.500004
C23	C	0.671350	0.098119	0.000005
C24	C	1.171350	0.598119	0.500005
C25	C	0.631876	0.097537	-0.074943
C26	C	1.131876	0.597537	0.425057
C27	C	0.552935	0.096368	-0.074944
C28	C	1.052935	0.596368	0.425056
C29	C	0.513469	0.095784	0.000004
C30	C	1.013469	0.595784	0.500004
C31	C	0.552949	0.096363	0.074958
C32	C	1.052949	0.596363	0.574958
C33	C	0.631889	0.097528	0.074959
C34	C	1.131889	0.597528	0.574959
C35	C	0.234592	0.091665	0.074959
C36	C	0.734592	0.591665	0.574959
C37	C	0.155645	0.090502	0.074953
C38	C	0.655645	0.590502	0.574953
C39	C	0.155638	0.090504	-0.074944
C40	C	0.655638	0.590504	0.425056
C41	C	0.234578	0.091669	-0.074943
C42	C	0.734578	0.591669	0.425057
C43	C	0.274051	0.092244	0.000010
C44	C	0.774051	0.592244	0.500010
C45	C	0.359648	0.093512	0.000011
C46	C	0.859648	0.593512	0.500011
C47	C	0.427872	0.094522	0.000005
C48	C	0.927872	0.594522	0.500005
C49	C	0.899708	-0.033643	-0.000018
C50	C	1.399708	0.466357	0.499982
C51	C	0.898472	-0.111149	-0.000025
C52	C	1.398472	0.388851	0.499975
C53	C	0.966864	-0.155998	-0.000030
C54	C	1.466864	0.344002	0.499970
C55	C	0.965702	-0.228823	-0.000017
C56	C	1.465702	0.271177	0.499983
C57	C	0.896145	-0.256796	-0.000015
C58	C	1.396145	0.243204	0.499985
C59	C	0.827744	-0.211937	-0.000005
C60	C	1.327744	0.288063	0.499995
C61	C	0.828907	-0.139114	-0.000010
C62	C	1.328907	0.360886	0.499990
N63	N	0.842972	-0.364859	-0.046805
N64	N	1.342972	0.135141	0.453195
N65	N	0.841871	-0.434039	-0.046802
N66	N	1.341871	0.065961	0.453198
C67	C	0.892634	-0.476208	0.000002
C68	C	1.392634	0.023792	0.500002
N69	N	0.944552	-0.446586	0.046793
N70	N	1.444552	0.053414	0.546793
N71	N	0.945655	-0.377400	0.046786
N72	N	1.445655	0.122600	0.546786
C73	C	0.894875	-0.335760	-0.000009
C74	C	1.394875	0.164240	0.499991
C75	C	0.959771	-0.600023	0.000012
C76	C	1.459771	-0.100023	0.500012
C77	C	0.958607	-0.672849	0.000030
C78	C	1.458607	-0.172849	0.500030
C79	C	0.820646	-0.655962	0.000035
C80	C	1.320646	-0.155962	0.500035
C81	C	0.821813	-0.583137	0.000024
C82	C	1.321813	-0.083137	0.500024
C83	C	0.891378	-0.555173	0.000009
C84	C	1.391378	-0.055173	0.500009
C85	C	1.032154	0.088682	-0.000000
C86	C	1.532154	0.588682	0.500000
C87	C	1.116171	0.089915	0.000004
C88	C	1.616171	0.589915	0.500004
C89	C	0.887812	0.221677	0.000021
C90	C	1.387812	0.721677	0.500021
C91	C	0.889049	0.299183	0.000034
C92	C	1.389049	0.799183	0.500034
N93	N	0.893746	0.094016	-0.195665
N94	N	1.393746	0.594016	0.304335
C95	C	0.939506	0.136310	-0.238920
C96	C	1.439506	0.636310	0.261080
C97	C	0.939514	0.136308	-0.325467
C98	C	1.439514	0.636308	0.174533
C99	C	0.893758	0.094014	-0.368758
C100	C	1.393758	0.594014	0.131242
C101	C	0.847997	0.051715	-0.325497
C102	C	1.347997	0.551715	0.174503
C103	C	0.847993	0.051715	-0.238952
C104	C	1.347993	0.551715	0.261048
C105	C	0.848011	0.051716	-0.674525
C106	C	1.348011	0.551716	-0.174525
C107	C	0.848016	0.051722	-0.761077
C108	C	1.348016	0.551722	-0.261077
C109	C	0.939531	0.136309	-0.761040
C110	C	1.439531	0.636309	-0.261040
C111	C	0.939528	0.136308	-0.674495
C112	C	1.439528	0.636308	-0.174495
C113	C	0.893770	0.094007	-0.631242
C114	C	1.393770	0.594007	-0.131242
C115	C	0.893763	0.094009	-0.537398
C116	C	1.393763	0.594009	-0.037398
C117	C	0.893761	0.094015	-0.462600
C118	C	1.393761	0.594015	0.037400
N119	N	0.893780	0.094012	0.195667
N120	N	1.393780	0.594012	0.695667
H121	H	0.123489	0.090032	-0.135975
H122	H	0.623489	0.590032	0.364025
H123	H	0.520800	0.095883	-0.135975
H124	H	1.020800	0.595883	0.364025
H125	H	0.773213	-0.102597	-0.000005
H126	H	1.273213	0.397403	0.499995
Cl127	Cl	0.790457	-0.001435	-0.620161
Cl128	Cl	1.290457	0.498565	-0.120161
H129	H	0.810755	0.017279	-0.796322
H130	H	1.310755	0.517279	-0.296322
Cl131	Cl	0.997030	0.189483	-0.184505
Cl132	Cl	1.497030	0.689483	0.315495
H133	H	0.664028	0.098003	0.135989
H134	H	1.164028	0.598003	0.635989
Cl135	Cl	0.503338	0.095604	0.169180
Cl136	Cl	1.003338	0.595604	0.669180
Cl137	Cl	0.790476	-0.001455	-0.379920
Cl138	Cl	1.290476	0.498545	0.120080
H139	H	1.021397	-0.265345	-0.000018
H140	H	1.521397	0.234655	0.499982
H141	H	0.976777	0.170746	-0.360681
H142	H	1.476777	0.670746	0.139319
H143	H	0.976792	0.170751	-0.796268
H144	H	1.476792	0.670751	-0.296268
Cl145	Cl	0.284188	0.092407	-0.169168
Cl146	Cl	0.784188	0.592407	0.330832
H147	H	0.810731	0.017275	-0.203735
H148	H	1.310731	0.517275	0.296265
H149	H	0.771109	-0.234718	-0.000001
H150	H	1.271109	0.265282	0.499999
Cl151	Cl	1.054316	-0.120845	-0.000026
Cl152	Cl	1.554316	0.379155	0.499974
Cl153	Cl	0.106032	0.089767	0.169181
Cl154	Cl	0.606032	0.589767	0.669181
Cl155	Cl	0.997042	0.189488	-0.620077
Cl156	Cl	1.497042	0.689488	-0.120077
H157	H	1.016415	-0.577253	0.000003
H158	H	1.516415	-0.077253	0.500003
H159	H	1.014302	-0.709365	0.000030
H160	H	1.514302	-0.209365	0.500030
Cl161	Cl	0.284205	0.092389	0.169187
Cl162	Cl	0.784205	0.592389	0.669187
H163	H	0.766121	-0.546620	0.000024
H164	H	1.266121	-0.046620	0.500024
Cl165	Cl	0.681482	0.098276	-0.169170
Cl166	Cl	1.181482	0.598276	0.330830
Cl167	Cl	0.733202	-0.691121	0.000042
Cl168	Cl	1.233202	-0.191121	0.500042
