data_functionalizedCrystal
_audit_creation_method	'MofGen! by Chris Wilmer'
_symmetry_space_group_name_H-M	'P1'
_symmetry_Int_Tables_number	1
_symmetry_cell_setting	triclinic
loop_
_symmetry_equiv_pos_as_xyz
  x,y,z
_cell_length_a	12.759401
_cell_length_b	17.637651
_cell_length_c	12.759393
_cell_angle_alpha	101.250165
_cell_angle_beta	90.019437
_cell_angle_gamma	101.219209
loop_
_atom_site_label
_atom_site_type_symbol
_atom_site_fract_x
_atom_site_fract_y
_atom_site_fract_z
Zn1	Zn	1.521689	-0.314723	0.509334
Zn2	Zn	1.486051	-0.446961	0.298077
Zn3	Zn	1.345980	-0.314764	0.333660
Zn4	Zn	1.310464	-0.446900	0.473732
O5	O	1.416046	-0.380837	0.403701
O6	O	1.663981	-0.332273	0.481319
O7	O	1.467420	-0.429468	0.155764
O8	O	1.399067	-0.204116	0.386755
O9	O	1.637798	-0.429428	0.326109
O10	O	1.528160	-0.204086	0.515822
O11	O	1.364510	-0.332343	0.181907
O12	O	1.194250	-0.332283	0.352232
O13	O	1.338535	-0.429324	0.625487
O14	O	1.168157	-0.429363	0.455143
O15	O	1.493721	-0.332213	0.651644
O16	O	1.432981	-0.557595	0.291586
O17	O	1.303978	-0.557550	0.420639
C18	C	1.143083	-0.380822	0.403686
C19	C	1.026303	-0.380834	0.403699
C20	C	0.848133	-0.431473	0.457173
C21	C	0.957859	-0.431463	0.457159
C22	C	0.985014	-0.330218	0.350242
C23	C	0.875288	-0.330233	0.350250
C24	C	0.779695	-0.482100	0.510645
C25	C	0.820977	-0.532718	0.564101
C26	C	0.930704	-0.532708	0.564087
C27	C	0.999149	-0.482080	0.510617
C28	C	1.360787	-0.586261	0.348411
C29	C	1.337242	-0.674142	0.324793
C30	C	1.595592	-0.962799	0.583454
C31	C	1.573435	-1.045376	0.561243
C32	C	1.439100	-1.045515	0.426716
C33	C	1.461250	-0.962936	0.448912
C34	C	1.539496	-0.921584	0.527283
C35	C	1.405153	-0.921721	0.392740
C36	C	1.427297	-0.839149	0.414939
C37	C	1.505537	-0.797791	0.493309
C38	C	1.561639	-0.839012	0.549481
C39	C	1.326902	-0.963074	0.314375
C40	C	1.270806	-0.921860	0.258204
C41	C	1.292955	-0.839286	0.280396
C42	C	1.371195	-0.797928	0.358766
C43	C	1.236852	-0.798066	0.224224
C44	C	1.258996	-0.715493	0.246422
C45	C	1.393339	-0.715356	0.380965
C46	C	1.690075	-0.380853	0.403716
C47	C	1.806850	-0.380859	0.403722
C48	C	1.416141	-0.380757	0.677756
C49	C	1.416182	-0.380723	0.794541
C50	C	1.471550	-0.174611	0.459229
C51	C	1.495203	-0.086730	0.482892
C52	C	1.416027	-0.380859	0.130727
C53	C	1.416250	-0.380671	0.014002
C54	C	1.496998	-0.330153	0.863026
C55	C	1.497031	-0.330124	0.972758
C56	C	1.335426	-0.431243	0.945509
C57	C	1.335390	-0.431267	0.835780
C58	C	1.577789	-0.279609	0.821788
C59	C	1.658613	-0.229036	0.890274
C60	C	1.658645	-0.229007	1.000006
C61	C	1.577855	-0.279552	1.041251
H62	H	1.088494	-0.482080	0.510602
H63	H	1.269650	-0.472394	0.979100
C64	C	0.976114	-0.588387	0.622883
C65	C	0.936856	-0.678263	0.589936
C66	C	0.982264	-0.733941	0.648740
C67	C	1.066930	-0.699743	0.740490
C68	C	1.106193	-0.609861	0.773441
C69	C	1.060785	-0.554183	0.714638
H70	H	0.874177	-0.703583	0.522013
H71	H	0.953199	-0.800478	0.624346
H72	H	1.100544	-0.740959	0.784020
H73	H	1.168871	-0.584541	0.841364
H74	H	1.089850	-0.487647	0.739031
C75	C	0.745693	-0.588408	0.622914
C76	C	0.624999	-0.588421	0.622936
C77	C	0.549717	-0.644114	0.681749
C78	C	0.595129	-0.699792	0.740539
C79	C	0.715829	-0.699780	0.740519
C80	C	0.791111	-0.644088	0.681706
H81	H	0.591377	-0.547203	0.579414
H82	H	0.460367	-0.644122	0.681763
H83	H	0.539401	-0.741019	0.784076
H84	H	0.749451	-0.740999	0.784041
H85	H	0.880461	-0.644080	0.681692
C86	C	1.060300	-0.274522	0.291439
C87	C	1.043461	-0.280867	0.170282
C88	C	1.118746	-0.225167	0.111483
C89	C	1.210870	-0.163121	0.173842
C90	C	1.227713	-0.156774	0.295006
C91	C	1.152428	-0.212474	0.353805
H92	H	0.975262	-0.326799	0.124114
H93	H	1.106277	-0.229866	0.021789
H94	H	1.266600	-0.121888	0.130316
H95	H	1.295912	-0.110842	0.341174
H96	H	1.164896	-0.207775	0.443499
H97	H	0.690349	-0.482112	0.510666
H98	H	0.841677	-0.289014	0.306733
C99	C	1.681673	-0.917300	0.669653
C100	C	1.798085	-0.928594	0.658138
C101	C	1.884163	-0.883093	0.744329
C102	C	1.853829	-0.826299	0.842037
C103	C	1.737411	-0.815003	0.853556
C104	C	1.651333	-0.860503	0.767365
H105	H	1.820545	-0.970638	0.585805
H106	H	1.970343	-0.891456	0.735801
H107	H	1.917549	-0.792617	0.905841
H108	H	1.714951	-0.772958	0.925889
H109	H	1.565153	-0.852141	0.775893
H110	H	1.213316	-0.681936	0.200682
H111	H	1.457062	-0.681686	0.444775
H112	H	1.269570	-0.472433	0.780020
H113	H	1.523566	-0.730556	0.511381
H114	H	1.619107	-1.078930	0.607006
H115	H	1.577774	-0.279629	0.732440
C116	C	1.184742	-0.967352	0.171995
C117	C	1.215092	-1.024140	0.074290
C118	C	1.129030	-1.069632	-0.011922
C119	C	1.012617	-1.058335	-0.000429
C120	C	0.982261	-1.001545	0.097280
C121	C	1.068324	-0.956053	0.183492
H122	H	1.301272	-1.032505	0.065779
H123	H	1.151502	-1.111672	-0.084253
H124	H	0.948909	-1.092011	-0.064249
H125	H	0.896081	-0.993180	0.105792
H126	H	1.045852	-0.914013	0.255823
C127	C	1.150781	-0.843560	0.138023
C128	C	1.181119	-0.900354	0.040318
C129	C	1.095046	-0.945848	-0.045883
C130	C	0.978636	-0.934548	-0.034378
C131	C	0.948293	-0.877751	0.063332
C132	C	1.034366	-0.832257	0.149532
H133	H	1.267298	-0.908721	0.031797
H134	H	1.117509	-0.987892	-0.118214
H135	H	0.914920	-0.968225	-0.098189
H136	H	0.862114	-0.869384	0.071852
H137	H	1.011903	-0.790212	0.221864
H138	H	1.625363	-0.805342	0.613292
H139	H	1.375390	-1.079195	0.362909
H140	H	1.308866	-1.030310	0.296314
C141	C	1.747477	-0.173437	0.844909
C142	C	1.747449	-0.173466	0.724211
C143	C	1.836315	-0.117865	0.678849
C144	C	1.925209	-0.062236	0.754186
C145	C	1.925240	-0.062204	0.874891
C146	C	1.836374	-0.117805	0.920253
H147	H	1.681642	-0.214648	0.668436
H148	H	1.836292	-0.117889	0.589495
H149	H	1.990993	-0.021077	0.720606
H150	H	1.991048	-0.021022	0.930666
H151	H	1.836398	-0.117782	1.009607
C152	C	1.747544	-0.173376	1.075341
C153	C	1.865234	-0.179845	1.058524
C154	C	1.954139	-0.124214	1.133856
C155	C	1.925354	-0.062114	1.226006
C156	C	1.807658	-0.055641	1.242827
C157	C	1.718753	-0.111272	1.167495
H158	H	1.886548	-0.225818	0.990306
H159	H	2.041266	-0.129006	1.121403
H160	H	1.991166	-0.020932	1.281771
H161	H	1.786344	-0.009668	1.311046
H162	H	1.631626	-0.106481	1.179948
H163	H	1.577878	-0.279516	1.130606
