data_functionalizedCrystal
_audit_creation_method	'MofGen! by Chris Wilmer'
_symmetry_space_group_name_H-M	'P1'
_symmetry_Int_Tables_number	1
_symmetry_cell_setting	triclinic
loop_
_symmetry_equiv_pos_as_xyz
  x,y,z
_cell_length_a	15.944480
_cell_length_b	10.723024
_cell_length_c	9.198806
_cell_angle_alpha	89.997988
_cell_angle_beta	89.996977
_cell_angle_gamma	83.968858
loop_
_atom_site_label
_atom_site_type_symbol
_atom_site_fract_x
_atom_site_fract_y
_atom_site_fract_z
O1	O	-1.115480	-0.160511	0.120857
O2	O	-0.871036	-0.180445	0.120867
O3	O	-0.998896	0.011171	0.120857
O4	O	-0.987619	-0.352128	0.120868
O5	O	-0.998886	0.011172	-0.120929
O6	O	-0.871026	-0.180445	-0.120918
O7	O	-1.115469	-0.160511	-0.120928
Cu8	Cu	-0.993247	-0.170478	-0.143000
Cu9	Cu	-0.993259	-0.170478	0.142939
O10	O	-0.987609	-0.352127	-0.120917
C11	C	-0.839731	-0.179633	-0.000025
C12	C	-0.746468	-0.177199	-0.000021
C13	C	-0.511353	-0.289999	-0.000014
C14	C	-0.460441	-0.229182	-0.119234
C15	C	-0.575720	-0.172688	-0.000022
C16	C	-0.460455	-0.229155	0.119147
C17	C	-0.410785	-0.168340	-0.000017
C18	C	-0.526037	-0.111903	-0.119341
C19	C	-0.526055	-0.111892	0.119147
C20	C	-0.475175	-0.050989	-0.000102
C21	C	-0.670735	-0.175196	-0.000026
C22	C	-0.315773	-0.165822	-0.000023
C23	C	-0.998070	0.057661	-0.000034
C24	C	-0.995615	0.196183	-0.000029
C25	C	-0.146773	-0.161340	-0.000030
C26	C	-0.240032	-0.163825	-0.000016
C27	C	-0.988435	-0.398616	-0.000023
C28	C	-0.990890	-0.537139	-0.000019
N29	N	-0.993244	-0.170477	-0.344114
C30	C	-1.067159	0.272096	-0.000030
C31	C	-1.064623	0.415267	-0.000024
C32	C	-1.046929	-0.089671	-0.416315
C33	C	-1.046942	-0.089666	-0.583727
N34	N	-0.993268	-0.170469	0.344053
H35	H	-0.459130	0.050133	-0.000174
H36	H	-1.092879	-0.020487	-0.354193
O37	O	-1.101739	-0.006956	-0.657631
C38	C	-1.087139	0.116510	-0.620581
H39	H	-1.054808	0.116327	-0.510041
H40	H	-1.149827	0.178178	-0.615514
H41	H	-1.044980	0.154862	-0.706227
H42	H	-0.932486	0.237184	-0.000017
O43	O	-1.142495	0.223252	0.000228
C44	C	-1.188474	0.264056	0.125433
H45	H	-1.143149	0.291213	0.212955
H46	H	-1.224587	0.185134	0.167468
H47	H	-1.234865	0.348812	0.097121
O48	O	-0.426106	-0.288197	-0.239416
C49	C	-0.338016	-0.284064	-0.238367
H50	H	-0.321948	-0.202231	-0.168200
H51	H	-0.314894	-0.271106	-0.354116
H52	H	-0.305973	-0.375512	-0.191942
O53	O	-0.426375	-0.288445	0.239351
C54	C	-0.444456	-0.414360	0.238885
H55	H	-0.502577	-0.423430	0.169081
H56	H	-0.457015	-0.445052	0.354822
H57	H	-0.388399	-0.476414	0.192376
O58	O	-0.560219	-0.053025	0.239535
C59	C	-0.526638	-0.115206	0.364984
H60	H	-0.502607	-0.216115	0.336421
H61	H	-0.577862	-0.114849	0.451492
H62	H	-0.472293	-0.064937	0.408481
H63	H	-1.125870	0.480496	-0.000031
O64	O	-0.938547	-0.253063	-0.581736
C65	C	-0.984172	-0.329813	-0.493707
H66	H	-1.049550	-0.279875	-0.471033
H67	H	-0.949304	-0.349591	-0.386624
H68	H	-0.990555	-0.422032	-0.552278
O69	O	-0.938303	-0.252885	-0.418151
C70	C	-0.854954	-0.232957	-0.381061
H71	H	-0.853758	-0.133121	-0.339123
H72	H	-0.812959	-0.247367	-0.481238
H73	H	-0.830748	-0.302265	-0.292834
O74	O	-0.530802	-0.410485	-0.000335
C75	C	-0.578934	-0.431153	-0.124948
H76	H	-0.611164	-0.337819	-0.165902
H77	H	-0.628734	-0.496003	-0.096281
H78	H	-0.535825	-0.476349	-0.213426
O79	O	-0.560210	-0.052931	-0.239668
C80	C	-0.648394	-0.055996	-0.238229
H81	H	-0.664843	-0.137316	-0.167575
H82	H	-0.671733	-0.069072	-0.353812
H83	H	-0.679914	0.035920	-0.192138
O84	O	-0.917759	0.385187	0.000177
C85	C	-0.870685	0.407808	0.125424
H86	H	-0.890665	0.506566	0.167175
H87	H	-0.800677	0.398504	0.097266
H88	H	-0.882647	0.336647	0.213104
