data_functionalizedCrystal
_audit_creation_method	'MofGen! by Chris Wilmer'
_symmetry_space_group_name_H-M	'P1'
_symmetry_Int_Tables_number	1
_symmetry_cell_setting	triclinic
loop_
_symmetry_equiv_pos_as_xyz
  x,y,z
_cell_length_a	16.992694
_cell_length_b	19.188930
_cell_length_c	15.455341
_cell_angle_alpha	87.005924
_cell_angle_beta	87.171364
_cell_angle_gamma	86.906503
loop_
_atom_site_label
_atom_site_type_symbol
_atom_site_fract_x
_atom_site_fract_y
_atom_site_fract_z
O1	O	1.036828	0.145124	0.072038
O2	O	1.536828	0.645124	0.572038
O3	O	0.808547	0.143499	0.072064
O4	O	1.308547	0.643499	0.572064
O5	O	0.929276	0.043042	0.072033
O6	O	1.429276	0.543042	0.572033
O7	O	0.916099	0.245580	0.072069
O8	O	1.416099	0.745580	0.572069
O9	O	0.935385	0.048834	-0.072227
O10	O	1.435385	0.548834	0.427773
O11	O	0.814656	0.149291	-0.072197
O12	O	1.314656	0.649291	0.427803
O13	O	1.042937	0.150916	-0.072223
O14	O	1.542937	0.650916	0.427777
Cu15	Cu	0.929354	0.150633	-0.085382
Cu16	Cu	1.429354	0.650633	0.414618
Cu17	Cu	0.922130	0.143782	0.085223
Cu18	Cu	1.422130	0.643782	0.585223
O19	O	0.922208	0.251373	-0.072192
O20	O	1.422208	0.751373	0.427808
C21	C	0.782396	0.144306	-0.000064
C22	C	1.282396	0.644306	0.499936
C23	C	0.695373	0.138072	-0.000055
C24	C	1.195373	0.638072	0.499945
C25	C	0.644926	0.198212	-0.000045
C26	C	1.144926	0.698212	0.499955
C27	C	0.563160	0.192351	-0.000058
C28	C	1.063160	0.692351	0.499942
C29	C	0.531842	0.126351	-0.000075
C30	C	1.031842	0.626351	0.499925
C31	C	0.582296	0.066208	-0.000087
C32	C	1.082296	0.566208	0.499913
C33	C	0.664061	0.072069	-0.000080
C34	C	1.164061	0.572069	0.499920
C35	C	0.288329	0.102060	-0.000102
C36	C	0.788329	0.602060	0.499898
C37	C	0.206558	0.096203	-0.000106
C38	C	0.706558	0.596203	0.499894
C39	C	0.187427	0.222347	-0.000079
C40	C	0.687427	0.722347	0.499921
C41	C	0.269194	0.228202	-0.000067
C42	C	0.769194	0.728202	0.499933
C43	C	0.319641	0.168059	-0.000084
C44	C	0.819641	0.668059	0.499916
N45	N	0.448264	0.120360	-0.000085
N46	N	0.948264	0.620360	0.499915
N47	N	0.403217	0.174052	-0.000079
N48	N	0.903217	0.674052	0.499921
C49	C	0.931904	0.019902	-0.000099
C50	C	1.431904	0.519902	0.499901
C51	C	0.930623	-0.057677	-0.000107
C52	C	1.430623	0.442323	0.499893
C53	C	1.001463	-0.098455	-0.000119
C54	C	1.501463	0.401545	0.499881
C55	C	1.000259	-0.171350	-0.000105
C56	C	1.500259	0.328650	0.499895
C57	C	0.928212	-0.203463	-0.000096
C58	C	1.428212	0.296537	0.499904
C59	C	0.857363	-0.162676	-0.000079
C60	C	1.357363	0.337324	0.499921
C61	C	0.858569	-0.089783	-0.000085
C62	C	1.358569	0.410217	0.499915
N63	N	0.875220	-0.312719	-0.049185
N64	N	1.375220	0.187281	0.450815
N65	N	0.874080	-0.381965	-0.049182
N66	N	1.374080	0.118035	0.450818
C67	C	0.924576	-0.423085	-0.000078
C68	C	1.424576	0.076915	0.499922
N69	N	0.976267	-0.392344	0.049011
N70	N	1.476267	0.107656	0.549011
N71	N	0.977410	-0.323092	0.049004
N72	N	1.477410	0.176908	0.549004
C73	C	0.926897	-0.282503	-0.000090
C74	C	1.426897	0.217497	0.499910
C75	C	0.994115	-0.542904	-0.000074
C76	C	1.494115	-0.042904	0.499926
C77	C	0.992908	-0.615801	-0.000054
C78	C	1.492908	-0.115801	0.499946
C79	C	0.850010	-0.607124	-0.000038
C80	C	1.350010	-0.107124	0.499962
C81	C	0.851219	-0.534230	-0.000048
C82	C	1.351219	-0.034230	0.499952
C83	C	0.923274	-0.502124	-0.000070
C84	C	1.423274	-0.002124	0.499930
C85	C	1.069088	0.150109	-0.000093
C86	C	1.569088	0.650109	0.499907
C87	C	1.156111	0.156342	-0.000096
C88	C	1.656111	0.656342	0.499904
C89	C	0.919580	0.274513	-0.000057
C90	C	1.419580	0.774513	0.499943
C91	C	0.920860	0.352092	-0.000044
C92	C	1.420860	0.852092	0.499956
N93	N	0.934441	0.155451	-0.205377
N94	N	1.434441	0.655451	0.294623
C95	C	0.962523	0.182150	-0.749379
C96	C	1.462523	0.682150	-0.249379
C97	C	0.958681	0.178502	-0.658572
C98	C	1.458681	0.678502	-0.158572
C99	C	0.909368	0.131658	-0.613169
C100	C	1.409368	0.631658	-0.113169
C101	C	0.863889	0.088464	-0.658578
C102	C	1.363889	0.588464	-0.158578
C103	C	0.867727	0.092117	-0.749384
C104	C	1.367727	0.592117	-0.249384
C105	C	0.892801	0.115910	-0.341591
C106	C	1.392801	0.615910	0.158409
C107	C	0.888967	0.112259	-0.250779
C108	C	1.388967	0.612259	0.249221
C109	C	0.983758	0.202298	-0.250779
C110	C	1.483758	0.702298	0.249221
C111	C	0.987596	0.205943	-0.341587
C112	C	1.487596	0.705943	0.158413
C113	C	0.942114	0.162753	-0.386988
C114	C	1.442114	0.662753	0.113012
N115	N	0.905441	0.127926	-0.520350
N116	N	1.405441	0.627926	-0.020350
N117	N	0.946038	0.166489	-0.479806
N118	N	1.446038	0.666489	0.020194
N119	N	0.917049	0.138959	0.205218
N120	N	1.417049	0.638959	0.705218
H121	H	0.294686	0.281946	-0.000043
H122	H	0.794686	0.781946	0.499957
H123	H	0.855768	0.080739	-0.378546
H124	H	1.355768	0.580739	0.121454
H125	H	0.181063	0.042455	-0.000119
H126	H	0.681063	0.542455	0.499881
O127	O	1.040785	0.256470	-0.390552
O128	O	1.540785	0.756470	0.109448
H129	H	1.004820	0.293529	-0.431912
H130	H	1.504820	0.793529	0.068088
H131	H	1.052786	-0.516763	-0.000088
H132	H	1.552786	-0.016763	0.499912
H133	H	0.146345	0.271312	-0.000067
H134	H	0.646345	0.771312	0.499933
H135	H	0.329394	0.053086	-0.000117
H136	H	0.829394	0.553086	0.499883
H137	H	0.556792	0.012469	-0.000113
H138	H	1.056792	0.512469	0.499887
H139	H	0.830696	0.056947	-0.786350
H140	H	1.330696	0.556947	-0.286350
H141	H	0.670417	0.251956	-0.000031
H142	H	1.170417	0.751956	0.499969
O143	O	0.718472	0.007202	-0.000096
O144	O	1.218472	0.507202	0.499904
H145	H	0.780590	0.022365	-0.000100
H146	H	1.280590	0.522365	0.499900
H147	H	0.793534	-0.501027	-0.000043
H148	H	1.293534	-0.001027	0.499957
O149	O	0.508746	0.257215	-0.000048
O150	O	1.008746	0.757215	0.499952
H151	H	0.544259	0.304093	-0.000025
H152	H	1.044259	0.804093	0.499975
H153	H	1.002682	0.220293	-0.786340
H154	H	1.502682	0.720293	-0.286340
H155	H	0.800881	-0.056581	-0.000075
H156	H	1.300881	0.443419	0.499925
H157	H	1.057947	-0.204558	-0.000111
H158	H	1.557947	0.295442	0.499889
H159	H	1.060135	-0.072320	-0.000134
H160	H	1.560135	0.427680	0.499866
O161	O	1.069317	-0.659789	-0.000075
O162	O	1.569317	-0.159789	0.499925
H163	H	1.119620	-0.625213	-0.000102
H164	H	1.619620	-0.125213	0.499898
O165	O	0.779653	-0.197305	-0.000080
O166	O	1.279653	0.302695	0.499920
H167	H	0.790716	-0.254843	-0.000090
H168	H	1.290716	0.245157	0.499910
O169	O	0.772301	-0.641750	-0.000035
O170	O	1.272301	-0.141750	0.499965
H171	H	0.765843	-0.677109	0.058762
H172	H	1.265843	-0.177109	0.558762
O173	O	1.007724	0.225089	-0.609599
O174	O	1.507724	0.725089	-0.109599
H175	H	1.042664	0.258271	-0.656426
H176	H	1.542664	0.758271	-0.156426
H177	H	1.020786	0.237462	-0.213804
H178	H	1.520786	0.737462	0.286196
O179	O	0.835771	0.061738	-0.201803
O180	O	1.335771	0.561738	0.298197
H181	H	0.804783	0.032323	-0.248628
H182	H	1.304783	0.532323	0.251372
O183	O	0.810747	0.037898	-0.609615
O184	O	1.310747	0.537898	-0.109615
H185	H	0.815739	0.042594	-0.538844
H186	H	1.315739	0.542594	-0.038844
