data_functionalizedCrystal
_audit_creation_method	'MofGen! by Chris Wilmer'
_symmetry_space_group_name_H-M	'P1'
_symmetry_Int_Tables_number	1
_symmetry_cell_setting	triclinic
loop_
_symmetry_equiv_pos_as_xyz
  x,y,z
_cell_length_a	16.109301
_cell_length_b	13.930277
_cell_length_c	16.109301
_cell_angle_alpha	90.005979
_cell_angle_beta	83.461481
_cell_angle_gamma	90.004498
loop_
_atom_site_label
_atom_site_type_symbol
_atom_site_fract_x
_atom_site_fract_y
_atom_site_fract_z
O1	O	1.103135	0.079773	0.106867
O2	O	0.861073	0.079789	0.120166
O3	O	0.988754	0.079771	-0.007515
O4	O	0.975455	0.079791	0.234547
O5	O	0.988736	-0.079891	-0.007518
O6	O	0.861056	-0.079873	0.120163
O7	O	1.103117	-0.079889	0.106864
Zn8	Zn	0.982084	-0.105231	0.113513
Zn9	Zn	0.982107	0.105131	0.113517
O10	O	0.975437	-0.079871	0.234544
C11	C	0.830090	-0.000040	0.119626
C12	C	0.737794	-0.000035	0.118011
N13	N	0.982074	-0.248797	0.113510
C14	C	0.515522	-0.000040	0.190018
C15	C	0.428801	-0.000046	0.188494
C16	C	0.448676	-0.000055	0.037006
C17	C	0.535394	-0.000055	0.038530
C18	C	0.568815	-0.000043	0.115039
C19	C	0.395376	-0.000049	0.111990
C20	C	0.301350	-0.000055	0.110337
C21	C	0.662847	-0.000038	0.116693
C22	C	0.925568	-0.701058	0.170031
C23	C	1.038669	-0.701043	0.056995
C24	C	1.038659	-0.600548	0.056993
C25	C	0.982104	-0.550302	0.113511
C26	C	0.925558	-0.600553	0.170032
C27	C	1.095210	-0.550290	0.000478
C28	C	1.095203	-0.449788	0.000474
C29	C	1.038642	-0.399541	0.056989
C30	C	0.982094	-0.449797	0.113512
C31	C	0.925538	-0.399552	0.170030
C32	C	0.868985	-0.449807	0.226550
C33	C	0.868998	-0.550306	0.226547
C34	C	1.038629	-0.299042	0.056992
C35	C	0.925528	-0.299047	0.170031
C36	C	1.134101	-0.000057	0.107404
C37	C	1.226397	-0.000057	0.109019
N38	N	0.982123	0.248697	0.113513
C39	C	0.988206	-0.000061	-0.038491
C40	C	0.986591	-0.000062	-0.130786
C41	C	1.058599	-0.000051	-0.353059
C42	C	1.057075	-0.000043	-0.439779
C43	C	0.905586	-0.000037	-0.419905
C44	C	0.907111	-0.000038	-0.333186
C45	C	0.983620	-0.000050	-0.299766
C46	C	0.980571	-0.000041	-0.473205
C47	C	0.978918	-0.000032	-0.567231
C48	C	0.985273	-0.000057	-0.205734
C49	C	0.975984	-0.000037	0.265521
C50	C	0.977600	-0.000030	0.357816
H51	H	0.542730	-0.000037	0.252317
C52	C	0.370182	-0.000035	0.270971
H53	H	0.402510	-0.000021	0.316752
H54	H	0.335936	-0.055712	0.273528
H55	H	0.335945	0.055650	0.273524
C56	C	1.157400	-0.394516	-0.061701
H57	H	1.191079	-0.438835	-0.095364
H58	H	1.191994	-0.355293	-0.031787
H59	H	1.127491	-0.355330	-0.096323
H60	H	1.084719	-0.741956	0.010984
C61	C	0.411910	-0.000056	-0.047147
H62	H	0.352630	-0.000045	-0.037318
H63	H	0.430199	-0.055733	-0.078025
H64	H	0.430210	0.055629	-0.078012
H65	H	0.843295	-0.000029	-0.447127
C66	C	0.594021	-0.000055	-0.043951
H67	H	0.561698	-0.000048	-0.089735
H68	H	0.628260	-0.055732	-0.046507
H69	H	0.628265	0.055631	-0.046498
C70	C	0.863317	-0.243785	0.232204
H71	H	0.829646	-0.288110	0.265866
H72	H	0.828718	-0.204586	0.202288
H73	H	0.893215	-0.204575	0.266829
H74	H	0.822940	-0.408886	0.272571
C75	C	0.806804	-0.605587	0.288718
H76	H	0.814919	-0.672636	0.280629
H77	H	0.751318	-0.589137	0.279677
H78	H	0.815822	-0.589105	0.344212
C79	C	1.142754	-0.000053	-0.316298
H80	H	1.187190	-0.000044	-0.360461
H81	H	1.146498	-0.055731	-0.282887
H82	H	1.146500	0.055632	-0.282879
H83	H	0.879521	-0.741978	0.216047
H84	H	1.141260	-0.591202	-0.045533
C85	C	1.100829	-0.243766	-0.005171
H86	H	1.134511	-0.288084	-0.038833
H87	H	1.135419	-0.204545	0.024748
H88	H	1.070926	-0.204577	-0.039797
H89	H	1.118130	-0.000042	-0.483168
H90	H	0.846050	-0.000035	-0.289792
