data_functionalizedCrystal
_audit_creation_method	'MofGen! by Chris Wilmer'
_symmetry_space_group_name_H-M	'P1'
_symmetry_Int_Tables_number	1
_symmetry_cell_setting	triclinic
loop_
_symmetry_equiv_pos_as_xyz
  x,y,z
_cell_length_a	18.627263
_cell_length_b	18.627226
_cell_length_c	18.627297
_cell_angle_alpha	120.004257
_cell_angle_beta	89.999758
_cell_angle_gamma	60.000314
loop_
_atom_site_label
_atom_site_type_symbol
_atom_site_fract_x
_atom_site_fract_y
_atom_site_fract_z
O1	O	-0.492472	-0.633254	-0.021364
O2	O	-0.388078	-0.486243	0.021251
O3	O	-0.388073	-0.633252	-0.125763
O4	O	-0.492476	-0.486246	0.125650
O5	O	-0.507480	-0.513842	-0.125750
O6	O	-0.507484	-0.366834	0.021264
O7	O	-0.611878	-0.513845	-0.021351
Zn8	Zn	-0.578640	-0.421380	-0.000042
Zn9	Zn	-0.421316	-0.578708	-0.000059
O10	O	-0.611883	-0.366836	0.125663
C11	C	-0.386972	-0.226052	0.030933
C12	C	-0.431269	-0.137457	0.024830
C13	C	-0.430378	-0.269043	0.031546
C14	C	-0.256974	-0.356049	0.030940
C15	C	-0.162277	-0.406446	0.024843
C16	C	-0.300578	-0.398842	0.031553
C17	C	-0.386977	-0.356045	0.030945
C18	C	-0.431279	-0.406439	0.024854
C19	C	-0.300573	-0.269046	0.031541
C20	C	-0.386972	-0.644049	-0.387063
C21	C	-0.431273	-0.593650	-0.431359
C22	C	-0.300570	-0.731061	-0.430476
C23	C	-0.386972	-0.644049	-0.257062
C24	C	-0.431274	-0.593649	-0.162360
C25	C	-0.300570	-0.731060	-0.300672
C26	C	-0.256967	-0.774057	-0.387075
C27	C	-0.162267	-0.862663	-0.431384
C28	C	-0.430378	-0.601250	-0.300660
C29	C	-0.612967	-0.774064	-0.031073
C30	C	-0.568663	-0.862671	-0.024986
C31	C	-0.699367	-0.731067	-0.031676
C32	C	-0.612973	-0.644053	-0.031059
C33	C	-0.568675	-0.593652	-0.024958
C34	C	-0.699373	-0.601254	-0.031662
C35	C	-0.742973	-0.644055	-0.031059
C36	C	-0.837671	-0.593656	-0.024957
C37	C	-0.569565	-0.731065	-0.031676
O38	O	0.125729	-0.513858	-0.021361
O39	O	-0.125673	-0.366850	0.021239
O40	O	0.021337	-0.513878	-0.125769
O41	O	-0.021281	-0.366830	0.125647
O42	O	0.021332	-0.633272	-0.125758
O43	O	-0.125678	-0.486244	0.021250
O44	O	0.125723	-0.633252	-0.021351
Zn45	Zn	0.000022	-0.578705	-0.000049
Zn46	Zn	0.000029	-0.421397	-0.000063
O47	O	-0.021286	-0.486224	0.125658
O48	O	-0.611861	0.104325	-0.021388
O49	O	-0.507471	-0.104455	0.021231
O50	O	-0.507458	-0.104488	-0.125785
O51	O	-0.611874	0.104358	0.125627
O52	O	-0.388054	-0.104491	-0.125790
O53	O	-0.388067	-0.104458	0.021226
O54	O	-0.492458	0.104323	-0.021393
Zn55	Zn	-0.421305	-0.000068	-0.000084
Zn56	Zn	-0.578624	-0.000065	-0.000078
O57	O	-0.492471	0.104355	0.125623
O58	O	0.125740	-1.104478	-0.492601
O59	O	-0.125666	-0.895666	-0.388186
O60	O	0.021333	-0.895665	-0.388184
O61	O	-0.021259	-1.104480	-0.492604
O62	O	0.021336	-0.895668	-0.507587
O63	O	-0.125662	-0.895670	-0.507590
O64	O	0.125743	-1.104481	-0.612004
Zn65	Zn	0.000041	-1.000076	-0.578755
Zn66	Zn	0.000036	-1.000072	-0.421436
O67	O	-0.021255	-1.104483	-0.612007
O68	O	-0.492482	-0.486240	-0.611947
O69	O	-0.388073	-0.633252	-0.507566
O70	O	-0.388080	-0.486241	-0.507549
O71	O	-0.492474	-0.633251	-0.611964
O72	O	-0.507485	-0.366833	-0.388135
O73	O	-0.507478	-0.513845	-0.388151
O74	O	-0.611886	-0.366832	-0.492533
Zn75	Zn	-0.578640	-0.421380	-0.421382
Zn76	Zn	-0.421319	-0.578705	-0.578716
O77	O	-0.611879	-0.513844	-0.492549
C78	C	-0.742991	-0.226029	0.386974
C79	C	-0.837691	-0.137423	0.431282
C80	C	-0.699388	-0.269025	0.430375
C81	C	-0.612985	-0.356038	0.256962
C82	C	-0.568682	-0.406439	0.162260
C83	C	-0.569580	-0.398837	0.300561
C84	C	-0.612987	-0.356036	0.386964
C85	C	-0.568686	-0.406435	0.431260
C86	C	-0.699387	-0.269027	0.300571
C87	C	0.031017	-0.774100	-0.387066
C88	C	0.024915	-0.862701	-0.431360
C89	C	0.031625	-0.731114	-0.430477
C90	C	0.031024	-0.644088	-0.257067
C91	C	0.024932	-0.593680	-0.162367
C92	C	0.031633	-0.601300	-0.300676
C93	C	0.031022	-0.644107	-0.387077
C94	C	0.024926	-0.593719	-0.431384
C95	C	0.031627	-0.731095	-0.300664
C96	C	-0.030971	-0.355995	0.386966
C97	C	-0.024876	-0.406382	0.431273
C98	C	-0.031574	-0.268988	0.430366
C99	C	-0.030974	-0.356014	0.256956
C100	C	-0.024881	-0.406422	0.162255
C101	C	-0.031576	-0.269007	0.300553
C102	C	-0.030965	-0.226002	0.386954
C103	C	-0.024863	-0.137402	0.431249
C104	C	-0.031582	-0.398802	0.300565
C105	C	-0.256934	-0.356141	-0.387100
C106	C	-0.162233	-0.406545	-0.431403
C107	C	-0.300533	-0.398945	-0.430504
C108	C	-0.386944	-0.226117	-0.257092
C109	C	-0.431252	-0.137499	-0.162391
C110	C	-0.430346	-0.269118	-0.300695
C111	C	-0.386935	-0.356140	-0.387097
C112	C	-0.431233	-0.406544	-0.431397
C113	C	-0.300542	-0.269119	-0.300697
O114	O	-0.021314	-0.366913	-0.492588
O115	O	0.021311	-0.513904	-0.388181
O116	O	-0.125701	-0.366928	-0.388190
O117	O	0.125699	-0.513889	-0.492578
O118	O	-0.125670	-0.486364	-0.507605
O119	O	0.021343	-0.633340	-0.507596
O120	O	-0.021282	-0.486349	-0.612002
Zn121	Zn	0.000035	-0.578808	-0.578759
Zn122	Zn	-0.000006	-0.421445	-0.421425
O123	O	0.125730	-0.633325	-0.611993
C124	C	-0.612996	0.356008	0.386935
C125	C	-0.568699	0.406412	0.431236
C126	C	-0.699398	0.398812	0.430342
C127	C	-0.612985	0.225984	0.256930
C128	C	-0.568677	0.137366	0.162229
C129	C	-0.699388	0.268986	0.300534
C130	C	-0.742997	0.356007	0.386937
C131	C	-0.837697	0.406411	0.431239
C132	C	-0.569585	0.268986	0.300533
H133	H	-0.265572	-0.468847	0.032539
O134	O	-0.515029	-0.226291	0.032596
C135	C	-0.615798	-0.248640	-0.041458
C136	C	-0.519905	-0.297181	-0.042747
H137	H	-0.619769	-0.305926	-0.102375
H138	H	-0.659145	-0.225095	0.020032
H139	H	-0.639464	-0.178925	-0.041102
H140	H	-0.496158	-0.366928	-0.043135
H141	H	-0.476616	-0.320653	-0.104230
H142	H	-0.265514	-0.468978	-0.501492
O143	O	-0.258669	-0.774035	-0.515138
C144	C	-0.135547	-0.823157	-0.615952
C145	C	-0.182901	-0.774474	-0.520042
H146	H	-0.074289	-0.823509	-0.619946
H147	H	-0.115747	-0.904452	-0.659277
H148	H	-0.181593	-0.777482	-0.639631
H149	H	-0.136904	-0.820068	-0.496283
H150	H	-0.202715	-0.693170	-0.476776
H151	H	-0.501360	-0.531216	-0.265642
O152	O	-0.484855	0.225875	0.258711
C153	C	-0.335423	0.076712	0.187070
C154	C	-0.431341	0.125406	0.234403
H155	H	-0.292127	-0.004517	0.167420
H156	H	-0.331338	0.076177	0.125720
H157	H	-0.311786	0.122466	0.233091
H158	H	-0.455040	0.079692	0.188452
H159	H	-0.435372	0.125957	0.295764
O160	O	-0.258717	-0.226194	0.032772
C161	C	-0.186974	-0.148493	0.110172
C162	C	-0.234369	-0.196983	0.108908
H163	H	-0.167292	-0.124843	0.171731
H164	H	-0.125642	-0.205822	0.049325
H165	H	-0.232963	-0.078843	0.110421
H166	H	-0.188450	-0.266623	0.108689
H167	H	-0.295712	-0.139588	0.169751
O168	O	0.032947	-0.774143	-0.258977
C169	C	0.110384	-0.923313	-0.258723
C170	C	0.109012	-0.874687	-0.306015
H171	H	0.171867	-1.004616	-0.296744
H172	H	0.110778	-0.877671	-0.189366
H173	H	0.049478	-0.923664	-0.255077
H174	H	0.169906	-0.874327	-0.309727
H175	H	0.108572	-0.920344	-0.375346
O176	O	0.032648	-0.517672	-0.258904
C177	C	-0.041345	-0.342874	-0.207269
C178	C	-0.042615	-0.437495	-0.254569
H179	H	-0.102179	-0.278034	-0.203765
H180	H	-0.041082	-0.319433	-0.137863
H181	H	0.020210	-0.361135	-0.245221
H182	H	-0.104161	-0.419311	-0.216689
H183	H	-0.042832	-0.460912	-0.323979
O184	O	-0.258832	-0.773820	-0.258792
C185	C	-0.207026	-0.751491	-0.135733
C186	C	-0.254343	-0.702938	-0.183054
H187	H	-0.203365	-0.694212	-0.074500
H188	H	-0.244945	-0.775034	-0.115892
H189	H	-0.137674	-0.821208	-0.181819
H190	H	-0.323694	-0.633189	-0.137016
H191	H	-0.216357	-0.679467	-0.202909
O192	O	-0.032884	-0.225926	0.515104
C193	C	-0.110312	-0.076749	0.664543
C194	C	-0.108955	-0.125387	0.568624
H195	H	-0.171800	0.004551	0.707838
H196	H	-0.110686	-0.122391	0.688264
H197	H	-0.049411	-0.076385	0.668524
H198	H	-0.169845	-0.125760	0.564568
H199	H	-0.108537	-0.079730	0.544945
O200	O	-0.741120	-0.225977	0.258886
C201	C	-0.812852	-0.076814	0.258624
C202	C	-0.765596	-0.125435	0.305918
H203	H	-0.832670	0.004489	0.296639
H204	H	-0.766818	-0.122460	0.189264
H205	H	-0.874110	-0.076460	0.254984
H206	H	-0.704340	-0.125797	0.309624
H207	H	-0.811690	-0.079774	0.375251
O208	O	-0.258916	-0.226016	-0.258885
C209	C	-0.258625	-0.076867	-0.187260
C210	C	-0.305864	-0.125547	-0.234577
H211	H	-0.296553	0.004362	-0.167610
H212	H	-0.255068	-0.076332	-0.125911
H213	H	-0.189237	-0.122629	-0.233291
H214	H	-0.375273	-0.079825	-0.188617
H215	H	-0.309350	-0.126097	-0.295938
O216	O	-0.741115	-0.226230	0.515036
C217	C	-0.792906	-0.248453	0.615866
C218	C	-0.745610	-0.297068	0.519958
H219	H	-0.796572	-0.305697	0.619874
H220	H	-0.754967	-0.224900	0.659216
H221	H	-0.862254	-0.178734	0.639502
H222	H	-0.676262	-0.366819	0.496241
H223	H	-0.783616	-0.320549	0.476666
O224	O	-0.741062	0.225912	0.258808
C225	C	-0.741291	0.076720	0.187117
C226	C	-0.694016	0.125382	0.234360
H227	H	-0.703264	-0.004572	0.167322
H228	H	-0.810647	0.122361	0.233152
H229	H	-0.744931	0.076331	0.125842
H230	H	-0.690310	0.125780	0.295633
H231	H	-0.624687	0.079726	0.188265
O232	O	-0.741138	0.482253	0.515079
C233	C	-0.812867	0.554303	0.664531
C234	C	-0.765604	0.459724	0.568614
H235	H	-0.832678	0.536127	0.707838
H236	H	-0.766841	0.577641	0.688234
H237	H	-0.874131	0.619190	0.668517
H238	H	-0.704343	0.394774	0.564554
H239	H	-0.811690	0.436473	0.544953
H240	H	0.032609	-0.767116	-0.501471
O241	O	-0.032597	-0.482430	0.258711
C242	C	0.041395	-0.657232	0.135535
C243	C	0.042665	-0.562610	0.182859
H244	H	0.102228	-0.722075	0.074189
H245	H	0.041134	-0.680667	0.181502
H246	H	-0.020161	-0.638974	0.115849
H247	H	0.104211	-0.580791	0.202549
H248	H	0.042879	-0.539200	0.136862
H249	H	-0.734381	-0.531234	-0.032627
H250	H	-0.032550	-0.233036	0.265537
H251	H	-0.734368	-0.767057	-0.032655
O252	O	-0.515086	-0.226055	-0.258955
C253	C	-0.664514	-0.076878	-0.187225
C254	C	-0.568591	-0.125519	-0.234490
H255	H	-0.707796	0.004420	-0.167415
H256	H	-0.688232	-0.122521	-0.233252
H257	H	-0.668515	-0.076506	-0.125957
H258	H	-0.564516	-0.125900	-0.295755
H259	H	-0.544915	-0.079861	-0.188403
H260	H	-0.498577	-0.767050	-0.032651
O261	O	-0.484841	-0.482262	0.258821
C262	C	-0.335409	-0.554268	0.187087
C263	C	-0.431329	-0.459710	0.234351
H264	H	-0.292120	-0.536074	0.167274
H265	H	-0.311695	-0.577593	0.233117
H266	H	-0.331413	-0.619171	0.125822
H267	H	-0.435400	-0.394744	0.295613
H268	H	-0.455001	-0.436472	0.188261
