data_functionalizedCrystal
_audit_creation_method	'MofGen! by Chris Wilmer'
_symmetry_space_group_name_H-M	'P1'
_symmetry_Int_Tables_number	1
_symmetry_cell_setting	triclinic
loop_
_symmetry_equiv_pos_as_xyz
  x,y,z
_cell_length_a	16.992695
_cell_length_b	16.992694
_cell_length_c	15.455436
_cell_angle_alpha	92.852074
_cell_angle_beta	92.849328
_cell_angle_gamma	89.331778
loop_
_atom_site_label
_atom_site_type_symbol
_atom_site_fract_x
_atom_site_fract_y
_atom_site_fract_z
O1	O	-0.170136	1.047631	-0.072001
O2	O	0.329864	1.547631	0.427999
O3	O	-0.168306	0.819230	-0.072026
O4	O	0.331694	1.319230	0.427974
O5	O	-0.055021	0.932514	-0.072021
O6	O	0.444979	1.432514	0.427979
O7	O	-0.283421	0.934346	-0.072006
O8	O	0.216579	1.434346	0.427994
O9	O	-0.048566	0.938954	0.072238
O10	O	0.451434	1.438954	0.572238
O11	O	-0.161851	0.825670	0.072233
O12	O	0.338149	1.325670	0.572233
O13	O	-0.163681	1.054071	0.072259
O14	O	0.336319	1.554071	0.572259
Cu15	Cu	-0.162177	0.940458	0.085418
Cu16	Cu	0.337823	1.440458	0.585418
Cu17	Cu	-0.169811	0.932842	-0.085186
Cu18	Cu	0.330189	1.432842	0.414814
O19	O	-0.276966	0.940786	0.072254
O20	O	0.223034	1.440786	0.572254
C21	C	-0.162723	0.793089	0.000100
C22	C	0.337277	1.293089	0.500100
C23	C	-0.155695	0.705604	0.000089
C24	C	0.344305	1.205604	0.500089
C25	C	-0.223512	0.659614	0.000095
C26	C	0.276488	1.159614	0.500095
C27	C	-0.216903	0.577414	0.000106
C28	C	0.283097	1.077414	0.500106
C29	C	-0.142475	0.541205	0.000106
C30	C	0.357525	1.041205	0.500106
C31	C	-0.074652	0.587202	0.000104
C32	C	0.425348	1.087202	0.500104
C33	C	-0.081262	0.669401	0.000098
C34	C	0.418738	1.169401	0.500098
C35	C	-0.115080	0.295892	0.000128
C36	C	0.384920	0.795892	0.500128
C37	C	-0.108475	0.213687	0.000130
C38	C	0.391525	0.713687	0.500130
C39	C	-0.250726	0.203904	0.000134
C40	C	0.249274	0.703904	0.500134
C41	C	-0.257330	0.286105	0.000124
C42	C	0.242670	0.786105	0.500124
C43	C	-0.189507	0.332094	0.000126
C44	C	0.310493	0.832094	0.500126
N45	N	-0.135718	0.457183	0.000115
N46	N	0.364282	0.957183	0.500115
N47	N	-0.196265	0.416115	0.000123
N48	N	0.303735	0.916115	0.500123
C49	C	-0.309553	0.939922	0.000126
C50	C	0.190447	1.439922	0.500126
C51	C	-0.397038	0.946951	0.000132
C52	C	0.102962	1.446951	0.500132
C53	C	-0.443029	0.879133	0.000124
C54	C	0.056971	1.379133	0.500124
C55	C	-0.525230	0.885741	0.000114
C56	C	-0.025230	1.385741	0.500114
C57	C	-0.561438	0.960169	0.000118
C58	C	-0.061438	1.460169	0.500118
C59	C	-0.515441	1.027993	0.000124
C60	C	-0.015441	1.527993	0.500124
C61	C	-0.433242	1.021383	0.000128
C62	C	0.066758	1.521383	0.500128
C63	C	-0.806753	0.987563	0.000102
C64	C	-0.306753	1.487563	0.500102
C65	C	-0.888959	0.994168	0.000100
C66	C	-0.388959	1.494168	0.500100
C67	C	-0.898742	0.851916	0.000089
C68	C	-0.398742	1.351916	0.500089
C69	C	-0.816541	0.845313	0.000098
C70	C	-0.316541	1.345313	0.500098
C71	C	-0.770551	0.913136	0.000099
C72	C	-0.270551	1.413136	0.500099
N73	N	-0.645461	0.966926	0.000111
N74	N	-0.145461	1.466926	0.500111
N75	N	-0.686530	0.906378	0.000101
N76	N	-0.186530	1.406378	0.500101
C77	C	-0.022434	0.933379	0.000104
C78	C	0.477566	1.433379	0.500104
C79	C	0.065050	0.926349	0.000092
C80	C	0.565050	1.426349	0.500092
C81	C	-0.169264	1.080211	0.000131
C82	C	0.330736	1.580211	0.500131
C83	C	-0.176293	1.167696	0.000135
C84	C	0.323707	1.667696	0.500135
N85	N	-0.156807	0.945821	0.205411
N86	N	0.343193	1.445821	0.705411
C87	C	-0.127072	0.975617	0.749407
C88	C	0.372928	1.475617	1.249407
C89	C	-0.131141	0.971544	0.658601
C90	C	0.368859	1.471544	1.158601
C91	C	-0.183314	0.919329	0.613211
C92	C	0.316686	1.419329	1.113211
C93	C	-0.231426	0.871189	0.658631
C94	C	0.268574	1.371189	1.158631
C95	C	-0.227360	0.875266	0.749436
C96	C	0.272640	1.375266	1.249436
C97	C	-0.200854	0.901758	0.341637
C98	C	0.299146	1.401758	0.841637
C99	C	-0.204914	0.897683	0.250826
C100	C	0.295086	1.397683	0.750826
C101	C	-0.104630	0.998040	0.250801
C102	C	0.395370	1.498040	0.750801
C103	C	-0.100565	1.002109	0.341607
C104	C	0.399435	1.502109	0.841607
C105	C	-0.148680	0.953972	0.387020
C106	C	0.351320	1.453972	0.887020
N107	N	-0.187473	0.915163	0.520392
N108	N	0.312527	1.415163	1.020392
N109	N	-0.144525	0.958142	0.479837
N110	N	0.355475	1.458142	0.979837
N111	N	-0.175179	0.927479	0.794821
N112	N	0.324821	1.427479	1.294821
H113	H	-0.014051	0.557715	0.000116
H114	H	0.485949	1.057715	0.500116
Cl115	Cl	-0.044149	1.058554	0.193707
Cl116	Cl	0.455851	1.558554	0.693707
H117	H	-0.091969	1.010743	0.621624
H118	H	0.408031	1.510743	1.121624
H119	H	-0.059853	0.333327	0.000130
H120	H	0.440147	0.833327	0.500130
H121	H	-0.047864	0.184209	0.000129
H122	H	0.452136	0.684209	0.500129
H123	H	-0.395796	1.076608	0.000131
H124	H	0.104204	1.576608	0.500131
H125	H	-0.240029	0.862561	0.378605
H126	H	0.259971	1.362561	0.878605
H127	H	-0.936196	0.796698	0.000088
H128	H	-0.436196	1.296698	0.500088
H129	H	-0.272128	0.539971	0.000109
H130	H	0.227872	1.039971	0.500109
Cl131	Cl	-0.317084	0.705124	0.000089
Cl132	Cl	0.182916	1.205124	0.500089
Cl133	Cl	-0.034976	1.067751	0.398669
Cl134	Cl	0.465024	1.567751	0.898669
H135	H	-0.026038	0.706846	0.000093
H136	H	0.473962	1.206846	0.500093
Cl137	Cl	-0.397518	0.785562	0.000126
Cl138	Cl	0.102482	1.285562	0.500126
H139	H	-0.084584	1.018133	0.786357
H140	H	0.415416	1.518133	1.286357
Cl141	Cl	-0.270508	0.832033	0.193770
Cl142	Cl	0.229492	1.332033	0.693770
H143	H	-0.317937	0.315579	0.000114
H144	H	0.182063	0.815579	0.500114
Cl145	Cl	-0.297019	0.805549	0.601572
Cl146	Cl	0.202981	1.305549	1.101572
H147	H	-0.918436	1.054779	0.000104
H148	H	-0.418436	1.554779	0.500104
Cl149	Cl	-0.287843	0.814750	0.806528
Cl150	Cl	0.212157	1.314750	1.306528
Cl151	Cl	-0.335984	0.146084	0.000136
Cl152	Cl	0.164016	0.646084	0.500136
H153	H	-0.562673	0.830516	0.000105
H154	H	-0.062673	1.330516	0.500105
H155	H	-0.769318	1.042790	0.000108
H156	H	-0.269318	1.542790	0.500108
Cl157	Cl	-0.560960	1.121559	0.000122
Cl158	Cl	-0.060960	1.621559	0.500122
H159	H	-0.787066	0.784706	0.000085
H160	H	-0.287066	1.284706	0.500085
