data_functionalizedCrystal
_audit_creation_method	'MofGen! by Chris Wilmer'
_symmetry_space_group_name_H-M	'P1'
_symmetry_Int_Tables_number	1
_symmetry_cell_setting	triclinic
loop_
_symmetry_equiv_pos_as_xyz
  x,y,z
_cell_length_a	8.597340
_cell_length_b	27.731996
_cell_length_c	7.088929
_cell_angle_alpha	83.823571
_cell_angle_beta	103.954719
_cell_angle_gamma	83.987971
loop_
_atom_site_label
_atom_site_type_symbol
_atom_site_fract_x
_atom_site_fract_y
_atom_site_fract_z
O1	O	2.099686	0.066387	0.186867
O2	O	1.634803	0.074278	0.110279
O3	O	1.881730	-0.000041	0.151001
O4	O	1.852759	0.140705	0.146145
O5	O	1.914730	-0.009995	0.474418
O6	O	1.667803	0.064323	0.433697
O7	O	2.132686	0.056432	0.510284
Cu8	Cu	1.903257	0.059469	0.501521
Cu9	Cu	1.864231	0.071241	0.119043
O10	O	1.885758	0.130751	0.469563
C11	C	1.591847	0.069008	0.262194
C12	C	1.414688	0.068129	0.233009
C13	C	1.897636	-0.023027	0.312618
C14	C	1.895846	-0.076687	0.312343
C15	C	1.866573	-0.403995	0.134096
C16	C	1.859764	-0.605665	0.132940
O17	O	1.843517	-0.627122	-0.017149
N18	N	1.876907	-0.636309	0.309094
C19	C	1.895743	-0.616534	0.485548
O20	O	1.910151	-0.647226	0.635348
C21	C	1.902540	-0.414864	0.486699
C22	C	1.885412	-0.384223	0.310536
C23	C	1.849445	-0.373353	-0.042053
C24	C	1.851156	-0.322939	-0.041761
C25	C	1.869995	-0.303167	0.134680
C26	C	1.887123	-0.333809	0.310828
C27	C	1.921364	-0.395089	0.663149
C28	C	1.923058	-0.344668	0.663420
C29	C	1.905930	-0.314026	0.487257
C30	C	1.907673	-0.263622	0.487561
N31	N	1.890531	-0.232977	0.311407
C32	C	1.871691	-0.252750	0.134966
C33	C	1.892177	-0.722413	0.484931
C34	C	1.890480	-0.772830	0.484644
C35	C	1.854499	-0.761957	0.132036
C36	C	1.856207	-0.711540	0.132327
C37	C	1.875034	-0.691768	0.308777
C38	C	1.875287	-0.146877	0.135593
C39	C	1.877007	-0.096459	0.135902
C40	C	1.912980	-0.107336	0.488508
C41	C	1.911269	-0.157750	0.488202
C42	C	1.892416	-0.177518	0.311728
O43	O	1.923895	-0.242130	0.637569
O44	O	1.857250	-0.222048	-0.014817
C45	C	1.864862	-0.454409	0.133804
C46	C	1.881990	-0.485050	0.309952
C47	C	1.900829	-0.465278	0.486393
C48	C	1.880294	-0.535468	0.309665
C49	C	1.861455	-0.555240	0.133225
C50	C	1.844312	-0.524595	-0.042929
C51	C	1.846023	-0.474181	-0.042637
C52	C	1.917972	-0.495923	0.662547
C53	C	1.916262	-0.546336	0.662241
C54	C	1.897422	-0.566109	0.485800
C55	C	2.175641	0.061703	0.358366
C56	C	2.352799	0.062581	0.387537
C57	C	1.869852	0.153737	0.307941
C58	C	1.871641	0.207398	0.308204
N59	N	1.930718	0.051189	0.770538
N60	N	1.836783	0.079518	-0.149972
H61	H	1.332132	0.072207	0.078366
C62	C	1.464312	0.057079	0.596444
N63	N	1.548312	0.052938	0.753796
H64	H	1.828980	-0.540703	-0.186593
H65	H	2.028088	0.021833	0.868251
H66	H	1.863062	-0.071512	-0.007556
H67	H	1.859927	-0.162966	-0.008110
H68	H	1.837203	-0.297994	-0.185212
H69	H	1.834097	-0.389446	-0.185741
H70	H	1.842257	-0.686594	-0.011121
C71	C	1.833762	-0.783716	-0.062053
N72	N	1.818130	-0.800106	-0.208235
C73	C	1.909338	-0.806531	0.678440
N74	N	1.923531	-0.831913	0.824412
C75	C	1.827169	-0.440481	-0.236434
N76	N	1.812963	-0.415100	-0.382413
H77	H	1.935314	-0.420030	0.806600
H78	H	1.907516	-0.706320	0.628628
H79	H	1.739431	0.108874	0.752327
H80	H	1.938366	-0.328572	0.807107
C81	C	1.938704	-0.474181	0.856658
N82	N	1.954330	-0.457808	1.002876
H83	H	1.925231	-0.182701	0.631650
H84	H	1.928325	-0.091228	0.632163
C85	C	1.935102	-0.580038	0.856047
N86	N	1.949275	-0.605419	1.002016
