data_functionalizedCrystal
_audit_creation_method	'MofGen! by Chris Wilmer'
_symmetry_space_group_name_H-M	'P1'
_symmetry_Int_Tables_number	1
_symmetry_cell_setting	triclinic
loop_
_symmetry_equiv_pos_as_xyz
  x,y,z
_cell_length_a	19.805407
_cell_length_b	10.686285
_cell_length_c	19.805399
_cell_angle_alpha	94.389466
_cell_angle_beta	90.017803
_cell_angle_gamma	85.628966
loop_
_atom_site_label
_atom_site_type_symbol
_atom_site_fract_x
_atom_site_fract_y
_atom_site_fract_z
Zn1	Zn	1.055504	-0.502467	0.362074
Zn2	Zn	1.064140	-0.713478	0.240229
Zn3	Zn	0.942319	-0.502491	0.248901
Zn4	Zn	0.951000	-0.713401	0.353382
O5	O	1.003241	-0.607959	0.301147
O6	O	1.151367	-0.530479	0.345919
O7	O	1.047962	-0.685533	0.146661
O8	O	0.950086	-0.325913	0.271180
O9	O	1.157712	-0.685509	0.256400
O10	O	1.033242	-0.325894	0.354328
O11	O	0.958461	-0.530522	0.153032
O12	O	0.848753	-0.530447	0.262753
O13	O	0.964881	-0.685378	0.449254
O14	O	0.855131	-0.685402	0.339515
O15	O	1.041660	-0.530405	0.455639
O16	O	1.056379	-0.890043	0.247972
O17	O	0.973256	-0.889987	0.331106
C18	C	0.827383	-0.607920	0.301132
C19	C	0.752152	-0.607933	0.301140
C20	C	0.713510	-0.527352	0.347813
C21	C	0.642822	-0.527359	0.347815
C22	C	0.610777	-0.607954	0.301148
C23	C	0.649424	-0.688538	0.254470
C24	C	0.720110	-0.688524	0.254465
C25	C	0.364353	-0.688595	0.254489
C26	C	0.293661	-0.688605	0.254498
C27	C	0.287065	-0.527430	0.347839
C28	C	0.357751	-0.527416	0.347834
C29	C	0.396391	-0.607995	0.301154
C30	C	0.473039	-0.607985	0.301151
C31	C	0.534131	-0.607971	0.301153
C32	C	1.016715	-0.935799	0.287670
C33	C	1.022541	-1.076050	0.281927
C34	C	1.179785	-0.608000	0.301162
C35	C	1.255018	-0.608017	0.301168
C36	C	1.003276	-0.607880	0.477693
C37	C	1.003290	-0.607846	0.552926
C38	C	0.989732	-0.278839	0.314691
C39	C	0.983976	-0.138588	0.320463
C40	C	1.003242	-0.607947	0.125291
C41	C	1.003343	-0.607626	0.050073
C42	C	1.043270	-0.527148	0.591597
C43	C	1.043275	-0.527111	0.662287
C44	C	1.003304	-0.607780	0.694304
C45	C	0.963321	-0.688482	0.655629
C46	C	0.963312	-0.688511	0.584941
C47	C	0.963354	-0.688364	0.940707
C48	C	0.963367	-0.688331	1.011401
C49	C	1.043317	-0.526964	1.018053
C50	C	1.043308	-0.526993	0.947365
C51	C	1.003322	-0.607690	0.908696
C52	C	1.003316	-0.607727	0.832046
C53	C	1.003314	-0.607750	0.770953
H54	H	0.611363	-0.461744	0.385822
C55	C	0.258413	-0.777260	0.203153
N56	N	0.231864	-0.844029	0.164480
H57	H	1.075859	-0.461309	0.921299
H58	H	1.075821	-0.461461	0.565533
C59	C	1.073166	-1.148675	0.231409
N60	N	1.111296	-1.203377	0.193361
C61	C	0.392996	-0.438751	0.399169
N62	N	0.419542	-0.371960	0.437834
H63	H	1.075832	-0.461401	0.693769
C64	C	1.087294	-0.438180	1.060596
N65	N	1.120417	-0.371308	1.092639
C66	C	0.919345	-0.777207	0.690852
N67	N	0.886222	-0.844035	0.717381
C68	C	0.919389	-0.777069	1.046619
N69	N	0.886266	-0.843902	1.073146
C70	C	0.919365	-0.777129	0.898180
N71	N	0.886230	-0.843989	0.866147
H72	H	0.739596	-0.461726	0.385817
C73	C	0.244553	-0.438769	0.399177
N74	N	0.212534	-0.371990	0.437843
H75	H	0.930749	-0.754211	0.553456
H76	H	0.623327	-0.754154	0.216470
C77	C	0.406848	-0.777240	0.203142
N78	N	0.438858	-0.844013	0.164467
H79	H	0.751572	-0.754141	0.216459
C80	C	0.933353	-1.065969	0.370976
N81	N	0.895223	-1.011264	0.409024
