data_functionalizedCrystal
_audit_creation_method	'MofGen! by Chris Wilmer'
_symmetry_space_group_name_H-M	'P1'
_symmetry_Int_Tables_number	1
_symmetry_cell_setting	triclinic
loop_
_symmetry_equiv_pos_as_xyz
  x,y,z
_cell_length_a	21.395362
_cell_length_b	21.395364
_cell_length_c	21.395355
_cell_angle_alpha	90.025298
_cell_angle_beta	89.979451
_cell_angle_gamma	89.953508
loop_
_atom_site_label
_atom_site_type_symbol
_atom_site_fract_x
_atom_site_fract_y
_atom_site_fract_z
Zn1	Zn	-0.249232	-0.957863	-0.354265
Zn2	Zn	-0.353992	-0.957767	-0.249484
Zn3	Zn	-0.249263	-0.853078	-0.249500
Zn4	Zn	-0.354006	-0.853049	-0.354223
O5	O	-0.301623	-0.905439	-0.301868
O6	O	-0.263110	-1.045528	-0.340376
O7	O	-0.340106	-0.943852	-0.161808
O8	O	-0.161581	-0.867030	-0.263422
O9	O	-0.340076	-1.045458	-0.263394
O10	O	-0.161558	-0.944016	-0.340393
O11	O	-0.263162	-0.866938	-0.161820
O12	O	-0.263176	-0.765396	-0.263381
O13	O	-0.340101	-0.866981	-0.441906
O14	O	-0.340131	-0.765375	-0.340320
O15	O	-0.263124	-0.943987	-0.441937
O16	O	-0.441672	-0.943824	-0.263353
O17	O	-0.441682	-0.866888	-0.340304
C18	C	-0.301659	-0.742652	-0.301848
C19	C	-0.301689	-0.673011	-0.301855
C20	C	-0.261679	-0.640356	-0.342001
C21	C	-0.261664	-0.574921	-0.342003
C22	C	-0.301671	-0.542142	-0.301864
C23	C	-0.341683	-0.574804	-0.261710
C24	C	-0.341692	-0.640238	-0.261706
C25	C	-0.358098	-0.438419	-0.296824
C26	C	-0.358090	-0.372986	-0.296833
C27	C	-0.301642	-0.340322	-0.301876
C28	C	-0.245200	-0.373098	-0.306923
C29	C	-0.245210	-0.438532	-0.306918
C30	C	-0.301665	-0.471190	-0.301865
C31	C	-0.261613	-0.236715	-0.342026
C32	C	-0.261597	-0.171278	-0.342023
C33	C	-0.341622	-0.171163	-0.261734
C34	C	-0.341632	-0.236598	-0.261734
C35	C	-0.301629	-0.269370	-0.301883
C36	C	-0.464411	-0.905359	-0.301836
C37	C	-0.534052	-0.905382	-0.301843
C38	C	-0.566696	-0.945446	-0.341950
C39	C	-0.632132	-0.945468	-0.341965
C40	C	-0.664920	-0.905433	-0.301863
C41	C	-0.632268	-0.865362	-0.261753
C42	C	-0.566834	-0.865337	-0.261743
C43	C	-0.768622	-0.900556	-0.245424
C44	C	-0.834055	-0.900586	-0.245432
C45	C	-0.866741	-0.905507	-0.301893
C46	C	-0.833986	-0.910413	-0.358346
C47	C	-0.768552	-0.910387	-0.358337
C48	C	-0.735873	-0.905456	-0.301869
C49	C	-0.970338	-0.945597	-0.342020
C50	C	-1.035775	-0.945614	-0.342036
C51	C	-1.035909	-0.865512	-0.261818
C52	C	-0.970474	-0.865491	-0.261807
C53	C	-0.937692	-0.905537	-0.301907
C54	C	-0.138200	-0.905537	-0.301914
C55	C	-0.068558	-0.905579	-0.301934
C56	C	-0.301610	-0.905491	-0.465291
C57	C	-0.301605	-0.905514	-0.534933
C58	C	-0.301596	-0.068863	-0.301885
C59	C	-0.301604	-0.138504	-0.301884
C60	C	-0.261521	-0.945609	-0.567663
C61	C	-0.261494	-0.945608	-0.633098
C62	C	-0.301562	-0.905519	-0.665801
C63	C	-0.341649	-0.865415	-0.633063
C64	C	-0.341670	-0.865413	-0.567629
C65	C	-0.357979	-0.900543	-0.769465
C66	C	-0.357959	-0.900550	-0.834898
C67	C	-0.301496	-0.905522	-0.867622
C68	C	-0.245052	-0.910501	-0.834905
C69	C	-0.245073	-0.910498	-0.769471
C70	C	-0.301543	-0.905516	-0.736753
C71	C	-0.261380	-0.945619	-0.971305
C72	C	-0.261352	-0.945614	-1.036742
C73	C	-0.341512	-0.865424	-1.036705
C74	C	-0.341534	-0.865426	-0.971269
C75	C	-0.301469	-0.905527	-0.938573
C76	C	-0.301591	-0.905424	-0.139080
C77	C	-0.301419	-0.905523	-0.069440
H78	H	-0.374274	-0.666825	-0.229013
H79	H	-0.374196	-0.144475	-0.229053
N80	N	-0.937129	-0.824559	-0.220842
N81	N	-0.944509	-0.766746	-0.224951
H82	H	-0.920961	-0.737833	-0.196019
N83	N	-0.187541	-0.339732	-0.312081
N84	N	-0.187538	-0.281309	-0.312084
H85	H	-0.146818	-0.257741	-0.315730
N86	N	-1.069113	-0.986538	-0.383017
N87	N	-1.039832	-1.022285	-0.418816
H88	H	-1.063377	-1.051189	-0.447760
N89	N	-0.867500	-0.895617	-0.187761
N90	N	-0.838311	-0.891239	-0.137352
H91	H	-0.861930	-0.887744	-0.096618
N92	N	-0.533222	-0.986353	-0.382914
N93	N	-0.562382	-1.022122	-0.418722
H94	H	-0.538740	-1.051013	-0.447654
N95	N	-0.382619	-0.824464	-0.534182
N96	N	-0.382634	-0.824470	-0.475760
H97	H	-0.411554	-0.795550	-0.452136
N98	N	-0.220738	-0.270197	-0.383019
N99	N	-0.180788	-0.306737	-0.361040
H100	H	-0.151918	-0.330383	-0.389990
H101	H	-0.742014	-0.896546	-0.199444
N102	N	-0.533482	-0.824420	-0.220766
N103	N	-0.496964	-0.846470	-0.180854
H104	H	-0.473407	-0.817573	-0.151913
H105	H	-0.943646	-0.978202	-0.374674
N106	N	-0.220735	-0.137911	-0.383035
N107	N	-0.220731	-0.079488	-0.383033
H108	H	-0.191872	-0.055921	-0.411999
H109	H	-0.658716	-0.978087	-0.374632
H110	H	-0.374179	-0.832780	-0.944620
N111	N	-1.069403	-0.824615	-0.220863
N112	N	-1.127826	-0.824639	-0.220879
H113	H	-1.151485	-0.795753	-0.191955
H114	H	-0.228707	-0.978264	-1.063389
N115	N	-0.382507	-0.269948	-0.220722
N116	N	-0.418223	-0.240676	-0.184885
H117	H	-0.447092	-0.264228	-0.155916
N118	N	-0.415614	-0.895424	-0.868304
N119	N	-0.466019	-0.890946	-0.839081
H120	H	-0.506739	-0.887307	-0.862672
N121	N	-0.382580	-0.824459	-0.666455
N122	N	-0.418365	-0.788657	-0.637220
H123	H	-0.447270	-0.759726	-0.660802
H124	H	-0.404049	-0.346304	-0.292726
N125	N	-0.415768	-0.471771	-0.291663
N126	N	-0.466156	-0.442502	-0.287161
H127	H	-0.506884	-0.466056	-0.283514
H128	H	-0.374256	-0.548112	-0.229029
H129	H	-0.741884	-0.914380	-0.404302
N130	N	-0.665767	-0.824468	-0.220797
N131	N	-0.724190	-0.824495	-0.220810
H132	H	-0.747849	-0.795610	-0.191886
H133	H	-0.860597	-0.914421	-0.404322
H134	H	-0.228896	-0.978262	-0.541046
H135	H	-0.228850	-0.978258	-0.659753
N136	N	-0.187417	-0.915584	-0.736061
N137	N	-0.137005	-0.920026	-0.765280
H138	H	-0.096284	-0.923616	-0.741685
H139	H	-0.199075	-0.914551	-0.861548
N140	N	-0.220450	-0.986580	-0.937912
N141	N	-0.184657	-1.022373	-0.967147
H142	H	-0.155748	-1.051302	-0.943565
N143	N	-0.382432	-0.824462	-1.070099
N144	N	-0.360384	-0.784548	-1.106592
H145	H	-0.389283	-0.755614	-1.130179
N146	N	-0.220816	-0.673822	-0.383017
N147	N	-0.185096	-0.644653	-0.418861
H148	H	-0.156236	-0.668288	-0.447830
N149	N	-0.220801	-0.541566	-0.383028
N150	N	-0.185095	-0.570834	-0.418878
H151	H	-0.156240	-0.547280	-0.447859
N152	N	-0.415656	-0.895499	-0.736031
N153	N	-0.415670	-0.895517	-0.677609
H154	H	-0.456403	-0.891965	-0.653996
H155	H	-0.199253	-0.465216	-0.311025
