data_functionalizedCrystal
_audit_creation_method	'MofGen! by Chris Wilmer'
_symmetry_space_group_name_H-M	'P1'
_symmetry_Int_Tables_number	1
_symmetry_cell_setting	triclinic
loop_
_symmetry_equiv_pos_as_xyz
  x,y,z
_cell_length_a	10.685901
_cell_length_b	10.686285
_cell_length_c	21.395355
_cell_angle_alpha	85.619443
_cell_angle_beta	94.358440
_cell_angle_gamma	81.630962
loop_
_atom_site_label
_atom_site_type_symbol
_atom_site_fract_x
_atom_site_fract_y
_atom_site_fract_z
Zn1	Zn	1.979374	-0.653997	-0.253853
Zn2	Zn	1.995542	-0.866208	-0.140400
Zn3	Zn	1.767104	-0.637749	-0.157811
Zn4	Zn	1.783405	-0.849937	-0.253857
O5	O	1.881356	-0.751973	-0.201480
O6	O	2.159134	-0.695756	-0.231514
O7	O	1.965184	-0.835912	-0.055033
O8	O	1.781674	-0.462292	-0.177836
O9	O	2.171013	-0.851667	-0.148161
O10	O	1.937627	-0.474229	-0.248397
O11	O	1.797352	-0.668064	-0.067825
O12	O	1.591651	-0.652287	-0.177840
O13	O	1.809457	-0.823936	-0.341533
O14	O	1.603628	-0.808181	-0.248405
O15	O	1.953434	-0.679979	-0.341529
O16	O	1.980991	-1.041663	-0.148165
O17	O	1.825135	-1.029709	-0.231522
C18	C	1.551586	-0.726706	-0.215013
C19	C	1.410511	-0.715928	-0.220816
C20	C	1.906621	-1.081741	-0.187967
C21	C	1.917545	-1.222826	-0.182202
C22	C	2.212415	-0.777339	-0.187895
C23	C	2.353492	-0.788149	-0.182105
C24	C	1.881460	-0.751955	-0.364900
C25	C	1.881504	-0.751948	-0.434540
C26	C	1.856028	-0.420919	-0.215058
C27	C	1.845235	-0.279844	-0.220845
C28	C	1.956469	-0.676986	-0.467253
C29	C	1.956463	-0.676931	-0.532690
C30	C	1.881507	-0.751862	-0.565412
C31	C	1.806527	-0.826828	-0.532691
C32	C	1.806525	-0.826871	-0.467256
C33	C	1.880241	-0.865379	-0.664815
C34	C	1.880251	-0.865339	-0.730249
C35	C	1.881505	-0.751728	-0.767238
C36	C	1.882774	-0.638157	-0.738783
C37	C	1.882772	-0.638200	-0.673347
C38	C	1.881500	-0.751823	-0.636366
C39	C	1.956467	-0.676701	-0.870905
C40	C	1.956452	-0.676643	-0.936345
C41	C	1.806523	-0.826552	-0.936344
C42	C	1.806531	-0.826598	-0.870906
C43	C	1.881510	-0.751674	-0.838191
C44	C	1.881319	-0.751904	-0.038697
C45	C	1.881494	-0.751573	0.030938
H46	H	1.351394	-0.645853	-0.258401
N47	N	2.010625	-1.301134	-0.132532
H48	H	2.057328	-1.243042	-0.107566
H49	H	1.963203	-1.352249	-0.103408
N50	N	1.725670	-0.907361	-0.971632
H51	H	1.781749	-0.970113	-0.994268
H52	H	1.678190	-0.954778	-0.940940
N53	N	1.752155	-1.201547	-0.270511
H54	H	1.757284	-1.108479	-0.267729
H55	H	1.773625	-1.226105	-0.313527
H56	H	1.879226	-0.957816	-0.753411
N57	N	2.037332	-0.596177	-0.431967
H58	H	2.084821	-0.548679	-0.462624
H59	H	1.981175	-0.533495	-0.409333
N60	N	1.884145	-0.515718	-0.642655
H61	H	1.884943	-0.443735	-0.676012
H62	H	1.805909	-0.498025	-0.619149
N63	N	1.878901	-0.987926	-0.624923
H64	H	1.957135	-1.005757	-0.594126
H65	H	1.800507	-0.980167	-0.601081
N66	N	2.037320	-0.596076	-0.567984
H67	H	2.084816	-0.548618	-0.537330
H68	H	2.100004	-0.652235	-0.590618
N69	N	1.884138	-0.515610	-0.778667
H70	H	1.883942	-0.532810	-0.824438
H71	H	1.806401	-0.453246	-0.772549
N72	N	2.037327	-0.595892	-0.835614
H73	H	2.084811	-0.548386	-0.866270
H74	H	1.981169	-0.533218	-0.812976
H75	H	2.017495	-0.615593	-0.962979
H76	H	1.745494	-0.887648	-0.844271
N77	N	1.725658	-0.907626	-0.567980
H78	H	1.737031	-0.896222	-0.614398
H79	H	1.752329	-0.999799	-0.552031
H80	H	1.745474	-0.887912	-0.440622
N81	N	1.431774	-0.880968	-0.132319
H82	H	1.415744	-0.969950	-0.139192
H83	H	1.524805	-0.875658	-0.135115
