data_functionalizedCrystal
_audit_creation_method	'MofGen! by Chris Wilmer'
_symmetry_space_group_name_H-M	'P1'
_symmetry_Int_Tables_number	1
_symmetry_cell_setting	triclinic
loop_
_symmetry_equiv_pos_as_xyz
  x,y,z
_cell_length_a	19.288867
_cell_length_b	10.654551
_cell_length_c	17.766277
_cell_angle_alpha	89.996514
_cell_angle_beta	89.992126
_cell_angle_gamma	83.811215
loop_
_atom_site_label
_atom_site_type_symbol
_atom_site_fract_x
_atom_site_fract_y
_atom_site_fract_z
O1	O	0.922378	0.156669	-0.062563
O2	O	1.422378	0.656669	0.437437
O3	O	0.720256	0.177799	-0.062570
O4	O	1.220256	0.677799	0.437430
O5	O	0.825964	-0.015605	-0.062567
O6	O	1.325964	0.484395	0.437433
O7	O	0.816670	0.350072	-0.062566
O8	O	1.316670	0.850072	0.437434
O9	O	0.825945	-0.015615	0.062622
O10	O	1.325945	0.484385	0.562622
O11	O	0.720237	0.177789	0.062619
O12	O	1.220237	0.677789	0.562619
O13	O	0.922359	0.156659	0.062625
O14	O	1.422359	0.656659	0.562625
Cu15	Cu	0.821297	0.167223	0.074053
Cu16	Cu	1.321297	0.667223	0.574053
Cu17	Cu	0.821319	0.167235	-0.073997
Cu18	Cu	1.321319	0.667235	0.426003
O19	O	0.816652	0.350062	0.062622
O20	O	1.316652	0.850062	0.562622
C21	C	0.694366	0.177114	0.000023
C22	C	1.194366	0.677114	0.500023
C23	C	0.617249	0.175071	0.000021
C24	C	1.117249	0.675071	0.500021
C25	C	0.061598	0.160367	-0.068211
C26	C	0.561598	0.660367	0.431789
C27	C	0.134058	0.162278	-0.068214
C28	C	0.634058	0.662278	0.431786
C29	C	0.170282	0.163234	0.000026
C30	C	0.670282	0.663234	0.500026
C31	C	0.134043	0.162247	0.068274
C32	C	0.634043	0.662247	0.568274
C33	C	0.061585	0.160323	0.068275
C34	C	0.561585	0.660323	0.568275
C35	C	0.280104	0.239829	0.052307
C36	C	0.780104	0.739829	0.552307
C37	C	0.352559	0.241760	0.052304
C38	C	0.852559	0.741760	0.552304
C39	C	0.393767	0.169163	0.000027
C40	C	0.893767	0.669163	0.500027
C41	C	0.362508	0.094649	-0.052259
C42	C	0.862508	0.594649	0.447741
C43	C	0.290050	0.092725	-0.052259
C44	C	0.790050	0.592725	0.447741
C45	C	0.248851	0.165320	0.000033
C46	C	0.748851	0.665320	0.500033
C47	C	0.508567	0.172214	-0.068220
C48	C	1.008567	0.672214	0.431780
C49	C	0.581029	0.174117	-0.068220
C50	C	1.081029	0.674117	0.431780
C51	C	0.581012	0.174099	0.068270
C52	C	1.081012	0.674099	0.568270
C53	C	0.508553	0.172182	0.068268
C54	C	1.008553	0.672182	0.568268
C55	C	0.472334	0.171246	0.000021
C56	C	0.972334	0.671246	0.500021
C57	C	0.825272	-0.062393	0.000026
C58	C	1.325272	0.437607	0.500026
C59	C	0.823230	-0.201793	0.000021
C60	C	1.323230	0.298207	0.500021
C61	C	0.822282	-0.267279	-0.068218
C62	C	1.322282	0.232721	0.431782
C63	C	0.820358	-0.398258	-0.068215
C64	C	1.320358	0.101742	0.431785
C65	C	0.820331	-0.398254	0.068272
C66	C	1.320331	0.101746	0.568272
C67	C	0.822251	-0.267276	0.068268
C68	C	1.322251	0.232724	0.568268
C69	C	0.822300	-0.267283	-0.147018
C70	C	1.322300	0.232717	0.352982
C71	C	0.820376	-0.398262	-0.147015
C72	C	1.320376	0.101738	0.352985
C73	C	0.948250	0.157344	0.000030
C74	C	1.448250	0.657344	0.500030
C75	C	1.025367	0.159386	0.000028
C76	C	1.525367	0.659386	0.500028
C77	C	0.817344	0.396851	0.000028
C78	C	1.317344	0.896851	0.500028
C79	C	0.819386	0.536250	0.000028
C80	C	1.319386	1.036250	0.500028
N81	N	0.821286	0.167214	0.178183
N82	N	1.321286	0.667214	0.678183
N83	N	0.821335	0.167234	-0.178128
N84	N	1.321335	0.667234	0.321872
C85	C	0.868109	0.081617	0.217571
C86	C	1.368109	0.581617	0.717571
C87	C	0.868113	0.081611	0.296373
C88	C	1.368113	0.581611	0.796373
C89	C	0.821301	0.167224	0.335784
C90	C	1.321301	0.667224	0.835784
C91	C	0.774469	0.252828	0.296386
C92	C	1.274469	0.752828	0.796386
C93	C	0.774462	0.252823	0.217585
C94	C	1.274462	0.752823	0.717585
C95	C	0.812752	0.281645	0.460621
C96	C	1.312752	0.781645	0.960621
C97	C	0.812764	0.281652	0.539420
C98	C	1.312764	0.781652	1.039420
C99	C	0.821320	0.167239	0.578830
C100	C	1.321320	0.667239	1.078830
C101	C	0.829878	0.052815	0.539431
C102	C	1.329878	0.552815	1.039431
C103	C	0.829870	0.052810	0.460631
C104	C	1.329870	0.552810	0.960631
C105	C	0.821303	0.167238	0.421229
C106	C	1.321303	0.667238	0.921229
C107	C	0.868149	0.081628	0.703664
C108	C	1.368149	0.581628	1.203664
C109	C	0.868148	0.081621	0.782467
C110	C	1.368148	0.581621	1.282467
C111	C	0.774508	0.252849	0.782478
C112	C	1.274508	0.752849	1.282478
C113	C	0.774505	0.252845	0.703677
C114	C	1.274505	0.752845	1.203677
C115	C	0.821330	0.167237	0.664274
C116	C	1.321330	0.667237	1.164274
H117	H	0.610506	0.174872	0.123832
H118	H	1.110506	0.674872	0.623832
C119	C	0.468695	0.171134	0.143337
C120	C	0.968695	0.671134	0.643337
N121	N	0.438674	0.170348	0.199883
N122	N	0.938674	0.670348	0.699883
H123	H	0.769724	-0.426744	-0.171475
H124	H	1.269724	0.073256	0.328525
C125	C	0.620884	0.175180	-0.143292
C126	C	1.120884	0.675180	0.356708
N127	N	0.650904	0.175979	-0.199839
N128	N	1.150904	0.675979	0.300161
H129	H	0.906243	0.011905	0.328449
H130	H	1.406243	0.511905	0.828449
C131	C	0.919648	-0.012569	0.825794
C132	C	1.419648	0.487431	1.325794
N133	N	0.958436	-0.083521	0.858429
N134	N	1.458436	0.416479	1.358429
C135	C	0.234783	0.319689	0.109824
C136	C	0.734783	0.819689	0.609824
N137	N	0.200648	0.379836	0.153146
N138	N	0.700648	0.879836	0.653146
H139	H	0.032113	0.159599	-0.123783
H140	H	0.532113	0.659599	0.376217
H141	H	0.868379	-0.445578	-0.177269
H142	H	1.368379	0.054422	0.322731
H143	H	0.819533	-0.451586	0.123837
H144	H	1.319533	0.048414	0.623837
H145	H	0.836837	-0.040358	0.428555
H146	H	1.336837	0.459642	0.928555
H147	H	0.378002	0.302464	0.094862
H148	H	0.878002	0.802464	0.594862
H149	H	0.736332	0.322528	0.185515
H150	H	1.236332	0.822528	0.685515
H151	H	0.264603	0.032052	-0.094830
H152	H	0.764603	0.532052	0.405170
H153	H	0.163542	0.163023	0.123836
H154	H	0.663542	0.663023	0.623836
H155	H	0.736353	0.322533	0.328478
H156	H	1.236353	0.822533	0.828478
H157	H	0.906235	0.011906	0.185492
H158	H	1.406235	0.511906	0.685492
H159	H	0.805772	0.374819	0.428541
H160	H	1.305772	0.874819	0.928541
H161	H	0.736390	0.322552	0.814566
H162	H	1.236390	0.822552	1.314566
C163	C	0.021729	0.159262	0.143347
C164	C	0.521729	0.659262	0.643347
N165	N	-0.008293	0.158471	0.199892
N166	N	0.491707	0.658471	0.699892
H167	H	0.836844	-0.040351	0.571516
H168	H	1.336844	0.459649	1.071516
C169	C	0.407831	0.014783	-0.109768
C170	C	0.907831	0.514783	0.390232
N171	N	0.441971	-0.045368	-0.153083
N172	N	0.941971	0.454632	0.346917
H173	H	0.774308	-0.219973	-0.177279
H174	H	1.274308	0.280027	0.322721
C175	C	0.890740	-0.228795	-0.180048
C176	C	1.390740	0.271205	0.319952
N177	N	0.942289	-0.199806	-0.204924
N178	N	1.442289	0.300194	0.295076
H179	H	0.906275	0.011917	0.671581
H180	H	1.406275	0.511917	1.171581
C181	C	0.823283	-0.195243	0.143336
C182	C	1.323283	0.304757	0.643336
N183	N	0.824060	-0.140988	0.199880
N184	N	1.324060	0.359012	0.699880
C185	C	0.723046	0.347101	0.660348
C186	C	1.223046	0.847101	1.160348
N187	N	0.684301	0.418127	0.627713
N188	N	1.184301	0.918127	1.127713
C189	C	0.803343	0.407519	0.582751
C190	C	1.303343	0.907519	1.082751
N191	N	0.796242	0.502326	0.615387
N192	N	1.296242	1.002326	1.115387
H193	H	0.163562	0.163083	-0.123784
H194	H	0.663562	0.663083	0.376216
H195	H	0.479077	0.171447	-0.123791
H196	H	0.979077	0.671447	0.376209
