data_functionalizedCrystal
_audit_creation_method	'MofGen! by Chris Wilmer'
_symmetry_space_group_name_H-M	'P1'
_symmetry_Int_Tables_number	1
_symmetry_cell_setting	triclinic
loop_
_symmetry_equiv_pos_as_xyz
  x,y,z
_cell_length_a	19.805407
_cell_length_b	15.299816
_cell_length_c	19.805399
_cell_angle_alpha	80.341151
_cell_angle_beta	90.020409
_cell_angle_gamma	80.353075
loop_
_atom_site_label
_atom_site_type_symbol
_atom_site_fract_x
_atom_site_fract_y
_atom_site_fract_z
Zn1	Zn	1.081364	-0.359036	0.429417
Zn2	Zn	1.100867	-0.509860	0.335838
Zn3	Zn	0.968183	-0.359066	0.316243
Zn4	Zn	0.987725	-0.509817	0.448978
O5	O	1.034535	-0.434445	0.382619
O6	O	1.178669	-0.379048	0.417017
O7	O	1.083250	-0.489887	0.238526
O8	O	0.966856	-0.232851	0.314869
O9	O	1.192997	-0.489858	0.348266
O10	O	1.050010	-0.232829	0.398017
O11	O	0.985767	-0.379099	0.224130
O12	O	0.876058	-0.379058	0.333837
O13	O	1.000162	-0.489785	0.541096
O14	O	0.890415	-0.489814	0.431356
O15	O	1.068959	-0.379007	0.526724
O16	O	1.102198	-0.636065	0.367234
O17	O	1.019073	-0.636033	0.450357
C18	C	0.858677	-0.434435	0.382593
C19	C	0.783448	-0.434453	0.382601
C20	C	0.314212	-0.376854	0.418524
C21	C	0.384901	-0.376855	0.418520
C22	C	0.427687	-0.434458	0.382643
C23	C	0.399781	-0.492070	0.346774
C24	C	0.329095	-0.492072	0.346783
C25	C	0.684854	-0.492063	0.346737
C26	C	0.755545	-0.492054	0.346729
C27	C	0.740660	-0.376846	0.418474
C28	C	0.669973	-0.376849	0.418483
C29	C	0.642075	-0.434463	0.382617
C30	C	0.565426	-0.434462	0.382624
C31	C	0.504333	-0.434456	0.382632
C32	C	1.064891	-0.668774	0.413059
C33	C	1.077940	-0.769021	0.426104
C34	C	0.941718	-1.051946	0.289614
C35	C	0.929455	-0.957759	0.277360
C36	C	0.966575	-0.910570	0.314544
C37	C	1.015961	-0.957577	0.363987
C38	C	1.028221	-1.051773	0.376246
C39	C	1.053078	-0.910397	0.401176
C40	C	1.102464	-0.957405	0.450619
C41	C	1.114722	-1.051592	0.462876
C42	C	1.077602	-1.098781	0.425691
C43	C	1.040818	-0.816201	0.388917
C44	C	1.127321	-0.816029	0.475549
C45	C	1.139584	-0.910216	0.487803
C46	C	1.211079	-0.434455	0.382645
C47	C	1.286311	-0.434459	0.382657
C48	C	1.034565	-0.434388	0.559154
C49	C	1.034578	-0.434364	0.634383
C50	C	1.004078	-0.199200	0.352075
C51	C	0.991099	-0.098953	0.339059
C52	C	1.034535	-0.434436	0.206762
C53	C	1.034620	-0.434206	0.131501
C54	C	1.070401	-0.376678	0.662245
C55	C	1.070405	-0.376652	0.732930
C56	C	1.034589	-0.434317	0.775753
C57	C	0.998761	-0.492004	0.747887
C58	C	0.998754	-0.492025	0.677202
C59	C	0.998789	-0.491920	1.032949
C60	C	0.998800	-0.491897	1.103638
C61	C	1.070439	-0.376547	1.088677
C62	C	1.070432	-0.376568	1.017993
C63	C	1.034602	-0.434252	0.990132
C64	C	1.034597	-0.434279	0.913487
C65	C	1.034597	-0.434295	0.852397
H66	H	0.635139	-0.329939	0.447695
H67	H	1.099611	-0.329575	1.111369
Br68	Br	0.950161	-0.570204	0.995147
Br69	Br	1.094402	-1.226611	0.442162
Br70	Br	0.813612	-0.570233	0.298033
H71	H	0.662147	-0.538974	0.317531
H72	H	0.434624	-0.538975	0.317565
H73	H	0.279379	-0.329941	0.447735
Br74	Br	0.422765	-0.298681	0.467206
H75	H	0.969597	-0.538952	0.782759
Br76	Br	0.949667	-0.782743	0.298177
H77	H	0.889245	-0.919489	0.237105
H78	H	1.179794	-0.948503	0.528060
H79	H	1.157546	-0.777608	0.505829
H80	H	0.969575	-0.538989	0.654518
Br81	Br	1.181729	-1.115386	0.529992
H82	H	0.306379	-0.538982	0.317577
Br83	Br	0.891334	-1.115990	0.239169
Br84	Br	0.778526	-0.298656	0.467152
Br85	Br	1.119017	-0.298422	0.604135
H86	H	1.000607	-0.777936	0.348661
Br87	Br	1.119061	-0.298404	0.770745
H88	H	0.969632	-0.538856	1.138504
H89	H	1.099600	-0.329615	0.983129
