data_functionalizedCrystal
_audit_creation_method	'MofGen! by Chris Wilmer'
_symmetry_space_group_name_H-M	'P1'
_symmetry_Int_Tables_number	1
_symmetry_cell_setting	triclinic
loop_
_symmetry_equiv_pos_as_xyz
  x,y,z
_cell_length_a	14.853567
_cell_length_b	10.540539
_cell_length_c	13.330367
_cell_angle_alpha	89.997527
_cell_angle_beta	89.995418
_cell_angle_gamma	84.080211
loop_
_atom_site_label
_atom_site_type_symbol
_atom_site_fract_x
_atom_site_fract_y
_atom_site_fract_z
O1	O	1.197288	0.165727	-0.083349
O2	O	0.934938	0.185470	-0.083366
O3	O	1.072099	-0.009174	-0.083356
O4	O	1.060128	0.360371	-0.083359
O5	O	1.072079	-0.009178	0.083491
O6	O	0.934918	0.185465	0.083481
O7	O	1.197268	0.165723	0.083498
Cu8	Cu	1.066092	0.175594	0.098724
Cu9	Cu	1.066115	0.175599	-0.098592
O10	O	1.060108	0.360367	0.083488
C11	C	0.901335	0.184573	0.000055
C12	C	0.801236	0.181892	0.000049
C13	C	0.387998	0.054938	0.000072
C14	C	0.368000	0.286179	0.000069
C15	C	0.462048	0.288700	0.000066
C16	C	0.519075	0.174338	0.000065
C17	C	0.482055	0.057455	0.000066
C18	C	0.499075	0.405580	0.000054
C19	C	0.593129	0.408105	0.000050
C20	C	0.650158	0.293742	0.000056
C21	C	0.613132	0.176855	0.000058
C22	C	0.670159	0.062493	0.000057
C23	C	0.633135	-0.054396	0.000067
C24	C	0.539084	-0.056908	0.000072
C25	C	0.744209	0.296254	0.000050
C26	C	0.764216	0.065010	0.000050
C27	C	1.071191	-0.056469	0.000066
C28	C	1.068505	-0.197388	0.000060
C29	C	0.965588	-0.379682	-0.000321
C30	C	0.968311	-0.233094	0.000055
C31	C	1.116712	-0.259578	0.095341
C32	C	1.113292	-0.406085	0.095421
C33	C	1.115353	-0.406621	-0.094315
C34	C	1.116276	-0.259649	-0.095575
C35	C	1.230872	0.166620	0.000074
C36	C	1.330971	0.169300	0.000074
C37	C	1.061016	0.407662	0.000064
C38	C	1.063702	0.548580	0.000063
N39	N	1.066081	0.175589	0.237505
N40	N	1.066133	0.175593	-0.237374
C41	C	1.005378	0.261753	0.710124
C42	C	1.126877	0.089435	0.710101
C43	C	1.126867	0.089431	0.605082
C44	C	1.066112	0.175591	0.552580
C45	C	1.005368	0.261754	0.605096
C46	C	1.187616	0.003277	0.552559
C47	C	1.187609	0.003271	0.447534
C48	C	1.126849	0.089426	0.395029
C49	C	1.066102	0.175592	0.447552
C50	C	1.005347	0.261752	0.395049
C51	C	0.944594	0.347913	0.447570
C52	C	0.944608	0.347909	0.552591
C53	C	1.126836	0.089430	0.290008
C54	C	1.005337	0.261753	0.290021
H55	H	0.926017	-0.407845	-0.068649
N56	N	0.939859	0.354678	0.766771
H57	H	0.950816	0.444800	0.748490
H58	H	0.875811	0.339782	0.748482
N59	N	0.633055	0.534172	0.000059
H60	H	0.701290	0.518417	0.000060
H61	H	0.612254	0.584228	-0.061792
N62	N	1.213043	-0.228645	-0.103190
H63	H	1.241960	-0.269888	-0.165285
H64	H	1.214128	-0.133146	-0.107399
N65	N	0.499141	-0.182963	0.000085
H66	H	0.460567	-0.189156	-0.061764
H67	H	0.549582	-0.254963	0.000126
N68	N	1.192409	-0.003480	0.766722
H69	H	1.183201	0.009597	0.841222
H70	H	1.181418	-0.093561	0.748376
N71	N	0.306498	0.409521	0.000060
H72	H	0.241299	0.390191	0.000061
H73	H	0.318565	0.460450	0.061912
N74	N	0.437559	0.528909	0.000024
H75	H	0.449556	0.579868	-0.061843
H76	H	0.372392	0.509448	0.000061
H77	H	0.895131	0.418071	0.404810
N78	N	0.825722	-0.058340	0.000060
H79	H	0.787994	-0.132762	0.000070
H80	H	0.865181	-0.062339	-0.061795
H81	H	0.774350	0.391423	0.000044
H82	H	1.187723	-0.454643	-0.094951
H83	H	1.237076	-0.066887	0.404778
H84	H	0.895146	0.418060	0.595360
H85	H	1.237086	-0.066866	0.595309
H86	H	1.176304	0.019284	0.247250
N87	N	0.913358	-0.419100	0.089676
H88	H	0.857921	-0.458768	0.066415
H89	H	0.953040	-0.483185	0.130655
N90	N	0.917698	-0.177215	0.090673
H91	H	0.893535	-0.247823	0.130533
H92	H	0.960060	-0.131890	0.134012
N93	N	0.939810	0.354692	0.233400
H94	H	0.949022	0.341626	0.158899
H95	H	0.875765	0.339858	0.251768
N96	N	0.348079	-0.071134	0.000076
H97	H	0.368824	-0.121241	0.061926
H98	H	0.279852	-0.055285	0.000045
N99	N	0.694642	-0.177745	0.000063
H100	H	0.734107	-0.181850	-0.061792
H101	H	0.734053	-0.181774	0.061950
N102	N	1.066080	-0.442936	0.189756
H103	H	1.047679	-0.364044	0.230896
H104	H	1.010476	-0.485410	0.171210
H105	H	0.930378	-0.190072	-0.068247
N106	N	1.214174	-0.231031	0.100027
H107	H	1.224555	-0.182975	0.163838
H108	H	1.255172	-0.313651	0.099043
H109	H	1.185351	-0.454847	0.099748
H110	H	1.082934	-0.437815	-0.166532
N111	N	1.072327	-0.202687	0.189260
H112	H	1.103820	-0.243323	0.250163
H113	H	1.076946	-0.107769	0.190254
N114	N	1.069615	-0.204930	-0.188950
H115	H	1.017750	-0.140076	-0.169396
H116	H	1.114282	-0.162403	-0.231230
