data_functionalizedCrystal
_audit_creation_method	'MofGen! by Chris Wilmer'
_symmetry_space_group_name_H-M	'P1'
_symmetry_Int_Tables_number	1
_symmetry_cell_setting	triclinic
loop_
_symmetry_equiv_pos_as_xyz
  x,y,z
_cell_length_a	6.817900
_cell_length_b	19.551823
_cell_length_c	16.255661
_cell_angle_alpha	95.874627
_cell_angle_beta	103.488922
_cell_angle_gamma	101.663376
loop_
_atom_site_label
_atom_site_type_symbol
_atom_site_fract_x
_atom_site_fract_y
_atom_site_fract_z
V1	V	-4.017644	-0.097240	-0.264269
O2	O	-4.014572	0.004092	-0.258831
O3	O	-3.960336	-0.192252	-0.262853
O4	O	-3.969322	-0.095999	-0.379347
O5	O	-4.005524	-0.092827	-0.141531
V6	V	-4.502416	-0.085090	-0.249541
O7	O	-4.276162	-0.123894	-0.296576
O8	O	-4.694095	-0.058436	-0.217234
O9	O	-4.336518	0.009923	-0.250957
O10	O	-4.622886	-0.186422	-0.254979
O11	O	-4.631934	-0.089502	-0.372279
O12	O	-4.327532	-0.086330	-0.134463
C13	C	-3.803167	-0.215406	-0.258785
C14	C	-3.837598	-0.293082	-0.258395
C15	C	-3.814629	-0.092625	-0.407384
C16	C	-3.856344	-0.092239	-0.501464
C17	C	-4.035543	-0.333136	-0.262444
C18	C	-4.067899	-0.406121	-0.262085
C19	C	-3.902291	-0.439047	-0.257661
C20	C	-3.704321	-0.398984	-0.253617
C21	C	-3.671975	-0.326001	-0.253984
C22	C	-3.789026	-0.545420	-0.203995
C23	C	-3.821377	-0.618401	-0.203623
C24	C	-4.002053	-0.664151	-0.256533
C25	C	-4.150402	-0.636910	-0.309805
C26	C	-4.118055	-0.563927	-0.310172
C27	C	-3.937345	-0.518184	-0.257263
C28	C	-4.235095	-0.783344	-0.260194
C29	C	-4.267447	-0.856332	-0.259841
C30	C	-3.903859	-0.849192	-0.251364
C31	C	-3.871517	-0.776207	-0.251726
C32	C	-4.037140	-0.743287	-0.256137
C33	C	-3.767331	-0.087630	-0.724263
C34	C	-3.918199	-0.147123	-0.793983
C35	C	-3.932796	-0.091516	-0.673709
C36	C	-3.856282	-0.031341	-0.771624
C37	C	-4.006630	-0.090813	-0.840090
C38	C	-4.083142	-0.151062	-0.742199
C39	C	-4.021167	-0.035228	-0.719825
C40	C	-4.172171	-0.094738	-0.789525
C41	C	-3.890258	-0.091921	-0.577862
C42	C	-4.049185	-0.090414	-0.935937
C43	C	-4.157028	0.033073	-0.255022
C44	C	-4.101835	0.110747	-0.255418
C45	C	-4.145567	-0.089707	-0.106422
C46	C	-4.083090	-0.090089	-0.012341
H47	H	-4.170412	-0.306338	-0.266041
N48	N	-3.736440	0.032113	-0.788433
N49	N	-3.542823	0.045791	-0.764166
H50	H	-3.458169	0.090597	-0.776048
H51	H	-4.229094	-0.438740	-0.265382
N52	N	-4.202932	-0.214614	-0.725589
N53	N	-4.320604	-0.259572	-0.786484
H54	H	-4.405199	-0.304457	-0.774753
H55	H	-3.510783	-0.293389	-0.250687
H56	H	-3.569485	-0.425797	-0.250016
H57	H	-3.700588	-0.640574	-0.160240
H58	H	-3.595850	-0.084701	-0.695771
N59	N	-3.864135	-0.206469	-0.834469
N60	N	-3.681562	-0.213400	-0.814164
H61	H	-3.643364	-0.255312	-0.842752
N62	N	-4.334961	-0.683642	-0.363848
N63	N	-4.363820	-0.748804	-0.363519
H64	H	-4.494164	-0.781811	-0.401684
N65	N	-4.387432	-0.098531	-0.825094
N66	N	-4.521252	-0.150584	-0.819218
H67	H	-4.673282	-0.153266	-0.844339
N68	N	-4.075074	0.024125	-0.679287
N69	N	-3.940341	0.068464	-0.622682
H70	H	-3.978391	0.110388	-0.594047
N71	N	-4.269596	-0.536111	-0.364588
N72	N	-4.430913	-0.576959	-0.411825
H73	H	-4.537941	-0.557315	-0.450259
H74	H	-4.369954	-0.756540	-0.263785
N75	N	-3.669300	-0.735286	-0.247560
N76	N	-3.580317	-0.685924	-0.186850
H77	H	-3.437491	-0.657023	-0.183909
N78	N	-4.469664	-0.897251	-0.263995
N79	N	-4.618151	-0.899330	-0.326835
H80	H	-4.760972	-0.928230	-0.329770
N81	N	-3.734714	-0.882828	-0.246854
N82	N	-3.763618	-0.947991	-0.246532
H83	H	-3.644158	-0.971751	-0.243350
N84	N	-3.604416	-0.498703	-0.149960
N85	N	-3.471976	-0.523032	-0.102408
H86	H	-3.341587	-0.490041	-0.064254
