data_functionalizedCrystal
_audit_creation_method	'MofGen! by Chris Wilmer'
_symmetry_space_group_name_H-M	'P1'
_symmetry_Int_Tables_number	1
_symmetry_cell_setting	triclinic
loop_
_symmetry_equiv_pos_as_xyz
  x,y,z
_cell_length_a	19.077399
_cell_length_b	25.639239
_cell_length_c	19.076919
_cell_angle_alpha	87.731593
_cell_angle_beta	85.520477
_cell_angle_gamma	92.338270
loop_
_atom_site_label
_atom_site_type_symbol
_atom_site_fract_x
_atom_site_fract_y
_atom_site_fract_z
Zn1	Zn	1.061614	-0.187089	0.355385
Zn2	Zn	1.561614	0.312911	0.855385
Zn3	Zn	1.066241	-0.270867	0.237501
Zn4	Zn	1.566241	0.229133	0.737501
Zn5	Zn	0.948469	-0.187103	0.242240
Zn6	Zn	1.448469	0.312897	0.742240
Zn7	Zn	0.943667	-0.278155	0.360070
Zn8	Zn	1.443667	0.221845	0.860070
O9	O	1.004998	-0.230803	0.298799
O10	O	1.504998	0.269197	0.798799
O11	O	1.160877	-0.195146	0.335805
O12	O	1.660877	0.304854	0.835805
O13	O	1.054564	-0.256712	0.139483
O14	O	1.554564	0.243288	0.639483
O15	O	0.963551	-0.113935	0.257272
O16	O	1.463551	0.386065	0.757272
O17	O	1.164277	-0.256698	0.249196
O18	O	1.664277	0.243302	0.749196
O19	O	1.046678	-0.113924	0.340399
O20	O	1.546678	0.386076	0.840399
O21	O	0.968038	-0.195171	0.142964
O22	O	1.468038	0.304829	0.642964
O23	O	0.849183	-0.202237	0.261814
O24	O	1.349183	0.297763	0.761814
O25	O	0.955367	-0.269119	0.458095
O26	O	1.455367	0.230881	0.958095
O27	O	0.845655	-0.269132	0.348383
O28	O	1.345655	0.230868	0.848383
O29	O	1.042022	-0.202213	0.454654
O30	O	1.542022	0.297787	0.954654
O31	O	1.049908	-0.345000	0.253738
O32	O	1.549908	0.155000	0.753738
O33	O	0.959854	-0.350355	0.343788
O34	O	1.459854	0.149645	0.843788
C35	C	0.821840	-0.236478	0.306121
C36	C	1.321840	0.263522	0.806121
C37	C	0.743484	-0.238918	0.309270
C38	C	1.243484	0.261082	0.809270
C39	C	0.708485	-0.205188	0.265752
C40	C	1.208485	0.294812	0.765752
C41	C	0.634861	-0.207485	0.268710
C42	C	1.134861	0.292515	0.768710
C43	C	0.596237	-0.243511	0.315191
C44	C	1.096237	0.256489	0.815191
C45	C	0.631241	-0.277245	0.358712
C46	C	1.131241	0.222755	0.858712
C47	C	0.704864	-0.274950	0.355749
C48	C	1.204864	0.225050	0.855749
C49	C	0.375853	-0.254119	0.328874
C50	C	0.875853	0.245881	0.828874
C51	C	0.302225	-0.256411	0.331835
C52	C	0.802225	0.243589	0.831835
C53	C	0.305851	-0.186651	0.241833
C54	C	0.805851	0.313349	0.741833
C55	C	0.379475	-0.184357	0.238877
C56	C	0.879475	0.315643	0.738877
C57	C	0.414472	-0.218093	0.282395
C58	C	0.914472	0.281907	0.782395
N59	N	0.520981	-0.245860	0.318218
N60	N	1.020981	0.254140	0.818218
N61	N	0.489727	-0.215747	0.279364
N62	N	0.989727	0.284253	0.779364
C63	C	1.004881	-0.366649	0.298772
C64	C	1.504881	0.133351	0.798772
C65	C	1.004894	-0.424763	0.298781
C66	C	1.504894	0.075237	0.798781
C67	C	1.052004	-0.782321	0.251982
C68	C	1.552004	-0.282321	0.751982
C69	C	1.052031	-0.836925	0.251990
C70	C	1.552031	-0.336925	0.751990
O71	O	1.091964	-0.862780	0.212170
O72	O	1.591964	-0.362780	0.712170
N73	N	1.005120	-0.867040	0.298841
N74	N	1.505120	-0.367040	0.798841
C75	C	0.958184	-0.842549	0.345691
C76	C	1.458184	-0.342549	0.845691
O77	O	0.918285	-0.873178	0.385542
O78	O	1.418285	-0.373178	0.885542
C79	C	0.958161	-0.787946	0.345685
C80	C	1.458161	-0.287946	0.845685
C81	C	1.005070	-0.757834	0.298827
C82	C	1.505070	-0.257834	0.798827
C83	C	1.098910	-0.752209	0.205128
C84	C	1.598910	-0.252209	0.705128
C85	C	1.098882	-0.697609	0.205119
C86	C	1.598882	-0.197609	0.705119
C87	C	1.051948	-0.673121	0.251964
C88	C	1.551948	-0.173121	0.751964
C89	C	1.005042	-0.703234	0.298818
C90	C	1.505042	-0.203234	0.798818
C91	C	0.911229	-0.763456	0.392538
C92	C	1.411229	-0.263456	0.892538
C93	C	0.911210	-0.708849	0.392529
C94	C	1.411210	-0.208849	0.892529
C95	C	0.958119	-0.678736	0.345671
C96	C	1.458119	-0.178736	0.845671
C97	C	0.958080	-0.624146	0.345654
C98	C	1.458080	-0.124146	0.845654
N99	N	1.004991	-0.594031	0.298803
N100	N	1.504991	-0.094031	0.798803
C101	C	1.051925	-0.618519	0.251958
C102	C	1.551925	-0.118519	0.751958
C103	C	0.958237	-0.957218	0.345700
C104	C	1.458237	-0.457218	0.845700
C105	C	0.958256	-1.011820	0.345702
C106	C	1.458256	-0.511820	0.845702
C107	C	1.052104	-1.006192	0.252002
C108	C	1.552104	-0.506192	0.752002
C109	C	1.052081	-0.951590	0.251997
C110	C	1.552081	-0.451590	0.751997
C111	C	1.005147	-0.927103	0.298849
C112	C	1.505147	-0.427103	0.798849
C113	C	1.051862	-0.503855	0.251943
C114	C	1.551862	-0.003855	0.751943
C115	C	1.051828	-0.449250	0.251936
C116	C	1.551828	0.050750	0.751936
C117	C	0.957983	-0.454883	0.345638
C118	C	1.457983	0.045117	0.845638
C119	C	0.958014	-0.509482	0.345642
C120	C	1.458014	-0.009482	0.845642
C121	C	1.004959	-0.533967	0.298792
C122	C	1.504959	-0.033967	0.798792
O123	O	0.918170	-0.598255	0.385456
O124	O	1.418170	-0.098255	0.885456
O125	O	1.091823	-0.587883	0.212120
O126	O	1.591823	-0.087883	0.712120
C127	C	1.188871	-0.225108	0.291449
C128	C	1.688871	0.274892	0.791449
C129	C	1.267226	-0.222680	0.288317
C130	C	1.767226	0.277320	0.788317
C131	C	0.997643	-0.236477	0.482668
C132	C	1.497643	0.263523	0.982668
C133	C	0.994509	-0.238895	0.561022
C134	C	1.494509	0.261105	1.061022
C135	C	1.005134	-0.094428	0.298841
C136	C	1.505134	0.405572	0.798841
C137	C	1.005192	-0.036312	0.298859
C138	C	1.505192	0.463688	0.798859
C139	C	1.012365	-0.225113	0.115644
C140	C	1.512365	0.274887	0.615644
C141	C	1.015636	-0.222544	0.037285
C142	C	1.515636	0.277456	0.537285
C143	C	1.038151	-0.205198	0.596042
C144	C	1.538151	0.294802	1.096042
C145	C	1.035197	-0.207468	0.669664
C146	C	1.535197	0.292532	1.169664
C147	C	0.988605	-0.243438	0.708265
C148	C	1.488605	0.256562	1.208265
C149	C	0.944958	-0.277136	0.673239
C150	C	1.444958	0.222864	1.173239
C151	C	0.947909	-0.274863	0.599619
C152	C	1.447909	0.225137	1.099619
C153	C	0.974939	-0.253969	0.928639
C154	C	1.474939	0.246031	1.428639
C155	C	0.971994	-0.256240	1.002265
C156	C	1.471994	0.243760	1.502265
C157	C	1.062232	-0.186572	0.998685
C158	C	1.562232	0.313428	1.498685
C159	C	1.065181	-0.184304	0.925063
C160	C	1.565181	0.315696	1.425063
C161	C	1.021532	-0.218000	0.890044
C162	C	1.521532	0.282000	1.390044
N163	N	0.985586	-0.245760	0.783518
N164	N	1.485586	0.254240	1.283518
N165	N	1.024548	-0.215675	0.814792
N166	N	1.524548	0.284325	1.314792
H167	H	0.606368	-0.180022	0.233269
H168	H	1.106368	0.319978	0.733269
Cl169	Cl	0.582685	-0.322542	0.417135
Cl170	Cl	1.082685	0.177458	0.917135
Cl171	Cl	1.123758	-0.139083	0.876542
Cl172	Cl	1.623758	0.360917	1.376542
H173	H	0.733359	-0.302416	0.391186
H174	H	1.233359	0.197584	0.891186
H175	H	0.404339	-0.281589	0.364309
H176	H	0.904339	0.218411	0.864309
Cl177	Cl	1.110804	-0.411398	0.193024
Cl178	Cl	1.610804	0.088602	0.693024
Cl179	Cl	1.157921	-0.782983	0.146229
Cl180	Cl	1.657921	-0.282983	0.646229
Cl181	Cl	0.428025	-0.139061	0.180448
Cl182	Cl	0.928025	0.360939	0.680448
Cl183	Cl	1.111055	-0.913740	0.193088
Cl184	Cl	1.611055	-0.413740	0.693088
Cl185	Cl	0.899223	-0.926441	0.404600
Cl186	Cl	1.399223	-0.426441	0.904600
H187	H	0.739927	-0.175848	0.227907
H188	H	1.239927	0.324152	0.727907
Cl189	Cl	0.898987	-0.424088	0.404529
Cl190	Cl	1.398987	0.075912	0.904529
Cl191	Cl	1.110879	-0.534627	0.193043
Cl192	Cl	1.610879	-0.034627	0.693043
Cl193	Cl	1.157867	-0.659761	0.146218
Cl194	Cl	1.657867	-0.159761	0.646218
Cl195	Cl	0.899274	-1.049669	0.404605
Cl196	Cl	1.399274	-0.549669	0.904605
H197	H	1.076093	-0.175909	0.564619
H198	H	1.576093	0.324091	1.064619
H199	H	1.090322	-1.026140	0.213861
H200	H	1.590322	-0.526140	0.713861
H201	H	1.070737	-0.180030	0.698174
H202	H	1.570737	0.319970	1.198174
Cl203	Cl	1.117099	-0.144211	1.042712
Cl204	Cl	1.617099	0.355789	1.542712
Cl205	Cl	0.253670	-0.301702	0.390275
Cl206	Cl	0.753670	0.198298	0.890275
Cl207	Cl	0.913412	-0.301460	1.050791
Cl208	Cl	1.413412	0.198540	1.550791
H209	H	0.939407	-0.281414	0.900135
H210	H	1.439407	0.218586	1.400135
Cl211	Cl	0.886382	-0.322354	0.721766
Cl212	Cl	1.386382	0.177646	1.221766
Cl213	Cl	0.261849	-0.144245	0.187127
Cl214	Cl	0.761849	0.355755	0.687127
H215	H	0.912363	-0.302298	0.571107
H216	H	1.412363	0.197702	1.071107
Cl217	Cl	0.852261	-0.801298	0.451458
Cl218	Cl	1.352261	-0.301298	0.951458
H219	H	0.872992	-0.688915	0.430684
H220	H	1.372992	-0.188915	0.930684
H221	H	0.919819	-0.534001	0.383800
H222	H	1.419819	-0.034001	0.883800
