data_functionalizedCrystal
_audit_creation_method	'MofGen! by Chris Wilmer'
_symmetry_space_group_name_H-M	'P1'
_symmetry_Int_Tables_number	1
_symmetry_cell_setting	triclinic
loop_
_symmetry_equiv_pos_as_xyz
  x,y,z
_cell_length_a	21.395364
_cell_length_b	21.295417
_cell_length_c	21.295411
_cell_angle_alpha	90.028718
_cell_angle_beta	90.016431
_cell_angle_gamma	90.045458
loop_
_atom_site_label
_atom_site_type_symbol
_atom_site_fract_x
_atom_site_fract_y
_atom_site_fract_z
Zn1	Zn	0.957810	-0.250386	0.355911
Zn2	Zn	0.957728	-0.355651	0.250637
Zn3	Zn	0.853040	-0.250427	0.250656
Zn4	Zn	0.852994	-0.355649	0.355868
O5	O	0.905393	-0.303028	0.303268
O6	O	1.045477	-0.264333	0.341956
O7	O	0.943825	-0.341711	0.162550
O8	O	0.866991	-0.162332	0.264645
O9	O	1.045416	-0.341671	0.264611
O10	O	0.943965	-0.162302	0.341975
O11	O	0.866911	-0.264403	0.162564
O12	O	0.765356	-0.264401	0.264603
O13	O	0.866914	-0.341667	0.443963
O14	O	0.765323	-0.341707	0.341902
O15	O	0.943921	-0.264331	0.443995
O16	O	0.943781	-0.443740	0.264570
O17	O	0.866834	-0.443738	0.341883
C18	C	0.742605	-0.303059	0.303250
C19	C	0.672964	-0.303087	0.303258
C20	C	0.640305	-0.262883	0.343594
C21	C	0.574869	-0.262866	0.343596
C22	C	0.542096	-0.303065	0.303269
C23	C	0.574763	-0.343271	0.262926
C24	C	0.640197	-0.343282	0.262920
C25	C	0.438372	-0.359755	0.298205
C26	C	0.372939	-0.359745	0.298215
C27	C	0.340275	-0.303030	0.303283
C28	C	0.373052	-0.246324	0.308354
C29	C	0.438486	-0.246335	0.308349
C30	C	0.471143	-0.303057	0.303271
C31	C	0.236663	-0.262805	0.343624
C32	C	0.171227	-0.262787	0.343622
C33	C	0.171121	-0.343197	0.262955
C34	C	0.236557	-0.343210	0.262954
C35	C	0.269324	-0.303014	0.303291
C36	C	0.905311	-0.466580	0.303233
C37	C	0.905333	-0.536548	0.303239
C38	C	0.945435	-0.569394	0.263024
C39	C	0.945464	-0.635137	0.263038
C40	C	0.905381	-0.668030	0.303261
C41	C	0.865276	-0.635176	0.343485
C42	C	0.865252	-0.569435	0.343474
N43	N	0.850570	-0.771311	0.308054
N44	N	0.850594	-0.833762	0.308061
C45	C	0.905451	-0.866105	0.303297
N46	N	0.960283	-0.833637	0.298515
N47	N	0.960258	-0.771180	0.298505
C48	C	0.905402	-0.739316	0.303278
C49	C	0.945588	-0.970237	0.263095
C50	C	0.945618	-1.035981	0.263113
C51	C	0.865424	-1.036018	0.343557
C52	C	0.865399	-0.970276	0.343542
C53	C	0.905480	-0.937389	0.303307
C54	C	1.068816	-0.302998	0.303286
C55	C	1.138457	-0.302985	0.303294
C56	C	0.905422	-0.302994	0.467458
C57	C	0.905434	-0.302980	0.537427
C58	C	0.905492	-0.138838	0.303317
C59	C	0.905535	-0.068870	0.303338
C60	C	0.905400	-0.303016	0.139717
C61	C	0.905509	-0.302853	0.069749
C62	C	0.945553	-0.343104	1.036878
C63	C	0.945542	-0.343124	0.971135
C64	C	0.905493	-0.302882	0.938266
C65	C	0.865442	-0.262629	0.971145
C66	C	0.865450	-0.262614	1.036887
N67	N	0.900708	-0.247804	0.835061
N68	N	0.900704	-0.247819	0.772610
C69	C	0.905466	-0.302924	0.740191
N70	N	0.910244	-0.358014	0.772584
N71	N	0.910252	-0.357998	0.835041
C72	C	0.905480	-0.302894	0.866981
C73	C	0.945499	-0.343200	0.636035
C74	C	0.945484	-0.343222	0.570291
C75	C	0.865387	-0.262721	0.570302
C76	C	0.865400	-0.262705	0.636045
C77	C	0.905459	-0.302944	0.668907
H78	H	0.144636	-0.230044	0.376467
H79	H	0.465170	-0.200162	0.312476
Cl80	Cl	0.996042	-1.077274	0.212556
Cl81	Cl	0.814833	-0.528140	0.394035
H82	H	0.548074	-0.376001	0.230091
H83	H	0.548273	-0.230125	0.376441
H84	H	0.144438	-0.375928	0.230120
H85	H	0.832777	-0.229957	0.543541
H86	H	0.978089	-0.376004	0.543529
Cl87	Cl	0.681257	-0.393827	0.212207
H88	H	0.832841	-0.229836	1.063650
Cl89	Cl	0.995857	-0.393786	0.677351
H90	H	0.832742	-0.943531	0.376286
H91	H	0.346458	-0.200141	0.312481
Cl92	Cl	0.815047	-0.212110	0.677371
Cl93	Cl	0.331741	-0.431032	0.291851
Cl94	Cl	0.681494	-0.212350	0.394302
H95	H	0.832640	-0.661962	0.376236
Cl96	Cl	0.277859	-0.212270	0.394328
H97	H	0.464962	-0.405942	0.294078
H98	H	0.263148	-0.375951	0.230110
H99	H	0.978159	-0.375894	0.944367
H100	H	0.978073	-0.542620	0.230264
H101	H	0.978122	-0.661886	0.230289
H102	H	0.978171	-0.375871	1.063630
H103	H	0.832790	-1.062800	0.376310
H104	H	0.978226	-0.943459	0.230335
Cl105	Cl	0.815097	-0.212037	0.929825
