data_functionalizedCrystal
_audit_creation_method	'MofGen! by Chris Wilmer'
_symmetry_space_group_name_H-M	'P1'
_symmetry_Int_Tables_number	1
_symmetry_cell_setting	triclinic
loop_
_symmetry_equiv_pos_as_xyz
  x,y,z
_cell_length_a	19.188930
_cell_length_b	23.532407
_cell_length_c	18.266242
_cell_angle_alpha	89.988983
_cell_angle_beta	89.977082
_cell_angle_gamma	82.996728
loop_
_atom_site_label
_atom_site_type_symbol
_atom_site_fract_x
_atom_site_fract_y
_atom_site_fract_z
O1	O	0.925922	0.071102	-0.061124
O2	O	0.722581	0.080673	-0.061074
O3	O	0.830383	-0.007031	-0.061087
O4	O	0.818120	0.158806	-0.061111
O5	O	0.830365	-0.007035	0.060675
O6	O	0.722562	0.080669	0.060688
O7	O	0.925904	0.071097	0.060638
Zn8	Zn	0.824230	0.075882	0.079995
Zn9	Zn	0.824254	0.075888	-0.080431
O10	O	0.818102	0.158802	0.060651
C11	C	0.696561	0.080361	-0.000187
C12	C	0.619060	0.079431	-0.000168
C13	C	0.573972	0.130893	-0.000187
C14	C	0.501151	0.130019	-0.000194
C15	C	0.473421	0.077680	-0.000198
C16	C	0.518519	0.026211	-0.000175
C17	C	0.591339	0.027086	-0.000160
N18	N	0.365575	0.037674	-0.041663
N19	N	0.296399	0.036846	-0.041679
C20	C	0.254021	0.075038	-0.000243
N21	N	0.283431	0.114099	0.041201
N22	N	0.352613	0.114929	0.041214
C23	C	0.394462	0.076724	-0.000214
C24	C	0.129971	0.125556	-0.000269
C25	C	0.057149	0.124680	-0.000272
C26	C	0.074520	0.020870	-0.000260
C27	C	0.147340	0.021748	-0.000250
C28	C	0.175061	0.074092	-0.000257
C29	C	0.830062	-0.028250	-0.000204
C30	C	0.829123	-0.091469	-0.000198
C31	C	0.887029	-0.490449	-0.000252
C32	C	0.886157	-0.549851	-0.000258
O33	O	0.939837	-0.586482	-0.000298
N34	N	0.822068	-0.572613	-0.000242
C35	C	0.758848	-0.535970	-0.000228
O36	O	0.704255	-0.560786	-0.000215
C37	C	0.759721	-0.476569	-0.000228
C38	C	0.823814	-0.453810	-0.000236
C39	C	0.951117	-0.467690	-0.000262
C40	C	0.951989	-0.408292	-0.000255
C41	C	0.888773	-0.371653	-0.000239
C42	C	0.824685	-0.394412	-0.000230
C43	C	0.696501	-0.439927	-0.000219
C44	C	0.697379	-0.380523	-0.000219
C45	C	0.761472	-0.357764	-0.000228
C46	C	0.762342	-0.298376	-0.000207
N47	N	0.826430	-0.275614	-0.000223
C48	C	0.889646	-0.312252	-0.000239
C49	C	0.757019	-0.660717	-0.000229
C50	C	0.756146	-0.720116	-0.000224
C51	C	0.883455	-0.733993	-0.000256
C52	C	0.884328	-0.674592	-0.000255
C53	C	0.821108	-0.637954	-0.000245
C54	C	0.891472	-0.187512	-0.000224
C55	C	0.892339	-0.128108	-0.000214
C56	C	0.765029	-0.114236	-0.000187
C57	C	0.764163	-0.173634	-0.000193
C58	C	0.827390	-0.210272	-0.000214
O59	O	0.708690	-0.261710	-0.000170
O60	O	0.944230	-0.287428	-0.000261
C61	C	0.951923	0.071410	-0.000251
C62	C	1.029425	0.072340	-0.000275
C63	C	0.818423	0.180021	-0.000234
C64	C	0.819362	0.243240	-0.000244
N65	N	0.824219	0.075878	0.189482
N66	N	0.824271	0.075888	-0.189918
C67	C	0.871970	0.037062	0.227785
C68	C	0.871974	0.037059	0.304430
C69	C	0.824235	0.075883	0.342769
C70	C	0.776475	0.114702	0.304457
C71	C	0.776468	0.114700	0.227813
N72	N	0.814998	0.126298	0.463096
N73	N	0.815010	0.126298	0.535904
C74	C	0.824254	0.075891	0.573691
N75	N	0.833500	0.025481	0.535921
N76	N	0.833492	0.025482	0.463106
C77	C	0.824238	0.075889	0.425876
C78	C	0.872012	0.037068	0.695102
C79	C	0.872012	0.037065	0.771748
C80	C	0.776516	0.114713	0.771773
C81	C	0.776513	0.114711	0.695128
C82	C	0.824265	0.075890	0.656797
H83	H	0.184052	-0.020158	-0.000238
H84	H	0.910893	0.005455	0.663892
H85	H	0.713561	-0.084394	-0.000171
C86	C	0.693663	-0.198671	-0.000185
H87	H	0.656140	-0.168340	-0.000179
H88	H	0.690663	-0.221568	0.042268
H89	H	0.690689	-0.221540	-0.042659
C90	C	0.007552	0.181291	-0.000293
H91	H	0.034494	0.212588	-0.000303
H92	H	-0.021240	0.183110	0.042162
H93	H	-0.021192	0.183104	-0.042765
C94	C	0.451545	0.186629	-0.000226
H95	H	0.478484	0.217928	-0.000235
H96	H	0.422747	0.188450	0.042224
H97	H	0.422808	0.188437	-0.042703
C98	C	0.924541	-0.005635	0.813882
H99	H	0.952982	-0.028750	0.780074
H100	H	0.899601	-0.029295	0.843801
H101	H	0.953462	0.014802	0.843759
C102	C	0.723965	0.157409	0.346626
H103	H	0.730814	0.151855	0.397758
H104	H	0.677411	0.151318	0.334095
H105	H	0.731285	0.195404	0.334047
H106	H	0.645897	-0.350694	-0.000212
C107	C	0.924487	-0.005646	0.185625
H108	H	0.952922	-0.028768	0.219419
H109	H	0.953403	0.014778	0.155702
H110	H	0.899529	-0.029308	0.155752
C111	C	0.924503	-0.005640	0.346573
H112	H	0.952942	-0.028759	0.312767
H113	H	0.899560	-0.029296	0.376494
H114	H	0.953424	0.014797	0.376447
H115	H	0.495937	-0.016404	-0.000188
H116	H	0.737582	0.146309	0.196626
H117	H	0.737643	0.146322	0.802988
C118	C	0.723995	0.157416	0.652992
H119	H	0.695566	0.180542	0.686801
H120	H	0.695072	0.136989	0.623113
H121	H	0.748947	0.181074	0.623076
H122	H	1.002598	-0.497516	-0.000278
H123	H	0.596537	0.173516	-0.000194
H124	H	0.628050	-0.014822	-0.000145
H125	H	0.644310	-0.458446	-0.000216
H126	H	0.705535	-0.630888	-0.000215
C127	C	0.160472	0.183130	-0.000269
H128	H	0.210298	0.176281	-0.000267
H129	H	0.144949	0.204310	0.042188
H130	H	0.144991	0.204313	-0.042739
C131	C	0.044026	-0.036702	-0.000269
H132	H	-0.005801	-0.029854	-0.000286
H133	H	0.059504	-0.057889	0.042195
H134	H	0.059552	-0.057878	-0.042733
H135	H	0.942958	-0.217335	-0.000244
C136	C	0.962843	-0.103077	-0.000228
H137	H	1.000366	-0.133408	-0.000247
H138	H	0.965828	-0.080201	0.042234
H139	H	0.965836	-0.080186	-0.042694
C140	C	0.954829	-0.649563	-0.000272
H141	H	0.992350	-0.679896	-0.000285
H142	H	0.957814	-0.626683	0.042187
H143	H	0.957825	-0.626677	-0.042741
C144	C	0.685646	-0.745147	-0.000206
H145	H	0.694173	-0.785772	-0.000207
H146	H	0.659641	-0.732550	-0.042660
H147	H	0.659632	-0.732567	0.042268
C148	C	1.022489	-0.383262	-0.000269
H149	H	1.013965	-0.342637	-0.000259
H150	H	1.048506	-0.395845	-0.042736
H151	H	1.048490	-0.395859	0.042191
C152	C	0.952992	-0.774303	-0.000287
H153	H	0.943288	-0.812939	-0.000296
H154	H	0.979292	-0.767434	0.042164
H155	H	0.979288	-0.767412	-0.042763
