data_functionalizedCrystal
_audit_creation_method	'MofGen! by Chris Wilmer'
_symmetry_space_group_name_H-M	'P1'
_symmetry_Int_Tables_number	1
_symmetry_cell_setting	triclinic
loop_
_symmetry_equiv_pos_as_xyz
  x,y,z
_cell_length_a	18.215407
_cell_length_b	16.625545
_cell_length_c	18.215399
_cell_angle_alpha	90.026887
_cell_angle_beta	90.017368
_cell_angle_gamma	90.023001
loop_
_atom_site_label
_atom_site_type_symbol
_atom_site_fract_x
_atom_site_fract_y
_atom_site_fract_z
Zn1	Zn	1.125068	-0.321065	0.416073
Zn2	Zn	1.625068	0.178935	0.916073
Zn3	Zn	1.124975	-0.455905	0.293009
Zn4	Zn	1.624975	0.044095	0.793009
Zn5	Zn	1.002001	-0.321084	0.293026
Zn6	Zn	1.502001	0.178916	0.793026
Zn7	Zn	1.001965	-0.455853	0.416039
Zn8	Zn	1.501965	0.044147	0.916039
O9	O	1.063503	-0.388477	0.354537
O10	O	1.563503	0.111523	0.854537
O11	O	1.228040	-0.338965	0.399755
O12	O	1.728040	0.161035	0.899755
O13	O	1.108639	-0.438051	0.190027
O14	O	1.608639	0.061949	0.690027
O15	O	1.018380	-0.208249	0.309369
O16	O	1.518380	0.291751	0.809369
O17	O	1.227972	-0.438032	0.309341
O18	O	1.727972	0.061968	0.809341
O19	O	1.108797	-0.208235	0.399772
O20	O	1.608797	0.291765	0.899772
O21	O	1.018290	-0.338998	0.190039
O22	O	1.518290	0.161002	0.690039
O23	O	0.899012	-0.338948	0.309336
O24	O	1.399012	0.161052	0.809336
O25	O	1.018319	-0.437943	0.519028
O26	O	1.518319	0.062057	1.019028
O27	O	0.898986	-0.437962	0.399714
O28	O	1.398986	0.062038	0.899714
O29	O	1.108763	-0.338915	0.519053
O30	O	1.608763	0.161085	1.019053
O31	O	1.108604	-0.568731	0.309308
O32	O	1.608604	-0.068731	0.809308
O33	O	1.018229	-0.568693	0.399698
O34	O	1.518229	-0.068693	0.899698
C35	C	0.872296	-0.388452	0.354524
C36	C	1.372296	0.111548	0.854524
C37	C	0.790497	-0.388461	0.354536
C38	C	1.290497	0.111539	0.854536
C39	C	0.602338	-0.336983	0.401689
C40	C	1.102338	0.163017	0.901689
C41	C	0.525479	-0.336990	0.401691
C42	C	1.025479	0.163010	0.901691
C43	C	0.525419	-0.439993	0.307397
C44	C	1.025419	0.060007	0.807397
C45	C	0.602276	-0.439982	0.307392
C46	C	1.102276	0.060018	0.807392
C47	C	0.640734	-0.388478	0.354542
C48	C	1.140734	0.111522	0.854542
C49	C	0.487018	-0.388496	0.354550
C50	C	0.987018	0.111504	0.854550
C51	C	0.403684	-0.388504	0.354552
C52	C	0.903684	0.111496	0.854552
C53	C	0.724073	-0.388469	0.354539
C54	C	1.224073	0.111531	0.854539
C55	C	1.063423	-0.597968	0.354513
C56	C	1.563423	-0.097968	0.854513
C57	C	1.063456	-0.687589	0.354528
C58	C	1.563456	-0.187589	0.854528
C59	C	1.063484	-0.760371	0.354543
C60	C	1.563484	-0.260371	0.854543
C61	C	1.063527	-0.851680	0.354559
C62	C	1.563527	-0.351680	0.854559
C63	C	1.063565	-0.924456	0.354568
C64	C	1.563565	-0.424456	0.854568
C65	C	1.063607	-1.015770	0.354583
C66	C	1.563607	-0.515770	0.854583
C67	C	1.255455	-0.388502	0.354550
C68	C	1.755455	0.111498	0.854550
C69	C	1.337254	-0.388513	0.354556
C70	C	1.837254	0.111487	0.854556
C71	C	1.063547	-0.388421	0.546490
C72	C	1.563547	0.111579	1.046490
C73	C	1.063567	-0.388398	0.628289
C74	C	1.563567	0.111602	1.128289
C75	C	1.063603	-0.178168	0.354576
C76	C	1.563603	0.321832	0.854576
C77	C	1.063646	-0.088547	0.354593
C78	C	1.563646	0.411453	0.854593
C79	C	1.063500	-0.388474	0.163330
C80	C	1.563500	0.111526	0.663330
C81	C	1.063624	-0.388271	0.081532
C82	C	1.563624	0.111729	0.581532
C83	C	1.110677	-0.336785	0.816497
C84	C	1.610677	0.163215	1.316497
C85	C	1.110686	-0.336762	0.893355
C86	C	1.610686	0.163238	1.393355
C87	C	1.016508	-0.439885	0.893318
C88	C	1.516508	0.060115	1.393318
C89	C	1.016496	-0.439904	0.816461
C90	C	1.516496	0.060096	1.316461
C91	C	1.063585	-0.388355	0.778052
C92	C	1.563585	0.111645	1.278052
C93	C	1.063606	-0.388313	0.931768
C94	C	1.563606	0.111687	1.431768
C95	C	1.063615	-0.388288	1.015102
C96	C	1.563615	0.111712	1.515102
C97	C	1.063575	-0.388379	0.694713
C98	C	1.563575	0.111621	1.194713
H99	H	0.633648	-0.295043	0.440079
H100	H	1.133648	0.204957	0.940079
C101	C	0.964688	-0.496629	0.774163
C102	C	1.464688	0.003371	1.274163
C103	C	0.996536	-0.559942	0.721307
C104	C	1.496536	-0.059942	1.221307
C105	C	0.944727	-0.616658	0.679006
C106	C	1.444727	-0.116658	1.179006
C107	C	0.861070	-0.610061	0.689562
C108	C	1.361070	-0.110061	1.189562
C109	C	0.829218	-0.546745	0.742420
C110	C	1.329218	-0.046745	1.242420
C111	C	0.881027	-0.490029	0.784720
C112	C	1.381027	0.009971	1.284720
H113	H	1.058467	-0.564828	0.713491
H114	H	1.558467	-0.064828	1.213491
H115	H	0.968306	-0.663529	0.639877
H116	H	1.468306	-0.163529	1.139877
H117	H	0.822718	-0.652046	0.658249
H118	H	1.322718	-0.152046	1.158249
H119	H	0.767286	-0.541859	0.750236
H120	H	1.267286	-0.041859	1.250236
H121	H	0.857447	-0.443158	0.823850
H122	H	1.357447	0.056842	1.323850
H123	H	1.149018	-0.294809	0.785226
H124	H	1.649018	0.205191	1.285226
H125	H	0.978171	-0.481856	0.924600
H126	H	1.478171	0.018144	1.424600
H127	H	0.494221	-0.295057	0.440082
H128	H	0.994221	0.204943	0.940082
H129	H	0.633539	-0.481916	0.268995
H130	H	1.133539	0.018084	0.768995
C131	C	0.483114	-0.496653	0.255541
C132	C	0.983114	0.003347	0.755541
C133	C	0.398574	-0.496673	0.255548
C134	C	0.898574	0.003327	0.755548
C135	C	0.356271	-0.553337	0.203693
C136	C	0.856271	-0.053337	0.703693
C137	C	0.398507	-0.609980	0.151831
C138	C	0.898507	-0.109980	0.651831
C139	C	0.483052	-0.609962	0.151822
C140	C	0.983052	-0.109962	0.651822
C141	C	0.525356	-0.553298	0.203677
C142	C	1.025356	-0.053298	0.703677
H143	H	0.367303	-0.454741	0.293942
H144	H	0.867303	0.045259	0.793942
H145	H	0.293685	-0.553350	0.203700
H146	H	0.793685	-0.053350	0.703700
H147	H	0.367192	-0.651926	0.113445
H148	H	0.867192	-0.151926	0.613445
H149	H	0.514323	-0.651894	0.113429
H150	H	1.014323	-0.151894	0.613429
H151	H	0.587941	-0.553285	0.203670
H152	H	1.087941	-0.053285	0.703670
C153	C	1.162490	-0.280035	0.935645
C154	C	1.662490	0.219965	1.435645
C155	C	1.214282	-0.223334	0.893393
C156	C	1.714282	0.276666	1.393393
C157	C	1.266086	-0.166603	0.935682
C158	C	1.766086	0.333397	1.435682
C159	C	1.266099	-0.166573	1.020222
C160	C	1.766099	0.333427	1.520222
C161	C	1.214306	-0.223275	1.062478
C162	C	1.714306	0.276725	1.562478
C163	C	1.162501	-0.280006	1.020189
C164	C	1.662501	0.219994	1.520189
H165	H	1.214274	-0.223355	0.830807
H166	H	1.714274	0.276645	1.330807
H167	H	1.304428	-0.124628	0.904401
H168	H	1.804428	0.375372	1.404401
H169	H	1.304448	-0.124577	1.051527
H170	H	1.804448	0.375423	1.551527
H171	H	1.214314	-0.223255	1.125064
H172	H	1.714314	0.276745	1.625064
H173	H	1.124160	-0.321981	1.051471
H174	H	1.624160	0.178019	1.551471
