data_functionalizedCrystal
_audit_creation_method	'MofGen! by Chris Wilmer'
_symmetry_space_group_name_H-M	'P1'
_symmetry_Int_Tables_number	1
_symmetry_cell_setting	triclinic
loop_
_symmetry_equiv_pos_as_xyz
  x,y,z
_cell_length_a	12.594517
_cell_length_b	29.839131
_cell_length_c	12.594510
_cell_angle_alpha	89.958912
_cell_angle_beta	89.978880
_cell_angle_gamma	90.041220
loop_
_atom_site_label
_atom_site_type_symbol
_atom_site_fract_x
_atom_site_fract_y
_atom_site_fract_z
Zn1	Zn	1.627077	-0.178815	-0.601810
Zn2	Zn	1.626890	-0.253958	-0.423811
Zn3	Zn	1.449082	-0.178842	-0.423839
Zn4	Zn	1.448984	-0.253919	-0.601741
O5	O	1.538008	-0.216383	-0.512800
O6	O	1.775998	-0.188788	-0.578215
O7	O	1.603266	-0.244021	-0.274869
O8	O	1.472812	-0.115972	-0.447488
O9	O	1.775860	-0.243995	-0.447440
O10	O	1.603585	-0.115952	-0.578243
O11	O	1.472631	-0.188834	-0.274889
O12	O	1.300123	-0.188796	-0.447421
O13	O	1.472647	-0.243928	-0.750696
O14	O	1.300052	-0.243954	-0.578124
O15	O	1.603491	-0.188750	-0.750747
O16	O	1.603171	-0.316820	-0.447373
O17	O	1.472465	-0.316791	-0.578097
C18	C	1.261467	-0.216374	-0.512769
C19	C	1.143162	-0.216381	-0.512781
C20	C	1.073917	-0.186340	-0.441827
C21	C	1.003063	-0.227320	-0.415635
C22	C	1.003217	-0.175421	-0.538990
C23	C	1.073866	-0.257383	-0.486538
C24	C	1.074026	-0.205456	-0.609939
C25	C	1.003204	-0.246465	-0.583784
C26	C	1.537816	-0.333106	-0.512747
C27	C	1.537831	-0.383040	-0.512760
C28	C	1.606191	-0.692686	-0.444831
C29	C	1.606322	-0.880359	-0.444873
O30	O	1.664292	-0.904626	-0.387076
N31	N	1.538229	-0.903825	-0.512880
C32	C	1.470103	-0.880371	-0.580888
O33	O	1.412196	-0.904636	-0.638741
C34	C	1.469978	-0.692698	-0.580851
C35	C	1.538068	-0.669235	-0.512831
C36	C	1.674276	-0.669222	-0.376818
C37	C	1.674239	-0.622307	-0.376804
C38	C	1.606116	-0.598855	-0.444804
C39	C	1.538030	-0.622319	-0.512817
C40	C	1.401858	-0.669244	-0.648863
C41	C	1.401835	-0.622323	-0.648849
C42	C	1.469925	-0.598860	-0.580830
C43	C	1.469870	-0.551952	-0.580803
N44	N	1.537963	-0.528486	-0.512796
C45	C	1.606086	-0.551937	-0.444796
C46	C	1.470172	-0.978901	-0.580901
C47	C	1.470202	-1.025819	-0.580909
C48	C	1.606423	-1.025804	-0.444895
C49	C	1.606387	-0.978886	-0.444882
C50	C	1.538265	-0.955435	-0.512893
C51	C	1.606001	-0.453412	-0.444772
C52	C	1.605954	-0.406492	-0.444761
C53	C	1.469738	-0.406511	-0.580778
C54	C	1.469780	-0.453426	-0.580785
C55	C	1.537920	-0.476876	-0.512779
O56	O	1.411939	-0.527656	-0.638578
O57	O	1.664001	-0.527664	-0.386968
C58	C	1.606228	-0.739602	-0.444845
C59	C	1.538143	-0.763065	-0.512859
C60	C	1.470020	-0.739614	-0.580858
C61	C	1.538173	-0.809983	-0.512867
C62	C	1.606296	-0.833435	-0.444867
C63	C	1.674389	-0.809969	-0.376859
C64	C	1.674351	-0.763053	-0.376846
C65	C	1.401927	-0.763080	-0.648866
C66	C	1.401969	-0.809996	-0.648873
C67	C	1.470092	-0.833447	-0.580874
C68	C	1.815629	-0.216393	-0.512832
C69	C	1.933935	-0.216397	-0.512846
C70	C	1.538079	-0.216332	-0.790421
C71	C	1.538109	-0.216309	-0.908727
C72	C	1.538230	-0.099205	-0.512876
C73	C	1.538325	-0.049271	-0.512909
C74	C	1.609296	-0.186296	-0.978008
C75	C	1.512231	-0.175299	-1.048802
C76	C	1.635230	-0.227275	-1.048732
C77	C	1.440992	-0.205292	-0.977963
C78	C	1.564057	-0.257286	-0.977887
C79	C	1.466925	-0.246305	-1.048649
C80	C	1.538000	-0.216403	-0.236259
C81	C	1.538176	-0.216298	-0.117954
H82	H	1.661401	-0.387389	-0.389367
H83	H	1.490307	-0.140642	-1.079951
H84	H	1.729854	-0.829071	-0.321488
H85	H	0.972126	-0.140779	-0.561094
H86	H	1.346407	-0.688341	-0.704247
O87	O	1.114788	-0.303289	-0.457067
H88	H	1.202914	-0.302917	-0.457226
H89	H	1.105220	-0.196194	-0.692051
O90	O	1.115067	-0.152723	-0.362257
H91	H	1.086646	-0.161908	-0.281693
O92	O	1.747765	-0.694514	-0.303479
H93	H	1.700178	-0.715931	-0.249286
H94	H	1.414697	-0.959811	-0.636284
H95	H	0.971895	-0.236570	-0.333498
O96	O	1.679901	-1.051106	-0.371555
H97	H	1.727249	-1.026911	-0.324255
O98	O	1.387145	-0.279926	-1.089477
H99	H	1.388220	-0.279894	-1.177600
H100	H	1.346363	-0.603232	-0.704235
H101	H	1.586010	-0.291934	-0.946716
O102	O	1.743986	-0.239565	-1.089917
H103	H	1.738252	-0.270532	-1.138356
O104	O	1.328425	-0.737788	-0.722189
H105	H	1.281076	-0.761992	-0.769463
O106	O	0.962308	-0.280161	-0.663296
H107	H	0.990750	-0.314120	-0.641313
H108	H	1.661490	-0.472498	-0.389396
O109	O	1.747694	-0.597001	-0.303456
H110	H	1.795074	-0.621197	-0.256191
H111	H	1.669391	-0.160900	-0.946986
H112	H	1.661832	-0.959784	-0.389495
H113	H	1.414746	-1.044919	-0.636287
O114	O	1.332206	-0.192936	-0.936971
H115	H	1.273151	-0.217700	-0.965921
O116	O	1.396341	-0.478738	-0.654144
H117	H	1.348968	-0.454547	-0.701428
H118	H	1.414270	-0.387409	-0.636139
H119	H	1.346513	-0.829096	-0.704262
O120	O	1.747802	-0.737748	-0.303492
H121	H	1.795180	-0.761944	-0.256225
