data_functionalizedCrystal
_audit_creation_method	'MofGen! by Chris Wilmer'
_symmetry_space_group_name_H-M	'P1'
_symmetry_Int_Tables_number	1
_symmetry_cell_setting	triclinic
loop_
_symmetry_equiv_pos_as_xyz
  x,y,z
_cell_length_a	14.519731
_cell_length_b	13.596369
_cell_length_c	14.971486
_cell_angle_alpha	90.000599
_cell_angle_beta	83.651491
_cell_angle_gamma	90.006024
loop_
_atom_site_label
_atom_site_type_symbol
_atom_site_fract_x
_atom_site_fract_y
_atom_site_fract_z
O1	O	1.223788	0.081794	0.117336
O2	O	1.557121	0.415127	0.450669
O3	O	1.890455	0.748461	0.784002
O4	O	0.955305	0.081796	0.131123
O5	O	1.288639	0.415129	0.464457
O6	O	1.621972	0.748462	0.797790
O7	O	1.096743	0.081788	-0.005966
O8	O	1.430076	0.415121	0.327367
O9	O	1.763409	0.748454	0.660701
O10	O	1.082351	0.081802	0.254425
O11	O	1.415684	0.415135	0.587758
O12	O	1.749017	0.748468	0.921092
O13	O	1.096725	-0.081795	-0.005958
O14	O	1.430059	0.251538	0.327375
O15	O	1.763392	0.584871	0.660708
O16	O	0.955288	-0.081787	0.131131
O17	O	1.288621	0.251546	0.464464
O18	O	1.621955	0.584879	0.797798
O19	O	1.223770	-0.081789	0.117343
O20	O	1.557104	0.251544	0.450676
O21	O	1.890437	0.584878	0.784010
Zn22	Zn	1.089526	-0.107760	0.124238
Zn23	Zn	1.422860	0.225573	0.457572
Zn24	Zn	1.756193	0.558906	0.790905
Zn25	Zn	1.089549	0.107767	0.124228
Zn26	Zn	1.422883	0.441100	0.457562
Zn27	Zn	1.756216	0.774434	0.790895
O28	O	1.082333	-0.081781	0.254433
O29	O	1.415667	0.251552	0.587766
O30	O	1.749000	0.584886	0.921099
C31	C	0.920938	0.000004	0.130481
C32	C	1.254271	0.333338	0.463815
C33	C	1.587604	0.666671	0.797148
C34	C	0.818559	0.000005	0.128545
C35	C	1.151892	0.333338	0.461879
C36	C	1.485225	0.666671	0.795212
C37	C	0.735415	0.000009	0.126972
C38	C	1.068749	0.333342	0.460306
C39	C	1.402082	0.666675	0.793639
C40	C	0.631108	0.000009	0.125007
C41	C	0.964441	0.333342	0.458340
C42	C	1.297774	0.666675	0.791673
C43	C	0.547970	0.000009	0.123447
C44	C	0.881303	0.333342	0.456780
C45	C	1.214636	0.666675	0.790113
C46	C	0.443655	0.000011	0.121481
C47	C	0.776989	0.333344	0.454815
C48	C	1.110322	0.666677	0.788148
N49	N	1.089518	-0.254852	0.124245
N50	N	1.422851	0.078481	0.457578
N51	N	1.756184	0.411814	0.790911
C52	C	1.089522	-0.343850	0.124247
C53	C	1.422855	-0.010517	0.457580
C54	C	1.756189	0.322817	0.790913
C55	C	1.089531	-0.455501	0.124240
C56	C	1.422864	-0.122168	0.457574
C57	C	1.756198	0.211165	0.790907
C58	C	1.089543	-0.544492	0.124230
C59	C	1.422877	-0.211159	0.457564
C60	C	1.756210	0.122175	0.790897
C61	C	1.089554	-0.656151	0.124225
C62	C	1.422887	-0.322817	0.457558
C63	C	1.756220	0.010516	0.790892
C64	C	1.258138	0.000005	0.117985
C65	C	1.591472	0.333338	0.451319
C66	C	1.924805	0.666671	0.784652
C67	C	1.360517	0.000011	0.119921
C68	C	1.693851	0.333344	0.453255
C69	C	2.027184	0.666677	0.786588
C70	C	1.096090	-0.000003	-0.039287
C71	C	1.429424	0.333330	0.294046
C72	C	1.762757	0.666663	0.627379
C73	C	1.094162	-0.000003	-0.138586
C74	C	1.427495	0.333331	0.194748
C75	C	1.760828	0.666664	0.528081
N76	N	1.089566	0.254859	0.124215
N77	N	1.422899	0.588192	0.457548
N78	N	1.756232	0.921526	0.790882
C79	C	1.177252	-0.000004	-0.195758
C80	C	1.510585	0.333330	0.137575
C81	C	1.843919	0.666663	0.470909
C82	C	1.175434	0.000006	-0.289059
C83	C	1.508768	0.333340	0.044275
C84	C	1.842101	0.666673	0.377608
C85	C	1.090525	0.000010	-0.325185
C86	C	1.423858	0.333344	0.008148
C87	C	1.757192	0.666677	0.341482
C88	C	1.007428	0.000014	-0.268005
C89	C	1.340761	0.333348	0.065328
C90	C	1.674095	0.666681	0.398661
C91	C	1.009247	0.000012	-0.174706
C92	C	1.342580	0.333345	0.158627
C93	C	1.675913	0.666678	0.491960
C94	C	1.003643	0.000018	-0.462470
C95	C	1.336976	0.333351	-0.129137
C96	C	1.670310	0.666685	0.204197
C97	C	1.001824	0.000019	-0.555775
C98	C	1.335157	0.333352	-0.222442
C99	C	1.668490	0.666686	0.110891
C100	C	1.169830	0.000013	-0.576822
C101	C	1.503164	0.333346	-0.243489
C102	C	1.836497	0.666679	0.089844
C103	C	1.171649	0.000010	-0.483524
C104	C	1.504983	0.333343	-0.150190
C105	C	1.838316	0.666676	0.183143
C106	C	1.088552	0.000012	-0.426350
C107	C	1.421885	0.333345	-0.093017
C108	C	1.755219	0.666679	0.240316
C109	C	1.082985	0.000012	0.287754
C110	C	1.416319	0.333346	0.621087
C111	C	1.749652	0.666679	0.954421
C112	C	1.084914	0.000018	0.387052
C113	C	1.418248	0.333351	0.720386
C114	C	1.751581	0.666684	1.053719
H115	H	1.246395	-0.000013	-0.166352
H116	H	1.579728	0.333320	0.166981
H117	H	1.913062	0.666654	0.500315
H118	H	0.935976	0.000022	-0.415921
H119	H	1.269309	0.333356	-0.082588
H120	H	1.602643	0.666689	0.250745
Cl121	Cl	1.279896	0.000002	-0.360929
Cl122	Cl	1.613229	0.333335	-0.027596
Cl123	Cl	1.946563	0.666668	0.305737
H124	H	0.941586	0.000013	-0.128157
H125	H	1.274919	0.333346	0.205177
H126	H	1.608252	0.666679	0.538510
H127	H	0.932683	0.000007	-0.585186
H128	H	1.266017	0.333340	-0.251853
H129	H	1.599350	0.666673	0.081481
H130	H	1.240790	-0.000001	-0.454113
H131	H	1.574123	0.333333	-0.120780
H132	H	1.907456	0.666666	0.212554
Cl133	Cl	1.274296	0.000015	-0.648697
Cl134	Cl	1.607629	0.333348	-0.315363
Cl135	Cl	1.940962	0.666682	0.017970
Cl136	Cl	0.900684	0.000032	-0.313421
Cl137	Cl	1.234017	0.333365	0.019912
Cl138	Cl	1.567351	0.666698	0.353245
