data_functionalizedCrystal
_audit_creation_method	'MofGen! by Chris Wilmer'
_symmetry_space_group_name_H-M	'P1'
_symmetry_Int_Tables_number	1
_symmetry_cell_setting	triclinic
loop_
_symmetry_equiv_pos_as_xyz
  x,y,z
_cell_length_a	18.215407
_cell_length_b	18.215405
_cell_length_c	17.077396
_cell_angle_alpha	89.968409
_cell_angle_beta	89.982278
_cell_angle_gamma	90.019398
loop_
_atom_site_label
_atom_site_type_symbol
_atom_site_fract_x
_atom_site_fract_y
_atom_site_fract_z
Zn1	Zn	1.125071	-0.293092	-0.443788
Zn2	Zn	1.124980	-0.416166	-0.312515
Zn3	Zn	1.002004	-0.293106	-0.312540
Zn4	Zn	1.001970	-0.416110	-0.443743
O5	O	1.063506	-0.354618	-0.378147
O6	O	1.228043	-0.309436	-0.426383
O7	O	1.108643	-0.399870	-0.202672
O8	O	1.018382	-0.190120	-0.329980
O9	O	1.227976	-0.399857	-0.329937
O10	O	1.108799	-0.190110	-0.426408
O11	O	1.018293	-0.309459	-0.202690
O12	O	0.899015	-0.309405	-0.329936
O13	O	1.018323	-0.399762	-0.553596
O14	O	0.898990	-0.399775	-0.426330
O15	O	1.108765	-0.309382	-0.553629
O16	O	1.108610	-0.519142	-0.329893
O17	O	1.018235	-0.519101	-0.426306
C18	C	0.872300	-0.354586	-0.378131
C19	C	0.790501	-0.354590	-0.378144
C20	C	0.525473	-0.307626	-0.428446
C21	C	0.602332	-0.307614	-0.428444
C22	C	0.602281	-0.401634	-0.327865
C23	C	0.525423	-0.401649	-0.327872
C24	C	0.487021	-0.354641	-0.378161
C25	C	0.640738	-0.354614	-0.378152
C26	C	0.724071	-0.354601	-0.378149
C27	C	0.403682	-0.354654	-0.378166
C28	C	1.063428	-0.545825	-0.378109
C29	C	1.063463	-0.627623	-0.378119
C30	C	1.110631	-0.815814	-0.328010
C31	C	1.110664	-0.892673	-0.328029
C32	C	1.016475	-0.892670	-0.428340
C33	C	1.016447	-0.815813	-0.428325
C34	C	1.063524	-0.777387	-0.378155
C35	C	1.063585	-0.931103	-0.378190
C36	C	1.063620	-1.014437	-0.378211
C37	C	1.063489	-0.694048	-0.378135
C38	C	1.255459	-0.354651	-0.378163
C39	C	1.337258	-0.354665	-0.378169
C40	C	1.063551	-0.354564	-0.582891
C41	C	1.063570	-0.354541	-0.670141
C42	C	1.063604	-0.162665	-0.378202
C43	C	1.063646	-0.080866	-0.378225
C44	C	1.110665	-0.307476	-0.711150
C45	C	1.110674	-0.307451	-0.793130
C46	C	1.063591	-0.354496	-0.834101
C47	C	1.016490	-0.401563	-0.793086
C48	C	1.016478	-0.401583	-0.711107
C49	C	1.016520	-0.401519	-0.963956
C50	C	1.016533	-0.401500	-1.045941
C51	C	1.110715	-0.307387	-1.045979
C52	C	1.110703	-0.307407	-0.964000
C53	C	1.063604	-0.354475	-0.922992
C54	C	1.063504	-0.354619	-0.174199
C55	C	1.063628	-0.354435	-0.086950
H56	H	0.494116	-0.439938	-0.286923
H57	H	0.633635	-0.269331	-0.469391
C58	C	1.162421	-0.773545	-0.272831
C59	C	1.220158	-0.720643	-0.306894
C60	C	1.271952	-0.678377	-0.251716
C61	C	1.266009	-0.689013	-0.162476
C62	C	1.208269	-0.741918	-0.128408
C63	C	1.156475	-0.784184	-0.183586
H64	H	1.224560	-0.712767	-0.372959
H65	H	1.314695	-0.639213	-0.276936
H66	H	1.304350	-0.657725	-0.121630
H67	H	1.203867	-0.749794	-0.062343
H68	H	1.113733	-0.823348	-0.158366
C69	C	0.644526	-0.453333	-0.272541
C70	C	0.633924	-0.447227	-0.183317
C71	C	0.676168	-0.498925	-0.127991
C72	C	0.729015	-0.556729	-0.161888
C73	C	0.739620	-0.562837	-0.251116
C74	C	0.697375	-0.511139	-0.306443
H75	H	0.594802	-0.404436	-0.158221
H76	H	0.668317	-0.494403	-0.061938
H77	H	0.760287	-0.594999	-0.120932
H78	H	0.778742	-0.605629	-0.276213
H79	H	0.705226	-0.515661	-0.372496
H80	H	1.149025	-0.923957	-0.287196
H81	H	1.149064	-0.269061	-1.079373
C82	C	0.964690	-0.934942	-0.483520
C83	C	0.906950	-0.987844	-0.449459
C84	C	0.855163	-1.030115	-0.504639
C85	C	0.861114	-1.019485	-0.593880
C86	C	0.918856	-0.966582	-0.627946
C87	C	0.970644	-0.924310	-0.572766
H88	H	0.902542	-0.995715	-0.383394
H89	H	0.812418	-1.069278	-0.479421
H90	H	0.822778	-1.050777	-0.634728
H91	H	0.923264	-0.958711	-0.694011
H92	H	1.013388	-0.885148	-0.597984
C93	C	0.964625	-0.773537	-0.483490
C94	C	0.912837	-0.815800	-0.538669
C95	C	0.861022	-0.773524	-0.593834
C96	C	0.860995	-0.688984	-0.593820
C97	C	0.912786	-0.646715	-0.538638
C98	C	0.964601	-0.688992	-0.483473
H99	H	0.912855	-0.878386	-0.538681
H100	H	0.822684	-0.804814	-0.634683
H101	H	0.822639	-0.657688	-0.634656
H102	H	0.912768	-0.584129	-0.538626
H103	H	1.002939	-0.657702	-0.442624
H104	H	1.149007	-0.269169	-0.677798
C105	C	1.162480	-0.255677	-0.838236
C106	C	1.246137	-0.261704	-0.826977
C107	C	1.297945	-0.209925	-0.872081
C108	C	1.266096	-0.152119	-0.928444
C109	C	1.182435	-0.146090	-0.939706
C110	C	1.130627	-0.197869	-0.894602
H111	H	1.269717	-0.304497	-0.785252
H112	H	1.359877	-0.214388	-0.863744
H113	H	1.304447	-0.113789	-0.961832
H114	H	1.158854	-0.103297	-0.981431
H115	H	1.068695	-0.193406	-0.902939
C116	C	0.964768	-0.453274	-1.091010
C117	C	0.912975	-0.505063	-1.045906
C118	C	0.861224	-0.556852	-1.090976
C119	C	0.861265	-0.556852	-1.181150
C120	C	0.913059	-0.505062	-1.226259
C121	C	0.964810	-0.453273	-1.181189
H122	H	0.912943	-0.505064	-0.979150
H123	H	0.822883	-0.595190	-1.057583
H124	H	0.822955	-0.595189	-1.214513
H125	H	0.913091	-0.505060	-1.293015
H126	H	1.003152	-0.414934	-1.214582
C127	C	0.483229	-0.255924	-0.483768
C128	C	0.430407	-0.287893	-0.545339
C129	C	0.388165	-0.236191	-0.600663
C130	C	0.398745	-0.152520	-0.594416
C131	C	0.451569	-0.120547	-0.532842
C132	C	0.493811	-0.172249	-0.477518
H133	H	0.422573	-0.349835	-0.549965
H134	H	0.349061	-0.259860	-0.646244
H135	H	0.367475	-0.114247	-0.635370
H136	H	0.459403	-0.058605	-0.528216
H137	H	0.532915	-0.148580	-0.431937
C138	C	0.964717	-0.453296	-0.918838
C139	C	0.881058	-0.447284	-0.930088
C140	C	0.829263	-0.499062	-0.884967
C141	C	0.861127	-0.556852	-0.828595
C142	C	0.944790	-0.562867	-0.817343
C143	C	0.996585	-0.511088	-0.862464
H144	H	0.857467	-0.404502	-0.971820
H145	H	0.767330	-0.494610	-0.893297
H146	H	0.822785	-0.595182	-0.795194
H147	H	0.968381	-0.605649	-0.775611
H148	H	1.058519	-0.515541	-0.854134
H149	H	1.149046	-0.269103	-0.930645
C150	C	0.964680	-0.453360	-0.665991
C151	C	0.906910	-0.421477	-0.609631
C152	C	0.855110	-0.473254	-0.564514
C153	C	0.861079	-0.556914	-0.575757
C154	C	0.918851	-0.588802	-0.632120
C155	C	0.970652	-0.537025	-0.677236
H156	H	0.902489	-0.359543	-0.601306
H157	H	0.812343	-0.449648	-0.522791
H158	H	0.822733	-0.595242	-0.542359
H159	H	0.923272	-0.650736	-0.640445
H160	H	1.013418	-0.560630	-0.718960
H161	H	0.978152	-0.439865	-0.826450
