data_functionalizedCrystal
_audit_creation_method	'MofGen! by Chris Wilmer'
_symmetry_space_group_name_H-M	'P1'
_symmetry_Int_Tables_number	1
_symmetry_cell_setting	triclinic
loop_
_symmetry_equiv_pos_as_xyz
  x,y,z
_cell_length_a	11.792241
_cell_length_b	11.792241
_cell_length_c	10.868271
_cell_angle_alpha	90.000107
_cell_angle_beta	89.994719
_cell_angle_gamma	95.806584
loop_
_atom_site_label
_atom_site_type_symbol
_atom_site_fract_x
_atom_site_fract_y
_atom_site_fract_z
O1	O	0.155568	-1.506908	-0.102203
O2	O	0.655568	-1.006908	0.397797
O3	O	0.171601	-1.176567	-0.102232
O4	O	0.671601	-0.676567	0.397768
O5	O	-0.001586	-1.349754	-0.102208
O6	O	0.498414	-0.849754	0.397792
O7	O	0.328755	-1.333721	-0.102227
O8	O	0.828755	-0.833721	0.397773
O9	O	-0.001592	-1.349740	0.102436
O10	O	0.498408	-0.849740	0.602436
O11	O	0.171595	-1.176553	0.102413
O12	O	0.671595	-0.676553	0.602413
O13	O	0.155562	-1.506894	0.102441
O14	O	0.655562	-1.006894	0.602441
Zn15	Zn	0.163577	-1.341721	0.134919
Zn16	Zn	0.663577	-0.841721	0.634919
Zn17	Zn	0.163586	-1.341740	-0.134709
Zn18	Zn	0.663586	-0.841740	0.365291
O19	O	0.328749	-1.333707	0.102418
O20	O	0.828749	-0.833707	0.602418
C21	C	0.170591	-1.134269	0.000087
C22	C	0.670591	-0.634269	0.500087
C23	C	0.167576	-1.008255	0.000076
C24	C	0.667576	-0.508255	0.500076
C25	C	-0.043880	-1.348740	0.000114
C26	C	0.456120	-0.848740	0.500114
C27	C	-0.169894	-1.345726	0.000112
C28	C	0.330106	-0.845726	0.500112
C29	C	0.156572	-1.549192	0.000120
C30	C	0.656572	-1.049192	0.500120
C31	C	0.159587	-1.675206	0.000123
C32	C	0.659587	-1.175206	0.500123
C33	C	-0.400606	-1.340183	0.000091
C34	C	0.099394	-0.840183	0.500091
C35	C	-0.272221	-1.343262	0.000102
C36	C	0.227779	-0.843262	0.500102
C37	C	0.371043	-1.334721	0.000093
C38	C	0.871043	-0.834721	0.500093
C39	C	0.497057	-1.337736	0.000087
C40	C	0.997057	-0.837736	0.500087
N41	N	0.163570	-1.341717	0.318933
N42	N	0.663570	-0.841717	0.818933
C43	C	0.162034	-0.777543	0.000112
C44	C	0.662034	-0.277543	0.500112
C45	C	0.165113	-0.905928	0.000092
C46	C	0.665113	-0.405928	0.500092
N47	N	0.163584	-1.341754	-0.318723
N48	N	0.663584	-0.841754	0.181277
C49	C	0.163584	-1.341734	0.569939
C50	C	0.663584	-0.841734	1.069939
C51	C	0.163580	-1.341721	0.430261
C52	C	0.663580	-0.841721	0.930261
