data_functionalizedCrystal
_audit_creation_method	'MofGen! by Chris Wilmer'
_symmetry_space_group_name_H-M	'P1'
_symmetry_Int_Tables_number	1
_symmetry_cell_setting	triclinic
loop_
_symmetry_equiv_pos_as_xyz
  x,y,z
_cell_length_a	12.759399
_cell_length_b	10.686154
_cell_length_c	12.759393
_cell_angle_alpha	94.347816
_cell_angle_beta	90.030045
_cell_angle_gamma	85.605437
loop_
_atom_site_label
_atom_site_type_symbol
_atom_site_fract_x
_atom_site_fract_y
_atom_site_fract_z
Zn1	Zn	-0.294913	-1.929113	0.471054
Zn2	Zn	-0.470640	-1.928982	0.295387
Zn3	Zn	-0.308454	-1.718098	0.308841
Zn4	Zn	-0.484038	-1.718081	0.484469
O5	O	-0.389511	-1.823568	0.389938
O6	O	-0.306950	-2.105669	0.436507
O7	O	-0.449186	-1.900960	0.150154
O8	O	-0.159633	-1.746152	0.330375
O9	O	-0.436056	-2.105572	0.307445
O10	O	-0.149684	-1.901183	0.449553
O11	O	-0.330028	-1.746025	0.160038
O12	O	-0.343019	-1.541523	0.343383
O13	O	-0.458890	-1.746122	0.629708
O14	O	-0.472020	-1.541510	0.472416
O15	O	-0.319941	-1.901166	0.619852
O16	O	-0.619443	-1.900943	0.320453
O17	O	-0.629286	-1.745995	0.459371
C18	C	-0.410443	-1.495733	0.410816
C19	C	-0.419424	-1.355484	0.419773
C20	C	-0.662484	-1.823487	0.389928
C21	C	-0.779255	-1.823568	0.389952
C22	C	-0.839373	-1.742956	0.327856
C23	C	-0.949092	-1.743041	0.327867
C24	C	-0.938565	-1.904355	0.452080
C25	C	-0.828848	-1.904275	0.452062
C26	C	-0.845452	-1.649818	0.256145
C27	C	-0.955171	-1.649904	0.256157
C28	C	-0.115471	-1.823684	0.389968
C29	C	0.001309	-1.823734	0.389981
C30	C	-0.389400	-1.823657	0.663966
C31	C	-0.389352	-1.823694	0.780740
C32	C	-0.368488	-1.152684	0.368972
C33	C	-0.359503	-1.292933	0.360020
C34	C	-0.389542	-1.823553	0.116972
C35	C	-0.389278	-1.823760	0.000182
C36	C	-0.316994	-1.904437	0.830471
C37	C	-0.316954	-1.904467	0.940193
C38	C	-0.461640	-1.743008	0.950444
C39	C	-0.461674	-1.742973	0.840724
C40	C	-0.233464	-1.997658	0.824554
C41	C	-0.233424	-1.997688	0.934276
H42	H	-0.779900	-1.969927	0.502616
H43	H	-0.978956	-1.970064	0.502648
H44	H	-0.477604	-1.301734	0.477779
Cl45	Cl	-0.796949	-1.690273	0.127962
Cl46	Cl	-0.552626	-1.641443	0.778210
H47	H	-0.301333	-1.346677	0.302011
Cl48	Cl	-0.802136	-1.506436	0.310176
Cl49	Cl	-1.004305	-1.704058	0.133417
Cl50	Cl	-1.010885	-1.499041	0.299318
Cl51	Cl	-0.552553	-1.641536	1.025859
Cl52	Cl	-0.269335	-2.140938	0.762866
Cl53	Cl	-0.110428	-1.957295	0.781173
Cl54	Cl	-0.257412	-2.148568	0.970645
Cl55	Cl	-0.117588	-1.943527	0.990301
