data_functionalizedCrystal
_audit_creation_method	'MofGen! by Chris Wilmer'
_symmetry_space_group_name_H-M	'P1'
_symmetry_Int_Tables_number	1
_symmetry_cell_setting	triclinic
loop_
_symmetry_equiv_pos_as_xyz
  x,y,z
_cell_length_a	17.038272
_cell_length_b	17.038272
_cell_length_c	16.098662
_cell_angle_alpha	87.129654
_cell_angle_beta	92.863855
_cell_angle_gamma	88.888444
loop_
_atom_site_label
_atom_site_type_symbol
_atom_site_fract_x
_atom_site_fract_y
_atom_site_fract_z
O1	O	0.173860	-1.052092	0.069152
O2	O	0.171154	-0.824282	0.069176
O3	O	0.058601	-0.936833	0.069157
O4	O	0.286413	-0.939541	0.069170
O5	O	0.051939	-0.930137	-0.069353
O6	O	0.164492	-0.817586	-0.069334
O7	O	0.167199	-1.045396	-0.069359
Zn8	Zn	0.164788	-0.930428	-0.091338
Zn9	Zn	0.173565	-0.939250	0.091155
O10	O	0.279752	-0.932845	-0.069340
C11	C	0.165360	-0.791641	-0.000076
C12	C	0.158013	-0.704358	-0.000067
C13	C	0.025977	-0.931022	-0.000097
C14	C	-0.061306	-0.923674	-0.000096
C15	C	0.172992	-1.078037	-0.000105
C16	C	0.180340	-1.165320	-0.000108
C17	C	-0.106916	-0.991137	-0.000104
C18	C	-0.188927	-0.984229	-0.000096
C19	C	-0.225328	-0.909856	-0.000085
C20	C	-0.179712	-0.842388	-0.000074
C21	C	-0.097702	-0.849297	-0.000077
C22	C	-0.472715	-0.885446	-0.000071
C23	C	-0.554731	-0.878541	-0.000071
C24	C	-0.563941	-1.020383	-0.000091
C25	C	-0.481929	-1.027286	-0.000098
C26	C	-0.436320	-0.959818	-0.000083
C27	C	-0.309157	-0.902792	-0.000079
C28	C	-0.352493	-0.966882	-0.000084
C29	C	0.312375	-0.938656	-0.000083
C30	C	0.399659	-0.946005	-0.000079
N31	N	0.158798	-0.924413	-0.215885
C32	C	0.225476	-0.658749	-0.000064
C33	C	0.218567	-0.576737	-0.000075
C34	C	0.144193	-0.540335	-0.000085
C35	C	0.076724	-0.585950	-0.000090
C36	C	0.083634	-0.667961	-0.000084
C37	C	0.119781	-0.292946	-0.000108
C38	C	0.112877	-0.210929	-0.000112
C39	C	0.254720	-0.201721	-0.000098
C40	C	0.261624	-0.283734	-0.000088
C41	C	0.194154	-0.329342	-0.000098
C42	C	0.137129	-0.456505	-0.000094
C43	C	0.201219	-0.413170	-0.000094
C44	C	0.130833	-0.896580	-0.740694
C45	C	0.135054	-0.900785	-0.653506
C46	C	0.187994	-0.953678	-0.609925
C47	C	0.236712	-1.002374	-0.653535
C48	C	0.232487	-0.998173	-0.740721
C49	C	0.203291	-0.968908	-0.346681
C50	C	0.207514	-0.973104	-0.259489
C51	C	0.105853	-0.871515	-0.259466
C52	C	0.101636	-0.867315	-0.346653
C53	C	0.150351	-0.916015	-0.390256
C54	C	0.192312	-0.957975	-0.520805
C55	C	0.146030	-0.911720	-0.479374
N56	N	0.179549	-0.945271	0.215702
H57	H	-0.226059	-1.039165	-0.000104
H58	H	0.272157	-1.037823	-0.776222
C59	C	0.249820	-1.015473	-0.473636
C60	C	0.291576	-1.057230	-0.530479
C61	C	0.344550	-1.110211	-0.487055
H62	H	0.285514	-0.987412	-0.439635
H63	H	0.221731	-1.051160	-0.439630
H64	H	0.319663	-1.021548	-0.564471
H65	H	0.255902	-1.085307	-0.564482
H66	H	0.316461	-1.145898	-0.453049
H67	H	0.380239	-1.082144	-0.453056
H68	H	0.372883	-1.138554	-0.525616
H69	H	0.322187	-0.313367	-0.000070
C70	C	-0.442556	-1.108107	-0.000072
C71	C	-0.500052	-1.165712	-0.000058
C72	C	-0.463811	-1.240174	-0.000029
H73	H	-0.413088	-1.111521	-0.048364
H74	H	-0.408445	-1.116132	0.048246
H75	H	-0.534150	-1.157690	-0.048371
H76	H	-0.529524	-1.162324	0.048230
H77	H	-0.429700	-1.248199	0.048288
H78	H	-0.434344	-1.243579	-0.048323
H79	H	-0.502816	-1.279268	-0.000013
C80	C	-0.219379	-0.761706	-0.000105
C81	C	-0.300964	-0.770091	-0.000129
C82	C	-0.337529	-0.695782	-0.000172
H83	H	-0.201812	-0.735967	0.048186
H84	H	-0.206416	-0.731353	-0.048423
H85	H	-0.313921	-0.800432	0.048184
H86	H	-0.318552	-0.795817	-0.048417
H87	H	-0.324566	-0.665429	-0.048490
H88	H	-0.319956	-0.670049	0.048120
H89	H	-0.392888	-0.701461	-0.000196
C90	C	0.082308	-0.847854	-0.606071
C91	C	0.128796	-0.800263	-0.556034
C92	C	0.080237	-0.751489	-0.512324
H93	H	0.050173	-0.815678	-0.644429
H94	H	0.049974	-0.879232	-0.571990
H95	H	0.161116	-0.768888	-0.590112
H96	H	0.160929	-0.832418	-0.517662
H97	H	0.047903	-0.782867	-0.478243
H98	H	0.048105	-0.719318	-0.550687
H99	H	0.111772	-0.719198	-0.478363
H100	H	-0.077285	-1.051699	-0.000118
H101	H	0.261774	-0.442811	-0.000091
C102	C	0.073304	-0.839273	-0.788112
C103	C	0.020905	-0.880943	-0.838161
C104	C	-0.032098	-0.828178	-0.881860
H105	H	0.044815	-0.810855	-0.749748
H106	H	0.101386	-0.803637	-0.822184
H107	H	-0.007174	-0.916566	-0.804093
H108	H	0.049371	-0.909359	-0.876541
H109	H	-0.004016	-0.792541	-0.915932
H110	H	-0.060581	-0.799763	-0.843490
H111	H	-0.067652	-0.856443	-0.915829
H112	H	-0.601084	-1.075311	-0.000101
H113	H	-0.435590	-0.830508	-0.000059
C114	C	-0.594104	-0.797721	-0.000006
C115	C	-0.536609	-0.740115	0.000032
C116	C	-0.572850	-0.665660	0.000103
H117	H	-0.628227	-0.789627	-0.048293
H118	H	-0.623559	-0.794384	0.048317
H119	H	-0.507168	-0.743450	-0.048286
H120	H	-0.502484	-0.748184	0.048315
H121	H	-0.602304	-0.662322	0.048426
H122	H	-0.606971	-0.657574	-0.048184
H123	H	-0.533844	-0.626566	0.000137
H124	H	0.028698	-0.705095	-0.000086
H125	H	0.064843	-0.330070	-0.000117
H126	H	0.102923	-0.868658	-0.514862
H127	H	0.250630	-1.016174	-0.224007
C128	C	0.291910	-0.527357	-0.000028
C129	C	0.358523	-0.576790	0.000008
C130	C	0.426104	-0.531330	0.000060
H131	H	0.289955	-0.492838	-0.048321
H132	H	0.294528	-0.497513	0.048289
H133	H	0.355905	-0.606620	-0.048305
H134	H	0.360504	-0.611308	0.048296
H135	H	0.428722	-0.501486	0.048377
H136	H	0.424141	-0.496813	-0.048233
H137	H	0.471309	-0.564863	0.000092
C138	C	0.032051	-0.171551	-0.000163
C139	C	-0.025559	-0.229043	-0.000191
C140	C	-0.100019	-0.192796	-0.000245
H141	H	0.028620	-0.142085	0.048126
H142	H	0.024046	-0.137437	-0.048483
H143	H	-0.017557	-0.263144	0.048124
H144	H	-0.022153	-0.258512	-0.048476
H145	H	-0.108024	-0.158682	-0.048566
H146	H	-0.103442	-0.163332	0.048045
H147	H	-0.139117	-0.231799	-0.000272
H148	H	-0.060567	-0.794361	-0.000070
H149	H	0.309649	-0.164579	-0.000092
H150	H	-0.322851	-1.027437	-0.000074
C151	C	-0.003954	-0.546286	-0.000059
C152	C	0.004433	-0.464704	-0.000039
C153	C	-0.069872	-0.428143	0.000003
H154	H	-0.034350	-0.559200	-0.048349
H155	H	-0.029649	-0.563905	0.048261
H156	H	0.030115	-0.447092	-0.048354
H157	H	0.034814	-0.451767	0.048247
H158	H	-0.095566	-0.445761	0.048323
H159	H	-0.100261	-0.441062	-0.048287
H160	H	-0.064191	-0.372786	0.000025
H161	H	0.286039	-0.688381	-0.000056
C162	C	0.053092	-0.818610	-0.212019
C163	C	0.099560	-0.771012	-0.161968
C164	C	0.050979	-0.722273	-0.118241
H165	H	0.020943	-0.786438	-0.250366
H166	H	0.020773	-0.850012	-0.177945
H167	H	0.131865	-0.739613	-0.196039
H168	H	0.131707	-0.803163	-0.123606
H169	H	0.018660	-0.753676	-0.084168
H170	H	0.018833	-0.690107	-0.156594
H171	H	0.082500	-0.689978	-0.084271
H172	H	-0.338803	-0.842237	-0.000072
H173	H	0.076572	-0.426857	-0.000125
H174	H	0.058525	-0.824245	-0.382132
H175	H	0.242958	-1.008562	-0.382172
H176	H	0.279814	-1.045444	-0.618044
