data_functionalizedCrystal
_audit_creation_method	'MofGen! by Chris Wilmer'
_symmetry_space_group_name_H-M	'P1'
_symmetry_Int_Tables_number	1
_symmetry_cell_setting	triclinic
loop_
_symmetry_equiv_pos_as_xyz
  x,y,z
_cell_length_a	18.101398
_cell_length_b	18.050589
_cell_length_c	18.101389
_cell_angle_alpha	90.014016
_cell_angle_beta	90.024327
_cell_angle_gamma	90.023488
loop_
_atom_site_label
_atom_site_type_symbol
_atom_site_fract_x
_atom_site_fract_y
_atom_site_fract_z
Zn1	Zn	1.132136	-0.295831	0.418861
Zn2	Zn	1.465469	0.037502	0.752195
Zn3	Zn	1.798803	0.370836	1.085528
Zn4	Zn	1.132038	-0.420005	0.295029
Zn5	Zn	1.465371	-0.086672	0.628363
Zn6	Zn	1.798705	0.246661	0.961696
Zn7	Zn	1.008295	-0.295823	0.295023
Zn8	Zn	1.341628	0.037510	0.628356
Zn9	Zn	1.674961	0.370843	0.961689
Zn10	Zn	1.008252	-0.419974	0.418818
Zn11	Zn	1.341585	-0.086640	0.752151
Zn12	Zn	1.674918	0.246693	1.085485
O13	O	1.070180	-0.357908	0.356933
O14	O	1.403513	-0.024575	0.690266
O15	O	1.736847	0.308758	1.023599
O16	O	1.235756	-0.312320	0.402456
O17	O	1.569089	0.021014	0.735789
O18	O	1.902422	0.354347	1.069123
O19	O	1.115600	-0.403542	0.191396
O20	O	1.448934	-0.070209	0.524729
O21	O	1.782267	0.263124	0.858062
O22	O	1.024782	-0.191900	0.311465
O23	O	1.358115	0.141434	0.644799
O24	O	1.691448	0.474767	0.978132
O25	O	1.235684	-0.403550	0.311477
O26	O	1.569017	-0.070217	0.644810
O27	O	1.902350	0.263117	0.978144
O28	O	1.115767	-0.191905	0.402449
O29	O	1.449100	0.141428	0.735783
O30	O	1.782434	0.474761	1.069116
O31	O	1.024687	-0.312306	0.191391
O32	O	1.358020	0.021027	0.524724
O33	O	1.691353	0.354360	0.858057
O34	O	0.904656	-0.312276	0.311423
O35	O	1.237990	0.021058	0.644757
O36	O	1.571323	0.354391	0.978090
O37	O	1.024708	-0.403496	0.522457
O38	O	1.358042	-0.070162	0.855790
O39	O	1.691375	0.263171	1.189123
O40	O	0.904625	-0.403488	0.402375
O41	O	1.237958	-0.070155	0.735709
O42	O	1.571291	0.263178	1.069042
O43	O	1.115725	-0.312289	0.522489
O44	O	1.449059	0.021045	0.855822
O45	O	1.782392	0.354378	1.189155
O46	O	1.115558	-0.523926	0.311435
O47	O	1.448892	-0.190592	0.644768
O48	O	1.782225	0.142741	0.978102
O49	O	1.024613	-0.523902	0.402382
O50	O	1.357947	-0.190569	0.735715
O51	O	1.691280	0.142764	1.069048
C52	C	0.877770	-0.357878	0.356894
C53	C	1.211103	-0.024545	0.690228
C54	C	1.544436	0.308788	1.023561
C55	C	0.795455	-0.357883	0.356895
C56	C	1.128789	-0.024550	0.690229
C57	C	1.462122	0.308784	1.023562
C58	C	0.496364	-0.357930	0.356957
C59	C	0.829698	-0.024596	0.690291
C60	C	1.163031	0.308737	1.023624
C61	C	0.527685	-0.300254	0.300012
C62	C	0.861018	0.033079	0.633345
C63	C	1.194352	0.366412	0.966679
C64	C	0.613303	-0.300409	0.299769
C65	C	0.946636	0.032924	0.633102
C66	C	1.279970	0.366258	0.966436
C67	C	0.644747	-0.357906	0.356927
C68	C	0.978080	-0.024573	0.690260
C69	C	1.311414	0.308761	1.023593
C70	C	0.613633	-0.436133	0.335608
C71	C	0.946966	-0.102800	0.668941
C72	C	1.280299	0.230533	1.002275
C73	C	0.527988	-0.435813	0.335212
C74	C	0.861321	-0.102480	0.668545
C75	C	1.194654	0.230854	1.001879
C76	C	0.527978	-0.338057	0.435355
C77	C	0.861311	-0.004724	0.768689
C78	C	1.194645	0.328609	1.102022
C79	C	0.613629	-0.336315	0.434927
C80	C	0.946962	-0.002982	0.768261
C81	C	1.280295	0.330351	1.101594
C82	C	0.728606	-0.357897	0.356910
C83	C	1.061940	-0.024564	0.690244
C84	C	1.395273	0.308769	1.023577
C85	C	0.412505	-0.357943	0.356972
C86	C	0.745838	-0.024610	0.690305
C87	C	1.079172	0.308723	1.023638
C88	C	1.070091	-0.550860	0.356921
C89	C	1.403424	-0.217527	0.690254
C90	C	1.736757	0.115806	1.023587
C91	C	1.070120	-0.633406	0.356940
C92	C	1.403454	-0.300073	0.690273
C93	C	1.736787	0.033260	1.023607
C94	C	1.020713	-0.832871	0.406380
C95	C	1.354046	-0.499538	0.739713
C96	C	1.687379	-0.166204	1.073046
C97	C	1.002661	-0.882299	0.338801
C98	C	1.335994	-0.548965	0.672134
C99	C	1.669328	-0.215632	1.005468
C100	C	1.070193	-0.784537	0.356950
C101	C	1.403526	-0.451203	0.690283
C102	C	1.736860	-0.117870	1.023616
C103	C	1.088281	-0.882191	0.424536
C104	C	1.421615	-0.548857	0.757870
C105	C	1.754948	-0.215524	1.091203
C106	C	1.070262	-0.930522	0.356965
C107	C	1.403595	-0.597188	0.690298
C108	C	1.736928	-0.263855	1.023632
C109	C	1.052106	-0.832877	0.289335
C110	C	1.385439	-0.499544	0.622668
C111	C	1.718772	-0.166210	0.956002
C112	C	1.137757	-0.832765	0.375116
C113	C	1.471091	-0.499431	0.708449
C114	C	1.804424	-0.166098	1.041783
C115	C	1.119731	-0.882170	0.307491
C116	C	1.453064	-0.548836	0.640824
C117	C	1.786398	-0.215503	0.974157
C118	C	1.070151	-0.700438	0.356942
C119	C	1.403485	-0.367105	0.690275
C120	C	1.736818	-0.033772	1.023609
C121	C	1.070304	-1.014618	0.356965
C122	C	1.403637	-0.681285	0.690299
C123	C	1.736970	-0.347952	1.023632
C124	C	1.263342	-0.357939	0.356972
C125	C	1.596675	-0.024606	0.690305
C126	C	1.930009	0.308728	1.023639
C127	C	1.345656	-0.357952	0.356989
C128	C	1.678989	-0.024619	0.690322
C129	C	2.012323	0.308714	1.023655
C130	C	1.070223	-0.357890	0.550095
C131	C	1.403556	-0.024556	0.883428
C132	C	1.736890	0.308777	1.216761
C133	C	1.070241	-0.357882	0.632409
C134	C	1.403574	-0.024548	0.965742
C135	C	1.736908	0.308785	1.299076
C136	C	1.070290	-0.164203	0.356961
C137	C	1.403623	0.169131	0.690295
C138	C	1.736957	0.502464	1.023628
C139	C	1.070337	-0.081657	0.356974
C140	C	1.403670	0.251676	0.690307
C141	C	1.737004	0.585010	1.023640
C142	C	1.070180	-0.357873	0.164522
C143	C	1.403513	-0.024540	0.497856
C144	C	1.736847	0.308793	0.831189
C145	C	1.070305	-0.357672	0.082209
C146	C	1.403639	-0.024339	0.415542
C147	C	1.736972	0.308994	0.748875
C148	C	1.070284	-0.357742	0.931500
C149	C	1.403618	-0.024409	1.264833
C150	C	1.736951	0.308924	1.598167
C151	C	1.012822	-0.414945	0.900155
C152	C	1.346155	-0.081611	1.233488
C153	C	1.679488	0.251722	1.566821
C154	C	1.012977	-0.415210	0.814536
C155	C	1.346310	-0.081877	1.147870
C156	C	1.679644	0.251457	1.481203
C157	C	1.070262	-0.357811	0.783117
C158	C	1.403596	-0.024478	1.116451
C159	C	1.736929	0.308855	1.449784
C160	C	1.148289	-0.379062	0.814225
C161	C	1.481622	-0.045728	1.147558
C162	C	1.814955	0.287605	1.480891
C163	C	1.147969	-0.379437	0.899870
C164	C	1.481302	-0.046104	1.233203
C165	C	1.814635	0.287230	1.566536
C166	C	1.050399	-0.279163	0.899918
C167	C	1.383732	0.054171	1.233252
C168	C	1.717066	0.387504	1.566585
C169	C	1.048663	-0.279616	0.814267
C170	C	1.381996	0.053717	1.147601
C171	C	1.715330	0.387050	1.480934
C172	C	1.070255	-0.357849	0.699258
C173	C	1.403588	-0.024516	1.032591
C174	C	1.736921	0.308817	1.365925
C175	C	1.070297	-0.357706	1.015360
C176	C	1.403630	-0.024373	1.348693
C177	C	1.736964	0.308960	1.682026
H178	H	0.506403	-0.282008	0.454739
H179	H	0.839737	0.051326	0.788072
H180	H	1.173070	0.384659	1.121406
H181	H	0.633757	-0.313545	0.241677
H182	H	0.967091	0.019788	0.575010
H183	H	1.300424	0.353122	0.908344
O184	O	0.640606	-0.494584	0.388826
O185	O	0.973939	-0.161251	0.722160
O186	O	1.307273	0.172082	1.055493
H187	H	0.672508	-0.537124	0.358144
H188	H	1.005841	-0.203791	0.691477
H189	H	1.339174	0.129543	1.024810
O190	O	1.213407	-0.803919	0.395394
O191	O	1.546740	-0.470585	0.728727
O192	O	1.880074	-0.137252	1.062061
H193	H	1.254536	-0.824564	0.354863
H194	H	1.587870	-0.491230	0.688196
H195	H	1.921203	-0.157897	1.021529
H196	H	0.633970	-0.278749	0.451002
H197	H	0.967303	0.054585	0.784336
H198	H	1.300637	0.387918	1.117669
H199	H	0.955117	-0.401912	0.793503
H200	H	1.288451	-0.068578	1.126836
H201	H	1.621784	0.264755	1.460170
O202	O	0.641955	-0.387920	0.494143
O203	O	0.975288	-0.054586	0.827476
O204	O	1.308622	0.278747	1.160810
H205	H	0.678818	-0.429951	0.468790
H206	H	1.012152	-0.096618	0.802123
H207	H	1.345485	0.236716	1.135457
H208	H	1.161604	-0.903680	0.265648
H209	H	1.494938	-0.570347	0.598981
H210	H	1.828271	-0.237013	0.932314
H211	H	1.092252	-0.236544	0.920191
H212	H	1.425585	0.096789	1.253524
H213	H	1.758919	0.430123	1.586858
H214	H	1.103553	-0.903852	0.481687
H215	H	1.436886	-0.570519	0.815021
H216	H	1.770220	-0.237185	1.148354
O217	O	1.100065	-0.220160	0.785962
O218	O	1.433399	0.113173	1.119295
O219	O	1.766732	0.446506	1.452628
H220	H	1.067808	-0.178315	0.754700
H221	H	1.401141	0.155018	1.088033
H222	H	1.734474	0.488351	1.421367
O223	O	0.641987	-0.458851	0.260508
O224	O	0.975320	-0.125518	0.593841
O225	O	1.308653	0.207815	0.927174
H226	H	0.678229	-0.414557	0.238245
H227	H	1.011563	-0.081224	0.571579
H228	H	1.344896	0.252109	0.904912
H229	H	0.954788	-0.401782	0.920740
H230	H	1.288121	-0.068449	1.254073
H231	H	1.621455	0.264884	1.587406
O232	O	0.501146	-0.393692	0.491566
O233	O	0.834479	-0.060359	0.824899
O234	O	1.167813	0.272974	1.158233
H235	H	0.465468	-0.435298	0.463849
H236	H	0.798801	-0.101965	0.797182
H237	H	1.132134	0.231369	1.130515
O238	O	0.500528	-0.494657	0.387753
O239	O	0.833861	-0.161324	0.721086
O240	O	1.167194	0.172010	1.054419
H241	H	0.521106	-0.482615	0.444266
H242	H	0.854439	-0.149282	0.777599
H243	H	1.187773	0.184051	1.110933
H244	H	0.978808	-0.811224	0.448122
H245	H	1.312141	-0.477890	0.781455
H246	H	1.645474	-0.144557	1.114788
O247	O	0.501471	-0.458127	0.259295
O248	O	0.834804	-0.124793	0.592628
O249	O	1.168138	0.208540	0.925962
H250	H	0.549819	-0.469041	0.223210
H251	H	0.883153	-0.135708	0.556543
H252	H	1.216486	0.197626	0.889876
H253	H	1.025820	-0.472835	0.921685
H254	H	1.359153	-0.139502	1.255018
H255	H	1.692487	0.193832	1.588351
O256	O	0.927019	-0.911121	0.318442
O257	O	1.260352	-0.577788	0.651776
O258	O	1.593685	-0.244455	0.985109
H259	H	0.886014	-0.891382	0.359544
H260	H	1.219347	-0.558049	0.692878
H261	H	1.552681	-0.224716	1.026211
O262	O	1.031783	-0.804313	0.213609
O263	O	1.365117	-0.470980	0.546943
O264	O	1.698450	-0.137647	0.880276
H265	H	1.031884	-0.742825	0.214206
H266	H	1.365218	-0.409492	0.547539
H267	H	1.698551	-0.076159	0.880872
O268	O	1.030271	-0.492382	0.787400
O269	O	1.363605	-0.159049	1.120733
O270	O	1.696938	0.174285	1.454066
H271	H	1.038580	-0.529653	0.835450
H272	H	1.371913	-0.196319	1.168783
H273	H	1.705247	0.137014	1.502116
O274	O	1.170285	-0.455527	0.926356
O275	O	1.503618	-0.122194	1.259689
O276	O	1.836951	0.211140	1.593022
H277	H	1.181200	-0.491710	0.877993
H278	H	1.514534	-0.158377	1.211326
H279	H	1.847867	0.174957	1.544659
O280	O	1.206532	-0.325616	0.787273
O281	O	1.539866	0.007718	1.120606
O282	O	1.873199	0.341051	1.453940
H283	H	1.248977	-0.356334	0.755361
H284	H	1.582310	-0.023000	1.088695
H285	H	1.915643	0.310333	1.422028
O286	O	1.206612	-0.326662	0.927349
O287	O	1.539945	0.006672	1.260682
O288	O	1.873279	0.340005	1.594015
H289	H	1.235078	-0.300989	0.879463
H290	H	1.568412	0.032344	1.212796
H291	H	1.901745	0.365678	1.546130
O292	O	1.171010	-0.454345	0.785840
O293	O	1.504343	-0.121012	1.119173
O294	O	1.837676	0.212321	1.452507
H295	H	1.126860	-0.476747	0.749587
H296	H	1.460194	-0.143414	1.082920
H297	H	1.793527	0.189919	1.416254
O298	O	0.976335	-0.253519	0.928490
O299	O	1.309668	0.079814	1.261823
O300	O	1.643002	0.413147	1.595157
H301	H	0.952870	-0.296501	0.965524
H302	H	1.286203	0.036832	1.298858
H303	H	1.619536	0.370166	1.632191
O304	O	0.972609	-0.258381	0.787321
O305	O	1.305943	0.074953	1.120655
O306	O	1.639276	0.408286	1.453988
H307	H	0.931831	-0.300044	0.806590
H308	H	1.265165	0.033289	1.139923
H309	H	1.598498	0.366623	1.473257
O310	O	0.641180	-0.223566	0.317444
O311	O	0.974513	0.109767	0.650777
O312	O	1.307846	0.443101	0.984110
H313	H	0.593488	-0.185959	0.326241
H314	H	0.926821	0.147375	0.659574
H315	H	1.260155	0.480708	0.992907
H316	H	0.506136	-0.313242	0.242258
H317	H	0.839469	0.020092	0.575591
H318	H	1.172803	0.353425	0.908925
O319	O	0.500388	-0.223184	0.317471
O320	O	0.833721	0.110150	0.650804
O321	O	1.167054	0.443483	0.984138
H322	H	0.464208	-0.225158	0.366923
H323	H	0.797541	0.108175	0.700257
H324	H	1.130874	0.441509	1.033590
