data_functionalizedCrystal
_audit_creation_method	'MofGen! by Chris Wilmer'
_symmetry_space_group_name_H-M	'P1'
_symmetry_Int_Tables_number	1
_symmetry_cell_setting	triclinic
loop_
_symmetry_equiv_pos_as_xyz
  x,y,z
_cell_length_a	21.295420
_cell_length_b	21.295412
_cell_length_c	21.295417
_cell_angle_alpha	90.030668
_cell_angle_beta	89.973711
_cell_angle_gamma	89.976453
loop_
_atom_site_label
_atom_site_type_symbol
_atom_site_fract_x
_atom_site_fract_y
_atom_site_fract_z
Zn1	Zn	0.962349	-0.355912	0.250696
Zn2	Zn	0.962253	-0.250637	0.355964
Zn3	Zn	0.857074	-0.250657	0.250705
Zn4	Zn	0.857041	-0.355869	0.355923
O5	O	0.909679	-0.303269	0.303322
O6	O	1.050426	-0.341957	0.264673
O7	O	0.948274	-0.162551	0.342022
O8	O	0.871093	-0.264645	0.162614
O9	O	1.050355	-0.264612	0.342013
O10	O	0.948438	-0.341976	0.162608
O11	O	0.871000	-0.162565	0.264689
O12	O	0.768980	-0.264604	0.264649
O13	O	0.871037	-0.443964	0.341944
O14	O	0.768956	-0.341903	0.341953
O15	O	0.948406	-0.443996	0.264633
O16	O	0.948243	-0.264570	0.444048
O17	O	0.870944	-0.341884	0.444018
C18	C	0.746128	-0.303251	0.303298
C19	C	0.676160	-0.303258	0.303303
C20	C	0.176738	-0.343617	0.263146
C21	C	0.242480	-0.343617	0.263141
C22	C	0.275320	-0.303283	0.303341
C23	C	0.242412	-0.262958	0.343560
C24	C	0.176671	-0.262964	0.343568
N25	N	0.378511	-0.248164	0.308085
N26	N	0.440963	-0.248160	0.308074
C27	C	0.473395	-0.303265	0.303320
N28	N	0.441017	-0.358375	0.298566
N29	N	0.378559	-0.358377	0.298574
C30	C	0.346606	-0.303273	0.303337
C31	C	0.577580	-0.343591	0.263102
C32	C	0.643324	-0.343592	0.263102
C33	C	0.643255	-0.262927	0.343517
C34	C	0.577513	-0.262932	0.343521
C35	C	0.544679	-0.303263	0.303310
C36	C	0.909729	-0.467459	0.303283
C37	C	0.909750	-0.537427	0.303266
C38	C	0.869523	-0.570291	0.262994
C39	C	0.869521	-0.636034	0.262982
C40	C	0.909756	-0.668910	0.303236
C41	C	0.949985	-0.636038	0.343516
C42	C	0.949982	-0.570296	0.343531
N43	N	0.964861	-0.772148	0.308048
N44	N	0.964862	-0.834600	0.308030
C45	C	0.909768	-0.866985	0.303194
N46	N	0.854671	-0.834559	0.298365
N47	N	0.854670	-0.772102	0.298380
C48	C	0.909764	-0.740195	0.303225
C49	C	0.869536	-0.971134	0.262907
C50	C	0.869533	-1.036878	0.262900
C51	C	0.950003	-1.036881	0.343430
C52	C	0.950000	-0.971138	0.343441
C53	C	0.909768	-0.938269	0.303176
C54	C	1.073870	-0.303287	0.303347
C55	C	1.143838	-0.303295	0.303357
C56	C	0.909597	-0.303234	0.466874
C57	C	0.909619	-0.303240	0.536842
C58	C	0.909667	-0.139717	0.303316
C59	C	0.909768	-0.069749	0.303155
C60	C	0.909779	-0.303318	0.139132
C61	C	0.909822	-0.303338	0.069164
C62	C	0.949904	-0.263024	0.569703
C63	C	0.949934	-0.263038	0.635446
C64	C	0.909667	-0.303262	0.668324
C65	C	0.869379	-0.343485	0.635455
C66	C	0.869355	-0.343474	0.569714
N67	N	0.854600	-0.308055	0.771586
N68	N	0.854624	-0.308061	0.834038
C69	C	0.909737	-0.303298	0.866399
N70	N	0.964826	-0.298515	0.833950
N71	N	0.964801	-0.298505	0.771493
C72	C	0.909689	-0.303278	0.739610
C73	C	0.950058	-0.263095	0.970546
C74	C	0.950088	-0.263114	1.036290
C75	C	0.869528	-0.343557	1.036298
C76	C	0.869503	-0.343542	0.970555
C77	C	0.909767	-0.303308	0.937683
H78	H	0.550725	-0.230094	0.376263
O79	O	0.274351	-0.382808	0.224019
C80	C	0.267486	-0.462837	0.144282
C81	C	0.231318	-0.418476	0.188543
H82	H	0.232710	-0.491695	0.115597
H83	H	0.298244	-0.434021	0.111287
H84	H	0.298289	-0.495671	0.173230
H85	H	0.200481	-0.385633	0.159645
H86	H	0.200599	-0.447332	0.221540
O87	O	0.830528	-0.538334	0.223822
C88	C	0.822101	-0.464101	0.138878
C89	C	0.866336	-0.500267	0.183188
H90	H	0.851033	-0.433305	0.106023
H91	H	0.793358	-0.498857	0.110046
H92	H	0.789154	-0.433332	0.167796
H93	H	0.899321	-0.531037	0.154318
H94	H	0.895035	-0.465477	0.212022
H95	H	0.836549	-0.376224	0.542957
H96	H	0.982745	-0.662809	0.376291
H97	H	0.836696	-0.376287	0.943798
H98	H	0.550846	-0.376430	0.230360
H99	H	0.269155	-0.230120	0.376293
H100	H	0.670110	-0.376431	0.230359
O101	O	0.675245	-0.223769	0.382511
C102	C	0.776493	-0.188043	0.418171
C103	C	0.740339	-0.232409	0.373965
H104	H	0.829127	-0.195023	0.411287
H105	H	0.763595	-0.137291	0.407055
H106	H	0.763514	-0.199002	0.468938
H107	H	0.753298	-0.221507	0.323184
H108	H	0.753240	-0.283149	0.385135
O109	O	0.988992	-0.939183	0.382624
C110	C	0.997410	-0.864907	0.467605
C111	C	0.953179	-0.901067	0.423276
H112	H	0.968473	-0.834072	0.500475
H113	H	1.026156	-0.899667	0.496420
H114	H	1.030353	-0.834178	0.438702
H115	H	0.920197	-0.931797	0.452130
H116	H	0.924477	-0.866273	0.394459
O117	O	0.989081	-0.223928	0.537870
C118	C	1.068963	-0.144118	0.544803
C119	C	1.024636	-0.188370	0.580934
H120	H	1.097711	-0.115348	0.579604
H121	H	1.101895	-0.173016	0.513998
H122	H	1.040061	-0.111198	0.514051
H123	H	1.053487	-0.221299	0.611720
H124	H	0.991702	-0.159432	0.611700
O125	O	0.144612	-0.223850	0.382609
C126	C	0.043303	-0.188083	0.418230
C127	C	0.079533	-0.232422	0.373995
H128	H	-0.009320	-0.194989	0.411271
H129	H	0.056167	-0.199048	0.469015
H130	H	0.056246	-0.137350	0.407119
H131	H	0.066609	-0.283170	0.385049
H132	H	0.066665	-0.221404	0.323223
H133	H	0.982897	-0.230367	1.063044
O134	O	0.830426	-0.667870	0.223799
C135	C	0.750595	-0.660935	0.143943
C136	C	0.794847	-0.624805	0.188276
H137	H	0.721808	-0.626132	0.115221
H138	H	0.779493	-0.691715	0.110987
H139	H	0.717690	-0.691712	0.172839
H140	H	0.827761	-0.593994	0.159431
H141	H	0.765909	-0.594065	0.221234
H142	H	0.982742	-0.543539	0.376325
H143	H	0.982741	-0.230290	0.662207
O144	O	0.830350	-0.382588	0.667460
C145	C	0.821868	-0.467605	0.741604
C146	C	0.866137	-0.423346	0.705410
H147	H	0.850784	-0.500578	0.772286
H148	H	0.788988	-0.438714	0.772471
H149	H	0.793055	-0.496319	0.706810
H150	H	0.894990	-0.394623	0.740160
H151	H	0.898976	-0.452274	0.674534
H152	H	0.836776	-0.944371	0.230122
H153	H	0.150009	-0.376460	0.230405
O154	O	0.830434	-1.068707	0.223719
C155	C	0.750602	-1.061764	0.143865
C156	C	0.794859	-1.025639	0.188196
H157	H	0.721819	-1.026959	0.115142
H158	H	0.779496	-1.092548	0.110909
H159	H	0.717694	-1.092537	0.172762
H160	H	0.827776	-0.994833	0.159349
H161	H	0.765926	-0.994894	0.221153
H162	H	0.982764	-1.063647	0.376205
H163	H	0.982845	-0.230336	0.943780
H164	H	0.836745	-0.376311	1.063067
