data_functionalizedCrystal
_audit_creation_method	'MofGen! by Chris Wilmer'
_symmetry_space_group_name_H-M	'P1'
_symmetry_Int_Tables_number	1
_symmetry_cell_setting	triclinic
loop_
_symmetry_equiv_pos_as_xyz
  x,y,z
_cell_length_a	11.026623
_cell_length_b	11.792241
_cell_length_c	9.483334
_cell_angle_alpha	80.595138
_cell_angle_beta	78.643421
_cell_angle_gamma	83.609940
loop_
_atom_site_label
_atom_site_type_symbol
_atom_site_fract_x
_atom_site_fract_y
_atom_site_fract_z
O1	O	-1.594468	0.489840	-0.120903
O2	O	-1.240806	0.435646	-0.120903
O3	O	-1.426221	0.299276	-0.120893
O4	O	-1.409053	0.626211	-0.120913
O5	O	-1.463851	0.271428	0.120885
O6	O	-1.278435	0.407799	0.120874
O7	O	-1.632098	0.461992	0.120874
Cu8	Cu	-1.458703	0.432353	0.142951
Cu9	Cu	-1.414201	0.465286	-0.142979
O10	O	-1.446683	0.598363	0.120864
C11	C	-1.214344	0.411725	-0.000014
C12	C	-1.079434	0.381921	-0.000014
C13	C	-1.006169	0.464212	-0.000020
C14	C	-0.866732	0.433411	-0.000020
C15	C	-1.443957	0.242847	-0.000005
C16	C	-1.440730	0.116193	-0.000006
C17	C	-1.434792	-0.115695	-0.000030
C18	C	-1.438091	0.013343	-0.000017
C19	C	-0.658559	0.485913	-0.000017
C20	C	-0.793469	0.515713	-0.000026
C21	C	-1.428945	0.654792	-0.000027
C22	C	-1.432171	0.781448	-0.000035
N23	N	-1.490012	0.409191	0.344058
N24	N	-1.382901	0.488441	-0.344087
C25	C	-1.423421	0.458451	0.416284
C26	C	-1.449502	0.439174	0.583691
H27	H	-1.038924	0.288671	-0.000045
H28	H	-0.833967	0.608973	-0.000022
C29	C	-1.551179	0.363729	0.666291
C30	C	-1.524695	0.252264	0.629361
C31	C	-1.618336	0.182738	0.705410
H32	H	-1.555270	0.360632	0.767826
H33	H	-1.628578	0.395267	0.641371
H34	H	-1.447317	0.220733	0.654291
H35	H	-1.520616	0.255325	0.527839
H36	H	-1.695736	0.214277	0.680490
H37	H	-1.622420	0.179650	0.806941
H38	H	-1.600386	0.107105	0.680354
H39	H	-0.826228	0.340154	-0.000051
C40	C	-1.280967	0.563596	0.573314
C41	C	-1.167083	0.516789	0.610283
C42	C	-1.073159	0.585997	0.534235
H43	H	-1.276791	0.566600	0.471779
H44	H	-1.298674	0.639294	0.598210
H45	H	-1.149379	0.441111	0.585377
H46	H	-1.171217	0.513788	0.711805
H47	H	-1.090866	0.661695	0.559131
H48	H	-1.068995	0.588996	0.432704
H49	H	-0.995880	0.554254	0.559317
H50	H	-1.347106	0.514901	0.354186
C51	C	-1.591684	0.333749	0.426664
C52	C	-1.565200	0.222285	0.389734
C53	C	-1.658841	0.152758	0.465783
H54	H	-1.595775	0.330652	0.528199
H55	H	-1.669083	0.365288	0.401744
H56	H	-1.487822	0.190754	0.414664
H57	H	-1.561121	0.225346	0.288212
H58	H	-1.736241	0.184297	0.440863
H59	H	-1.662924	0.149671	0.567314
H60	H	-1.640891	0.077125	0.440727
H61	H	-1.046674	0.557466	-0.000017
