data_functionalizedCrystal
_audit_creation_method	'MofGen! by Chris Wilmer'
_symmetry_space_group_name_H-M	'P1'
_symmetry_Int_Tables_number	1
_symmetry_cell_setting	triclinic
loop_
_symmetry_equiv_pos_as_xyz
  x,y,z
_cell_length_a	13.897449
_cell_length_b	21.295417
_cell_length_c	13.897441
_cell_angle_alpha	90.035375
_cell_angle_beta	90.023394
_cell_angle_gamma	90.030528
loop_
_atom_site_label
_atom_site_type_symbol
_atom_site_fract_x
_atom_site_fract_y
_atom_site_fract_z
Zn1	Zn	1.474622	-0.250575	0.545418
Zn2	Zn	1.974622	0.249425	1.045418
Zn3	Zn	1.474482	-0.355854	0.384106
Zn4	Zn	1.974482	0.144146	0.884106
Zn5	Zn	1.313311	-0.250604	0.384129
Zn6	Zn	1.813311	0.249396	0.884129
Zn7	Zn	1.313259	-0.355812	0.545351
Zn8	Zn	1.813259	0.144188	1.045351
O9	O	1.393919	-0.303211	0.464751
O10	O	1.893919	0.196789	0.964751
O11	O	1.609585	-0.264546	0.524038
O12	O	2.109585	0.235454	1.024038
O13	O	1.453066	-0.341922	0.249127
O14	O	1.953066	0.158078	0.749127
O15	O	1.334790	-0.162511	0.405561
O16	O	1.834790	0.337489	0.905561
O17	O	1.609482	-0.341894	0.405522
O18	O	2.109482	0.158106	0.905522
O19	O	1.453304	-0.162490	0.524060
O20	O	1.953304	0.337510	1.024060
O21	O	1.334654	-0.264596	0.249144
O22	O	1.834654	0.235404	0.749144
O23	O	1.178323	-0.264555	0.405497
O24	O	1.678323	0.235445	0.905497
O25	O	1.334701	-0.341822	0.680341
O26	O	1.834701	0.158178	1.180341
O27	O	1.178284	-0.341851	0.523946
O28	O	1.678284	0.158149	1.023946
O29	O	1.453254	-0.264505	0.680390
O30	O	1.953254	0.235495	1.180390
O31	O	1.453015	-0.443938	0.405457
O32	O	1.953015	0.056062	0.905457
O33	O	1.334565	-0.443907	0.523924
O34	O	1.834565	0.056093	1.023924
C35	C	1.143304	-0.303202	0.464717
C36	C	1.643304	0.196798	0.964717
C37	C	1.036090	-0.303213	0.464725
C38	C	1.536090	0.196787	0.964725
C39	C	0.949021	-0.303215	0.464742
C40	C	1.449021	0.196785	0.964742
C41	C	0.839788	-0.303219	0.464771
C42	C	1.339788	0.196781	0.964771
C43	C	1.393796	-0.466763	0.464702
C44	C	1.893796	0.033237	0.964702
C45	C	1.393831	-0.536731	0.464713
C46	C	1.893831	-0.036731	0.964713
C47	C	1.455507	-0.569530	0.526459
C48	C	1.955507	-0.069530	1.026459
C49	C	1.455541	-0.635272	0.526483
C50	C	1.955541	-0.135272	1.026483
C51	C	1.393910	-0.668214	0.464744
C52	C	1.893910	-0.168214	0.964744
C53	C	1.332223	-0.635407	0.402993
C54	C	1.832223	-0.135407	0.902993
C55	C	1.332183	-0.569666	0.402978
C56	C	1.832183	-0.069666	0.902978
N57	N	1.386621	-0.771480	0.380326
N58	N	1.886621	-0.271480	0.880326
N59	N	1.386663	-0.833932	0.380343
N60	N	1.886663	-0.333932	0.880343
C61	C	1.394022	-0.866288	0.464787
C62	C	1.894022	-0.366288	0.964787
N63	N	1.401356	-0.833834	0.549215
N64	N	1.901356	-0.333834	1.049215
N65	N	1.401318	-0.771377	0.549197
N66	N	1.901318	-0.271377	1.049197
C67	C	1.393945	-0.739499	0.464754
C68	C	1.893945	-0.239499	0.964754
C69	C	1.455738	-0.970372	0.526564
C70	C	1.955738	-0.470372	1.026564
C71	C	1.455765	-1.036116	0.526590
C72	C	1.955765	-0.536116	1.026590
C73	C	1.332452	-1.036250	0.403091
C74	C	1.832452	-0.536250	0.903091
C75	C	1.332420	-0.970508	0.403074
C76	C	1.832420	-0.470508	0.903074
C77	C	1.394068	-0.937573	0.464809
C78	C	1.894068	-0.437573	0.964809
C79	C	1.645512	-0.303222	0.464785
C80	C	2.145512	0.196778	0.964785
C81	C	1.752726	-0.303226	0.464800
C82	C	2.252726	0.196774	0.964800
C83	C	1.393987	-0.303156	0.716344
C84	C	1.893987	0.196844	1.216344
C85	C	1.394016	-0.303132	0.823558
C86	C	1.894016	0.196868	1.323558
C87	C	1.394068	-0.139021	0.464821
C88	C	1.894068	0.360979	0.964821
C89	C	1.394132	-0.069053	0.464851
C90	C	1.894132	0.430947	0.964851
C91	C	1.393906	-0.303221	0.214136
C92	C	1.893906	0.196779	0.714136
C93	C	1.394064	-0.303068	0.106923
C94	C	1.894064	0.196932	0.606923
C95	C	1.394043	-0.303090	1.019853
C96	C	1.894043	0.196910	1.519853
C97	C	1.394025	-0.303115	0.910620
C98	C	1.894025	0.196885	1.410620
H99	H	1.505702	-0.542716	0.576730
H100	H	2.005702	-0.042716	1.076730
Br101	Br	1.539459	-1.080630	0.610411
Br102	Br	2.039459	-0.580630	1.110411
H103	H	1.282265	-1.063071	0.352827
H104	H	1.782265	-0.563071	0.852827
H105	H	1.281959	-0.542961	0.352696
H106	H	1.781959	-0.042961	0.852696
H107	H	1.282202	-0.943801	0.352790
H108	H	1.782202	-0.443801	0.852790
H109	H	1.282040	-0.662233	0.352726
H110	H	1.782040	-0.162233	0.852726
Br111	Br	1.539253	-0.679794	0.610283
Br112	Br	2.039253	-0.179794	1.110283
Br113	Br	1.539398	-0.925671	0.610348
Br114	Br	2.039398	-0.425671	1.110348
