data_functionalizedCrystal
_audit_creation_method	'MofGen! by Chris Wilmer'
_symmetry_space_group_name_H-M	'P1'
_symmetry_Int_Tables_number	1
_symmetry_cell_setting	triclinic
loop_
_symmetry_equiv_pos_as_xyz
  x,y,z
_cell_length_a	10.686220
_cell_length_b	16.120484
_cell_length_c	10.686551
_cell_angle_alpha	88.707809
_cell_angle_beta	90.308082
_cell_angle_gamma	97.070967
loop_
_atom_site_label
_atom_site_type_symbol
_atom_site_fract_x
_atom_site_fract_y
_atom_site_fract_z
Zn1	Zn	1.957921	-0.203137	-0.579045
Zn2	Zn	2.457921	0.296863	-0.079045
Zn3	Zn	1.931025	-0.353948	-0.381655
Zn4	Zn	2.431025	0.146052	0.118345
Zn5	Zn	1.730532	-0.224452	-0.387111
Zn6	Zn	2.230532	0.275548	0.112889
Zn7	Zn	1.737575	-0.352260	-0.607294
Zn8	Zn	2.237575	0.147740	-0.107294
O9	O	1.839263	-0.283449	-0.488776
O10	O	2.339263	0.216551	0.011224
O11	O	2.130476	-0.214929	-0.538756
O12	O	2.630476	0.285071	-0.038756
O13	O	1.890226	-0.346397	-0.207623
O14	O	2.390226	0.153603	0.292377
O15	O	1.769004	-0.105021	-0.403033
O16	O	2.269004	0.394979	0.096967
O17	O	2.110716	-0.325729	-0.393734
O18	O	2.610716	0.174271	0.106266
O19	O	1.936065	-0.089361	-0.544046
O20	O	2.436065	0.410639	-0.044046
O21	O	1.742924	-0.251257	-0.211631
O22	O	2.242924	0.248743	0.288369
O23	O	1.555343	-0.249619	-0.430424
O24	O	2.055343	0.250381	0.069576
O25	O	1.781008	-0.322851	-0.778303
O26	O	2.281008	0.177149	-0.278303
O27	O	1.560518	-0.343519	-0.592192
O28	O	2.060518	0.156481	-0.092192
O29	O	1.942895	-0.213292	-0.757549
O30	O	2.442895	0.286708	-0.257549
O31	O	1.897056	-0.470327	-0.421125
O32	O	2.397056	0.029673	0.078875
O33	O	1.754928	-0.469087	-0.586902
O34	O	2.254928	0.030913	-0.086902
C35	C	1.512264	-0.298700	-0.514966
C36	C	2.012264	0.201300	-0.014966
C37	C	1.372373	-0.305242	-0.526202
C38	C	1.872373	0.194758	-0.026202
C39	C	1.823874	-0.499938	-0.506511
C40	C	2.323874	0.000062	-0.006511
C41	C	1.817409	-0.592545	-0.514131
C42	C	2.317409	-0.092545	-0.014131
C43	C	1.805615	-0.762098	-0.528067
C44	C	2.305615	-0.262098	-0.028067
C45	C	1.873138	-0.803948	-0.449488
C46	C	2.373138	-0.303948	0.050512
C47	C	1.866576	-0.898293	-0.457242
C48	C	2.366576	-0.398293	0.042758
C49	C	1.812176	-0.667744	-0.520315
C50	C	2.312176	-0.167744	-0.020315
C51	C	2.167539	-0.268140	-0.462485
C52	C	2.667539	0.231860	0.037515
C53	C	2.307431	-0.261616	-0.451281
C54	C	2.807431	0.238384	0.048719
C55	C	1.865737	-0.265505	-0.814505
C56	C	2.365737	0.234495	-0.314505
C57	C	1.877019	-0.257859	-0.953311
C58	C	2.377019	0.242141	-0.453311
C59	C	1.854749	-0.066112	-0.470997
C60	C	2.354749	0.433888	0.029003
C61	C	1.861348	0.026504	-0.463420
C62	C	2.361348	0.526504	0.036580
C63	C	1.812969	-0.301259	-0.164304
C64	C	2.312969	0.198741	0.335696
C65	C	1.801948	-0.308660	-0.025460
C66	C	2.301948	0.191340	0.474540
H67	H	1.320945	-0.347606	-0.598938
H68	H	1.820945	0.152394	-0.098938
C69	C	1.727361	-0.454816	-1.001509
C70	C	2.227361	0.045184	-0.501509
C71	C	1.703538	-0.375277	-0.965495
C72	C	2.203538	0.124723	-0.465495
H73	H	1.666612	-0.495944	-0.964474
H74	H	2.166612	0.004056	-0.464474
H75	H	1.722273	-0.458240	-1.090040
H76	H	2.222273	0.041760	-0.590040
H77	H	1.809351	-0.464212	-0.974415
H78	H	2.309351	0.035788	-0.474415
H79	H	1.621551	-0.365880	-0.992597
H80	H	2.121551	0.134120	-0.492597
H81	H	1.708614	-0.371851	-0.876945
H82	H	2.208614	0.128149	-0.376945
C83	C	1.967942	-0.196298	-1.143787
C84	C	2.467942	0.303702	-0.643787
C85	C	1.975438	-0.191238	-1.013274
C86	C	2.475438	0.308762	-0.513274
H87	H	2.028695	-0.155165	-1.180802
H88	H	2.528695	0.344835	-0.680802
H89	H	1.984095	-0.250256	-1.168202
H90	H	2.484095	0.249744	-0.668202
H91	H	1.885953	-0.186890	-1.170868
H92	H	2.385953	0.313110	-0.670868
H93	H	2.057425	-0.200652	-0.986192
H94	H	2.557425	0.299348	-0.486192
H95	H	1.959294	-0.137268	-0.988848
H96	H	2.459294	0.362732	-0.488848
H97	H	1.358852	-0.219261	-0.378542
H98	H	1.858852	0.280739	0.121458
C99	C	1.883769	-0.714445	-0.272201
C100	C	2.383769	-0.214445	0.227799
C101	C	1.957822	-0.756676	-0.350793
C102	C	2.457822	-0.256676	0.149207
H103	H	1.936045	-0.685264	-0.211267
H104	H	2.436045	-0.185264	0.288733
H105	H	1.842285	-0.675789	-0.320487
H106	H	2.342285	-0.175789	0.179513
H107	H	1.822767	-0.753645	-0.231534
H108	H	2.322767	-0.253645	0.268466
H109	H	2.018818	-0.717475	-0.391468
H110	H	2.518818	-0.217475	0.108532
H111	H	1.999327	-0.795336	-0.302500
H112	H	2.499327	-0.295336	0.197500
C113	C	1.730724	-0.895040	-0.615397
C114	C	2.230724	-0.395040	-0.115397
C115	C	1.720913	-0.809376	-0.626731
C116	C	2.220913	-0.309376	-0.126731
H117	H	1.678423	-0.924234	-0.676300
H118	H	2.178423	-0.424234	-0.176300
H119	H	1.815788	-0.904232	-0.628124
H120	H	2.315788	-0.404232	-0.128124
H121	H	1.704592	-0.914753	-0.534081
H122	H	2.204592	-0.414753	-0.034081
H123	H	1.747053	-0.789661	-0.708044
H124	H	2.247053	-0.289661	-0.208044
H125	H	1.635831	-0.800178	-0.614014
H126	H	2.135831	-0.300178	-0.114014
