data_functionalizedCrystal
_audit_creation_method	'MofGen! by Chris Wilmer'
_symmetry_space_group_name_H-M	'P1'
_symmetry_Int_Tables_number	1
_symmetry_cell_setting	triclinic
loop_
_symmetry_equiv_pos_as_xyz
  x,y,z
_cell_length_a	9.065215
_cell_length_b	14.853568
_cell_length_c	8.140239
_cell_angle_alpha	89.999137
_cell_angle_beta	89.999419
_cell_angle_gamma	95.675058
loop_
_atom_site_label
_atom_site_type_symbol
_atom_site_fract_x
_atom_site_fract_y
_atom_site_fract_z
O1	O	1.957775	-0.132181	0.136575
O2	O	2.457775	0.367819	0.636575
O3	O	1.528274	-0.143027	0.136581
O4	O	2.028274	0.356973	0.636581
O5	O	1.754497	-0.006459	0.136586
O6	O	2.254497	0.493541	0.636586
O7	O	1.731552	-0.268749	0.136570
O8	O	2.231552	0.231251	0.636570
O9	O	1.754497	-0.006452	-0.136641
O10	O	2.254497	0.493548	0.363359
O11	O	1.528275	-0.143020	-0.136646
O12	O	2.028275	0.356980	0.363354
O13	O	1.957775	-0.132174	-0.136652
O14	O	2.457775	0.367826	0.363348
Zn15	Zn	1.743025	-0.137596	-0.180030
Zn16	Zn	2.243025	0.362404	0.319970
Zn17	Zn	1.743024	-0.137605	0.179959
Zn18	Zn	2.243024	0.362395	0.679959
O19	O	1.731553	-0.268742	-0.136657
O20	O	2.231553	0.231258	0.363343
C21	C	1.473308	-0.141982	-0.000031
C22	C	1.973308	0.358018	0.499969
C23	C	1.309527	-0.138867	-0.000028
C24	C	1.809527	0.361133	0.499972
C25	C	1.753457	0.027141	-0.000022
C26	C	2.253457	0.527141	0.499978
C27	C	1.750341	0.127247	-0.000005
C28	C	2.250341	0.627247	0.499995
C29	C	1.602788	0.540872	-0.000024
C30	C	2.102788	1.040872	0.499976
C31	C	1.871546	0.560166	-0.000027
C32	C	2.371546	1.060166	0.499973
C33	C	1.874476	0.466111	-0.000019
C34	C	2.374476	0.966111	0.499981
C35	C	1.741560	0.409432	-0.000017
C36	C	2.241560	0.909432	0.499983
C37	C	1.605714	0.446808	-0.000021
C38	C	2.105714	0.946808	0.499979
C39	C	2.010319	0.428727	-0.000032
C40	C	2.510319	0.928727	0.499968
C41	C	2.013255	0.334666	-0.000026
C42	C	2.513255	0.834666	0.499974
C43	C	1.880337	0.277986	-0.000012
C44	C	2.380337	0.777986	0.499988
C45	C	1.744486	0.315367	-0.000014
C46	C	2.244486	0.815367	0.499986
C47	C	1.611570	0.258688	-0.000012
C48	C	2.111570	0.758688	0.499988
C49	C	1.475717	0.296068	-0.000002
C50	C	1.975717	0.796068	0.499998
C51	C	1.472797	0.390127	-0.000007
C52	C	1.972797	0.890127	0.499993
C53	C	1.883257	0.183927	-0.000008
C54	C	2.383257	0.683927	0.499992
C55	C	1.614495	0.164624	-0.000009
C56	C	2.114495	0.664624	0.499991
C57	C	2.012741	-0.133219	-0.000036
C58	C	2.512741	0.366781	0.499964
C59	C	2.176522	-0.136334	-0.000028
C60	C	2.676522	0.363666	0.499972
C61	C	1.732591	0.697658	-0.000039
C62	C	2.232591	1.197658	0.499961
C63	C	1.735704	0.597551	-0.000026
C64	C	2.235704	1.097551	0.499974
N65	N	1.743025	-0.137606	0.425642
N66	N	2.243025	0.362394	0.925642
N67	N	1.743022	-0.137595	0.574288
N68	N	2.243022	0.362405	1.074288
H69	H	1.506257	0.118481	0.000000
H70	H	2.006257	0.618481	0.500000
H71	H	1.367497	0.249908	-0.000012
H72	H	1.867497	0.749908	0.499988
H73	H	2.118532	0.474882	-0.000049
H74	H	2.618532	0.974882	0.499951
H75	H	1.362192	0.420571	-0.000001
H76	H	1.862192	0.920571	0.499999
H77	H	1.492180	0.571311	-0.000010
H78	H	1.992180	1.071311	0.499990
C79	C	2.032679	0.142809	-0.000020
C80	C	2.532679	0.642809	0.499980
C81	C	2.071661	0.080802	0.141861
C82	C	2.571661	0.580802	0.641861
C83	C	2.221093	0.039688	0.141851
C84	C	2.721093	0.539688	0.641851
C85	C	2.331543	0.060580	-0.000039
C86	C	2.831543	0.560580	0.499961
C87	C	2.292564	0.122590	-0.141930
C88	C	2.792564	0.622590	0.358070
C89	C	2.143132	0.163704	-0.141920
C90	C	2.643132	0.663704	0.358080
H91	H	1.989897	0.065334	0.246905
H92	H	2.489897	0.565334	0.746905
H93	H	2.249947	-0.006216	0.246889
H94	H	2.749947	0.493784	0.746889
H95	H	2.442161	0.030144	-0.000046
H96	H	2.942161	0.530144	0.499954
H97	H	2.374328	0.138058	-0.246975
H98	H	2.874328	0.638058	0.253025
H99	H	2.114278	0.209609	-0.246958
H100	H	2.614278	0.709609	0.253042
H101	H	2.123874	0.304240	-0.000031
H102	H	2.623874	0.804240	0.499969
H103	H	1.979760	0.606319	-0.000042
H104	H	2.479760	1.106319	0.499958
