data_functionalizedCrystal
_audit_creation_method	'MofGen! by Chris Wilmer'
_symmetry_space_group_name_H-M	'P1'
_symmetry_Int_Tables_number	1
_symmetry_cell_setting	triclinic
loop_
_symmetry_equiv_pos_as_xyz
  x,y,z
_cell_length_a	6.394989
_cell_length_b	10.654556
_cell_length_c	9.130313
_cell_angle_alpha	89.998135
_cell_angle_beta	90.001550
_cell_angle_gamma	94.507376
loop_
_atom_site_label
_atom_site_type_symbol
_atom_site_fract_x
_atom_site_fract_y
_atom_site_fract_z
O1	O	-0.293505	1.670943	-0.121734
O2	O	0.206495	2.170943	0.378266
O3	O	-0.321448	1.305762	-0.121748
O4	O	0.178552	1.805762	0.378252
O5	O	-0.003488	1.493536	-0.121741
O6	O	0.496512	1.993536	0.378259
O7	O	-0.611466	1.483169	-0.121740
O8	O	-0.111466	1.983169	0.378260
O9	O	-0.003479	1.493523	0.121857
O10	O	0.496521	1.993523	0.621857
O11	O	-0.321439	1.305749	0.121851
O12	O	0.178561	1.805749	0.621851
O13	O	-0.293496	1.670930	0.121865
O14	O	0.206504	2.170930	0.621865
Cu15	Cu	-0.307467	1.488338	0.144101
Cu16	Cu	0.192533	1.988338	0.644101
Cu17	Cu	-0.307478	1.488354	-0.143983
Cu18	Cu	0.192522	1.988354	0.356017
O19	O	-0.611456	1.483156	0.121859
O20	O	-0.111456	1.983156	0.621859
C21	C	-0.319389	1.258936	0.000050
C22	C	0.180611	1.758936	0.500050
C23	C	-0.313242	1.119428	0.000044
C24	C	0.186758	1.619428	0.500044
C25	C	-0.304593	0.922798	-0.132730
C26	C	0.195407	1.422798	0.367270
C27	C	-0.310356	1.053881	-0.132739
C28	C	0.189644	1.553881	0.367261
C29	C	-0.310345	1.053885	0.132845
C30	C	0.189655	1.553885	0.632845
C31	C	-0.304567	0.922805	0.132853
C32	C	0.195433	1.422805	0.632853
C33	C	0.074368	1.491480	0.000052
C34	C	0.574368	1.991480	0.500052
C35	C	0.310694	1.485215	0.000051
C36	C	0.810694	1.985215	0.500051
C37	C	-0.295555	1.717756	0.000065
C38	C	0.204445	2.217756	0.500065
C39	C	-0.301702	1.857264	0.000061
C40	C	0.198298	2.357264	0.500061
N41	N	-0.307458	1.488336	0.346723
N42	N	0.192542	1.988336	0.846723
N43	N	-0.307470	1.488365	-0.346606
N44	N	0.192530	1.988365	0.153394
C45	C	-0.166724	1.571512	0.423378
C46	C	0.333276	2.071512	0.923378
C47	C	-0.166725	1.571524	0.576715
C48	C	0.333275	2.071524	1.076715
C49	C	-0.448210	1.405180	0.576729
C50	C	0.051790	1.905180	1.076729
C51	C	-0.448198	1.405163	0.423395
C52	C	0.051802	1.905163	0.923395
H53	H	-0.302257	0.869438	-0.240858
H54	H	0.197743	1.369438	0.259142
H55	H	-0.312682	1.107265	0.240960
H56	H	0.187318	1.607265	0.740960
F57	F	-0.301485	0.853056	0.274195
F58	F	0.198515	1.353056	0.774195
H59	H	-0.562801	1.337465	0.639170
H60	H	-0.062801	1.837465	1.139170
H61	H	-0.052122	1.639235	0.360956
H62	H	0.447878	2.139235	0.860956
F63	F	-0.016934	1.660048	0.658291
F64	F	0.483066	2.160048	1.158291
F65	F	-0.313424	1.123622	-0.274074
F66	F	0.186576	1.623622	0.225926
F67	F	-0.597984	1.316627	0.341807
F68	F	-0.097984	1.816627	0.841807
