data_functionalizedCrystal
_audit_creation_method	'MofGen! by Chris Wilmer'
_symmetry_space_group_name_H-M	'P1'
_symmetry_Int_Tables_number	1
_symmetry_cell_setting	triclinic
loop_
_symmetry_equiv_pos_as_xyz
  x,y,z
_cell_length_a	15.944551
_cell_length_b	15.021413
_cell_length_c	15.944493
_cell_angle_alpha	90.009890
_cell_angle_beta	83.486891
_cell_angle_gamma	89.997174
loop_
_atom_site_label
_atom_site_type_symbol
_atom_site_fract_x
_atom_site_fract_y
_atom_site_fract_z
O1	O	1.114506	-0.073927	0.108324
O2	O	0.869954	-0.073948	0.121680
O3	O	0.998934	-0.073945	-0.007276
O4	O	0.985527	-0.073931	0.237280
O5	O	0.998913	0.074120	-0.007258
O6	O	0.869933	0.074116	0.121699
O7	O	1.114486	0.074137	0.108342
Zn8	Zn	0.992206	0.097635	0.115023
Zn9	Zn	0.992233	-0.097446	0.114999
O10	O	0.985506	0.074133	0.237299
C11	C	0.838650	0.000081	0.121135
C12	C	0.745404	0.000073	0.119473
N13	N	0.992194	0.230772	0.115039
C14	C	0.998375	0.000084	-0.038562
C15	C	0.996733	0.000072	-0.131810
C16	C	0.530565	0.000085	0.035566
C17	C	0.469547	-0.072916	0.074520
C18	C	0.574679	0.000083	0.116465
C19	C	0.469549	0.073064	0.074558
C20	C	0.409767	0.000097	0.113555
C21	C	0.514889	-0.072979	0.155442
C22	C	0.514897	0.073067	0.155468
C23	C	0.453897	0.000048	0.194481
C24	C	0.669681	0.000074	0.118140
C25	C	0.314766	0.000099	0.111886
C26	C	1.145790	0.000106	0.108888
C27	C	1.239036	0.000108	0.110550
N28	N	0.992252	-0.230584	0.114976
C29	C	0.932545	0.470454	0.174641
C30	C	1.008442	0.529796	0.190948
C31	C	0.992215	0.412379	0.115018
C32	C	0.916339	0.529779	0.098730
C33	C	0.992229	0.587803	0.115000
C34	C	1.068151	0.470415	0.131364
C35	C	0.975998	0.470392	0.039112
C36	C	1.051950	0.529708	0.055387
C37	C	0.992206	0.311322	0.115031
C38	C	0.992247	0.688859	0.114987
C39	C	1.072653	0.000095	-0.367570
C40	C	1.031722	-0.072911	-0.418147
C41	C	0.993688	0.000083	-0.302531
C42	C	1.031683	0.073069	-0.418105
C43	C	0.990754	0.000097	-0.467441
C44	C	0.952779	-0.072984	-0.351880
C45	C	0.952752	0.073061	-0.351835
C46	C	0.911763	0.000037	-0.402379
C47	C	0.995381	0.000074	-0.207531
C48	C	0.989055	0.000100	-0.562438
C49	C	0.986064	0.000103	0.268584
C50	C	0.987707	0.000109	0.361833
H51	H	0.563912	-0.000009	-0.031574
F52	F	1.152050	0.436479	0.149459
H53	H	1.022171	0.555888	0.255133
F54	F	0.541192	0.153745	0.200166
F55	F	1.117985	0.563506	-0.010530
H56	H	0.962245	0.444279	-0.025052
F57	F	1.161556	0.000010	-0.347140
F58	F	1.075280	0.153739	-0.455908
F59	F	0.832461	0.563864	0.080731
H60	H	0.882134	0.444437	0.225102
F61	F	0.443283	-0.153592	0.029789
H62	H	1.065078	-0.134628	-0.447101
H63	H	0.420724	0.000011	0.261690
F64	F	0.443294	0.153731	0.029826
F65	F	0.909229	-0.153747	-0.314224
H66	H	0.534878	-0.134763	0.189626
F67	F	0.822791	-0.000020	-0.422597
F68	F	0.909203	0.153733	-0.313954
