data_functionalizedCrystal
_audit_creation_method	'MofGen! by Chris Wilmer'
_symmetry_space_group_name_H-M	'P1'
_symmetry_Int_Tables_number	1
_symmetry_cell_setting	triclinic
loop_
_symmetry_equiv_pos_as_xyz
  x,y,z
_cell_length_a	8.497365
_cell_length_b	11.169417
_cell_length_c	11.169416
_cell_angle_alpha	89.988781
_cell_angle_beta	90.048102
_cell_angle_gamma	89.968956
loop_
_atom_site_label
_atom_site_type_symbol
_atom_site_fract_x
_atom_site_fract_y
_atom_site_fract_z
Zn1	Zn	-0.891931	1.835095	0.477478
Zn2	Zn	-0.558597	2.168429	0.810811
Zn3	Zn	-0.225264	2.501762	1.144144
Zn4	Zn	-0.628148	1.834945	0.678279
Zn5	Zn	-0.294815	2.168279	1.011612
Zn6	Zn	0.038518	2.501612	1.344945
Zn7	Zn	-0.628164	1.634342	0.477611
Zn8	Zn	-0.294831	1.967675	0.810945
Zn9	Zn	0.038502	2.301008	1.144278
Zn10	Zn	-0.891887	1.634389	0.678121
Zn11	Zn	-0.558554	1.967722	1.011454
Zn12	Zn	-0.225220	2.301055	1.344787
O13	O	-0.760033	1.734693	0.577872
O14	O	-0.426699	2.068026	0.911205
O15	O	-0.093366	2.401359	1.244539
O16	O	-0.856951	2.003025	0.504125
O17	O	-0.523617	2.336358	0.837458
O18	O	-0.190284	2.669692	1.170791
O19	O	-0.407388	1.808252	0.651782
O20	O	-0.074054	2.141586	0.985115
O21	O	0.259279	2.474919	1.318448
O22	O	-0.663179	1.661015	0.309644
O23	O	-0.329845	1.994349	0.642977
O24	O	0.003488	2.327682	0.976311
O25	O	-0.663151	2.002915	0.651652
O26	O	-0.329818	2.336248	0.984986
O27	O	0.003516	2.669582	1.318319
O28	O	-0.856966	1.808508	0.309546
O29	O	-0.523633	2.141841	0.642879
O30	O	-0.190300	2.475175	0.976212
O31	O	-0.407400	1.660870	0.504352
O32	O	-0.074066	1.994203	0.837686
O33	O	0.259267	2.327537	1.171019
O34	O	-0.663136	1.466398	0.504199
O35	O	-0.329803	1.799732	0.837532
O36	O	0.003530	2.133065	1.170866
O37	O	-1.112656	1.661095	0.651383
O38	O	-0.779322	1.994428	0.984716
O39	O	-0.445989	2.327762	1.318050
O40	O	-0.856892	1.466433	0.651512
O41	O	-0.523559	1.799766	0.984846
O42	O	-0.190226	2.133099	1.318179
O43	O	-1.112687	1.808553	0.503971
O44	O	-0.779354	2.141887	0.837305
O45	O	-0.446021	2.475220	1.170638
O46	O	-0.663109	1.808298	0.846207
O47	O	-0.329775	2.141631	1.179541
O48	O	0.003558	2.474965	1.512874
O49	O	-0.856877	1.660950	0.846091
O50	O	-0.523543	1.994283	1.179425
O51	O	-0.190210	2.327616	1.512758
C52	C	-0.760012	1.422868	0.577854
C53	C	-0.426679	1.756201	0.911187
C54	C	-0.093346	2.089535	1.244521
C55	C	-0.760041	1.289468	0.577875
C56	C	-0.426708	1.622801	0.911208
C57	C	-0.093374	1.956135	1.244542
C58	C	-0.760021	1.734645	0.889697
C59	C	-0.426687	2.067978	1.223030
C60	C	-0.093354	2.401312	1.556363
C61	C	-0.760068	1.734735	1.023097
C62	C	-0.426735	2.068068	1.356430
C63	C	-0.093402	2.401401	1.689763
C64	C	-0.350152	1.734606	0.578003
C65	C	-0.016819	2.067939	0.911336
C66	C	0.316514	2.401273	1.244670
C67	C	-0.171509	1.734777	0.577757
C68	C	0.161824	2.068110	0.911090
C69	C	0.495158	2.401444	1.244423
C70	C	-0.760054	2.047735	0.577891
C71	C	-0.426721	2.381068	0.911225
C72	C	-0.093387	2.714402	1.244558
C73	C	-0.760063	2.181135	0.577899
C74	C	-0.426730	2.514468	0.911233
C75	C	-0.093396	2.847802	1.244566
C76	C	-0.760079	1.734773	0.264830
C77	C	-0.426746	2.068107	0.598163
C78	C	-0.093413	2.401440	0.931496
C79	C	-0.760099	1.734807	0.131430
C80	C	-0.426766	2.068141	0.464763
C81	C	-0.093432	2.401474	0.798096
