data_functionalizedCrystal
_audit_creation_method	'MofGen! by Chris Wilmer'
_symmetry_space_group_name_H-M	'P1'
_symmetry_Int_Tables_number	1
_symmetry_cell_setting	triclinic
loop_
_symmetry_equiv_pos_as_xyz
  x,y,z
_cell_length_a	12.837943
_cell_length_b	17.038272
_cell_length_c	11.892095
_cell_angle_alpha	94.170821
_cell_angle_beta	85.689438
_cell_angle_gamma	92.970248
loop_
_atom_site_label
_atom_site_type_symbol
_atom_site_fract_x
_atom_site_fract_y
_atom_site_fract_z
O1	O	1.399724	0.200065	-0.093986
O2	O	1.097028	0.189958	-0.093992
O3	O	1.246576	0.081062	-0.093980
O4	O	1.250175	0.308961	-0.093998
O5	O	1.234106	0.090126	0.094026
O6	O	1.084557	0.199022	0.094014
O7	O	1.387254	0.209129	0.094021
Zn8	Zn	1.233926	0.205514	0.123868
Zn9	Zn	1.250356	0.193572	-0.123839
O10	O	1.237705	0.318025	0.094009
C11	C	1.051871	0.191076	0.000010
C12	C	0.935896	0.180893	0.000008
C13	C	0.705733	0.303310	0.000015
C14	C	0.596764	0.293746	0.000013
C15	C	0.608986	0.152201	0.000012
C16	C	0.717955	0.161765	0.000014
C17	C	0.766325	0.237322	0.000013
C18	C	0.875296	0.246885	0.000006
C19	C	0.887516	0.105342	0.000013
C20	C	0.778547	0.095777	0.000012
C21	C	1.237069	0.056221	0.000023
C22	C	1.227305	-0.031301	0.000022
C23	C	1.316945	-0.074719	0.000026
C24	C	1.307766	-0.156956	0.000015
C25	C	1.208945	-0.195773	0.000009
C26	C	1.119299	-0.152349	0.000002
C27	C	1.128480	-0.070114	0.000005
C28	C	1.176511	-0.443954	-0.000008
C29	C	1.167337	-0.526195	-0.000007
C30	C	1.355805	-0.530796	0.000003
C31	C	1.364977	-0.448559	0.000013
C32	C	1.275331	-0.405143	0.000001
C33	C	1.199560	-0.279832	0.000001
C34	C	1.284718	-0.321086	0.000000
C35	C	1.432411	0.208011	0.000016
C36	C	1.548386	0.218194	0.000011
C37	C	1.247213	0.342865	0.000003
C38	C	1.256977	0.430387	-0.000004
N39	N	1.222720	0.213665	0.292921
N40	N	1.261569	0.185416	-0.292892
C41	C	1.339540	0.128657	0.529578
C42	C	1.331715	0.134361	0.647919
C43	C	1.199241	0.230770	0.647947
C44	C	1.207066	0.225067	0.529605
C45	C	1.277219	0.174010	0.470425
C46	C	1.285048	0.168311	0.352082
C47	C	1.152569	0.264716	0.352111
C48	C	1.144745	0.270419	0.470453
H49	H	0.936862	0.051609	0.000004
H50	H	1.101826	0.301647	0.303936
H51	H	1.396668	0.087090	0.481393
N52	N	1.452484	-0.577631	0.000004
H53	H	1.499900	-0.567682	-0.069689
H54	H	1.490573	-0.560950	0.069745
N55	N	1.079824	-0.397134	-0.000014
H56	H	1.084053	-0.366274	-0.069712
H57	H	1.015885	-0.434257	0.000028
N58	N	0.556803	0.070715	0.000007
H59	H	0.611721	0.030359	0.000004
H60	H	0.507237	0.067023	0.069705
N61	N	0.927463	0.328376	-0.000001
H62	H	0.901206	0.361007	0.069695
H63	H	1.005680	0.324359	-0.000047
H64	H	0.547433	0.347480	0.000018
N65	N	1.398943	0.085454	0.711722
H66	H	1.383369	0.027702	0.691134
H67	H	1.475134	0.099144	0.691077
H68	H	0.745116	0.364831	0.000012
N69	N	1.060745	-0.568061	-0.000015
H70	H	1.025773	-0.556106	-0.069716
H71	H	1.068621	-0.626730	0.000033
N72	N	1.423531	-0.032855	0.000035
H73	H	1.426916	0.004515	0.069734
H74	H	1.478860	-0.072893	-0.000008
H75	H	0.739148	0.034262	0.000025
N76	N	1.404448	-0.203786	0.000024
H77	H	1.468442	-0.166717	0.000039
H78	H	1.400111	-0.234649	0.069721
N79	N	1.012712	-0.194211	-0.000012
H80	H	1.020496	-0.252895	-0.000009
H81	H	0.968544	-0.175473	0.069683
N82	N	1.471561	-0.406693	0.000026
H83	H	1.526957	-0.446678	0.000027
H84	H	1.484101	-0.376028	-0.069667
H85	H	1.055485	-0.034764	0.000002
N86	N	1.391298	-0.279220	0.000019
H87	H	1.446698	-0.319201	0.000026
H88	H	1.403838	-0.248556	-0.069675
H89	H	1.119099	-0.311445	-0.000001
H90	H	1.342172	0.126740	0.303898
N91	N	1.123569	0.285824	0.711786
H92	H	1.128068	0.282549	0.795730
H93	H	1.141908	0.341566	0.691107
H94	H	1.087625	0.311987	0.518651
