data_functionalizedCrystal
_audit_creation_method	'MofGen! by Chris Wilmer'
_symmetry_space_group_name_H-M	'P1'
_symmetry_Int_Tables_number	1
_symmetry_cell_setting	triclinic
loop_
_symmetry_equiv_pos_as_xyz
  x,y,z
_cell_length_a	10.967916
_cell_length_b	10.489716
_cell_length_c	9.482900
_cell_angle_alpha	99.433190
_cell_angle_beta	87.450335
_cell_angle_gamma	95.378845
loop_
_atom_site_label
_atom_site_type_symbol
_atom_site_fract_x
_atom_site_fract_y
_atom_site_fract_z
O1	O	-1.612134	0.225250	0.283006
O2	O	-1.262944	0.228049	0.195522
O3	O	-1.445500	0.041370	0.241253
O4	O	-1.429577	0.411929	0.237274
O5	O	-1.408420	0.079449	0.473757
O6	O	-1.225864	0.266127	0.428025
O7	O	-1.575054	0.263329	0.515510
Cu8	Cu	-1.397073	0.268205	0.492997
Cu9	Cu	-1.440924	0.223173	0.218034
O10	O	-1.392497	0.450007	0.469778
C11	C	-1.199690	0.244007	0.300571
C12	C	-1.066458	0.234813	0.267191
C13	C	-0.987850	0.250439	0.372753
C14	C	-0.850147	0.240936	0.338256
C15	C	-1.425765	0.012828	0.357201
C16	C	-1.422188	-0.128949	0.356292
C17	C	-1.534135	-0.222103	0.384352
C18	C	-1.493260	-0.320625	0.254898
C19	C	-1.456676	-0.283048	0.484122
C20	C	-1.381375	-0.225620	0.226755
C21	C	-1.344791	-0.188020	0.456086
C22	C	-1.303839	-0.286501	0.326584
C23	C	-0.638307	0.247370	0.410459
C24	C	-0.771540	0.256565	0.443833
C25	C	-1.412233	0.478549	0.353827
C26	C	-1.415812	0.620325	0.354727
N27	N	-1.366239	0.299878	0.686393
N28	N	-1.471768	0.191490	0.024641
C29	C	-1.431821	0.232508	0.775021
C30	C	-1.406176	0.258870	0.936014
H31	H	-0.806179	0.276975	0.559756
H32	H	-1.506951	0.155307	0.731713
C33	C	-1.339149	-0.191377	0.081672
C34	C	-1.343129	-0.058002	0.084168
C35	C	-1.304267	-0.026413	-0.049462
H36	H	-1.257634	-0.213795	0.060765
H37	H	-1.391624	-0.237994	0.010235
H38	H	-1.290655	-0.011401	0.155583
H39	H	-1.424632	-0.035553	0.105051
H40	H	-1.356742	-0.073030	-0.120899
H41	H	-1.222754	-0.048838	-0.070358
H42	H	-1.306973	0.064081	-0.047790
C43	C	-1.174008	-0.324565	0.293753
C44	C	-1.172521	-0.417401	0.169590
C45	C	-1.052950	-0.452512	0.139306
H46	H	-1.121481	-0.250136	0.279675
H47	H	-1.146440	-0.359864	0.371514
H48	H	-1.200073	-0.382100	0.091847
H49	H	-1.225023	-0.491851	0.183636
H50	H	-1.025383	-0.487810	0.217067
H51	H	-1.000433	-0.378075	0.125234
H52	H	-1.051928	-0.515512	0.055067
C53	C	-0.804116	0.213910	0.183612
C54	C	-0.834148	0.312498	0.111559
C55	C	-0.791777	0.287638	-0.030901
H56	H	-0.717708	0.211173	0.180765
H57	H	-0.841432	0.132909	0.138688
H58	H	-0.796828	0.393477	0.156471
H59	H	-0.920549	0.315251	0.114365
H60	H	-0.829093	0.206637	-0.075825
H61	H	-0.705370	0.284900	-0.033733
H62	H	-0.812157	0.354518	-0.079810
C63	C	-1.498893	-0.317445	0.629143
C64	C	-1.404229	-0.370546	0.687900
C65	C	-1.443089	-0.402261	0.821477
H66	H	-1.519878	-0.241444	0.691067
H67	H	-1.568479	-0.378965	0.617966
H68	H	-1.334664	-0.309030	0.699084
H69	H	-1.383232	-0.446558	0.626016
H70	H	-1.512675	-0.463781	0.810299
H71	H	-1.464074	-0.326255	0.883388
H72	H	-1.378871	-0.438305	0.861354
H73	H	-1.331033	0.336065	0.979315
C74	C	-1.266146	0.402802	0.744411
C75	C	-1.260636	0.408517	0.892566
C76	C	-1.168454	0.503329	0.946058
H77	H	-1.189595	0.381337	0.700553
H78	H	-1.283919	0.484718	0.724076
H79	H	-1.242855	0.326619	0.912888
H80	H	-1.337164	0.429999	0.936462
H81	H	-1.186228	0.585245	0.925724
H82	H	-1.091910	0.481855	0.902190
H83	H	-1.164711	0.507227	1.046587
H84	H	-1.546902	0.114285	0.981338
C85	C	-1.020421	0.207788	0.112555
C86	C	-1.050453	0.306375	0.040502
C87	C	-1.008082	0.281516	-0.101958
H88	H	-0.934013	0.205050	0.109708
H89	H	-1.057737	0.126787	0.067631
H90	H	-1.013133	0.387355	0.085414
H91	H	-1.136854	0.309129	0.043308
H92	H	-1.045398	0.200515	-0.146882
H93	H	-0.921675	0.278777	-0.104790
H94	H	-1.028462	0.348396	-0.150867
H95	H	-1.631530	-0.193515	0.408631
C96	C	-1.261048	-0.111299	0.569322
C97	C	-1.170166	-0.035942	0.503973
C98	C	-1.092998	0.034739	0.608252
H99	H	-1.307577	-0.056291	0.636226
H100	H	-1.223802	-0.169487	0.617470
H101	H	-1.207409	0.022240	0.455848
H102	H	-1.123607	-0.090917	0.437079
H103	H	-1.055752	-0.023449	0.656401
H104	H	-1.139538	0.089739	0.675150
H105	H	-1.031319	0.085868	0.563927
C106	C	-1.576990	-0.397018	0.141436
C107	C	-1.633351	-0.310853	0.072528
C108	C	-1.710510	-0.381172	-0.031979
H109	H	-1.530230	-0.450755	0.073428
H110	H	-1.637879	-0.449418	0.185306
H111	H	-1.572470	-0.258475	0.028659
H112	H	-1.680133	-0.257114	0.140498
H113	H	-1.771399	-0.433572	0.011891
H114	H	-1.663741	-0.434907	-0.099976
H115	H	-1.748769	-0.322720	-0.078737
H116	H	-1.022497	0.270845	0.488668
