data_functionalizedCrystal
_audit_creation_method	'MofGen! by Chris Wilmer'
_symmetry_space_group_name_H-M	'P1'
_symmetry_Int_Tables_number	1
_symmetry_cell_setting	triclinic
loop_
_symmetry_equiv_pos_as_xyz
  x,y,z
_cell_length_a	14.971486
_cell_length_b	16.109301
_cell_length_c	14.048226
_cell_angle_alpha	89.992144
_cell_angle_beta	89.998499
_cell_angle_gamma	83.537805
loop_
_atom_site_label
_atom_site_type_symbol
_atom_site_fract_x
_atom_site_fract_y
_atom_site_fract_z
O1	O	1.186791	0.108348	-0.079054
O2	O	1.686791	0.608348	0.420946
O3	O	0.926372	0.121323	-0.079081
O4	O	1.426372	0.621323	0.420919
O5	O	1.063735	-0.006187	-0.079057
O6	O	1.563735	0.493813	0.420943
O7	O	1.049427	0.235857	-0.079078
O8	O	1.549427	0.735857	0.420922
O9	O	1.063719	-0.006194	0.079264
O10	O	1.563719	0.493806	0.579264
O11	O	0.926355	0.121315	0.079241
O12	O	1.426355	0.621315	0.579241
O13	O	1.186774	0.108340	0.079267
O14	O	1.686774	0.608340	0.579267
Zn15	Zn	1.056562	0.114826	0.104391
Zn16	Zn	1.556562	0.614826	0.604391
Zn17	Zn	1.056584	0.114836	-0.104204
Zn18	Zn	1.556584	0.614836	0.395796
O19	O	1.049411	0.235850	0.079244
O20	O	1.549411	0.735850	0.579244
C21	C	0.893040	0.120739	0.000077
C22	C	1.393040	0.620739	0.500077
C23	C	0.793745	0.119000	0.000067
C24	C	1.293745	0.619000	0.500067
C25	C	1.063147	-0.037166	0.000104
C26	C	1.563147	0.462834	0.500104
C27	C	1.061410	-0.129464	0.000105
C28	C	1.561410	0.370536	0.500105
C29	C	0.736412	0.193908	0.000062
C30	C	1.236412	0.693908	0.500062
C31	C	0.643115	0.192269	0.000076
C32	C	1.143115	0.692269	0.500076
C33	C	0.607153	0.115721	0.000089
C34	C	1.107153	0.615721	0.500089
C35	C	0.664494	0.040807	0.000097
C36	C	1.164494	0.540807	0.500097
C37	C	0.757789	0.042447	0.000089
C38	C	1.257789	0.542447	0.500089
C39	C	0.470036	0.037395	0.000110
C40	C	0.970036	0.537395	0.500110
C41	C	0.376734	0.035755	0.000116
C42	C	0.876734	0.535755	0.500116
C43	C	0.355362	0.187217	0.000097
C44	C	0.855362	0.687217	0.500097
C45	C	0.448657	0.188857	0.000090
C46	C	0.948657	0.688857	0.500090
C47	C	0.505991	0.113942	0.000096
C48	C	1.005991	0.613942	0.500096
C49	C	1.138878	-0.351640	0.000098
C50	C	1.638878	0.148360	0.500098
C51	C	1.137239	-0.438362	0.000090
C52	C	1.637239	0.061638	0.500090
C53	C	0.974262	-0.418691	0.000077
C54	C	1.474262	0.081309	0.500077
C55	C	0.975902	-0.331970	0.000078
C56	C	1.475902	0.168030	0.500078
C57	C	1.058213	-0.298447	0.000094
C58	C	1.558213	0.201553	0.500094
C59	C	1.054933	-0.471890	0.000085
C60	C	1.554933	0.028110	0.500085
C61	C	1.053155	-0.565918	0.000076
C62	C	1.553155	-0.065918	0.500076
C63	C	1.059992	-0.204413	0.000101
C64	C	1.559992	0.295587	0.500101
C65	C	1.220106	0.108924	0.000108
C66	C	1.720106	0.608924	0.500108
C67	C	1.319401	0.110663	0.000111
C68	C	1.819401	0.610663	0.500111
C69	C	1.049999	0.266829	0.000080
C70	C	1.549999	0.766829	0.500080
C71	C	1.051736	0.359127	0.000073
C72	C	1.551736	0.859127	0.500073
N73	N	1.056554	0.114819	0.246752
N74	N	1.556554	0.614819	0.746752
N75	N	1.056599	0.114837	-0.246565
N76	N	1.556599	0.614837	0.253435
C77	C	1.117397	0.058381	0.296580
C78	C	1.617397	0.558381	0.796580
C79	C	1.117403	0.058381	0.396238
C80	C	1.617403	0.558381	0.896238
C81	C	1.056570	0.114823	0.446065
C82	C	1.556570	0.614823	0.946065
C83	C	0.995719	0.171263	0.396230
C84	C	1.495719	0.671263	0.896230
C85	C	0.995710	0.171259	0.296574
C86	C	1.495710	0.671259	0.796574
C87	C	0.995745	0.171269	0.603944
C88	C	1.495745	0.671269	1.103944
C89	C	0.995756	0.171275	0.703607
C90	C	1.495756	0.671275	1.203607
C91	C	1.117439	0.058391	0.703608
C92	C	1.617439	0.558391	1.203608
C93	C	1.117429	0.058387	0.603952
C94	C	1.617429	0.558387	1.103952
C95	C	1.056580	0.114829	0.554123
C96	C	1.556580	0.614829	1.054123
H97	H	0.596437	0.253267	0.000071
H98	H	1.096437	0.753267	0.500071
N99	N	0.885489	-0.454852	0.000080
N100	N	1.385489	0.045148	0.500080
H101	H	0.834637	-0.407992	0.000077
H102	H	1.334637	0.092008	0.500077
H103	H	0.881259	-0.490399	-0.058610
H104	H	1.381259	0.009601	0.441390
H105	H	0.910211	-0.288658	0.000072
H106	H	1.410211	0.211342	0.500072
N107	N	0.819634	-0.038345	0.000089
N108	N	1.319634	0.461655	0.500089
H109	H	0.858819	-0.041041	0.058778
H110	H	1.358819	0.458959	0.558778
H111	H	0.782637	-0.087042	0.000060
H112	H	1.282637	0.412958	0.500060
H113	H	1.202924	-0.481669	0.000092
H114	H	1.702924	0.018331	0.500092
H115	H	0.308675	0.248215	0.000097
H116	H	0.808675	0.748215	0.500097
H117	H	1.166969	0.012432	0.563383
H118	H	1.666969	0.512432	1.063383
N119	N	1.183017	-0.002491	0.242841
N120	N	1.683017	0.497509	0.742841
H121	H	1.221561	-0.038245	0.289533
H122	H	1.721561	0.461755	0.789533
H123	H	1.148786	-0.039302	0.201505
H124	H	1.648786	0.460698	0.701505
H125	H	1.166946	0.012424	0.436808
H126	H	1.666946	0.512424	0.936808
N127	N	1.183073	-0.002485	0.757344
N128	N	1.683073	0.497515	1.257344
H129	H	1.173848	0.006077	0.828036
H130	H	1.673848	0.506077	1.328036
H131	H	1.172766	-0.061484	0.739936
H132	H	1.672766	0.438516	1.239936
H133	H	0.946218	0.217235	0.744171
H134	H	1.446218	0.717235	1.244171
H135	H	0.946192	0.217228	0.563377
H136	H	1.446192	0.717228	1.063377
N137	N	0.930103	0.232135	0.449974
N138	N	1.430103	0.732135	0.949974
H139	H	0.964272	0.269003	0.491306
H140	H	1.464272	0.769003	0.991306
H141	H	0.891569	0.267831	0.403227
H142	H	1.391569	0.767831	0.903227
H143	H	0.946164	0.217216	0.256004
H144	H	1.446164	0.717216	0.756004
H145	H	0.765684	0.256242	0.000051
H146	H	1.265684	0.756242	0.500051
H147	H	0.347458	-0.026577	0.000128
H148	H	0.847458	0.473423	0.500128
N149	N	0.487449	0.271417	0.000058
N150	N	0.987449	0.771417	0.500058
H151	H	0.436973	0.318626	0.000054
H152	H	0.936973	0.818626	0.500054
H153	H	0.525698	0.275397	0.058743
H154	H	1.025698	0.775397	0.558743
H155	H	0.516716	-0.023609	0.000117
H156	H	1.016716	0.476391	0.500117
N157	N	1.227654	-0.315483	0.000107
N158	N	1.727654	0.184517	0.500107
H159	H	1.216456	-0.252474	0.000112
H160	H	1.716456	0.247526	0.500112
H161	H	1.262943	-0.334948	0.058802
H162	H	1.762943	0.165052	0.558802
H163	H	0.635206	-0.021520	0.000121
H164	H	1.135206	0.478480	0.500121
