data_functionalizedCrystal
_audit_creation_method	'MofGen! by Chris Wilmer'
_symmetry_space_group_name_H-M	'P1'
_symmetry_Int_Tables_number	1
_symmetry_cell_setting	triclinic
loop_
_symmetry_equiv_pos_as_xyz
  x,y,z
_cell_length_a	10.540539
_cell_length_b	23.532407
_cell_length_c	9.016244
_cell_angle_alpha	89.993097
_cell_angle_beta	89.994699
_cell_angle_gamma	83.687085
loop_
_atom_site_label
_atom_site_type_symbol
_atom_site_fract_x
_atom_site_fract_y
_atom_site_fract_z
O1	O	1.683259	0.080251	-0.123287
O2	O	1.313598	0.087813	-0.123307
O3	O	1.509576	0.001174	-0.123270
O4	O	1.487282	0.166890	-0.123325
O5	O	1.509547	0.001176	0.123411
O6	O	1.313570	0.087815	0.123373
O7	O	1.683231	0.080253	0.123393
Cu8	Cu	1.498398	0.084034	0.145907
Cu9	Cu	1.498431	0.084032	-0.145821
O10	O	1.487253	0.166892	0.123356
C11	C	1.266300	0.087246	0.000031
C12	C	1.125407	0.085550	0.000024
C13	C	0.944114	0.020541	0.000622
C14	C	1.090676	0.022261	0.000050
C15	C	1.062751	0.116006	-0.140847
C16	C	0.916278	0.113846	-0.140949
C17	C	0.915715	0.115136	0.139573
C18	C	1.062677	0.115719	0.141419
C19	C	1.508994	-0.020045	0.000075
C20	C	1.507287	-0.083273	0.000086
C21	C	1.612557	-0.481681	0.000010
C22	C	1.610971	-0.541092	-0.000001
O23	O	1.708557	-0.577192	-0.000051
N24	N	1.494462	-0.564488	-0.000006
C25	C	1.379532	-0.528469	-0.000015
O26	O	1.280287	-0.553824	-0.000022
C27	C	1.381119	-0.469060	-0.000015
C28	C	1.497635	-0.445667	0.000006
C29	C	1.729064	-0.458288	0.000029
C30	C	1.730649	-0.398882	0.000043
C31	C	1.615727	-0.362868	0.000038
C32	C	1.499220	-0.386261	0.000020
C33	C	1.266190	-0.433042	-0.000034
C34	C	1.267787	-0.373629	-0.000035
C35	C	1.384303	-0.350237	-0.000014
C36	C	1.385883	-0.290840	0.000029
N37	N	1.502392	-0.267444	0.000035
C38	C	1.617314	-0.303458	0.000039
C39	C	1.376208	-0.653234	-0.000019
C40	C	1.374620	-0.712642	-0.000010
C41	C	1.606059	-0.725261	0.000002
C42	C	1.607646	-0.665851	0.000003
C43	C	1.492717	-0.629838	-0.000014
C44	C	1.620634	-0.178700	0.000070
C45	C	1.622209	-0.119287	0.000090
C46	C	1.390770	-0.106674	0.000071
C47	C	1.389194	-0.166081	0.000059
C48	C	1.504137	-0.202093	0.000053
O49	O	1.288349	-0.254705	0.000073
O50	O	1.716543	-0.278095	0.000026
C51	C	1.730530	0.080819	0.000052
C52	C	1.871422	0.082516	0.000048
C53	C	1.487835	0.188111	0.000008
C54	C	1.489542	0.251339	-0.000013
N55	N	1.498383	0.084035	0.351093
N56	N	1.498456	0.084026	-0.351007
C57	C	1.393236	0.130226	0.586106
C58	C	1.393460	0.130399	0.414215
C59	C	1.630663	0.097553	0.413434
C60	C	1.630086	0.097880	0.585378
C61	C	1.472574	0.024176	0.585655
C62	C	1.469516	0.024564	0.413701
H63	H	0.888818	0.091335	-0.246237
H64	H	1.295110	0.122265	0.372069
C65	C	1.121230	0.087420	-0.282464
N66	N	1.165273	0.065884	-0.389127
H67	H	1.174194	-0.344309	-0.000050
C68	C	1.415143	0.189874	0.644436
N69	N	1.431647	0.234801	0.688373
C70	C	1.661027	0.156873	0.639522
N71	N	1.684322	0.201310	0.680296
C72	C	1.576239	-0.022280	0.640605
N73	N	1.654322	-0.057266	0.682004
H74	H	0.866816	0.159363	-0.147358
H75	H	1.134064	-0.001703	0.101034
H76	H	1.822652	-0.487605	0.000027
H77	H	1.717094	-0.100245	0.000111
H78	H	0.914735	-0.004357	-0.099826
H79	H	1.083579	0.162484	-0.146104
C80	C	1.415680	0.190386	0.358602
N81	N	1.432424	0.235569	0.316717
H82	H	1.279741	-0.731682	-0.000000
H83	H	1.294574	0.122217	0.627497
C84	C	1.735822	-0.640126	0.000012
N85	N	1.832369	-0.620752	0.000013
H86	H	1.297204	-0.077341	0.000073
C87	C	1.732476	-0.764887	-0.000009
N88	N	1.827687	-0.794736	-0.000019
H89	H	0.884828	0.094655	0.246352
C90	C	1.093379	0.178052	0.152907
N91	N	1.116511	0.225003	0.161557
H92	H	0.866987	0.160849	0.140509
H93	H	1.104358	0.093470	0.245635
H94	H	1.372214	0.014317	0.372958
C95	C	1.249767	-0.613623	-0.000019
N96	N	1.154532	-0.583792	-0.000019
C97	C	1.148162	-0.010342	-0.136594
N98	N	1.191460	-0.034898	-0.239522
H99	H	1.710792	0.064822	0.372544
C100	C	1.747077	-0.218304	0.000078
N101	N	1.842314	-0.248135	0.000096
C102	C	1.261021	-0.191813	0.000046
N103	N	1.164479	-0.211190	0.000021
H104	H	1.710788	0.065586	0.626975
C105	C	0.906576	-0.013236	0.137103
N106	N	0.878291	-0.038679	0.239904
C107	C	1.345129	0.006807	0.644296
N108	N	1.249131	-0.006268	0.688463
C109	C	1.662379	0.155880	0.355241
N110	N	1.686257	0.199815	0.311418
H111	H	1.825528	-0.379842	0.000053
C112	C	1.138010	-0.458760	-0.000067
N113	N	1.041458	-0.478129	-0.000096
C114	C	1.566412	-0.024113	0.355695
N115	N	1.639413	-0.060775	0.312018
