data_functionalizedCrystal
_audit_creation_method	'MofGen! by Chris Wilmer'
_symmetry_space_group_name_H-M	'P1'
_symmetry_Int_Tables_number	1
_symmetry_cell_setting	triclinic
loop_
_symmetry_equiv_pos_as_xyz
  x,y,z
_cell_length_a	15.944551
_cell_length_b	15.944551
_cell_length_c	14.421503
_cell_angle_alpha	90.003340
_cell_angle_beta	89.996859
_cell_angle_gamma	83.498738
loop_
_atom_site_label
_atom_site_type_symbol
_atom_site_fract_x
_atom_site_fract_y
_atom_site_fract_z
O1	O	1.114529	0.108320	-0.077017
O2	O	0.869980	0.121677	-0.077040
O3	O	0.998933	-0.007276	-0.077020
O4	O	0.985576	0.237273	-0.077038
O5	O	0.998911	-0.007257	0.077204
O6	O	0.869958	0.121696	0.077183
O7	O	1.114508	0.108340	0.077206
Cu8	Cu	0.992231	0.115020	0.091277
Cu9	Cu	0.992256	0.114997	-0.091110
O10	O	0.985555	0.237293	0.077186
C11	C	0.838675	0.121132	0.000069
C12	C	0.745429	0.119470	0.000060
C13	C	0.530572	0.035565	0.000084
C14	C	0.469563	0.074518	-0.075959
C15	C	0.574703	0.116462	0.000071
C16	C	0.469564	0.074556	0.076093
C17	C	0.409790	0.113551	0.000086
C18	C	0.514922	0.155437	-0.076035
C19	C	0.514929	0.155464	0.076086
C20	C	0.453937	0.194476	0.000024
C21	C	0.669705	0.118137	0.000062
C22	C	0.314789	0.111883	0.000089
C23	C	0.998367	-0.038561	0.000092
C24	C	0.996705	-0.131807	0.000093
C25	C	0.912801	-0.346663	0.000072
C26	C	0.951753	-0.407671	0.076117
C27	C	0.993698	-0.302533	0.000085
C28	C	0.951793	-0.407674	-0.075935
C29	C	0.990787	-0.467445	0.000074
C30	C	1.032672	-0.362312	0.076193
C31	C	1.032701	-0.362308	-0.075927
C32	C	1.071711	-0.423298	0.000136
C33	C	0.995372	-0.207530	0.000092
C34	C	0.989119	-0.562446	0.000073
C35	C	1.145813	0.108885	0.000096
C36	C	1.239059	0.110547	0.000098
C37	C	0.986120	0.268577	0.000072
C38	C	0.987782	0.361823	0.000066
N39	N	0.992219	0.115035	0.219558
N40	N	0.992275	0.114975	-0.219392
C41	C	0.932581	0.174636	0.469202
C42	C	1.008481	0.190943	0.531011
C43	C	0.992240	0.115015	0.408719
C44	C	0.916359	0.098727	0.531005
C45	C	0.992253	0.114997	0.591441
C46	C	1.068178	0.131360	0.469167
C47	C	0.976007	0.039111	0.469156
C48	C	1.051961	0.055386	0.530936
C49	C	0.992231	0.115027	0.303458
C50	C	0.992270	0.114985	0.696700
H51	H	0.534918	0.189620	-0.140394
Cl52	Cl	0.402738	0.298236	-0.000046
Cl53	Cl	0.438529	0.021682	-0.175211
Cl54	Cl	0.546001	0.208260	0.175341
Cl55	Cl	1.029700	0.290034	0.572960
Cl56	Cl	0.817278	0.077467	0.572944
Cl57	Cl	0.438540	0.021722	0.175348
Cl58	Cl	1.167285	0.152734	0.427412
Cl59	Cl	0.809130	-0.295238	0.000173
Cl60	Cl	0.954753	-0.059951	0.427170
H61	H	1.066897	-0.342186	-0.140214
H62	H	0.917527	-0.427771	0.140401
H63	H	1.066850	-0.342314	0.140554
H64	H	1.138919	-0.456457	0.000186
H65	H	1.102474	0.004956	0.557872
Cl66	Cl	0.854768	0.252538	0.427345
Cl67	Cl	0.581998	-0.068105	-0.000021
Cl68	Cl	0.898958	-0.438705	-0.175187
