data_functionalizedCrystal
_audit_creation_method	'MofGen! by Chris Wilmer'
_symmetry_space_group_name_H-M	'P1'
_symmetry_Int_Tables_number	1
_symmetry_cell_setting	triclinic
loop_
_symmetry_equiv_pos_as_xyz
  x,y,z
_cell_length_a	17.640280
_cell_length_b	15.297475
_cell_length_c	15.296720
_cell_angle_alpha	91.617114
_cell_angle_beta	89.704419
_cell_angle_gamma	112.532054
loop_
_atom_site_label
_atom_site_type_symbol
_atom_site_fract_x
_atom_site_fract_y
_atom_site_fract_z
Zn1	Zn	-0.622537	-1.417125	0.611407
Zn2	Zn	-0.737717	-1.472679	0.443610
Zn3	Zn	-0.577601	-1.284185	0.447963
Zn4	Zn	-0.729855	-1.298838	0.566194
O5	O	-0.666928	-1.368207	0.517293
O6	O	-0.659913	-1.552884	0.606249
O7	O	-0.700962	-1.464792	0.324484
O8	O	-0.471640	-1.272438	0.490387
O9	O	-0.744535	-1.593699	0.482969
O10	O	-0.504655	-1.370108	0.610469
O11	O	-0.583325	-1.326306	0.327682
O12	O	-0.575701	-1.157739	0.446546
O13	O	-0.731134	-1.297411	0.691895
O14	O	-0.687561	-1.168505	0.533410
O15	O	-0.652289	-1.384317	0.725113
O16	O	-0.848596	-1.479001	0.439128
O17	O	-0.842819	-1.351280	0.529189
C18	C	-0.625902	-1.129832	0.485544
C19	C	-0.608374	-1.027857	0.471978
C20	C	-0.874735	-1.422781	0.478802
C21	C	-0.963653	-1.446208	0.462375
C22	C	-0.695847	-1.336302	0.740410
C23	C	-0.708171	-1.322705	0.835489
C24	C	-1.241111	-1.190566	0.642449
C25	C	-1.324661	-1.212585	0.626986
C26	C	-1.330638	-1.345637	0.533325
C27	C	-1.247088	-1.323632	0.548783
C28	C	-1.202331	-1.246095	0.603345
C29	C	-1.208307	-1.379161	0.509680
C30	C	-1.124764	-1.357155	0.525133
C31	C	-1.080001	-1.279619	0.579690
C32	C	-1.118787	-1.224088	0.618798
C33	C	-1.253065	-1.456695	0.455113
C34	C	-1.214284	-1.512223	0.416010
C35	C	-1.130740	-1.490221	0.431468
C36	C	-1.085977	-1.412686	0.486025
C37	C	-1.091954	-1.545752	0.392360
C38	C	-1.008410	-1.523746	0.407814
C39	C	-1.002434	-1.390679	0.501479
C40	C	-0.458316	-1.313441	0.555957
C41	C	-0.369418	-1.290104	0.572433
C42	C	-0.708114	-1.607512	0.549167
C43	C	-0.725665	-1.709490	0.562750
C44	C	-0.792215	-0.763060	0.614251
C45	C	-0.808690	-0.858873	0.626993
C46	C	-0.758612	-0.901123	0.588241
C47	C	-0.692057	-0.847552	0.536744
C48	C	-0.675584	-0.751731	0.523995
C49	C	-0.641981	-0.889795	0.497984
C50	C	-0.575426	-0.836223	0.446487
C51	C	-0.558956	-0.740412	0.433741
C52	C	-0.609034	-0.698161	0.472493
C53	C	-0.658454	-0.985615	0.510734
C54	C	-0.541823	-0.974287	0.420477
C55	C	-0.525349	-0.878474	0.407735
C56	C	-0.638072	-1.400025	0.295063
C57	C	-0.625554	-1.413740	0.200050
C58	C	-0.578714	-1.465377	1.172680
C59	C	-0.567138	-1.478158	1.083349
C60	C	-0.602395	-1.439295	1.021380
C61	C	-0.649231	-1.387651	1.048750
C62	C	-0.660813	-1.374876	1.138089
C63	C	-0.684494	-1.348794	0.986789
C64	C	-0.731330	-1.297150	1.014159
C65	C	-0.742910	-1.284376	1.103490
C66	C	-0.707653	-1.323238	1.165459
C67	C	-0.672911	-1.361569	0.897450
C68	C	-0.755010	-1.271068	0.862859
C69	C	-0.766587	-1.258288	0.952190
H70	H	-0.965993	-1.327546	0.545916
Cl71	Cl	-1.184842	-1.093096	0.711051
Cl72	Cl	-0.534406	-1.514236	1.250585
Cl73	Cl	-0.975035	-1.252135	0.599344
H74	H	-0.862881	-0.902485	0.668921
Cl75	Cl	-0.614033	-1.426490	0.863052
Cl76	Cl	-0.799341	-1.222216	0.784960
H77	H	-0.772030	-0.979139	0.598619
H78	H	-0.717076	-1.312836	1.238201
H79	H	-1.367089	-1.408766	0.488898
H80	H	-1.082346	-1.160955	0.663235
H81	H	-0.781055	-1.242333	1.125770
H82	H	-0.804721	-1.216238	0.974487
H83	H	-0.504770	-0.696799	0.391798
H84	H	-1.356236	-1.167370	0.658845
H85	H	-0.712644	-1.029224	0.552664
H86	H	-0.471159	-0.834842	0.365805
H87	H	-0.501047	-1.008687	0.388920
Cl88	Cl	-0.508261	-1.543078	1.048947
Cl89	Cl	-0.587837	-1.455360	0.909077
H90	H	-0.832985	-0.728652	0.645792
H91	H	-1.250736	-1.575352	0.371583
Cl92	Cl	-1.358102	-1.484388	0.435722
Cl93	Cl	-0.588321	-0.577704	0.456483
H94	H	-1.128405	-1.608877	0.347929
H95	H	-0.976835	-1.568963	0.375970
