data_functionalizedCrystal
_audit_creation_method	'MofGen! by Chris Wilmer'
_symmetry_space_group_name_H-M	'P1'
_symmetry_Int_Tables_number	1
_symmetry_cell_setting	triclinic
loop_
_symmetry_equiv_pos_as_xyz
  x,y,z
_cell_length_a	10.654550
_cell_length_b	16.992695
_cell_length_c	9.730223
_cell_angle_alpha	89.998169
_cell_angle_beta	89.996251
_cell_angle_gamma	87.576563
loop_
_atom_site_label
_atom_site_type_symbol
_atom_site_fract_x
_atom_site_fract_y
_atom_site_fract_z
O1	O	1.677356	0.110186	-0.114405
O2	O	1.312785	0.120685	-0.114384
O3	O	1.493609	0.001285	-0.114383
O4	O	1.496532	0.229586	-0.114405
O5	O	1.493607	0.001288	0.114196
O6	O	1.312783	0.120688	0.114196
O7	O	1.677354	0.110189	0.114175
Zn8	Zn	1.495068	0.115439	0.150477
Zn9	Zn	1.495071	0.115435	-0.150686
O10	O	1.496530	0.229589	0.114174
C11	C	1.265919	0.119915	-0.000091
C12	C	1.126277	0.117609	-0.000082
C13	C	1.052866	0.187910	-0.000109
C14	C	0.921658	0.185738	-0.000132
C15	C	0.937282	0.042959	-0.000108
C16	C	1.068488	0.045131	-0.000075
C17	C	1.043844	0.270342	-0.000129
C18	C	0.912636	0.268171	-0.000152
C19	C	1.489848	-0.027947	-0.000093
C20	C	1.478628	-0.115052	-0.000093
C21	C	1.586879	-0.164704	-0.000098
C22	C	1.576330	-0.246548	-0.000111
C23	C	1.457529	-0.278738	-0.000108
C24	C	1.349270	-0.229080	-0.000107
C25	C	1.359820	-0.147237	-0.000105
C26	C	1.413802	-0.522574	-0.000124
C27	C	1.403260	-0.604422	-0.000123
C28	C	1.630321	-0.621884	-0.000129
C29	C	1.640861	-0.540040	-0.000118
C30	C	1.532602	-0.490389	-0.000124
N31	N	1.446743	-0.362396	-0.000116
N32	N	1.543389	-0.406733	-0.000126
C33	C	1.724220	0.110959	-0.000121
C34	C	1.863862	0.113265	-0.000139
C35	C	1.500291	0.258821	-0.000119
C36	C	1.511510	0.345926	-0.000128
N37	N	1.495075	0.115441	0.356014
N38	N	1.495073	0.115427	-0.356223
C39	C	1.575168	0.062589	0.427940
C40	C	1.575164	0.062580	0.571823
C41	C	1.414971	0.168281	0.571841
C42	C	1.414970	0.168286	0.427961
C43	C	1.667658	0.001565	0.427931
C44	C	1.667654	0.001556	0.571814
H45	H	1.081769	0.296589	-0.098819
C46	C	1.328078	0.225781	0.649780
C47	C	1.356156	0.302997	0.614763
C48	C	1.276123	0.355987	0.686514
H49	H	1.339464	0.218318	0.745793
H50	H	1.243348	0.216818	0.626169
H51	H	1.440866	0.311956	0.638383
H52	H	1.344763	0.310484	0.518762
H53	H	1.191393	0.347024	0.662903
H54	H	1.287515	0.348517	0.782524
H55	H	1.295155	0.408383	0.662756
H56	H	1.632216	-0.055428	0.616437
H57	H	1.271671	-0.106811	-0.000101
C58	C	1.632027	-0.078873	0.376122
C59	C	1.610234	-0.128083	0.488273
C60	C	1.577392	-0.202182	0.440600
H61	H	1.698533	-0.101266	0.321910
H62	H	1.558004	-0.073364	0.321932
H63	H	1.684248	-0.133595	0.542441
H64	H	1.543723	-0.105716	0.542496
H65	H	1.503369	-0.196673	0.386410
H66	H	1.643902	-0.224567	0.386389
H67	H	1.562590	-0.235578	0.516687
H68	H	1.683620	-0.138501	-0.000092
H69	H	1.765327	0.014998	0.610857
C70	C	1.791556	0.027020	0.368666
C71	C	1.873633	0.043885	0.476069
C72	C	1.987782	0.067328	0.421527
H73	H	1.777160	0.072726	0.313740
H74	H	1.827722	-0.014237	0.313753
H75	H	1.837474	0.085138	0.530960
H76	H	1.888065	-0.001810	0.531005
H77	H	2.023949	0.026072	0.366613
H78	H	1.973373	0.113032	0.366601
H79	H	2.043489	0.078767	0.494391
H80	H	1.306513	-0.630628	-0.000099
H81	H	1.128255	-0.012114	-0.000033
C82	C	1.296376	-0.468578	0.000092
C83	C	1.295811	-0.421067	0.117671
C84	C	1.187663	-0.371304	0.117907
H85	H	1.224017	-0.499372	0.000168
H86	H	1.295769	-0.436242	-0.079580
H87	H	1.296406	-0.453400	0.197322
H88	H	1.368145	-0.390257	0.117619
H89	H	1.187056	-0.338968	0.038235
H90	H	1.115313	-0.402104	0.117980
H91	H	1.187272	-0.339058	0.197676
C92	C	1.328211	0.225709	0.349698
C93	C	1.399949	0.274119	0.267071
C94	C	1.320067	0.327023	0.194945
H95	H	1.280484	0.257255	0.413003
H96	H	1.273098	0.197206	0.293491
H97	H	1.455039	0.302620	0.323273
H98	H	1.447673	0.242595	0.203740
H99	H	1.264954	0.298520	0.138738
H100	H	1.272343	0.358563	0.258260
H101	H	1.368728	0.359870	0.138865
H102	H	1.252539	-0.255296	-0.000114
H103	H	0.890215	-0.016050	-0.000123
H104	H	0.873588	0.299229	-0.095823
C105	C	1.086436	0.313316	0.127540
C106	C	0.981317	0.337433	0.205602
C107	C	1.020505	0.377010	0.323226
H108	H	1.131060	0.358124	0.101156
H109	H	1.139690	0.278987	0.180779
H110	H	0.928084	0.371760	0.152373
H111	H	0.936681	0.292640	0.232022
H112	H	1.073759	0.342681	0.376464
H113	H	1.065130	0.421815	0.296828
H114	H	0.949190	0.393372	0.376211
C115	C	1.693971	-0.300359	-0.000323
C116	C	1.765054	-0.285696	-0.117899
C117	C	1.873448	-0.335242	-0.118133
H118	H	1.670860	-0.353738	-0.000400
H119	H	1.742407	-0.290523	0.079351
H120	H	1.716627	-0.295537	-0.197552
H121	H	1.788198	-0.232326	-0.117847
H122	H	1.921885	-0.325407	-0.038460
H123	H	1.850325	-0.388619	-0.118207
H124	H	1.921697	-0.325295	-0.197900
C125	C	1.769883	-0.505141	-0.000403
C126	C	1.835805	-0.530298	-0.118021
C127	C	1.954660	-0.498159	-0.118330
H128	H	1.814948	-0.522126	0.079214
H129	H	1.760723	-0.449284	-0.000471
H130	H	1.844970	-0.586143	-0.117941
H131	H	1.790779	-0.513314	-0.197657
H132	H	1.945500	-0.442302	-0.118398
H133	H	1.999713	-0.515146	-0.038708
H134	H	1.999398	-0.515217	-0.198138
H135	H	0.869116	0.293084	0.098529
H136	H	1.718459	-0.662319	-0.000126
