data_functionalizedCrystal
_audit_creation_method	'MofGen! by Chris Wilmer'
_symmetry_space_group_name_H-M	'P1'
_symmetry_Int_Tables_number	1
_symmetry_cell_setting	triclinic
loop_
_symmetry_equiv_pos_as_xyz
  x,y,z
_cell_length_a	23.532361
_cell_length_b	14.971486
_cell_length_c	13.448316
_cell_angle_alpha	90.006811
_cell_angle_beta	89.997511
_cell_angle_gamma	96.778102
loop_
_atom_site_label
_atom_site_type_symbol
_atom_site_fract_x
_atom_site_fract_y
_atom_site_fract_z
O1	O	0.755743	-0.108382	-0.082593
O2	O	1.255743	0.391618	0.417407
O3	O	0.589943	-0.124136	-0.082617
O4	O	1.089943	0.375864	0.417383
O5	O	0.677287	0.013989	-0.082597
O6	O	1.177287	0.513989	0.417403
O7	O	0.668399	-0.246507	-0.082612
O8	O	1.168399	0.253493	0.417388
O9	O	0.677276	0.013997	0.082787
O10	O	1.177276	0.513997	0.582787
O11	O	0.589932	-0.124128	0.082767
O12	O	1.089932	0.375872	0.582767
O13	O	0.755732	-0.108374	0.082791
O14	O	1.255732	0.391626	0.582791
Cu15	Cu	0.672831	-0.116250	0.097880
Cu16	Cu	1.172831	0.383750	0.597880
Cu17	Cu	0.672844	-0.116260	-0.097706
Cu18	Cu	1.172844	0.383740	0.402294
O19	O	0.668388	-0.246499	0.082771
O20	O	1.168388	0.253501	0.582771
C21	C	0.676884	0.047314	0.000095
C22	C	1.176884	0.547314	0.500095
C23	C	0.675693	0.146598	0.000093
C24	C	1.175693	0.646598	0.500093
C25	C	0.568719	-0.123737	0.000072
C26	C	1.068719	0.376263	0.500072
C27	C	0.505496	-0.122551	0.000063
C28	C	1.005496	0.377449	0.500063
N29	N	0.672826	-0.116242	0.235444
N30	N	1.172826	0.383758	0.735444
C31	C	0.232236	-0.117368	-0.090081
C32	C	0.732236	0.382632	0.409919
C33	C	0.291640	-0.118490	-0.090084
C34	C	0.791640	0.381510	0.409916
O35	O	0.322374	-0.119044	-0.166752
O36	O	0.822374	0.380956	0.333248
N37	N	0.321342	-0.119053	0.000067
N38	N	0.821342	0.380947	0.500067
C39	C	0.291638	-0.118484	0.090227
C40	C	0.791638	0.381516	0.590227
O41	O	0.322356	-0.119065	0.166907
O42	O	0.822356	0.380935	0.666907
C43	C	0.232235	-0.117354	0.090228
C44	C	0.732235	0.382646	0.590228
C45	C	0.202535	-0.116801	0.000071
C46	C	0.702535	0.383199	0.500071
C47	C	0.202536	-0.116813	-0.180231
C48	C	0.702536	0.383187	0.319769
C49	C	0.143135	-0.115692	-0.180228
C50	C	0.643135	0.384308	0.319772
C51	C	0.113435	-0.115125	-0.090075
C52	C	0.613435	0.384875	0.409925
C53	C	0.143134	-0.115680	0.000074
C54	C	0.643134	0.384320	0.500074
C55	C	0.202531	-0.116779	0.180387
C56	C	0.702531	0.383221	0.680387
C57	C	0.143125	-0.115649	0.180380
C58	C	0.643125	0.384351	0.680380
C59	C	0.113425	-0.115095	0.090223
C60	C	0.613425	0.384905	0.590223
C61	C	0.054033	-0.113992	0.090230
C62	C	0.554033	0.386008	0.590230
N63	N	0.024331	-0.113430	0.000079
N64	N	0.524331	0.386570	0.500079
C65	C	0.054032	-0.113996	-0.090074
C66	C	0.554032	0.386004	0.409926
C67	C	0.416388	-0.120854	0.090217
C68	C	0.916388	0.379146	0.590217
C69	C	0.475789	-0.121989	0.090216
C70	C	0.975789	0.378011	0.590216
C71	C	0.475788	-0.121994	-0.090094
C72	C	0.975788	0.378006	0.409906
C73	C	0.416385	-0.120865	-0.090093
C74	C	0.916385	0.379135	0.409907
C75	C	0.386686	-0.120291	0.000066
C76	C	0.886686	0.379709	0.500066
C77	C	-0.070714	-0.111643	-0.090061
C78	C	0.429286	0.388357	0.409939
C79	C	-0.130120	-0.110525	-0.090050
C80	C	0.369880	0.389475	0.409950
C81	C	-0.130113	-0.110516	0.090260
C82	C	0.369887	0.389484	0.590260
C83	C	-0.070713	-0.111638	0.090250
C84	C	0.429287	0.388362	0.590250
C85	C	-0.041014	-0.112198	0.000081
C86	C	0.458986	0.387802	0.500081
O87	O	0.023262	-0.113434	0.166858
O88	O	0.523262	0.386566	0.666858
O89	O	0.023307	-0.113403	-0.166741
O90	O	0.523307	0.386597	0.333259
C91	C	0.776955	-0.108772	0.000100
C92	C	1.276955	0.391228	0.500100
C93	C	0.840179	-0.109959	0.000102
C94	C	1.340179	0.390041	0.500102
C95	C	0.668791	-0.279824	0.000078
C96	C	1.168791	0.220176	0.500078
C97	C	0.669982	-0.379108	0.000072
C98	C	1.169982	0.120892	0.500072
C99	C	0.727005	0.204379	0.000102
C100	C	1.227005	0.704379	0.500102
C101	C	0.725882	0.297666	0.000091
C102	C	1.225882	0.797666	0.500091
C103	C	0.673447	0.333171	0.000080
C104	C	1.173447	0.833171	0.500080
C105	C	0.622131	0.275382	0.000069
C106	C	1.122131	0.775382	0.500069
C107	C	0.623254	0.182097	0.000072
C108	C	1.123254	0.682097	0.500072
C109	C	0.619793	0.469820	0.000065
C110	C	1.119793	0.969820	0.500065
C111	C	0.618670	0.563111	0.000064
C112	C	1.118670	1.063111	0.500064
C113	C	0.722421	0.585389	0.000084
C114	C	1.222421	1.085389	0.500084
C115	C	0.723545	0.492103	0.000087
C116	C	1.223545	0.992103	0.500087
C117	C	0.672228	0.434321	0.000078
C118	C	1.172228	0.934321	0.500078
N119	N	0.672853	-0.116260	-0.235270
N120	N	1.172853	0.383740	0.264730
C121	C	0.711514	-0.055106	0.287493
C122	C	1.211514	0.444894	0.787493
C123	C	0.711517	-0.055105	0.391597
C124	C	1.211517	0.444895	0.891597
C125	C	0.672835	-0.116246	0.443649
C126	C	1.172835	0.383754	0.943649
C127	C	0.634143	-0.177386	0.391592
C128	C	1.134143	0.322614	0.891592
C129	C	0.634137	-0.177382	0.287491
C130	C	1.134137	0.322618	0.787491
C131	C	0.634159	-0.177392	0.608573
C132	C	1.134159	0.322608	1.108573
C133	C	0.634165	-0.177397	0.712681
C134	C	1.134165	0.322603	1.212681
C135	C	0.711539	-0.055115	0.712678
C136	C	1.211539	0.444885	1.212678
C137	C	0.711533	-0.055111	0.608577
C138	C	1.211533	0.444889	1.108577
C139	C	0.672842	-0.116252	0.556527
C140	C	1.172842	0.383748	1.056527
H141	H	-0.154299	-0.110077	-0.163470
H142	H	0.345701	0.389923	0.336530
C143	C	0.778870	0.648951	0.000087
C144	C	1.278870	1.148951	0.500087
N145	N	0.821385	0.696829	0.000091
N146	N	1.321385	1.196829	0.500091
H147	H	0.602666	-0.227184	0.755057
H148	H	1.102666	0.272816	1.255057
C149	C	-0.038055	-0.112265	-0.189251
C150	C	0.461945	0.387735	0.310749
N151	N	-0.013457	-0.112740	-0.263961
N152	N	0.486543	0.387260	0.236039
H153	H	0.743015	-0.005321	0.245119
H154	H	1.243015	0.494679	0.745119
C155	C	0.383722	-0.120246	-0.189272
C156	C	0.883722	0.379754	0.310728
N157	N	0.359123	-0.119777	-0.263977
N158	N	0.859123	0.380223	0.236023
C159	C	0.563342	0.406261	0.000060
C160	C	1.063342	0.906261	0.500060
N161	N	0.520824	0.358389	0.000063
N162	N	1.020824	0.858389	0.500063
C163	C	0.591582	-0.244644	0.230238
C164	C	1.091582	0.255356	0.730238
N165	N	0.559529	-0.295309	0.187116
N166	N	1.059529	0.204691	0.687116
H167	H	0.743033	-0.005329	0.566196
H168	H	1.243033	0.494671	1.066196
H169	H	0.743042	-0.005332	0.755062
H170	H	1.243042	0.494668	1.255062
H171	H	0.602651	-0.227177	0.566198
H172	H	1.102651	0.272823	1.066198
C173	C	0.508471	-0.122609	-0.189265
C174	C	1.008471	0.377391	0.310735
N175	N	0.533090	-0.123070	-0.263955
N176	N	1.033090	0.376930	0.236045
H177	H	0.602645	-0.227165	0.433979
H178	H	1.102645	0.272835	0.933979
C179	C	0.110475	-0.115064	-0.279409
C180	C	0.610475	0.384936	0.220591
N181	N	0.085879	-0.114584	-0.354117
N182	N	0.585879	0.385416	0.145883
C183	C	0.235189	-0.117379	0.279568
C184	C	0.735189	0.382621	0.779568
N185	N	0.259785	-0.117827	0.354278
N186	N	0.759785	0.382173	0.854278
H187	H	0.499965	-0.122454	0.163631
H188	H	0.999965	0.377546	0.663631
C189	C	0.235198	-0.117435	-0.279415
C190	C	0.735198	0.382565	0.220585
N191	N	0.259794	-0.117908	-0.354127
N192	N	0.759794	0.382092	0.145873
H193	H	0.392210	-0.120398	0.163640
H194	H	0.892210	0.379602	0.663640
H195	H	-0.046531	-0.112106	0.163663
H196	H	0.453469	0.387894	0.663663
C197	C	0.110459	-0.115022	0.279565
C198	C	0.610459	0.384978	0.779565
N199	N	0.085856	-0.114555	0.354271
N200	N	0.585856	0.385445	0.854271
H201	H	-0.154307	-0.110058	0.163660
H202	H	0.345693	0.389942	0.663660
C203	C	0.784688	0.165333	0.000114
C204	C	1.284688	0.665333	0.500114
N205	N	0.828138	0.135927	0.000119
N206	N	1.328138	0.635927	0.500119
C207	C	0.782330	0.361222	0.000117
C208	C	1.282330	0.861222	0.500117
N209	N	0.824848	0.409092	0.000140
N210	N	1.324848	0.909092	0.500140
H211	H	0.743019	-0.005322	0.433974
H212	H	1.243019	0.494678	0.933974
C213	C	0.560989	0.602164	0.000039
C214	C	1.060989	1.102164	0.500039
N215	N	0.517542	0.631578	0.000017
N216	N	1.017542	1.131578	0.500017
H217	H	0.579437	0.304297	0.000054
H218	H	1.079437	0.804297	0.500054
C219	C	0.566807	0.118538	0.000066
C220	C	1.066807	0.618538	0.500066
N221	N	0.524289	0.070665	0.000058
N222	N	1.024289	0.570665	0.500058
H223	H	0.766242	0.463199	0.000104
H224	H	1.266242	0.963199	0.500104
