data_functionalizedCrystal
_audit_creation_method	'MofGen! by Chris Wilmer'
_symmetry_space_group_name_H-M	'P1'
_symmetry_Int_Tables_number	1
_symmetry_cell_setting	triclinic
loop_
_symmetry_equiv_pos_as_xyz
  x,y,z
_cell_length_a	6.817900
_cell_length_b	9.109307
_cell_length_c	17.110486
_cell_angle_alpha	101.521773
_cell_angle_beta	99.060439
_cell_angle_gamma	111.764999
loop_
_atom_site_label
_atom_site_type_symbol
_atom_site_fract_x
_atom_site_fract_y
_atom_site_fract_z
V1	V	-4.029231	-0.224842	-0.261991
O2	O	-3.962743	0.011304	-0.241256
O3	O	-4.032622	-0.446305	-0.275344
O4	O	-3.958232	-0.221165	-0.369344
O5	O	-4.037647	-0.215395	-0.146605
V6	V	-4.509076	-0.196622	-0.246350
O7	O	-4.298556	-0.286745	-0.296300
O8	O	-4.689947	-0.134720	-0.212040
O9	O	-4.282478	0.024840	-0.232996
O10	O	-4.692960	-0.432769	-0.267084
O11	O	-4.618056	-0.206070	-0.361735
O12	O	-4.356867	-0.200300	-0.138996
C13	C	-3.890953	-0.500299	-0.275119
C14	C	-3.974862	-0.681346	-0.286753
C15	C	-3.796061	-0.213109	-0.395024
C16	C	-3.819638	-0.211568	-0.482886
C17	C	-4.013903	-0.218972	-0.528746
C18	C	-4.036044	-0.217522	-0.611301
C19	C	-3.863924	-0.208681	-0.647995
C20	C	-3.669641	-0.201271	-0.602128
C21	C	-3.647497	-0.202709	-0.519573
C22	C	-3.921615	-0.203923	-0.897027
C23	C	-3.943778	-0.202490	-0.979589
C24	C	-4.310178	-0.218738	-0.988756
C25	C	-4.288021	-0.220185	-0.906200
C26	C	-4.093738	-0.212767	-0.860339
C27	C	-3.886554	-0.207204	-0.732380
C28	C	-4.071105	-0.214232	-0.775954
C29	C	-4.087491	0.078826	-0.233220
C30	C	-3.982819	0.259871	-0.221591
C31	C	-4.182383	-0.208361	-0.113312
C32	C	-4.138042	-0.209894	-0.025450
H33	H	-4.154071	-0.226182	-0.498878
N34	N	-4.050858	-0.798150	-0.372471
H35	H	-4.102019	-0.915272	-0.368931
H36	H	-3.926034	-0.772929	-0.399847
H37	H	-4.194227	-0.223542	-0.648636
H38	H	-4.428183	-0.227383	-0.876330
H39	H	-3.925486	-0.651946	-0.156887
N40	N	-4.519714	-0.226733	-1.038219
H41	H	-4.507633	-0.224479	-1.096085
H42	H	-4.546450	-0.129115	-1.011218
H43	H	-3.803604	-0.195285	-1.009462
N44	N	-3.712076	-0.195916	-0.847568
H45	H	-3.606408	-0.190102	-0.883343
H46	H	-3.744275	-0.297566	-0.827681
N47	N	-3.483985	-0.191720	-0.641698
H48	H	-3.527489	-0.191938	-0.700957
H49	H	-3.449496	-0.289837	-0.639834
N50	N	-3.437964	-0.194712	-0.470103
H51	H	-3.332285	-0.188894	-0.505874
H52	H	-3.470169	-0.296363	-0.450218
H53	H	-4.211240	-0.221426	-0.746073
H54	H	-3.746420	-0.200012	-0.762267
