data_functionalizedCrystal
_audit_creation_method	'MofGen! by Chris Wilmer'
_symmetry_space_group_name_H-M	'P1'
_symmetry_Int_Tables_number	1
_symmetry_cell_setting	triclinic
loop_
_symmetry_equiv_pos_as_xyz
  x,y,z
_cell_length_a	14.908571
_cell_length_b	10.686285
_cell_length_c	10.686551
_cell_angle_alpha	80.915481
_cell_angle_beta	97.927145
_cell_angle_gamma	97.907800
loop_
_atom_site_label
_atom_site_type_symbol
_atom_site_fract_x
_atom_site_fract_y
_atom_site_fract_z
Zn1	Zn	1.453247	0.559280	0.787786
Zn2	Zn	1.453174	0.787854	0.559278
Zn3	Zn	1.290285	0.563398	0.563349
Zn4	Zn	1.311967	0.760869	0.760912
O5	O	1.377168	0.667850	0.667831
O6	O	1.580533	0.599171	0.767016
O7	O	1.422461	0.771096	0.381506
O8	O	1.302859	0.384550	0.606072
O9	O	1.580479	0.767103	0.599133
O10	O	1.422587	0.381524	0.770964
O11	O	1.302787	0.606189	0.384497
O12	O	1.165865	0.580023	0.580014
O13	O	1.339813	0.721111	0.942788
O14	O	1.181795	0.725104	0.725162
O15	O	1.443611	0.573004	0.962533
O16	O	1.443486	0.962576	0.573074
O17	O	1.339742	0.942750	0.721214
C18	C	1.140824	0.650083	0.650114
C19	C	1.039718	0.642510	0.642563
C20	C	1.393985	0.998895	0.643815
C21	C	1.401264	1.140520	0.633590
C22	C	1.360312	0.335513	0.691970
C23	C	1.353129	0.193890	0.702257
C24	C	0.866367	0.779623	0.779278
C25	C	0.771370	0.772511	0.772187
C26	C	0.754723	0.621170	0.621297
C27	C	0.849721	0.628281	0.628388
C28	C	0.905540	0.707512	0.707380
C29	C	1.000539	0.714629	0.714463
C30	C	0.983891	0.563282	0.563581
C31	C	0.888894	0.556170	0.556490
C32	C	1.614435	0.685688	0.685618
C33	C	1.715545	0.693289	0.693198
C34	C	1.394139	0.643588	1.000187
C35	C	1.401371	0.633249	1.141818
C36	C	1.360311	0.691930	0.336778
C37	C	1.353237	0.701923	0.195188
H38	H	0.911816	0.844143	0.843589
H39	H	1.045986	0.779145	0.778780
H40	H	1.448120	0.566546	1.204484
H41	H	1.448040	1.203182	0.566965
C42	C	0.729012	0.850951	0.850300
C43	C	0.798232	0.921876	0.920970
C44	C	0.759248	0.994161	0.992936
H45	H	0.692335	0.795592	0.906761
H46	H	0.692297	0.907255	0.794709
H47	H	0.834931	0.865578	0.976556
H48	H	0.834914	0.977259	0.864541
H49	H	0.722533	1.050466	0.937344
H50	H	0.722572	0.938793	1.049389
H51	H	0.806207	1.042302	1.040884
C52	C	0.694049	0.535340	0.535415
C53	C	0.638973	0.609214	0.444319
C54	C	0.583070	0.530179	0.365194
H55	H	0.656608	0.473559	0.585403
H56	H	0.730935	0.493409	0.493528
H57	H	0.602090	0.651124	0.486203
H58	H	0.676390	0.670991	0.394302
H59	H	0.619956	0.488249	0.323306
H60	H	0.545634	0.468403	0.415192
H61	H	0.545700	0.580293	0.303369
C62	C	0.828239	0.470372	0.470558
C63	C	0.773188	0.544284	0.379461
C64	C	0.717312	0.465292	0.300267
H65	H	0.790780	0.408568	0.520496
H66	H	0.865143	0.428468	0.428672
H67	H	0.736288	0.586167	0.421344
H68	H	0.810623	0.606084	0.329493
H69	H	0.754216	0.423389	0.258381
H70	H	0.679858	0.403493	0.350216
H71	H	0.679959	0.515431	0.238442
C72	C	1.290769	0.790781	1.111809
C73	C	1.200990	0.753970	1.139375
C74	C	1.143423	0.835812	1.062598
H75	H	1.293907	0.786223	1.024492
H76	H	1.309476	0.875835	1.128365
H77	H	1.182289	0.668938	1.122809
H78	H	1.197823	0.758535	1.226678
H79	H	1.162129	0.920865	1.079154
H80	H	1.146568	0.831247	0.975285
H81	H	1.082503	0.810854	1.081299
C82	C	1.026302	0.484761	0.485597
C83	C	0.998196	0.354966	0.520935
C84	C	1.037238	0.282604	0.449111
H85	H	1.090874	0.500179	0.501063
H86	H	1.007261	0.508291	0.397429
H87	H	1.017243	0.331446	0.609081
H88	H	0.933630	0.339510	0.505464
H89	H	1.018197	0.306133	0.360944
H90	H	1.101809	0.298032	0.464583
H91	H	1.018167	0.194531	0.473069
C92	C	1.290914	1.110286	0.791263
C93	C	1.342669	1.031727	0.882331
C94	C	1.285389	0.954697	0.964356
H95	H	1.246168	1.058907	0.743364
H96	H	1.261709	1.162711	0.833051
H97	H	1.371859	0.979307	0.840547
H98	H	1.387413	1.083072	0.930261
H99	H	1.256184	1.007122	1.006143
H100	H	1.240645	0.903326	0.916445
H101	H	1.320497	0.901394	1.026161
