data_functionalizedCrystal
_audit_creation_method	'MofGen! by Chris Wilmer'
_symmetry_space_group_name_H-M	'P1'
_symmetry_Int_Tables_number	1
_symmetry_cell_setting	triclinic
loop_
_symmetry_equiv_pos_as_xyz
  x,y,z
_cell_length_a	11.792241
_cell_length_b	10.540510
_cell_length_c	10.268362
_cell_angle_alpha	89.997199
_cell_angle_beta	89.999626
_cell_angle_gamma	84.353363
loop_
_atom_site_label
_atom_site_type_symbol
_atom_site_fract_x
_atom_site_fract_y
_atom_site_fract_z
O1	O	1.507345	0.173994	-0.108166
O2	O	2.007345	0.673994	0.391834
O3	O	1.177049	0.191926	-0.108196
O4	O	1.677049	0.691926	0.391804
O5	O	1.349750	-0.001773	-0.108180
O6	O	1.849750	0.498227	0.391820
O7	O	1.334644	0.367694	-0.108182
O8	O	1.834644	0.867694	0.391818
O9	O	1.349735	-0.001781	0.108421
O10	O	1.849735	0.498219	0.608421
O11	O	1.177034	0.191918	0.108405
O12	O	1.677034	0.691918	0.608405
O13	O	1.507330	0.173986	0.108435
O14	O	2.007330	0.673986	0.608435
Cu15	Cu	1.342181	0.182952	0.128197
Cu16	Cu	1.842181	0.682952	0.628197
Cu17	Cu	1.342199	0.182961	-0.127958
Cu18	Cu	1.842199	0.682961	0.372042
O19	O	1.334629	0.367686	0.108419
O20	O	1.834629	0.867686	0.608419
C21	C	1.134748	0.190796	0.000101
C22	C	1.634748	0.690796	0.500101
C23	C	1.008726	0.187424	0.000089
C24	C	1.508726	0.687424	0.500089
C25	C	0.777998	0.181225	0.000127
C26	C	1.277998	0.681225	0.500127
C27	C	0.906392	0.184670	0.000106
C28	C	1.406392	0.684670	0.500106
C29	C	1.348617	-0.049077	0.000118
C30	C	1.848617	0.450923	0.500118
C31	C	1.345249	-0.190016	0.000110
C32	C	1.845249	0.309984	0.500110
C33	C	1.465224	-0.407862	0.000617
C34	C	1.965224	0.092138	0.500617
C35	C	1.468816	-0.261278	0.000122
C36	C	1.968816	0.238722	0.500122
C37	C	1.282003	-0.234564	-0.123583
C38	C	1.782003	0.265436	0.376417
C39	C	1.279286	-0.381316	-0.123680
C40	C	1.779286	0.118684	0.376320
C41	C	1.276695	-0.381126	0.122635
C42	C	1.776695	0.118874	0.622635
C43	C	1.282556	-0.234804	0.124264
C44	C	1.782556	0.265196	0.624264
C45	C	1.549631	0.175117	0.000135
C46	C	2.049631	0.675117	0.500135
C47	C	1.675654	0.178488	0.000138
C48	C	2.175654	0.678488	0.500138
C49	C	1.335762	0.414990	0.000118
C50	C	1.835762	0.914990	0.500118
C51	C	1.339130	0.555929	0.000118
C52	C	1.839130	1.055929	0.500118
N53	N	1.342176	0.182944	0.308363
N54	N	1.842176	0.682944	0.808363
N55	N	1.342212	0.182959	-0.308124
N56	N	1.842212	0.682959	0.191876
C57	C	1.342193	0.182959	0.574034
C58	C	1.842193	0.682959	1.074034
C59	C	1.342180	0.182954	0.426196
C60	C	1.842180	0.682954	0.926196
H61	H	1.518303	-0.232099	0.088788
H62	H	2.018303	0.267901	0.588788
H63	H	1.315957	-0.423439	0.216394
H64	H	1.815957	0.076561	0.716394
C65	C	1.530258	-0.464766	0.120451
C66	C	2.030258	0.035234	0.620451
N67	N	1.579243	-0.507636	0.210714
N68	N	2.079243	-0.007636	0.710714
C69	C	1.529895	-0.466837	-0.118535
C70	C	2.029895	0.033163	0.381465
N71	N	1.578602	-0.511258	-0.208282
N72	N	2.078602	-0.011258	0.291718
C73	C	1.536070	-0.223112	-0.119864
C74	C	2.036070	0.276888	0.380136
N75	N	1.586726	-0.194367	-0.210245
N76	N	2.086726	0.305633	0.289755
C77	C	1.337711	-0.435836	-0.248571
C78	C	1.837711	0.064164	0.251429
N79	N	1.381725	-0.476896	-0.342637
N80	N	1.881725	0.023104	0.157363
H81	H	1.186865	-0.404010	-0.129292
H82	H	1.686865	0.095990	0.370708
C83	C	1.151366	-0.410661	0.123764
C84	C	1.651366	0.089339	0.623764
N85	N	1.056973	-0.432920	0.124608
N86	N	1.556973	0.067080	0.624608
C87	C	1.159112	-0.170135	-0.129819
C88	C	1.659112	0.329865	0.370181
N89	N	1.066551	-0.121602	-0.134515
N90	N	1.566551	0.378398	0.365485
H91	H	1.325938	-0.203847	-0.215627
H92	H	1.825938	0.296153	0.284373
H93	H	1.328576	-0.206345	0.215771
H94	H	1.828576	0.293655	0.715771
C95	C	1.160676	-0.168126	0.134342
C96	C	1.660676	0.331874	0.634342
N97	N	1.068870	-0.117906	0.141922
N98	N	1.568870	0.382094	0.641922
