data_functionalizedCrystal
_audit_creation_method	'MofGen! by Chris Wilmer'
_symmetry_space_group_name_H-M	'P1'
_symmetry_Int_Tables_number	1
_symmetry_cell_setting	triclinic
loop_
_symmetry_equiv_pos_as_xyz
  x,y,z
_cell_length_a	16.109301
_cell_length_b	17.699083
_cell_length_c	15.186229
_cell_angle_alpha	90.001174
_cell_angle_beta	90.003248
_cell_angle_gamma	83.372299
loop_
_atom_site_label
_atom_site_type_symbol
_atom_site_fract_x
_atom_site_fract_y
_atom_site_fract_z
O1	O	1.102966	0.097281	0.073182
O2	O	1.436299	0.430615	0.406515
O3	O	1.769633	0.763948	0.739849
O4	O	0.860883	0.109388	0.073195
O5	O	1.194217	0.442721	0.406528
O6	O	1.527550	0.776055	0.739861
O7	O	0.988764	-0.006845	0.073180
O8	O	1.322098	0.326489	0.406513
O9	O	1.655431	0.659822	0.739847
O10	O	0.975085	0.213514	0.073196
O11	O	1.308419	0.546847	0.406530
O12	O	1.641752	0.880181	0.739863
O13	O	0.988749	-0.006838	-0.073277
O14	O	1.322083	0.326495	0.260056
O15	O	1.655416	0.659829	0.593390
O16	O	0.860868	0.109395	-0.073263
O17	O	1.194202	0.442728	0.260071
O18	O	1.527535	0.776061	0.593404
O19	O	1.102951	0.097288	-0.073275
O20	O	1.436285	0.430621	0.260058
O21	O	1.769618	0.763955	0.593391
Zn22	Zn	0.981907	0.103342	-0.096522
Zn23	Zn	1.315241	0.436676	0.236811
Zn24	Zn	1.648574	0.770009	0.570144
Zn25	Zn	0.981927	0.103334	0.096441
Zn26	Zn	1.315260	0.436667	0.429775
Zn27	Zn	1.648594	0.770000	0.763108
O28	O	0.975070	0.213521	-0.073261
O29	O	1.308404	0.546854	0.260072
O30	O	1.641737	0.880187	0.593406
C31	C	0.829902	0.108901	-0.000033
C32	C	1.163235	0.442234	0.333301
C33	C	1.496569	0.775568	0.666634
C34	C	0.737609	0.107431	-0.000028
C35	C	1.070942	0.440764	0.333305
C36	C	1.404276	0.774097	0.666639
C37	C	0.428500	0.171594	-0.000039
C38	C	0.761834	0.504927	0.333295
C39	C	1.095167	0.838261	0.666628
C40	C	0.515218	0.172983	-0.000033
C41	C	0.848551	0.506316	0.333300
C42	C	1.181885	0.839649	0.666633
C43	C	0.535329	0.035076	-0.000032
C44	C	0.868662	0.368410	0.333302
C45	C	1.201996	0.701743	0.666635
C46	C	0.448613	0.033689	-0.000031
C47	C	0.781946	0.367022	0.333303
C48	C	1.115279	0.700355	0.666636
C49	C	0.395200	0.101950	-0.000039
C50	C	0.728534	0.435283	0.333295
C51	C	1.061867	0.768616	0.666628
C52	C	0.568634	0.104726	-0.000034
C53	C	0.901968	0.438060	0.333299
C54	C	1.235301	0.771393	0.666632
C55	C	0.662658	0.106231	-0.000029
C56	C	0.995991	0.439565	0.333305
C57	C	1.329324	0.772898	0.666638
C58	C	0.301171	0.100445	-0.000043
C59	C	0.634504	0.433778	0.333291
C60	C	0.967837	0.767112	0.666624
C61	C	0.988267	-0.035039	-0.000049
C62	C	1.321600	0.298294	0.333285
C63	C	1.654933	0.631628	0.666618
C64	C	0.986796	-0.119059	-0.000049
C65	C	1.320129	0.214274	0.333284
C66	C	1.653463	0.547607	0.666618
C67	C	1.061859	-0.167573	-0.000054
C68	C	1.395193	0.165760	0.333279
C69	C	1.728526	0.499094	0.666613
C70	C	1.060473	-0.246518	-0.000046
C71	C	1.393806	0.086815	0.333287
C72	C	1.727140	0.420148	0.666620
C73	C	0.984022	-0.276948	-0.000039
C74	C	1.317355	0.056385	0.333294
C75	C	1.650689	0.389718	0.666627
C76	C	0.908953	-0.228428	-0.000032
C77	C	1.242286	0.104905	0.333302
C78	C	1.575620	0.438238	0.666635
C79	C	0.910340	-0.149485	-0.000033
C80	C	1.243674	0.183849	0.333300
C81	C	1.577007	0.517182	0.666633
C82	C	0.903356	-0.546799	-0.000024
C83	C	1.236689	-0.213466	0.333309
C84	C	1.570023	0.119867	0.666642
C85	C	0.901974	-0.625749	-0.000025
C86	C	1.235308	-0.292416	0.333308
C87	C	1.568641	0.040917	0.666641
C88	C	1.053488	-0.643833	-0.000037
C89	C	1.386822	-0.310500	0.333296
C90	C	1.720155	0.022833	0.666629
C91	C	1.054876	-0.564889	-0.000039
C92	C	1.388209	-0.231556	0.333295
C93	C	1.721542	0.101777	0.666628
C94	C	0.979807	-0.516376	-0.000026
C95	C	1.313140	-0.183043	0.333307
C96	C	1.646474	0.150290	0.666640
C97	C	0.981312	-0.430775	-0.000033
C98	C	1.314645	-0.097442	0.333300
C99	C	1.647978	0.235892	0.666634
C100	C	0.982517	-0.362548	-0.000039
C101	C	1.315850	-0.029215	0.333294
C102	C	1.649183	0.304118	0.666628
C103	C	1.133933	0.097775	-0.000046
C104	C	1.467266	0.431108	0.333287
C105	C	1.800599	0.764442	0.666620
C106	C	1.226225	0.099245	-0.000045
C107	C	1.559559	0.432579	0.333288
C108	C	1.892892	0.765912	0.666622
C109	C	0.975568	0.241715	-0.000030
C110	C	1.308901	0.575048	0.333303
C111	C	1.642235	0.908382	0.666636
C112	C	0.977038	0.325735	-0.000024
C113	C	1.310372	0.659069	0.333309
C114	C	1.643705	0.992402	0.666642
N115	N	0.981900	0.103348	-0.228215
N116	N	1.315233	0.436681	0.105118
N117	N	1.648567	0.770014	0.438452
C118	C	1.032245	0.149255	-0.453937
C119	C	1.365578	0.482588	-0.120604
C120	C	1.698911	0.815921	0.212730
C121	C	1.032254	0.149249	-0.546127
C122	C	1.365587	0.482583	-0.212793
C123	C	1.698920	0.815916	0.120540
C124	C	0.931594	0.057410	-0.546137
C125	C	1.264928	0.390743	-0.212804
C126	C	1.598261	0.724077	0.120529
C127	C	0.931590	0.057412	-0.453949
C128	C	1.264924	0.390745	-0.120616
C129	C	1.598257	0.724079	0.212717
C130	C	0.981914	0.103339	-0.407852
C131	C	1.315247	0.436672	-0.074518
C132	C	1.648581	0.770005	0.258815
C133	C	0.981927	0.103331	-0.592229
C134	C	1.315260	0.436665	-0.258896
C135	C	1.648594	0.769998	0.074437
C136	C	0.981937	0.103325	-0.692185
C137	C	1.315270	0.436658	-0.358852
C138	C	1.648603	0.769992	-0.025519
C139	C	0.981906	0.103344	-0.307889
C140	C	1.315239	0.436677	0.025444
C141	C	1.648573	0.770011	0.358778
N142	N	0.981941	0.103322	0.228134
N143	N	1.315274	0.436655	0.561467
N144	N	1.648608	0.769989	0.894801
H145	H	0.385014	0.227177	-0.000044
H146	H	0.718347	0.560510	0.333289
H147	H	1.051680	0.893844	0.666622
F148	F	0.550654	0.247108	-0.000030
F149	F	0.883988	0.580441	0.333303
F150	F	1.217321	0.913775	0.666637
H151	H	0.890622	0.020019	-0.583681
H152	H	1.223955	0.353352	-0.250348
H153	H	1.557288	0.686686	0.082985
F154	F	0.823461	-0.495178	-0.000009
F155	F	1.156794	-0.161845	0.333325
F156	F	1.490127	0.171489	0.666658
H157	H	0.846705	-0.253211	-0.000021
H158	H	1.180039	0.080123	0.333313
H159	H	1.513372	0.413456	0.666646
H160	H	1.121597	-0.286016	-0.000052
H161	H	1.454930	0.047318	0.333281
H162	H	1.788264	0.380651	0.666614
F163	F	0.592181	-0.037568	-0.000030
F164	F	0.925514	0.295766	0.333303
F165	F	1.258848	0.629099	0.666637
F166	F	0.413171	-0.040440	-0.000021
F167	F	0.746504	0.292893	0.333312
F168	F	1.079837	0.626226	0.666645
H169	H	1.073222	0.186651	-0.416407
H170	H	1.406555	0.519984	-0.083073
H171	H	1.739888	0.853318	0.250260
H172	H	1.114613	-0.683342	-0.000043
H173	H	1.447946	-0.350009	0.333291
H174	H	1.781280	-0.016676	0.666624
F175	F	0.830448	-0.097853	-0.000025
F176	F	1.163781	0.235481	0.333308
F177	F	1.497114	0.568814	0.666642
H178	H	1.124115	-0.142804	-0.000065
H179	H	1.457448	0.190530	0.333268
H180	H	1.790781	0.523863	0.666602
F181	F	1.136245	-0.532508	-0.000045
F182	F	1.469578	-0.199175	0.333288
F183	F	1.802912	0.134158	0.666622
F184	F	1.085824	0.198118	-0.595170
F185	F	1.419157	0.531451	-0.261837
F186	F	1.752491	0.864785	0.071497
H187	H	0.890604	0.020018	-0.416426
H188	H	1.223938	0.353351	-0.083092
H189	H	1.557271	0.686684	0.250241
H190	H	0.839715	-0.650522	-0.000022
H191	H	1.173048	-0.317188	0.333312
H192	H	1.506382	0.016145	0.666645
