data_functionalizedCrystal
_audit_creation_method	'MofGen! by Chris Wilmer'
_symmetry_space_group_name_H-M	'P1'
_symmetry_Int_Tables_number	1
_symmetry_cell_setting	triclinic
loop_
_symmetry_equiv_pos_as_xyz
  x,y,z
_cell_length_a	15.944551
_cell_length_b	15.944493
_cell_length_c	15.021413
_cell_angle_alpha	90.007375
_cell_angle_beta	89.993715
_cell_angle_gamma	96.513109
loop_
_atom_site_label
_atom_site_type_symbol
_atom_site_fract_x
_atom_site_fract_y
_atom_site_fract_z
O1	O	-0.108094	1.114541	-0.074010
O2	O	0.391906	1.614541	0.425990
O3	O	-0.121501	0.869985	-0.074014
O4	O	0.378499	1.369985	0.425986
O5	O	0.007479	0.998942	-0.074017
O6	O	0.507479	1.498942	0.425983
O7	O	-0.237074	0.985585	-0.074007
O8	O	0.262926	1.485585	0.425993
O9	O	0.007471	0.998957	0.074047
O10	O	0.507471	1.498957	0.574047
O11	O	-0.121509	0.870000	0.074051
O12	O	0.378491	1.370000	0.574051
O13	O	-0.108102	1.114556	0.074054
O14	O	0.391898	1.614556	0.574054
Zn15	Zn	-0.114807	0.992281	0.097561
Zn16	Zn	0.385193	1.492281	0.597561
Zn17	Zn	-0.114796	0.992261	-0.097520
Zn18	Zn	0.385204	1.492261	0.402480
O19	O	-0.237082	0.985600	0.074057
O20	O	0.262918	1.485600	0.574057
C21	C	-0.120957	0.838698	0.000018
C22	C	0.379043	1.338698	0.500018
C23	C	-0.119314	0.745449	0.000016
C24	C	0.380686	1.245449	0.500016
C25	C	-0.195235	0.509689	0.000019
C26	C	0.304765	1.009689	0.500019
C27	C	-0.154298	0.459138	0.073024
C28	C	0.345702	0.959138	0.573024
C29	C	-0.116270	0.574728	0.000018
C30	C	0.383730	1.074728	0.500018
C31	C	-0.154271	0.459128	-0.072955
C32	C	0.345729	0.959128	0.427045
C33	C	-0.113336	0.409819	0.000015
C34	C	0.386664	0.909819	0.500015
C35	C	-0.075355	0.525406	0.073084
C36	C	0.424645	1.025406	0.573084
C37	C	-0.075340	0.525399	-0.072962
C38	C	0.424660	1.025399	0.427038
C39	C	-0.034345	0.474880	0.000062
C40	C	0.465655	0.974880	0.500062
C41	C	-0.117963	0.669728	0.000020
C42	C	0.382037	1.169728	0.500020
C43	C	-0.111637	0.314821	0.000020
C44	C	0.388363	0.814821	0.500020
C45	C	-0.268372	0.986147	0.000026
C46	C	0.231628	1.486147	0.500026
C47	C	-0.361617	0.987809	0.000030
C48	C	0.138383	1.487809	0.500030
C49	C	-0.576457	1.071716	0.000018
C50	C	-0.076457	1.571716	0.500018
C51	C	-0.637485	1.032760	0.073022
C52	C	-0.137485	1.532760	0.573022
C53	C	-0.532343	0.990817	0.000022
C54	C	-0.032343	1.490817	0.500022
C55	C	-0.637463	1.032726	-0.072958
C56	C	-0.137463	1.532726	0.427042
C57	C	-0.697255	0.993728	0.000011
C58	C	-0.197255	1.493728	0.500011
C59	C	-0.592143	0.951838	0.073086
C60	C	-0.092143	1.451838	0.573086
C61	C	-0.592114	0.951816	-0.072959
C62	C	-0.092114	1.451816	0.427041
C63	C	-0.653125	0.912801	0.000063
C64	C	-0.153125	1.412801	0.500063
C65	C	-0.437341	0.989142	0.000030
C66	C	0.062659	1.489142	0.500030
C67	C	-0.792256	0.995396	0.000010
C68	C	-0.292256	1.495396	0.500010
C69	C	0.038768	0.998395	0.000012
C70	C	0.538768	1.498395	0.500012
C71	C	0.132014	0.996732	0.000002
C72	C	0.632014	1.496732	0.500002
C73	C	-0.108646	1.145844	0.000020
C74	C	0.391354	1.645844	0.500020
C75	C	-0.110289	1.239092	0.000016
C76	C	0.389711	1.739092	0.500016
N77	N	-0.114814	0.992300	0.230698
N78	N	0.385186	1.492300	0.730698
N79	N	-0.114783	0.992248	-0.230658
N80	N	0.385217	1.492248	0.269342
C81	C	-0.055160	1.051942	0.470356
C82	C	0.444840	1.551942	0.970356
C83	C	-0.038858	0.976040	0.529683
C84	C	0.461142	1.476040	1.029683
C85	C	-0.114803	0.992281	0.412305
C86	C	0.385197	1.492281	0.912305
C87	C	-0.131055	1.068164	0.529720
C88	C	0.368945	1.568164	1.029720
C89	C	-0.114791	0.992269	0.587729
C90	C	0.385209	1.492269	1.087729
C91	C	-0.098464	0.916341	0.470326
C92	C	0.401536	1.416341	0.970326
C93	C	-0.190694	1.008515	0.470357
C94	C	0.309306	1.508515	0.970357
C95	C	-0.174425	0.932558	0.529657
C96	C	0.325575	1.432558	1.029657
C97	C	-0.114808	0.992289	0.311248
C98	C	0.385192	1.492289	0.811248
C99	C	-0.114787	0.992252	0.688784
C100	C	0.385213	1.492252	1.188784
H101	H	-0.187632	0.430183	-0.134667
H102	H	0.312368	0.930183	0.365333
O103	O	0.046159	0.957843	0.564210
O104	O	0.546159	1.457843	1.064210
H105	H	0.060087	0.895327	0.539391
H106	H	0.560087	1.395327	1.039391
H107	H	-0.571989	0.917621	-0.134682
H108	H	-0.071989	1.417621	0.365318
O109	O	-0.080121	0.831315	0.435926
O110	O	0.419879	1.331315	0.935926
H111	H	-0.080229	0.832002	0.362039
H112	H	0.419771	1.332002	0.862039
H113	H	-0.224861	0.882045	0.555531
H114	H	0.275139	1.382045	1.055531
H115	H	0.033726	0.459415	0.000101
H116	H	0.533726	0.959415	0.500101
O117	O	-0.149278	1.153175	0.564270
O118	O	0.350722	1.653175	1.064270
H119	H	-0.149697	1.152213	0.638153
H120	H	0.350303	1.652213	1.138153
O121	O	-0.532306	1.160658	0.000109
O122	O	-0.032306	1.660658	0.500109
H123	H	-0.550350	1.194045	0.060804
H124	H	-0.050350	1.694045	0.560804
H125	H	-0.004693	1.102342	0.444317
H126	H	0.495307	1.602342	0.944317
H127	H	-0.657588	1.066983	0.134742
H128	H	-0.157588	1.566983	0.634742
O129	O	-0.285326	0.530407	0.000111
O130	O	0.214674	1.030407	0.500111
H131	H	-0.317918	0.503744	0.060809
H132	H	0.182082	1.003744	0.560809
H133	H	-0.254858	1.022281	0.444278
H134	H	0.245142	1.522281	0.944278
H135	H	-0.042014	0.554338	-0.134687
H136	H	0.457986	1.054338	0.365313
O137	O	-0.198467	0.420808	0.154783
O138	O	0.301533	0.920808	0.654783
H139	H	-0.265202	0.434441	0.154637
H140	H	0.234798	0.934441	0.654637
H141	H	-0.042030	0.554240	0.134865
H142	H	0.457970	1.054240	0.634865
H143	H	-0.572162	0.917654	0.134872
H144	H	-0.072162	1.417654	0.634872
H145	H	-0.686297	0.845592	0.000102
H146	H	-0.186297	1.345592	0.500102
O147	O	-0.664055	1.078049	-0.154718
O148	O	-0.164055	1.578049	0.345282
H149	H	-0.633037	1.143987	-0.154558
H150	H	-0.133037	1.643987	0.345442
