data_functionalizedCrystal
_audit_creation_method	'MofGen! by Chris Wilmer'
_symmetry_space_group_name_H-M	'P1'
_symmetry_Int_Tables_number	1
_symmetry_cell_setting	triclinic
loop_
_symmetry_equiv_pos_as_xyz
  x,y,z
_cell_length_a	14.044220
_cell_length_b	14.044190
_cell_length_c	11.295483
_cell_angle_alpha	94.464886
_cell_angle_beta	85.525227
_cell_angle_gamma	93.190328
loop_
_atom_site_label
_atom_site_type_symbol
_atom_site_fract_x
_atom_site_fract_y
_atom_site_fract_z
O1	O	1.283055	0.224289	-0.098921
O2	O	1.006385	0.215981	-0.098950
O3	O	1.140562	0.081800	-0.098913
O4	O	1.148877	0.358470	-0.098959
O5	O	1.128775	0.093566	0.099135
O6	O	0.994598	0.227747	0.099097
O7	O	1.271268	0.236054	0.099126
Cu8	Cu	1.131857	0.232975	0.117195
Cu9	Cu	1.145796	0.219061	-0.117019
O10	O	1.137091	0.370236	0.099089
C11	C	0.964870	0.218228	0.000070
C12	C	0.858727	0.207383	0.000060
C13	C	0.664387	0.187558	0.000087
C14	C	0.613260	0.264473	0.000079
C15	C	0.505122	0.253442	0.000094
C16	C	0.772535	0.198588	0.000072
C17	C	1.131032	0.052061	0.000114
C18	C	1.120184	-0.054081	0.000123
C19	C	1.177287	-0.299542	0.000083
C20	C	1.100371	-0.248417	0.000083
C21	C	1.111397	-0.140278	0.000105
C22	C	1.166261	-0.407690	0.000060
C23	C	1.312783	0.233807	0.000103
C24	C	1.418926	0.244652	0.000106
C25	C	1.146621	0.399974	0.000059
C26	C	1.157469	0.506116	0.000042
N27	N	1.122059	0.242761	0.281929
N28	N	1.155600	0.209267	-0.281753
C29	C	1.226121	0.138766	0.531247
C30	C	1.218724	0.146169	0.655909
C31	C	1.099866	0.264965	0.655916
C32	C	1.107262	0.257562	0.531254
C33	C	1.170393	0.194461	0.468924
C34	C	1.177794	0.187064	0.344260
C35	C	1.058931	0.305855	0.344269
C36	C	1.051534	0.313258	0.468931
H37	H	0.626947	0.113432	0.000105
H38	H	1.251412	-0.262100	0.000103
C39	C	1.031160	0.333329	0.723546
C40	C	0.937833	0.308040	0.693261
C41	C	0.874511	0.370983	0.755554
H42	H	1.047990	0.396756	0.703176
H43	H	1.034673	0.329739	0.806725
H44	H	0.934323	0.311640	0.610101
H45	H	0.920973	0.244624	0.713634
H46	H	0.878024	0.367393	0.838733
H47	H	0.891350	0.434406	0.735179
H48	H	0.811181	0.353828	0.735023
C49	C	0.663056	0.363373	-0.000148
C50	C	0.642466	0.406767	-0.102039
C51	C	0.688312	0.497875	-0.102289
H52	H	0.730169	0.357888	-0.000221
H53	H	0.640992	0.401233	0.068869
H54	H	0.664536	0.368916	-0.171039
H55	H	0.575362	0.412276	-0.101987
H56	H	0.666248	0.535735	-0.033271
H57	H	0.755423	0.492381	-0.102359
H58	H	0.674342	0.527333	-0.171414
C59	C	1.279179	0.085534	0.723425
C60	C	1.257574	-0.011399	0.693093
C61	C	1.313254	-0.067288	0.755253
H62	H	1.265789	0.098851	0.806614
H63	H	1.345003	0.100049	0.702957
H64	H	1.191766	-0.025909	0.713569
H65	H	1.270968	-0.024746	0.609914
H66	H	1.379078	-0.052773	0.734785
H67	H	1.299860	-0.053962	0.838440
H68	H	1.298610	-0.133063	0.734674
H69	H	1.026239	-0.285861	0.000068
C70	C	0.982836	0.381635	0.536550
C71	C	0.889506	0.356358	0.506266
C72	C	0.826195	0.419319	0.568543
H73	H	0.999677	0.445057	0.516166
H74	H	0.986346	0.378055	0.619731
H75	H	0.886000	0.359947	0.423103
H76	H	0.872635	0.292947	0.526653
H77	H	0.829704	0.415739	0.651724
H78	H	0.843045	0.482737	0.548154
H79	H	0.762863	0.402172	0.548013
C80	C	1.246351	0.118464	0.276799
C81	C	1.293551	0.071253	0.358068
C82	C	1.356703	0.008039	0.295971
H83	H	1.291969	0.153193	0.228152
H84	H	1.211547	0.072864	0.228207
H85	H	1.328354	0.116846	0.406641
H86	H	1.247958	0.036506	0.406718
H87	H	1.321899	-0.037560	0.247378
H88	H	1.402314	0.042776	0.247326
H89	H	1.388729	-0.024007	0.351102
H90	H	1.277531	0.087393	0.480497
C91	C	0.998539	0.366499	0.276670
C92	C	1.020181	0.463431	0.306967
C93	C	0.964582	0.519328	0.244709
H94	H	0.932704	0.352049	0.297060
H95	H	1.011994	0.353124	0.193486
H96	H	1.006719	0.476800	0.390133
H97	H	1.086006	0.477911	0.286574
H98	H	0.978037	0.505952	0.161525
H99	H	0.898749	0.504869	0.265104
H100	H	0.979264	0.585101	0.265249
