data_functionalizedCrystal
_audit_creation_method	'MofGen! by Chris Wilmer'
_symmetry_space_group_name_H-M	'P1'
_symmetry_Int_Tables_number	1
_symmetry_cell_setting	triclinic
loop_
_symmetry_equiv_pos_as_xyz
  x,y,z
_cell_length_a	14.971486
_cell_length_b	19.288865
_cell_length_c	13.448316
_cell_angle_alpha	89.988163
_cell_angle_beta	89.998199
_cell_angle_gamma	83.375189
loop_
_atom_site_label
_atom_site_type_symbol
_atom_site_fract_x
_atom_site_fract_y
_atom_site_fract_z
O1	O	1.186458	0.090517	-0.082589
O2	O	0.925999	0.101357	-0.082618
O3	O	1.063755	-0.005169	-0.082583
O4	O	1.048703	0.197043	-0.082624
O5	O	1.063737	-0.005175	0.082801
O6	O	0.925982	0.101350	0.082766
O7	O	1.186441	0.090511	0.082794
Cu8	Cu	1.056210	0.095930	0.097881
Cu9	Cu	1.056230	0.095938	-0.097704
O10	O	1.048685	0.197036	0.082760
C11	C	0.892669	0.100869	0.000071
C12	C	0.793379	0.099416	0.000061
C13	C	0.735816	0.161997	0.000049
C14	C	0.642524	0.160628	0.000065
C15	C	0.606797	0.096677	0.000084
C16	C	0.664368	0.034092	0.000098
C17	C	0.757658	0.035461	0.000090
C18	C	0.469921	0.031241	0.000112
C19	C	0.376624	0.029871	0.000118
C20	C	0.354786	0.156407	0.000087
C21	C	0.448077	0.157777	0.000079
C22	C	0.505641	0.095191	0.000091
C23	C	1.063262	-0.031050	0.000112
C24	C	1.061808	-0.108158	0.000120
C25	C	1.142636	-0.152591	0.000134
C26	C	1.141271	-0.225043	0.000118
C27	C	1.059071	-0.253058	0.000109
C28	C	0.978232	-0.208615	0.000089
C29	C	0.979600	-0.136166	0.000095
C30	C	0.994447	-0.361558	0.058032
C31	C	0.993083	-0.434007	0.058032
C32	C	1.054848	-0.476517	0.000086
C33	C	1.117994	-0.446571	-0.057848
C34	C	1.119362	-0.374121	-0.057842
C35	C	1.057579	-0.331617	0.000101
C36	C	1.134201	-0.599511	0.000081
C37	C	1.132832	-0.671963	0.000059
C38	C	0.969791	-0.655535	0.000040
C39	C	0.971163	-0.583084	0.000052
C40	C	1.053370	-0.555077	0.000077
C41	C	1.219771	0.090999	0.000104
C42	C	1.319061	0.092452	0.000107
C43	C	1.049178	0.222918	0.000063
C44	C	1.050632	0.300026	0.000048
N45	N	1.056202	0.095924	0.235445
N46	N	1.056245	0.095938	-0.235269
C47	C	1.117219	0.048774	0.287501
C48	C	1.117224	0.048773	0.391604
C49	C	1.056217	0.095927	0.443650
C50	C	0.995193	0.143079	0.391587
C51	C	0.995184	0.143076	0.287486
C52	C	0.995218	0.143084	0.608567
C53	C	0.995228	0.143088	0.712675
C54	C	1.117258	0.048781	0.712686
C55	C	1.117249	0.048778	0.608584
C56	C	1.056227	0.095932	0.556529
H57	H	0.477162	0.209852	0.000054
O58	O	1.176535	0.003072	0.442286
C59	C	1.231572	0.040350	0.502463
H60	H	1.195720	0.094655	0.518039
H61	H	1.245846	0.011381	0.575679
H62	H	1.297652	0.045157	0.462336
H63	H	0.347539	-0.022204	0.000136
O64	O	0.525713	-0.029619	0.000075
C65	C	0.474178	-0.086358	0.000112
H66	H	0.404472	-0.068784	-0.031190
H67	H	0.508767	-0.130206	-0.047904
H68	H	0.467623	-0.105966	0.079458
H69	H	0.307912	0.207367	0.000081
H70	H	0.635272	-0.017978	0.000128
O71	O	1.176297	0.002805	0.558031
C72	C	1.128395	-0.040104	0.498021
H73	H	1.058382	-0.012401	0.482322
H74	H	1.165754	-0.051270	0.424857
H75	H	1.122315	-0.091338	0.538357
O76	O	1.176501	0.002879	0.763135
C77	C	1.162237	-0.065901	0.737738
H78	H	1.127751	-0.065862	0.662161
H79	H	1.229611	-0.100015	0.734173
H80	H	1.117817	-0.087444	0.796343
O81	O	1.214074	-0.572330	-0.000087
C82	C	1.263344	-0.595026	-0.085730
H83	H	1.215273	-0.610127	-0.145600
H84	H	1.301217	-0.551098	-0.114475
H85	H	1.313381	-0.642203	-0.066368
H86	H	0.804527	-0.015498	0.000099
H87	H	1.209576	-0.129793	0.000151
O88	O	0.770409	0.224164	-0.000103
C89	C	0.740980	0.262313	-0.085775
H90	H	0.676351	0.243328	-0.114321
H91	H	0.727794	0.320143	-0.066522
H92	H	0.794996	0.254318	-0.145756
O93	O	1.219873	-0.268116	0.000179
C94	C	1.292723	-0.227860	0.000173
H95	H	1.269799	-0.173811	0.031480
H96	H	1.349329	-0.254547	0.048201
H97	H	1.317950	-0.222670	-0.079164
O98	O	0.935909	0.188957	0.558153
C99	C	0.882052	0.230568	0.626409
H100	H	0.918723	0.231399	0.700612
H101	H	0.868181	0.286021	0.596313
H102	H	0.815700	0.207932	0.637497
H103	H	0.902863	-0.678344	0.000027
H104	H	0.945549	0.181485	0.755046
H105	H	1.170776	-0.349742	-0.105015
O106	O	1.211331	-0.715155	-0.000108
C107	C	1.215424	-0.757548	-0.085757
H108	H	1.169586	-0.731041	-0.145629
H109	H	1.287511	-0.765625	-0.114494
H110	H	1.192486	-0.810255	-0.066407
H111	H	1.168289	-0.481182	-0.105034
O112	O	0.935893	0.188788	0.442253
C113	C	0.880861	0.151519	0.502475
H114	H	0.916709	0.097213	0.518084
H115	H	0.866602	0.180494	0.575672
H116	H	0.814773	0.146713	0.462371
H117	H	0.945497	0.181469	0.245103
H118	H	0.905343	-0.546906	0.000046
H119	H	0.941662	-0.458383	0.105199
H120	H	0.595658	0.211588	0.000054
H121	H	0.944148	-0.326952	0.105224
O122	O	0.898362	-0.235794	-0.000095
C123	C	0.849107	-0.213067	-0.085744
H124	H	0.897188	-0.197946	-0.145603
H125	H	0.811236	-0.256984	-0.114503
H126	H	0.799069	-0.165895	-0.066385
O127	O	0.901103	-0.092971	-0.000089
C128	C	0.897038	-0.050542	-0.085724
H129	H	0.942892	-0.077024	-0.145588
H130	H	0.824960	-0.042449	-0.114485
H131	H	0.919975	0.002155	-0.066347
H132	H	1.166902	0.010379	0.245132
