data_functionalizedCrystal
_audit_creation_method	'MofGen! by Chris Wilmer'
_symmetry_space_group_name_H-M	'P1'
_symmetry_Int_Tables_number	1
_symmetry_cell_setting	triclinic
loop_
_symmetry_equiv_pos_as_xyz
  x,y,z
_cell_length_a	14.971506
_cell_length_b	10.967829
_cell_length_c	14.048226
_cell_angle_alpha	77.865708
_cell_angle_beta	89.993237
_cell_angle_gamma	84.178402
loop_
_atom_site_label
_atom_site_type_symbol
_atom_site_fract_x
_atom_site_fract_y
_atom_site_fract_z
O1	O	1.187812	0.162740	-0.105861
O2	O	1.687812	0.662740	0.394139
O3	O	0.927519	0.182188	-0.109051
O4	O	1.427519	0.682188	0.390949
O5	O	1.063667	-0.009178	-0.077656
O6	O	1.563667	0.490822	0.422344
O7	O	1.051664	0.354106	-0.137257
O8	O	1.551664	0.854106	0.362743
O9	O	1.063650	-0.009190	0.080667
O10	O	1.563650	0.490810	0.580667
O11	O	0.927503	0.182176	0.049272
O12	O	1.427503	0.682176	0.549272
O13	O	1.187796	0.162729	0.052462
O14	O	1.687796	0.662729	0.552462
Zn15	Zn	1.057646	0.172451	0.076004
Zn16	Zn	1.557646	0.672451	0.576004
Zn17	Zn	1.057668	0.172466	-0.132593
Zn18	Zn	1.557668	0.672466	0.367407
O19	O	1.051648	0.354094	0.021067
O20	O	1.551648	0.854094	0.521067
C21	C	0.894182	0.181308	-0.029746
C22	C	1.394182	0.681308	0.470254
C23	C	0.794871	0.178688	-0.029317
C24	C	1.294871	0.678688	0.470683
C25	C	1.062784	-0.055675	0.009131
C26	C	1.562784	0.444325	0.509131
C27	C	1.060167	-0.194205	0.031853
C28	C	1.560167	0.305795	0.531853
C29	C	0.357141	0.281114	-0.046131
C30	C	0.857141	0.781114	0.453869
C31	C	0.450454	0.283566	-0.046537
C32	C	0.950454	0.783566	0.453463
C33	C	0.507068	0.171131	-0.028087
C34	C	1.007068	0.671131	0.471913
C35	C	0.470365	0.056237	-0.009238
C36	C	0.970365	0.556237	0.490762
C37	C	0.377053	0.053786	-0.008839
C38	C	0.877053	0.553786	0.491161
C39	C	0.664856	0.061352	-0.010069
C40	C	1.164856	0.561352	0.489931
C41	C	0.758174	0.063802	-0.010467
C42	C	1.258174	0.563802	0.489533
C43	C	0.738256	0.291132	-0.047768
C44	C	1.238256	0.791132	0.452232
C45	C	0.644945	0.288681	-0.047368
C46	C	1.144945	0.788681	0.452632
C47	C	0.608248	0.173787	-0.028518
C48	C	1.108248	0.673787	0.471482
C49	C	1.059010	-0.255955	-0.040035
C50	C	1.559010	0.244045	0.459965
C51	C	1.056305	-0.399133	-0.016553
C52	C	1.556305	0.100867	0.483447
C53	C	1.221133	0.163609	-0.026845
C54	C	1.721133	0.663609	0.473155
C55	C	1.320443	0.166228	-0.027281
C56	C	1.820443	0.666228	0.472719
C57	C	1.052531	0.400592	-0.065723
C58	C	1.552531	0.900592	0.434277
C59	C	1.055147	0.539122	-0.088450
C60	C	1.555147	1.039122	0.411550
N61	N	1.057638	0.172440	0.218367
N62	N	1.557638	0.672440	0.718367
N63	N	1.057684	0.172467	-0.274954
N64	N	1.557684	0.672467	0.225046
C65	C	1.117944	0.087738	0.282081
C66	C	1.617944	0.587738	0.782081
C67	C	1.117950	0.087737	0.381739
C68	C	1.617950	0.587737	0.881739
C69	C	1.057654	0.172445	0.417679
C70	C	1.557654	0.672445	0.917679
C71	C	0.997342	0.257151	0.353957
C72	C	1.497342	0.757151	0.853957
C73	C	0.997332	0.257145	0.254303
C74	C	1.497332	0.757145	0.754303
C75	C	0.997368	0.257160	0.561670
C76	C	1.497368	0.757160	1.061670
C77	C	0.997378	0.257168	0.661331
C78	C	1.497378	0.757168	1.161331
C79	C	1.117985	0.087753	0.689106
C80	C	1.617985	0.587753	1.189106
C81	C	1.117975	0.087746	0.589451
C82	C	1.617975	0.587746	1.089451
C83	C	1.057664	0.172454	0.525736
C84	C	1.557664	0.672454	1.025736
H85	H	0.311051	0.372672	-0.061148
H86	H	0.811051	0.872672	0.438852
F87	F	0.489505	0.405842	-0.066604
F88	F	0.989505	0.905842	0.433396
H89	H	1.055289	-0.452260	0.062382
H90	H	1.555289	0.047740	0.562382
F91	F	0.933201	0.347325	0.699574
F92	F	1.433201	0.847325	1.199574
F93	F	0.818426	-0.055863	0.009164
F94	F	1.318426	0.444137	0.509164
F95	F	1.182124	-0.002416	0.243840
F96	F	1.682124	0.497584	0.743840
H97	H	1.167077	0.018777	0.560189
H98	H	1.667077	0.518777	1.060189
H99	H	0.634981	-0.032207	0.005276
H100	H	1.134981	0.467793	0.505276
H101	H	0.948253	0.326134	0.509796
H102	H	1.448253	0.826134	1.009796
F103	F	1.058840	-0.263647	0.135021
F104	F	1.558840	0.236353	0.635021
F105	F	1.182132	-0.002413	0.449549
F106	F	1.682132	0.497587	0.949549
H107	H	0.516468	-0.035310	0.005779
H108	H	1.016468	0.464690	0.505779
F109	F	0.584693	0.408347	-0.067000
F110	F	1.084693	0.908347	0.433000
H111	H	1.167092	0.018781	0.740990
H112	H	1.667092	0.518781	1.240990
F113	F	0.777312	0.413412	-0.067822
F114	F	1.277312	0.913412	0.432178
H115	H	0.948243	0.326118	0.383226
H116	H	1.448243	0.826118	0.883226
H117	H	0.948224	0.326116	0.202426
H118	H	1.448224	0.826116	0.702426
F119	F	1.060346	-0.186515	-0.143203
F120	F	1.560346	0.313485	0.356797
F121	F	0.337998	-0.068490	0.011224
F122	F	0.837998	0.431510	0.511224
F123	F	1.056440	-0.391438	-0.191626
F124	F	1.556440	0.108562	0.308374
