data_functionalizedCrystal
_audit_creation_method	'MofGen! by Chris Wilmer'
_symmetry_space_group_name_H-M	'P1'
_symmetry_Int_Tables_number	1
_symmetry_cell_setting	triclinic
loop_
_symmetry_equiv_pos_as_xyz
  x,y,z
_cell_length_a	16.974800
_cell_length_b	15.944545
_cell_length_c	16.053802
_cell_angle_alpha	92.563576
_cell_angle_beta	91.074188
_cell_angle_gamma	83.443106
loop_
_atom_site_label
_atom_site_type_symbol
_atom_site_fract_x
_atom_site_fract_y
_atom_site_fract_z
O1	O	1.049081	0.107072	0.001478
O2	O	0.819620	0.119931	-0.014035
O3	O	0.940618	-0.008760	-0.005845
O4	O	0.928082	0.235763	-0.006712
O5	O	0.933958	-0.001705	0.132563
O6	O	0.812960	0.126985	0.124374
O7	O	1.042421	0.114127	0.139886
Zn8	Zn	0.926633	0.121676	0.154105
Zn9	Zn	0.935408	0.112382	-0.028254
O10	O	0.921422	0.242817	0.131696
C11	C	0.786927	0.122840	0.053185
C12	C	0.699434	0.120987	0.047270
C13	C	0.654704	0.123960	0.119940
C14	C	0.572497	0.122207	0.114385
C15	C	0.535020	0.117486	0.036160
C16	C	0.579757	0.114510	-0.036515
C17	C	0.661963	0.116258	-0.030960
C18	C	0.289550	0.111841	0.011454
C19	C	0.207337	0.110096	0.005904
C20	C	0.200083	0.117792	0.156805
C21	C	0.282290	0.119544	0.162354
C22	C	0.327020	0.116564	0.089679
N23	N	0.450991	0.115696	0.030480
N24	N	0.411049	0.118347	0.095359
C25	C	0.936769	-0.036528	0.063325
C26	C	0.935211	-0.129777	0.063222
C27	C	0.855556	-0.400584	0.057820
C28	C	0.897243	-0.353393	-0.007826
C29	C	0.929657	-0.465434	0.062823
C30	C	0.890697	-0.346465	0.128634
C31	C	0.932381	-0.300514	0.063020
C32	C	0.971327	-0.419475	-0.002882
C33	C	0.964767	-0.412547	0.133640
C34	C	1.006509	-0.365390	0.067980
C35	C	0.928085	-0.560440	0.062708
C36	C	0.933959	-0.205511	0.063129
C37	C	1.075114	0.111218	0.072665
C38	C	1.162607	0.113070	0.078574
C39	C	0.925272	0.270585	0.062524
C40	C	0.926830	0.363834	0.062622
N41	N	0.920650	0.128018	0.278560
N42	N	0.941397	0.106032	-0.152709
C43	C	0.972154	0.073280	0.325740
C44	C	0.967976	0.077725	0.412864
C45	C	0.912297	0.136912	0.452807
C46	C	0.860788	0.191653	0.405620
C47	C	0.864963	0.187204	0.318498
C48	C	0.894062	0.156324	0.712982
C49	C	0.889893	0.160771	0.800111
C50	C	0.997080	0.046841	0.807349
C51	C	1.001253	0.042400	0.720225
C52	C	0.949741	0.097138	0.673046
N53	N	0.908027	0.141459	0.541862
N54	N	0.954008	0.092587	0.583992
H55	H	0.536083	0.124614	0.173561
Cl56	Cl	1.071251	-0.032007	0.670011
H57	H	0.163655	0.120217	0.215973
Cl58	Cl	1.061832	-0.021971	0.866663
Cl59	Cl	0.790787	0.266058	0.455832
Cl60	Cl	0.757036	-0.424975	0.051059
Cl61	Cl	0.718196	0.112516	-0.122320
H62	H	0.868725	-0.327467	-0.067637
H63	H	0.176826	0.106255	-0.057800
H64	H	1.070377	-0.349762	0.072259
Cl65	Cl	0.345770	0.108096	-0.079910
Cl66	Cl	0.532647	0.108545	-0.134856
H67	H	1.005378	-0.451157	-0.058525
H68	H	0.852120	0.200895	0.674576
H69	H	0.993257	-0.438488	0.193450
Cl70	Cl	0.838077	-0.297388	0.214439
Cl71	Cl	0.800209	0.256018	0.259186
Cl72	Cl	1.032724	0.008909	0.472178
Cl73	Cl	0.701808	0.129901	0.218285
H74	H	1.017496	0.025087	0.293225
H75	H	0.844550	0.208972	0.832628
H76	H	0.312798	0.123384	0.226053
