data_functionalizedCrystal
_audit_creation_method	'MofGen! by Chris Wilmer'
_symmetry_space_group_name_H-M	'P1'
_symmetry_Int_Tables_number	1
_symmetry_cell_setting	triclinic
loop_
_symmetry_equiv_pos_as_xyz
  x,y,z
_cell_length_a	18.215407
_cell_length_b	13.031981
_cell_length_c	18.215407
_cell_angle_alpha	97.196642
_cell_angle_beta	90.008215
_cell_angle_gamma	97.186371
loop_
_atom_site_label
_atom_site_type_symbol
_atom_site_fract_x
_atom_site_fract_y
_atom_site_fract_z
Zn1	Zn	1.087827	-0.416417	0.378811
Zn2	Zn	1.072157	-0.591153	0.240108
Zn3	Zn	0.964783	-0.416386	0.255766
Zn4	Zn	0.949129	-0.591125	0.363140
O5	O	1.018474	-0.503770	0.309456
O6	O	1.188730	-0.439622	0.360418
O7	O	1.057907	-0.567968	0.139201
O8	O	0.994215	-0.270133	0.285199
O9	O	1.177217	-0.567999	0.258513
O10	O	1.084614	-0.270157	0.375600
O11	O	0.979020	-0.439567	0.150705
O12	O	0.859725	-0.439540	0.270003
O13	O	0.967534	-0.567951	0.468203
O14	O	0.848223	-0.567920	0.348891
O15	O	1.069435	-0.439594	0.479716
O16	O	1.042727	-0.737406	0.243317
O17	O	0.952339	-0.737385	0.333708
C18	C	0.827272	-0.503724	0.309446
C19	C	0.745472	-0.503730	0.309457
C20	C	0.994154	-0.775318	0.285129
C21	C	0.983817	-0.891488	0.274746
C22	C	0.486389	-0.437053	0.362581
C23	C	0.563249	-0.437036	0.362580
C24	C	0.551297	-0.570521	0.256344
C25	C	0.474438	-0.570543	0.256349
C26	C	0.441986	-0.503803	0.309467
C27	C	0.595706	-0.503764	0.309461
C28	C	0.679041	-0.503746	0.309460
C29	C	0.358646	-0.503822	0.309469
C30	C	1.023908	-0.943208	0.314890
C31	C	1.013225	-1.063275	0.304160
C32	C	1.210423	-0.503817	0.309467
C33	C	1.292220	-0.503837	0.309471
C34	C	1.018486	-0.503773	0.501409
C35	C	1.018492	-0.503774	0.583207
C36	C	1.042909	-0.231162	0.333894
C37	C	1.053321	-0.114992	0.344309
C38	C	1.071536	-0.436950	0.777397
C39	C	1.071532	-0.436949	0.854256
C40	C	0.965422	-0.570614	0.842254
C41	C	0.965423	-0.570608	0.765398
C42	C	1.018484	-0.503778	0.732971
C43	C	1.018479	-0.503783	0.886686
C44	C	1.018474	-0.503783	0.970020
C45	C	1.018489	-0.503776	0.649632
C46	C	1.018460	-0.503790	1.118248
C47	C	1.018472	-0.503786	1.036449
H48	H	0.459969	-0.382708	0.405833
H49	H	0.577729	-0.624857	0.213096
H50	H	0.599399	-0.382683	0.405832
O51	O	1.079851	-0.884127	0.370939
H52	H	1.135777	-0.904970	0.356520
O53	O	0.908194	-0.642696	0.877228
H54	H	0.917108	-0.631480	0.938135
H55	H	0.438283	-0.624904	0.213095
H56	H	0.970987	-1.107881	0.261848
O57	O	0.908183	-0.642660	0.717474
H58	H	0.871286	-0.689132	0.752934
H59	H	1.114740	-0.382529	0.750998
H60	H	1.095553	-1.070388	0.386627
H61	H	1.114731	-0.382529	0.890425
H62	H	0.941582	-0.936097	0.232437
