data_functionalizedCrystal
_audit_creation_method	'MofGen! by Chris Wilmer'
_symmetry_space_group_name_H-M	'P1'
_symmetry_Int_Tables_number	1
_symmetry_cell_setting	triclinic
loop_
_symmetry_equiv_pos_as_xyz
  x,y,z
_cell_length_a	33.359693
_cell_length_b	33.359654
_cell_length_c	33.359725
_cell_angle_alpha	59.997509
_cell_angle_beta	89.997240
_cell_angle_gamma	59.999933
loop_
_atom_site_label
_atom_site_type_symbol
_atom_site_fract_x
_atom_site_fract_y
_atom_site_fract_z
O1	O	0.274989	0.353589	-0.011931
O2	O	0.216697	0.271503	0.011864
O3	O	0.216697	0.353586	-0.070222
O4	O	0.274990	0.271506	0.070154
O5	O	0.283368	0.286915	-0.070222
O6	O	0.283368	0.204831	0.011864
O7	O	0.341661	0.286918	-0.011931
Zn8	Zn	0.323100	0.235289	-0.000034
Zn9	Zn	0.235258	0.323132	-0.000034
O10	O	0.341661	0.204834	0.070154
C11	C	0.412024	0.513520	-0.028909
C12	C	0.460267	0.489514	-0.029249
C13	C	0.412026	0.440928	-0.028904
C14	C	0.460269	0.417032	-0.029245
C15	C	0.484614	0.440931	-0.028908
C16	C	0.387789	0.489511	-0.029245
C17	C	0.339271	0.586085	-0.023018
C18	C	0.316264	0.631942	-0.019302
C19	C	0.341067	0.654942	-0.017440
C20	C	0.316124	0.704662	-0.013408
C21	C	0.388877	0.632093	-0.019298
C22	C	0.411883	0.586240	-0.023016
C23	C	0.387080	0.563236	-0.024874
C24	C	0.563067	0.435232	-0.023022
C25	C	0.612640	0.408665	-0.019306
C26	C	0.637504	0.358997	-0.017439
C27	C	0.691256	0.330188	-0.013407
C28	C	0.612799	0.335891	-0.019293
C29	C	0.563227	0.362457	-0.023011
C30	C	0.538363	0.412126	-0.024874
C31	C	0.339275	0.435223	-0.023009
C32	C	0.316272	0.408649	-0.019282
C33	C	0.341076	0.358980	-0.017415
C34	C	0.316136	0.330168	-0.013378
C35	C	0.388884	0.335877	-0.019271
C36	C	0.411890	0.362447	-0.022996
C37	C	0.387083	0.412120	-0.024865
C38	C	0.073731	0.117512	0.028808
C39	C	0.098077	0.068931	0.029146
C40	C	0.146322	0.117510	0.028812
C41	C	0.170557	0.068928	0.029149
C42	C	0.146320	0.044923	0.028808
C43	C	0.098078	0.141407	0.029150
C44	C	-0.004723	0.196156	0.022918
C45	C	-0.054297	0.222882	0.019199
C46	C	-0.079162	0.199945	0.017331
C47	C	-0.132914	0.228922	0.013296
C48	C	-0.054456	0.150278	0.019186
C49	C	-0.004884	0.123552	0.022907
C50	C	0.019981	0.146493	0.024771
C51	C	0.146130	-0.027638	0.022913
C52	C	0.168980	-0.073493	0.019193
C53	C	0.216782	-0.096492	0.017329
C54	C	0.241558	-0.146209	0.013294
C55	C	0.241744	-0.073644	0.019189
C56	C	0.218897	-0.027793	0.022910
C57	C	0.171090	-0.004790	0.024770
C58	C	0.146135	0.196150	0.022925
C59	C	0.168984	0.222877	0.019204
C60	C	0.216787	0.199938	0.017339
C61	C	0.241564	0.228911	0.013308
C62	C	0.241745	0.150275	0.019193
C63	C	0.218898	0.123548	0.022912
C64	C	0.171093	0.146488	0.024778
C65	C	0.146327	0.440916	-0.367181
C66	C	0.098084	0.489498	-0.391417
C67	C	0.146327	0.440916	-0.294592
C68	C	0.098084	0.489498	-0.318938
C69	C	0.073738	0.513505	-0.367180
C70	C	0.170563	0.417019	-0.318938
C71	C	0.219079	0.362273	-0.366993
C72	C	0.242086	0.335548	-0.389843
C73	C	0.217282	0.358487	-0.437645
C74	C	0.242224	0.329511	-0.462421
C75	C	0.169472	0.408154	-0.462605
C76	C	0.146467	0.434879	-0.439757
C77	C	0.171271	0.411936	-0.391951
C78	C	-0.004715	0.586068	-0.439931
C79	C	-0.054289	0.631925	-0.462937
C80	C	-0.079153	0.654923	-0.438133
C81	C	-0.132904	0.704641	-0.463074
C82	C	-0.054446	0.632073	-0.390322
C83	C	-0.004874	0.586221	-0.367319
C84	C	0.019989	0.563219	-0.392123
C85	C	0.219079	0.362273	-0.216138
C86	C	0.242084	0.335544	-0.166562
C87	C	0.217280	0.358483	-0.141698
C88	C	0.242222	0.329507	-0.087946
C89	C	0.169472	0.408146	-0.166402
C90	C	0.146465	0.434875	-0.215976
C91	C	0.171271	0.411936	-0.240842
O92	O	0.849360	0.204845	0.011846
O93	O	0.708983	0.286933	-0.011953
O94	O	0.791057	0.204853	0.070134
O95	O	0.767286	0.286925	-0.070241
O96	O	0.791055	0.271528	0.070130
O97	O	0.708982	0.353607	-0.011957
O98	O	0.849358	0.271520	0.011841
Zn99	Zn	0.779170	0.323150	-0.000059
Zn100	Zn	0.779172	0.235303	-0.000053
O101	O	0.767285	0.353600	-0.070246
O102	O	0.283361	0.837514	0.011845
O103	O	0.341652	0.720934	-0.011953
O104	O	0.341649	0.720923	0.070134
O105	O	0.283364	0.837525	-0.070242
O106	O	0.274975	0.720928	0.070127
O107	O	0.274978	0.720940	-0.011960
O108	O	0.216687	0.837519	0.011838
Zn109	Zn	0.235247	0.779230	-0.000062
Zn110	Zn	0.323093	0.779223	-0.000053
O111	O	0.216691	0.837530	-0.070249
O112	O	-0.291004	0.837502	-0.495835
O113	O	-0.150630	0.720914	-0.437546
O114	O	-0.232709	0.720911	-0.437539
O115	O	-0.208925	0.837505	-0.495842
O116	O	-0.232711	0.720913	-0.504211
O117	O	-0.150632	0.720916	-0.504218
O118	O	-0.291006	0.837504	-0.562507
Zn119	Zn	-0.220819	0.779210	-0.543948
Zn120	Zn	-0.220817	0.779208	-0.456105
O121	O	-0.208926	0.837507	-0.562514
O122	O	0.274994	0.271501	-0.562514
O123	O	0.216697	0.353586	-0.504223
O124	O	0.216700	0.271500	-0.504217
O125	O	0.274992	0.353586	-0.562520
O126	O	0.283370	0.204830	-0.437546
O127	O	0.283367	0.286915	-0.437552
O128	O	0.341664	0.204831	-0.495843
Zn129	Zn	0.323101	0.235288	-0.456112
Zn130	Zn	0.235261	0.323129	-0.543954
O131	O	0.341662	0.286916	-0.495848
C132	C	0.484621	0.044914	0.367112
C133	C	0.460276	0.068921	0.391349
C134	C	0.412032	0.117503	0.294524
C135	C	0.387797	0.141400	0.318871
C136	C	0.412033	0.117503	0.367114
C137	C	0.460275	0.068921	0.318869
C138	C	0.563075	-0.027649	0.366921
C139	C	0.612649	-0.073505	0.389770
C140	C	0.637512	-0.096504	0.437572
C141	C	0.691264	-0.146222	0.462347
C142	C	0.612806	-0.073654	0.462533
C143	C	0.563235	-0.027803	0.439687
C144	C	0.538371	-0.004800	0.391881
C145	C	0.412222	0.123204	0.439866
C146	C	0.389373	0.149771	0.462874
C147	C	0.341571	0.199439	0.438070
C148	C	0.316795	0.228248	0.463013
C149	C	0.316610	0.222543	0.390260
C150	C	0.339457	0.195976	0.367255
C151	C	0.387263	0.146308	0.392058
C152	C	0.412220	0.123206	0.216069
C153	C	0.389372	0.149779	0.166493
C154	C	0.341570	0.199446	0.141630
C155	C	0.316793	0.228257	0.087879
C156	C	0.316612	0.222550	0.166336
C157	C	0.339458	0.195981	0.215910
C158	C	0.387262	0.146310	0.240774
C159	C	0.807948	0.117569	0.367077
C160	C	0.808281	0.068990	0.391314
C161	C	0.807964	0.117557	0.294494
C162	C	0.808297	0.068978	0.318841
C163	C	0.807947	0.044978	0.367081
C164	C	0.808299	0.141458	0.318837
C165	C	0.802059	0.196214	0.366883
C166	C	0.798337	0.222944	0.389729
C167	C	0.796460	0.200013	0.437528
C168	C	0.792422	0.228993	0.462300
C169	C	0.798310	0.150348	0.462490
C170	C	0.802035	0.123619	0.439647
C171	C	0.803907	0.146554	0.391843
C172	C	0.802038	-0.027574	0.439831
C173	C	0.798313	-0.073427	0.462838
C174	C	0.796453	-0.096429	0.438037
C175	C	0.792412	-0.146144	0.462979
C176	C	0.798321	-0.073587	0.390229
C177	C	0.802047	-0.027738	0.367225
C178	C	0.803904	-0.004732	0.392026
C179	C	0.802093	0.196190	0.216040
C180	C	0.798380	0.222911	0.166466
C181	C	0.796519	0.199968	0.141606
C182	C	0.792498	0.228936	0.087856
C183	C	0.798367	0.150308	0.166311
C184	C	0.802078	0.123586	0.215884
C185	C	0.803941	0.146529	0.240746
C186	C	0.750392	0.513477	-0.367194
C187	C	0.750061	0.489464	-0.391426
C188	C	0.750377	0.440896	-0.294606
C189	C	0.750046	0.416993	-0.318948
C190	C	0.750397	0.440882	-0.367188
C191	C	0.750042	0.489477	-0.318953
C192	C	0.756278	0.586046	-0.367010
C193	C	0.759999	0.631901	-0.389861
C194	C	0.761876	0.654892	-0.437660
C195	C	0.765913	0.704609	-0.462438
C196	C	0.760027	0.632036	-0.462617
C197	C	0.756304	0.586185	-0.439769
C198	C	0.754431	0.563190	-0.391965
C199	C	0.756307	0.435166	-0.439933
C200	C	0.760033	0.408592	-0.462934
C201	C	0.761895	0.358926	-0.438128
C202	C	0.765937	0.330109	-0.463065
C203	C	0.760026	0.335829	-0.390321
C204	C	0.756299	0.362403	-0.367321
C205	C	0.754441	0.412070	-0.392127
C206	C	0.756248	0.435208	-0.216157
C207	C	0.759961	0.408643	-0.166583
C208	C	0.761823	0.358976	-0.141717
C209	C	0.765844	0.330173	-0.087967
C210	C	0.759976	0.335866	-0.166418
C211	C	0.756265	0.362427	-0.215990
C212	C	0.754401	0.412097	-0.240858
C213	C	0.412000	0.440901	0.367085
C214	C	0.460243	0.417000	0.391323
C215	C	0.412005	0.513495	0.294499
C216	C	0.460248	0.489484	0.318848
C217	C	0.484591	0.440897	0.367090
C218	C	0.387767	0.489488	0.318842
C219	C	0.339245	0.435204	0.366890
C220	C	0.316236	0.408637	0.389736
C221	C	0.341037	0.358965	0.437538
C222	C	0.316093	0.330156	0.462311
C223	C	0.388848	0.335857	0.462501
C224	C	0.411855	0.362424	0.439657
C225	C	0.387053	0.412096	0.391851
C226	C	0.563043	0.362246	0.439844
C227	C	0.612616	0.335518	0.462853
C228	C	0.637482	0.358457	0.438052
C229	C	0.691234	0.329477	0.462996
C230	C	0.612778	0.408128	0.390242
C231	C	0.563207	0.434857	0.367235
C232	C	0.538341	0.411913	0.392037
C233	C	0.339256	0.586068	0.216043
C234	C	0.316254	0.631924	0.166467
C235	C	0.341061	0.654922	0.141606
C236	C	0.316122	0.704645	0.087855
C237	C	0.388869	0.632068	0.166313
C238	C	0.411873	0.586212	0.215887
C239	C	0.387064	0.563214	0.240750
O240	O	0.767160	0.287018	0.562382
O241	O	0.790960	0.204924	0.504099
O242	O	0.708874	0.287019	0.504081
O243	O	0.849246	0.204923	0.562400
O244	O	0.708890	0.353681	0.437413
O245	O	0.790976	0.271587	0.437430
O246	O	0.767177	0.353680	0.495714
Zn247	Zn	0.779079	0.323218	0.455987
Zn248	Zn	0.779057	0.235387	0.543826
O249	O	0.849262	0.271586	0.495731
C250	C	0.073750	1.117557	-0.367205
C251	C	0.098099	1.141453	-0.391438
C252	C	0.146336	1.044959	-0.294614
C253	C	0.170575	1.068966	-0.318957
C254	C	0.146342	1.117552	-0.367199
C255	C	0.098093	1.068970	-0.318963
C256	C	-0.004707	1.123263	-0.367023
C257	C	-0.054280	1.149835	-0.389875
C258	C	-0.079141	1.199506	-0.437676
C259	C	-0.132892	1.228321	-0.462456
C260	C	-0.054431	1.222610	-0.462634
C261	C	-0.004860	1.196038	-0.439784
C262	C	0.020001	1.146367	-0.391978
C263	C	0.146159	1.196198	-0.439947
C264	C	0.169012	1.222922	-0.462950
C265	C	0.216814	1.199978	-0.438143
C266	C	0.241593	1.228953	-0.463081
C267	C	0.241772	1.150307	-0.390333
C268	C	0.218921	1.123583	-0.367332
C269	C	0.171115	1.146531	-0.392139
C270	C	0.146141	0.972390	-0.216163
C271	C	0.168986	0.926534	-0.166587
C272	C	0.216787	0.903531	-0.141721
C273	C	0.241561	0.853808	-0.087969
C274	C	0.241749	0.926381	-0.166422
C275	C	0.218907	0.972237	-0.215996
C276	C	0.171103	0.995240	-0.240865
H277	H	0.319071	0.567359	-0.024535
F278	F	0.265385	0.656254	-0.017323
F279	F	0.021420	0.561906	-0.316439
F280	F	0.796328	-0.097734	0.513717
H281	H	0.280675	0.907648	-0.146172
F282	F	0.245460	0.070695	0.024881
H283	H	0.803583	0.083151	0.235998
H284	H	0.543114	0.343641	-0.024518
F285	F	0.292623	0.125862	0.017204
F286	F	0.143074	0.432567	-0.513484
F287	F	0.415242	0.282988	0.513380
H288	H	0.803568	-0.009142	0.328300
H289	H	0.149272	0.426821	-0.146152
H290	H	0.078542	1.048881	-0.299421
F291	F	0.312895	0.220572	0.242202
H292	H	0.450801	0.567604	0.236002
F293	F	0.142448	1.275782	-0.513831
F294	F	0.638938	-0.097819	0.363204
H295	H	0.749519	0.509556	-0.431064
H296	H	0.632724	0.295077	0.501780
F297	F	0.072526	0.515739	-0.293378
H298	H	0.280671	-0.092379	0.017672
F299	F	0.749327	0.515741	-0.293408
H300	H	0.633032	0.426804	0.370051
F301	F	0.809015	0.192555	0.293286
F302	F	-0.080586	0.275734	0.017228
H303	H	0.808821	0.048903	0.430952
F304	F	0.796414	0.275762	0.140177
H305	H	0.761551	0.427405	-0.501860
F306	F	0.021745	0.561592	-0.466334
F307	F	0.335986	0.192494	0.293325
F308	F	0.415274	0.656578	-0.017316
F309	F	0.462761	0.561928	-0.025000
H310	H	0.761463	0.427465	-0.146476
F311	F	0.762006	0.282966	-0.363922
H312	H	0.796783	0.131679	0.501414
F313	F	0.804076	0.220609	0.242499
H314	H	0.479822	0.048826	0.299325
H315	H	0.633052	0.295441	-0.017768
H316	H	0.409698	0.130962	0.146382
H317	H	0.754797	0.567578	-0.460090
H318	H	0.319052	0.567346	0.236285
H319	H	0.754728	0.475653	-0.236403
F320	F	0.222374	0.365925	-0.293392
H321	H	0.450819	0.343631	-0.024505
F322	F	-0.080578	0.656239	-0.513819
H323	H	0.796808	-0.092325	0.370039
H324	H	0.542823	0.475677	-0.024542
F325	F	0.809026	0.042705	0.293300
F326	F	0.265734	0.275416	0.139872
H327	H	0.148658	0.263313	0.017695
H328	H	0.754750	0.567328	-0.328087
F329	F	0.761965	0.656222	-0.363299
H330	H	0.632749	0.427485	-0.017798
F331	F	0.463095	0.070338	0.242532
H332	H	0.543093	0.475301	0.328310
H333	H	0.409084	0.295428	-0.017747
F334	F	0.796385	0.125890	0.139850
H335	H	0.239282	0.343594	-0.236383
H336	H	0.210215	1.048863	-0.299409
F337	F	0.754327	0.488028	-0.466337
F338	F	0.485818	0.365933	-0.029954
F339	F	0.222365	0.042671	0.029856
H340	H	0.754782	0.343594	-0.328394
H341	H	0.280698	1.131628	-0.370137
H342	H	0.633058	-0.092388	0.501460
F343	F	0.072528	0.042669	0.029860
H344	H	0.239280	0.343590	-0.328068
H345	H	0.078531	0.180498	0.029699
H346	H	0.409069	0.650795	0.146067
H347	H	0.281012	0.295111	-0.369517
H348	H	0.761496	0.295419	-0.146167
H349	H	0.281011	0.295110	-0.146453
F350	F	0.142411	-0.097806	0.017217
F351	F	0.095258	0.220565	0.024913
F352	F	0.485790	0.515762	0.293311
F353	F	0.072539	0.515764	-0.443229
H354	H	0.542832	-0.008925	0.327997
H355	H	0.803557	-0.008850	0.460031
H356	H	0.107540	0.475319	-0.460082
F357	F	-0.080913	0.656556	-0.363925
H358	H	0.761555	0.650763	-0.501541
H359	H	0.754767	0.343604	-0.236099
F360	F	0.142417	0.902220	-0.140302
H361	H	0.015521	0.214837	0.024439
H362	H	0.319046	0.475652	0.327966
H363	H	0.479785	0.377905	0.430962
H364	H	0.479821	0.048820	0.430990
F365	F	-0.080924	0.125868	0.017198
H366	H	0.277683	0.262987	0.370068
H367	H	0.107536	0.475311	-0.236089
H368	H	0.277345	0.427465	-0.017772
F369	F	0.335959	0.515750	0.293290
H370	H	0.277326	0.650531	0.146356
F371	F	0.265356	0.433232	0.363168
H372	H	0.015232	0.083112	0.024420
H373	H	0.239245	1.083138	-0.328407
H374	H	0.543118	-0.009204	0.460014
F375	F	0.463101	0.070341	0.466268
H376	H	-0.074681	1.263060	-0.501559
H377	H	0.450785	0.343604	0.459981
F378	F	0.415940	0.125177	0.513756
F379	F	0.312893	0.220562	0.316375
H380	H	0.803545	0.083179	0.459973
H381	H	0.749502	0.377898	-0.299397
F382	F	0.095264	0.996869	-0.242629
H383	H	0.803587	0.214891	0.327960
H384	H	0.796831	0.263379	0.369402
F385	F	0.536580	0.337828	0.466244
F386	F	0.095250	-0.003159	0.024894
H387	H	0.015534	1.082816	-0.328098
F388	F	0.485812	0.515782	-0.029972
F389	F	0.335981	0.515770	-0.029953
F390	F	0.072555	1.192552	-0.443248
H391	H	-0.074393	1.131018	-0.369553
F392	F	0.021432	1.220638	-0.466336
F393	F	0.245473	0.996556	-0.242284
F394	F	0.312870	0.488091	-0.025001
F395	F	0.245461	-0.003477	0.024889
H396	H	0.107234	1.214884	-0.460151
