data_functionalizedCrystal
_audit_creation_method	'MofGen! by Chris Wilmer'
_symmetry_space_group_name_H-M	'P1'
_symmetry_Int_Tables_number	1
_symmetry_cell_setting	triclinic
loop_
_symmetry_equiv_pos_as_xyz
  x,y,z
_cell_length_a	17.638891
_cell_length_b	17.639181
_cell_length_c	10.686551
_cell_angle_alpha	96.025361
_cell_angle_beta	84.000830
_cell_angle_gamma	114.294327
loop_
_atom_site_label
_atom_site_type_symbol
_atom_site_fract_x
_atom_site_fract_y
_atom_site_fract_z
Zn1	Zn	0.564070	1.344711	-0.460804
Zn2	Zn	0.708724	1.365702	-0.289716
Zn3	Zn	0.543116	1.200076	-0.289817
Zn4	Zn	0.671231	1.237561	-0.529992
O5	O	0.621785	1.287013	-0.392582
O6	O	0.607719	1.461653	-0.409111
O7	O	0.693678	1.336828	-0.117615
O8	O	0.431741	1.194790	-0.283585
O9	O	0.713996	1.477075	-0.283414
O10	O	0.447135	1.301053	-0.409209
O11	O	0.572006	1.215144	-0.117689
O12	O	0.535650	1.090891	-0.350674
O13	O	0.650094	1.258678	-0.692928
O14	O	0.629776	1.118431	-0.527129
O15	O	0.571363	1.337401	-0.642096
O16	O	0.817906	1.373176	-0.350503
O17	O	0.790359	1.279032	-0.527032
C18	C	0.576371	1.075062	-0.446421
C19	C	0.556961	0.984394	-0.469488
C20	C	0.409011	1.241399	-0.338690
C21	C	0.318340	1.221961	-0.315725
C22	C	0.769420	0.726262	-0.217408
C23	C	0.751170	0.641064	-0.239090
C24	C	0.640663	0.625050	-0.370255
C25	C	0.658901	0.710248	-0.348579
C26	C	0.723281	0.760848	-0.272155
C27	C	0.612762	0.744834	-0.403326
C28	C	0.631001	0.830025	-0.381656
C29	C	0.695380	0.880631	-0.305239
C30	C	0.741521	0.846040	-0.250485
C31	C	0.548386	0.694233	-0.479757
C32	C	0.502246	0.728819	-0.534504
C33	C	0.520482	0.814011	-0.512827
C34	C	0.584861	0.864617	-0.436410
C35	C	0.474341	0.848602	-0.567581
C36	C	0.492581	0.933794	-0.545911
C37	C	0.603101	0.949808	-0.414740
C38	C	0.060222	1.434701	-0.567104
C39	C	-0.024976	1.416436	-0.545481
C40	C	-0.040994	1.305794	-0.414680
C41	C	0.044203	1.324047	-0.436297
C42	C	0.094805	1.388503	-0.512509
C43	C	0.078786	1.277849	-0.381702
C44	C	0.163977	1.296104	-0.403312
C45	C	0.214585	1.360558	-0.479517
C46	C	0.179996	1.406758	-0.534118
C47	C	0.028184	1.213398	-0.305484
C48	C	0.062767	1.167199	-0.250888
C49	C	0.147958	1.185450	-0.272505
C50	C	0.198566	1.249904	-0.348710
C51	C	0.182547	1.139250	-0.217903
C52	C	0.267737	1.157506	-0.239513
C53	C	0.283757	1.268160	-0.370320
C54	C	0.833735	1.332472	-0.446285
C55	C	0.924423	1.351996	-0.469282
C56	C	0.608883	1.299879	-0.713388
C57	C	0.603385	1.305363	-0.850096
C58	C	0.667377	1.499791	-0.338534
C59	C	0.686806	1.590465	-0.315502
C60	C	0.634588	1.274230	-0.072998
C61	C	0.639890	1.268856	0.063808
H62	H	0.655521	0.991009	-0.352500
H63	H	0.567928	1.340819	-0.880976
O64	O	0.234583	1.476267	-0.616338
H65	H	0.284523	1.523881	-0.560604
O66	O	0.686859	1.221891	-0.895310
H67	H	0.683945	1.224802	-0.790749
H68	H	0.588246	0.583841	-0.432484
H69	H	-0.082204	1.253316	-0.352625
O70	O	-0.063701	1.193709	-0.282159
H71	H	-0.100359	1.128356	-0.316925
H72	H	0.710223	0.949997	-0.287585
H73	H	0.421929	0.807393	-0.629815
H74	H	0.324956	1.320631	-0.432407
O75	O	0.838853	0.780850	-0.134969
H76	H	0.898564	0.779095	-0.176287
H77	H	0.793941	0.887240	-0.188244
H78	H	0.788749	0.612909	-0.194506
O79	O	0.432807	0.674234	-0.616920
H80	H	0.446515	0.697483	-0.712828
O81	O	0.008187	1.097685	-0.168685
H82	H	0.009963	1.038009	-0.210186
O83	O	0.528703	0.602345	-0.503123
H84	H	0.584457	0.594077	-0.549122
O85	O	0.442812	0.971102	-0.604944
H86	H	0.449512	0.961653	-0.709167
O87	O	0.306478	1.380291	-0.502839
H88	H	0.314783	1.324593	-0.549044
O89	O	-0.062271	1.466270	-0.604380
H90	H	-0.089957	1.497258	-0.528944
O91	O	0.114811	1.504220	-0.649305
H92	H	0.076454	1.533283	-0.683640
H93	H	0.141337	1.086776	-0.155842
O94	O	0.305046	1.107677	-0.180642
H95	H	0.255546	1.059784	-0.124030
