data_functionalizedCrystal
_audit_creation_method	'MofGen! by Chris Wilmer'
_symmetry_space_group_name_H-M	'P1'
_symmetry_Int_Tables_number	1
_symmetry_cell_setting	triclinic
loop_
_symmetry_equiv_pos_as_xyz
  x,y,z
_cell_length_a	11.792254
_cell_length_b	10.868271
_cell_length_c	11.792241
_cell_angle_alpha	90.005281
_cell_angle_beta	95.803993
_cell_angle_gamma	89.995741
loop_
_atom_site_label
_atom_site_type_symbol
_atom_site_fract_x
_atom_site_fract_y
_atom_site_fract_z
O1	O	1.506900	-0.102322	-0.155637
O2	O	1.840233	0.231012	0.177696
O3	O	2.173566	0.564345	0.511030
O4	O	1.176561	-0.102324	-0.171655
O5	O	1.509894	0.231009	0.161678
O6	O	1.843227	0.564342	0.495012
O7	O	1.349747	-0.102314	0.001524
O8	O	1.683080	0.231019	0.334858
O9	O	2.016413	0.564352	0.668191
O10	O	1.333714	-0.102332	-0.328816
O11	O	1.667047	0.231002	0.004517
O12	O	2.000380	0.564335	0.337851
O13	O	1.349732	0.102330	0.001531
O14	O	1.683066	0.435664	0.334864
O15	O	2.016399	0.768997	0.668198
O16	O	1.176546	0.102320	-0.171648
O17	O	1.509880	0.435653	0.161685
O18	O	1.843213	0.768987	0.495019
O19	O	1.506885	0.102323	-0.155630
O20	O	1.840219	0.435656	0.177703
O21	O	2.173552	0.768990	0.511037
Zn22	Zn	1.341714	0.134813	-0.163638
Zn23	Zn	1.675047	0.468147	0.169695
Zn24	Zn	2.008380	0.801480	0.503029
Zn25	Zn	1.341733	-0.134815	-0.163647
Zn26	Zn	1.675066	0.198518	0.169686
Zn27	Zn	2.008399	0.531852	0.503020
O28	O	1.333699	0.102313	-0.328809
O29	O	1.667033	0.435646	0.004524
O30	O	2.000366	0.768980	0.337857
C31	C	1.134263	-0.000002	-0.170642
C32	C	1.467596	0.333331	0.162691
C33	C	1.800929	0.666664	0.496024
C34	C	1.008250	-0.000003	-0.167622
C35	C	1.341583	0.333330	0.165711
C36	C	1.674916	0.666663	0.499044
C37	C	0.905913	-0.000008	-0.165168
C38	C	1.239247	0.333325	0.168165
C39	C	1.572580	0.666658	0.501498
C40	C	0.777527	-0.000009	-0.162100
C41	C	1.110860	0.333324	0.171233
C42	C	1.444193	0.666658	0.504567
C43	C	1.348732	0.000008	0.043819
C44	C	1.682066	0.333341	0.377152
C45	C	2.015399	0.666674	0.710485
C46	C	1.345718	0.000006	0.169832
C47	C	1.679051	0.333340	0.503166
C48	C	2.012385	0.666673	0.836499
C49	C	1.549183	-0.000002	-0.156643
C50	C	1.882517	0.333331	0.176691
C51	C	2.215850	0.666665	0.510024
C52	C	1.675196	-0.000009	-0.159663
C53	C	2.008530	0.333324	0.173671
C54	C	2.341863	0.666658	0.507004
N55	N	1.341746	-0.318829	-0.163645
N56	N	1.675079	0.014504	0.169688
N57	N	2.008413	0.347838	0.503022
N58	N	1.341709	0.318827	-0.163631
N59	N	1.675042	0.652161	0.169702
N60	N	2.008376	0.985494	0.503035
C61	C	1.341727	0.569833	-0.163645
C62	C	1.675060	0.903167	0.169689
C63	C	2.008393	1.236500	0.503022
C64	C	1.341713	0.430156	-0.163640
C65	C	1.675046	0.763489	0.169693
C66	C	2.008380	1.096823	0.503026
C67	C	1.334714	-0.000012	-0.371104
C68	C	1.668047	0.333322	-0.037770
C69	C	2.001380	0.666655	0.295563
C70	C	1.337728	-0.000019	-0.497118
C71	C	1.671061	0.333315	-0.163784
C72	C	2.004395	0.666648	0.169549
C73	C	1.340175	-0.000014	0.400545
C74	C	1.673508	0.333319	0.733878
C75	C	2.006842	0.666652	1.067212
C76	C	1.343255	-0.000003	0.272160
C77	C	1.676588	0.333330	0.605493
C78	C	2.009921	0.666664	0.938826
