data_functionalizedCrystal
_audit_creation_method	'MofGen! by Chris Wilmer'
_symmetry_space_group_name_H-M	'P1'
_symmetry_Int_Tables_number	1
_symmetry_cell_setting	triclinic
loop_
_symmetry_equiv_pos_as_xyz
  x,y,z
_cell_length_a	16.109301
_cell_length_b	10.654550
_cell_length_c	9.730223
_cell_angle_alpha	90.000193
_cell_angle_beta	89.997484
_cell_angle_gamma	83.973192
loop_
_atom_site_label
_atom_site_type_symbol
_atom_site_fract_x
_atom_site_fract_y
_atom_site_fract_z
O1	O	-1.104087	-0.161415	-0.114199
O2	O	-0.862144	-0.181503	-0.114221
O3	O	-0.988678	0.011355	-0.114205
O4	O	-0.977553	-0.354274	-0.114216
O5	O	-0.988677	0.011351	0.114375
O6	O	-0.862143	-0.181508	0.114359
O7	O	-1.104085	-0.161420	0.114381
Zn8	Zn	-0.983114	-0.171465	0.150662
Zn9	Zn	-0.983116	-0.171458	-0.150502
O10	O	-0.977551	-0.354279	0.114364
C11	C	-0.987861	0.058140	0.000084
C12	C	-0.985417	0.197550	0.000079
C13	C	-0.831164	-0.180692	0.000066
C14	C	-0.738854	-0.178253	0.000058
C15	C	-1.135066	-0.162231	0.000090
C16	C	-1.227376	-0.164671	0.000089
C17	C	-0.517228	-0.287019	0.000071
C18	C	-0.430494	-0.284717	0.000080
C19	C	-0.449008	-0.055896	0.000081
C20	C	-0.535741	-0.058199	0.000082
C21	C	-0.569848	-0.173764	0.000070
C22	C	-0.396382	-0.169159	0.000078
C23	C	-0.302341	-0.166662	0.000087
C24	C	-0.663895	-0.176262	0.000063
C25	C	-0.978369	-0.401063	0.000073
C26	C	-0.980813	-0.540473	0.000069
N27	N	-0.983119	-0.171468	0.356198
C28	C	-1.059918	0.278046	0.000089
C29	C	-1.057616	0.409036	0.000080
C30	C	-0.906306	0.379020	0.000054
C31	C	-0.908608	0.248033	0.000054
C32	C	-1.147276	0.295377	0.000110
C33	C	-1.144974	0.426367	0.000100
N34	N	-0.983118	-0.171445	-0.356038
C35	C	-1.039162	-0.086099	0.428131
C36	C	-1.039160	-0.086084	0.572014
C37	C	-0.927068	-0.256818	0.572018
C38	C	-0.927067	-0.256826	0.428138
C39	C	-1.103881	0.012469	0.428130
C40	C	-1.103878	0.012485	0.572013
H41	H	-0.387654	-0.376940	0.000083
O42	O	-0.872508	-0.339608	0.641844
C43	C	-0.728370	-0.413158	0.685795
C44	C	-0.790067	-0.319308	0.606661
H45	H	-0.661703	-0.396796	0.657357
H46	H	-0.737922	-0.398486	0.801003
H47	H	-0.739818	-0.513743	0.657537
H48	H	-0.778656	-0.218685	0.634804
H49	H	-0.780500	-0.334090	0.491472
O50	O	-0.415736	0.056248	0.000021
C51	C	-0.290326	0.161209	0.000095
C52	C	-0.327892	0.034116	0.000136
H53	H	-0.219300	0.143360	0.000217
H54	H	-0.311883	0.217192	-0.095588
H55	H	-0.311995	0.217175	0.095733
H56	H	-0.306241	-0.021952	-0.095437
H57	H	-0.306339	-0.021771	0.095882
H58	H	-1.164243	-0.017300	0.383509
H59	H	-0.847942	0.182496	0.000026
H60	H	-1.175093	0.260126	0.098809
O61	O	-0.550224	-0.399383	0.000132
C62	C	-0.522702	-0.626098	0.000059
C63	C	-0.485228	-0.498931	0.000017
H64	H	-0.470171	-0.706616	-0.000063
H65	H	-0.562818	-0.632980	0.095742
H66	H	-0.562870	-0.632833	-0.095579
H67	H	-0.445022	-0.492110	0.095590
H68	H	-0.445160	-0.492103	-0.095729
O69	O	-1.086896	0.127448	0.381760
C70	C	-1.056060	0.337009	0.441826
C71	C	-1.075268	0.206851	0.494527
H72	H	-1.046672	0.401250	0.532972
H73	H	-0.996883	0.325644	0.376785
H74	H	-1.110472	0.380518	0.376689
H75	H	-1.020908	0.163269	0.559721
H76	H	-1.134474	0.218298	0.559494
H77	H	-1.083679	0.103433	0.616630
H78	H	-0.578586	0.034032	0.000085
H79	H	-1.171376	0.472370	-0.098592
O80	O	-1.180132	-0.012214	0.618388
C81	C	-1.319104	-0.057057	0.558327
C82	C	-1.232784	-0.029134	0.505622
H83	H	-1.361703	-0.070719	0.467183
H84	H	-1.312076	-0.146536	0.623379
H85	H	-1.347455	0.025509	0.623454
H86	H	-1.204386	-0.111623	0.440439
H87	H	-1.239866	0.060387	0.440645
H88	H	-0.843771	0.420139	0.000033
H89	H	-1.181445	0.266485	-0.095540
H90	H	-0.881424	-0.326330	0.369571
H91	H	-1.177889	0.468571	0.095762
