data_functionalizedCrystal
_audit_creation_method	'MofGen! by Chris Wilmer'
_symmetry_space_group_name_H-M	'P1'
_symmetry_Int_Tables_number	1
_symmetry_cell_setting	triclinic
loop_
_symmetry_equiv_pos_as_xyz
  x,y,z
_cell_length_a	13.262533
_cell_length_b	16.109301
_cell_length_c	15.186229
_cell_angle_alpha	90.005167
_cell_angle_beta	105.913449
_cell_angle_gamma	96.030687
loop_
_atom_site_label
_atom_site_type_symbol
_atom_site_fract_x
_atom_site_fract_y
_atom_site_fract_z
O1	O	1.392587	-0.112000	0.260296
O2	O	1.725920	0.221333	0.593629
O3	O	2.059254	0.554666	0.926963
O4	O	1.087009	-0.124173	0.187107
O5	O	1.420342	0.209160	0.520441
O6	O	1.753676	0.542494	0.853774
O7	O	1.248193	0.002913	0.225721
O8	O	1.581526	0.336247	0.559054
O9	O	1.914859	0.669580	0.892388
O10	O	1.231404	-0.239087	0.221682
O11	O	1.564737	0.094247	0.555015
O12	O	1.898070	0.427580	0.888349
O13	O	1.248182	0.002915	0.372176
O14	O	1.581515	0.336248	0.705509
O15	O	1.914849	0.669582	1.038842
O16	O	1.086998	-0.124171	0.333562
O17	O	1.420332	0.209162	0.666895
O18	O	1.753665	0.542495	1.000229
O19	O	1.392576	-0.111999	0.406751
O20	O	1.725910	0.221335	0.740084
O21	O	2.059243	0.554668	1.073417
Zn22	Zn	1.239786	-0.118085	0.393409
Zn23	Zn	1.573119	0.215249	0.726742
Zn24	Zn	1.906452	0.548582	1.060076
Zn25	Zn	1.239800	-0.118087	0.200449
Zn26	Zn	1.573133	0.215246	0.533782
Zn27	Zn	1.906466	0.548580	0.867115
O28	O	1.231393	-0.239085	0.368137
O29	O	1.564726	0.094248	0.701470
O30	O	1.898060	0.427582	1.034803
C31	C	1.047901	-0.123489	0.250969
C32	C	1.381235	0.209844	0.584303
C33	C	1.714568	0.543177	0.917636
C34	C	0.931388	-0.121445	0.223064
C35	C	1.264721	0.211889	0.556397
C36	C	1.598055	0.545222	0.889730
C37	C	0.602924	-0.115688	0.463733
C38	C	0.936258	0.217645	0.797066
C39	C	1.269591	0.550978	1.130400
C40	C	0.712394	-0.117613	0.489956
C41	C	1.045727	0.215720	0.823289
C42	C	1.379060	0.549053	1.156622
C43	C	0.767148	-0.118571	0.423235
C44	C	1.100481	0.214762	0.756568
C45	C	1.433814	0.548096	1.089902
C46	C	0.712422	-0.117604	0.330287
C47	C	1.045755	0.215729	0.663620
C48	C	1.379088	0.549063	0.996954
C49	C	0.602941	-0.115685	0.304061
C50	C	0.936274	0.217648	0.637394
C51	C	1.269607	0.550982	0.970728
C52	C	0.767164	-0.118568	0.263563
C53	C	1.100497	0.214765	0.596897
C54	C	1.433830	0.548099	0.930230
C55	C	0.712438	-0.117601	0.170615
C56	C	1.045771	0.215733	0.503948
C57	C	1.379104	0.549066	0.837282
C58	C	0.602968	-0.115682	0.144394
C59	C	0.936301	0.217652	0.477727
C60	C	1.269634	0.550985	0.811061
C61	C	0.548214	-0.114724	0.211115
C62	C	0.881547	0.218609	0.544448
C63	C	1.214880	0.551943	0.877781
C64	C	0.876645	-0.120487	0.289789
C65	C	1.209978	0.212847	0.623122
C66	C	1.543312	0.546180	0.956456
C67	C	0.876661	-0.120483	0.130117
C68	C	1.209994	0.212850	0.463450
C69	C	1.543328	0.546183	0.796784
C70	C	0.767192	-0.118558	0.103894
C71	C	1.100525	0.214775	0.437228
C72	C	1.433858	0.548108	0.770561
C73	C	1.247507	0.033892	0.298786
C74	C	1.580841	0.367225	0.632119
C75	C	1.914174	0.700558	0.965453
C76	C	1.245468	0.126194	0.298299
C77	C	1.578802	0.459528	0.631632
C78	C	1.912135	0.792861	0.964966
C79	C	1.431684	-0.112682	0.342887
C80	C	1.765018	0.220651	0.676220
C81	C	2.098351	0.553984	1.009553
C82	C	1.548197	-0.114727	0.370786
C83	C	1.881531	0.218606	0.704120
C84	C	2.214864	0.551940	1.037453
C85	C	1.232078	-0.270063	0.295070
C86	C	1.565412	0.063270	0.628403
C87	C	1.898745	0.396603	0.961737
C88	C	1.234117	-0.362366	0.295551
C89	C	1.567451	-0.029033	0.628885
C90	C	1.900784	0.304301	0.962218
N91	N	1.239784	-0.118082	0.525101
N92	N	1.573117	0.215251	0.858435
N93	N	1.906450	0.548584	1.191768
C94	C	1.336370	0.348132	0.320057
C95	C	1.669704	0.681465	0.653390
C96	C	2.003037	1.014798	0.986724
C97	C	1.334446	0.434859	0.319589
C98	C	1.667780	0.768192	0.652922
C99	C	2.001113	1.101526	0.986255
C100	C	1.143208	0.415690	0.273789
C101	C	1.476541	0.749023	0.607122
C102	C	1.809874	1.082357	0.940456
C103	C	1.145133	0.328964	0.274251
C104	C	1.478466	0.662297	0.607584
C105	C	1.811799	0.995631	0.940918
C106	C	1.241717	0.295188	0.297390
C107	C	1.575051	0.628521	0.630723
C108	C	1.908384	0.961854	0.964057
C109	C	1.237868	0.468641	0.296460
C110	C	1.571202	0.801974	0.629793
C111	C	1.904535	1.135307	0.963127
C112	C	1.235781	0.562675	0.295952
C113	C	1.569115	0.896008	0.629286
C114	C	1.902448	1.229341	0.962619
C115	C	1.243805	0.201148	0.297896
C116	C	1.577138	0.534481	0.631230
C117	C	1.910471	0.867814	0.964563
N118	N	1.239810	-0.118083	0.068759
N119	N	1.573143	0.215251	0.402092
N120	N	1.906477	0.548584	0.735425
C121	C	1.311180	-0.061828	0.767928
C122	C	1.644513	0.271506	1.101261
C123	C	1.977847	0.604839	1.434595
C124	C	1.311183	-0.061826	0.860119
C125	C	1.644517	0.271508	1.193452
C126	C	1.977850	0.604841	1.526785
C127	C	1.168406	-0.174340	0.825923
C128	C	1.501740	0.158993	1.159257
C129	C	1.835073	0.492327	1.492590
C130	C	1.168399	-0.174337	0.733734
C131	C	1.501732	0.158996	1.067067
C132	C	1.835065	0.492329	1.400400
C133	C	1.239791	-0.118082	0.704740
C134	C	1.573125	0.215251	1.038073
C135	C	1.906458	0.548584	1.371406
C136	C	1.239802	-0.118083	0.889120
C137	C	1.573136	0.215250	1.222453
C138	C	1.906469	0.548584	1.555787
C139	C	1.239805	-0.118081	0.989077
C140	C	1.573139	0.215252	1.322410
C141	C	1.906472	0.548585	1.655744
C142	C	1.239787	-0.118083	0.604776
C143	C	1.573121	0.215251	0.938110
C144	C	1.906454	0.548584	1.271443
H145	H	0.921192	-0.121276	0.365468
H146	H	1.254525	0.212058	0.698801
H147	H	1.587859	0.545391	1.032135
O148	O	1.043032	0.271858	0.249807
O149	O	1.376365	0.605191	0.583140
O150	O	1.709699	0.938524	0.916473
H151	H	1.039331	0.231887	0.189223
H152	H	1.372664	0.565220	0.522556
H153	H	1.705998	0.898553	0.855890
H154	H	0.722618	-0.117772	0.028214
H155	H	1.055951	0.215562	0.361548
H156	H	1.389285	0.548895	0.694881
O157	O	1.091417	-0.235024	0.857197
O158	O	1.424751	0.098310	1.190530
O159	O	1.758084	0.431643	1.523864
H160	H	1.103423	-0.225583	0.931920
H161	H	1.436757	0.107750	1.265254
H162	H	1.770090	0.441083	1.598587
H163	H	1.369311	-0.016020	0.744324
H164	H	1.702644	0.317313	1.077658
H165	H	2.035978	0.650646	1.410991
O166	O	1.388193	-0.001162	0.928278
O167	O	1.721526	0.332171	1.261612
O168	O	2.054860	0.665504	1.594945
H169	H	1.437840	0.037946	0.892627
H170	H	1.771174	0.371279	1.225960
H171	H	2.104507	0.704613	1.559294
H172	H	0.756944	-0.118400	0.565634
H173	H	1.090277	0.214934	0.898967
H174	H	1.423611	0.548267	1.232301
H175	H	0.558333	-0.114915	0.518046
H176	H	0.891666	0.218419	0.851380
H177	H	1.224999	0.551752	1.184713
H178	H	1.415016	0.320634	0.338896
H179	H	1.748349	0.653967	0.672230
H180	H	2.081682	0.987301	1.005563
H181	H	0.856283	-0.120139	0.444591
H182	H	1.189616	0.213195	0.777925
H183	H	1.522949	0.546528	1.111258
O184	O	1.091401	-0.235017	0.665570
O185	O	1.424735	0.098316	0.998903
O186	O	1.758068	0.431650	1.332237
H187	H	1.041770	-0.274144	0.701220
H188	H	1.375104	0.059189	1.034553
H189	H	1.708437	0.392522	1.367887
H190	H	1.411523	0.477963	0.338045
H191	H	1.744856	0.811297	0.671378
H192	H	2.078189	1.144630	1.004711
H193	H	0.558411	-0.114903	0.068709
H194	H	0.891744	0.218430	0.402042
H195	H	1.225078	0.551764	0.735376
H196	H	0.921241	-0.121266	0.075787
H197	H	1.254574	0.212067	0.409121
H198	H	1.587907	0.545400	0.742454
H199	H	0.459076	-0.113149	0.189769
H200	H	0.792409	0.220185	0.523102
H201	H	1.125742	0.553518	0.856435
H202	H	1.064572	0.443202	0.254951
H203	H	1.397905	0.776535	0.588285
H204	H	1.731239	1.109868	0.921618
