data_functionalizedCrystal
_audit_creation_method	'MofGen! by Chris Wilmer'
_symmetry_space_group_name_H-M	'P1'
_symmetry_Int_Tables_number	1
_symmetry_cell_setting	triclinic
loop_
_symmetry_equiv_pos_as_xyz
  x,y,z
_cell_length_a	19.805407
_cell_length_b	21.295416
_cell_length_c	19.805399
_cell_angle_alpha	89.971630
_cell_angle_beta	90.020409
_cell_angle_gamma	89.967728
loop_
_atom_site_label
_atom_site_type_symbol
_atom_site_fract_x
_atom_site_fract_y
_atom_site_fract_z
Zn1	Zn	1.034717	0.250591	0.382731
Zn2	Zn	1.368051	0.583925	0.716064
Zn3	Zn	1.701384	0.917258	1.049398
Zn4	Zn	1.034624	0.355860	0.269541
Zn5	Zn	1.367958	0.689193	0.602875
Zn6	Zn	1.701291	1.022527	0.936208
Zn7	Zn	0.921532	0.250612	0.269554
Zn8	Zn	1.254865	0.583945	0.602887
Zn9	Zn	1.588199	0.917279	0.936221
Zn10	Zn	0.921488	0.355830	0.382686
Zn11	Zn	1.254821	0.689163	0.716020
Zn12	Zn	1.588154	1.022497	1.049353
O13	O	0.978090	0.303223	0.326128
O14	O	1.311424	0.636557	0.659461
O15	O	1.644757	0.969890	0.992795
O16	O	1.129421	0.264559	0.367730
O17	O	1.462755	0.597892	0.701063
O18	O	1.796088	0.931226	1.034396
O19	O	1.019602	0.341920	0.174826
O20	O	1.352935	0.675253	0.508160
O21	O	1.686269	1.008587	0.841493
O22	O	0.936604	0.162520	0.284591
O23	O	1.269937	0.495853	0.617925
O24	O	1.603270	0.829187	0.951258
O25	O	1.129353	0.341900	0.284569
O26	O	1.462687	0.675233	0.617903
O27	O	1.796020	1.008566	0.951236
O28	O	1.019760	0.162505	0.367742
O29	O	1.353094	0.495838	0.701075
O30	O	1.686427	0.829171	1.034409
O31	O	0.936513	0.264595	0.174836
O32	O	1.269847	0.597928	0.508169
O33	O	1.603180	0.931261	0.841502
O34	O	0.826809	0.264566	0.284548
O35	O	1.160143	0.597899	0.617881
O36	O	1.493476	0.931232	0.951215
O37	O	0.936528	0.341849	0.477409
O38	O	1.269862	0.675182	0.810742
O39	O	1.603195	1.008515	1.144076
O40	O	0.826777	0.341869	0.367666
O41	O	1.160110	0.675202	0.700999
O42	O	1.493444	1.008536	1.034332
O43	O	1.019717	0.264530	0.477442
O44	O	1.353051	0.597863	0.810775
O45	O	1.686384	0.931197	1.144108
O46	O	1.019559	0.443945	0.284526
O47	O	1.352892	0.777279	0.617859
O48	O	1.686226	1.110612	0.951193
O49	O	0.936438	0.443923	0.367653
O50	O	1.269771	0.777257	0.700987
O51	O	1.603105	1.110590	1.034320
C52	C	0.802234	0.303217	0.326104
C53	C	1.135568	0.636550	0.659437
C54	C	1.468901	0.969883	0.992770
C55	C	0.727002	0.303229	0.326109
C56	C	1.060336	0.636563	0.659443
C57	C	1.393669	0.969896	0.992776
C58	C	0.265250	0.263027	0.369522
C59	C	0.598584	0.596361	0.702855
C60	C	0.931917	0.929694	1.036189
C61	C	0.335939	0.263029	0.369517
C62	C	0.669272	0.596362	0.702851
C63	C	1.002605	0.929695	1.036184
C64	C	0.371241	0.303233	0.326150
C65	C	0.704574	0.636566	0.659483
C66	C	1.037907	0.969900	0.992817
C67	C	0.335850	0.343443	0.282790
C68	C	0.669184	0.676777	0.616123
C69	C	1.002517	1.010110	0.949456
C70	C	0.265163	0.343445	0.282799
C71	C	0.598496	0.676778	0.616132
C72	C	0.931830	1.010111	0.949465
C73	C	0.620924	0.343438	0.282754
C74	C	0.954257	0.676772	0.616087
C75	C	1.287590	1.010105	0.949421
C76	C	0.691616	0.343432	0.282747
C77	C	1.024949	0.676766	0.616080
C78	C	1.358282	1.010099	0.949414
C79	C	0.691699	0.263022	0.369473
C80	C	1.025032	0.596356	0.702806
C81	C	1.358366	0.929689	1.036139
C82	C	0.621012	0.263024	0.369481
C83	C	0.954345	0.596357	0.702815
C84	C	1.287679	0.929690	1.036148
C85	C	0.585628	0.303236	0.326124
C86	C	0.918961	0.636569	0.659457
C87	C	1.252295	0.969903	0.992791
C88	C	0.508980	0.303235	0.326131
C89	C	0.842313	0.636569	0.659464
C90	C	1.175646	0.969902	0.992797
C91	C	0.447888	0.303231	0.326139
C92	C	0.781221	0.636564	0.659473
C93	C	1.114554	0.969898	0.992806
C94	C	0.978002	0.466775	0.326098
C95	C	1.311335	0.800108	0.659432
C96	C	1.644669	1.133442	0.992765
C97	C	0.978026	0.536743	0.326108
C98	C	1.311360	0.870076	0.659441
C99	C	1.644693	1.203410	0.992775
C100	C	1.021346	0.569600	0.282870
C101	C	1.354679	0.902934	0.616203
C102	C	1.688013	1.236267	0.949536
C103	C	1.021378	0.635343	0.282888
C104	C	1.354711	0.968676	0.616221
C105	C	1.688045	1.302009	0.949555
C106	C	0.978078	0.668226	0.326138
C107	C	1.311411	1.001559	0.659471
C108	C	1.644745	1.334892	0.992804
C109	C	0.934755	0.635360	0.369384
C110	C	1.268089	0.968694	0.702718
C111	C	1.601422	1.302027	1.036051
C112	C	0.934729	0.569619	0.369370
C113	C	1.268063	0.902953	0.702703
C114	C	1.601396	1.236286	1.036036
N115	N	0.918868	0.771493	0.331294
N116	N	1.252201	1.104827	0.664627
N117	N	1.585535	1.438160	0.997961
N118	N	0.918895	0.833945	0.331304
N119	N	1.252228	1.167278	0.664637
N120	N	1.585561	1.500611	0.997971
C121	C	0.978155	0.866300	0.326186
C122	C	1.311488	1.199634	0.659519
C123	C	1.644821	1.532967	0.992852
N124	N	1.037388	0.833845	0.321043
N125	N	1.370722	1.167178	0.654377
N126	N	1.704055	1.500512	0.987710
N127	N	1.037361	0.771388	0.321030
N128	N	1.370694	1.104721	0.654363
N129	N	1.704028	1.438055	0.987696
C130	C	0.978102	0.739511	0.326159
C131	C	1.311435	1.072844	0.659492
C132	C	1.644768	1.406178	0.992825
C133	C	1.021513	0.970443	0.282965
C134	C	1.354846	1.303776	0.616298
C135	C	1.688179	1.637110	0.949631
C136	C	1.021546	1.036187	0.282988
C137	C	1.354879	1.369520	0.616321
C138	C	1.688212	1.702853	0.949654
C139	C	0.934917	1.036203	0.369481
C140	C	1.268250	1.369536	0.702814
C141	C	1.601584	1.702870	1.036147
C142	C	0.934890	0.970461	0.369461
C143	C	1.268223	1.303794	0.702794
C144	C	1.601557	1.637127	1.036128
C145	C	0.978187	0.937584	0.326199
C146	C	1.311520	1.270918	0.659533
C147	C	1.644853	1.604251	0.992866
C148	C	1.154633	0.303230	0.326153
C149	C	1.487966	0.636564	0.659486
C150	C	1.821300	0.969897	0.992820
C151	C	1.229865	0.303233	0.326164
C152	C	1.563198	0.636567	0.659497
C153	C	1.896532	0.969900	0.992830
C154	C	0.978128	0.303184	0.502671
C155	C	1.311462	0.636517	0.836004
C156	C	1.644795	0.969850	1.169338
C157	C	0.978144	0.303167	0.577903
C158	C	1.311478	0.636500	0.911236
C159	C	1.644811	0.969833	1.244570
C160	C	0.978198	1.139033	0.326185
C161	C	1.311531	1.472366	0.659518
C162	C	1.644865	1.805700	0.992851
C163	C	0.978246	1.069065	0.326238
C164	C	1.311579	1.402398	0.659572
C165	C	1.644913	1.735732	0.992905
C166	C	0.978091	0.303217	0.150272
C167	C	1.311425	0.636551	0.483605
C168	C	1.644758	0.969884	0.816939
C169	C	0.978206	0.303057	0.075041
C170	C	1.311540	0.636390	0.408374
C171	C	1.644873	0.969724	0.741707
C172	C	1.021462	0.262905	0.613265
C173	C	1.354795	0.596238	0.946599
C174	C	1.688129	0.929572	1.279932
C175	C	1.021469	0.262887	0.683954
C176	C	1.354802	0.596220	1.017287
C177	C	1.688136	0.929553	1.350620
C178	C	0.978161	0.303134	0.719279
C179	C	1.311495	0.636467	1.052612
C180	C	1.644828	0.969801	1.385945
C181	C	0.934839	0.343397	0.683911
C182	C	1.268172	0.676731	1.017245
C183	C	1.601506	1.010064	1.350578
C184	C	0.934829	0.343412	0.613224
C185	C	1.268162	0.676745	0.946557
C186	C	1.601496	1.010079	1.279891
C187	C	0.934877	0.343339	0.968985
C188	C	1.268210	0.676672	1.302318
C189	C	1.601544	1.010005	1.635651
C190	C	0.934892	0.343322	1.039677
C191	C	1.268225	0.676656	1.373010
C192	C	1.601558	1.009989	1.706344
C193	C	1.021517	0.262813	1.039714
C194	C	1.354850	0.596147	1.373048
C195	C	1.688184	0.929480	1.706381
C196	C	1.021507	0.262828	0.969027
C197	C	1.354841	0.596161	1.302361
C198	C	1.688174	0.929495	1.635694
C199	C	0.978183	0.303089	0.933666
C200	C	1.311516	0.636422	1.266999
C201	C	1.644849	0.969756	1.600333
C202	C	0.978175	0.303107	0.857018
C203	C	1.311508	0.636441	1.190351
C204	C	1.644841	0.969774	1.523684
C205	C	0.978172	0.303119	0.795926
C206	C	1.311505	0.636452	1.129259
C207	C	1.644839	0.969786	1.462592
H208	H	0.364746	0.230291	0.404826
H209	H	0.698080	0.563624	0.738160
H210	H	1.031413	0.896958	1.071493
H211	H	0.720517	0.230281	0.404778
H212	H	1.053851	0.563614	0.738112
H213	H	1.387184	0.896948	1.071445
C214	C	0.887769	0.671172	0.416267
C215	C	1.221102	1.004505	0.749601
C216	C	1.554435	1.337839	1.082934
C217	C	0.897049	0.735779	0.407013
C218	C	1.230382	1.069112	0.740346
C219	C	1.563716	1.402446	1.073679
C220	C	0.853771	0.768787	0.450187
C221	C	1.187105	1.102120	0.783520
C222	C	1.520438	1.435454	1.116854
H223	H	0.897601	0.660437	0.461779
H224	H	1.230934	0.993771	0.795113
H225	H	1.564268	1.327104	1.128446
H226	H	0.842278	0.660479	0.406310
H227	H	1.175612	0.993812	0.739644
H228	H	1.508945	1.327146	1.072977
H229	H	0.942529	0.746468	0.416975
H230	H	1.275862	1.079801	0.750308
H231	H	1.609195	1.413134	1.083641
H232	H	0.887212	0.746532	0.361510
H233	H	1.220545	1.079866	0.694843
H234	H	1.553878	1.413199	1.028176
H235	H	0.808281	0.758094	0.440230
H236	H	1.141614	1.091427	0.773563
H237	H	1.474948	1.424761	1.106897
H238	H	0.863607	0.758047	0.495696
H239	H	1.196940	1.091380	0.829030
H240	H	1.530274	1.424714	1.162363
H241	H	0.860057	0.812626	0.443909
H242	H	1.193391	1.145959	0.777243
H243	H	1.526724	1.479293	1.110576
C244	C	0.729823	0.387159	0.235639
C245	C	1.063156	0.720492	0.568972
C246	C	1.396490	1.053826	0.902305
C247	C	0.683707	0.422389	0.197684
C248	C	1.017040	0.755723	0.531017
C249	C	1.350373	1.089056	0.864350
C250	C	0.718879	0.462680	0.154290
C251	C	1.052212	0.796013	0.487623
C252	C	1.385545	1.129346	0.820957
H253	H	0.757400	0.363114	0.206129
H254	H	1.090733	0.696448	0.539462
H255	H	1.424067	1.029781	0.872795
H256	H	0.757381	0.414646	0.261464
H257	H	1.090714	0.747979	0.594798
H258	H	1.424048	1.081313	0.928131
H259	H	0.656160	0.394906	0.171860
H260	H	0.989494	0.728239	0.505193
H261	H	1.322827	1.061572	0.838526
H262	H	0.656128	0.446447	0.227176
H263	H	0.989462	0.779780	0.560509
H264	H	1.322795	1.113113	0.893843
H265	H	0.746436	0.490167	0.180116
H266	H	1.079770	0.823500	0.513449
H267	H	1.413103	1.156834	0.846782
H268	H	0.746454	0.438630	0.124784
H269	H	1.079788	0.771963	0.458118
H270	H	1.413121	1.105297	0.791451
H271	H	0.687594	0.486592	0.128537
H272	H	1.020927	0.819926	0.461870
H273	H	1.354261	1.153259	0.795203
H274	H	0.899622	0.376098	1.068436
H275	H	1.232956	0.709431	1.401770
H276	H	1.566289	1.042764	1.735103
C277	C	0.887617	0.534055	0.416340
C278	C	1.220951	0.867389	0.749673
C279	C	1.554284	1.200722	1.083007
C280	C	0.849693	0.576920	0.454213
C281	C	1.183026	0.910253	0.787546
C282	C	1.516359	1.243587	1.120880
C283	C	0.806279	0.544180	0.497482
C284	C	1.139612	0.877514	0.830815
C285	C	1.472945	1.210847	1.164148
H286	H	0.913406	0.508363	0.445908
H287	H	1.246739	0.841697	0.779241
H288	H	1.580073	1.175030	1.112574
H289	H	0.858094	0.508468	0.390428
H290	H	1.191427	0.841801	0.723762
H291	H	1.524760	1.175134	1.057095
H292	H	0.879212	0.602497	0.480123
H293	H	1.212546	0.935830	0.813456
H294	H	1.545879	1.269163	1.146789
H295	H	0.823890	0.602613	0.424663
H296	H	1.157224	0.935946	0.757996
H297	H	1.490557	1.269280	1.091330
H298	H	0.776755	0.518593	0.471570
H299	H	1.110088	0.851926	0.804903
H300	H	1.443422	1.185259	1.138237
H301	H	0.832073	0.518490	0.527045
H302	H	1.165406	0.851823	0.860378
H303	H	1.498739	1.185156	1.193712
H304	H	0.780537	0.573259	0.523179
H305	H	1.113871	0.906592	0.856512
H306	H	1.447204	1.239925	1.189846
C307	C	0.582563	0.219399	0.416495
C308	C	0.915896	0.552733	0.749828
C309	C	1.249230	0.886066	1.083162
C310	C	0.513084	0.227996	0.407211
C311	C	0.846418	0.561329	0.740544
C312	C	1.179751	0.894662	1.073877
C313	C	0.477645	0.187816	0.450505
C314	C	0.810979	0.521149	0.783838
C315	C	1.144312	0.854482	1.117171
H316	H	0.594083	0.228629	0.461980
H317	H	0.927416	0.561962	0.795313
H318	H	1.260750	0.895296	1.128646
H319	H	0.594126	0.177077	0.406666
H320	H	0.927459	0.510410	0.739999
H321	H	1.260793	0.843743	1.073333
H322	H	0.501526	0.270308	0.417044
H323	H	0.834859	0.603642	0.750378
H324	H	1.168193	0.936975	1.083711
H325	H	0.501544	0.218761	0.361735
H326	H	0.834877	0.552095	0.695068
H327	H	1.168211	0.885428	1.028402
H328	H	0.489208	0.145493	0.440676
H329	H	0.822542	0.478827	0.774009
H330	H	1.155875	0.812160	1.107342
H331	H	0.489171	0.197049	0.495987
H332	H	0.822504	0.530382	0.829320
H333	H	1.155837	0.863716	1.162653
H334	H	0.430501	0.193639	0.444207
H335	H	0.763834	0.526972	0.777540
H336	H	1.097167	0.860306	1.110874
C337	C	1.068283	0.533794	0.235931
C338	C	1.401617	0.867127	0.569264
C339	C	1.734950	1.200460	0.902598
C340	C	1.058979	0.469186	0.245158
C341	C	1.392312	0.802520	0.578492
C342	C	1.725646	1.135853	0.911825
C343	C	1.102200	0.436180	0.201925
C344	C	1.435533	0.769514	0.535258
C345	C	1.768866	1.102847	0.868591
H346	H	1.113786	0.544447	0.245838
H347	H	1.447120	0.877780	0.579171
H348	H	1.780453	1.211114	0.912504
H349	H	1.058399	0.544570	0.190433
H350	H	1.391733	0.877903	0.523766
H351	H	1.725066	1.211237	0.857099
H352	H	1.068868	0.458414	0.290646
H353	H	1.402201	0.791748	0.623980
H354	H	1.735534	1.125081	0.957313
H355	H	1.013485	0.458514	0.235247
H356	H	1.346818	0.791847	0.568580
H357	H	1.680152	1.125181	0.901914
H358	H	1.092316	0.446957	0.156426
H359	H	1.425649	0.780290	0.489760
H360	H	1.758983	1.113623	0.823093
H361	H	1.147700	0.446839	0.211835
H362	H	1.481033	0.780172	0.545168
H363	H	1.814367	1.113506	0.878502
H364	H	1.095888	0.392341	0.208175
H365	H	1.429222	0.725675	0.541508
H366	H	1.762555	1.059008	0.874842
H367	H	1.056770	0.943674	0.247740
H368	H	1.390103	1.277007	0.581074
H369	H	1.723436	1.610341	0.914407
H370	H	1.056730	0.230133	0.584509
H371	H	1.390064	0.563466	0.917842
H372	H	1.723397	0.896800	1.251176
H373	H	0.236353	0.376186	0.247493
H374	H	0.569687	0.709519	0.580826
H375	H	0.903020	1.042852	0.914160
H376	H	1.056744	0.230103	0.712743
H377	H	1.390078	0.563436	1.046076
H378	H	1.723411	0.896770	1.379409
H379	H	1.056792	0.230029	1.068514
H380	H	1.390125	0.563362	1.401847
H381	H	1.723458	0.896696	1.735181
H382	H	1.056826	1.062938	0.247779
H383	H	1.390159	1.396271	0.581112
H384	H	1.723493	1.729605	0.914446
C385	C	0.887872	0.386986	0.930477
C386	C	1.221205	0.720320	1.263810
C387	C	1.554539	1.053653	1.597143
C388	C	0.897114	0.378377	0.861010
C389	C	1.230447	0.711710	1.194344
C390	C	1.563781	1.045043	1.527677
C391	C	0.853818	0.418571	0.825513
C392	C	1.187151	0.751904	1.158846
C393	C	1.520484	1.085238	1.492180
H394	H	0.897711	0.429304	0.941971
H395	H	1.231045	0.762638	1.275304
H396	H	1.564378	1.095971	1.608637
H397	H	0.842388	0.377764	0.942018
H398	H	1.175721	0.711098	1.275351
H399	H	1.509055	1.044431	1.608684
H400	H	0.942588	0.387603	0.849474
H401	H	1.275921	0.720936	1.182808
H402	H	1.609254	1.054270	1.516141
H403	H	0.887270	0.336067	0.849496
H404	H	1.220603	0.669401	1.182830
H405	H	1.553936	1.002734	1.516163
H406	H	0.808333	0.409349	0.837054
H407	H	1.141667	0.742683	1.170387
H408	H	1.475000	1.076016	1.503721
H409	H	0.863661	0.460887	0.837012
H410	H	1.196994	0.794220	1.170346
H411	H	1.530327	1.127553	1.503679
H412	H	0.860078	0.412731	0.778377
H413	H	1.193411	0.746064	1.111710
H414	H	1.526744	1.079398	1.445043
C415	C	0.227048	0.219353	0.416683
C416	C	0.560381	0.552686	0.750016
C417	C	0.893715	0.886020	1.083350
C418	C	0.273170	0.184156	0.454667
C419	C	0.606504	0.517489	0.788000
C420	C	0.939837	0.850823	1.121334
C421	C	0.238006	0.143924	0.498128
C422	C	0.571339	0.477257	0.831461
C423	C	0.904672	0.810590	1.164795
H424	H	0.199473	0.191837	0.390926
H425	H	0.532807	0.525171	0.724259
H426	H	0.866140	0.858504	1.057593
H427	H	0.199488	0.243457	0.446167
H428	H	0.532822	0.576790	0.779500
H429	H	0.866155	0.910124	1.112834
H430	H	0.300718	0.160054	0.425187
H431	H	0.634052	0.493387	0.758520
H432	H	0.967385	0.826720	1.091853
H433	H	0.300747	0.211655	0.480438
H434	H	0.634080	0.544988	0.813771
H435	H	0.967413	0.878322	1.147104
H436	H	0.210446	0.168028	0.527612
H437	H	0.543779	0.501361	0.860945
H438	H	0.877113	0.834694	1.194279
H439	H	0.210432	0.116412	0.472366
H440	H	0.543765	0.449745	0.805699
H441	H	0.877099	0.783079	1.139032
H442	H	0.269294	0.120042	0.523910
H443	H	0.602627	0.453375	0.857243
H444	H	0.935961	0.786709	1.190576
H445	H	1.056656	0.662100	0.247678
H446	H	1.389990	0.995434	0.581011
H447	H	1.723323	1.328767	0.914345
C448	C	0.887933	1.072010	0.416368
C449	C	1.221267	1.405343	0.749701
C450	C	1.554600	1.738676	1.083035
C451	C	0.897218	1.136617	0.407118
C452	C	1.230551	1.469950	0.740452
C453	C	1.563884	1.803283	1.073785
C454	C	0.853944	1.169624	0.450297
C455	C	1.187277	1.502957	0.783630
C456	C	1.520610	1.836291	1.116964
H457	H	0.897766	1.061271	0.461879
H458	H	1.231100	1.394604	0.795212
H459	H	1.564433	1.727938	1.128545
H460	H	0.842442	1.061320	0.406411
H461	H	1.175775	1.394653	0.739745
H462	H	1.509109	1.727987	1.073078
H463	H	0.942698	1.147302	0.417080
H464	H	1.276032	1.480635	0.750413
H465	H	1.609365	1.813969	1.083746
H466	H	0.887379	1.147374	0.361617
H467	H	1.220713	1.480707	0.694950
H468	H	1.554046	1.814041	1.028283
H469	H	0.808452	1.158934	0.440341
H470	H	1.141786	1.492268	0.773674
H471	H	1.475119	1.825601	1.107007
H472	H	0.863780	1.158880	0.495805
H473	H	1.197114	1.492214	0.829138
H474	H	1.530447	1.825547	1.162472
H475	H	0.860232	1.213463	0.444023
H476	H	1.193566	1.546796	0.777356
H477	H	1.526899	1.880130	1.110689
H478	H	0.899612	0.943707	0.404667
H479	H	1.232945	1.277040	0.738000
H480	H	1.566279	1.610373	1.071334
H481	H	1.056775	0.230057	0.940269
H482	H	1.390109	0.563390	1.273603
H483	H	1.723442	0.896723	1.606936
H484	H	0.899574	0.376165	0.712678
H485	H	1.232908	0.709498	1.046012
H486	H	1.566241	1.042832	1.379345
H487	H	0.899548	0.376191	0.584433
H488	H	1.232882	0.709524	0.917766
H489	H	1.566215	1.042858	1.251100
H490	H	0.592122	0.376180	0.247448
H491	H	0.925456	0.709513	0.580781
H492	H	1.258789	1.042847	0.914114
H493	H	0.364599	0.376181	0.247482
H494	H	0.697932	0.709514	0.580815
H495	H	1.031265	1.042847	0.914149
