data_functionalizedCrystal
_audit_creation_method	'MofGen! by Chris Wilmer'
_symmetry_space_group_name_H-M	'P1'
_symmetry_Int_Tables_number	1
_symmetry_cell_setting	triclinic
loop_
_symmetry_equiv_pos_as_xyz
  x,y,z
_cell_length_a	12.645330
_cell_length_b	16.959455
_cell_length_c	16.959447
_cell_angle_alpha	89.979626
_cell_angle_beta	89.973930
_cell_angle_gamma	90.014712
loop_
_atom_site_label
_atom_site_type_symbol
_atom_site_fract_x
_atom_site_fract_y
_atom_site_fract_z
Zn1	Zn	-0.422103	1.208397	-0.447060
Zn2	Zn	-0.599394	1.208325	-0.314891
Zn3	Zn	-0.422136	1.076225	-0.314883
Zn4	Zn	-0.599315	1.076196	-0.447016
O5	O	-0.510737	1.142286	-0.380962
O6	O	-0.445640	1.318998	-0.429549
O7	O	-0.575928	1.190784	-0.204279
O8	O	-0.273784	1.093801	-0.332432
O9	O	-0.575895	1.318945	-0.332445
O10	O	-0.273760	1.190907	-0.429541
O11	O	-0.445697	1.093731	-0.204273
O12	O	-0.445620	0.965611	-0.332389
O13	O	-0.575761	1.093750	-0.557632
O14	O	-0.575793	0.965589	-0.429466
O15	O	-0.445563	1.190878	-0.557665
O16	O	-0.747731	1.190755	-0.332402
O17	O	-0.747673	1.093680	-0.429474
C18	C	-0.510703	0.936919	-0.380923
C19	C	-0.510713	0.849063	-0.380924
C20	C	-0.578494	0.477549	-0.330375
C21	C	-0.443068	0.477625	-0.431646
C22	C	-0.443051	0.560171	-0.431627
C23	C	-0.510757	0.601410	-0.380982
C24	C	-0.578481	0.560103	-0.330355
C25	C	-0.375336	0.601485	-0.482258
C26	C	-0.375317	0.684036	-0.482241
C27	C	-0.443018	0.725276	-0.431591
C28	C	-0.510744	0.683963	-0.380963
C29	C	-0.578450	0.725202	-0.330317
C30	C	-0.646171	0.683891	-0.279684
C31	C	-0.646183	0.601343	-0.279705
C32	C	-0.443007	0.807824	-0.431570
C33	C	-0.578437	0.807756	-0.330298
C34	C	-0.786167	1.142228	-0.380951
C35	C	-0.903997	1.142276	-0.380973
C36	C	-1.071568	1.081458	-0.442229
C37	C	-0.949009	1.081147	-0.442032
C38	C	-0.948592	1.119734	-0.297669
C39	C	-1.071190	1.119363	-0.298041
C40	C	-1.071091	1.226007	-0.402346
C41	C	-0.948484	1.225494	-0.404167
C42	C	-0.234232	1.142365	-0.380991
C43	C	-0.116402	1.142399	-0.381003
C44	C	-0.510649	1.142319	-0.587131
C45	C	-0.510612	1.142333	-0.674987
C46	C	-0.510773	1.348454	-0.381003
C47	C	-0.510788	1.436310	-0.381020
C48	C	-0.578288	1.091857	-1.046449
C49	C	-0.442712	1.192997	-1.046478
C50	C	-0.442735	1.192976	-0.963932
C51	C	-0.510536	1.142396	-0.922640
C52	C	-0.578315	1.091836	-0.963895
C53	C	-0.374965	1.243540	-0.922671
C54	C	-0.374986	1.243522	-0.840120
C55	C	-0.442782	1.192937	-0.798827
C56	C	-0.510563	1.142375	-0.840087
C57	C	-0.578364	1.091794	-0.798796
C58	C	-0.646140	1.041227	-0.840054
C59	C	-0.646111	1.041251	-0.922602
C60	C	-0.442811	1.192913	-0.716279
C61	C	-0.578391	1.091773	-0.716242
C62	C	-0.510748	1.142298	-0.175596
C63	C	-0.510487	1.142438	-0.087740
H64	H	-0.918854	1.095249	-0.503801
H65	H	-0.320173	0.717664	-0.523470
C66	C	-0.369699	0.432895	-0.486764
C67	C	-0.392925	0.453004	-0.564937
C68	C	-0.325365	0.411802	-0.615736
H69	H	-0.298410	0.446384	-0.475388
H70	H	-0.379420	0.377808	-0.479578
H71	H	-0.383194	0.508079	-0.572119
H72	H	-0.464201	0.439513	-0.576338
H73	H	-0.335087	0.356715	-0.608550
H74	H	-0.254080	0.425295	-0.604353
H75	H	-0.341121	0.425435	-0.668782
C76	C	-1.109242	1.037809	-0.273962
C77	C	-1.021846	0.989334	-0.259212
C78	C	-1.056852	0.914196	-0.237041
H79	H	-1.151091	1.041756	-0.227606
H80	H	-1.150411	1.015766	-0.315297
H81	H	-0.980694	1.011372	-0.217880
H82	H	-0.979987	0.985363	-0.305557
H83	H	-1.098021	0.892154	-0.278375
H84	H	-1.098701	0.918152	-0.190686
H85	H	-0.997560	0.881295	-0.227037
C86	C	-0.652130	1.036831	-0.671557
C87	C	-0.711494	0.992572	-0.725359
C88	C	-0.779446	0.941961	-0.684225
H89	H	-0.611709	1.002324	-0.639348
H90	H	-0.698393	1.067034	-0.639373
H91	H	-0.665237	0.962371	-0.757529
H92	H	-0.751937	1.027057	-0.757570
H93	H	-0.825710	0.972165	-0.652041
H94	H	-0.739017	0.907460	-0.652018
H95	H	-0.819740	0.911931	-0.720723
C96	C	-1.112547	0.999259	-0.423642
C97	C	-1.027055	0.949073	-0.408422
C98	C	-1.064764	0.873345	-0.391308
H99	H	-1.157151	1.001375	-0.378611
H100	H	-1.151505	0.979810	-0.467399
H101	H	-0.988114	0.968518	-0.364670
H102	H	-0.982442	0.946934	-0.453443
H103	H	-1.103722	0.853896	-0.435065
H104	H	-1.109369	0.875469	-0.346278
H105	H	-1.006764	0.839283	-0.380986
C106	C	-0.369119	1.247838	-0.671626
C107	C	-0.309724	1.292129	-0.725456
C108	C	-0.241813	1.342728	-0.684352
H109	H	-0.409571	1.282325	-0.639416
H110	H	-0.322873	1.217625	-0.639448
H111	H	-0.355964	1.322339	-0.757621
H112	H	-0.269250	1.257663	-0.757668
H113	H	-0.195567	1.312515	-0.652173
H114	H	-0.282274	1.377210	-0.652143
H115	H	-0.201498	1.372780	-0.720869
C116	C	-0.369380	0.852533	-0.486571
C117	C	-0.310079	0.798750	-0.530920
C118	C	-0.242230	0.839906	-0.581591
H119	H	-0.409873	0.884755	-0.521018
H120	H	-0.323072	0.884706	-0.456407
H121	H	-0.356381	0.766592	-0.561081
H122	H	-0.269565	0.766527	-0.496493
H123	H	-0.195922	0.872079	-0.551427
H124	H	-0.282731	0.872127	-0.616033
H125	H	-0.201979	0.803421	-0.611682
H126	H	-1.100980	1.095430	-0.504201
H127	H	-0.701317	0.567700	-0.238482
H128	H	-0.633569	0.841326	-0.289053
H129	H	-0.701303	0.717478	-0.238452
C130	C	-0.719740	0.986274	-0.967255
C131	C	-0.779106	0.941957	-0.913429
C132	C	-0.846935	0.891301	-0.954537
H133	H	-0.766017	1.016423	-0.999453
H134	H	-0.679198	0.951813	-0.999447
H135	H	-0.819645	0.976414	-0.881251
H136	H	-0.732857	0.911793	-0.881230
H137	H	-0.806393	0.856839	-0.986729
H138	H	-0.893205	0.921456	-0.986733
H139	H	-0.887216	0.861220	-0.918022
H140	H	-0.919770	1.019163	-0.427892
C141	C	-0.651831	1.037045	-1.091380
C142	C	-0.637317	1.047896	-1.172512
C143	C	-0.705057	0.997423	-1.213927
H144	H	-0.636379	0.983906	-1.077940
H145	H	-0.723088	1.048597	-1.077888
H146	H	-0.566077	1.036337	-1.185998
H147	H	-0.652778	1.101024	-1.185976
H148	H	-0.776314	1.008976	-1.200435
H149	H	-0.689599	0.944288	-1.200481
H150	H	-0.695226	1.004784	-1.268979
H151	H	-0.633628	0.443910	-0.289148
C152	C	-1.110542	1.175975	-0.235066
C153	C	-1.023927	1.210365	-0.196854
C154	C	-1.060131	1.262505	-0.138828
H155	H	-1.152188	1.216019	-0.258914
H156	H	-1.152197	1.147966	-0.197767
H157	H	-0.982289	1.238373	-0.234147
H158	H	-0.982272	1.170341	-0.172990
H159	H	-1.101786	1.234496	-0.101528
H160	H	-1.101778	1.302544	-0.162682
H161	H	-1.001370	1.285840	-0.112888
C162	C	-1.112070	1.253321	-0.482046
C163	C	-1.080963	1.199552	-0.540226
C164	C	-1.118682	1.224683	-0.613659
H165	H	-1.187056	1.256303	-0.480594
H166	H	-1.083752	1.303859	-0.493850
H167	H	-1.109286	1.149026	-0.528424
H168	H	-1.005983	1.196563	-0.541703
H169	H	-1.090364	1.275222	-0.625464
H170	H	-1.193666	1.227665	-0.612199
H171	H	-1.097573	1.188209	-0.653144
C172	C	-0.369149	1.247829	-1.091448
C173	C	-0.383619	1.237015	-1.172571
C174	C	-0.315858	1.287507	-1.214025
H175	H	-0.384610	1.300961	-1.078014
H176	H	-0.297899	1.236270	-1.077980
H177	H	-0.454853	1.248579	-1.186033
H178	H	-0.368150	1.183893	-1.186027
H179	H	-0.244608	1.275949	-1.200557
H180	H	-0.331325	1.340636	-1.200585
H181	H	-0.325660	1.280172	-1.269071
H182	H	-0.319772	1.284725	-0.956296
H183	H	-0.917977	1.059254	-0.279263
C184	C	-0.301969	0.556751	-0.537375
C185	C	-0.325204	0.576851	-0.615550
C186	C	-0.257649	0.535644	-0.666347
H187	H	-0.230680	0.570243	-0.526005
H188	H	-0.311688	0.501665	-0.530183
H189	H	-0.315476	0.631924	-0.622739
H190	H	-0.396481	0.563356	-0.626944
H191	H	-0.267367	0.480558	-0.659154
H192	H	-0.186363	0.549140	-0.654970
H193	H	-0.273411	0.549270	-0.719394
C194	C	-0.909612	1.248329	-0.485867
C195	C	-0.851011	1.318215	-0.481014
C196	C	-0.815216	1.339280	-0.556267
H197	H	-0.866188	1.207471	-0.506328
H198	H	-0.968516	1.256085	-0.519745
H199	H	-0.792115	1.310455	-0.447148
H200	H	-0.894413	1.359089	-0.460566
H201	H	-0.874120	1.347035	-0.590145
H202	H	-0.771796	1.298417	-0.576722
H203	H	-0.775460	1.386703	-0.552985
H204	H	-0.919438	1.162714	-0.250804
H205	H	-0.917839	1.273288	-0.362821
H206	H	-0.319798	1.284696	-0.806534
C207	C	-1.109961	1.286549	-0.342965
C208	C	-1.220608	1.289176	-0.344463
C209	C	-1.256458	1.344939	-0.289781
H210	H	-1.086808	1.272179	-0.291661
H211	H	-1.082388	1.336970	-0.356171
H212	H	-1.248170	1.238765	-0.331253
H213	H	-1.243788	1.303555	-0.395755
H214	H	-1.228885	1.395361	-0.302987
H215	H	-1.233299	1.330564	-0.238480
H216	H	-1.331534	1.346734	-0.290795
H217	H	-0.701348	1.000048	-0.806424
