data_functionalizedCrystal
_audit_creation_method	'MofGen! by Chris Wilmer'
_symmetry_space_group_name_H-M	'P1'
_symmetry_Int_Tables_number	1
_symmetry_cell_setting	triclinic
loop_
_symmetry_equiv_pos_as_xyz
  x,y,z
_cell_length_a	19.121102
_cell_length_b	21.295417
_cell_length_c	21.295412
_cell_angle_alpha	89.968813
_cell_angle_beta	87.544905
_cell_angle_gamma	87.584620
loop_
_atom_site_label
_atom_site_type_symbol
_atom_site_fract_x
_atom_site_fract_y
_atom_site_fract_z
Zn1	Zn	1.073671	-0.291740	-0.396909
Zn2	Zn	1.073578	-0.397006	-0.291631
Zn3	Zn	0.956227	-0.287261	-0.287170
Zn4	Zn	0.956176	-0.392476	-0.392380
O5	O	1.014913	-0.342121	-0.342022
O6	O	1.171942	-0.309475	-0.386706
O7	O	1.057994	-0.382469	-0.202949
O8	O	0.971866	-0.199768	-0.301755
O9	O	1.171874	-0.386813	-0.309359
O10	O	1.058151	-0.203059	-0.382380
O11	O	0.971777	-0.301840	-0.199671
O12	O	0.857936	-0.297447	-0.297363
O13	O	0.971779	-0.379092	-0.481071
O14	O	0.857899	-0.374748	-0.374661
O15	O	1.058102	-0.305082	-0.484398
O16	O	1.057945	-0.484492	-0.304967
O17	O	0.971690	-0.481164	-0.378987
C18	C	0.832434	-0.335120	-0.335037
C19	C	0.754369	-0.332141	-0.332063
C20	C	0.717692	-0.371048	-0.370848
C21	C	0.644342	-0.368240	-0.368057
C22	C	0.607668	-0.326527	-0.326478
C23	C	0.644350	-0.287616	-0.287692
C24	C	0.717699	-0.290421	-0.290486
C25	C	0.386201	-0.316038	-0.316033
C26	C	0.312846	-0.313237	-0.313240
C27	C	0.312843	-0.393861	-0.393606
C28	C	0.386194	-0.396665	-0.396394
C29	C	0.422869	-0.357751	-0.357610
C30	C	0.532692	-0.323657	-0.323623
C31	C	0.497844	-0.360618	-0.360469
C32	C	1.014821	-0.505669	-0.341984
C33	C	1.014846	-0.575638	-0.341991
C34	C	1.059799	-0.610218	-0.303492
C35	C	1.059832	-0.675962	-0.303507
C36	C	1.014899	-0.707122	-0.342015
C37	C	0.969943	-0.672534	-0.380522
C38	C	0.969917	-0.606792	-0.380510
N39	N	0.953459	-0.808035	-0.344462
N40	N	0.953486	-0.870488	-0.344469
C41	C	1.014978	-0.905200	-0.342054
N42	N	1.076443	-0.875101	-0.339618
N43	N	1.076415	-0.812643	-0.339607
C44	C	1.014923	-0.778409	-0.342032
C45	C	1.059970	-1.011068	-0.303569
C46	C	1.060004	-1.076813	-0.303589
C47	C	0.970110	-1.073383	-0.380600
C48	C	0.970082	-1.007640	-0.380584
C49	C	1.015011	-0.976486	-0.342065
C50	C	1.198105	-0.349149	-0.349036
C51	C	1.276170	-0.352144	-0.352024
C52	C	1.014945	-0.342081	-0.506214
C53	C	1.014959	-0.342065	-0.576183
C54	C	1.015025	-0.177935	-0.342075
C55	C	1.015072	-0.107968	-0.342098
C56	C	1.059974	-0.303430	-1.077377
C57	C	1.059969	-0.303445	-1.011634
C58	C	1.015020	-0.341984	-0.977025
C59	C	0.970086	-0.380522	-1.008163
C60	C	0.970098	-0.380510	-1.073905
N61	N	0.953520	-0.344472	-0.871447
N62	N	0.953511	-0.344479	-0.808996
C63	C	1.014983	-0.342022	-0.778948
N64	N	1.076467	-0.339544	-0.813712
N65	N	1.076475	-0.339533	-0.876170
C66	C	1.015003	-0.342001	-0.905738
C67	C	1.059912	-0.303506	-0.676532
C68	C	1.059907	-0.303525	-0.610788
C69	C	0.970019	-0.380598	-0.607318
C70	C	0.970029	-0.380582	-0.673061
C71	C	1.014975	-0.342032	-0.707664
C72	C	1.014921	-0.342116	-0.178471
C73	C	1.015044	-0.341961	-0.108508
H74	H	0.416048	-0.430633	-0.430251
H75	H	0.747560	-0.258735	-0.258907
H76	H	1.096615	-1.104967	-0.272240
H77	H	0.527706	-0.394578	-0.394325
F78	F	1.107831	-0.262423	-1.114201
H79	H	0.933528	-1.098753	-0.411957
F80	F	0.493656	-0.279265	-0.279372
F81	F	0.922233	-0.970835	-0.421558
H82	H	1.096556	-0.272067	-0.986282
F83	F	0.605318	-0.243217	-0.243444
H84	H	0.933310	-0.578636	-0.411861
H85	H	0.933490	-0.411901	-0.979980
F86	F	0.922275	-0.421522	-1.107038
H87	H	1.096508	-0.272116	-0.704707
H88	H	0.614483	-0.399923	-0.399639
H89	H	1.096500	-0.272151	-0.585442
H90	H	0.282974	-0.425541	-0.425182
F91	F	1.107624	-0.577066	-0.262504
F92	F	0.425224	-0.274620	-0.274757
F93	F	0.922187	-0.421620	-0.570488
F94	F	0.756716	-0.415448	-0.415099
H95	H	0.933439	-0.411955	-0.698408
H96	H	0.282989	-0.279262	-0.279385
F97	F	0.922126	-0.705698	-0.421507
H98	H	1.096440	-0.704123	-0.272157
F99	F	1.107787	-0.977909	-0.262574
