data_functionalizedCrystal
_audit_creation_method	'MofGen! by Chris Wilmer'
_symmetry_space_group_name_H-M	'P1'
_symmetry_Int_Tables_number	1
_symmetry_cell_setting	triclinic
loop_
_symmetry_equiv_pos_as_xyz
  x,y,z
_cell_length_a	25.639239
_cell_length_b	10.686220
_cell_length_c	10.686551
_cell_angle_alpha	89.691918
_cell_angle_beta	85.590528
_cell_angle_gamma	85.579324
loop_
_atom_site_label
_atom_site_type_symbol
_atom_site_fract_x
_atom_site_fract_y
_atom_site_fract_z
Zn1	Zn	-0.127472	-1.972159	-0.562366
Zn2	Zn	-0.222109	-1.955834	-0.352592
Zn3	Zn	-0.140848	-1.746264	-0.368681
Zn4	Zn	-0.221050	-1.762265	-0.578370
O5	O	-0.177870	-1.859130	-0.465502
O6	O	-0.134872	-2.145540	-0.521108
O7	O	-0.217371	-1.914505	-0.179180
O8	O	-0.065903	-1.776365	-0.394409
O9	O	-0.204401	-2.133546	-0.366988
O10	O	-0.056076	-1.942329	-0.536709
O11	O	-0.157668	-1.760535	-0.191000
O12	O	-0.156641	-1.572839	-0.409928
O13	O	-0.202595	-1.803636	-0.751793
O14	O	-0.215565	-1.584595	-0.563985
O15	O	-0.133844	-1.957844	-0.740035
O16	O	-0.295139	-1.930021	-0.382506
O17	O	-0.294361	-1.787807	-0.548384
C18	C	-0.187440	-1.533200	-0.490440
C19	C	-0.191545	-1.393768	-0.501138
C20	C	-0.313720	-1.858915	-0.465461
C21	C	-0.371833	-1.858941	-0.465476
C22	C	-0.166610	-1.884346	-0.792704
C23	C	-0.161811	-1.895092	-0.932138
C24	C	-0.732571	-1.933401	-0.379250
C25	C	-0.787174	-1.933451	-0.379263
O26	O	-0.815738	-1.996536	-0.305904
N27	N	-0.814099	-1.859357	-0.465568
C28	C	-0.786419	-1.785218	-0.551874
O29	O	-0.814336	-1.722201	-0.625286
C30	C	-0.731818	-1.785176	-0.551866
C31	C	-0.704895	-1.859265	-0.465547
C32	C	-0.705649	-2.007485	-0.292939
C33	C	-0.651050	-2.007433	-0.292925
C34	C	-0.623374	-1.933297	-0.379222
C35	C	-0.650297	-1.859213	-0.465533
C36	C	-0.704138	-1.711045	-0.638177
C37	C	-0.649533	-1.711010	-0.638162
C38	C	-0.622611	-1.785099	-0.551843
C39	C	-0.568023	-1.785025	-0.551816
N40	N	-0.541097	-1.859119	-0.465510
C41	C	-0.568773	-1.933255	-0.379213
C42	C	-0.901087	-1.785314	-0.551887
C43	C	-0.955688	-1.785349	-0.551890
C44	C	-0.956438	-1.933583	-0.379280
C45	C	-0.901836	-1.933541	-0.379272
C46	C	-0.874161	-1.859408	-0.465581
C47	C	-0.454112	-1.933139	-0.379189
C48	C	-0.399509	-1.933077	-0.379179
C49	C	-0.398763	-1.784847	-0.551793
C50	C	-0.453362	-1.784904	-0.551799
C51	C	-0.481035	-1.859060	-0.465493
O52	O	-0.539424	-1.721976	-0.625140
O53	O	-0.540849	-1.996274	-0.305825
C54	C	-0.041486	-1.859383	-0.465568
C55	C	0.016632	-1.859490	-0.465597
C56	C	-0.168263	-2.186333	-0.440468
C57	C	-0.164169	-2.325768	-0.429800
C58	C	-0.189046	-1.834084	-0.139567
C59	C	-0.193690	-1.823582	-0.000116
H60	H	-0.377591	-1.993408	-0.308884
O61	O	-0.120787	-1.987066	-0.996354
H62	H	-0.140280	-2.055391	-1.051174
O63	O	-0.128963	-1.389951	-0.338054
H64	H	-0.141992	-1.357260	-0.241464
H65	H	-0.978981	-1.993954	-0.309016
H66	H	-0.218129	-1.345309	-0.570396
H67	H	-0.224655	-1.754142	-0.951643
H68	H	-0.476637	-1.993527	-0.308913
H69	H	-0.629133	-2.067766	-0.222640
O70	O	-0.482408	-1.704975	-0.644874
H71	H	-0.503406	-1.766010	-0.704456
O72	O	-0.735498	-2.087449	-0.199858
H73	H	-0.729060	-2.058402	-0.103028
O74	O	-0.872798	-2.013464	-0.286185
H75	H	-0.901221	-2.065024	-0.226189
H76	H	-0.376221	-1.724483	-0.622052
O77	O	-0.984725	-1.705430	-0.644982
H78	H	-0.956301	-1.653882	-0.704988
H79	H	-0.878556	-1.724935	-0.622167
O80	O	-0.733168	-1.631143	-0.731286
H81	H	-0.704741	-1.579607	-0.791295
H82	H	-0.627002	-1.650643	-0.708450
