data_functionalizedCrystal
_audit_creation_method	'MofGen! by Chris Wilmer'
_symmetry_space_group_name_H-M	'P1'
_symmetry_Int_Tables_number	1
_symmetry_cell_setting	triclinic
loop_
_symmetry_equiv_pos_as_xyz
  x,y,z
_cell_length_a	27.354012
_cell_length_b	27.353283
_cell_length_c	27.349551
_cell_angle_alpha	60.005606
_cell_angle_beta	60.011434
_cell_angle_gamma	59.993282
loop_
_atom_site_label
_atom_site_type_symbol
_atom_site_fract_x
_atom_site_fract_y
_atom_site_fract_z
O1	O	0.067635	-0.714267	0.597330
O2	O	0.567635	-0.214267	1.097330
O3	O	0.025429	-0.556105	0.481282
O4	O	0.525429	-0.056105	0.981282
O5	O	0.125575	-0.656186	0.481214
O6	O	0.625575	-0.156186	0.981214
O7	O	-0.032512	-0.614186	0.597397
O8	O	0.467488	-0.114186	1.097397
O9	O	0.158797	-0.622968	0.514367
O10	O	0.658797	-0.122968	1.014367
O11	O	0.058650	-0.522887	0.514434
O12	O	0.558650	-0.022887	1.014434
O13	O	0.100856	-0.681048	0.630482
O14	O	0.600856	-0.181048	1.130482
Zn15	Zn	0.085028	-0.596693	0.577722
Zn16	Zn	0.585028	-0.096693	1.077722
Zn17	Zn	0.041257	-0.640460	0.534042
Zn18	Zn	0.541257	-0.140460	1.034042
O19	O	0.000709	-0.580967	0.630549
O20	O	0.500709	-0.080967	1.130549
N21	N	0.114901	-0.566828	0.607534
N22	N	0.614901	-0.066828	1.107534
N23	N	0.011389	-0.670331	0.504229
N24	N	0.511389	-0.170331	1.004229
C25	C	0.179404	-0.338196	0.672015
C26	C	0.679404	0.161804	1.172015
C27	C	0.179501	-0.502386	0.836160
C28	C	0.679501	-0.002386	1.336160
C29	C	0.179415	-0.502363	0.671996
C30	C	0.679415	-0.002363	1.171996
C31	C	0.343611	-0.502373	0.671960
C32	C	0.843611	-0.002373	1.171960
C33	C	0.197478	-0.392371	0.690061
C34	C	0.697478	0.107629	1.190061
C35	C	0.197534	-0.484321	0.781984
C36	C	0.697534	0.015679	1.281984
C37	C	0.289434	-0.484312	0.690032
C38	C	0.789434	0.015688	1.190032
C39	C	0.197486	-0.484308	0.690051
C40	C	0.697486	0.015692	1.190051
C41	C	0.156398	-0.269238	0.649045
C42	C	0.656398	0.230762	1.149045
C43	C	0.156418	-0.525342	0.649015
C44	C	0.656418	-0.025342	1.149015
C45	C	0.220484	-0.461329	0.713032
C46	C	0.720484	0.038671	1.213032
C47	C	0.443889	-0.485097	0.619172
C48	C	0.943889	0.014903	1.119172
C49	C	0.506571	-0.505993	0.598266
C50	C	1.006571	-0.005993	1.098266
C51	C	0.506589	-0.607412	0.636940
C52	C	1.006589	-0.107412	1.136940
C53	C	0.443909	-0.586515	0.657848
C54	C	0.943909	-0.086515	1.157848
C55	C	0.171510	-0.237888	0.587422
C56	C	0.671510	0.262112	1.087422
C57	C	0.150593	-0.175201	0.566543
C58	C	0.650593	0.324799	1.066543
C59	C	0.099458	-0.175218	0.668913
C60	C	0.599458	0.324782	1.168913
C61	C	0.120375	-0.237905	0.689792
C62	C	0.620375	0.262095	1.189792
C63	C	0.094789	-0.510201	0.664176
C64	C	0.594789	-0.010201	1.164176
C65	C	0.073888	-0.531091	0.643278
C66	C	0.573888	-0.031091	1.143278
C67	C	0.176239	-0.582263	0.592072
C68	C	0.676239	-0.082263	1.092072
C69	C	0.197142	-0.561373	0.612963
C70	C	0.697142	-0.061373	1.112963
C71	C	0.094933	-0.510244	0.936476
C72	C	0.594933	-0.010244	1.436476
C73	C	0.074073	-0.531151	0.999161
C74	C	0.574073	-0.031151	1.499161
C75	C	0.176453	-0.582335	0.999126
C76	C	0.676453	-0.082335	1.499126
C77	C	0.197312	-0.561429	0.936439
C78	C	0.697312	-0.061429	1.436439
C79	C	0.156551	-0.525382	0.905116
C80	C	0.656551	-0.025382	1.405116
C81	C	0.412561	-0.525357	0.648961
C82	C	0.912561	-0.025357	1.148961
C83	C	-0.098513	-0.688235	0.485867
C84	C	0.401487	-0.188235	0.985867
C85	C	-0.006461	-0.688368	0.394066
C86	C	0.493539	-0.188368	0.894066
C87	C	-0.006645	-0.780264	0.486040
C88	C	0.493355	-0.280264	0.986040
C89	C	-0.006630	-0.688361	0.486097
C90	C	0.493370	-0.188361	0.986097
C91	C	-0.029562	-0.711308	0.463018
C92	C	0.470438	-0.211308	0.963018
N93	N	0.537030	-0.566846	0.607436
N94	N	1.037030	-0.066846	1.107436
O95	O	0.741877	-0.576849	0.459995
O96	O	1.241877	-0.076849	0.959995
O97	O	0.742050	-0.693241	0.618010
O98	O	1.242050	-0.193241	1.118010
O99	O	0.741986	-0.692977	0.517791
O100	O	1.241986	-0.192977	1.017791
O101	O	0.741941	-0.577114	0.560214
O102	O	1.241941	-0.077114	1.060214
O103	O	0.642405	-0.659839	0.551046
O104	O	1.142405	-0.159839	1.051046
O105	O	0.642469	-0.660104	0.651265
O106	O	1.142469	-0.160104	1.151265
O107	O	0.642296	-0.543712	0.493251
O108	O	1.142296	-0.043712	0.993251
Zn109	Zn	0.626572	-0.596646	0.577538
Zn110	Zn	1.126572	-0.096646	1.077538
Zn111	Zn	0.757774	-0.640307	0.533723
Zn112	Zn	1.257774	-0.140307	1.033723
O113	O	0.642360	-0.543976	0.593469
O114	O	1.142360	-0.043976	1.093469
N115	N	0.847316	-0.670107	0.503818
N116	N	1.347316	-0.170107	1.003818
N117	N	0.114877	-0.144758	0.607577
N118	N	0.614877	0.355242	1.107577
O119	O	-0.032498	0.060193	0.597441
O120	O	0.467502	0.560193	1.097441
O121	O	0.125523	0.060193	0.481067
O122	O	0.625523	0.560193	0.981067
O123	O	0.025289	0.060179	0.481345
O124	O	0.525289	0.560179	0.981345
O125	O	0.067736	0.060207	0.597163
O126	O	0.567736	0.560207	1.097163
O127	O	0.058511	-0.039410	0.514543
O128	O	0.558511	0.460590	1.014543
O129	O	0.158745	-0.039397	0.514265
O130	O	0.658745	0.460603	1.014265
O131	O	0.000724	-0.039396	0.630638
O132	O	0.500724	0.460604	1.130638
Zn133	Zn	0.085009	-0.055208	0.577722
Zn134	Zn	0.585009	0.444792	1.077722
Zn135	Zn	0.041238	0.076005	0.533983
Zn136	Zn	0.541238	0.576005	1.033983
O137	O	0.100958	-0.039382	0.630360
O138	O	0.600958	0.460618	1.130360
N139	N	0.011362	0.165555	0.504130
N140	N	0.511362	0.665555	1.004130
N141	N	0.115121	-0.566884	1.029592
N142	N	0.615121	-0.066884	1.529592
O143	O	0.104990	-0.714248	1.234528
O144	O	0.604990	-0.214248	1.734528
O145	O	-0.011371	-0.556177	1.234539
O146	O	0.488629	-0.056177	1.734539
O147	O	-0.011103	-0.656395	1.234497
O148	O	0.488897	-0.156395	1.734497
O149	O	0.104722	-0.614030	1.234569
O150	O	0.604722	-0.114030	1.734569
O151	O	0.022090	-0.623190	1.134913
O152	O	0.522090	-0.123190	1.634913
O153	O	0.021822	-0.522972	1.134954
O154	O	0.521822	-0.022972	1.634954
O155	O	0.138182	-0.681044	1.134943
O156	O	0.638182	-0.181044	1.634943
Zn157	Zn	0.085272	-0.596736	1.119137
Zn158	Zn	0.585272	-0.096736	1.619137
Zn159	Zn	0.041539	-0.640484	1.250344
Zn160	Zn	0.541539	-0.140484	1.750344
O161	O	0.137914	-0.580826	1.134984
O162	O	0.637914	-0.080826	1.634984
N163	N	0.011689	-0.670343	1.339890
N164	N	0.511689	-0.170343	1.839890
C165	C	0.038085	-0.519567	0.481870
C166	C	0.538085	-0.019567	0.981870
C167	C	0.162104	-0.643505	0.481786
C168	C	0.662104	-0.143505	0.981786
C169	C	0.088200	-0.717587	0.629893
C170	C	0.588200	-0.217587	1.129893
C171	C	-0.035819	-0.593649	0.629977
C172	C	0.464181	-0.093649	1.129977
C173	C	0.692280	-0.692701	0.654545
C174	C	1.192280	-0.192701	1.154545
C175	C	0.692203	-0.692374	0.530435
C176	C	1.192203	-0.192374	1.030435
C177	C	0.692063	-0.544251	0.456717
C178	C	1.192063	-0.044251	0.956717
C179	C	0.692144	-0.544580	0.580825
C180	C	1.192144	-0.044580	1.080825
C181	C	0.162000	0.010521	0.481600
C182	C	0.662000	0.510521	0.981600
C183	C	0.037914	0.010381	0.481984
C184	C	0.537914	0.510381	0.981984
C185	C	-0.035795	0.010399	0.630065
C186	C	0.464205	0.510399	1.130065
C187	C	0.088333	0.010415	0.629722
C188	C	0.588333	0.510415	1.129722
C189	C	-0.010799	-0.519660	1.184747
C190	C	0.489201	-0.019660	1.684747
C191	C	-0.010461	-0.643761	1.184677
C192	C	0.489539	-0.143761	1.684677
C193	C	0.137610	-0.717561	1.184734
C194	C	0.637610	-0.217561	1.684734
C195	C	0.137280	-0.593452	1.184783
C196	C	0.637280	-0.093452	1.684783
H197	H	0.023897	-0.518815	1.024687
H198	H	0.523897	-0.018815	1.524687
O199	O	0.099061	0.010447	0.673189
O200	O	0.599061	0.510447	1.173189
C201	C	0.059934	0.010418	0.774086
C202	C	0.559934	0.510418	1.274086
C203	C	0.047700	0.010395	0.724909
C204	C	0.547700	0.510395	1.224909
H205	H	0.018422	0.010363	0.815918
H206	H	0.518422	0.510363	1.315918
H207	H	0.071300	0.052108	0.757527
H208	H	0.571300	0.552108	1.257527
H209	H	0.099161	-0.031248	0.785233
H210	H	0.599161	0.468752	1.285233
H211	H	0.008467	0.052033	0.713740
H212	H	0.508467	0.552033	1.213740
H213	H	0.036369	-0.031323	0.741494
H214	H	0.536369	0.468677	1.241494
O215	O	0.692362	-0.736238	0.708708
O216	O	1.192362	-0.236238	1.208708
C217	C	0.692396	-0.764063	0.807352
C218	C	1.192396	-0.264063	1.307352
C219	C	0.692317	-0.714710	0.746035
C220	C	1.192317	-0.214710	1.246035
H221	H	0.692346	-0.746671	0.837552
H222	H	1.192346	-0.246671	1.337552
H223	H	0.734100	-0.804891	0.801075
H224	H	1.234100	-0.304891	1.301075
H225	H	0.650751	-0.777156	0.828838
H226	H	1.150751	-0.277156	1.328838
H227	H	0.733933	-0.701567	0.724516
H228	H	1.233933	-0.201567	1.224516
H229	H	0.650584	-0.673915	0.752352
H230	H	1.150584	-0.173915	1.252352
H231	H	0.173667	-0.584388	1.184797
H232	H	0.673667	-0.084388	1.684797
O233	O	-0.089891	0.010298	0.673705
O234	O	0.410109	0.510298	1.173705
C235	C	-0.143339	-0.041262	0.773583
C236	C	0.356661	0.458738	1.273583
C237	C	-0.082037	-0.041231	0.724211
C238	C	0.417963	0.458769	1.224211
H239	H	-0.137008	-0.082913	0.814434
H240	H	0.362992	0.417087	1.314434
H241	H	-0.173553	-0.041307	0.756278
H242	H	0.326447	0.458693	1.256278
H243	H	-0.164837	0.000441	0.786601
H244	H	0.335163	0.500441	1.286601
H245	H	-0.060487	-0.082927	0.711171
H246	H	0.439513	0.417073	1.211171
H247	H	-0.051865	-0.041155	0.741543
H248	H	0.448135	0.458845	1.241543
H249	H	0.692221	-0.728771	0.521355
H250	H	1.192221	-0.228771	1.021355
O251	O	0.181270	-0.771677	1.184705
O252	O	0.681270	-0.271677	1.684705
C253	C	0.282198	-0.833064	1.184764
C254	C	0.782198	-0.333064	1.684764
C255	C	0.232812	-0.771748	1.184783
C256	C	0.732812	-0.271748	1.684783
H257	H	0.323877	-0.833146	1.184839
H258	H	0.823877	-0.333146	1.684839
H259	H	0.293557	-0.841845	1.143067
H260	H	0.793557	-0.341845	1.643067
H261	H	0.265700	-0.869615	1.226419
H262	H	0.765700	-0.369615	1.726419
H263	H	0.249269	-0.735158	1.143156
H264	H	0.749269	-0.235158	1.643156
H265	H	0.221460	-0.763019	1.226507
H266	H	0.721460	-0.263019	1.726507
O267	O	0.027271	-0.465394	0.438369
O268	O	0.527271	0.034606	0.938369
C269	C	-0.033426	-0.393264	0.375322
C270	C	0.466574	0.106736	0.875322
C271	C	-0.021236	-0.454632	0.424578
C272	C	0.478764	0.045368	0.924578
H273	H	-0.072652	-0.384538	0.364166
H274	H	0.427348	0.115462	0.864166
H275	H	0.008103	-0.393050	0.333505
H276	H	0.508103	0.106950	0.833505
H277	H	-0.044778	-0.356751	0.391862
H278	H	0.455222	0.143249	0.891862
H279	H	-0.009899	-0.491179	0.408095
H280	H	0.490101	0.008821	0.908095
H281	H	-0.062774	-0.454795	0.466385
H282	H	0.437226	0.045205	0.966385
O283	O	0.055311	-0.475314	0.906079
O284	O	0.555311	0.024686	1.406079
C285	C	-0.025838	-0.467279	0.886958
C286	C	0.474162	0.032721	1.386958
C287	C	0.019010	-0.506901	0.921409
C288	C	0.519010	-0.006901	1.421409
H289	H	-0.055207	-0.492796	0.899349
H290	H	0.444793	0.007204	1.399349
H291	H	-0.000379	-0.454947	0.836761
H292	H	0.499621	0.045053	1.336761
H293	H	-0.055156	-0.424737	0.899290
H294	H	0.444844	0.075263	1.399290
H295	H	0.048339	-0.549468	0.909126
H296	H	0.548339	-0.049468	1.409126
H297	H	-0.006486	-0.519184	0.971597
H298	H	0.493514	-0.019184	1.471597
O299	O	0.216130	-0.617363	1.029460
O300	O	0.716130	-0.117363	1.529460
C301	C	0.319879	-0.665901	1.022809
C302	C	0.819879	-0.165901	1.522809
C303	C	0.275012	-0.626230	0.988381
C304	C	0.775012	-0.126230	1.488381
H305	H	0.367495	-0.673072	0.989612
H306	H	0.867495	-0.173072	1.489612
H307	H	0.312717	-0.711017	1.052130
H308	H	0.812717	-0.211017	1.552130
H309	H	0.312636	-0.642944	1.052181
H310	H	0.812636	-0.142944	1.552181
H311	H	0.282228	-0.649134	0.958977
H312	H	0.782228	-0.149134	1.458977
H313	H	0.282185	-0.581116	0.959099
H314	H	0.782185	-0.081116	1.459099
O315	O	0.257166	-0.576206	0.905951
O316	O	0.757166	-0.076206	1.405951
C317	C	0.340135	-0.624402	0.835130
C318	C	0.840135	-0.124402	1.335130
C319	C	0.272348	-0.607718	0.869627
C320	C	0.772348	-0.107718	1.369627
H321	H	0.352429	-0.649871	0.805744
H322	H	0.852429	-0.149871	1.305744
H323	H	0.365712	-0.653786	0.868261
H324	H	0.865712	-0.153786	1.368261
H325	H	0.352442	-0.581856	0.805813
H326	H	0.852442	-0.081856	1.305813
H327	H	0.259986	-0.650230	0.898945
H328	H	0.759986	-0.150230	1.398945
H329	H	0.246808	-0.578311	0.836464
H330	H	0.746808	-0.078311	1.336464
O331	O	0.692022	-0.500727	0.402539
O332	O	1.192022	-0.000727	0.902539
C333	C	0.691893	-0.472871	0.303927
C334	C	1.191893	0.027129	0.803927
C335	C	0.691956	-0.522219	0.365250
C336	C	1.191956	-0.022219	0.865250
H337	H	0.691827	-0.490224	0.273766
H338	H	1.191827	0.009776	0.773766
H339	H	0.733554	-0.459785	0.282364
H340	H	1.233554	0.040215	0.782364
H341	H	0.650205	-0.432048	0.310271
H342	H	1.150205	0.067952	0.810271
H343	H	0.733615	-0.563073	0.358958
H344	H	1.233615	-0.063073	0.858958
H345	H	0.650267	-0.535254	0.386792
H346	H	1.150267	-0.035254	0.886792
H347	H	0.209407	-0.611608	0.562721
H348	H	0.709407	-0.111608	1.062721
H349	H	-0.081227	-0.584696	0.666460
H350	H	0.418773	-0.084696	1.166460
H351	H	0.207509	-0.652460	0.445301
H352	H	0.707509	-0.152460	0.945301
H353	H	0.692134	-0.508185	0.589902
H354	H	1.192134	-0.008185	1.089902
H355	H	0.207290	0.010797	0.444973
H356	H	0.707290	0.510797	0.944973
H357	H	-0.047330	-0.474261	1.184750
H358	H	0.452670	0.025739	1.684750
O359	O	0.055204	-0.475111	0.699101
O360	O	0.555204	0.024889	1.199101
C361	C	-0.025927	-0.382863	0.707145
C362	C	0.474073	0.117137	1.207145
C363	C	0.018881	-0.422537	0.667523
C364	C	0.518881	0.077463	1.167523
H365	H	-0.055315	-0.340354	0.681635
H366	H	0.444685	0.159646	1.181635
H367	H	-0.000436	-0.370481	0.719466
H368	H	0.499564	0.129519	1.219466
H369	H	-0.055232	-0.408408	0.749690
H370	H	0.444768	0.091592	1.249690
H371	H	0.048197	-0.397029	0.624953
H372	H	0.548197	0.102971	1.124953
H373	H	-0.006648	-0.434922	0.655250
H374	H	0.493352	0.065078	1.155250
O375	O	0.014017	-0.516461	0.658106
O376	O	0.514017	-0.016461	1.158106
C377	C	-0.079835	-0.521238	0.737601
C378	C	0.420165	-0.021238	1.237601
C379	C	-0.012039	-0.537853	0.720891
C380	C	0.487961	-0.037853	1.220891
H381	H	-0.100923	-0.538515	0.788363
H382	H	0.399077	-0.038515	1.288363
H383	H	-0.087809	-0.542375	0.716515
H384	H	0.412191	-0.042375	1.216515
H385	H	-0.100969	-0.470479	0.720290
H386	H	0.399031	0.029521	1.220290
H387	H	0.009140	-0.588604	0.738198
H388	H	0.509140	-0.088604	1.238198
H389	H	-0.004108	-0.516674	0.741968
H390	H	0.495892	-0.016674	1.241968
O391	O	0.257028	-0.576149	0.598195
O392	O	0.757028	-0.076149	1.098195
C393	C	0.356343	-0.629058	0.545146
C394	C	0.856343	-0.129058	1.045146
C395	C	0.288540	-0.612386	0.561842
C396	C	0.788540	-0.112386	1.061842
H397	H	0.381840	-0.658348	0.515742
H398	H	0.881840	-0.158348	1.015742
H399	H	0.368753	-0.654623	0.587647
H400	H	0.868753	-0.154623	1.087647
H401	H	0.368630	-0.586503	0.519654
H402	H	0.868630	-0.086503	1.019654
H403	H	0.276204	-0.654910	0.587319
H404	H	0.776204	-0.154910	1.087319
H405	H	0.276165	-0.586798	0.519320
H406	H	0.776165	-0.086798	1.019320
H407	H	0.097215	-0.763020	0.666340
H408	H	0.597215	-0.263020	1.166340
H409	H	-0.046832	-0.652809	1.184615
H410	H	0.453168	-0.152809	1.684615
O411	O	0.413571	-0.625703	0.686750
O412	O	0.913571	-0.125703	1.186750
C413	C	0.420214	-0.728509	0.722931
C414	C	0.920214	-0.228509	1.222931
C415	C	0.454645	-0.684190	0.690177
C416	C	0.954645	-0.184190	1.190177
H417	H	0.453407	-0.775807	0.725723
H418	H	0.953407	-0.275807	1.225723
H419	H	0.390867	-0.715971	0.697310
H420	H	0.890867	-0.215971	1.197310
H421	H	0.390870	-0.726560	0.770049
H422	H	0.890870	-0.226560	1.270049
H423	H	0.484021	-0.686115	0.643059
H424	H	0.984021	-0.186115	1.143059
H425	H	0.483954	-0.696742	0.715844
H426	H	0.983954	-0.196742	1.215844
O427	O	0.536916	-0.466801	0.569314
O428	O	1.036916	0.033199	1.069314
C429	C	0.530290	-0.364007	0.533182
C430	C	1.030290	0.135993	1.033182
C431	C	0.495849	-0.408324	0.565971
C432	C	0.995849	0.091676	1.065971
H433	H	0.497102	-0.316721	0.530479
H434	H	0.997102	0.183279	1.030479
H435	H	0.559598	-0.365881	0.486033
H436	H	1.059598	0.134119	0.986033
H437	H	0.559672	-0.376625	0.558799
H438	H	1.059672	0.123375	1.058799
H439	H	0.466434	-0.395737	0.540404
H440	H	0.966434	0.104263	1.040404
H441	H	0.466578	-0.406443	0.613122
H442	H	0.966578	0.093557	1.113122
H443	H	0.532110	-0.657210	0.644171
H444	H	1.032110	-0.157210	1.144171
H445	H	0.418366	-0.435297	0.611936
H446	H	0.918366	0.064703	1.111936
O447	O	0.026994	0.010328	0.438656
O448	O	0.526994	0.510328	0.938656
C449	C	-0.044159	0.010311	0.411283
C450	C	0.455841	0.510311	0.911283
C451	C	-0.031872	0.010368	0.460406
C452	C	0.468128	0.510368	0.960406
H453	H	-0.091756	0.010356	0.428845
H454	H	0.408244	0.510356	0.928845
H455	H	-0.011042	-0.031388	0.398218
H456	H	0.488958	0.468612	0.898218
H457	H	-0.038785	0.051968	0.370398
H458	H	0.461215	0.551968	0.870398
H459	H	-0.037254	-0.031261	0.501322
H460	H	0.462746	0.468739	1.001322
H461	H	-0.064987	0.052094	0.473420
H462	H	0.435013	0.552094	0.973420
H463	H	0.162897	-0.149674	0.516363
H464	H	0.662897	0.350326	1.016363
O465	O	0.206412	-0.268296	0.547816
O466	O	0.706412	0.231704	1.047816
C467	C	0.214392	-0.287435	0.466697
C468	C	0.714392	0.212565	0.966697
C469	C	0.174798	-0.252969	0.511526
C470	C	0.674798	0.247031	1.011526
H471	H	0.188853	-0.275047	0.437337
H472	H	0.688853	0.224953	0.937337
H473	H	0.226736	-0.337632	0.492174
H474	H	0.726736	0.162368	0.992174
H475	H	0.256924	-0.275111	0.437365
H476	H	0.756924	0.224889	0.937365
H477	H	0.132241	-0.265243	0.540869
H478	H	0.632241	0.234757	1.040869
H479	H	0.162502	-0.202781	0.486012
H480	H	0.662502	0.297219	0.986012
O481	O	0.064541	-0.144846	0.708552
O482	O	0.564541	0.355154	1.208552
C483	C	0.056596	-0.125656	0.789621
C484	C	0.556596	0.374344	1.289621
C485	C	0.096198	-0.160096	0.744770
C486	C	0.596198	0.339904	1.244770
H487	H	0.082179	-0.137963	0.818906
H488	H	0.582179	0.362037	1.318906
H489	H	0.014078	-0.138001	0.819025
H490	H	0.514078	0.361999	1.319025
H491	H	0.044223	-0.075470	0.764103
H492	H	0.544223	0.424530	1.264103
H493	H	0.108616	-0.210291	0.770239
H494	H	0.608616	0.289709	1.270239
H495	H	0.138687	-0.147701	0.715366
H496	H	0.638687	0.352299	1.215366
O497	O	0.105817	-0.268406	0.749642
O498	O	0.605817	0.231594	1.249642
C499	C	0.141921	-0.339110	0.832608
C500	C	0.641921	0.160890	1.332608
C501	C	0.158483	-0.304624	0.764814
C502	C	0.658483	0.195376	1.264814
H503	H	0.184490	-0.368390	0.844898
H504	H	0.684490	0.131610	1.344898
H505	H	0.116432	-0.368515	0.845019
H506	H	0.616432	0.131485	1.345019
H507	H	0.112570	-0.305914	0.858107
H508	H	0.612570	0.194086	1.358107
H509	H	0.187852	-0.337776	0.739268
H510	H	0.687852	0.162224	1.239268
H511	H	0.183941	-0.275210	0.752449
H512	H	0.683941	0.224790	1.252449
