data_functionalizedCrystal
_audit_creation_method	'MofGen! by Chris Wilmer'
_symmetry_space_group_name_H-M	'P1'
_symmetry_Int_Tables_number	1
_symmetry_cell_setting	triclinic
loop_
_symmetry_equiv_pos_as_xyz
  x,y,z
_cell_length_a	14.853566
_cell_length_b	10.489716
_cell_length_c	9.565339
_cell_angle_alpha	90.003501
_cell_angle_beta	90.000137
_cell_angle_gamma	84.081775
loop_
_atom_site_label
_atom_site_type_symbol
_atom_site_fract_x
_atom_site_fract_y
_atom_site_fract_z
O1	O	1.197286	0.166529	0.116155
O2	O	0.934937	0.186368	0.116176
O3	O	1.072093	-0.009219	0.116170
O4	O	1.060130	0.362115	0.116161
O5	O	1.072086	-0.009236	-0.116350
O6	O	0.934930	0.186351	-0.116344
O7	O	1.197279	0.166511	-0.116365
Zn8	Zn	1.066103	0.176428	-0.153272
Zn9	Zn	1.066113	0.176451	0.153083
O10	O	1.060123	0.362098	-0.116359
C11	C	0.901339	0.185461	-0.000081
C12	C	0.801241	0.182768	-0.000072
C13	C	0.377997	0.171387	0.126650
C14	C	0.378010	0.171369	-0.126852
C15	C	0.472058	0.173898	-0.126848
C16	C	0.519080	0.175173	-0.000092
C17	C	0.472053	0.173920	0.126659
C18	C	0.519091	0.175165	-0.253596
C19	C	0.613145	0.177695	-0.253597
C20	C	0.660168	0.178961	-0.126840
C21	C	0.613136	0.177706	-0.000084
C22	C	0.660158	0.178982	0.126671
C23	C	0.613128	0.177717	0.253429
C24	C	0.519077	0.175186	0.253415
C25	C	0.754219	0.181492	-0.126827
C26	C	0.754214	0.181514	0.126679
C27	C	1.071190	-0.056749	-0.000086
C28	C	1.068501	-0.198350	-0.000073
C29	C	1.152610	-0.296969	-0.000092
C30	C	1.108169	-0.373822	0.114552
C31	C	1.108142	-0.373802	-0.114694
C32	C	1.024095	-0.273338	0.114667
C33	C	1.024081	-0.273314	-0.114683
C34	C	0.979578	-0.350117	-0.000011
C35	C	1.230877	0.167419	-0.000105
C36	C	1.330975	0.170112	-0.000105
C37	C	1.061026	0.409629	-0.000100
C38	C	1.063715	0.551230	-0.000104
N39	N	1.066103	0.176412	-0.362352
C40	C	1.129037	0.085259	-0.546690
C41	C	1.147995	0.200194	-0.453456
C42	C	1.047186	0.061486	-0.453516
C43	C	1.085119	0.291451	-0.546656
C44	C	0.984273	0.152667	-0.546723
C45	C	1.003197	0.267686	-0.453532
N46	N	1.066120	0.176457	0.362162
H47	H	0.339701	0.170352	0.229853
H48	H	0.792493	0.182549	0.229900
C49	C	0.976149	-0.214001	-0.245626
N50	N	0.940050	-0.169330	-0.344263
H51	H	1.031178	-0.035725	-0.412601
C52	C	1.251444	-0.264736	0.000055
N53	N	1.325883	-0.240456	0.000172
C54	C	1.241491	0.227363	-0.398103
N55	N	1.311914	0.247817	-0.356414
C56	C	1.106860	0.422804	-0.601691
N57	N	1.123240	0.521736	-0.643147
H58	H	0.949981	0.344874	-0.412886
H59	H	0.339719	0.170340	-0.230050
H60	H	0.988612	-0.229629	0.211697
C61	C	0.664864	0.179121	0.392855
N62	N	0.703835	0.180176	0.497868
C63	C	0.467337	0.173804	0.392836
N64	N	0.428362	0.172767	0.497847
H65	H	0.915086	0.132518	-0.587721
H66	H	1.143662	-0.417681	-0.211615
H67	H	0.480798	0.174135	-0.356794
C68	C	0.805947	0.182884	-0.266252
N69	N	0.844909	0.183928	-0.371274
H70	H	0.651428	0.178722	-0.356811
C71	C	1.156140	-0.433123	0.245479
N72	N	1.192278	-0.477789	0.344087
H73	H	0.906363	-0.373725	0.000057
C74	C	1.200975	-0.018779	-0.601968
N75	N	1.255161	-0.097132	-0.643609
