data_functionalizedCrystal
_audit_creation_method	'MofGen! by Chris Wilmer'
_symmetry_space_group_name_H-M	'P1'
_symmetry_Int_Tables_number	1
_symmetry_cell_setting	triclinic
loop_
_symmetry_equiv_pos_as_xyz
  x,y,z
_cell_length_a	16.109301
_cell_length_b	16.109301
_cell_length_c	15.186229
_cell_angle_alpha	89.994833
_cell_angle_beta	89.999362
_cell_angle_gamma	83.461481
loop_
_atom_site_label
_atom_site_type_symbol
_atom_site_fract_x
_atom_site_fract_y
_atom_site_fract_z
O1	O	1.103131	0.106866	-0.073176
O2	O	0.861069	0.120165	-0.073190
O3	O	0.988749	-0.007515	-0.073174
O4	O	0.975450	0.234547	-0.073192
O5	O	0.988741	-0.007517	0.073284
O6	O	0.861060	0.120164	0.073267
O7	O	1.103122	0.106864	0.073282
Zn8	Zn	0.982090	0.113514	0.096528
Zn9	Zn	0.982101	0.113516	-0.096436
O10	O	0.975441	0.234545	0.073265
C11	C	0.830090	0.119626	0.000037
C12	C	0.737794	0.118011	0.000032
C13	C	0.988206	-0.038491	0.000056
C14	C	0.986591	-0.130786	0.000057
C15	C	0.515522	0.190018	0.000036
C16	C	0.428801	0.188494	0.000042
C17	C	0.448676	0.037006	0.000050
C18	C	0.535394	0.038530	0.000051
C19	C	0.568815	0.115039	0.000039
C20	C	0.395376	0.111990	0.000045
C21	C	0.301350	0.110337	0.000051
C22	C	0.662847	0.116693	0.000035
C23	C	1.058599	-0.353059	0.000047
C24	C	1.057075	-0.439779	0.000040
C25	C	0.905586	-0.419905	0.000034
C26	C	0.907111	-0.333186	0.000035
C27	C	0.983620	-0.299766	0.000046
C28	C	0.980571	-0.473205	0.000038
C29	C	0.978918	-0.567231	0.000030
C30	C	0.985273	-0.205734	0.000052
C31	C	1.134101	0.107404	0.000053
C32	C	1.226397	0.109019	0.000052
C33	C	0.975984	0.265521	0.000034
C34	C	0.977600	0.357816	0.000027
N35	N	0.982088	0.113511	0.228220
N36	N	0.982109	0.113512	-0.228129
C37	C	1.038644	0.056994	0.453950
C38	C	1.038647	0.056992	0.546140
C39	C	0.925547	0.170032	0.546135
C40	C	0.925541	0.170030	0.453947
C41	C	0.982094	0.113511	0.407857
C42	C	0.982103	0.113512	0.592235
C43	C	0.982105	0.113510	0.692191
C44	C	0.982091	0.113512	0.307894
H45	H	0.385413	0.249550	0.000041
H46	H	0.542730	0.252317	0.000034
C47	C	1.139554	-0.498401	0.000045
C48	C	1.159334	-0.560761	0.076094
C49	C	1.241817	-0.619383	0.076099
C50	C	1.304520	-0.615644	0.000054
C51	C	1.284742	-0.553282	-0.076000
C52	C	1.202259	-0.494660	-0.076005
H53	H	1.112915	-0.563531	0.132392
H54	H	1.256458	-0.665548	0.132400
H55	H	1.365579	-0.659040	0.000057
H56	H	1.331160	-0.550512	-0.132298
H57	H	1.187618	-0.448495	-0.132306
C58	C	0.594024	-0.043953	0.000054
C59	C	0.656370	-0.063736	0.076109
C60	C	0.714999	-0.146215	0.076117
C61	C	0.711281	-0.208910	0.000068
C62	C	0.648932	-0.189128	-0.075993
C63	C	0.590303	-0.106649	-0.076001
H64	H	0.659124	-0.017324	0.132410
H65	H	0.761154	-0.160858	0.132423
H66	H	0.754681	-0.269966	0.000074
H67	H	0.646178	-0.235540	-0.132294
H68	H	0.544149	-0.092006	-0.132307
C69	C	0.821431	-0.456673	0.000026
C70	C	0.799548	-0.513564	0.076076
C71	C	0.715391	-0.550332	0.076068
C72	C	0.653119	-0.530208	0.000011
C73	C	0.675001	-0.473314	-0.076044
C74	C	0.759157	-0.436547	-0.076036
H75	H	0.845647	-0.528463	0.132383
H76	H	0.699193	-0.592448	0.132370
H77	H	0.590822	-0.557426	0.000006
H78	H	0.628902	-0.458415	-0.132351
H79	H	0.775356	-0.394430	-0.132338
C80	C	0.824628	-0.274557	0.000035
C81	C	0.804849	-0.212202	-0.076019
C82	C	0.722370	-0.153574	-0.076023
C83	C	0.659670	-0.157300	0.000027
C84	C	0.679448	-0.219657	0.076086
C85	C	0.761926	-0.278286	0.076091
H86	H	0.851265	-0.209442	-0.132320
H87	H	0.707730	-0.107413	-0.132328
H88	H	0.598615	-0.113899	0.000024
H89	H	0.633032	-0.222417	0.132388
H90	H	0.776567	-0.324446	0.132395
C91	C	1.100845	-0.005181	0.403251
C92	C	1.163045	-0.067353	0.453959
C93	C	1.225246	-0.129532	0.403263
C94	C	1.225246	-0.129539	0.301860
C95	C	1.163044	-0.067365	0.251147
C96	C	1.100844	-0.005186	0.301843
H97	H	1.163047	-0.067349	0.529028
H98	H	1.271292	-0.175557	0.440804
H99	H	1.271291	-0.175568	0.264332
H100	H	1.163043	-0.067369	0.176077
H101	H	1.054797	0.040839	0.264301
C102	C	0.411909	-0.047150	0.000055
C103	C	0.432024	-0.109430	0.076111
C104	C	0.395259	-0.193588	0.076114
C105	C	0.338378	-0.215464	0.000061
C106	C	0.318259	-0.153182	-0.076000
C107	C	0.355025	-0.069025	-0.076003
H108	H	0.474134	-0.093237	0.132415
H109	H	0.410152	-0.239693	0.132420
H110	H	0.311162	-0.277762	0.000064
H111	H	0.276150	-0.169375	-0.132304
H112	H	0.340131	-0.022920	-0.132309
C113	C	0.863346	0.232207	0.596834
C114	C	0.863394	0.232263	0.698237
C115	C	0.801193	0.294442	0.748933
C116	C	0.738945	0.356565	0.698225
C117	C	0.738895	0.356512	0.596817
C118	C	0.801096	0.294333	0.546121
H119	H	0.909475	0.186273	0.735778
H120	H	0.801230	0.294481	0.824002
H121	H	0.692900	0.402593	0.735754
H122	H	0.692813	0.402501	0.559275
H123	H	0.801059	0.294294	0.471051
H124	H	1.120897	-0.325851	0.000054
H125	H	1.084694	0.010969	0.583667
H126	H	0.879487	0.216053	0.416415
