data_functionalizedCrystal
_audit_creation_method	'MofGen! by Chris Wilmer'
_symmetry_space_group_name_H-M	'P1'
_symmetry_Int_Tables_number	1
_symmetry_cell_setting	triclinic
loop_
_symmetry_equiv_pos_as_xyz
  x,y,z
_cell_length_a	19.188925
_cell_length_b	19.188930
_cell_length_c	15.021413
_cell_angle_alpha	89.998889
_cell_angle_beta	89.991764
_cell_angle_gamma	83.143665
loop_
_atom_site_label
_atom_site_type_symbol
_atom_site_fract_x
_atom_site_fract_y
_atom_site_fract_z
O1	O	0.926151	0.087140	-0.074061
O2	O	0.722839	0.098878	-0.074060
O3	O	0.830362	-0.008647	-0.074043
O4	O	0.818628	0.194665	-0.074078
O5	O	0.830345	-0.008631	0.074021
O6	O	0.722822	0.098894	0.074004
O7	O	0.926134	0.087155	0.074003
Zn8	Zn	0.824475	0.093027	0.097512
Zn9	Zn	0.824498	0.093007	-0.097569
O10	O	0.818611	0.194680	0.073986
C11	C	0.696820	0.098507	-0.000028
C12	C	0.619315	0.097367	-0.000026
C13	C	0.057545	0.152831	-0.000038
C14	C	0.130368	0.153908	-0.000043
C15	C	0.175302	0.090816	-0.000031
C16	C	0.147408	0.026642	-0.000036
C17	C	0.074586	0.025568	-0.000040
N18	N	0.295974	0.045145	0.050379
N19	N	0.365151	0.046170	0.050385
C20	C	0.394712	0.094050	-0.000021
N21	N	0.352480	0.140876	-0.050421
N22	N	0.283296	0.139853	-0.050423
C23	C	0.254267	0.091974	-0.000027
C24	C	0.501561	0.159386	-0.000027
C25	C	0.574385	0.160460	-0.000037
C26	C	0.591425	0.033193	-0.000021
C27	C	0.518601	0.032121	-0.000020
C28	C	0.473673	0.095220	-0.000018
C29	C	0.829974	-0.034650	-0.000009
C30	C	0.828833	-0.112154	-0.000001
C31	C	0.891924	-0.157079	0.000003
C32	C	0.890852	-0.229903	-0.000011
C33	C	0.826686	-0.257799	-0.000012
C34	C	0.763587	-0.212864	-0.000021
C35	C	0.764660	-0.140041	-0.000015
N36	N	0.777633	-0.365797	0.050378
N37	N	0.776617	-0.434976	0.050375
C38	C	0.823448	-0.477207	-0.000030
N39	N	0.871343	-0.447648	-0.050419
N40	N	0.872361	-0.378463	-0.050412
C41	C	0.825515	-0.336761	-0.000018
C42	C	0.885381	-0.601097	-0.000042
C43	C	0.884307	-0.673922	-0.000062
C44	C	0.757040	-0.656880	-0.000062
C45	C	0.758116	-0.584057	-0.000052
C46	C	0.822289	-0.556170	-0.000037
C47	C	0.952154	0.087527	-0.000031
C48	C	1.029658	0.088666	-0.000038
C49	C	0.819000	0.220684	-0.000050
C50	C	0.820140	0.298188	-0.000064
N51	N	0.824465	0.093040	0.230650
N52	N	0.824514	0.092988	-0.230707
C53	C	0.774739	0.142737	0.470325
C54	C	0.837788	0.156094	0.529656
C55	C	0.824483	0.093023	0.412256
C56	C	0.761451	0.079681	0.529667
C57	C	0.824495	0.093008	0.587681
C58	C	0.887563	0.106412	0.470281
C59	C	0.811186	0.029971	0.470287
C60	C	0.874280	0.043302	0.529591
C61	C	0.824475	0.093034	0.311199
C62	C	0.824510	0.092996	0.688736
H63	H	0.597088	0.212713	-0.000044
Br64	Br	0.208389	-0.058984	-0.000027
H65	H	0.628010	-0.018178	-0.000018
Br66	Br	0.669955	-0.694730	-0.000072
Br67	Br	0.480752	-0.054965	-0.000028
Br68	Br	0.440583	0.245018	-0.000025
Br69	Br	0.672487	-0.523083	-0.000056
Br70	Br	0.036738	-0.061520	-0.000046
Br71	Br	0.979015	-0.119236	-0.000002
H72	H	0.711342	-0.235581	-0.000023
H73	H	0.708142	0.068403	0.555755
H74	H	0.942230	-0.266488	-0.000012
Br75	Br	0.679030	-0.079067	-0.000023
Br76	Br	0.704695	0.212860	0.426947
Br77	Br	0.972470	-0.563245	-0.000014
H78	H	0.849045	0.209409	0.555734
H79	H	0.935686	-0.710500	-0.000064
Br80	Br	0.976438	0.125311	0.426994
H81	H	0.916398	0.001251	0.555450
H82	H	0.799909	-0.023326	0.444188
H83	H	0.153078	0.206160	-0.000034
Br84	Br	-0.003426	0.238465	-0.000046
