data_functionalizedCrystal
_audit_creation_method	'MofGen! by Chris Wilmer'
_symmetry_space_group_name_H-M	'P1'
_symmetry_Int_Tables_number	1
_symmetry_cell_setting	triclinic
loop_
_symmetry_equiv_pos_as_xyz
  x,y,z
_cell_length_a	17.077404
_cell_length_b	12.759400
_cell_length_c	17.077396
_cell_angle_alpha	90.025586
_cell_angle_beta	90.018362
_cell_angle_gamma	90.012655
loop_
_atom_site_label
_atom_site_type_symbol
_atom_site_fract_x
_atom_site_fract_y
_atom_site_fract_z
Zn1	Zn	1.200099	-0.418323	0.443835
Zn2	Zn	1.700099	0.081677	0.943835
Zn3	Zn	1.200025	-0.594024	0.312575
Zn4	Zn	1.700025	-0.094024	0.812575
Zn5	Zn	1.068831	-0.418353	0.312585
Zn6	Zn	1.568831	0.081647	0.812585
Zn7	Zn	1.068818	-0.593954	0.443801
Zn8	Zn	1.568818	-0.093954	0.943801
O9	O	1.134443	-0.506164	0.378199
O10	O	1.634443	-0.006164	0.878199
O11	O	1.309936	-0.441647	0.426433
O12	O	1.809936	0.058353	0.926433
O13	O	1.182597	-0.570762	0.202730
O14	O	1.682597	-0.070762	0.702730
O15	O	1.086281	-0.271328	0.330014
O16	O	1.586281	0.228672	0.830014
O17	O	1.309882	-0.570733	0.329997
O18	O	1.809882	-0.070733	0.829997
O19	O	1.182723	-0.271306	0.426442
O20	O	1.682723	0.228694	0.926442
O21	O	1.086209	-0.441698	0.202737
O22	O	1.586209	0.058302	0.702737
O23	O	0.958982	-0.441631	0.329982
O24	O	1.458982	0.058369	0.829982
O25	O	1.086258	-0.570615	0.553653
O26	O	1.586258	-0.070615	1.053653
O27	O	0.958973	-0.570644	0.426386
O28	O	1.458973	-0.070644	0.926386
O29	O	1.182710	-0.441580	0.553677
O30	O	1.682710	0.058420	1.053677
O31	O	1.182584	-0.741036	0.329965
O32	O	1.682584	-0.241036	0.829965
O33	O	1.086186	-0.740985	0.426376
O34	O	1.586186	-0.240985	0.926376
C35	C	0.930496	-0.506134	0.378182
C36	C	1.430496	-0.006134	0.878182
C37	C	0.843246	-0.506146	0.378193
C38	C	1.343246	-0.006146	0.878193
C39	C	0.802285	-0.439051	0.428483
C40	C	1.302285	0.060949	0.928483
C41	C	0.720304	-0.439057	0.428487
C42	C	1.220304	0.060943	0.928487
C43	C	0.679286	-0.506166	0.378203
C44	C	1.179286	-0.006166	0.878203
C45	C	0.720253	-0.573265	0.327907
C46	C	1.220253	-0.073265	0.827907
C47	C	0.802232	-0.573252	0.327900
C48	C	1.302232	-0.073252	0.827900
C49	C	0.549383	-0.573289	0.327926
C50	C	1.049383	-0.073289	0.827926
C51	C	0.467398	-0.573303	0.327934
C52	C	0.967398	-0.073303	0.827934
C53	C	0.467455	-0.439094	0.428513
C54	C	0.967455	0.060906	0.928513
C55	C	0.549434	-0.439081	0.428506
C56	C	1.049434	0.060919	0.928506
C57	C	0.590395	-0.506182	0.378211
C58	C	1.090395	-0.006182	0.878211
C59	C	1.134397	-0.779131	0.378183
C60	C	1.634397	-0.279131	0.878183
C61	C	1.134449	-0.895908	0.378202
C62	C	1.634449	-0.395908	0.878202
C63	C	1.184699	-0.950761	0.328056
C64	C	1.684699	-0.450761	0.828056
C65	C	1.184747	-1.060485	0.328080
C66	C	1.684747	-0.560485	0.828080
C67	C	1.084289	-1.060492	0.428399
C68	C	1.584289	-0.560492	0.928399
C69	C	1.084245	-0.950770	0.428378
C70	C	1.584245	-0.450770	0.928378
C71	C	1.234902	-0.895899	0.277880
C72	C	1.734902	-0.395899	0.777880
C73	C	1.285156	-0.950752	0.227730
C74	C	1.785156	-0.450752	0.727730
C75	C	1.285204	-1.060476	0.227754
C76	C	1.785204	-0.560476	0.727754
C77	C	1.234999	-1.115347	0.277929
C78	C	1.734999	-0.615347	0.777929
C79	C	1.339188	-0.506194	0.378217
C80	C	1.839188	-0.006194	0.878217
C81	C	1.426437	-0.506207	0.378225
C82	C	1.926437	-0.006207	0.878225
C83	C	1.134491	-0.506086	0.582944
C84	C	1.634491	-0.006086	1.082944
C85	C	1.134511	-0.506053	0.670193
C86	C	1.634511	-0.006053	1.170193
C87	C	1.134512	-0.232130	0.378233
C88	C	1.634512	0.267870	0.878233
C89	C	1.134541	-0.115354	0.378247
C90	C	1.634541	0.384646	0.878247
C91	C	1.134441	-0.506165	0.174251
C92	C	1.634441	-0.006165	0.674251
C93	C	1.134573	-0.505902	0.087002
C94	C	1.634573	-0.005902	0.587002
C95	C	1.184735	-0.438859	0.711197
C96	C	1.684735	0.061141	1.211197
C97	C	1.184745	-0.438824	0.793178
C98	C	1.684745	0.061176	1.293178
C99	C	1.134533	-0.505989	0.834153
C100	C	1.634533	-0.005989	1.334153
C101	C	1.084304	-0.573187	0.793143
C102	C	1.584304	-0.073187	1.293143
C103	C	1.084291	-0.573216	0.711164
C104	C	1.584291	-0.073216	1.211164
C105	C	1.084335	-0.573124	0.964013
C106	C	1.584335	-0.073124	1.464013
C107	C	1.084349	-0.573096	1.045998
C108	C	1.584349	-0.073096	1.545998
C109	C	1.184789	-0.438732	1.046027
C110	C	1.684789	0.061268	1.546027
C111	C	1.184777	-0.438761	0.964048
C112	C	1.684777	0.061239	1.464048
C113	C	1.134547	-0.505960	0.923044
C114	C	1.634547	-0.005960	1.423044
H115	H	0.582829	-0.384442	0.469456
H116	H	1.082829	0.115558	0.969456
H117	H	0.686850	-0.627901	0.286961
H118	H	1.186850	-0.127901	0.786961
H119	H	1.043413	-1.105176	0.469248
H120	H	1.543413	-0.605176	0.969248
H121	H	0.686957	-0.384423	0.469440
H122	H	1.186957	0.115577	0.969440
C123	C	0.422280	-0.647124	0.272618
C124	C	0.922280	-0.147124	0.772618
N125	N	0.388297	-0.702727	0.230953
N126	N	0.888297	-0.202727	0.730953
C127	C	1.239972	-0.364969	0.666133
C128	C	1.739972	0.135031	1.166133
N129	N	1.281576	-0.309309	0.632192
N130	N	1.781576	0.190691	1.132192
C131	C	1.340484	-1.120812	0.172590
C132	C	1.840484	-0.620812	0.672590
N133	N	1.382120	-1.166255	0.131034
N134	N	1.882120	-0.666255	0.631034
C135	C	0.847289	-0.647065	0.272578
C136	C	1.347289	-0.147065	0.772578
N137	N	0.881224	-0.702661	0.230906
N138	N	1.381224	-0.202661	0.730906
H139	H	1.234867	-0.806556	0.277853
H140	H	1.734867	-0.306556	0.777853
H141	H	1.235048	-1.204691	0.277951
H142	H	1.735048	-0.704691	0.777951
C143	C	0.594438	-0.647106	0.272601
C144	C	1.094438	-0.147106	0.772601
N145	N	0.628374	-0.702709	0.230934
N146	N	1.128374	-0.202709	0.730934
H147	H	0.434101	-0.384456	0.469464
H148	H	0.934101	0.115544	0.969464
H149	H	1.043328	-0.906108	0.469212
H150	H	1.543328	-0.406108	0.969212
C151	C	1.029109	-0.646975	1.091069
C152	C	1.529109	-0.146975	1.591069
N153	N	0.987500	-0.702621	1.125016
N154	N	1.487500	-0.202621	1.625016
H155	H	1.326036	-0.906071	0.186884
H156	H	1.826036	-0.406071	0.686884
C157	C	1.239997	-0.364906	0.838279
C158	C	1.739997	0.135094	1.338279
N159	N	1.281615	-0.309228	0.872248
N160	N	1.781615	0.190772	1.372248
C161	C	1.240041	-0.364811	1.091133
C162	C	1.740041	0.135189	1.591133
N163	N	1.281658	-0.309140	1.125111
N164	N	1.781658	0.190860	1.625111
H165	H	1.043421	-0.627828	0.930630
H166	H	1.543421	-0.127828	1.430630
H167	H	1.043418	-0.627870	0.826511
H168	H	1.543418	-0.127870	1.326511
C169	C	1.029041	-0.647137	0.666060
C170	C	1.529041	-0.147137	1.166060
N171	N	0.987424	-0.702814	0.632089
N172	N	1.487424	-0.202814	1.132089
H173	H	0.835676	-0.384406	0.469432
H174	H	1.335676	0.115594	0.969432
H175	H	1.225668	-0.384075	0.930689
H176	H	1.725668	0.115925	1.430689
