data_functionalizedCrystal
_audit_creation_method	'MofGen! by Chris Wilmer'
_symmetry_space_group_name_H-M	'P1'
_symmetry_Int_Tables_number	1
_symmetry_cell_setting	triclinic
loop_
_symmetry_equiv_pos_as_xyz
  x,y,z
_cell_length_a	21.295412
_cell_length_b	16.625548
_cell_length_c	16.625546
_cell_angle_alpha	90.023536
_cell_angle_beta	90.028210
_cell_angle_gamma	90.016407
loop_
_atom_site_label
_atom_site_type_symbol
_atom_site_fract_x
_atom_site_fract_y
_atom_site_fract_z
Zn1	Zn	-0.355924	-1.232647	0.320995
Zn2	Zn	0.144076	-0.732647	0.820995
Zn3	Zn	-0.250655	-1.232560	0.455833
Zn4	Zn	0.249345	-0.732560	0.955833
Zn5	Zn	-0.250669	-1.097819	0.321020
Zn6	Zn	0.249331	-0.597819	0.821020
Zn7	Zn	-0.355886	-1.097780	0.455791
Zn8	Zn	0.144114	-0.597780	0.955791
O9	O	-0.303283	-1.165202	0.388410
O10	O	0.196717	-0.665202	0.888410
O11	O	-0.341969	-1.345468	0.338888
O12	O	0.158031	-0.845468	0.838888
O13	O	-0.162567	-1.214667	0.437977
O14	O	0.337433	-0.714667	0.937977
O15	O	-0.264653	-1.115757	0.208184
O16	O	0.235347	-0.615757	0.708184
O17	O	-0.264629	-1.345404	0.437953
O18	O	0.235371	-0.845404	0.937953
O19	O	-0.341983	-1.214815	0.208166
O20	O	0.158017	-0.714815	0.708166
O21	O	-0.162578	-1.115673	0.338931
O22	O	0.337422	-0.615673	0.838931
O23	O	-0.264617	-0.984981	0.338891
O24	O	0.235383	-0.484981	0.838891
O25	O	-0.443981	-1.115690	0.437882
O26	O	0.056019	-0.615690	0.937882
O27	O	-0.341919	-0.984952	0.437907
O28	O	0.158081	-0.484952	0.937907
O29	O	-0.444008	-1.214777	0.338848
O30	O	0.055992	-0.714777	0.838848
O31	O	-0.264592	-1.214629	0.568660
O32	O	0.235408	-0.714629	1.068660
O33	O	-0.341906	-1.115606	0.568629
O34	O	0.158094	-0.615606	1.068629
C35	C	-0.303266	-0.955711	0.388398
C36	C	0.196734	-0.455711	0.888398
C37	C	-0.303273	-0.866090	0.388413
C38	C	0.196727	-0.366090	0.888413
C39	C	-0.303257	-1.165125	0.597901
C40	C	0.196743	-0.665125	1.097901
C41	C	-0.303267	-1.165166	0.687522
C42	C	0.196733	-0.665166	1.187522
C43	C	-0.467474	-1.165239	0.388358
C44	C	0.032526	-0.665239	0.888358
C45	C	-0.537442	-1.165255	0.388335
C46	C	-0.037442	-0.665255	0.888335
C47	C	-1.036915	-1.216925	0.336640
C48	C	-0.536915	-0.716925	0.836640
C49	C	-0.971173	-1.216919	0.336660
C50	C	-0.471173	-0.716919	0.836660
C51	C	-0.938282	-1.165324	0.388229
C52	C	-0.438282	-0.665324	0.888229
C53	C	-0.971138	-1.113747	0.439797
C54	C	-0.471138	-0.613747	0.939797
C55	C	-1.036880	-1.113760	0.439782
C56	C	-0.536880	-0.613760	0.939782
N57	N	-0.835053	-1.094721	0.394435
N58	N	-0.335053	-0.594721	0.894435
N59	N	-0.772602	-1.094711	0.394444
N60	N	-0.272602	-0.594711	0.894444
C61	C	-0.740207	-1.165282	0.388279
C62	C	-0.240207	-0.665282	0.888279
N63	N	-0.772623	-1.235866	0.382088
N64	N	-0.272623	-0.735866	0.882088
N65	N	-0.835080	-1.235875	0.382074
N66	N	-0.335080	-0.735875	0.882074
C67	C	-0.866996	-1.165304	0.388252
C68	C	-0.366996	-0.665304	0.888252
C69	C	-0.636072	-1.216854	0.336740
C70	C	-0.136072	-0.716854	0.836740
C71	C	-0.570329	-1.216849	0.336765
C72	C	-0.070329	-0.716849	0.836765
C73	C	-0.570295	-1.113669	0.439898
C74	C	-0.070295	-0.613669	0.939898
C75	C	-0.636038	-1.113681	0.439877
C76	C	-0.136038	-0.613681	0.939877
C77	C	-0.668922	-1.165272	0.388294
C78	C	-0.168922	-0.665272	0.888294
C79	C	-0.139732	-1.165211	0.388403
C80	C	0.360268	-0.665211	0.888403
C81	C	-0.069764	-1.165351	0.388198
C82	C	0.430236	-0.665351	0.888198
C83	C	-0.303301	-1.375510	0.388422
C84	C	0.196699	-0.875510	0.888422
C85	C	-0.303309	-1.465132	0.388427
C86	C	0.196691	-0.965132	0.888427
C87	C	-0.303300	-0.537914	0.388418
C88	C	0.196700	-0.037914	0.888418
C89	C	-0.303291	-0.629222	0.388414
C90	C	0.196709	-0.129222	0.888414
C91	C	-0.303286	-0.701999	0.388416
C92	C	0.196714	-0.201999	0.888416
C93	C	-0.303278	-0.793313	0.388411
C94	C	0.196722	-0.293313	0.888411
C95	C	-0.303324	-1.165300	0.178101
C96	C	0.196676	-0.665300	0.678101
C97	C	-0.303341	-1.165342	0.088480
C98	C	0.196659	-0.665342	0.588480
C99	C	-0.303332	-1.165307	1.015697
C100	C	0.196668	-0.665307	1.515697
C101	C	-0.303316	-1.165265	0.924389
C102	C	0.196684	-0.665265	1.424389
C103	C	-0.303299	-1.165236	0.851612
C104	C	0.196701	-0.665236	1.351612
C105	C	-0.303283	-1.165196	0.760298
C106	C	0.196717	-0.665196	1.260298
H107	H	-1.063686	-1.258939	0.294641
H108	H	-0.563686	-0.758939	0.794641
C109	C	-0.672176	-1.056927	0.496571
C110	C	-0.172176	-0.556927	0.996571
C111	C	-0.636001	-1.000163	0.553288
C112	C	-0.136001	-0.500163	1.053288
C113	C	-0.672139	-0.943401	0.609982
C114	C	-0.172139	-0.443401	1.109982
C115	C	-0.744452	-0.943404	0.609958
C116	C	-0.244452	-0.443404	1.109958
C117	C	-0.780631	-1.000171	0.553239
C118	C	-0.280631	-0.500171	1.053239
C119	C	-0.744493	-1.056932	0.496545
C120	C	-0.244493	-0.556932	0.996545
H121	H	-0.582467	-1.000159	0.553308
H122	H	-0.082467	-0.500159	1.053308
H123	H	-0.645356	-0.901379	0.651969
H124	H	-0.145356	-0.401379	1.151969
H125	H	-0.771203	-0.901386	0.651925
H126	H	-0.271203	-0.401386	1.151925
H127	H	-0.834165	-1.000175	0.553219
H128	H	-0.334165	-0.500175	1.053219
H129	H	-0.771275	-1.098954	0.454558
H130	H	-0.271275	-0.598954	0.954558
H131	H	-0.944354	-1.071739	0.481786
H132	H	-0.444354	-0.571739	0.981786
C133	C	-0.935029	-1.273649	0.279938
C134	C	-0.435029	-0.773649	0.779938
C135	C	-0.971200	-1.330395	0.223199
C136	C	-0.471200	-0.830395	0.723199
C137	C	-0.935058	-1.387122	0.166475
C138	C	-0.435058	-0.887122	0.666475
C139	C	-0.862746	-1.387103	0.166491
C140	C	-0.362746	-0.887103	0.666491
C141	C	-0.826570	-1.330354	0.223232
C142	C	-0.326570	-0.830354	0.723232
C143	C	-0.862712	-1.273627	0.279955
C144	C	-0.362712	-0.773627	0.779955
H145	H	-1.024734	-1.330411	0.223185
H146	H	-0.524734	-0.830411	0.723185
H147	H	-0.961838	-1.429131	0.124471
H148	H	-0.461838	-0.929131	0.624471
H149	H	-0.835991	-1.429096	0.124500
H150	H	-0.335991	-0.929096	0.624500
H151	H	-0.773036	-1.330338	0.223245
H152	H	-0.273036	-0.830338	0.723245
H153	H	-0.835932	-1.231619	0.321959
H154	H	-0.335932	-0.731619	0.821959
H155	H	-1.063625	-1.071761	0.481768
H156	H	-0.563625	-0.571761	0.981768
H157	H	-0.543516	-1.071663	0.481889
H158	H	-0.043516	-0.571663	0.981889
H159	H	-0.543584	-1.258852	0.294783
H160	H	-0.043584	-0.758852	0.794783
H161	H	-0.662849	-1.258862	0.294737
H162	H	-0.162849	-0.758862	0.794737
