data_functionalizedCrystal
_audit_creation_method	'MofGen! by Chris Wilmer'
_symmetry_space_group_name_H-M	'P1'
_symmetry_Int_Tables_number	1
_symmetry_cell_setting	triclinic
loop_
_symmetry_equiv_pos_as_xyz
  x,y,z
_cell_length_a	18.050591
_cell_length_b	21.295417
_cell_length_c	18.050583
_cell_angle_alpha	89.959541
_cell_angle_beta	89.977979
_cell_angle_gamma	90.026512
loop_
_atom_site_label
_atom_site_type_symbol
_atom_site_fract_x
_atom_site_fract_y
_atom_site_fract_z
Zn1	Zn	1.135289	-0.250631	-0.420010
Zn2	Zn	1.385289	-0.000631	-0.170010
Zn3	Zn	1.635289	0.249369	0.079990
Zn4	Zn	1.885289	0.499369	0.329990
Zn5	Zn	1.135192	-0.355917	-0.295811
Zn6	Zn	1.385192	-0.105917	-0.045811
Zn7	Zn	1.635192	0.144083	0.204189
Zn8	Zn	1.885192	0.394083	0.454189
Zn9	Zn	1.011106	-0.250659	-0.295821
Zn10	Zn	1.261106	-0.000659	-0.045821
Zn11	Zn	1.511106	0.249341	0.204179
Zn12	Zn	1.761106	0.499341	0.454179
Zn13	Zn	1.011051	-0.355859	-0.419946
Zn14	Zn	1.261051	-0.105859	-0.169946
Zn15	Zn	1.511051	0.144141	0.080054
Zn16	Zn	1.761051	0.394141	0.330054
O17	O	1.073159	-0.303267	-0.357897
O18	O	1.323159	-0.053267	-0.107897
O19	O	1.573159	0.196733	0.142103
O20	O	1.823159	0.446733	0.392103
O21	O	1.239201	-0.264610	-0.403557
O22	O	1.489201	-0.014610	-0.153557
O23	O	1.739201	0.235390	0.096443
O24	O	1.989201	0.485390	0.346443
O25	O	1.118714	-0.341991	-0.191887
O26	O	1.368714	-0.091991	0.058113
O27	O	1.618714	0.158009	0.308113
O28	O	1.868714	0.408009	0.558113
O29	O	1.027642	-0.162566	-0.312326
O30	O	1.277642	0.087434	-0.062326
O31	O	1.527642	0.337434	0.187674
O32	O	1.777642	0.587434	0.437674
O33	O	1.239130	-0.341964	-0.312308
O34	O	1.489130	-0.091964	-0.062308
O35	O	1.739130	0.158036	0.187692
O36	O	1.989130	0.408036	0.437692
O37	O	1.118879	-0.162545	-0.403567
O38	O	1.368879	0.087455	-0.153567
O39	O	1.618879	0.337455	0.096433
O40	O	1.868879	0.587455	0.346433
O41	O	1.027548	-0.264658	-0.191895
O42	O	1.277548	-0.014658	0.058105
O43	O	1.527548	0.235342	0.308105
O44	O	1.777548	0.485342	0.558105
O45	O	0.907174	-0.264601	-0.312264
O46	O	1.157174	-0.014601	-0.062264
O47	O	1.407174	0.235399	0.187736
O48	O	1.657174	0.485399	0.437736
O49	O	1.027549	-0.341864	-0.523879
O50	O	1.277549	-0.091864	-0.273879
O51	O	1.527549	0.158136	-0.023879
O52	O	1.777549	0.408136	0.226121
O53	O	0.907134	-0.341891	-0.403458
O54	O	1.157134	-0.091891	-0.153458
O55	O	1.407134	0.158109	0.096542
O56	O	1.657134	0.408109	0.346542
O57	O	1.118826	-0.264554	-0.523926
O58	O	1.368826	-0.014554	-0.273926
O59	O	1.618826	0.235446	-0.023926
O60	O	1.868826	0.485446	0.226074
O61	O	1.118661	-0.443999	-0.312247
O62	O	1.368661	-0.193999	-0.062247
O63	O	1.618661	0.056001	0.187753
O64	O	1.868661	0.306001	0.437753
O65	O	1.027455	-0.443956	-0.403449
O66	O	1.277455	-0.193956	-0.153449
O67	O	1.527455	0.056044	0.096551
O68	O	1.777455	0.306044	0.346551
C69	C	0.880207	-0.303243	-0.357856
C70	C	1.130207	-0.053243	-0.107856
C71	C	1.380207	0.196757	0.142144
C72	C	1.630207	0.446757	0.392144
C73	C	0.797662	-0.303248	-0.357856
C74	C	1.047662	-0.053248	-0.107856
C75	C	1.297662	0.196752	0.142144
C76	C	1.547662	0.446752	0.392144
C77	C	0.598211	-0.261169	-0.308379
C78	C	0.848211	-0.011169	-0.058379
C79	C	1.098211	0.238831	0.191621
C80	C	1.348211	0.488831	0.441621
C81	C	0.548788	-0.318588	-0.290098
C82	C	0.798788	-0.068588	-0.040098
C83	C	1.048788	0.181412	0.209902
C84	C	1.298788	0.431412	0.459902
C85	C	0.646531	-0.303267	-0.357889
C86	C	0.896531	-0.053267	-0.107889
C87	C	1.146531	0.196733	0.142111
C88	C	1.396531	0.446733	0.392111
C89	C	0.548872	-0.245869	-0.376169
C90	C	0.798872	0.004131	-0.126169
C91	C	1.048872	0.254131	0.123831
C92	C	1.298872	0.504131	0.373831
C93	C	0.500546	-0.303281	-0.357921
C94	C	0.750546	-0.053281	-0.107921
C95	C	1.000546	0.196719	0.142079
C96	C	1.250546	0.446719	0.392079
C97	C	0.598196	-0.360716	-0.339573
C98	C	0.848196	-0.110716	-0.089573
C99	C	1.098196	0.139284	0.160427
C100	C	1.348196	0.389284	0.410427
C101	C	0.598284	-0.287959	-0.425676
C102	C	0.848284	-0.037959	-0.175676
C103	C	1.098284	0.212041	0.074324
C104	C	1.348284	0.462041	0.324324
C105	C	0.548883	-0.345417	-0.407420
C106	C	0.798883	-0.095417	-0.157420
C107	C	1.048883	0.154583	0.092580
C108	C	1.298883	0.404583	0.342580
C109	C	0.730629	-0.303259	-0.357870
C110	C	0.980629	-0.053259	-0.107870
C111	C	1.230629	0.196741	0.142130
C112	C	1.480629	0.446741	0.392130
C113	C	0.416450	-0.303296	-0.357940
C114	C	0.666450	-0.053296	-0.107940
C115	C	0.916450	0.196704	0.142060
C116	C	1.166450	0.446704	0.392060
C117	C	1.073062	-0.466818	-0.357856
C118	C	1.323062	-0.216818	-0.107856
C119	C	1.573062	0.033182	0.142144
C120	C	1.823062	0.283182	0.392144
C121	C	1.073088	-0.536786	-0.357863
C122	C	1.323088	-0.286786	-0.107863
C123	C	1.573088	-0.036786	0.142137
C124	C	1.823088	0.213214	0.392137
C125	C	1.120621	-0.569654	-0.310423
C126	C	1.370621	-0.319654	-0.060423
C127	C	1.620621	-0.069654	0.189577
C128	C	1.870621	0.180346	0.439577
C129	C	1.120656	-0.635397	-0.310440
C130	C	1.370656	-0.385397	-0.060440
C131	C	1.620656	-0.135397	0.189560
C132	C	1.870656	0.114603	0.439560
C133	C	1.073145	-0.668269	-0.357889
C134	C	1.323145	-0.418269	-0.107889
C135	C	1.573145	-0.168269	0.142111
C136	C	1.823145	0.081731	0.392111
C137	C	1.025608	-0.635393	-0.405338
C138	C	1.275608	-0.385393	-0.155338
C139	C	1.525608	-0.135393	0.094662
C140	C	1.775608	0.114607	0.344662
C141	C	1.025580	-0.569652	-0.405325
C142	C	1.275580	-0.319652	-0.155325
C143	C	1.525580	-0.069652	0.094675
C144	C	1.775580	0.180348	0.344675
N145	N	1.008178	-0.771530	-0.363536
N146	N	1.258178	-0.521530	-0.113536
N147	N	1.508178	-0.271530	0.136464
N148	N	1.758178	-0.021530	0.386464
N149	N	1.008207	-0.833981	-0.363544
N150	N	1.258207	-0.583981	-0.113544
N151	N	1.508207	-0.333981	0.136456
N152	N	1.758207	-0.083981	0.386456
C153	C	1.073228	-0.866344	-0.357931
C154	C	1.323228	-0.616344	-0.107931
C155	C	1.573228	-0.366344	0.142069
C156	C	1.823228	-0.116344	0.392069
N157	N	1.138221	-0.833895	-0.352296
N158	N	1.388221	-0.583895	-0.102296
N159	N	1.638221	-0.333895	0.147704
N160	N	1.888221	-0.083895	0.397704
N161	N	1.138191	-0.771438	-0.352284
N162	N	1.388191	-0.521438	-0.102284
N163	N	1.638191	-0.271438	0.147716
N164	N	1.888191	-0.021438	0.397716
C165	C	1.073170	-0.739554	-0.357908
C166	C	1.323170	-0.489554	-0.107908
C167	C	1.573170	-0.239554	0.142092
C168	C	1.823170	0.010446	0.392092
C169	C	1.120803	-0.970497	-0.310507
C170	C	1.370803	-0.720497	-0.060507
C171	C	1.620803	-0.470497	0.189493
C172	C	1.870803	-0.220497	0.439493
C173	C	1.120839	-1.036241	-0.310529
C174	C	1.370839	-0.786241	-0.060529
C175	C	1.620839	-0.536241	0.189471
C176	C	1.870839	-0.286241	0.439471
C177	C	1.025784	-1.036235	-0.405423
C178	C	1.275784	-0.786235	-0.155423
C179	C	1.525784	-0.536235	0.094577
C180	C	1.775784	-0.286235	0.344577
C181	C	1.025755	-0.970493	-0.405405
C182	C	1.275755	-0.720493	-0.155405
C183	C	1.525755	-0.470493	0.094595
C184	C	1.775755	-0.220493	0.344595
C185	C	1.073263	-0.937628	-0.357943
C186	C	1.323263	-0.687628	-0.107943
C187	C	1.573263	-0.437628	0.142057
C188	C	1.823263	-0.187628	0.392057
C189	C	1.266865	-0.303291	-0.357939
C190	C	1.516865	-0.053291	-0.107939
C191	C	1.766865	0.196709	0.142061
C192	C	2.016865	0.446709	0.392061
C193	C	1.349411	-0.303301	-0.357956
C194	C	1.599411	-0.053301	-0.107956
C195	C	1.849411	0.196699	0.142044
C196	C	2.099411	0.446699	0.392044
C197	C	1.073192	-0.303199	-0.551603
C198	C	1.323192	-0.053199	-0.301603
C199	C	1.573192	0.196801	-0.051603
C200	C	1.823192	0.446801	0.198397
C201	C	1.073206	-0.303171	-0.634148
C202	C	1.323206	-0.053171	-0.384148
C203	C	1.573206	0.196829	-0.134148
C204	C	1.823206	0.446829	0.115852
C205	C	1.073277	-0.139076	-0.357955
C206	C	1.323277	0.110924	-0.107955
C207	C	1.573277	0.360924	0.142045
C208	C	1.823277	0.610924	0.392045
C209	C	1.073328	-0.069108	-0.357979
C210	C	1.323328	0.180892	-0.107979
C211	C	1.573328	0.430892	0.142021
C212	C	1.823328	0.680892	0.392021
C213	C	1.122892	-0.261109	-0.833625
C214	C	1.372892	-0.011109	-0.583625
C215	C	1.622892	0.238891	-0.333625
C216	C	1.872892	0.488891	-0.083625
C217	C	1.055159	-0.245698	-0.883014
C218	C	1.305159	0.004302	-0.633014
C219	C	1.555159	0.254302	-0.383014
C220	C	1.805159	0.504302	-0.133014
C221	C	1.073236	-0.303160	-0.785279
C222	C	1.323236	-0.053160	-0.535279
C223	C	1.573236	0.196840	-0.285279
C224	C	1.823236	0.446840	-0.035279
C225	C	1.140996	-0.318531	-0.882972
C226	C	1.390996	-0.068531	-0.632972
C227	C	1.640996	0.181469	-0.382972
C228	C	1.890996	0.431469	-0.132972
C229	C	1.073271	-0.303148	-0.931264
C230	C	1.323271	-0.053148	-0.681264
C231	C	1.573271	0.196852	-0.431264
C232	C	1.823271	0.446852	-0.181264
C233	C	1.005467	-0.287720	-0.833581
C234	C	1.255467	-0.037720	-0.583581
C235	C	1.505467	0.212280	-0.333581
C236	C	1.755467	0.462280	-0.083581
C237	C	1.091350	-0.360579	-0.833534
C238	C	1.341350	-0.110579	-0.583534
C239	C	1.591350	0.139421	-0.333534
C240	C	1.841350	0.389421	-0.083534
C241	C	1.023570	-0.345190	-0.882901
C242	C	1.273570	-0.095190	-0.632901
C243	C	1.523570	0.154810	-0.382901
C244	C	1.773570	0.404810	-0.132901
C245	C	1.073217	-0.303165	-0.701181
C246	C	1.323217	-0.053165	-0.451181
C247	C	1.573217	0.196835	-0.201181
C248	C	1.823217	0.446835	0.048819
C249	C	1.073282	-0.303143	-1.015361
C250	C	1.323282	-0.053143	-0.765361
C251	C	1.573282	0.196857	-0.515361
C252	C	1.823282	0.446857	-0.265361
C253	C	1.073169	-0.303288	-0.164945
C254	C	1.323169	-0.053288	0.085055
C255	C	1.573169	0.196712	0.335055
C256	C	1.823169	0.446712	0.585055
C257	C	1.073299	-0.303139	-0.082399
C258	C	1.323299	-0.053139	0.167601
C259	C	1.573299	0.196861	0.417601
C260	C	1.823299	0.446861	0.667601
H261	H	0.619870	-0.225606	-0.266464
H262	H	0.869870	0.024394	-0.016464
H263	H	1.119870	0.274394	0.233536
H264	H	1.369870	0.524394	0.483536
C265	C	0.966800	-0.393221	-0.911956
C266	C	1.216800	-0.143221	-0.661956
C267	C	1.466800	0.106779	-0.411956
C268	C	1.716800	0.356779	-0.161956
H269	H	0.918722	-0.382194	-0.894952
H270	H	1.168722	-0.132194	-0.644952
H271	H	1.418722	0.117806	-0.394952
H272	H	1.668722	0.367806	-0.144952
H273	H	0.979244	-0.433890	-0.894265
H274	H	1.229244	-0.183890	-0.644265
H275	H	1.479244	0.066110	-0.394265
H276	H	1.729244	0.316110	-0.144265
H277	H	0.967402	-0.393197	-0.964582
H278	H	1.217402	-0.143197	-0.714582
H279	H	1.467402	0.106803	-0.464582
H280	H	1.717402	0.356803	-0.214582
C281	C	0.627337	-0.426317	-0.318612
C282	C	0.877337	-0.176317	-0.068612
C283	C	1.127337	0.073683	0.181388
C284	C	1.377337	0.323683	0.431388
H285	H	0.679966	-0.425906	-0.318703
H286	H	0.929966	-0.175906	-0.068703
H287	H	1.179966	0.074094	0.181297
H288	H	1.429966	0.324094	0.431297
H289	H	0.610052	-0.456248	-0.353572
H290	H	0.860052	-0.206248	-0.103572
H291	H	1.110052	0.043752	0.146428
H292	H	1.360052	0.293752	0.396428
H293	H	0.609978	-0.437261	-0.270616
H294	H	0.859978	-0.187261	-0.020616
H295	H	1.109978	0.062739	0.229384
H296	H	1.359978	0.312739	0.479384
H297	H	1.159366	-0.662163	-0.271808
H298	H	1.409366	-0.412163	-0.021808
H299	H	1.659366	-0.162163	0.228192
H300	H	1.909366	0.087837	0.478192
C301	C	0.519606	-0.180288	-0.397043
C302	C	0.769606	0.069712	-0.147043
C303	C	1.019606	0.319712	0.102957
C304	C	1.269606	0.569712	0.352957
H305	H	0.536505	-0.150426	-0.361805
H306	H	0.786505	0.099574	-0.111805
H307	H	1.036505	0.349574	0.138195
H308	H	1.286505	0.599574	0.388195
H309	H	0.466985	-0.180854	-0.397350
H310	H	0.716985	0.069146	-0.147350
H311	H	0.966985	0.319146	0.102650
H312	H	1.216985	0.569146	0.352650
H313	H	0.537289	-0.169120	-0.444849
H314	H	0.787289	0.080880	-0.194849
H315	H	1.037289	0.330880	0.055151
H316	H	1.287289	0.580880	0.305151
H317	H	1.106680	-0.409128	-0.811786
H318	H	1.356680	-0.159128	-0.561786
H319	H	1.606680	0.090872	-0.311786
H320	H	1.856680	0.340872	-0.061786
C321	C	1.218387	-0.336106	-0.912276
C322	C	1.468387	-0.086106	-0.662276
C323	C	1.718387	0.163894	-0.412276
C324	C	1.968387	0.413894	-0.162276
H325	H	1.253592	-0.306191	-0.895394
H326	H	1.503592	-0.056191	-0.645394
H327	H	1.753592	0.193809	-0.395394
H328	H	2.003592	0.443809	-0.145394
H329	H	1.217739	-0.336354	-0.964896
H330	H	1.467739	-0.086354	-0.714896
H331	H	1.717739	0.163646	-0.464896
H332	H	1.967739	0.413646	-0.214896
H333	H	1.231581	-0.376613	-0.894598
H334	H	1.481581	-0.126613	-0.644598
H335	H	1.731581	0.123387	-0.394598
H336	H	1.981581	0.373387	-0.144598
C337	C	0.973347	-0.671546	-0.457533
C338	C	1.223347	-0.421546	-0.207533
C339	C	1.473347	-0.171546	0.042467
C340	C	1.723347	0.078454	0.292467
H341	H	0.945036	-0.642553	-0.485790
H342	H	1.195036	-0.392553	-0.235790
H343	H	1.445036	-0.142553	0.014210
H344	H	1.695036	0.107447	0.264210
H345	H	0.941016	-0.697236	-0.429099
H346	H	1.191016	-0.447236	-0.179099
H347	H	1.441016	-0.197236	0.070901
H348	H	1.691016	0.052764	0.320901
H349	H	1.001752	-0.697147	-0.489926
H350	H	1.251752	-0.447147	-0.239926
H351	H	1.501752	-0.197147	0.010074
H352	H	1.751752	0.052853	0.260074
C353	C	0.519413	-0.336093	-0.212679
C354	C	0.769413	-0.086093	0.037321
C355	C	1.019413	0.163907	0.287321
C356	C	1.269413	0.413907	0.537321
H357	H	0.536297	-0.306136	-0.177545
H358	H	0.786297	-0.056136	0.072455
H359	H	1.036297	0.193864	0.322455
H360	H	1.286297	0.443864	0.572455
H361	H	0.537026	-0.376583	-0.199362
H362	H	0.787026	-0.126583	0.050638
H363	H	1.037026	0.123417	0.300638
H364	H	1.287026	0.373417	0.550638
H365	H	0.466788	-0.336343	-0.213364
H366	H	0.716788	-0.086343	0.036636
H367	H	0.966788	0.163657	0.286636
H368	H	1.216788	0.413657	0.536636
C369	C	0.519799	-0.393570	-0.463997
C370	C	0.769799	-0.143570	-0.213997
C371	C	1.019799	0.106430	0.036003
C372	C	1.269799	0.356430	0.286003
H373	H	0.536779	-0.434312	-0.450902
H374	H	0.786779	-0.184312	-0.200902
H375	H	1.036779	0.065688	0.049098
H376	H	1.286779	0.315688	0.299098
H377	H	0.537495	-0.383039	-0.511994
H378	H	0.787495	-0.133039	-0.261994
H379	H	1.037495	0.116961	-0.011994
H380	H	1.287495	0.366961	0.238006
H381	H	0.467173	-0.393076	-0.463986
H382	H	0.717173	-0.143076	-0.213986
H383	H	0.967173	0.106924	0.036014
H384	H	1.217173	0.356924	0.286014
C385	C	0.627683	-0.270430	-0.503073
C386	C	0.877683	-0.020430	-0.253073
C387	C	1.127683	0.229570	-0.003073
C388	C	1.377683	0.479570	0.246927
H389	H	0.610827	-0.229608	-0.515978
H390	H	0.860827	0.020392	-0.265978
H391	H	1.110827	0.270392	-0.015978
H392	H	1.360827	0.520392	0.234022
H393	H	0.610060	-0.299922	-0.538382
H394	H	0.860060	-0.049922	-0.288382
H395	H	1.110060	0.200078	-0.038382
H396	H	1.360060	0.450078	0.211618
H397	H	0.680307	-0.270930	-0.502604
H398	H	0.930307	-0.020930	-0.252604
H399	H	1.180307	0.229070	-0.002604
H400	H	1.430307	0.479070	0.247396
H401	H	0.986872	-0.542890	-0.443958
H402	H	1.236872	-0.292890	-0.193958
H403	H	1.486872	-0.042890	0.056042
H404	H	1.736872	0.207110	0.306042
H405	H	0.948161	-0.274658	-0.811976
H406	H	1.198161	-0.024658	-0.561976
H407	H	1.448161	0.225342	-0.311976
H408	H	1.698161	0.475342	-0.061976
C409	C	1.034477	-0.180098	-0.912380
C410	C	1.284477	0.069902	-0.662380
C411	C	1.534477	0.319902	-0.412380
C412	C	1.784477	0.569902	-0.162380
H413	H	1.069793	-0.150271	-0.895514
H414	H	1.319793	0.099729	-0.645514
H415	H	1.569793	0.349729	-0.395514
H416	H	1.819793	0.599729	-0.145514
H417	H	0.986694	-0.168884	-0.894743
H418	H	1.236694	0.081116	-0.644743
H419	H	1.486694	0.331116	-0.394743
H420	H	1.736694	0.581116	-0.144743
H421	H	1.034200	-0.180666	-0.965004
H422	H	1.284200	0.069334	-0.715004
H423	H	1.534200	0.319334	-0.465004
H424	H	1.784200	0.569334	-0.215004
C425	C	1.172861	-0.533503	-0.258203
C426	C	1.422861	-0.283503	-0.008203
C427	C	1.672861	-0.033503	0.241797
C428	C	1.922861	0.216497	0.491797
H429	H	1.166029	-0.489642	-0.264978
H430	H	1.416029	-0.239642	-0.014978
H431	H	1.666029	0.010358	0.235022
H432	H	1.916029	0.260358	0.485022
H433	H	1.222764	-0.544227	-0.269102
H434	H	1.472764	-0.294227	-0.019102
H435	H	1.722764	-0.044227	0.230898
H436	H	1.972764	0.205773	0.480898
H437	H	1.162002	-0.544331	-0.208300
H438	H	1.412002	-0.294331	0.041700
H439	H	1.662002	-0.044331	0.291700
H440	H	1.912002	0.205669	0.541700
C441	C	1.173066	-0.934343	-0.258310
C442	C	1.423066	-0.684343	-0.008310
C443	C	1.673066	-0.434343	0.241690
C444	C	1.923066	-0.184343	0.491690
H445	H	1.201390	-0.963336	-0.230066
H446	H	1.451390	-0.713336	0.019934
H447	H	1.701390	-0.463336	0.269934
H448	H	1.951390	-0.213336	0.519934
H449	H	1.144669	-0.908742	-0.225915
H450	H	1.394669	-0.658742	0.024085
H451	H	1.644669	-0.408742	0.274085
H452	H	1.894669	-0.158742	0.524085
H453	H	1.205396	-0.908653	-0.286753
H454	H	1.455396	-0.658653	-0.036753
H455	H	1.705396	-0.408653	0.213247
H456	H	1.955396	-0.158653	0.463247
C457	C	1.179533	-0.213044	-0.804395
C458	C	1.429533	0.036956	-0.554395
C459	C	1.679533	0.286956	-0.304395
C460	C	1.929533	0.536956	-0.054395
H461	H	1.166552	-0.172263	-0.821341
H462	H	1.416552	0.077737	-0.571341
H463	H	1.666552	0.327737	-0.321341
H464	H	1.916552	0.577737	-0.071341
H465	H	1.227531	-0.223571	-0.822036
H466	H	1.477531	0.026429	-0.572036
H467	H	1.727531	0.276429	-0.322036
H468	H	1.977531	0.526429	-0.072036
H469	H	1.179446	-0.213639	-0.751769
H470	H	1.429446	0.036361	-0.501769
H471	H	1.679446	0.286361	-0.251769
H472	H	1.929446	0.536361	-0.001769
H473	H	1.159551	-1.063001	-0.271899
H474	H	1.409551	-0.813001	-0.021899
H475	H	1.659551	-0.563001	0.228101
H476	H	1.909551	-0.313001	0.478101
H477	H	0.987103	-1.062999	-0.444060
H478	H	1.237103	-0.812999	-0.194060
H479	H	1.487103	-0.562999	0.055940
H480	H	1.737103	-0.312999	0.305940
H481	H	0.987046	-0.943730	-0.444032
H482	H	1.237046	-0.693730	-0.194032
H483	H	1.487046	-0.443730	0.055968
H484	H	1.737046	-0.193730	0.305968
