data_functionalizedCrystal
_audit_creation_method	'MofGen! by Chris Wilmer'
_symmetry_space_group_name_H-M	'P1'
_symmetry_Int_Tables_number	1
_symmetry_cell_setting	triclinic
loop_
_symmetry_equiv_pos_as_xyz
  x,y,z
_cell_length_a	15.995355
_cell_length_b	14.472310
_cell_length_c	15.995350
_cell_angle_alpha	89.998838
_cell_angle_beta	96.506710
_cell_angle_gamma	89.991148
loop_
_atom_site_label
_atom_site_type_symbol
_atom_site_fract_x
_atom_site_fract_y
_atom_site_fract_z
O1	O	-1.110994	0.076747	0.107939
O2	O	-0.867219	0.076768	0.121262
O3	O	-0.995771	0.076756	-0.007287
O4	O	-0.982443	0.076759	0.236488
O5	O	-0.995737	-0.076926	-0.007280
O6	O	-0.867186	-0.076914	0.121270
O7	O	-1.110961	-0.076935	0.107946
Cu8	Cu	-0.989071	-0.090957	0.114609
Cu9	Cu	-0.989110	0.090790	0.114600
O10	O	-0.982410	-0.076923	0.236496
C11	C	-0.836008	-0.000071	0.120715
C12	C	-0.743058	-0.000062	0.119061
N13	N	-0.989049	-0.218788	0.114614
C14	C	-0.572873	-0.000075	0.116060
C15	C	-0.549527	-0.000076	0.023262
C16	C	-0.452850	-0.000431	0.021512
C17	C	-0.405314	-0.000087	0.113104
C18	C	-0.434386	-0.087672	0.159770
C19	C	-0.531178	-0.087740	0.160874
C20	C	-0.531126	0.087032	0.162225
C21	C	-0.434632	0.088177	0.158795
C22	C	-0.310616	-0.000097	0.111439
C23	C	-0.667570	-0.000072	0.117729
C24	C	-0.989109	-0.592879	0.114596
C25	C	-0.920093	-0.553707	0.183150
C26	C	-0.920252	-0.446619	0.183400
C27	C	-0.989078	-0.407288	0.114605
C28	C	-1.076443	-0.446133	0.133689
C29	C	-1.076055	-0.553254	0.134176
C30	C	-0.971540	-0.553408	0.026757
C31	C	-0.969536	-0.446280	0.027342
C32	C	-0.989067	-0.302400	0.114609
C33	C	-0.989126	-0.697767	0.114595
C34	C	-0.142174	-0.000096	0.108483
C35	C	-0.235128	-0.000100	0.110103
C36	C	-0.995203	-0.000083	-0.038478
C37	C	-0.993551	-0.000078	-0.131428
N38	N	-0.989138	0.218620	0.114588
C39	C	-0.987619	-0.000081	-0.469176
C40	C	-0.896067	0.000272	-0.421743
C41	C	-0.897719	-0.000075	-0.325053
C42	C	-0.990562	-0.000079	-0.301615
C43	C	-1.035699	-0.087841	-0.342688
C44	C	-1.033399	-0.087914	-0.439324
C45	C	-1.035328	0.086851	-0.439690
C46	C	-1.035307	0.088011	-0.342745
C47	C	-0.992229	-0.000081	-0.206918
C48	C	-0.985954	-0.000085	-0.563874
C49	C	-0.982978	-0.000082	0.267687
C50	C	-0.984629	-0.000081	0.360637
H51	H	-0.433844	0.062341	-0.015017
H52	H	-0.859489	0.063208	-0.440279
H53	H	-0.559410	0.153439	0.132945
Br54	Br	-0.978491	-0.197250	-0.469828
Br55	Br	-0.403760	0.196179	0.102134
H56	H	-0.862237	0.062837	-0.296635
H57	H	-1.103012	0.093306	-0.327382
Br58	Br	-1.101860	-0.594889	0.240947
Br59	Br	-0.379713	0.097445	0.270190
H60	H	-1.004322	-0.153148	-0.314304
Br61	Br	-0.596228	0.104594	-0.036698
H62	H	-0.545140	0.087877	0.230530
H63	H	-0.855313	-0.420358	0.172030
H64	H	-0.861971	-0.063088	-0.297186
Br65	Br	-0.597810	-0.104605	-0.035710
H66	H	-0.854943	-0.579489	0.171967
Br67	Br	-0.835149	-0.103712	-0.454796
Br68	Br	-1.102870	-0.401406	0.239243
Br69	Br	-1.164137	-0.596447	0.054028
Br70	Br	-1.145424	-0.094568	-0.493075
Br71	Br	-1.149386	-0.093292	-0.319147
Br72	Br	-1.047885	-0.401677	-0.061673
H73	H	-1.129027	-0.420654	0.085086
Br74	Br	-0.985455	0.197720	-0.473918
Br75	Br	-0.980764	0.196241	-0.296796
H76	H	-1.102829	0.087437	-0.471450
Br77	Br	-0.867646	-0.598480	-0.003812
H78	H	-0.905270	-0.420892	0.012860
H79	H	-1.021870	-0.578739	-0.024259
H80	H	-0.557950	-0.153460	0.128943
Br81	Br	-0.422088	-0.105702	-0.039059
H82	H	-0.545751	-0.091484	0.228926
H83	H	-0.931471	-0.420985	0.248584
Br84	Br	-0.381312	-0.092695	0.272125
Br85	Br	-0.938541	-0.598537	0.291189
H86	H	-0.414281	-0.153101	0.127757
