data_functionalizedCrystal
_audit_creation_method	'MofGen! by Chris Wilmer'
_symmetry_space_group_name_H-M	'P1'
_symmetry_Int_Tables_number	1
_symmetry_cell_setting	triclinic
loop_
_symmetry_equiv_pos_as_xyz
  x,y,z
_cell_length_a	19.851628
_cell_length_b	14.446369
_cell_length_c	14.446369
_cell_angle_alpha	60.000250
_cell_angle_beta	90.005090
_cell_angle_gamma	59.999397
loop_
_atom_site_label
_atom_site_type_symbol
_atom_site_fract_x
_atom_site_fract_y
_atom_site_fract_z
Zr1	Zr	0.648984	1.013130	-0.121411
O2	O	0.541418	1.206259	-0.269240
O3	O	0.681958	0.820008	-0.076088
O4	O	0.681959	1.013117	-0.269207
O5	O	0.541417	1.013159	0.076208
O6	O	0.792821	1.013099	-0.269189
O7	O	0.541417	1.013150	-0.076120
O8	O	0.792818	0.667663	0.076266
O9	O	0.541419	1.358594	-0.269247
O10	O	0.778756	0.899426	-0.056752
O11	O	0.696021	0.899446	0.056916
O12	O	0.696023	1.126806	-0.170457
O13	O	0.613288	1.126826	-0.056790
Zr14	Zr	0.825795	1.013115	0.121565
Zr15	Zr	0.825796	1.013102	-0.121382
Zr16	Zr	0.648984	1.013144	0.121535
Zr17	Zr	0.648985	1.256088	-0.121423
Zr18	Zr	0.825794	0.770157	0.121576
O19	O	0.792822	1.206237	0.076241
O20	O	0.792822	1.206218	-0.269198
O21	O	0.541418	1.206278	0.076199
O22	O	0.933361	0.819987	0.269393
O23	O	0.933361	0.819968	-0.076046
O24	O	0.681957	0.820027	0.269351
O25	O	0.933362	1.013087	-0.076055
O26	O	0.792820	1.013129	0.269361
O27	O	0.681958	1.013146	0.269342
O28	O	0.933362	1.013095	0.076274
O29	O	0.681961	1.358572	-0.269223
O30	O	0.792818	0.667674	0.269376
O31	O	0.933360	0.667651	0.269400
O32	O	0.933360	0.667640	0.076290
O33	O	0.541419	1.358605	-0.076136
O34	O	0.681961	1.358582	-0.076113
O35	O	0.778756	0.899439	0.170611
O36	O	0.861491	0.899419	0.056943
O37	O	0.778758	1.126799	-0.056762
O38	O	0.696023	1.126819	0.056905
C39	C	0.737388	0.709219	0.000091
C40	C	0.737387	0.606077	0.000095
C41	C	0.685456	0.459080	0.072114
C42	C	0.685174	0.566700	0.071823
C43	C	0.699322	0.655073	-0.123446
C44	C	0.698931	0.547840	-0.123072
C45	C	0.827420	0.372608	0.050555
C46	C	0.827288	0.478759	0.053076
C47	C	0.516225	1.013158	0.000040
C48	C	0.441164	1.013171	0.000027
C49	C	0.214709	1.137119	-0.061932
C50	C	0.192347	1.075142	-0.106847
C51	C	0.303757	1.013137	0.000060
C52	C	0.192378	1.075121	0.044954
C53	C	0.171025	1.013113	0.000091
C54	C	0.282384	0.951159	-0.044918
C55	C	0.282412	0.951156	0.106942
C56	C	0.260104	0.889089	0.062054
C57	C	0.380219	1.013154	0.000039
C58	C	0.094568	1.013086	0.000109
C59	C	0.958554	1.013087	0.000114
C60	C	1.033615	1.013075	0.000126
C61	C	0.737390	1.013106	-0.303813
C62	C	0.737390	1.013100	-0.406950
C63	C	0.737392	1.317026	0.000063
C64	C	0.737392	1.420168	0.000058
C65	C	0.789830	0.869707	-0.481917
C66	C	0.789603	0.869610	-0.374589
C67	C	0.647493	1.084343	-0.481528
C68	C	0.647780	1.083432	-0.588387
C69	C	0.774121	1.086365	-0.589939
C70	C	0.775940	1.083662	-0.481267
C71	C	0.737389	1.013139	0.303966
C72	C	0.737389	1.013145	0.407103
C73	C	0.958552	0.709184	0.000128
C74	C	1.033613	0.606030	0.000145
C75	C	0.737387	0.709236	0.303980
C76	C	0.737387	0.606100	0.407122
C77	C	0.958552	0.709200	0.304017
C78	C	1.033612	0.606052	0.407171
C79	C	0.516227	1.317045	-0.303864
C80	C	0.441167	1.420194	-0.407018
C81	C	0.516227	1.317062	0.000026
C82	C	0.441166	1.420216	0.000009
C83	C	0.737392	1.317009	-0.303827
C84	C	0.737393	1.420146	-0.406969
C85	C	1.025675	0.557591	-0.059205
C86	C	1.096196	0.460680	-0.059211
C87	C	1.174653	0.412203	0.000139
C88	C	1.182589	0.460651	0.059491
C89	C	1.112069	0.557567	0.059490
C90	C	1.112056	0.557602	0.396281
C91	C	1.182590	0.460697	0.493196
C92	C	1.174679	0.412236	0.601001
C93	C	1.096227	0.460696	0.611890
C94	C	1.025695	0.557606	0.514975
C95	C	0.362723	1.468655	-0.396127
C96	C	0.292189	1.565591	-0.493043
C97	C	0.300101	1.614056	-0.600848
C98	C	0.378552	1.565591	-0.611736
C99	C	0.449085	1.468663	-0.514822
C100	C	0.449104	1.468665	0.059348
C101	C	0.378583	1.565602	0.059328
C102	C	0.300126	1.614083	-0.000026
C103	C	0.292190	1.565630	-0.059373
C104	C	0.362710	1.468701	-0.059359
C105	C	0.684953	0.459794	0.482102
C106	C	0.685175	0.566714	0.374769
C107	C	0.827285	0.479232	0.481696
C108	C	0.827003	0.371857	0.588560
C109	C	0.700663	0.546851	0.590117
C110	C	0.698839	0.655321	0.481440
H111	H	0.618767	0.655510	0.036814
H112	H	0.385061	1.605036	0.107659
O113	O	0.866523	0.428128	0.413364
H114	H	0.829378	0.404609	0.384105
O115	O	0.863670	1.014854	-0.413138
H116	H	0.869558	1.084351	-0.407229
H117	H	0.242711	1.693009	-0.000029
O118	O	0.860483	1.025567	-0.595381
H119	H	0.904066	0.989573	-0.518212
H120	H	0.961825	0.597041	0.523859
H121	H	0.619441	0.494851	0.037398
O122	O	0.745785	0.518751	-0.198072
H123	H	0.704213	0.539568	-0.267681
H124	H	0.733066	0.687442	0.506967
O125	O	0.140934	1.144535	-0.226555
H126	H	0.121450	1.247438	-0.277859
H127	H	0.228301	1.605118	-0.107697
O128	O	0.190275	1.275977	-0.131460
H129	H	0.215975	1.291981	-0.201898
H130	H	0.735333	0.683849	-0.179455
H131	H	0.321079	0.898793	-0.082977
H132	H	0.356236	1.429257	-0.107677
O133	O	0.941060	0.609870	-0.123234
H134	H	0.906867	0.716779	-0.188821
H135	H	1.246462	0.421251	0.484310
H136	H	0.153577	1.127549	0.082910
H137	H	0.278709	0.784171	0.114479
O138	O	0.611181	0.601742	-0.176609
H139	H	0.569424	0.703999	-0.202517
O140	O	1.250756	0.307696	0.705528
H141	H	1.306629	0.282143	0.679832
O142	O	1.120606	0.609858	0.280015
H143	H	1.058388	0.685382	0.214441
O144	O	0.730594	1.222339	-0.515107
H145	H	0.734148	1.221144	-0.437801
H146	H	0.242662	1.692980	-0.679752
H147	H	1.246478	0.421167	0.107811
H148	H	0.764127	0.813366	-0.320804
H149	H	1.089798	0.421225	0.699677
O150	O	0.354181	1.416399	-0.279858
H151	H	0.287779	1.466407	-0.288585
O152	O	0.612242	0.776932	-0.177140
H153	H	0.595938	0.802865	-0.116096
H154	H	0.228318	1.605035	-0.484155
O155	O	1.250714	0.307669	0.000142
H156	H	1.250660	0.219370	0.037280
H157	H	0.384984	1.605064	-0.699523
H158	H	0.736093	1.192042	-0.668149
O159	O	0.533692	1.416379	-0.526574
H160	H	0.527335	1.466359	-0.617822
O161	O	0.533722	1.416404	0.123350
H162	H	0.527380	1.466408	0.164588
H163	H	0.618976	0.656073	0.320486
O164	O	0.608263	1.018816	-0.413185
H165	H	0.544723	1.070066	-0.466830
O166	O	0.869537	0.248475	0.169231
H167	H	0.826766	0.219292	0.193547
O168	O	0.864949	0.426246	0.173658
H169	H	0.819838	0.490557	0.195770
H170	H	0.618584	0.497044	0.479755
O171	O	0.718395	0.341034	0.480710
H172	H	0.772206	0.253927	0.558714
O173	O	1.087628	0.408425	-0.123218
H174	H	1.021223	0.458404	-0.164466
H175	H	0.710655	0.529241	0.320989
H176	H	0.869244	0.500251	0.006054
H177	H	0.856409	0.281099	0.588295
O178	O	1.120634	0.609790	0.123525
H179	H	1.187040	0.559779	0.164803
H180	H	0.868201	0.341898	0.667148
H181	H	0.866298	0.346624	-0.001677
O182	O	0.593216	1.222825	-0.692500
H183	H	0.542570	1.235327	-0.741331
O184	O	0.881303	0.508681	0.517762
H185	H	0.844560	0.614307	0.482830
H186	H	0.635464	0.586433	0.594221
H187	H	0.632610	0.745823	0.430005
H188	H	0.738679	0.522058	0.668339
O189	O	0.333815	0.881769	0.226647
H190	H	0.297055	0.933436	0.263735
H191	H	0.855800	0.813715	-0.320301
O192	O	0.877744	0.795103	-0.478794
H193	H	0.885005	0.859452	-0.556309
H194	H	0.710707	0.529991	0.162794
O195	O	0.756400	0.795500	-0.480535
H196	H	0.702595	0.860336	-0.558545
H197	H	0.606724	1.189847	-0.508770
O198	O	0.719089	0.341362	0.192913
H199	H	0.784050	0.300404	0.231646
O200	O	0.609044	1.016058	-0.587880
H201	H	0.590263	0.984463	-0.511480
