data_functionalizedCrystal
_audit_creation_method	'MofGen! by Chris Wilmer'
_symmetry_space_group_name_H-M	'P1'
_symmetry_Int_Tables_number	1
_symmetry_cell_setting	triclinic
loop_
_symmetry_equiv_pos_as_xyz
  x,y,z
_cell_length_a	12.645331
_cell_length_b	21.295417
_cell_length_c	12.645324
_cell_angle_alpha	89.959220
_cell_angle_beta	89.978020
_cell_angle_gamma	90.029485
loop_
_atom_site_label
_atom_site_type_symbol
_atom_site_fract_x
_atom_site_fract_y
_atom_site_fract_z
Zn1	Zn	1.620630	-0.250579	-0.599379
Zn2	Zn	1.620474	-0.355866	-0.422091
Zn3	Zn	1.443346	-0.250613	-0.422123
Zn4	Zn	1.443286	-0.355813	-0.599306
O5	O	1.531934	-0.303218	-0.510725
O6	O	1.768956	-0.264554	-0.575878
O7	O	1.596937	-0.341941	-0.273748
O8	O	1.466954	-0.162519	-0.445681
O9	O	1.768842	-0.341908	-0.445625
O10	O	1.597203	-0.162494	-0.575910
O11	O	1.466803	-0.264612	-0.273772
O12	O	1.294991	-0.264560	-0.445610
O13	O	1.466851	-0.341817	-0.747663
O14	O	1.294947	-0.341849	-0.575786
O15	O	1.597145	-0.264502	-0.747717
O16	O	1.596879	-0.443949	-0.445555
O17	O	1.466700	-0.443909	-0.575754
C18	C	1.256504	-0.303203	-0.510694
C19	C	1.138674	-0.303212	-0.510706
C20	C	0.971103	-0.254365	-0.429265
C21	C	1.093662	-0.254491	-0.428906
C22	C	1.094129	-0.369526	-0.480174
C23	C	0.971531	-0.369260	-0.479618
C24	C	0.971530	-0.286375	-0.622995
C25	C	1.094136	-0.284893	-0.622372
C26	C	1.531795	-0.466769	-0.510666
C27	C	1.531833	-0.536737	-0.510677
C28	C	1.599677	-0.569604	-0.442951
C29	C	1.599727	-0.635346	-0.442975
C30	C	1.531913	-0.668220	-0.510713
C31	C	1.464064	-0.635346	-0.578452
C32	C	1.464024	-0.569605	-0.578433
N33	N	1.439177	-0.771484	-0.518784
N34	N	1.439218	-0.833935	-0.518796
C35	C	1.532032	-0.866295	-0.510774
N36	N	1.624805	-0.833843	-0.502720
N37	N	1.624762	-0.771386	-0.502703
C38	C	1.531950	-0.739505	-0.510741
C39	C	1.599936	-0.970446	-0.443071
C40	C	1.599987	-1.036190	-0.443102
C41	C	1.464315	-1.036188	-0.578573
C42	C	1.464273	-0.970446	-0.578547
C43	C	1.532082	-0.937579	-0.510791
C44	C	1.808439	-0.303233	-0.510756
C45	C	1.926269	-0.303240	-0.510770
C46	C	1.532009	-0.303150	-0.787230
C47	C	1.532041	-0.303121	-0.905061
C48	C	1.532102	-0.139027	-0.510807
C49	C	1.532174	-0.069059	-0.510842
C50	C	1.614026	-0.254472	-0.949976
C51	C	1.614378	-0.254599	-1.072536
C52	C	1.561971	-0.369490	-1.072924
C53	C	1.562536	-0.369225	-0.950326
C54	C	1.419982	-0.285945	-0.950236
C55	C	1.420614	-0.284465	-1.072843
C56	C	1.531921	-0.303240	-0.235295
C57	C	1.532094	-0.303092	-0.117466
H58	H	0.942881	-0.383561	-0.397575
N59	N	1.134700	-0.388800	-0.372658
H60	H	1.176326	-0.429076	-0.379205
H61	H	1.181884	-0.354640	-0.343629
H62	H	1.123781	-0.205316	-0.448045
H63	H	1.123284	-0.406915	-0.537674
H64	H	1.398075	-0.235601	-1.101960
H65	H	1.654977	-0.662111	-0.387825
H66	H	1.642974	-0.384269	-1.103660
H67	H	1.392680	-0.238363	-0.919331
N68	N	1.390924	-0.670798	-0.651516
H69	H	1.401241	-0.717432	-0.641249
H70	H	1.315215	-0.659353	-0.634945
H71	H	1.356310	-0.317289	-1.103423
N72	N	1.672828	-0.534156	-0.369890
H73	H	1.629766	-0.506926	-0.320712
H74	H	1.715802	-0.564998	-0.327066
N75	N	0.932089	-0.189030	-0.454324
H76	H	0.884972	-0.190476	-0.518752
H77	H	0.890746	-0.172235	-0.392131
N78	N	0.929856	-0.268788	-0.319831
H79	H	0.882299	-0.306864	-0.322813
H80	H	0.991182	-0.277450	-0.270811
H81	H	1.505372	-0.406707	-0.920608
N82	N	0.932232	-0.419126	-0.554820
H83	H	0.994552	-0.441186	-0.588180
H84	H	0.887910	-0.450607	-0.514688
N85	N	1.723400	-0.269367	-0.909206
H86	H	1.751349	-0.232389	-0.867762
H87	H	1.719995	-0.307507	-0.861808
N88	N	1.673160	-1.071644	-0.370049
H89	H	1.722287	-1.098870	-0.413180
H90	H	1.716035	-1.040806	-0.327137
N91	N	1.390844	-0.534151	-0.651481
H92	H	1.347892	-0.564950	-0.694400
H93	H	1.341791	-0.506925	-0.608272
H94	H	1.644438	-0.383752	-0.921738
H95	H	1.655153	-0.943685	-0.387902
H96	H	1.123258	-0.236093	-0.645395
N97	N	1.391179	-1.071635	-0.651644
H98	H	1.401501	-1.118270	-0.641383
H99	H	1.315469	-1.060194	-0.635073
N100	N	1.339070	-0.332873	-0.911758
H101	H	1.374768	-0.365105	-0.865292
H102	H	1.282660	-0.310350	-0.869860
N103	N	1.724383	-0.269672	-1.111411
H104	H	1.772833	-0.276264	-1.048906
H105	H	1.722241	-0.309145	-1.155586
N106	N	0.933132	-0.333515	-0.703459
H107	H	0.957880	-0.376899	-0.682745
H108	H	0.853320	-0.332741	-0.706108
N109	N	1.132440	-0.269256	-0.318746
H110	H	1.105405	-0.311902	-0.296485
H111	H	1.212305	-0.269363	-0.318124
H112	H	1.504101	-0.406720	-1.102021
N113	N	0.930628	-0.223441	-0.659783
H114	H	0.882337	-0.205224	-0.604066
H115	H	0.992143	-0.194047	-0.671991
H116	H	1.595712	-0.205373	-1.102656
N117	N	1.134717	-0.328605	-0.707123
H118	H	1.182759	-0.361049	-0.674187
H119	H	1.073039	-0.350295	-0.742328
H120	H	1.409023	-0.943684	-0.633691
H121	H	1.595581	-0.205097	-0.920533
