data_functionalizedCrystal
_audit_creation_method	'MofGen! by Chris Wilmer'
_symmetry_space_group_name_H-M	'P1'
_symmetry_Int_Tables_number	1
_symmetry_cell_setting	triclinic
loop_
_symmetry_equiv_pos_as_xyz
  x,y,z
_cell_length_a	12.759401
_cell_length_b	12.827892
_cell_length_c	12.759393
_cell_angle_alpha	89.968903
_cell_angle_beta	89.980163
_cell_angle_gamma	90.016917
loop_
_atom_site_label
_atom_site_type_symbol
_atom_site_fract_x
_atom_site_fract_y
_atom_site_fract_z
Zn1	Zn	1.606250	-0.415928	-0.594024
Zn2	Zn	1.939583	-0.082595	-0.260691
Zn3	Zn	2.272917	0.250738	0.072643
Zn4	Zn	1.606142	-0.590709	-0.418346
Zn5	Zn	1.939476	-0.257376	-0.085012
Zn6	Zn	2.272809	0.075958	0.248321
Zn7	Zn	1.430552	-0.415987	-0.418359
Zn8	Zn	1.763885	-0.082654	-0.085026
Zn9	Zn	2.097219	0.250679	0.248308
Zn10	Zn	1.430538	-0.590633	-0.593983
Zn11	Zn	1.763872	-0.257299	-0.260650
Zn12	Zn	2.097205	0.076034	0.072684
O13	O	1.518371	-0.503314	-0.506178
O14	O	1.851704	-0.169981	-0.172845
O15	O	2.185037	0.163352	0.160489
O16	O	1.753257	-0.439121	-0.570731
O17	O	2.086590	-0.105787	-0.237398
O18	O	2.419923	0.227546	0.095935
O19	O	1.582810	-0.567589	-0.271326
O20	O	1.916144	-0.234255	0.062007
O21	O	2.249477	0.099078	0.395340
O22	O	1.453909	-0.269744	-0.441684
O23	O	1.787243	0.063590	-0.108351
O24	O	2.120576	0.396923	0.224982
O25	O	1.753178	-0.567531	-0.441661
O26	O	2.086511	-0.234198	-0.108328
O27	O	2.419844	0.099135	0.225005
O28	O	1.582994	-0.269700	-0.570744
O29	O	1.916327	0.063633	-0.237411
O30	O	2.249661	0.396967	0.095922
O31	O	1.453805	-0.439221	-0.271336
O32	O	1.787138	-0.105888	0.061997
O33	O	2.120472	0.227445	0.395330
O34	O	1.283529	-0.439147	-0.441644
O35	O	1.616863	-0.105814	-0.108311
O36	O	1.950196	0.227519	0.225022
O37	O	1.453886	-0.567401	-0.741009
O38	O	1.787220	-0.234068	-0.407676
O39	O	2.120553	0.099266	-0.074343
O40	O	1.283519	-0.567458	-0.570674
O41	O	1.616853	-0.234125	-0.237341
O42	O	1.950186	0.099208	0.095992
O43	O	1.582981	-0.439047	-0.741040
O44	O	1.916314	-0.105713	-0.407706
O45	O	2.249647	0.227620	-0.074373
O46	O	1.582797	-0.736935	-0.441622
O47	O	1.916131	-0.403602	-0.108288
O48	O	2.249464	-0.070268	0.225045
O49	O	1.453782	-0.736879	-0.570661
O50	O	1.787115	-0.403546	-0.237328
O51	O	2.120449	-0.070212	0.096005
C52	C	1.245403	-0.503302	-0.506157
C53	C	1.578737	-0.169968	-0.172824
C54	C	1.912070	0.163365	0.160510
C55	C	1.128627	-0.503321	-0.506173
C56	C	1.461960	-0.169988	-0.172840
C57	C	1.795293	0.163345	0.160494
C58	C	1.073787	-0.570235	-0.573253
C59	C	1.407120	-0.236901	-0.239920
C60	C	1.740454	0.096432	0.093413
C61	C	0.964063	-0.570239	-0.573274
C62	C	1.297396	-0.236905	-0.239941
C63	C	1.630730	0.096428	0.093393
C64	C	0.964028	-0.436413	-0.439125
C65	C	1.297361	-0.103080	-0.105792
C66	C	1.630695	0.230254	0.227541
C67	C	1.073750	-0.436405	-0.439111
C68	C	1.407083	-0.103071	-0.105777
C69	C	1.740417	0.230262	0.227556
C70	C	1.518305	-0.774824	-0.506158
C71	C	1.851638	-0.441491	-0.172825
C72	C	2.184972	-0.108158	0.160508
C73	C	1.518373	-0.890977	-0.506185
C74	C	1.851706	-0.557644	-0.172852
C75	C	2.185040	-0.224311	0.160481
C76	C	1.582220	-0.942657	-0.570106
C77	C	1.915553	-0.609324	-0.236772
C78	C	2.248886	-0.275991	0.096561
C79	C	1.582291	-1.062708	-0.570135
C80	C	1.915625	-0.729374	-0.236802
C81	C	2.248958	-0.396041	0.096532
C82	C	1.792404	-0.503328	-0.506199
C83	C	2.125737	-0.169995	-0.172866
C84	C	2.459071	0.163339	0.160467
C85	C	1.909181	-0.503334	-0.506209
C86	C	2.242514	-0.170000	-0.172875
C87	C	2.575847	0.163333	0.160458
C88	C	1.518444	-0.503209	-0.780211
C89	C	1.851777	-0.169875	-0.446878
C90	C	2.185111	0.163458	-0.113545
C91	C	1.518475	-0.503164	-0.896988
C92	C	1.851809	-0.169830	-0.563655
C93	C	2.185142	0.163503	-0.230321
C94	C	1.518465	-0.230744	-0.506220
C95	C	1.851799	0.102589	-0.172887
C96	C	2.185132	0.435922	0.160446
C97	C	1.518506	-0.114591	-0.506239
C98	C	1.851839	0.218742	-0.172905
C99	C	2.185172	0.552076	0.160428
C100	C	1.451326	-0.436311	-0.951855
C101	C	1.784660	-0.102977	-0.618521
C102	C	2.117993	0.230356	-0.285188
C103	C	1.451351	-0.436278	-1.061579
C104	C	1.784684	-0.102945	-0.728246
C105	C	2.118017	0.230388	-0.394912
C106	C	1.585682	-0.569955	-1.061560
C107	C	1.919016	-0.236622	-0.728227
C108	C	2.252349	0.096711	-0.394893
C109	C	1.585652	-0.569992	-0.951838
C110	C	1.918985	-0.236659	-0.618505
C111	C	2.252318	0.096675	-0.285171
C112	C	1.518358	-0.503344	-0.233211
C113	C	1.851691	-0.170011	0.100123
C114	C	2.185025	0.163322	0.433456
C115	C	1.518530	-0.503095	-0.116434
C116	C	1.851864	-0.169762	0.216899
C117	C	2.185197	0.163572	0.550232
H118	H	0.919417	-0.624725	-0.627899
H119	H	1.252751	-0.291391	-0.294566
H120	H	1.586084	0.041942	0.038768
H121	H	0.919334	-0.381934	-0.384524
H122	H	1.252667	-0.048600	-0.051191
H123	H	1.586001	0.284733	0.282142
F124	F	1.653590	-0.884326	-0.641619
F125	F	1.986923	-0.550993	-0.308286
F126	F	2.320256	-0.217659	0.025048
F127	F	1.132118	-0.365177	-0.367716
F128	F	1.465451	-0.031844	-0.034383
F129	F	1.798784	0.301490	0.298950
F130	F	1.657121	-0.641154	-0.893441
F131	F	1.990454	-0.307820	-0.560108
F132	F	2.323788	0.025513	-0.226775
F133	F	1.447059	-1.056510	-0.434698
F134	F	1.780392	-0.723177	-0.101365
F135	F	2.113725	-0.389844	0.231968
H136	H	1.636957	-1.107152	-0.624856
H137	H	1.970290	-0.773818	-0.291522
H138	H	2.303623	-0.440485	0.041811
F139	F	1.446988	-0.949309	-0.434687
F140	F	1.780321	-0.615975	-0.101354
F141	F	2.113655	-0.282642	0.231980
F142	F	1.379829	-0.365189	-0.893483
F143	F	1.713162	-0.031856	-0.560150
F144	F	2.046495	0.301478	-0.226816
H145	H	1.640376	-0.624364	-1.106232
H146	H	1.973709	-0.291030	-0.772899
H147	H	2.307042	0.042303	-0.439565
F148	F	1.132187	-0.641450	-0.644630
F149	F	1.465521	-0.308117	-0.311296
F150	F	1.798854	0.025216	0.022037
F151	F	1.379870	-0.365135	-1.119967
F152	F	1.713203	-0.031802	-0.786634
F153	F	2.046537	0.301531	-0.453301
