data_functionalizedCrystal
_audit_creation_method	'MofGen! by Chris Wilmer'
_symmetry_space_group_name_H-M	'P1'
_symmetry_Int_Tables_number	1
_symmetry_cell_setting	triclinic
loop_
_symmetry_equiv_pos_as_xyz
  x,y,z
_cell_length_a	14.908782
_cell_length_b	12.645330
_cell_length_c	14.908308
_cell_angle_alpha	93.270481
_cell_angle_beta	96.759680
_cell_angle_gamma	86.724421
loop_
_atom_site_label
_atom_site_type_symbol
_atom_site_fract_x
_atom_site_fract_y
_atom_site_fract_z
Zn1	Zn	1.354240	-0.543065	-0.431822
Zn2	Zn	1.854240	-0.043065	0.068178
Zn3	Zn	1.362884	-0.710679	-0.280476
Zn4	Zn	1.862884	-0.210679	0.219524
Zn5	Zn	1.211615	-0.523774	-0.289226
Zn6	Zn	1.711615	-0.023774	0.210774
Zn7	Zn	1.202857	-0.710621	-0.440537
Zn8	Zn	1.702857	-0.210621	0.059463
O9	O	1.282899	-0.622035	-0.360515
O10	O	1.782899	-0.122035	0.139485
O11	O	1.482047	-0.573398	-0.404436
O12	O	1.982047	-0.073398	0.095564
O13	O	1.350100	-0.677837	-0.154974
O14	O	1.850100	-0.177837	0.345026
O15	O	1.230582	-0.377990	-0.308156
O16	O	1.730582	0.122010	0.191844
O17	O	1.488398	-0.696543	-0.293243
O18	O	1.988398	-0.196543	0.206757
O19	O	1.335368	-0.392163	-0.412921
O20	O	1.835368	0.107837	0.087079
O21	O	1.238963	-0.540518	-0.161402
O22	O	1.738963	-0.040518	0.338598
O23	O	1.083792	-0.540461	-0.316606
O24	O	1.583792	-0.040461	0.183394
O25	O	1.215656	-0.696443	-0.566043
O26	O	1.715656	-0.196443	-0.066043
O27	O	1.077358	-0.677737	-0.427774
O28	O	1.577358	-0.177737	0.072226
O29	O	1.326876	-0.573341	-0.559641
O30	O	1.826876	-0.073341	-0.059641
O31	O	1.341608	-0.859014	-0.301694
O32	O	1.841608	-0.359014	0.198306
O33	O	1.224037	-0.858971	-0.419290
O34	O	1.724037	-0.358971	0.080710
C35	C	1.047733	-0.607000	-0.374086
C36	C	1.547733	-0.107000	0.125914
C37	C	0.947127	-0.600595	-0.379913
C38	C	1.447127	-0.100595	0.120087
C39	C	0.764698	-0.716593	-0.274901
C40	C	1.264698	-0.216593	0.225099
C41	C	0.670170	-0.710578	-0.280373
C42	C	1.170170	-0.210578	0.219627
C43	C	0.663540	-0.582557	-0.396334
C44	C	1.163540	-0.082557	0.103666
C45	C	0.758068	-0.588572	-0.390861
C46	C	1.258068	-0.088572	0.109139
C47	C	0.808644	-0.655591	-0.330142
C48	C	1.308644	-0.155591	0.169858
C49	C	0.903175	-0.661599	-0.324666
C50	C	1.403175	-0.161599	0.175334
C51	C	0.896542	-0.533584	-0.440630
C52	C	1.396542	-0.033584	0.059370
C53	C	0.802014	-0.527569	-0.446103
C54	C	1.302014	-0.027569	0.053897
C55	C	1.282833	-0.897459	-0.360506
C56	C	1.782833	-0.397459	0.139494
C57	C	1.282887	-1.015294	-0.360528
C58	C	1.782887	-0.515294	0.139472
C59	C	1.209199	-1.182908	-0.434706
C60	C	1.709199	-0.682908	0.065294
C61	C	1.208855	-1.060311	-0.434501
C62	C	1.708855	-0.560311	0.065499
C63	C	1.262574	-1.052147	-0.266628
C64	C	1.762574	-0.552147	0.233372
C65	C	1.262124	-1.174745	-0.267079
C66	C	1.762124	-0.674745	0.232921
C67	C	1.377358	-1.190068	-0.379451
C68	C	1.877358	-0.690068	0.120549
C69	C	1.376650	-1.067557	-0.381571
C70	C	1.876650	-0.567557	0.118429
C71	C	1.518983	-0.637129	-0.346892
C72	C	2.018983	-0.137129	0.153108
C73	C	1.619588	-0.643561	-0.341086
C74	C	2.119588	-0.143561	0.158914
C75	C	1.269325	-0.637037	-0.596603
C76	C	1.769325	-0.137037	-0.096603
C77	C	1.263540	-0.643431	-0.697209
C78	C	1.763540	-0.143431	-0.197209
C79	C	1.282988	-0.345537	-0.360542
C80	C	1.782988	0.154463	0.139458
C81	C	1.283026	-0.227711	-0.360554
C82	C	1.783026	0.272289	0.139446
C83	C	1.368482	-0.527233	-0.879594
C84	C	1.868482	-0.027233	-0.379594
C85	C	1.363050	-0.533237	-0.974122
C86	C	1.863050	-0.033237	-0.474122
C87	C	1.247240	-0.661435	-0.980797
C88	C	1.747240	-0.161435	-0.480797
C89	C	1.252672	-0.655431	-0.886268
C90	C	1.752672	-0.155431	-0.386268
C91	C	1.313296	-0.588329	-0.835670
C92	C	1.813296	-0.088329	-0.335670
C93	C	1.318732	-0.582332	-0.741139
C94	C	1.818732	-0.082332	-0.241139
C95	C	1.202918	-0.710524	-0.747815
C96	C	1.702918	-0.210524	-0.247815
C97	C	1.197486	-0.716528	-0.842344
C98	C	1.697486	-0.216528	-0.342344
C99	C	1.296472	-0.607017	-0.125343
C100	C	1.796472	-0.107017	0.374657
C101	C	1.302432	-0.600337	-0.024727
C102	C	1.802432	-0.100337	0.475273
H103	H	0.932333	-0.483906	-0.485608
H104	H	1.432333	0.016094	0.014392
C105	C	1.225129	-1.027065	-0.528800
C106	C	1.725129	-0.527065	-0.028800
H107	H	1.232008	-1.088536	-0.567579
H108	H	1.732008	-0.588536	-0.067579
H109	H	1.278421	-0.988394	-0.523882
H110	H	1.778421	-0.488394	-0.023882
H111	H	1.174971	-0.983768	-0.553128
H112	H	1.674971	-0.483768	-0.053128
C113	C	1.454275	-1.026806	-0.313320
C114	C	1.954275	-0.526806	0.186680
H115	H	1.430409	-0.977169	-0.270906
H116	H	1.930409	-0.477169	0.229094
H117	H	1.495971	-0.993383	-0.344544
H118	H	1.995971	-0.493383	0.155456
H119	H	1.484323	-1.084738	-0.282380
H120	H	1.984323	-0.584738	0.217620
C121	C	0.621832	-0.777676	-0.219604
C122	C	1.121832	-0.277676	0.280396
H123	H	0.665496	-0.818443	-0.182656
H124	H	1.165496	-0.318443	0.317344
H125	H	0.582969	-0.823776	-0.256297
H126	H	1.082969	-0.323776	0.243703
H127	H	0.587222	-0.732198	-0.182353
H128	H	1.087222	-0.232198	0.317647
H129	H	0.622344	-0.528003	-0.445776
H130	H	1.122344	-0.028003	0.054224
C131	C	1.451576	-1.229303	-0.306408
C132	C	1.951576	-0.729303	0.193592
H133	H	1.508417	-1.206303	-0.318183
H134	H	2.008417	-0.706303	0.181817
H135	H	1.453673	-1.304573	-0.307306
H136	H	1.953673	-0.804573	0.192694
H137	H	1.438425	-1.201219	-0.248665
H138	H	1.938425	-0.701219	0.251335
H139	H	0.760822	-0.473008	-0.495541
H140	H	1.260822	0.026992	0.004459
C141	C	1.170650	-1.003022	-0.243574
C142	C	1.670650	-0.503022	0.256426
H143	H	1.144533	-0.960050	-0.291045
H144	H	1.644533	-0.460050	0.208955
H145	H	1.179199	-0.960762	-0.188790
H146	H	1.679199	-0.460762	0.311210
H147	H	1.131496	-1.057960	-0.236686
H148	H	1.631496	-0.557960	0.263314
C149	C	1.225198	-1.230267	-0.529310
C150	C	1.725198	-0.730267	-0.029310
H151	H	1.277051	-1.277779	-0.524438
H152	H	1.777051	-0.777779	-0.024438
H153	H	1.234492	-1.174835	-0.567095
H154	H	1.734492	-0.674835	-0.067095
H155	H	1.173900	-1.267464	-0.554752
H156	H	1.673900	-0.767464	-0.054752
H157	H	1.139585	-1.208285	-0.422805
H158	H	1.639585	-0.708285	0.077195
H159	H	1.148126	-0.771158	-0.883554
H160	H	1.648126	-0.271158	-0.383554
C161	C	1.114237	-1.013291	-0.418166
C162	C	1.614237	-0.513291	0.081834
H163	H	1.075862	-1.069128	-0.411621
H164	H	1.575862	-0.569128	0.088379
H165	H	1.089675	-0.973287	-0.468126
H166	H	1.589675	-0.473287	0.031874
H167	H	1.118801	-0.968460	-0.364653
H168	H	1.618801	-0.468460	0.135347
C169	C	1.180557	-0.735236	-1.036460
C170	C	1.680557	-0.235236	-0.536460
H171	H	1.148461	-0.770761	-0.996764
H172	H	1.648461	-0.270761	-0.496764
H173	H	1.213047	-0.785974	-1.071339
H174	H	1.713047	-0.285974	-0.571339
H175	H	1.139009	-0.694495	-1.075610
H176	H	1.639009	-0.194495	-0.575610
C177	C	0.958807	-0.735325	-0.257885
C178	C	1.458807	-0.235325	0.242115
H179	H	0.919091	-0.770803	-0.225778
H180	H	1.419091	-0.270803	0.274222
H181	H	0.997948	-0.694558	-0.216365
H182	H	1.497948	-0.194558	0.283635
H183	H	0.993691	-0.786119	-0.290323
H184	H	1.493691	-0.286119	0.209677
C185	C	1.142202	-0.777726	-0.699502
C186	C	1.642202	-0.277726	-0.199502
H187	H	1.105323	-0.818550	-0.743178
H188	H	1.605323	-0.318550	-0.243178
H189	H	1.104898	-0.732311	-0.664906
H190	H	1.604898	-0.232311	-0.164906
H191	H	1.178934	-0.823792	-0.660625
H192	H	1.678934	-0.323792	-0.160625
C193	C	1.169191	-1.205690	-0.244594
C194	C	1.669191	-0.705690	0.255406
H195	H	1.132065	-1.143364	-0.235276
H196	H	1.632065	-0.643364	0.264724
H197	H	1.176893	-1.244471	-0.191264
H198	H	1.676893	-0.744471	0.308736
H199	H	1.141269	-1.248309	-0.293387
H200	H	1.641269	-0.748309	0.206613
C201	C	1.331999	-1.214345	-0.190289
C202	C	1.831999	-0.714345	0.309711
H203	H	1.360530	-1.155502	-0.158953
H204	H	1.860530	-0.655502	0.341047
H205	H	1.376201	-1.260689	-0.215045
H206	H	1.876201	-0.760689	0.284955
H207	H	1.302361	-1.251256	-0.149480
H208	H	1.802361	-0.751256	0.350520
H209	H	1.368097	-0.527696	-0.699943
H210	H	1.868097	-0.027696	-0.199943
H211	H	0.805879	-0.771156	-0.225455
H212	H	1.305879	-0.271156	0.274545
C213	C	1.333233	-1.012365	-0.190275
C214	C	1.833233	-0.512365	0.309725
H215	H	1.375848	-0.972829	-0.215044
H216	H	1.875848	-0.472829	0.284956
H217	H	1.363612	-1.071290	-0.161037
H218	H	1.863612	-0.571290	0.338963
H219	H	1.303826	-0.968411	-0.147645
H220	H	1.803826	-0.468411	0.352355
C221	C	1.403844	-1.239658	-0.469985
C222	C	1.903844	-0.739658	0.030015
H223	H	1.357613	-1.283786	-0.497108
H224	H	1.857613	-0.783786	0.002892
H225	H	1.459033	-1.280813	-0.459492
H226	H	1.959033	-0.780813	0.040508
H227	H	1.411202	-1.184959	-0.509218
H228	H	1.911202	-0.684959	-0.009218
C229	C	1.435162	-0.453425	-0.823934
C230	C	1.935162	0.046575	-0.323934
H231	H	1.467249	-0.417893	-0.863633
H232	H	1.967249	0.082107	-0.363633
H233	H	1.476705	-0.494150	-0.784774
H234	H	1.976705	0.005850	-0.284774
H235	H	1.402661	-0.402678	-0.789066
H236	H	1.902661	0.097322	-0.289066
C237	C	1.397492	-1.035902	-0.474880
C238	C	1.897492	-0.535902	0.025120
H239	H	1.349261	-0.991019	-0.500909
H240	H	1.849261	-0.491019	-0.000909
H241	H	1.404092	-1.097824	-0.513187
H242	H	1.904092	-0.597824	-0.013187
H243	H	1.451977	-0.999307	-0.468102
H244	H	1.951977	-0.499307	0.031898
C245	C	1.423759	-0.466037	-1.022436
C246	C	1.923759	0.033963	-0.522436
H247	H	1.460644	-0.425222	-0.978760
H248	H	1.960644	0.074778	-0.478760
H249	H	1.387032	-0.419979	-1.061316
H250	H	1.887032	0.080021	-0.561316
H251	H	1.461070	-0.511458	-1.057028
H252	H	1.961070	-0.011458	-0.557028
