data_functionalizedCrystal
_audit_creation_method	'MofGen! by Chris Wilmer'
_symmetry_space_group_name_H-M	'P1'
_symmetry_Int_Tables_number	1
_symmetry_cell_setting	triclinic
loop_
_symmetry_equiv_pos_as_xyz
  x,y,z
_cell_length_a	12.759401
_cell_length_b	19.121063
_cell_length_c	12.759386
_cell_angle_alpha	92.371980
_cell_angle_beta	89.957375
_cell_angle_gamma	92.469135
loop_
_atom_site_label
_atom_site_type_symbol
_atom_site_fract_x
_atom_site_fract_y
_atom_site_fract_z
Zn1	Zn	1.588582	-0.279339	-0.611788
Zn2	Zn	1.580869	-0.396870	-0.443587
Zn3	Zn	1.412807	-0.279441	-0.436131
Zn4	Zn	1.405344	-0.396751	-0.619218
O5	O	1.496900	-0.338100	-0.527681
O6	O	1.734579	-0.294937	-0.589488
O7	O	1.558471	-0.381386	-0.295583
O8	O	1.442475	-0.181146	-0.453202
O9	O	1.728913	-0.381287	-0.465911
O10	O	1.571616	-0.181071	-0.582257
O11	O	1.434996	-0.295111	-0.290104
O12	O	1.264796	-0.294995	-0.460406
O13	O	1.429755	-0.381083	-0.765248
O14	O	1.259313	-0.381182	-0.594920
O15	O	1.564379	-0.294821	-0.759789
O16	O	1.551234	-0.495136	-0.473115
O17	O	1.422276	-0.495049	-0.602150
C18	C	1.223934	-0.338088	-0.527661
C19	C	1.107156	-0.338099	-0.527678
C20	C	1.049352	-0.382989	-0.463235
C21	C	0.939627	-0.383002	-0.463254
C22	C	0.945521	-0.293227	-0.592161
C23	C	1.055244	-0.293219	-0.592147
C24	C	1.101265	-0.427870	-0.398766
C25	C	1.043460	-0.472763	-0.334317
C26	C	0.933735	-0.472775	-0.334336
C27	C	0.881815	-0.427894	-0.398804
C28	C	1.485137	-0.520576	-0.539271
C29	C	1.480201	-0.598640	-0.544264
C30	C	1.545075	-0.635336	-0.479484
C31	C	1.540439	-0.708686	-0.484186
C32	C	1.470922	-0.745337	-0.553664
C33	C	1.406045	-0.708635	-0.618451
C34	C	1.410687	-0.635287	-0.613753
C35	C	1.453548	-0.966799	-0.571211
C36	C	1.448908	-1.040152	-0.575901
C37	C	1.583304	-1.040198	-0.441637
C38	C	1.587936	-0.966848	-0.436941
C39	C	1.523063	-0.930153	-0.501732
C40	C	1.466179	-0.820311	-0.558469
C41	C	1.527812	-0.855179	-0.496931
C42	C	1.770933	-0.338114	-0.527702
C43	C	1.887709	-0.338119	-0.527711
C44	C	1.497095	-0.337927	-0.801704
C45	C	1.497178	-0.337854	-0.918476
C46	C	1.508738	-0.154912	-0.516069
C47	C	1.513783	-0.076848	-0.511121
C48	C	1.496770	-0.338222	-0.254721
C49	C	1.496903	-0.338098	-0.137937
C50	C	1.427353	-0.383275	-0.085638
C51	C	1.427487	-0.383152	0.024093
C52	C	1.566731	-0.292671	0.029218
C53	C	1.566591	-0.292792	-0.080512
C54	C	1.357665	-0.428582	-0.143063
C55	C	1.288110	-0.473763	-0.090765
C56	C	1.288244	-0.473640	0.018967
C57	C	1.357934	-0.428334	0.076400
H58	H	0.792469	-0.427912	-0.398822
H59	H	1.357861	-0.605409	-0.666506
C60	C	0.888963	-0.244523	-0.662030
C61	C	0.780501	-0.254125	-0.648227
C62	C	0.728368	-0.209262	-0.712561
H63	H	0.906216	-0.254784	-0.733289
H64	H	0.909909	-0.197311	-0.643758
H65	H	0.759562	-0.301326	-0.666506
H66	H	0.763217	-0.243859	-0.576982
H67	H	0.749315	-0.162050	-0.694289
H68	H	0.745630	-0.219526	-0.783816
H69	H	0.654772	-0.215766	-0.703197
H70	H	1.102310	-0.256663	-0.644619
C71	C	1.663245	-0.927025	-0.361375
C72	C	1.606425	-0.885026	-0.291272
C73	C	1.675760	-0.848340	-0.221632
H74	H	1.710858	-0.898292	-0.399639
H75	H	1.701200	-0.959367	-0.323406
H76	H	1.568488	-0.852687	-0.329237
H77	H	1.558816	-0.913742	-0.252984
H78	H	1.713715	-0.880682	-0.183664
H79	H	1.723369	-0.819610	-0.259905
H80	H	1.637217	-0.819844	-0.174054
H81	H	0.886673	-0.509335	-0.281867
C82	C	1.642220	-0.243716	-0.137111
C83	C	1.703305	-0.204030	-0.063338
C84	C	1.772992	-0.158817	-0.115439
H85	H	1.603725	-0.213295	-0.178027
H86	H	1.686568	-0.270392	-0.181570
H87	H	1.658962	-0.177355	-0.018897
H88	H	1.741822	-0.234432	-0.022419
H89	H	1.817340	-0.185493	-0.159898
H90	H	1.734488	-0.128401	-0.156354
H91	H	1.814453	-0.131889	-0.065393
H92	H	1.190608	-0.427863	-0.398741
C93	C	1.653703	-1.080166	-0.371435
C94	C	1.634786	-1.152245	-0.390438
C95	C	1.699637	-1.189085	-0.325801
H96	H	1.639165	-1.068306	-0.300025
H97	H	1.725072	-1.068128	-0.386125
H98	H	1.563434	-1.164278	-0.375740
H99	H	1.649330	-1.164126	-0.461835
H100	H	1.771007	-1.177047	-0.340491
H101	H	1.685094	-1.177220	-0.254395
H102	H	1.686818	-1.237994	-0.338693
C103	C	1.603111	-0.815352	-0.421365
C104	C	1.546277	-0.773351	-0.351277
C105	C	1.615601	-0.736653	-0.281639
H106	H	1.650721	-0.786619	-0.459632
H107	H	1.641068	-0.847687	-0.383386
H108	H	1.508337	-0.741020	-0.389252
H109	H	1.498670	-0.802067	-0.312986
H110	H	1.653558	-0.768988	-0.243659
H111	H	1.663208	-0.707924	-0.319915
H112	H	1.577049	-0.708156	-0.234070
C113	C	1.620484	-0.595636	-0.403882
C114	C	1.596503	-0.613602	-0.301065
C115	C	1.665959	-0.577054	-0.231394
H116	H	1.614025	-0.546686	-0.410215
H117	H	1.690332	-0.607619	-0.420026
H118	H	1.526672	-0.601615	-0.284926
H119	H	1.602968	-0.662546	-0.294698
H120	H	1.735807	-0.589036	-0.247538
H121	H	1.659495	-0.528105	-0.237737
H122	H	1.649703	-0.589243	-0.161626
C123	C	1.373404	-1.079819	-0.651454
C124	C	1.317606	-1.031985	-0.707214
C125	C	1.248058	-1.068501	-0.776827
H126	H	1.325721	-1.108497	-0.613181
H127	H	1.411768	-1.108353	-0.699142
H128	H	1.279245	-1.003463	-0.659532
H129	H	1.365261	-1.003306	-0.745508
H130	H	1.286421	-1.097035	-0.824515
H131	H	1.200382	-1.097177	-0.738546
H132	H	1.210197	-1.036051	-0.814675
H133	H	1.085740	-0.509309	-0.281838
C134	C	1.212685	-0.522767	0.075557
C135	C	1.151648	-0.562480	0.001775
C136	C	1.082043	-0.607754	0.053863
H137	H	1.168291	-0.496156	0.120035
H138	H	1.251274	-0.553163	0.116450
H139	H	1.113062	-0.532088	-0.039101
H140	H	1.196013	-0.589105	-0.042707
H141	H	1.120632	-0.638150	0.094757
H142	H	1.037656	-0.581137	0.098340
H143	H	1.040628	-0.634709	0.003810
C144	C	1.390668	-0.859979	-0.634005
C145	C	1.334855	-0.812147	-0.689753
C146	C	1.265300	-0.848665	-0.759357
H147	H	1.342995	-0.888660	-0.595726
H148	H	1.429028	-0.888511	-0.681700
H149	H	1.296498	-0.783627	-0.642064
H150	H	1.382501	-0.783465	-0.728053
H151	H	1.303659	-0.877196	-0.807052
H152	H	1.217633	-0.877344	-0.721069
H153	H	1.227429	-0.816216	-0.797197
C154	C	1.357320	-0.428795	-0.262204
C155	C	1.281390	-0.478128	-0.301304
C156	C	1.281036	-0.478337	-0.411049
H157	H	1.424393	-0.440663	-0.287991
H158	H	1.341493	-0.383602	-0.284341
H159	H	1.297223	-0.523311	-0.279177
H160	H	1.214306	-0.466271	-0.275546
H161	H	1.265209	-0.433145	-0.433186
H162	H	1.348112	-0.490204	-0.436826
H163	H	1.229512	-0.511804	-0.437592
C164	C	1.358023	-0.428374	0.195528
C165	C	1.282242	-0.477667	0.229039
C166	C	1.282338	-0.477754	0.338767
H167	H	1.342299	-0.383169	0.223282
H168	H	1.425221	-0.440215	0.219476
H169	H	1.215060	-0.465822	0.205102
H170	H	1.297949	-0.522879	0.201314
H171	H	1.349536	-0.489595	0.362716
H172	H	1.266616	-0.432546	0.366511
H173	H	1.230929	-0.511203	0.361519
H174	H	1.593266	-0.738561	-0.431434
H175	H	1.400724	-0.936927	-0.623964
H176	H	1.231364	-0.510644	-0.137533
H177	H	1.349447	-0.738482	-0.675026
H178	H	1.623470	-0.255786	0.075988
