data_functionalizedCrystal
_audit_creation_method	'MofGen! by Chris Wilmer'
_symmetry_space_group_name_H-M	'P1'
_symmetry_Int_Tables_number	1
_symmetry_cell_setting	triclinic
loop_
_symmetry_equiv_pos_as_xyz
  x,y,z
_cell_length_a	15.944551
_cell_length_b	19.188930
_cell_length_c	14.421503
_cell_angle_alpha	89.999163
_cell_angle_beta	89.996859
_cell_angle_gamma	83.321760
loop_
_atom_site_label
_atom_site_type_symbol
_atom_site_fract_x
_atom_site_fract_y
_atom_site_fract_z
O1	O	1.114192	0.090038	-0.077026
O2	O	1.447526	0.423372	0.256308
O3	O	1.780859	0.756705	0.589641
O4	O	0.869601	0.101140	-0.077050
O5	O	1.202935	0.434474	0.256283
O6	O	1.536268	0.767807	0.589617
O7	O	0.998955	-0.006048	-0.077019
O8	O	1.332289	0.327285	0.256314
O9	O	1.665622	0.660619	0.589648
O10	O	0.984838	0.197227	-0.077057
O11	O	1.318172	0.530560	0.256277
O12	O	1.651505	0.863893	0.589610
O13	O	0.998934	-0.006032	0.077204
O14	O	1.332267	0.327301	0.410538
O15	O	1.665600	0.660634	0.743871
O16	O	0.869580	0.101156	0.077173
O17	O	1.202913	0.434489	0.410507
O18	O	1.536246	0.767823	0.743840
O19	O	1.114171	0.090054	0.077198
O20	O	1.447504	0.423388	0.410531
O21	O	1.780838	0.756721	0.743864
Cu22	Cu	0.991873	0.095607	0.091267
Cu23	Cu	1.325207	0.428940	0.424601
Cu24	Cu	1.658540	0.762273	0.757934
Cu25	Cu	0.991899	0.095588	-0.091120
Cu26	Cu	1.325232	0.428921	0.242214
Cu27	Cu	1.658565	0.762254	0.575547
O28	O	0.984817	0.197243	0.077167
O29	O	1.318150	0.530576	0.410500
O30	O	1.651484	0.863909	0.743833
C31	C	0.838298	0.100687	0.000059
C32	C	1.171632	0.434021	0.333392
C33	C	1.504965	0.767354	0.666725
C34	C	0.745057	0.099306	0.000050
C35	C	1.078391	0.432639	0.333384
C36	C	1.411724	0.765972	0.666717
C37	C	0.530462	0.029563	0.000081
C38	C	0.863795	0.362896	0.333415
C39	C	1.197128	0.696229	0.666748
C40	C	0.469331	0.061941	-0.075965
C41	C	0.802664	0.395274	0.257368
C42	C	1.135998	0.728608	0.590702
C43	C	0.574341	0.096806	0.000062
C44	C	0.907674	0.430139	0.333395
C45	C	1.241008	0.763473	0.666728
C46	C	0.469332	0.061973	0.076087
C47	C	0.802665	0.395306	0.409420
C48	C	1.135999	0.728639	0.742754
C49	C	0.409437	0.094386	0.000077
C50	C	0.742771	0.427720	0.333410
C51	C	1.076104	0.761053	0.666743
C52	C	0.514438	0.129203	-0.076047
C53	C	0.847772	0.462536	0.257286
C54	C	1.181105	0.795869	0.590619
C55	C	0.514446	0.129225	0.076073
C56	C	0.847779	0.462558	0.409406
C57	C	1.181112	0.795892	0.742740
C58	C	0.453332	0.161652	0.000008
C59	C	0.786666	0.494986	0.333342
C60	C	1.119999	0.828319	0.666675
C61	C	0.669338	0.098198	0.000052
C62	C	1.002671	0.431531	0.333386
C63	C	1.336005	0.764864	0.666719
C64	C	0.314441	0.093000	0.000080
C65	C	0.647775	0.426333	0.333413
C66	C	0.981108	0.759666	0.666746
C67	C	0.998487	-0.032052	0.000095
C68	C	1.331821	0.301281	0.333429
C69	C	1.665154	0.634614	0.666762
C70	C	0.997115	-0.109560	0.000103
C71	C	1.330448	0.223773	0.333436
C72	C	1.663782	0.557106	0.666770
C73	C	1.073016	-0.154288	0.000115
C74	C	1.406349	0.179045	0.333448
C75	C	1.739682	0.512379	0.666782
C76	C	1.071726	-0.227115	0.000100
C77	C	1.405060	0.106218	0.333433
C78	C	1.738393	0.439551	0.666767
C79	C	0.994532	-0.255211	0.000092
C80	C	1.327866	0.078122	0.333425
C81	C	1.661199	0.411455	0.666758
C82	C	0.918622	-0.210474	0.000075
C83	C	1.251955	0.122859	0.333408
C84	C	1.585288	0.456193	0.666741
C85	C	0.919913	-0.137648	0.000080
C86	C	1.253246	0.195685	0.333414
C87	C	1.586580	0.529018	0.666747
N88	N	0.935519	-0.363364	0.052571
N89	N	1.268852	-0.030030	0.385904
N90	N	1.602186	0.303303	0.719238
N91	N	0.934298	-0.432545	0.052568
N92	N	1.267631	-0.099212	0.385901
N93	N	1.600964	0.234121	0.719234
C94	C	0.990637	-0.474630	0.000073
C95	C	1.323970	-0.141297	0.333406
C96	C	1.657303	0.192037	0.666739
N97	N	1.048256	-0.444921	-0.052407
N98	N	1.381590	-0.111588	0.280926
N99	N	1.714923	0.221746	0.614259
N100	N	1.049480	-0.375733	-0.052400
N101	N	1.382814	-0.042400	0.280934
N102	N	1.716147	0.290933	0.614267
C103	C	0.993123	-0.334178	0.000085
C104	C	1.326457	-0.000844	0.333418
C105	C	1.659790	0.332489	0.666752
C106	C	1.065145	-0.598326	0.000067
C107	C	1.398478	-0.264993	0.333400
C108	C	1.731811	0.068341	0.666734
C109	C	1.063852	-0.671154	0.000046
C110	C	1.397185	-0.337821	0.333380
C111	C	1.730519	-0.004487	0.666713
C112	C	0.910745	-0.654511	0.000030
C113	C	1.244078	-0.321178	0.333363
C114	C	1.577412	0.012156	0.666697
C115	C	0.912040	-0.581685	0.000041
C116	C	1.245373	-0.248351	0.333375
C117	C	1.578706	0.084982	0.666708
C118	C	0.989242	-0.553597	0.000064
C119	C	1.322575	-0.220263	0.333398
C120	C	1.655908	0.113070	0.666731
C121	C	1.145474	0.090507	0.000087
C122	C	1.478807	0.423840	0.333420
C123	C	1.812141	0.757174	0.666754
C124	C	1.238715	0.091889	0.000089
C125	C	1.572048	0.425222	0.333423
C126	C	1.905381	0.758556	0.666756
C127	C	0.985285	0.223247	0.000050
C128	C	1.318618	0.556580	0.333384
C129	C	1.651952	0.889913	0.666717
C130	C	0.986657	0.300755	0.000036
C131	C	1.319991	0.634088	0.333370
C132	C	1.653324	0.967422	0.666703
N133	N	0.991862	0.095619	0.219549
N134	N	1.325195	0.428953	0.552882
N135	N	1.658528	0.762286	0.886215
N136	N	0.991917	0.095569	-0.219401
N137	N	1.325250	0.428903	0.113932
N138	N	1.658584	0.762236	0.447266
C139	C	0.932038	0.145161	0.469188
C140	C	1.265371	0.478494	0.802521
C141	C	1.598705	0.811828	1.135855
C142	C	1.007887	0.158716	0.530995
C143	C	1.341221	0.492049	0.864329
C144	C	1.674554	0.825383	1.197662
C145	C	0.991882	0.095603	0.408710
C146	C	1.325216	0.428936	0.742043
C147	C	1.658549	0.762269	1.075377
C148	C	0.916052	0.082064	0.530997
C149	C	1.249386	0.415397	0.864330
C150	C	1.582719	0.748731	1.197663
C151	C	0.991895	0.095588	0.591431
C152	C	1.325229	0.428922	0.924765
C153	C	1.658562	0.762255	1.258098
C154	C	1.067770	0.109189	0.469157
C155	C	1.401103	0.442523	0.802490
C156	C	1.734436	0.775856	1.135823
C157	C	0.975885	0.032510	0.469153
C158	C	1.309218	0.365843	0.802486
C159	C	1.642552	0.699177	1.135819
C160	C	1.051789	0.046038	0.530932
C161	C	1.385123	0.379371	0.864265
C162	C	1.718456	0.712705	1.197599
C163	C	0.991874	0.095613	0.303449
C164	C	1.325207	0.428946	0.636782
C165	C	1.658540	0.762280	0.970116
C166	C	0.991913	0.095578	0.696690
C167	C	1.325246	0.428911	1.030024
C168	C	1.658579	0.762244	1.363357
H169	H	0.449336	0.033493	-0.140247
H170	H	0.782669	0.366826	0.193087
H171	H	1.116003	0.700160	0.526420
H172	H	0.850233	-0.545266	0.000037
H173	H	1.183566	-0.211933	0.333370
H174	H	1.516900	0.121401	0.666704
H175	H	0.851919	0.070620	0.558163
H176	H	1.185252	0.403953	0.891496
H177	H	1.518586	0.737286	1.224830
O178	O	0.827481	-0.684802	0.000025
O179	O	1.160815	-0.351469	0.333359
O180	O	1.494148	-0.018135	0.666692
H181	H	0.839333	-0.742957	0.000029
H182	H	1.172667	-0.409624	0.333363
H183	H	1.506000	-0.076291	0.666696
H184	H	0.534329	0.157616	-0.140409
H185	H	0.867662	0.490949	0.192925
H186	H	1.200995	0.824283	0.526258
H187	H	0.419965	0.217516	-0.000045
H188	H	0.753298	0.550850	0.333289
H189	H	1.086632	0.884183	0.666622
H190	H	1.128007	-0.575456	0.000081
H191	H	1.461340	-0.242122	0.333415
H192	H	1.794674	0.091211	0.666748
H193	H	1.131917	0.120698	0.442107
H194	H	1.465250	0.454031	0.775440
H195	H	1.798584	0.787364	1.108774
H196	H	0.564003	-0.026244	-0.000003
H197	H	0.897337	0.307089	0.333331
H198	H	1.230670	0.640423	0.666664
O199	O	1.025843	0.229372	0.567004
O200	O	1.359177	0.562705	0.900337
O201	O	1.692510	0.896038	1.233671
H202	H	1.026290	0.228535	0.643960
H203	H	1.359624	0.561869	0.977293
H204	H	1.692957	0.895202	1.310627
O205	O	1.118898	-0.009486	0.566637
O206	O	1.452232	0.323848	0.899970
O207	O	1.785565	0.657181	1.233304
H208	H	1.181747	0.001918	0.541738
H209	H	1.515081	0.335251	0.875071
H210	H	1.848414	0.668584	1.208404
O211	O	0.957923	-0.038138	0.433140
O212	O	1.291256	0.295195	0.766473
O213	O	1.624590	0.628528	1.099806
H214	H	0.958699	-0.037628	0.356184
H215	H	1.292032	0.295705	0.689517
H216	H	1.625366	0.629039	1.022850
O217	O	0.540972	0.166869	0.161227
O218	O	0.874305	0.500203	0.494560
O219	O	1.207638	0.833536	0.827894
H220	H	0.508841	0.221379	0.161805
H221	H	0.842174	0.554712	0.495138
H222	H	1.175507	0.888046	0.828472
O223	O	1.145725	-0.719396	0.000063
O224	O	1.479059	-0.386062	0.333396
O225	O	1.812392	-0.052729	0.666729
H226	H	1.148821	-0.752965	-0.062804
H227	H	1.482155	-0.419631	0.270529
H228	H	1.815488	-0.086298	0.603863
O229	O	0.865066	0.200711	0.433267
O230	O	1.198399	0.534045	0.766600
O231	O	1.531732	0.867378	1.099933
H232	H	0.895117	0.238632	0.389860
H233	H	1.228450	0.571965	0.723193
H234	H	1.561784	0.905298	1.056527
O235	O	0.442858	0.024302	0.161255
O236	O	0.776192	0.357635	0.494588
O237	O	1.109525	0.690969	0.827922
H238	H	0.474067	-0.030506	0.161099
H239	H	0.807401	0.302828	0.494432
H240	H	1.140734	0.636161	0.827765
H241	H	1.135880	-0.131424	0.000131
H242	H	1.469213	0.201909	0.333464
H243	H	1.802546	0.535243	0.666797
H244	H	1.133536	-0.263540	0.000106
H245	H	1.466869	0.069794	0.333440
H246	H	1.800202	0.403127	0.666773
O247	O	0.835362	-0.240775	0.000078
O248	O	1.168695	0.092558	0.333411
O249	O	1.502028	0.425892	0.666744
H250	H	0.831121	-0.273562	-0.062776
H251	H	1.164454	0.059771	0.270557
H252	H	1.497788	0.393104	0.603890
O253	O	0.838046	-0.089399	0.000083
O254	O	1.171379	0.243935	0.333417
O255	O	1.504713	0.577268	0.666750
H256	H	0.784149	-0.121167	0.000082
H257	H	1.117482	0.212166	0.333415
H258	H	1.450815	0.545499	0.666748
