data_functionalizedCrystal
_audit_creation_method	'MofGen! by Chris Wilmer'
_symmetry_space_group_name_H-M	'P1'
_symmetry_Int_Tables_number	1
_symmetry_cell_setting	triclinic
loop_
_symmetry_equiv_pos_as_xyz
  x,y,z
_cell_length_a	16.109301
_cell_length_b	16.109304
_cell_length_c	17.766277
_cell_angle_alpha	89.996447
_cell_angle_beta	89.993359
_cell_angle_gamma	83.462059
loop_
_atom_site_label
_atom_site_type_symbol
_atom_site_fract_x
_atom_site_fract_y
_atom_site_fract_z
O1	O	1.103139	0.106868	-0.062542
O2	O	0.861077	0.120168	-0.062553
O3	O	0.988756	-0.007513	-0.062548
O4	O	0.975459	0.234549	-0.062547
O5	O	0.988734	-0.007519	0.062641
O6	O	0.861054	0.120161	0.062635
O7	O	1.103116	0.106862	0.062647
Cu8	Cu	0.982083	0.113511	0.074072
Cu9	Cu	0.982110	0.113519	-0.073978
O10	O	0.975437	0.234542	0.062641
C11	C	0.988206	-0.038491	0.000045
C12	C	0.986590	-0.130786	0.000040
C13	C	0.830091	0.119626	0.000040
C14	C	0.737795	0.118010	0.000035
C15	C	0.982869	-0.343120	-0.068198
C16	C	0.981342	-0.429840	-0.068197
C17	C	0.981322	-0.429844	0.068290
C18	C	0.982842	-0.343125	0.068289
C19	C	0.983620	-0.299766	0.000042
C20	C	0.980573	-0.473205	0.000044
C21	C	0.978919	-0.567231	0.000046
C22	C	0.985273	-0.205734	0.000041
C23	C	0.515524	0.190018	0.000044
C24	C	0.428803	0.188494	0.000049
C25	C	0.448676	0.037005	0.000045
C26	C	0.535395	0.038530	0.000046
C27	C	0.568816	0.115039	0.000041
C28	C	0.395377	0.111990	0.000046
C29	C	0.301351	0.110337	0.000051
C30	C	0.662848	0.116693	0.000037
C31	C	1.134102	0.107404	0.000052
C32	C	1.226398	0.109019	0.000052
C33	C	0.975987	0.265520	0.000047
C34	C	0.977603	0.357816	0.000047
N35	N	0.982071	0.113505	0.178202
N36	N	0.982129	0.113518	-0.178109
C37	C	1.038625	0.056996	0.217591
C38	C	1.038630	0.056992	0.296393
C39	C	0.982088	0.113512	0.335803
C40	C	0.925523	0.170025	0.296404
C41	C	0.925514	0.170022	0.217603
C42	C	0.971175	0.189234	0.460640
C43	C	0.971190	0.189238	0.539439
C44	C	0.982110	0.113522	0.578849
C45	C	0.993034	0.037797	0.539450
C46	C	0.993026	0.037794	0.460650
C47	C	0.982091	0.113521	0.421248
C48	C	1.038673	0.057004	0.703684
C49	C	1.038672	0.056999	0.782487
C50	C	0.925569	0.170039	0.782496
C51	C	0.925566	0.170037	0.703695
C52	C	0.982123	0.113520	0.664293
H53	H	0.983499	-0.307819	-0.123768
Cl54	Cl	0.602396	-0.055737	0.000049
Cl55	Cl	0.406654	-0.059172	0.000046
H56	H	1.001918	-0.023863	0.428575
Cl57	Cl	1.109719	-0.014056	0.168059
H58	H	0.980691	-0.465158	0.123854
H59	H	0.962267	0.250895	0.428559
Cl60	Cl	0.361810	0.282758	0.000053
Cl61	Cl	0.983777	-0.288617	0.154084
H62	H	0.542732	0.252316	0.000046
H63	H	1.084685	0.010974	0.328470
H64	H	0.879459	0.216039	0.185532
H65	H	1.001927	-0.023858	0.571536
Cl66	Cl	0.980396	-0.484339	-0.153989
H67	H	1.084723	0.010981	0.671602
Cl68	Cl	1.109771	-0.014052	0.832009
H69	H	0.879528	0.216055	0.814583
Cl70	Cl	0.854470	0.241085	0.654172
Cl71	Cl	0.957463	0.284433	0.588961
H72	H	0.879484	0.216043	0.328495
