data_functionalizedCrystal
_audit_creation_method	'MofGen! by Chris Wilmer'
_symmetry_space_group_name_H-M	'P1'
_symmetry_Int_Tables_number	1
_symmetry_cell_setting	triclinic
loop_
_symmetry_equiv_pos_as_xyz
  x,y,z
_cell_length_a	12.759401
_cell_length_b	12.827892
_cell_length_c	12.827885
_cell_angle_alpha	89.970214
_cell_angle_beta	90.019253
_cell_angle_gamma	89.985494
loop_
_atom_site_label
_atom_site_type_symbol
_atom_site_fract_x
_atom_site_fract_y
_atom_site_fract_z
Zn1	Zn	1.606246	0.416007	0.590848
Zn2	Zn	1.606139	0.590785	0.416108
Zn3	Zn	1.430549	0.416055	0.416122
Zn4	Zn	1.430534	0.590704	0.590808
O5	O	1.518367	0.503388	0.503472
O6	O	1.753253	0.439205	0.567680
O7	O	1.582809	0.567660	0.269874
O8	O	1.453906	0.269813	0.439322
O9	O	1.753175	0.567613	0.439299
O10	O	1.582990	0.269777	0.567693
O11	O	1.453803	0.439287	0.269884
O12	O	1.283526	0.439209	0.439283
O13	O	1.453881	0.567476	0.737050
O14	O	1.283515	0.567523	0.567625
O15	O	1.582976	0.439127	0.737079
O16	O	1.582794	0.737010	0.439261
O17	O	1.453778	0.736951	0.567612
C18	C	1.245400	0.503364	0.503452
C19	C	1.128623	0.503378	0.503468
C20	C	1.073736	0.436478	0.436764
C21	C	0.964012	0.436502	0.436777
C22	C	0.964072	0.570332	0.570208
C23	C	1.073794	0.570311	0.570189
C24	C	1.128565	0.369544	0.370043
C25	C	1.073678	0.302637	0.303334
C26	C	0.963954	0.302662	0.303347
C27	C	0.909117	0.369594	0.370070
C28	C	1.518301	0.774898	0.503453
C29	C	1.518370	0.891051	0.503480
C30	C	1.518439	0.503287	0.776042
C31	C	1.518469	0.503245	0.892195
C32	C	1.792400	0.503413	0.503492
C33	C	1.909177	0.503424	0.503501
C34	C	1.518462	0.230818	0.503513
C35	C	1.518502	0.114664	0.503531
C36	C	1.582287	0.942830	0.440039
C37	C	1.582358	1.062880	0.440065
C38	C	1.518356	0.503412	0.231962
C39	C	1.518529	0.503161	0.115809
C40	C	1.582356	0.439721	0.943994
C41	C	1.582389	0.439675	1.064045
H42	H	1.118333	0.248150	0.249005
C43	C	1.723688	1.185594	0.425858
C44	C	1.656275	1.122961	0.366758
H45	H	1.769337	1.222674	0.380604
H46	H	1.683635	1.233656	0.465647
H47	H	1.763823	1.142921	0.471392
H48	H	1.616135	1.165635	0.321229
H49	H	1.696333	1.074893	0.326951
C50	C	1.285793	0.343005	0.469476
C51	C	1.249175	0.369522	0.370024
H52	H	1.360252	0.342987	0.469462
H53	H	1.260994	0.392439	0.518746
H54	H	1.260980	0.275594	0.487660
H55	H	1.273981	0.436936	0.351843
H56	H	1.273984	0.320085	0.320739
H57	H	1.636960	0.898286	0.385707
H58	H	1.463705	0.935597	0.557819
H59	H	1.637024	0.385366	0.899465
H60	H	0.919267	0.248190	0.249023
H61	H	1.463791	0.557589	0.936725
C62	C	1.641963	0.380411	1.231459
C63	C	1.656226	0.366247	1.124171
H64	H	1.687544	0.335071	1.268577
H65	H	1.657311	0.450625	1.249281
H66	H	1.571361	0.365123	1.249280
H67	H	1.726826	0.381542	1.106349
H68	H	1.640885	0.296017	1.106342
C69	C	1.503969	0.643658	0.992920
C70	C	1.444688	0.576586	1.055684
H71	H	1.458381	0.688982	0.955790
H72	H	1.549689	0.683656	1.035500
H73	H	1.544027	0.603821	0.944890
H74	H	1.404635	0.616422	1.103719
H75	H	1.398949	0.536584	1.013099
H76	H	1.463773	1.070143	0.557845
H77	H	0.919415	0.624823	0.624532
H78	H	1.118484	0.624787	0.624507
H79	H	0.819772	0.369614	0.370070
