data_functionalizedCrystal
_audit_creation_method	'MofGen! by Chris Wilmer'
_symmetry_space_group_name_H-M	'P1'
_symmetry_Int_Tables_number	1
_symmetry_cell_setting	triclinic
loop_
_symmetry_equiv_pos_as_xyz
  x,y,z
_cell_length_a	13.596369
_cell_length_b	14.519709
_cell_length_c	14.519709
_cell_angle_alpha	83.680145
_cell_angle_beta	89.998664
_cell_angle_gamma	89.999684
loop_
_atom_site_label
_atom_site_type_symbol
_atom_site_fract_x
_atom_site_fract_y
_atom_site_fract_z
O1	O	0.081665	-1.223870	-0.120885
O2	O	0.581665	-0.723870	0.379115
O3	O	0.081696	-0.955393	-0.135122
O4	O	0.581696	-0.455393	0.364878
O5	O	0.081671	-1.096750	0.006235
O6	O	0.581671	-0.596750	0.506235
O7	O	0.081690	-1.082513	-0.262242
O8	O	0.581690	-0.582513	0.237758
O9	O	-0.081912	-1.096732	0.006227
O10	O	0.418088	-0.596732	0.506227
O11	O	-0.081887	-0.955376	-0.135129
O12	O	0.418113	-0.455376	0.364871
O13	O	-0.081917	-1.223853	-0.120893
O14	O	0.418083	-0.723853	0.379107
Zn15	Zn	-0.107875	-1.089611	-0.128012
Zn16	Zn	0.392125	-0.589611	0.371988
Zn17	Zn	0.107653	-1.089634	-0.128002
Zn18	Zn	0.607653	-0.589634	0.371998
O19	O	-0.081893	-1.082496	-0.262250
O20	O	0.418107	-0.582496	0.237750
C21	C	-0.000092	-0.921025	-0.134462
C22	C	0.499908	-0.421025	0.365538
C23	C	-0.000081	-0.818643	-0.132474
C24	C	0.499919	-0.318643	0.367526
N25	N	-0.254966	-1.089603	-0.128019
N26	N	0.245034	-0.589603	0.371981
C27	C	-0.000121	-1.096078	0.040591
C28	C	0.499879	-0.596078	0.540591
C29	C	-0.000121	-1.094090	0.142972
C30	C	0.499879	-0.594090	0.642972
C31	C	-0.343964	-1.089607	-0.128021
C32	C	0.156036	-0.589607	0.371979
C33	C	-0.455616	-1.089616	-0.128015
C34	C	0.044384	-0.589616	0.371985
C35	C	-0.544606	-1.089628	-0.128004
C36	C	-0.044606	-0.589628	0.371996
C37	C	-0.656265	-1.089639	-0.127999
C38	C	-0.156265	-0.589639	0.372001
N39	N	0.254745	-1.089651	-0.127988
N40	N	0.754745	-0.589651	0.372012
C41	C	-0.000128	-1.258221	-0.121553
C42	C	0.499872	-0.758221	0.378447
C43	C	-0.000132	-1.360602	-0.123541
C44	C	0.499868	-0.860602	0.376459
C45	C	-0.000126	-0.443748	-0.125154
C46	C	0.499874	0.056252	0.374846
C47	C	-0.000113	-0.548056	-0.127187
C48	C	0.499887	-0.048056	0.372813
C49	C	-0.000102	-0.631192	-0.128814
C50	C	0.499898	-0.131192	0.371186
C51	C	-0.000091	-0.735507	-0.130847
C52	C	0.499909	-0.235507	0.369153
C53	C	-0.000099	-1.083168	-0.296606
C54	C	0.499901	-0.583168	0.203394
C55	C	-0.000092	-1.085156	-0.398987
C56	C	0.499908	-0.585156	0.101013
C57	C	-0.000095	-1.086770	0.517868
C58	C	0.499905	-0.586770	1.017868
C59	C	-0.000102	-1.088803	0.413560
C60	C	0.499898	-0.588803	0.913560
C61	C	-0.000109	-1.090430	0.330423
C62	C	0.499891	-0.590430	0.830423
C63	C	-0.000114	-1.092463	0.226109
C64	C	0.499886	-0.592463	0.726109
