data_functionalizedCrystal
_audit_creation_method	'MofGen! by Chris Wilmer'
_symmetry_space_group_name_H-M	'P1'
_symmetry_Int_Tables_number	1
_symmetry_cell_setting	triclinic
loop_
_symmetry_equiv_pos_as_xyz
  x,y,z
_cell_length_a	14.519709
_cell_length_b	19.188930
_cell_length_c	13.596369
_cell_angle_alpha	89.988893
_cell_angle_beta	90.000291
_cell_angle_gamma	83.412464
loop_
_atom_site_label
_atom_site_type_symbol
_atom_site_fract_x
_atom_site_fract_y
_atom_site_fract_z
O1	O	1.223300	0.091524	-0.081675
O2	O	1.556633	0.424858	0.251658
O3	O	1.889967	0.758191	0.584992
O4	O	0.954756	0.102302	-0.081706
O5	O	1.288089	0.435636	0.251627
O6	O	1.621423	0.768969	0.584960
O7	O	1.096778	-0.004715	-0.081670
O8	O	1.430111	0.328619	0.251663
O9	O	1.763444	0.661952	0.584996
O10	O	1.081278	0.198542	-0.081711
O11	O	1.414612	0.531875	0.251623
O12	O	1.747945	0.865208	0.584956
O13	O	1.096763	-0.004720	0.081912
O14	O	1.430097	0.328613	0.415246
O15	O	1.763430	0.661946	0.748579
O16	O	0.954742	0.102297	0.081877
O17	O	1.288075	0.435630	0.415210
O18	O	1.621409	0.768963	0.748543
O19	O	1.223286	0.091519	0.081908
O20	O	1.556619	0.424852	0.415241
O21	O	1.889952	0.758185	0.748575
Zn22	Zn	1.089012	0.096907	0.107865
Zn23	Zn	1.422345	0.430240	0.441198
Zn24	Zn	1.755678	0.763574	0.774531
Zn25	Zn	1.089030	0.096914	-0.107663
Zn26	Zn	1.422364	0.430248	0.225670
Zn27	Zn	1.755697	0.763581	0.559004
O28	O	1.081264	0.198536	0.081872
O29	O	1.414598	0.531869	0.415206
O30	O	1.747931	0.865202	0.748539
C31	C	0.920392	0.101797	0.000081
C32	C	1.253726	0.435131	0.333415
C33	C	1.587059	0.768464	0.666748
C34	C	0.818020	0.100292	0.000070
C35	C	1.151354	0.433625	0.333404
C36	C	1.484687	0.766959	0.666737
C37	C	0.443159	0.094751	0.000116
C38	C	0.776492	0.428084	0.333449
C39	C	1.109826	0.761417	0.666783
C40	C	0.547457	0.096290	0.000103
C41	C	0.880791	0.429623	0.333436
C42	C	1.214124	0.762956	0.666770
C43	C	0.630586	0.097521	0.000092
C44	C	0.963920	0.430855	0.333426
C45	C	1.297253	0.764188	0.666759
C46	C	0.734891	0.099060	0.000081
C47	C	1.068225	0.432394	0.333414
C48	C	1.401558	0.765727	0.666748
C49	C	1.096269	-0.030730	0.000124
C50	C	1.429602	0.302603	0.333457
C51	C	1.762935	0.635936	0.666790
C52	C	1.094762	-0.108240	0.000132
C53	C	1.428095	0.225093	0.333465
C54	C	1.761429	0.558427	0.666799
C55	C	1.178095	-0.152867	0.000146
C56	C	1.511429	0.180466	0.333480
C57	C	1.844762	0.513799	0.666813
C58	C	1.176680	-0.225696	0.000131
C59	C	1.510013	0.107637	0.333464
C60	C	1.843347	0.440970	0.666797
C61	C	1.091926	-0.253895	0.000120
C62	C	1.425259	0.079439	0.333453
C63	C	1.758593	0.412772	0.666787
C64	C	1.008582	-0.209257	0.000100
C65	C	1.341915	0.124076	0.333433
C66	C	1.675248	0.457409	0.666767
C67	C	1.009999	-0.136430	0.000106
C68	C	1.343333	0.196903	0.333439
C69	C	1.676666	0.530236	0.666773
N70	N	1.027137	-0.362132	0.055783
N71	N	1.360470	-0.028799	0.389116
N72	N	1.693804	0.304535	0.722449
N73	N	1.025796	-0.431316	0.055779
N74	N	1.359129	-0.097982	0.389112
N75	N	1.692463	0.235351	0.722446
C76	C	1.087649	-0.473318	0.000100
C77	C	1.420982	-0.139985	0.333433
C78	C	1.754316	0.193348	0.666766
N79	N	1.150908	-0.443526	-0.055564
N80	N	1.484242	-0.110192	0.277769
N81	N	1.817575	0.223141	0.611103
N82	N	1.152252	-0.374336	-0.055556
N83	N	1.485586	-0.041003	0.277778
N84	N	1.818919	0.292330	0.611111
C85	C	1.090379	-0.332863	0.000113
C86	C	1.423713	0.000471	0.333446
C87	C	1.757046	0.333804	0.666779
C88	C	1.169454	-0.596916	0.000095
C89	C	1.502787	-0.263582	0.333429
C90	C	1.836120	0.069751	0.666762
C91	C	1.168035	-0.669745	0.000073
C92	C	1.501368	-0.336412	0.333407
C93	C	1.834701	-0.003079	0.666740
C94	C	0.999934	-0.653305	0.000053
C95	C	1.333267	-0.319972	0.333386
C96	C	1.666600	0.013362	0.666719
C97	C	1.001355	-0.580477	0.000065
C98	C	1.334689	-0.247144	0.333398
C99	C	1.668022	0.086190	0.666731
C100	C	1.086118	-0.552287	0.000091
C101	C	1.419451	-0.218953	0.333424
C102	C	1.752784	0.114380	0.666757
C103	C	1.257649	0.092024	0.000118
C104	C	1.590983	0.425357	0.333451
C105	C	1.924316	0.758691	0.666785
C106	C	1.360021	0.093529	0.000123
C107	C	1.693355	0.426862	0.333456
C108	C	2.026688	0.760196	0.666789
C109	C	1.081773	0.224551	0.000076
C110	C	1.415107	0.557885	0.333409
C111	C	1.748440	0.891218	0.666742
C112	C	1.083280	0.302061	0.000061
C113	C	1.416613	0.635395	0.333394
C114	C	1.749947	0.968728	0.666728
N115	N	1.089006	0.096901	0.254956
N116	N	1.422339	0.430235	0.588290
N117	N	1.755672	0.763568	0.921623
N118	N	1.089043	0.096914	-0.254755
N119	N	1.422377	0.430248	0.078579
N120	N	1.755710	0.763581	0.411912
C121	C	1.089029	0.096915	0.656247
C122	C	1.422362	0.430248	0.989581
C123	C	1.755696	0.763582	1.322914
C124	C	1.089020	0.096914	0.544596
C125	C	1.422353	0.430247	0.877929
C126	C	1.755686	0.763580	1.211263
C127	C	1.089018	0.096909	0.455605
C128	C	1.422351	0.430242	0.788939
C129	C	1.755684	0.763575	1.122272
C130	C	1.089008	0.096906	0.343947
C131	C	1.422341	0.430240	0.677280
C132	C	1.755674	0.763573	1.010614
H133	H	1.244542	-0.262039	0.000138
H134	H	1.577876	0.071295	0.333472
H135	H	1.911209	0.404628	0.666805
H136	H	1.238472	-0.573962	0.000112
H137	H	1.571805	-0.240629	0.333445
H138	H	1.905139	0.092705	0.666779
H139	H	0.939574	-0.232221	0.000089
H140	H	1.272908	0.101112	0.333422
H141	H	1.606241	0.434445	0.666756
H142	H	1.235898	-0.706081	0.000080
H143	H	1.569231	-0.372748	0.333413
H144	H	1.902564	-0.039414	0.666746
N145	N	0.908518	-0.683708	0.000030
N146	N	1.241852	-0.350375	0.333363
N147	N	1.575185	-0.017041	0.666697
H148	H	0.920263	-0.736616	0.000025
H149	H	1.253597	-0.403283	0.333358
H150	H	1.586930	-0.069949	0.666692
H151	H	0.872056	-0.667401	0.060668
H152	H	1.205389	-0.334068	0.394001
H153	H	1.538723	-0.000734	0.727334
H154	H	0.942137	-0.100094	0.000095
H155	H	1.275470	0.233239	0.333428
H156	H	1.608804	0.566573	0.666761
N157	N	0.911476	-0.532334	0.000061
N158	N	1.244810	-0.199001	0.333394
N159	N	1.578143	0.134333	0.666728
H160	H	0.874489	-0.541404	-0.060584
H161	H	1.207822	-0.208070	0.272749
H162	H	1.541155	0.125263	0.606083
H163	H	0.874554	-0.541447	0.060737
H164	H	1.207887	-0.208114	0.394070
H165	H	1.541221	0.125220	0.727403
N166	N	1.269513	-0.122462	0.000173
N167	N	1.602847	0.210871	0.333506
N168	N	1.936180	0.544205	0.666839
H169	H	1.322091	-0.161789	0.000179
H170	H	1.655424	0.171544	0.333512
H171	H	1.988757	0.504878	0.666846
H172	H	1.273773	-0.092594	-0.060467
H173	H	1.607106	0.240739	0.272867
H174	H	1.940439	0.574073	0.606200
