data_functionalizedCrystal
_audit_creation_method	'MofGen! by Chris Wilmer'
_symmetry_space_group_name_H-M	'P1'
_symmetry_Int_Tables_number	1
_symmetry_cell_setting	triclinic
loop_
_symmetry_equiv_pos_as_xyz
  x,y,z
_cell_length_a	21.395362
_cell_length_b	13.032868
_cell_length_c	21.395355
_cell_angle_alpha	97.163312
_cell_angle_beta	90.043940
_cell_angle_gamma	82.769555
loop_
_atom_site_label
_atom_site_type_symbol
_atom_site_fract_x
_atom_site_fract_y
_atom_site_fract_z
Zn1	Zn	0.926212	0.415745	0.386221
Zn2	Zn	1.426212	0.915745	0.886221
Zn3	Zn	0.912813	0.590486	0.294741
Zn4	Zn	1.412813	1.090486	0.794741
Zn5	Zn	0.821424	0.415794	0.281426
Zn6	Zn	1.321424	0.915794	0.781426
Zn7	Zn	0.808093	0.590507	0.399447
Zn8	Zn	1.308093	1.090507	0.899447
O9	O	0.867136	0.503133	0.340459
O10	O	1.367136	1.003133	0.840459
O11	O	1.012115	0.438895	0.374123
O12	O	1.512115	0.938895	0.874123
O13	O	0.900662	0.567324	0.205298
O14	O	1.400662	1.067324	0.705298
O15	O	0.846510	0.269539	0.284221
O16	O	1.346510	0.769539	0.784221
O17	O	1.002271	0.567277	0.306913
O18	O	1.502271	1.067277	0.806913
O19	O	0.923498	0.269504	0.361213
O20	O	1.423498	0.769504	0.861213
O21	O	0.833518	0.438978	0.195516
O22	O	1.333518	0.938978	0.695516
O23	O	0.731975	0.438999	0.297045
O24	O	1.231975	0.938999	0.797045
O25	O	0.823791	0.567313	0.485370
O26	O	1.323791	1.067313	0.985370
O27	O	0.722182	0.567361	0.383754
O28	O	1.222182	1.067361	0.883754
O29	O	0.910572	0.438916	0.475653
O30	O	1.410572	0.938916	0.975653
O31	O	0.887736	0.736737	0.319737
O32	O	1.387736	1.236737	0.819737
O33	O	0.810798	0.736753	0.396665
O34	O	1.310798	1.236753	0.896665
C35	C	0.704344	0.503188	0.340391
C36	C	1.204344	1.003188	0.840391
C37	C	0.634699	0.503237	0.340378
C38	C	1.134699	1.003237	0.840378
C39	C	0.596896	0.570163	0.385474
C40	C	1.096896	1.070163	0.885474
C41	C	0.531462	0.570138	0.385500
C42	C	1.031462	1.070138	0.885500
C43	C	0.503834	0.503197	0.340420
C44	C	1.003834	1.003197	0.840420
C45	C	0.541646	0.436258	0.295319
C46	C	1.041646	0.936258	0.795319
C47	C	0.607078	0.436278	0.295299
C48	C	1.107078	0.936278	0.795299
C49	C	0.400750	0.494778	0.283374
C50	C	0.900750	0.994778	0.783374
C51	C	0.335318	0.494765	0.283394
C52	C	0.835318	0.994765	0.783394
C53	C	0.302018	0.503129	0.340484
C54	C	0.802018	1.003129	0.840484
C55	C	0.334157	0.511527	0.397556
C56	C	0.834157	1.011527	0.897556
C57	C	0.399589	0.511547	0.397535
C58	C	0.899589	1.011547	0.897535
C59	C	0.432884	0.503167	0.340437
C60	C	0.932884	1.003167	0.840437
C61	C	0.193264	0.570031	0.385612
C62	C	0.693264	1.070031	0.885612
C63	C	0.127830	0.569998	0.385638
C64	C	0.627830	1.069998	0.885638
C65	C	0.138014	0.436123	0.295452
C66	C	0.638014	0.936123	0.795452
C67	C	0.203448	0.436151	0.295431
C68	C	0.703448	0.936151	0.795431
C69	C	0.231068	0.503110	0.340510
C70	C	0.731068	1.003110	0.840510
C71	C	0.846384	0.774665	0.361095
C72	C	1.346384	1.274665	0.861095
C73	C	0.837563	0.890828	0.369944
C74	C	1.337563	1.390828	0.869944
C75	C	0.871731	0.942574	0.335855
C76	C	1.371731	1.442574	0.835855
C77	C	0.862616	1.062634	0.345000
C78	C	1.362616	1.562634	0.845000
C79	C	1.030563	0.503078	0.340528
C80	C	1.530563	1.003078	0.840528
C81	C	1.100206	0.503055	0.340558
C82	C	1.600206	1.003055	0.840558
C83	C	0.867189	0.503112	0.503881
C84	C	1.367189	1.003112	1.003881
C85	C	0.867212	0.503103	0.573521
C86	C	1.367212	1.003103	1.073521
C87	C	0.887965	1.230541	0.319750
C88	C	1.387965	1.730541	0.819750
C89	C	0.896789	1.114378	0.310907
C90	C	1.396789	1.614378	0.810907
C91	C	0.867124	0.503079	0.177667
C92	C	1.367124	1.003079	0.677667
C93	C	0.867245	0.502793	0.108005
C94	C	1.367245	1.002793	0.608005
C95	C	0.912398	0.436244	0.601176
C96	C	1.412398	0.936244	1.101176
C97	C	0.912400	0.436199	0.666608
C98	C	1.412400	0.936199	1.166608
C99	C	0.867222	0.503032	0.704384
C100	C	1.367222	1.003032	1.204384
C101	C	0.822029	0.569896	0.676722
C102	C	1.322029	1.069896	1.176722
C103	C	0.822024	0.569931	0.611291
C104	C	1.322024	1.069931	1.111291
C105	C	0.855083	0.597135	0.815209
C106	C	1.355083	1.097135	1.315209
C107	C	0.855093	0.597102	0.880639
C108	C	1.355093	1.097102	1.380639
C109	C	0.867235	0.502921	0.906197
C110	C	1.367235	1.002921	1.406197
C111	C	0.879381	0.408772	0.866315
C112	C	1.379381	0.908772	1.366315
C113	C	0.879376	0.408807	0.800884
C114	C	1.379376	0.908807	1.300884
C115	C	0.867223	0.503000	0.775334
C116	C	1.367223	1.003000	1.275334
C117	C	0.912426	0.436008	1.004800
C118	C	1.412426	0.936008	1.504800
C119	C	0.912424	0.435961	1.070233
C120	C	1.412424	0.935961	1.570233
C121	C	0.822055	0.569667	1.080347
C122	C	1.322055	1.069667	1.580347
C123	C	0.822054	0.569704	1.014914
C124	C	1.322054	1.069704	1.514914
C125	C	0.867243	0.502876	0.977145
C126	C	1.367243	1.002876	1.477145
H127	H	0.307046	0.518336	0.444044
H128	H	0.807046	1.018336	0.944044
O129	O	0.944482	1.055339	0.263277
O130	O	1.444482	1.555339	0.763277
H131	H	0.992083	1.076126	0.275663
H132	H	1.492083	1.576126	0.775663
H133	H	0.427857	0.487962	0.236881
H134	H	0.927857	0.987962	0.736881
H135	H	0.801564	0.935410	0.405901
H136	H	1.301564	1.435410	0.905901
H137	H	0.234227	0.381657	0.258706
H138	H	0.734227	0.881657	0.758706
H139	H	0.949219	0.381510	1.092747
H140	H	1.449219	0.881510	1.592747
O141	O	0.223061	0.642212	0.434251
O142	O	0.723061	1.142212	0.934251
H143	H	0.274912	0.630983	0.426661
H144	H	0.774912	1.130983	0.926661
H145	H	0.785243	0.624308	0.707484
H146	H	1.285243	1.124308	1.207484
H147	H	0.785225	0.624375	0.588776
H148	H	1.285225	1.124375	1.088776
O149	O	0.087088	0.642323	0.434246
O150	O	0.587088	1.142323	0.934246
H151	H	0.101054	0.624641	0.482105
H152	H	0.601054	1.124641	0.982105
H153	H	0.826615	1.107212	0.380960
H154	H	1.326615	1.607212	0.880960
O155	O	0.300662	0.485707	0.221837
O156	O	0.800662	0.985707	0.721837
H157	H	0.265480	0.555699	0.220695
H158	H	0.765480	1.055699	0.720695
H159	H	0.785262	0.624155	0.992399
H160	H	1.285262	1.124155	1.492399
H161	H	0.949218	0.381586	0.974045
H162	H	1.449218	0.881586	1.474045
H163	H	0.785265	0.624073	1.111103
H164	H	1.285265	1.124073	1.611103
O165	O	0.841978	0.698720	0.787645
O166	O	1.341978	1.198720	1.287645
H167	H	0.833541	0.764180	0.826367
H168	H	1.333541	1.264180	1.326367
H169	H	0.889264	0.332148	0.768415
H170	H	1.389264	0.832148	1.268415
O171	O	0.108225	0.363928	0.246822
O172	O	0.608225	0.863928	0.746822
H173	H	0.056374	0.375163	0.254408
H174	H	0.556374	0.875163	0.754408
H175	H	0.949195	0.381748	0.689128
H176	H	1.449195	0.881748	1.189128
H177	H	0.845206	0.673764	0.913106
H178	H	1.345206	1.173764	1.413106
H179	H	0.907735	0.897995	0.299903
H180	H	1.407735	1.397995	0.799903
H181	H	0.949193	0.381825	0.570427
H182	H	1.449193	0.881825	1.070427
O183	O	0.511850	0.364077	0.246683
O184	O	1.011850	0.864077	0.746683
H185	H	0.459998	0.375322	0.254265
H186	H	0.959998	0.875322	0.754265
H187	H	0.637858	0.381775	0.258576
H188	H	1.137858	0.881775	0.758576
O189	O	0.892462	0.307177	0.893868
O190	O	1.392462	0.807177	1.393868
H191	H	0.890412	0.322962	0.946066
H192	H	1.390412	0.822962	1.446066
H193	H	0.500677	0.624637	0.422225
H194	H	1.000677	1.124637	0.922225
O195	O	0.626690	0.642366	0.434100
O196	O	1.126690	1.142366	0.934100
H197	H	0.589406	0.688892	0.465468
H198	H	1.089406	1.188892	0.965468
H199	H	0.425754	0.518383	0.444006
H200	H	0.925754	1.018383	0.944006
