data_functionalizedCrystal
_audit_creation_method	'MofGen! by Chris Wilmer'
_symmetry_space_group_name_H-M	'P1'
_symmetry_Int_Tables_number	1
_symmetry_cell_setting	triclinic
loop_
_symmetry_equiv_pos_as_xyz
  x,y,z
_cell_length_a	9.798715
_cell_length_b	10.723024
_cell_length_c	14.519709
_cell_angle_alpha	95.925993
_cell_angle_beta	90.007495
_cell_angle_gamma	90.000034
loop_
_atom_site_label
_atom_site_type_symbol
_atom_site_fract_x
_atom_site_fract_y
_atom_site_fract_z
O1	O	0.113485	-1.655971	0.129352
O2	O	0.446819	-1.322637	0.462686
O3	O	0.780152	-0.989304	0.796019
O4	O	0.113490	-1.292703	0.141734
O5	O	0.446824	-0.959369	0.475067
O6	O	0.780157	-0.626036	0.808400
O7	O	0.113475	-1.483968	0.001354
O8	O	0.446809	-1.150635	0.334687
O9	O	0.780142	-0.817302	0.668020
O10	O	0.113500	-1.464705	0.269732
O11	O	0.446834	-1.131372	0.603066
O12	O	0.780167	-0.798039	0.936399
O13	O	-0.113507	-1.483968	0.001343
O14	O	0.219827	-1.150635	0.334677
O15	O	0.553160	-0.817301	0.668010
O16	O	-0.113492	-1.292702	0.141723
O17	O	0.219842	-0.959369	0.475056
O18	O	0.553175	-0.626036	0.808390
O19	O	-0.113497	-1.655970	0.129342
O20	O	0.219837	-1.322637	0.462675
O21	O	0.553170	-0.989304	0.796009
Zn22	Zn	-0.149533	-1.474336	0.135531
Zn23	Zn	0.183801	-1.141003	0.468864
Zn24	Zn	0.517134	-0.807670	0.802197
Zn25	Zn	0.149526	-1.474337	0.135545
Zn26	Zn	0.482860	-1.141003	0.468878
Zn27	Zn	0.816193	-0.807670	0.802211
O28	O	-0.113482	-1.464705	0.269722
O29	O	0.219851	-1.131371	0.603055
O30	O	0.553185	-0.798038	0.936388
C31	C	-0.000000	-1.246211	0.140827
C32	C	0.333333	-0.912878	0.474161
C33	C	0.666666	-0.579545	0.807494
C34	C	0.000001	-1.107682	0.138132
C35	C	0.333335	-0.774349	0.471465
C36	C	0.666668	-0.441016	0.804798
N37	N	0.353626	-1.474338	0.135547
N38	N	0.686959	-1.141005	0.468881
N39	N	1.020293	-0.807671	0.802214
C40	C	-0.000016	-1.483070	-0.033016
C41	C	0.333318	-1.149737	0.300317
C42	C	0.666651	-0.816404	0.633651
C43	C	-0.000017	-1.480380	-0.135411
C44	C	0.333317	-1.147047	0.197922
C45	C	0.666650	-0.813713	0.531256
N46	N	-0.353632	-1.474345	0.135521
N47	N	-0.020299	-1.141012	0.468854
N48	N	0.313034	-0.807678	0.802187
C49	C	0.421396	-1.554820	0.076474
C50	C	0.754730	-1.221487	0.409807
C51	C	1.088063	-0.888153	0.743141
C52	C	0.578559	-1.554825	0.076459
C53	C	0.911893	-1.221491	0.409793
C54	C	1.245226	-0.888158	0.743126
C55	C	-0.000003	-1.702462	0.130248
C56	C	0.333330	-1.369128	0.463582
C57	C	0.666663	-1.035795	0.796915
C58	C	0.000004	-1.840991	0.132944
C59	C	0.333338	-1.507657	0.466277
C60	C	0.666671	-1.174324	0.799611
C61	C	0.000009	-1.031965	0.216681
C62	C	0.333343	-0.698632	0.550014
C63	C	0.666676	-0.365298	0.883347
C64	C	0.000011	-0.888788	0.213896
C65	C	0.333344	-0.555454	0.547230
C66	C	0.666678	-0.222121	0.880563
C67	C	0.000019	-1.470476	-0.510357
C68	C	0.333352	-1.137143	-0.177024
C69	C	0.666686	-0.803810	0.156309
C70	C	0.000009	-1.473227	-0.406035
C71	C	0.333342	-1.139893	-0.072702
C72	C	0.666675	-0.806560	0.260631
C73	C	-0.000000	-1.475428	-0.322887
C74	C	0.333333	-1.142095	0.010446
C75	C	0.666667	-0.808761	0.343779
C76	C	-0.000008	-1.478179	-0.218559
C77	C	0.333326	-1.144845	0.114775
C78	C	0.666659	-0.811512	0.448108
C79	C	0.000012	-1.465603	0.304091
C80	C	0.333346	-1.132269	0.637425
C81	C	0.666679	-0.798936	0.970758
C82	C	0.000022	-1.468293	0.406486
C83	C	0.333355	-1.134960	0.739820
C84	C	0.666689	-0.801626	1.073153
H85	H	0.636839	-1.623724	0.025881
H86	H	0.970172	-1.290391	0.359214
H87	H	1.303506	-0.957058	0.692547
H88	H	0.411956	-1.405442	0.186115
H89	H	0.745289	-1.072108	0.519448
H90	H	1.078622	-0.738775	0.852782
C91	C	0.342609	-1.647901	0.008163
C92	C	0.675943	-1.314567	0.341496
C93	C	1.009276	-0.981234	0.674830
H94	H	0.247314	-1.635680	0.017130
H95	H	0.580647	-1.302347	0.350463
H96	H	0.913980	-0.969014	0.683797
H97	H	0.365962	-1.731227	0.018702
H98	H	0.699295	-1.397894	0.352035
H99	H	1.032629	-1.064561	0.685368
H100	H	0.365934	-1.634200	-0.053495
H101	H	0.699268	-1.300867	0.279839
H102	H	1.032601	-0.967534	0.613172
H103	H	0.588097	-1.405433	0.186095
H104	H	0.921430	-1.072099	0.519429
H105	H	1.254763	-0.738766	0.852762
H106	H	0.000008	-1.073139	0.285991
H107	H	0.333341	-0.739806	0.619324
H108	H	0.666675	-0.406472	0.952657
H109	H	0.000030	-1.066508	0.068822
H110	H	0.333363	-0.733175	0.402155
H111	H	0.666697	-0.399842	0.735488
C112	C	0.000020	-0.800905	0.304741
C113	C	0.333353	-0.467571	0.638075
C114	C	0.666686	-0.134238	0.971408
H115	H	0.000010	-0.716203	0.290952
H116	H	0.333344	-0.382870	0.624286
H117	H	0.666677	-0.049536	0.957619
H118	H	0.079174	-0.816140	0.339663
H119	H	0.412507	-0.482807	0.672997
H120	H	0.745840	-0.149474	1.006330
H121	H	-0.079144	-0.816139	0.339650
H122	H	0.254190	-0.482805	0.672983
H123	H	0.587523	-0.149472	1.006317
C124	C	0.000002	-0.928861	0.042093
C125	C	0.333335	-0.595528	0.375426
C126	C	0.666669	-0.262195	0.708759
H127	H	0.000009	-0.880300	-0.009057
H128	H	0.333342	-0.546967	0.324277
H129	H	0.666676	-0.213633	0.657610
H130	H	-0.079148	-0.980251	0.039633
H131	H	0.254185	-0.646917	0.372966
H132	H	0.587519	-0.313584	0.706299
H133	H	0.079169	-0.980238	0.039647
H134	H	0.412503	-0.646905	0.372980
H135	H	0.745836	-0.313571	0.706313
