data_functionalizedCrystal
_audit_creation_method	'MofGen! by Chris Wilmer'
_symmetry_space_group_name_H-M	'P1'
_symmetry_Int_Tables_number	1
_symmetry_cell_setting	triclinic
loop_
_symmetry_equiv_pos_as_xyz
  x,y,z
_cell_length_a	11.792241
_cell_length_b	16.098546
_cell_length_c	17.019448
_cell_angle_alpha	96.601402
_cell_angle_beta	96.203058
_cell_angle_gamma	92.740065
loop_
_atom_site_label
_atom_site_type_symbol
_atom_site_fract_x
_atom_site_fract_y
_atom_site_fract_z
O1	O	1.510298	0.061655	-0.104986
O2	O	1.179785	0.060874	-0.116168
O3	O	1.354852	0.069510	0.004632
O4	O	1.335231	0.053019	-0.225785
O5	O	1.344665	-0.069507	-0.002423
O6	O	1.169597	-0.078143	-0.123222
O7	O	1.500111	-0.077362	-0.112040
Zn8	Zn	1.333237	-0.099825	-0.118751
Zn9	Zn	1.346659	0.083337	-0.109457
O10	O	1.325043	-0.085998	-0.232839
C11	C	1.132411	-0.008582	-0.118992
C12	C	1.006431	-0.008424	-0.116889
N13	N	1.324085	-0.224827	-0.125094
C14	C	0.775777	-0.008171	-0.113024
C15	C	0.904130	-0.008312	-0.115172
C16	C	1.281497	-0.751739	-0.154367
C17	C	1.287924	-0.664234	-0.149945
C18	C	1.368680	-0.616652	-0.094267
C19	C	1.443007	-0.656579	-0.043002
C20	C	1.436574	-0.744083	-0.047421
C21	C	1.391978	-0.352257	-0.078247
C22	C	1.398408	-0.264748	-0.073834
C23	C	1.243322	-0.272409	-0.180777
C24	C	1.236901	-0.359914	-0.185194
C25	C	1.311224	-0.399833	-0.133926
C26	C	1.375254	-0.527208	-0.089748
C27	C	1.304644	-0.489275	-0.138442
C28	C	1.547485	-0.007904	-0.109215
C29	C	1.673466	-0.008057	-0.111318
C30	C	1.349211	0.002115	0.030603
C31	C	1.347566	0.008412	0.118499
N32	N	1.355820	0.208339	-0.103108
C33	C	1.330685	-0.018601	-0.258811
C34	C	1.332330	-0.024893	-0.346707
C35	C	1.338651	0.047918	0.615829
C36	C	1.340184	0.041985	0.533239
C37	C	1.335389	-0.036761	0.488115
C38	C	1.329071	-0.109577	0.525585
C39	C	1.327546	-0.103643	0.608174
C40	C	1.339723	-0.058470	0.238558
C41	C	1.341246	-0.064399	0.155964
C42	C	1.352361	0.087163	0.163624
C43	C	1.350828	0.093091	0.246213
C44	C	1.344517	0.020275	0.283677
C45	C	1.336952	-0.042828	0.403694
C46	C	1.342961	0.026343	0.368097
H47	H	1.215741	-0.790475	-0.199710
H48	H	1.497095	-0.776585	-0.005679
H49	H	1.227403	-0.631731	-0.191685
C50	C	1.487239	-0.212409	-0.012582
H51	H	1.530576	-0.248715	0.017324
H52	H	1.536794	-0.180348	-0.039562
H53	H	1.449141	-0.175882	0.022290
H54	H	1.238888	-0.528019	-0.183773
H55	H	1.333046	-0.106942	0.366945
H56	H	1.325174	-0.173693	0.488839
C57	C	1.320591	-0.183732	0.649388
H58	H	1.320381	-0.168920	0.705039
H59	H	1.252376	-0.216248	0.628537
H60	H	1.384749	-0.215432	0.640026
H61	H	1.346871	0.090456	0.404841
H62	H	1.171143	-0.398653	-0.230532
C63	C	1.332768	-0.138565	0.279757
H64	H	1.330117	-0.186310	0.241051
H65	H	1.398123	-0.139001	0.317561
H66	H	1.265751	-0.139804	0.306069
C67	C	1.161567	-0.228496	-0.237160
H68	H	1.176955	-0.169567	-0.226552
H69	H	1.172466	-0.246641	-0.290782
H70	H	1.084831	-0.242178	-0.228918
H71	H	1.337306	-0.128526	0.119222
H72	H	1.357500	0.146446	0.133112
C73	C	1.473746	-0.396159	-0.021866
H74	H	1.522772	-0.355287	0.011917
H75	H	1.430655	-0.427905	0.009567
H76	H	1.518281	-0.432363	-0.052304
H77	H	1.508757	-0.617833	0.002336
H78	H	1.342545	0.112041	0.652563
C79	C	1.347124	0.122077	0.492030
H80	H	1.349744	0.169824	0.530732
H81	H	1.414131	0.123325	0.465716
H82	H	1.281757	0.122500	0.454227
C83	C	1.356109	0.179709	0.295849
H84	H	1.354285	0.172814	0.350401
H85	H	1.424824	0.210279	0.289633
H86	H	1.292451	0.209466	0.278141
H87	H	1.441010	-0.488460	-0.044415
