data_functionalizedCrystal
_audit_creation_method	'MofGen! by Chris Wilmer'
_symmetry_space_group_name_H-M	'P1'
_symmetry_Int_Tables_number	1
_symmetry_cell_setting	triclinic
loop_
_symmetry_equiv_pos_as_xyz
  x,y,z
_cell_length_a	12.759401
_cell_length_b	12.759394
_cell_length_c	12.759393
_cell_angle_alpha	89.967706
_cell_angle_beta	89.980623
_cell_angle_gamma	90.016544
loop_
_atom_site_label
_atom_site_type_symbol
_atom_site_fract_x
_atom_site_fract_y
_atom_site_fract_z
Zn1	Zn	1.606254	-0.418157	-0.594001
Zn2	Zn	1.606148	-0.593876	-0.418319
Zn3	Zn	1.430556	-0.418216	-0.418337
Zn4	Zn	1.430545	-0.593799	-0.593957
O5	O	1.518376	-0.506012	-0.506154
O6	O	1.753261	-0.441473	-0.570706
O7	O	1.582816	-0.570631	-0.271300
O8	O	1.453912	-0.271187	-0.441666
O9	O	1.753183	-0.570573	-0.441634
O10	O	1.582997	-0.271143	-0.570725
O11	O	1.453810	-0.441575	-0.271314
O12	O	1.283534	-0.441501	-0.441624
O13	O	1.453892	-0.570443	-0.740984
O14	O	1.283525	-0.570501	-0.570651
O15	O	1.582986	-0.441399	-0.741016
O16	O	1.582805	-0.740887	-0.441591
O17	O	1.453789	-0.740831	-0.570633
C18	C	1.245409	-0.506000	-0.506135
C19	C	1.128632	-0.506020	-0.506152
C20	C	0.964091	-0.438915	-0.573476
C21	C	1.073815	-0.438912	-0.573465
C22	C	1.073719	-0.573143	-0.438854
C23	C	0.963997	-0.573150	-0.438871
C24	C	0.964148	-0.361415	-0.651189
C25	C	1.073872	-0.361412	-0.651178
C26	C	1.518313	-0.778980	-0.506128
C27	C	1.518382	-0.895756	-0.506152
C28	C	1.652826	-0.895761	-0.371883
C29	C	1.720076	-0.950624	-0.304760
C30	C	1.720138	-1.060346	-0.304789
C31	C	1.652945	-1.115207	-0.371949
C32	C	1.585695	-1.060344	-0.439072
C33	C	1.585638	-0.950619	-0.439034
C34	C	1.451257	-1.060339	-0.573345
C35	C	1.451189	-0.950617	-0.573313
C36	C	1.384064	-1.115200	-0.640506
C37	C	1.316808	-1.060336	-0.707625
C38	C	1.316748	-0.950608	-0.707592
C39	C	1.383939	-0.895754	-0.640435
C40	C	1.792409	-0.506025	-0.506173
C41	C	1.909186	-0.506030	-0.506181
C42	C	1.518449	-0.505906	-0.780187
C43	C	1.518481	-0.505861	-0.896964
C44	C	1.518468	-0.231979	-0.506202
C45	C	1.518507	-0.115202	-0.506223
C46	C	1.585709	-0.438661	-0.951844
C47	C	1.585734	-0.438623	-1.061568
C48	C	1.451300	-0.572994	-1.061522
C49	C	1.451270	-0.573026	-0.951800
C50	C	1.663327	-0.361087	-0.951872
C51	C	1.663352	-0.361049	-1.061596
C52	C	1.518363	-0.506042	-0.233186
C53	C	1.518535	-0.505791	-0.116410
H54	H	1.103659	-0.280017	-0.629511
H55	H	1.384124	-1.204541	-0.640529
C56	C	1.391655	-0.632611	-1.229699
C57	C	1.377433	-0.646827	-1.121802
H58	H	1.346056	-0.678201	-1.266909
H59	H	1.376303	-0.562023	-1.247691
H60	H	1.462248	-0.647985	-1.247672
H61	H	1.306841	-0.631445	-1.103828
H62	H	1.392777	-0.717432	-1.103802
C63	C	1.898083	-1.094025	-0.253759
C64	C	1.794062	-1.120652	-0.231007
H65	H	1.943719	-1.131251	-0.208204
H66	H	1.913427	-1.111940	-0.324358
H67	H	1.907652	-1.020826	-0.244127
H68	H	1.784491	-1.193851	-0.240647
H69	H	1.778712	-1.102745	-0.160391
H70	H	1.653010	-1.204548	-0.371976
C71	C	1.009378	-0.408821	-0.827581
C72	C	0.923989	-0.390918	-0.760999
H73	H	0.984582	-0.427026	-0.895371
H74	H	1.050759	-0.347089	-0.832066
H75	H	1.050692	-0.464502	-0.800466
H76	H	0.882679	-0.335231	-0.788110
H77	H	0.882590	-0.452658	-0.756517
H78	H	1.107933	-0.390645	-0.728421
H79	H	1.652770	-0.806420	-0.371839
H80	H	1.634238	-0.283740	-1.095644
H81	H	1.261990	-0.905944	-0.762256
H82	H	1.383890	-0.806413	-0.640396
C83	C	1.257217	-1.228531	-0.767295
C84	C	1.242955	-1.120640	-0.781439
H85	H	1.211616	-1.265760	-0.812862
H86	H	1.327803	-1.246426	-0.782738
H87	H	1.241885	-1.246577	-0.696694
H88	H	1.258294	-1.102592	-0.852039
H89	H	1.172353	-1.102737	-0.766004
C90	C	0.930165	-0.751001	-0.387410
C91	C	0.903648	-0.646935	-0.364904
H92	H	0.892914	-0.796553	-0.341738
H93	H	0.912207	-0.766445	-0.457968
H94	H	1.003359	-0.760584	-0.377768
H95	H	0.830455	-0.637350	-0.374554
H96	H	0.921600	-0.631486	-0.294329
C97	C	1.616122	-0.184611	-0.997069
C98	C	1.633929	-0.251257	-0.911692
H99	H	1.597966	-0.116812	-0.972261
H100	H	1.677875	-0.180176	-1.038426
H101	H	1.560433	-0.211640	-1.038411
H102	H	1.689623	-0.224231	-0.870354
H103	H	1.572168	-0.255688	-0.870318
H104	H	1.740598	-0.390253	-0.917836
C105	C	1.839782	-0.408370	-1.016450
C106	C	1.773190	-0.390477	-1.101807
H107	H	1.907585	-0.426544	-1.041278
H108	H	1.844225	-0.346644	-0.975113
H109	H	1.812702	-0.464070	-0.975082
H110	H	1.800265	-0.334771	-1.143172
H111	H	1.768750	-0.452210	-1.143163
H112	H	0.930118	-0.284090	-0.622183
C113	C	1.241873	-0.632735	-0.379058
C114	C	1.133971	-0.646912	-0.364864
H115	H	1.279066	-0.678274	-0.333372
H116	H	1.259877	-0.648195	-0.449612
H117	H	1.259854	-0.562123	-0.363800
H118	H	1.115988	-0.717523	-0.380130
H119	H	1.115959	-0.631460	-0.294294
C120	C	1.779675	-0.782427	-0.245076
C121	C	1.793929	-0.890320	-0.230936
H122	H	1.825266	-0.745203	-0.199496
H123	H	1.795014	-0.764377	-0.315664
H124	H	1.709077	-0.764529	-0.229640
H125	H	1.864525	-0.908219	-0.246380
H126	H	1.778597	-0.908377	-0.160332
C127	C	1.318370	-0.705817	-0.962780
C128	C	1.377355	-0.646877	-0.891474
H129	H	1.272738	-0.751412	-0.925535
H130	H	1.278228	-0.660019	-1.005588
H131	H	1.364146	-0.746008	-1.005564
H132	H	1.331579	-0.606680	-0.848695
H133	H	1.417500	-0.692680	-0.848648
