data_functionalizedCrystal
_audit_creation_method	'MofGen! by Chris Wilmer'
_symmetry_space_group_name_H-M	'P1'
_symmetry_Int_Tables_number	1
_symmetry_cell_setting	triclinic
loop_
_symmetry_equiv_pos_as_xyz
  x,y,z
_cell_length_a	25.639243
_cell_length_b	25.639240
_cell_length_c	21.295411
_cell_angle_alpha	90.026709
_cell_angle_beta	90.027104
_cell_angle_gamma	90.035481
loop_
_atom_site_label
_atom_site_type_symbol
_atom_site_fract_x
_atom_site_fract_y
_atom_site_fract_z
Zn1	Zn	0.799304	-0.208172	0.355932
Zn2	Zn	1.299304	0.291828	0.855932
Zn3	Zn	0.799220	-0.295592	0.250648
Zn4	Zn	1.299220	0.204408	0.750648
Zn5	Zn	0.711863	-0.208177	0.250672
Zn6	Zn	1.211863	0.291823	0.750672
Zn7	Zn	0.711835	-0.295583	0.355875
Zn8	Zn	1.211835	0.204417	0.855875
O9	O	0.755555	-0.251881	0.303282
O10	O	1.255555	0.248119	0.803282
O11	O	0.872458	-0.219771	0.341979
O12	O	1.372458	0.280229	0.841979
O13	O	0.787608	-0.284002	0.162562
O14	O	1.287608	0.215998	0.662562
O15	O	0.723510	-0.135011	0.264669
O16	O	1.223510	0.364989	0.764669
O17	O	0.872396	-0.283998	0.264628
O18	O	1.372396	0.216002	0.764628
O19	O	0.787752	-0.135008	0.342003
O20	O	1.287752	0.364992	0.842003
O21	O	0.723428	-0.219779	0.162580
O22	O	1.223428	0.280221	0.662580
O23	O	0.638694	-0.219769	0.264614
O24	O	1.138694	0.280231	0.764614
O25	O	0.723461	-0.283982	0.443972
O26	O	1.223461	0.216018	0.943972
O27	O	0.638673	-0.283986	0.341906
O28	O	1.138673	0.216014	0.841906
O29	O	0.787724	-0.219762	0.444014
O30	O	1.287724	0.280238	0.944014
O31	O	0.787580	-0.368756	0.264573
O32	O	1.287580	0.131244	0.764573
O33	O	0.723379	-0.368749	0.341883
O34	O	1.223379	0.131251	0.841883
C35	C	0.619713	-0.251878	0.303257
C36	C	1.119713	0.248122	0.803257
C37	C	0.561599	-0.251889	0.303261
C38	C	1.061599	0.248111	0.803261
C39	C	0.201262	-0.218491	0.343626
C40	C	0.701262	0.281509	0.843626
C41	C	0.146658	-0.218490	0.343630
C42	C	0.646658	0.281510	0.843630
O43	O	0.118444	-0.190084	0.377918
O44	O	0.618444	0.309916	0.877918
N45	N	0.119316	-0.251880	0.303299
N46	N	0.619316	0.248120	0.803299
C47	C	0.146582	-0.285268	0.262957
C48	C	0.646582	0.214732	0.762957
O49	O	0.118311	-0.313668	0.228653
O50	O	0.618311	0.186332	0.728653
C51	C	0.201185	-0.285265	0.262951
C52	C	0.701185	0.214735	0.762951
C53	C	0.228524	-0.251877	0.303289
C54	C	0.728524	0.248123	0.803289
C55	C	0.228602	-0.185105	0.383960
C56	C	0.728602	0.314895	0.883960
C57	C	0.283202	-0.185106	0.383957
C58	C	0.783202	0.314894	0.883957
C59	C	0.310464	-0.218493	0.343620
C60	C	0.810464	0.281507	0.843620
C61	C	0.283125	-0.251879	0.303285
C62	C	0.783125	0.248121	0.803285
C63	C	0.228449	-0.318650	0.222606
C64	C	0.728449	0.181350	0.722606
C65	C	0.283056	-0.318645	0.222603
C66	C	0.783056	0.181355	0.722603
C67	C	0.310395	-0.285257	0.262941
C68	C	0.810395	0.214743	0.762941
C69	C	0.364987	-0.285267	0.262945
C70	C	0.864987	0.214733	0.762945
N71	N	0.392328	-0.251877	0.303276
N72	N	0.892328	0.248123	0.803276
C73	C	0.365067	-0.218491	0.343613
C74	C	0.865067	0.281509	0.843613
C75	C	0.031911	-0.285270	0.262974
C76	C	0.531911	0.214730	0.762974
C77	C	-0.022691	-0.285276	0.262983
C78	C	0.477309	0.214724	0.762983
C79	C	-0.022611	-0.218497	0.343655
C80	C	0.477389	0.281503	0.843655
C81	C	0.031992	-0.218495	0.343648
C82	C	0.531992	0.281505	0.843648
C83	C	0.059253	-0.251881	0.303304
C84	C	0.559253	0.248119	0.803304
C85	C	0.479732	-0.218496	0.343603
C86	C	0.979732	0.281504	0.843603
C87	C	0.534337	-0.218502	0.343598
C88	C	1.034337	0.281498	0.843598
C89	C	0.534252	-0.285278	0.262925
C90	C	1.034252	0.214722	0.762925
C91	C	0.479652	-0.285275	0.262932
C92	C	0.979652	0.214725	0.762932
C93	C	0.452393	-0.251879	0.303273
C94	C	0.952393	0.248121	0.803273
O95	O	0.393235	-0.313657	0.228672
O96	O	0.893235	0.186343	0.728672
O97	O	0.393344	-0.190091	0.377906
O98	O	0.893344	0.309909	0.877906
C99	C	0.755482	-0.387724	0.303233
C100	C	1.255482	0.112276	0.803233
C101	C	0.755498	-0.445838	0.303233
C102	C	1.255498	0.054162	0.803233
C103	C	0.789023	-0.806161	0.343622
C104	C	1.289023	-0.306161	0.843622
C105	C	0.789038	-0.860765	0.343635
C106	C	1.289038	-0.360765	0.843635
O107	O	0.817455	-0.888967	0.377925
O108	O	1.317455	-0.388967	0.877925
N109	N	0.755628	-0.888120	0.303343
N110	N	1.255628	-0.388120	0.803343
C111	C	0.722196	-0.860868	0.263039
C112	C	1.222196	-0.360868	0.763039
O113	O	0.693779	-0.889150	0.228769
O114	O	1.193779	-0.389150	0.728769
C115	C	0.722179	-0.806265	0.263030
C116	C	1.222179	-0.306265	0.763030
C117	C	0.755595	-0.778912	0.303321
C118	C	1.255595	-0.278912	0.803321
C119	C	0.822436	-0.778808	0.383910
C120	C	1.322436	-0.278808	0.883910
C121	C	0.822421	-0.724207	0.383896
C122	C	1.322421	-0.224207	0.883896
C123	C	0.788993	-0.696959	0.343595
C124	C	1.288993	-0.196959	0.843595
C125	C	0.755580	-0.724312	0.303307
C126	C	1.255580	-0.224312	0.803307
C127	C	0.688744	-0.779014	0.222731
C128	C	1.188744	-0.279014	0.722731
C129	C	0.688729	-0.724407	0.222725
C130	C	1.188729	-0.224407	0.722725
C131	C	0.722146	-0.697055	0.263016
C132	C	1.222146	-0.197055	0.763016
C133	C	0.722137	-0.642463	0.262992
C134	C	1.222137	-0.142463	0.762992
N135	N	0.755547	-0.615108	0.303284
N136	N	1.255547	-0.115108	0.803284
C137	C	0.788976	-0.642356	0.343586
C138	C	1.288976	-0.142356	0.843586
C139	C	0.722235	-0.975539	0.263063
C140	C	1.222235	-0.475539	0.763063
C141	C	0.722255	-1.030141	0.263068
C142	C	1.222255	-0.530141	0.763068
C143	C	0.789097	-1.030034	0.343665
C144	C	1.289097	-0.530034	0.843665
C145	C	0.789079	-0.975431	0.343655
C146	C	1.289079	-0.475431	0.843655
C147	C	0.755646	-0.948184	0.303355
C148	C	1.255646	-0.448184	0.803355
C149	C	0.788942	-0.527691	0.343553
C150	C	1.288942	-0.027691	0.843553
C151	C	0.788926	-0.473086	0.343534
C152	C	1.288926	0.026914	0.843534
C153	C	0.722082	-0.473198	0.262940
C154	C	1.222082	0.026802	0.762940
C155	C	0.722100	-0.527798	0.262957
C156	C	1.222100	-0.027798	0.762957
C157	C	0.755532	-0.555044	0.303268
C158	C	1.255532	-0.055044	0.803268
O159	O	0.693734	-0.614226	0.228721
O160	O	1.193734	-0.114226	0.728721
O161	O	0.817383	-0.614068	0.377856
O162	O	1.317383	-0.114068	0.877856
C163	C	0.891928	-0.251885	0.303307
C164	C	1.391928	0.248115	0.803307
C165	C	0.950042	-0.251887	0.303318
C166	C	1.450042	0.248113	0.803318
C167	C	0.755599	-0.251870	0.467472
C168	C	1.255599	0.248130	0.967472
C169	C	0.755617	-0.251865	0.537440
C170	C	1.255617	0.248135	1.037440
C171	C	0.755644	-0.115508	0.303345
C172	C	1.255644	0.384492	0.803345
C173	C	0.755682	-0.057394	0.303372
C174	C	1.255682	0.442606	0.803372
C175	C	0.755542	-0.251854	0.139730
C176	C	1.255542	0.248146	0.639730
C177	C	0.755625	-0.251712	0.069763
C178	C	1.255625	0.248288	0.569763
C179	C	0.789078	-0.218424	0.570330
C180	C	1.289078	0.281576	1.070330
C181	C	0.789077	-0.218402	0.636072
C182	C	1.289077	0.281598	1.136072
C183	C	0.755621	-0.251829	0.668923
C184	C	1.255621	0.248171	1.168923
C185	C	0.722154	-0.285273	0.636026
C186	C	1.222154	0.214727	1.136026
C187	C	0.722152	-0.285291	0.570284
C188	C	1.222152	0.214709	1.070284
N189	N	0.751586	-0.297568	0.772133
N190	N	1.251586	0.202432	1.272133
N191	N	0.751591	-0.297549	0.834585
N192	N	1.251591	0.202451	1.334585
C193	C	0.755625	-0.251776	0.866998
C194	C	1.255625	0.248224	1.366998
N195	N	0.759664	-0.206022	0.834600
N196	N	1.259664	0.293978	1.334600
N197	N	0.759661	-0.206041	0.772143
N198	N	1.259661	0.293959	1.272143
C199	C	0.755620	-0.251813	0.740208
C200	C	1.255620	0.248187	1.240208
C201	C	0.789086	-0.218308	0.971173
C202	C	1.289086	0.281692	1.471173
C203	C	0.789082	-0.218285	1.036917
C204	C	1.289082	0.281715	1.536917
C205	C	0.722162	-0.285160	1.036869
C206	C	1.222162	0.214840	1.536869
C207	C	0.722163	-0.285179	0.971126
C208	C	1.222163	0.214821	1.471126
C209	C	0.755628	-0.251754	0.938282
C210	C	1.255628	0.248246	1.438282
H211	H	-0.044946	-0.312469	0.230143
H212	H	0.455054	0.187531	0.730143
H213	H	0.694867	-0.451004	0.230125
H214	H	1.194867	0.048996	0.730125
N215	N	0.562254	-0.184386	0.384802
N216	N	1.062254	0.315614	0.884802
N217	N	0.556180	-0.136137	0.380738
N218	N	1.056180	0.363863	0.880738
H219	H	0.575894	-0.112042	0.409836
H220	H	1.075894	0.387958	0.909836
H221	H	0.695050	-1.052407	0.230253
H222	H	1.195050	-0.552407	0.730253
N223	N	0.059908	-0.184379	0.384847
N224	N	0.559908	0.315621	0.884847
N225	N	0.053828	-0.136130	0.380782
N226	N	0.553828	0.363870	0.880782
H227	H	0.073540	-0.112033	0.409879
H228	H	0.573540	0.387967	0.909879
N229	N	0.687994	-0.319348	0.937525
N230	N	1.187994	0.180652	1.437525
N231	N	0.706367	-0.352676	0.900845
N232	N	1.206367	0.147324	1.400845
H233	H	0.682233	-0.376808	0.877113
H234	H	1.182233	0.123192	1.377113
N235	N	0.451901	-0.184385	0.384820
N236	N	0.951901	0.315615	0.884820
N237	N	0.476326	-0.154586	0.420831
N238	N	0.976326	0.345414	0.920831
H239	H	0.456671	-0.130498	0.449945
H240	H	0.956671	0.369502	0.949945
H241	H	0.661533	-0.801275	0.189922
H242	H	1.161533	-0.301275	0.689922
N243	N	0.562113	-0.319380	0.221731
N244	N	1.062113	0.180620	0.721731
N245	N	0.610866	-0.319371	0.221738
N246	N	1.110866	0.180629	0.721738
H247	H	0.630544	-0.343455	0.192642
H248	H	1.130544	0.156545	0.692642
H249	H	0.694916	-0.312372	1.063615
H250	H	1.194916	0.187628	1.563615
H251	H	0.816327	-0.191206	0.543592
H252	H	1.316327	0.308794	1.043592
H253	H	0.816324	-0.191167	0.662856
H254	H	1.316324	0.308833	1.162856
N255	N	-0.050472	-0.184396	0.384857
N256	N	0.449528	0.315604	0.884857
N257	N	-0.099224	-0.184406	0.384851
N258	N	0.400776	0.315594	0.884851
H259	H	-0.118903	-0.160325	0.413949
H260	H	0.381097	0.339675	0.913949
H261	H	0.816329	-0.191050	1.063694
H262	H	1.316329	0.308950	1.563694
N263	N	0.311132	-0.150994	0.425145
N264	N	0.811132	0.349006	0.925145
N265	N	0.359884	-0.150988	0.425139
N266	N	0.859884	0.349012	0.925139
H267	H	0.379608	-0.126892	0.454228
H268	H	0.879608	0.373108	0.954228
N269	N	0.687985	-0.555758	0.221798
N270	N	1.187985	-0.055758	0.721798
N271	N	0.706414	-0.586237	0.181724
N272	N	1.206414	-0.086237	0.681724
H273	H	0.682320	-0.605984	0.152658
H274	H	1.182320	-0.105984	0.652658
N275	N	0.823269	-0.184161	0.937629
N276	N	1.323269	0.315839	1.437629
N277	N	0.853139	-0.154300	0.967006
N278	N	1.353139	0.345700	1.467006
H279	H	0.877281	-0.130183	0.943317
H280	H	1.377281	0.369817	1.443317
N281	N	0.200768	-0.150992	0.425168
N282	N	0.700768	0.349008	0.925168
N283	N	0.225195	-0.121188	0.461172
N284	N	0.725195	0.378812	0.961172
H285	H	0.205542	-0.097095	0.490280
H286	H	0.705542	0.402905	0.990280
H287	H	0.206199	-0.345838	0.189758
H288	H	0.706199	0.154162	0.689758
N289	N	0.059747	-0.319380	0.221758
N290	N	0.559747	0.180620	0.721758
N291	N	0.035323	-0.349187	0.185754
N292	N	0.535323	0.150813	0.685754
H293	H	0.054979	-0.373277	0.156644
H294	H	0.554979	0.126723	0.656644
N295	N	0.310893	-0.352749	0.181383
N296	N	0.810893	0.147251	0.681383
N297	N	0.286472	-0.382552	0.145372
N298	N	0.786472	0.117448	0.645372
H299	H	0.306131	-0.406638	0.116259
H300	H	0.806131	0.093362	0.616259
N301	N	0.687980	-0.319411	0.669588
N302	N	1.187980	0.180589	1.169588
N303	N	0.687986	-0.319391	0.728285
N304	N	1.187986	0.180609	1.228285
H305	H	0.663847	-0.343501	0.751989
H306	H	1.163847	0.156499	1.251989
N307	N	0.451730	-0.319388	0.221732
N308	N	0.951730	0.180612	0.721732
N309	N	0.476080	-0.349197	0.185722
N310	N	0.976080	0.150803	0.685722
H311	H	0.456365	-0.373287	0.156619
H312	H	0.956365	0.126713	0.656619
N313	N	0.687966	-0.319453	0.536695
N314	N	1.187966	0.180547	1.036695
N315	N	0.658093	-0.349294	0.566029
N316	N	1.158093	0.150706	1.066029
H317	H	0.633949	-0.373422	0.542306
H318	H	1.133949	0.126578	1.042306
N319	N	0.823073	-0.445152	0.384683
N320	N	1.323073	0.054848	0.884683
N321	N	0.871319	-0.451219	0.380558
N322	N	1.371319	0.048781	0.880558
H323	H	0.895437	-0.431494	0.409619
H324	H	1.395437	0.068506	0.909619
N325	N	0.823101	-0.555508	0.384726
N326	N	1.323101	-0.055508	0.884726
N327	N	0.871345	-0.549360	0.380599
N328	N	1.371345	-0.049360	0.880599
H329	H	0.895472	-0.569004	0.409674
H330	H	1.395472	-0.069004	0.909674
N331	N	0.856558	-0.696280	0.425057
N332	N	1.356558	-0.196280	0.925057
N333	N	0.886399	-0.720624	0.461035
N334	N	1.386399	-0.220624	0.961035
H335	H	0.910509	-0.700904	0.490109
H336	H	1.410509	-0.200904	0.990109
N337	N	0.823205	-0.947491	0.384819
N338	N	1.323205	-0.447491	0.884819
N339	N	0.804786	-0.917021	0.424909
N340	N	1.304786	-0.417021	0.924909
H341	H	0.828888	-0.897290	0.453983
H342	H	1.328888	-0.397290	0.953983
H343	H	0.816315	-1.052229	0.376481
H344	H	1.316315	-0.552229	0.876481
N345	N	0.856595	-0.806626	0.425078
N346	N	1.356595	-0.306626	0.925078
N347	N	0.904838	-0.800473	0.420951
N348	N	1.404838	-0.300473	0.920951
H349	H	0.928968	-0.820115	0.450026
H350	H	1.428968	-0.320115	0.950026
N351	N	0.688080	-0.947717	0.221887
N352	N	1.188080	-0.447717	0.721887
N353	N	0.658253	-0.972153	0.185918
N354	N	1.158253	-0.472153	0.685918
H355	H	0.634130	-0.952506	0.156839
H356	H	1.134130	-0.452506	0.656839
H357	H	0.661502	-0.702225	0.189909
H358	H	1.161502	-0.202225	0.689909
