data_functionalizedCrystal
_audit_creation_method	'MofGen! by Chris Wilmer'
_symmetry_space_group_name_H-M	'P1'
_symmetry_Int_Tables_number	1
_symmetry_cell_setting	triclinic
loop_
_symmetry_equiv_pos_as_xyz
  x,y,z
_cell_length_a	12.759401
_cell_length_b	19.805405
_cell_length_c	19.805399
_cell_angle_alpha	90.029301
_cell_angle_beta	90.016658
_cell_angle_gamma	90.025574
loop_
_atom_site_label
_atom_site_type_symbol
_atom_site_fract_x
_atom_site_fract_y
_atom_site_fract_z
Zn1	Zn	1.606138	-0.269494	0.382659
Zn2	Zn	2.106138	0.230506	0.882659
Zn3	Zn	1.606006	-0.382682	0.269467
Zn4	Zn	2.106006	0.117318	0.769467
Zn5	Zn	1.430449	-0.269511	0.269489
Zn6	Zn	1.930449	0.230489	0.769489
Zn7	Zn	1.430393	-0.382645	0.382620
Zn8	Zn	1.930393	0.117355	0.882620
O9	O	1.518247	-0.326083	0.326059
O10	O	2.018247	0.173917	0.826059
O11	O	1.753142	-0.284517	0.367651
O12	O	2.253142	0.215483	0.867651
O13	O	1.582686	-0.367693	0.174754
O14	O	2.082686	0.132307	0.674754
O15	O	1.453834	-0.174792	0.284527
O16	O	1.953834	0.325208	0.784527
O17	O	1.753044	-0.367676	0.284490
O18	O	2.253044	0.132324	0.784490
O19	O	1.582912	-0.174780	0.367672
O20	O	2.082912	0.325220	0.867672
O21	O	1.453706	-0.284546	0.174770
O22	O	1.953706	0.215454	0.674770
O23	O	1.283421	-0.284510	0.284489
O24	O	1.783421	0.215490	0.784489
O25	O	1.453737	-0.367612	0.477342
O26	O	1.953737	0.132388	0.977342
O27	O	1.283379	-0.367629	0.367606
O28	O	1.783379	0.132371	0.867606
O29	O	1.582857	-0.284481	0.477370
O30	O	2.082857	0.215519	0.977370
O31	O	1.582631	-0.477394	0.284452
O32	O	2.082631	0.022606	0.784452
O33	O	1.453609	-0.477366	0.367584
O34	O	1.953609	0.022634	0.867584
C35	C	1.518128	-0.501939	0.326026
C36	C	2.018128	-0.001939	0.826026
C37	C	1.518174	-0.577171	0.326035
C38	C	2.018174	-0.077171	0.826035
C39	C	1.245279	-0.326068	0.326046
C40	C	1.745279	0.173932	0.826046
C41	C	1.128503	-0.326077	0.326056
C42	C	1.628503	0.173923	0.826056
C43	C	1.585421	-0.612507	0.282793
C44	C	2.085421	-0.112507	0.782793
C45	C	1.585466	-0.683196	0.282808
C46	C	2.085466	-0.183196	0.782808
C47	C	1.518257	-0.718547	0.326062
C48	C	2.018257	-0.218547	0.826062
C49	C	1.451007	-0.683206	0.369308
C50	C	1.951007	-0.183206	0.869308
C51	C	1.450969	-0.612518	0.369296
C52	C	1.950969	-0.112518	0.869296
C53	C	1.451162	-0.968279	0.369358
C54	C	1.951162	-0.468279	0.869358
C55	C	1.451204	-1.038971	0.369366
C56	C	1.951204	-0.538971	0.869366
C57	C	1.585659	-1.038956	0.282870
C58	C	2.085659	-0.538956	0.782870
C59	C	1.585621	-0.968269	0.282858
C60	C	2.085621	-0.468269	0.782858
C61	C	1.518375	-0.932934	0.326107
C62	C	2.018375	-0.432934	0.826107
C63	C	1.518329	-0.856286	0.326091
C64	C	2.018329	-0.356286	0.826091
C65	C	1.518297	-0.795194	0.326075
C66	C	2.018297	-0.295194	0.826075
C67	C	1.073632	-0.282741	0.282857
C68	C	1.573632	0.217259	0.782857
C69	C	0.963907	-0.282756	0.282866
C70	C	1.463907	0.217244	0.782866
C71	C	0.963935	-0.369447	0.369279
C72	C	1.463935	0.130553	0.869279
C73	C	1.073657	-0.369434	0.369267
C74	C	1.573657	0.130566	0.869267
C75	C	0.813909	-0.258485	0.203103
C76	C	1.313909	0.241515	0.703103
C77	C	0.759034	-0.215137	0.159909
C78	C	1.259034	0.284863	0.659909
C79	C	0.794664	-0.149076	0.149635
C80	C	1.294664	0.350924	0.649635
C81	C	0.885168	-0.126348	0.182564
C82	C	1.385168	0.373652	0.682564
C83	C	0.940037	-0.169692	0.225763
C84	C	1.440037	0.330308	0.725763
C85	C	0.904408	-0.235763	0.236024
C86	C	1.404408	0.264237	0.736024
C87	C	1.223658	-0.393699	0.449030
C88	C	1.723658	0.106301	0.949030
C89	C	1.278529	-0.437040	0.492233
C90	C	1.778529	0.062960	0.992233
C91	C	1.242901	-0.503103	0.502514
C92	C	1.742901	-0.003103	1.002514
C93	C	1.152394	-0.525828	0.469597
C94	C	1.652394	-0.025828	0.969597
C95	C	1.097523	-0.482487	0.426394
C96	C	1.597523	0.017513	0.926394
C97	C	1.133159	-0.416425	0.416112
C98	C	1.633159	0.083575	0.916112
C99	C	1.792280	-0.326099	0.326072
C100	C	2.292280	0.173901	0.826072
C101	C	1.909056	-0.326106	0.326078
C102	C	2.409056	0.173894	0.826078
C103	C	1.518306	-0.326040	0.502602
C104	C	2.018306	0.173960	1.002602
C105	C	1.518331	-0.326022	0.577834
C106	C	2.018331	0.173978	1.077834
C107	C	1.518394	-0.149540	0.326106
C108	C	2.018394	0.350460	0.826106
C109	C	1.518457	-0.074308	0.326127
C110	C	2.018457	0.425692	0.826127
C111	C	1.518248	-0.326077	0.150203
C112	C	2.018248	0.173923	0.650203
C113	C	1.518427	-0.325904	0.074971
C114	C	2.018427	0.174096	0.574971
C115	C	1.585565	-0.282734	0.613194
C116	C	2.085565	0.217266	1.113194
C117	C	1.585575	-0.282714	0.683882
C118	C	2.085575	0.217286	1.183882
C119	C	1.518357	-0.325987	0.719209
C120	C	2.018357	0.174013	1.219209
C121	C	1.451115	-0.369277	0.683844
C122	C	1.951115	0.130723	1.183844
C123	C	1.451100	-0.369293	0.613157
C124	C	1.951100	0.130707	1.113157
C125	C	1.451175	-0.369214	0.968918
C126	C	1.951175	0.130786	1.468918
C127	C	1.451197	-0.369197	1.039610
C128	C	1.951197	0.130803	1.539610
C129	C	1.585650	-0.282635	1.039643
C130	C	2.085650	0.217365	1.539643
C131	C	1.585635	-0.282651	0.968956
C132	C	2.085635	0.217349	1.468956
C133	C	1.518390	-0.325939	0.933597
C134	C	2.018390	0.174061	1.433597
C135	C	1.518378	-0.325958	0.856948
C136	C	2.018378	0.174042	1.356948
C137	C	1.518374	-0.325971	0.795856
C138	C	2.018374	0.174029	1.295856
H139	H	1.640145	-0.583729	0.247568
H140	H	2.140145	-0.083729	0.747568
H141	H	1.023824	-0.500995	0.399594
H142	H	1.523824	-0.000995	0.899594
H143	H	0.914166	-0.072552	0.174199
H144	H	1.414166	0.427448	0.674199
H145	H	1.396211	-0.583748	0.404509
H146	H	1.896211	-0.083748	0.904509
Cl147	Cl	1.107595	-0.608880	0.482524
Cl148	Cl	1.607595	-0.108880	0.982524
H149	H	1.640418	-1.067734	0.247657
H150	H	2.140418	-0.567734	0.747657
Cl151	Cl	1.670012	-0.727615	0.228446
Cl152	Cl	2.170012	-0.227615	0.728446
Cl153	Cl	1.142576	-0.228238	0.228532
Cl154	Cl	1.642576	0.271762	0.728532
Cl155	Cl	1.366608	-0.423676	0.728255
Cl156	Cl	1.866608	0.076324	1.228255
H157	H	1.640344	-0.939488	0.247634
H158	H	2.140344	-0.439488	0.747634
Cl159	Cl	1.053807	-0.141127	0.267155
Cl160	Cl	1.553807	0.358873	0.767155
H161	H	1.396289	-0.711994	0.404529
H162	H	1.896289	-0.211994	0.904529
H163	H	0.749977	-0.113782	0.114465
H164	H	1.249977	0.386218	0.614465
H165	H	0.685346	-0.233649	0.133099
H166	H	1.185346	0.266351	0.633099
H167	H	1.396475	-1.067752	0.404593
H168	H	1.896475	-0.567752	0.904593
H169	H	1.396341	-0.404536	0.584368
H170	H	1.896341	0.095464	1.084368
H171	H	1.287579	-0.538387	0.537702
H172	H	1.787579	-0.038387	1.037702
Cl173	Cl	0.769055	-0.341517	0.216064
Cl174	Cl	1.269055	0.158483	0.716064
H175	H	1.352209	-0.418525	0.519050
H176	H	1.852209	0.081475	1.019050
H177	H	1.252681	-0.339907	0.440658
H178	H	1.752681	0.160093	0.940658
Cl179	Cl	1.670149	-0.228321	0.728332
Cl180	Cl	2.170149	0.271679	1.228332
Cl181	Cl	1.366686	-0.423601	1.084020
Cl182	Cl	1.866686	0.076399	1.584020
Cl183	Cl	1.670144	-0.228251	0.924549
Cl184	Cl	2.170144	0.271749	1.424549
H185	H	0.919267	-0.404746	0.404460
H186	H	1.419267	0.095254	0.904460
Cl187	Cl	1.670078	-0.228333	0.568790
Cl188	Cl	2.170078	0.271667	1.068790
H189	H	1.640400	-0.247386	1.068441
H190	H	2.140400	0.252614	1.568441
H191	H	1.396435	-0.404472	0.940137
H192	H	1.896435	0.095528	1.440137
H193	H	1.396406	-0.939515	0.404572
H194	H	1.896406	-0.439515	0.904572
