data_functionalizedCrystal
_audit_creation_method	'MofGen! by Chris Wilmer'
_symmetry_space_group_name_H-M	'P1'
_symmetry_Int_Tables_number	1
_symmetry_cell_setting	triclinic
loop_
_symmetry_equiv_pos_as_xyz
  x,y,z
_cell_length_a	11.792241
_cell_length_b	23.532407
_cell_length_c	10.868271
_cell_angle_alpha	89.990218
_cell_angle_beta	89.999893
_cell_angle_gamma	83.521047
loop_
_atom_site_label
_atom_site_type_symbol
_atom_site_fract_x
_atom_site_fract_y
_atom_site_fract_z
O1	O	1.505071	0.078055	-0.102217
O2	O	1.174541	0.086099	-0.102247
O3	O	1.349773	-0.000796	-0.102208
O4	O	1.329839	0.164950	-0.102255
O5	O	1.349759	-0.000799	0.102436
O6	O	1.174526	0.086096	0.102398
O7	O	1.505057	0.078051	0.102428
Zn8	Zn	1.339789	0.082073	0.134905
Zn9	Zn	1.339808	0.082078	-0.134723
O10	O	1.329824	0.164946	0.102390
C11	C	1.132254	0.085592	0.000072
C12	C	1.006276	0.084080	0.000062
C13	C	1.349258	-0.022016	0.000117
C14	C	1.347732	-0.085242	0.000127
C15	C	0.775630	0.081299	0.000098
C16	C	0.903978	0.082844	0.000078
C17	C	1.441858	-0.483788	0.000068
C18	C	1.440440	-0.543196	0.000058
O19	O	1.527696	-0.579424	0.000021
N20	N	1.336265	-0.566440	0.000050
C21	C	1.233500	-0.530271	0.000038
O22	O	1.144761	-0.555497	0.000029
C23	C	1.234919	-0.470864	0.000039
C24	C	1.339102	-0.447624	0.000060
C25	C	1.546032	-0.460547	0.000087
C26	C	1.547449	-0.401142	0.000099
C27	C	1.444693	-0.364979	0.000091
C28	C	1.340519	-0.388219	0.000072
C29	C	1.132156	-0.434696	0.000018
C30	C	1.133584	-0.375285	0.000018
C31	C	1.237766	-0.352045	0.000039
C32	C	1.239180	-0.292651	0.000075
N33	N	1.343355	-0.269407	0.000084
C34	C	1.446112	-0.305571	0.000092
C35	C	1.230528	-0.655031	0.000034
C36	C	1.229108	-0.714438	0.000043
C37	C	1.436049	-0.727359	0.000061
C38	C	1.437468	-0.667951	0.000061
C39	C	1.334704	-0.631788	0.000043
C40	C	1.449080	-0.180817	0.000118
C41	C	1.450489	-0.121406	0.000135
C42	C	1.243549	-0.108491	0.000110
C43	C	1.242140	-0.167896	0.000100
C44	C	1.344915	-0.204058	0.000099
O45	O	1.151970	-0.256388	0.000108
O46	O	1.534837	-0.280337	0.000085
C47	C	1.547343	0.078558	0.000107
C48	C	1.673321	0.080071	0.000109
C49	C	1.330339	0.186167	0.000061
C50	C	1.331865	0.249393	0.000044
N51	N	1.339785	0.082070	0.318919
N52	N	1.339822	0.082077	-0.318737
C53	C	1.339802	0.082076	0.569925
C54	C	1.339789	0.082074	0.430247
H55	H	1.535330	-0.102488	0.000155
C56	C	0.957639	-0.345975	-0.105209
C57	C	1.020619	-0.335536	0.000001
H58	H	0.887898	-0.321438	-0.105211
H59	H	1.000392	-0.338882	-0.176551
H60	H	0.941901	-0.384685	-0.105204
H61	H	1.036365	-0.296827	-0.000008
H62	H	0.977858	-0.342625	0.071362
H63	H	1.532770	-0.210254	0.000113
H64	H	1.159887	-0.079035	0.000108
C65	C	1.107457	-0.773732	-0.105173
C66	C	1.114589	-0.739980	0.000032
H67	H	1.036758	-0.789502	-0.105179
H68	H	1.112318	-0.750817	-0.176518
H69	H	1.168452	-0.803775	-0.105158
H70	H	1.053599	-0.709935	0.000012
H71	H	1.109718	-0.762897	0.071396
H72	H	1.632285	-0.382226	0.000111
C73	C	1.112045	-0.580723	-0.105169
C74	C	1.117558	-0.615283	0.000031
H75	H	1.042299	-0.556189	-0.105173
H76	H	1.174274	-0.558375	-0.105154
H77	H	1.115804	-0.604167	-0.176525
H78	H	1.113808	-0.591839	0.071388
H79	H	1.055312	-0.637633	0.000028
H80	H	1.047320	-0.453608	-0.000006
H81	H	1.629714	-0.489986	0.000089
H82	H	1.522302	-0.649034	0.000077
C83	C	1.525746	-0.824168	0.000030
C84	C	1.549004	-0.767118	0.000048
H85	H	1.595476	-0.848714	0.000013
H86	H	1.483010	-0.831253	0.071389
H87	H	1.482992	-0.831230	-0.071340
H88	H	1.591751	-0.760055	0.071422
H89	H	1.591757	-0.760031	-0.071319
H90	H	1.157306	-0.186819	0.000117
