data_functionalizedCrystal
_audit_creation_method	'MofGen! by Chris Wilmer'
_symmetry_space_group_name_H-M	'P1'
_symmetry_Int_Tables_number	1
_symmetry_cell_setting	triclinic
loop_
_symmetry_equiv_pos_as_xyz
  x,y,z
_cell_length_a	10.654550
_cell_length_b	10.654550
_cell_length_c	9.130313
_cell_angle_alpha	90.004369
_cell_angle_beta	90.007043
_cell_angle_gamma	84.484916
loop_
_atom_site_label
_atom_site_type_symbol
_atom_site_fract_x
_atom_site_fract_y
_atom_site_fract_z
O1	O	-1.667840	-0.176398	-0.121919
O2	O	-1.302361	-0.193205	-0.121896
O3	O	-1.493503	-0.002062	-0.121899
O4	O	-1.476697	-0.367541	-0.121916
O5	O	-1.493490	-0.002057	0.121700
O6	O	-1.302348	-0.193199	0.121703
O7	O	-1.667826	-0.176393	0.121679
Cu8	Cu	-1.485086	-0.184795	0.143934
Cu9	Cu	-1.485101	-0.184802	-0.144150
O10	O	-1.476684	-0.367535	0.121682
C11	C	-1.255556	-0.191968	-0.000093
C12	C	-1.116113	-0.188276	-0.000084
C13	C	-1.492263	0.044739	-0.000100
C14	C	-1.488571	0.184182	-0.000102
C15	C	-1.714631	-0.177630	-0.000126
C16	C	-1.854074	-0.181321	-0.000145
C17	C	-1.036628	-0.300817	-0.000111
C18	C	-0.905607	-0.297341	-0.000136
C19	C	-0.933570	-0.068771	-0.000114
C20	C	-1.064588	-0.072249	-0.000078
C21	C	-1.088152	-0.416844	-0.000117
C22	C	-1.008665	-0.529395	-0.000145
C23	C	-0.877645	-0.525918	-0.000170
C24	C	-0.826111	-0.409891	-0.000167
N25	N	-1.485084	-0.184790	0.346556
C26	C	-1.477925	-0.414336	-0.000120
C27	C	-1.481617	-0.553779	-0.000127
C28	C	-1.601112	0.263667	-0.000110
C29	C	-1.597636	0.394688	-0.000128
C30	C	-1.369066	0.366725	-0.000124
C31	C	-1.372544	0.235707	-0.000117
N32	N	-1.485113	-0.184798	-0.346773
C33	C	-1.569751	-0.100188	0.423207
C34	C	-1.569763	-0.100188	0.576544
C35	C	-1.400437	-0.269403	0.576566
C36	C	-1.400420	-0.269396	0.423232
H37	H	-1.050633	-0.623860	-0.000135
H38	H	-1.129308	0.019392	-0.000061
C39	C	-1.183669	-0.341117	0.623846
C40	C	-1.307383	-0.362400	0.660859
H41	H	-1.126223	-0.398526	0.675893
H42	H	-1.171546	-0.353228	0.521569
H43	H	-1.169331	-0.257164	0.648999
H44	H	-1.321724	-0.446351	0.635696
H45	H	-1.319511	-0.350299	0.763159
H46	H	-1.194834	-0.419688	-0.000103
C47	C	-0.863171	-0.752196	-0.000201
C48	C	-0.790271	-0.649629	-0.000200
H49	H	-0.809229	-0.828571	-0.000233
H50	H	-0.914827	-0.748803	0.084755
H51	H	-0.914883	-0.748783	-0.085142
H52	H	-0.738566	-0.653037	0.084748
H53	H	-0.738594	-0.653024	-0.085164
H54	H	-0.719424	-0.407069	-0.000165
C55	C	-1.232570	0.497846	-0.125345
C56	C	-1.241537	0.423372	-0.000123
H57	H	-1.153839	0.532820	-0.125333
H58	H	-1.238674	0.447307	-0.210277
H59	H	-1.299107	0.563931	-0.125333
H60	H	-1.175005	0.357280	-0.000140
H61	H	-1.235420	0.473913	0.084831
H62	H	-1.280893	0.170986	-0.000115
H63	H	-0.891600	0.025693	-0.000136
C64	C	-1.737110	0.067083	0.438592
C65	C	-1.662799	-0.007179	0.338924
H66	H	-1.794548	0.124511	0.386559
H67	H	-1.782743	0.014382	0.498370
H68	H	-1.684434	0.112737	0.498425
H69	H	-1.715476	-0.052840	0.279097
H70	H	-1.617164	0.045530	0.279120
C71	C	-1.328545	-0.486139	0.375992
C72	C	-1.307351	-0.362402	0.338966
H73	H	-1.271093	-0.543550	0.323961
H74	H	-1.316434	-0.498247	0.478272
H75	H	-1.412480	-0.500541	0.350828
H76	H	-1.223419	-0.347997	0.364139
H77	H	-1.319453	-0.350289	0.236663
H78	H	-1.695588	0.221721	-0.000102
H79	H	-1.689279	0.459401	-0.000137
H80	H	-1.638704	-0.031296	0.638948
