data_functionalizedCrystal
_audit_creation_method	'MofGen! by Chris Wilmer'
_symmetry_space_group_name_H-M	'P1'
_symmetry_Int_Tables_number	1
_symmetry_cell_setting	triclinic
loop_
_symmetry_equiv_pos_as_xyz
  x,y,z
_cell_length_a	14.853567
_cell_length_b	14.044220
_cell_length_c	13.930277
_cell_angle_alpha	89.994760
_cell_angle_beta	89.995755
_cell_angle_gamma	88.411904
loop_
_atom_site_label
_atom_site_type_symbol
_atom_site_fract_x
_atom_site_fract_y
_atom_site_fract_z
O1	O	1.206174	0.123767	-0.079767
O2	O	0.944883	0.138510	-0.079784
O3	O	1.071607	-0.006851	-0.079766
O4	O	1.079450	0.269128	-0.079785
O5	O	1.071587	-0.006854	0.079896
O6	O	0.944863	0.138507	0.079878
O7	O	1.206155	0.123764	0.079895
Zn8	Zn	1.075506	0.131135	0.105236
Zn9	Zn	1.075532	0.131139	-0.105125
O10	O	1.079431	0.269125	0.079877
C11	C	0.911231	0.137841	0.000045
C12	C	0.810989	0.135839	0.000039
C13	C	0.390944	0.041029	0.000067
C14	C	0.383345	0.213721	0.000054
C15	C	0.477528	0.215604	0.000051
C16	C	0.528423	0.130197	0.000054
C17	C	0.485135	0.042908	0.000061
C18	C	0.520822	0.302891	0.000035
C19	C	0.615011	0.304777	0.000031
C20	C	0.665908	0.219369	0.000041
C21	C	0.622615	0.132077	0.000048
C22	C	0.673510	0.046670	0.000052
C23	C	0.630218	-0.040623	0.000066
C24	C	0.536032	-0.042499	0.000071
C25	C	0.760094	0.221246	0.000036
C26	C	0.767702	0.048550	0.000046
C27	C	1.068163	-0.042172	0.000065
C28	C	1.057921	-0.147411	0.000066
C29	C	1.039197	-0.340097	0.000051
C30	C	1.111836	-0.397635	0.000052
C31	C	1.101418	-0.504852	0.000044
C32	C	1.049614	-0.232870	0.000059
C33	C	1.239806	0.124433	0.000064
C34	C	1.340048	0.126435	0.000064
C35	C	1.082874	0.304446	0.000044
C36	C	1.093116	0.409685	0.000037
N37	N	1.075495	0.131132	0.248802
N38	N	1.075549	0.131135	-0.248691
C39	C	1.019414	0.195480	0.701064
C40	C	1.131673	0.066791	0.701049
C41	C	1.131663	0.066788	0.600553
C42	C	1.075527	0.131133	0.550308
C43	C	1.019403	0.195481	0.600559
C44	C	1.187792	0.002448	0.550295
C45	C	1.187784	0.002443	0.449793
C46	C	1.131644	0.066784	0.399546
C47	C	1.075517	0.131134	0.449803
C48	C	1.019382	0.195479	0.399558
C49	C	0.963249	0.259825	0.449813
C50	C	0.963263	0.259822	0.550312
C51	C	1.131630	0.066787	0.299047
C52	C	1.019371	0.195480	0.299053
H53	H	0.671670	-0.110161	0.000062
O54	O	0.333774	0.296592	0.000093
C55	C	0.241359	0.276216	0.000072
H56	H	0.231763	0.201749	0.030301
H57	H	0.214455	0.279779	-0.076526
C58	C	0.201505	0.441196	0.025557
C59	C	0.189718	0.349738	0.062692
H60	H	0.169648	0.486550	0.064180
H61	H	0.263766	0.454926	0.025568
H62	H	0.179085	0.444152	-0.038274
H63	H	0.212148	0.346780	0.126517
H64	H	0.127459	0.336010	0.062694
H65	H	1.181849	-0.366371	-0.000008
H66	H	0.479377	0.372424	0.000023
H67	H	0.809134	-0.021000	0.000052
H68	H	0.969191	-0.371358	0.000044
O69	O	0.964940	0.258118	0.250292
C70	C	0.987123	0.351989	0.274863
H71	H	1.059350	0.352592	0.302478
H72	H	0.939390	0.379730	0.333206
C73	C	0.889559	0.415497	0.151669
C74	C	0.978272	0.416239	0.185579
H75	H	0.884096	0.455132	0.096596
H76	H	0.874611	0.352255	0.135117
H77	H	0.849791	0.438613	0.200297
H78	H	1.018036	0.393113	0.136956
H79	H	0.993227	0.479479	0.202120
O80	O	0.908822	0.322460	0.401044
C81	C	0.931003	0.416333	0.425608
H82	H	1.003226	0.416939	0.453233
H83	H	0.883262	0.444081	0.483942
C84	C	0.833454	0.479830	0.302394
C85	C	0.922163	0.480575	0.336316
H86	H	0.827998	0.519459	0.247317
H87	H	0.818508	0.416586	0.285847
H88	H	0.793681	0.502951	0.351014
H89	H	0.961933	0.457443	0.287701
H90	H	0.937116	0.543816	0.352853
O91	O	0.493936	-0.127264	-0.000093
C92	C	0.439670	-0.133499	-0.082771
H93	H	0.465906	-0.083933	-0.140569
H94	H	0.367267	-0.111719	-0.064077
C95	C	0.410535	-0.297563	-0.049274
C96	C	0.442763	-0.236691	-0.120265
H97	H	0.412439	-0.361217	-0.072400
H98	H	0.447092	-0.293362	0.006430
H99	H	0.350202	-0.279402	-0.033702
H100	H	0.503098	-0.254845	-0.135827
H101	H	0.406216	-0.240897	-0.175973
H102	H	0.650251	0.375856	0.000019
O103	O	0.802290	0.305948	-0.000019
C104	C	0.896335	0.289296	0.000007
H105	H	0.912468	0.215344	-0.030211
H106	H	0.922878	0.293924	0.076605
C107	C	0.921602	0.455578	-0.025500
C108	C	0.941418	0.364753	-0.062623
H109	H	0.949413	0.502125	-0.064129
H110	H	0.858243	0.466799	-0.025514
H111	H	0.943722	0.459421	0.038331
H112	H	0.919288	0.360907	-0.126447
H113	H	1.004775	0.353533	-0.062621
H114	H	0.917562	0.312211	0.591236
H115	H	0.973709	0.247867	0.741984
H116	H	1.177382	0.014408	0.741962
H117	H	1.233501	-0.049936	0.591208
O118	O	1.186270	0.004431	0.250199
C119	C	1.245947	0.055330	0.192044
H120	H	1.253446	0.130101	0.222320
H121	H	1.218136	0.060228	0.115874
C122	C	1.329363	-0.088525	0.153327
C123	C	1.338579	0.003307	0.190518
H124	H	1.386502	-0.120616	0.152382
H125	H	1.289156	-0.122818	0.192504
H126	H	1.306184	-0.084431	0.089856
H127	H	1.361747	-0.000788	0.253991
H128	H	1.378793	0.037599	0.151351
O129	O	0.348753	-0.043682	0.000038
C130	C	0.254708	-0.027035	0.000072
H131	H	0.238572	0.046915	-0.030160
H132	H	0.228163	-0.031663	0.076674
C133	C	0.229450	-0.193320	-0.025397
C134	C	0.209631	-0.102496	-0.062537
H135	H	0.201644	-0.239870	-0.064013
H136	H	0.292810	-0.204537	-0.025417
H137	H	0.207329	-0.197163	0.038437
H138	H	0.231762	-0.098651	-0.126365
H139	H	0.146274	-0.091281	-0.062529
H140	H	1.233489	-0.049952	0.408882
