data_functionalizedCrystal
_audit_creation_method	'MofGen! by Chris Wilmer'
_symmetry_space_group_name_H-M	'P1'
_symmetry_Int_Tables_number	1
_symmetry_cell_setting	triclinic
loop_
_symmetry_equiv_pos_as_xyz
  x,y,z
_cell_length_a	11.026623
_cell_length_b	26.210047
_cell_length_c	11.026607
_cell_angle_alpha	89.992282
_cell_angle_beta	71.413640
_cell_angle_gamma	89.989591
loop_
_atom_site_label
_atom_site_type_symbol
_atom_site_fract_x
_atom_site_fract_y
_atom_site_fract_z
O1	O	-1.726741	0.042429	0.533619
O2	O	-1.360161	0.042429	0.472853
O3	O	-1.513069	0.042427	0.319945
O4	O	-1.573833	0.042431	0.686526
O5	O	-1.513038	-0.042431	0.319968
O6	O	-1.360130	-0.042429	0.472875
O7	O	-1.726710	-0.042429	0.533641
Cu8	Cu	-1.543417	-0.050177	0.503260
Cu9	Cu	-1.543454	0.050177	0.503234
O10	O	-1.573801	-0.042427	0.686548
C11	C	-1.312485	0.000001	0.461654
C12	C	-1.170471	0.000001	0.428236
N13	N	-1.543400	-0.120761	0.503280
C14	C	-1.116822	0.000002	0.520505
C15	C	-0.970043	0.000002	0.485968
C16	C	-1.611157	-0.473276	0.435544
C17	C	-1.611181	-0.686935	0.435532
O18	O	-1.668742	-0.714557	0.377936
N19	N	-1.543454	-0.713655	0.503207
C20	C	-1.475710	-0.686957	0.570883
O21	O	-1.418094	-0.714587	0.628433
C22	C	-1.475679	-0.473300	0.570886
C23	C	-1.543421	-0.446582	0.503217
C24	C	-1.678892	-0.446558	0.367880
C25	C	-1.678891	-0.393147	0.367889
C26	C	-1.611155	-0.366453	0.435562
C27	C	-1.543420	-0.393171	0.503227
C28	C	-1.407928	-0.446603	0.638553
C29	C	-1.407924	-0.393185	0.638546
C30	C	-1.475665	-0.366468	0.570877
C31	C	-1.475682	-0.313065	0.570909
N32	N	-1.543409	-0.286345	0.503235
C33	C	-1.611145	-0.313039	0.435561
C34	C	-1.475733	-0.799131	0.570878
C35	C	-1.475742	-0.852545	0.570879
C36	C	-1.611212	-0.852518	0.435527
C37	C	-1.611209	-0.799103	0.435534
C38	C	-1.543460	-0.772410	0.503203
C39	C	-1.611139	-0.200871	0.435587
C40	C	-1.611136	-0.147455	0.435606
C41	C	-1.475662	-0.147486	0.570953
C42	C	-1.475669	-0.200897	0.570939
C43	C	-1.543411	-0.227589	0.503246
O44	O	-1.418140	-0.285410	0.628464
O45	O	-1.668730	-0.285400	0.377996
C46	C	-1.611158	-0.526687	0.435535
C47	C	-1.543423	-0.553405	0.503199
C48	C	-1.475687	-0.526711	0.570872
C49	C	-1.543432	-0.606819	0.503200
C50	C	-1.611168	-0.633513	0.435527
C51	C	-1.678895	-0.606793	0.367852
C52	C	-1.678894	-0.553381	0.367861
C53	C	-1.407960	-0.553432	0.638547
C54	C	-1.407968	-0.606843	0.638534
C55	C	-1.475704	-0.633537	0.570860
C56	C	-0.774385	0.000001	0.544838
C57	C	-0.916398	0.000003	0.578251
C58	C	-1.501844	-0.000001	0.272297
C59	C	-1.468427	0.000001	0.130283
N60	N	-1.543478	0.120761	0.503206
C61	C	-1.560696	0.000001	0.076634
C62	C	-1.526161	0.000003	-0.070145
C63	C	-1.585027	0.000002	0.734197
C64	C	-1.618444	0.000004	0.876211
H65	H	-1.179555	0.000000	0.625068
H66	H	-1.723014	0.000042	-0.061061
N67	N	-1.680357	-0.228131	0.366466
N68	N	-1.768302	-0.257930	0.424219
H69	H	-1.817193	-0.277183	0.375409
N70	N	-1.338743	-0.634130	0.707639
N71	N	-1.250798	-0.663933	0.649865
H72	H	-1.201898	-0.683203	0.698659
H73	H	-0.907314	0.000014	0.381398
H74	H	-1.107738	0.000013	0.323673
H75	H	-1.363864	0.000004	0.067549
N76	N	-1.680333	-0.120160	0.366484
N77	N	-1.768275	-0.090352	0.424231
H78	H	-1.817142	-0.071077	0.375412
N79	N	-0.995096	-0.000003	0.709430
N80	N	-1.114218	-0.000007	0.737303
H81	H	-1.169801	-0.000012	0.829947
H82	H	-1.734047	-0.371397	0.312783
N83	N	-1.748089	-0.473812	0.298733
N84	N	-1.808551	-0.449940	0.238326
H85	H	-1.857433	-0.469185	0.189492
H86	H	-1.420562	-0.777401	0.625986
N87	N	-1.680318	-0.771807	0.366338
N88	N	-1.652772	-0.777776	0.248163
H89	H	-1.701553	-0.758495	0.199268
N90	N	-1.680373	-0.879799	0.366382
N91	N	-1.680342	-0.927489	0.366381
H92	H	-1.729168	-0.946759	0.317534
N93	N	-1.406561	-0.879825	0.640031
N94	N	-1.346091	-0.855978	0.700445
H95	H	-1.297225	-0.875243	0.749282
N96	N	-1.691880	-0.000007	0.155302
N97	N	-1.778646	-0.000010	0.104938
H98	H	-1.871299	-0.000018	0.160494
H99	H	-1.352766	-0.468349	0.693654
H100	H	-1.352749	-0.371455	0.693648
N101	N	-1.394983	0.000010	-0.148846
N102	N	-1.367114	0.000014	-0.267968
H103	H	-1.274472	0.000019	-0.323554
N104	N	-1.748097	-0.634059	0.298724
N105	N	-1.866274	-0.628092	0.326257
H106	H	-1.915141	-0.647351	0.277433
H107	H	-1.420523	-0.222651	0.626056
H108	H	-1.420516	-0.125744	0.626056
H109	H	-1.734055	-0.531632	0.312759
N110	N	-1.338752	-0.526177	0.707678
N111	N	-1.278288	-0.550046	0.768087
H112	H	-1.229408	-0.530800	0.816920
