data_functionalizedCrystal
_audit_creation_method	'MofGen! by Chris Wilmer'
_symmetry_space_group_name_H-M	'P1'
_symmetry_Int_Tables_number	1
_symmetry_cell_setting	triclinic
loop_
_symmetry_equiv_pos_as_xyz
  x,y,z
_cell_length_a	12.827893
_cell_length_b	12.827892
_cell_length_c	19.076919
_cell_angle_alpha	92.275535
_cell_angle_beta	92.282940
_cell_angle_gamma	90.015553
loop_
_atom_site_label
_atom_site_type_symbol
_atom_site_fract_x
_atom_site_fract_y
_atom_site_fract_z
Zn1	Zn	1.573891	-0.439788	-0.397934
Zn2	Zn	1.580818	-0.607524	-0.280248
Zn3	Zn	1.406164	-0.432799	-0.280257
Zn4	Zn	1.399119	-0.614487	-0.397907
O5	O	1.489998	-0.523650	-0.339086
O6	O	1.721045	-0.462050	-0.382330
O7	O	1.563496	-0.578507	-0.181759
O8	O	1.428463	-0.287491	-0.295882
O9	O	1.726134	-0.585285	-0.295866
O10	O	1.551691	-0.292626	-0.382339
O11	O	1.435179	-0.450137	-0.181766
O12	O	1.258994	-0.456889	-0.295856
O13	O	1.416456	-0.597152	-0.496400
O14	O	1.253818	-0.590374	-0.382293
O15	O	1.544860	-0.468802	-0.496420
O16	O	1.556665	-0.754683	-0.295841
O17	O	1.423172	-0.759799	-0.382285
C18	C	1.218489	-0.523630	-0.339073
C19	C	1.102335	-0.523647	-0.339084
C20	C	0.933027	-0.584543	-0.296255
C21	C	1.053078	-0.584526	-0.296242
C22	C	1.489933	-0.795159	-0.339074
C23	C	1.490000	-0.911313	-0.339092
C24	C	1.556129	-0.960534	-0.296364
C25	C	1.556199	-1.080586	-0.296382
C26	C	1.762567	-0.523670	-0.339100
C27	C	1.878720	-0.523679	-0.339106
C28	C	1.479100	-0.534533	-0.522661
C29	C	1.474455	-0.539172	-0.600890
C30	C	1.490090	-0.251081	-0.339114
C31	C	1.490130	-0.134929	-0.339126
C32	C	1.539123	-0.474528	-0.637654
C33	C	1.534747	-0.478882	-0.711158
C34	C	1.465707	-0.547886	-0.747897
C35	C	1.401032	-0.612531	-0.711129
C36	C	1.405404	-0.608171	-0.637626
C37	C	1.445458	-0.568086	-0.967726
C38	C	1.441093	-0.572443	-1.041234
C39	C	1.574807	-0.438792	-1.041258
C40	C	1.579177	-0.434443	-0.967754
C41	C	1.514498	-0.499085	-0.930992
N42	N	1.461234	-0.552340	-0.823030
N43	N	1.518967	-0.494624	-0.855860
C44	C	1.500914	-0.512733	-0.156226
C45	C	1.505761	-0.507800	-0.077997
H46	H	0.890644	-0.636658	-0.259574
C47	C	1.334266	-0.679286	-0.597186
N48	N	1.280680	-0.732850	-0.566728
H49	H	1.099771	-0.636640	-0.259559
H50	H	1.433441	-0.958050	-0.375689
H51	H	1.612697	-0.913800	-0.259773
H52	H	1.595346	-0.418342	-0.607746
C53	C	1.632685	-1.137781	-0.246960
N54	N	1.690297	-1.180863	-0.209733
H55	H	1.587409	-0.426246	-0.741087
H56	H	1.433507	-1.092597	-0.375706
H57	H	1.635399	-0.378256	-0.937845
C58	C	1.039265	-0.453241	-0.388647
N59	N	0.991753	-0.400208	-0.425976
H60	H	1.627463	-0.386163	-1.071198
C61	C	1.374306	-0.639191	-0.927297
N62	N	1.320708	-0.692750	-0.896844
C63	C	1.365137	-0.648352	-1.081646
N64	N	1.307931	-0.705524	-1.112084
C65	C	1.325077	-0.688426	-0.751545
N66	N	1.267866	-0.745590	-0.781985
H67	H	0.921103	-0.471555	-0.375781
