data_functionalizedCrystal
_audit_creation_method	'MofGen! by Chris Wilmer'
_symmetry_space_group_name_H-M	'P1'
_symmetry_Int_Tables_number	1
_symmetry_cell_setting	triclinic
loop_
_symmetry_equiv_pos_as_xyz
  x,y,z
_cell_length_a	11.792254
_cell_length_b	11.792254
_cell_length_c	14.048226
_cell_angle_alpha	89.993407
_cell_angle_beta	89.993605
_cell_angle_gamma	84.198598
loop_
_atom_site_label
_atom_site_type_symbol
_atom_site_fract_x
_atom_site_fract_y
_atom_site_fract_z
O1	O	1.506910	0.155638	-0.079160
O2	O	2.006910	0.655638	0.420840
O3	O	1.176572	0.171656	-0.079162
O4	O	1.676572	0.671656	0.420838
O5	O	1.349750	-0.001522	-0.079155
O6	O	1.849750	0.498478	0.420845
O7	O	1.333732	0.328816	-0.079168
O8	O	1.833732	0.828816	0.420832
O9	O	1.349729	-0.001533	0.079167
O10	O	1.849729	0.498467	0.579167
O11	O	1.176551	0.171645	0.079159
O12	O	1.676551	0.671645	0.579159
O13	O	1.506889	0.155628	0.079161
O14	O	2.006889	0.655628	0.579161
Zn15	Zn	1.341717	0.163635	0.104297
Zn16	Zn	1.841717	0.663635	0.604297
Zn17	Zn	1.341744	0.163648	-0.104298
Zn18	Zn	1.841744	0.663648	0.395702
O19	O	1.333711	0.328806	0.079153
O20	O	1.833711	0.828806	0.579153
C21	C	1.134271	0.170642	-0.000002
C22	C	1.634271	0.670642	0.499998
C23	C	1.008257	0.167621	-0.000003
C24	C	1.508257	0.667621	0.499997
C25	C	1.348730	-0.043818	0.000006
C26	C	1.848730	0.456182	0.500006
C27	C	1.345710	-0.169832	0.000005
C28	C	1.845710	0.330168	0.500005
C29	C	0.905921	0.165168	-0.000007
C30	C	1.405921	0.665168	0.499993
C31	C	0.777534	0.162099	-0.000007
C32	C	1.277534	0.662099	0.499993
C33	C	1.343256	-0.272168	0.000002
C34	C	1.843256	0.227832	0.500002
C35	C	1.340188	-0.400555	-0.000007
C36	C	1.840188	0.099445	0.499993
C37	C	1.549190	0.156642	-0.000001
C38	C	2.049190	0.656642	0.499999
C39	C	1.675204	0.159662	-0.000007
C40	C	2.175204	0.659662	0.499993
C41	C	1.334731	0.371102	-0.000009
C42	C	1.834731	0.871102	0.499991
C43	C	1.337751	0.497115	-0.000015
C44	C	1.837751	0.997115	0.499985
N45	N	1.341706	0.163625	0.246658
N46	N	1.841706	0.663625	0.746658
N47	N	1.341764	0.163649	-0.246659
N48	N	1.841764	0.663649	0.253341
C49	C	1.418414	0.086973	0.296479
C50	C	1.918414	0.586973	0.796479
C51	C	1.418421	0.086973	0.396137
C52	C	1.918421	0.586973	0.896137
C53	C	1.341726	0.163630	0.445971
C54	C	1.841726	0.663630	0.945971
C55	C	1.265010	0.240285	0.396143
C56	C	1.765010	0.740285	0.896143
C57	C	1.264998	0.240279	0.296487
C58	C	1.764998	0.740279	0.796487
C59	C	1.265043	0.240293	0.603857
C60	C	1.765043	0.740293	1.103857
C61	C	1.265056	0.240301	0.703520
C62	C	1.765056	0.740301	1.203520
C63	C	1.418466	0.086987	0.703507
C64	C	1.918466	0.586987	1.203507
C65	C	1.418454	0.086981	0.603851
C66	C	1.918454	0.586981	1.103851
C67	C	1.341739	0.163638	0.554029
C68	C	1.841739	0.663638	1.054029
H69	H	1.480873	0.024555	0.255911
H70	H	1.980873	0.524555	0.755911
Cl71	Cl	1.514854	-0.009392	0.458771
Cl72	Cl	2.014854	0.490608	0.958771
H73	H	1.480930	0.024571	0.744077
H74	H	1.980930	0.524571	1.244077
H75	H	1.480911	0.024567	0.563276
H76	H	1.980911	0.524567	1.063276
Cl77	Cl	1.168632	0.336672	0.766161
Cl78	Cl	1.668632	0.836672	1.266161
Cl79	Cl	1.168596	0.336662	0.541228
Cl80	Cl	1.668596	0.836662	1.041228
H81	H	1.202557	0.302697	0.436723
H82	H	1.702557	0.802697	0.936723
Cl83	Cl	1.168556	0.336641	0.233855
Cl84	Cl	1.668556	0.836641	0.733855
