data_functionalizedCrystal
_audit_creation_method	'MofGen! by Chris Wilmer'
_symmetry_space_group_name_H-M	'P1'
_symmetry_Int_Tables_number	1
_symmetry_cell_setting	triclinic
loop_
_symmetry_equiv_pos_as_xyz
  x,y,z
_cell_length_a	10.489741
_cell_length_b	10.654551
_cell_length_c	9.130313
_cell_angle_alpha	89.997246
_cell_angle_beta	89.999174
_cell_angle_gamma	84.512301
loop_
_atom_site_label
_atom_site_type_symbol
_atom_site_fract_x
_atom_site_fract_y
_atom_site_fract_z
O1	O	1.693967	0.177192	-0.121703
O2	O	1.322763	0.193824	-0.121725
O3	O	1.516899	0.002773	-0.121710
O4	O	1.499831	0.368243	-0.121717
O5	O	1.516886	0.002767	0.121889
O6	O	1.322750	0.193818	0.121874
O7	O	1.693954	0.177186	0.121896
Cu8	Cu	1.508351	0.185502	0.144128
Cu9	Cu	1.508367	0.185508	-0.143956
O10	O	1.499818	0.368237	0.121881
C11	C	1.275226	0.192565	0.000072
C12	C	1.133598	0.188807	0.000063
C13	C	1.515639	-0.044029	0.000087
C14	C	1.511889	-0.183473	0.000080
C15	C	1.510136	-0.248975	-0.132707
C16	C	1.506601	-0.379997	-0.132709
C17	C	1.506578	-0.380005	0.132876
C18	C	1.510103	-0.248984	0.132876
C19	C	1.065516	0.067246	0.000079
C20	C	0.973368	0.124673	-0.120026
C21	C	0.973389	0.124696	0.120144
C22	C	1.043316	0.246283	-0.120141
C23	C	1.043346	0.246290	0.120136
C24	C	0.951226	0.303805	0.000002
C25	C	1.741492	0.178445	0.000097
C26	C	1.883119	0.182203	0.000096
C27	C	1.501078	0.415039	0.000081
C28	C	1.504829	0.554484	0.000079
N29	N	1.508349	0.185496	0.346750
N30	N	1.508378	0.185504	-0.346579
C31	C	1.594341	0.100935	0.423409
C32	C	1.594354	0.100935	0.576746
C33	C	1.422377	0.270070	0.576752
C34	C	1.422359	0.270062	0.423418
H35	H	1.505171	-0.433322	-0.240837
C36	C	1.328821	0.361737	0.659922
C37	C	1.203296	0.340132	0.622681
C38	C	1.117078	0.424542	0.699281
H39	H	1.343228	0.445746	0.634845
H40	H	1.341063	0.349623	0.762235
H41	H	1.191059	0.352256	0.520391
H42	H	1.188848	0.256139	0.647762
H43	H	1.129321	0.412429	0.801594
H44	H	1.131498	0.508546	0.674197
H45	H	1.031901	0.409887	0.674034
H46	H	0.942384	0.073241	-0.221566
H47	H	1.511523	-0.195651	0.241014
H48	H	1.505127	-0.433360	0.240994
H49	H	1.074125	0.297681	-0.221795
H50	H	1.664375	0.032076	0.639157
H51	H	1.352328	0.338923	0.360999
H52	H	0.901754	0.403841	-0.000066
H53	H	1.115254	-0.032684	-0.000069
H54	H	1.074362	0.297680	0.221681
H55	H	0.942430	0.073237	0.221684
H56	H	1.511586	-0.195640	-0.240838
C57	C	1.687745	0.008974	0.340433
C58	C	1.763031	-0.065104	0.440394
C59	C	1.849075	-0.149848	0.364016
H60	H	1.741354	0.054514	0.280596
H61	H	1.641425	-0.043821	0.280664
H62	H	1.809347	-0.012316	0.500138
H63	H	1.709456	-0.110671	0.500234
H64	H	1.802755	-0.202644	0.304247
H65	H	1.902676	-0.104298	0.304182
H66	H	1.900159	-0.200128	0.431828
