data_functionalizedCrystal
_audit_creation_method	'MofGen! by Chris Wilmer'
_symmetry_space_group_name_H-M	'P1'
_symmetry_Int_Tables_number	1
_symmetry_cell_setting	triclinic
loop_
_symmetry_equiv_pos_as_xyz
  x,y,z
_cell_length_a	15.625110
_cell_length_b	15.538191
_cell_length_c	14.185569
_cell_angle_alpha	97.872928
_cell_angle_beta	120.554511
_cell_angle_gamma	113.259765
loop_
_atom_site_label
_atom_site_type_symbol
_atom_site_fract_x
_atom_site_fract_y
_atom_site_fract_z
O1	O	1.281885	-0.025069	0.382954
O2	O	0.978306	-0.067939	0.272508
O3	O	1.189188	0.096050	0.349225
O4	O	1.071003	-0.189059	0.306237
O5	O	1.251483	0.144489	0.538721
O6	O	1.040601	-0.019500	0.462005
O7	O	1.344180	0.023370	0.572450
Cu8	Cu	1.198078	0.006358	0.534530
Cu9	Cu	1.124408	-0.050927	0.310428
O10	O	1.133298	-0.140619	0.495734
C11	C	0.971549	-0.046581	0.353466
C12	C	0.858610	-0.055093	0.312378
C13	C	0.665471	-0.093494	0.151177
C14	C	0.771599	-0.085492	0.189798
C15	C	0.839518	-0.032689	0.396383
C16	C	0.733392	-0.040692	0.357778
C17	C	0.646376	-0.071093	0.235174
C18	C	0.714296	-0.018291	0.441775
C19	C	0.608182	-0.026288	0.403173
C20	C	0.521163	-0.056685	0.280575
C21	C	0.540261	-0.079090	0.196572
C22	C	0.801317	0.012118	0.564379
C23	C	0.782221	0.034518	0.648376
C24	C	0.676102	0.026515	0.609774
C25	C	0.589083	-0.003883	0.487176
C26	C	0.657003	0.048920	0.693777
C27	C	0.550888	0.040923	0.655175
C28	C	0.482968	-0.011880	0.448574
C29	C	1.232700	0.156500	0.448468
C30	C	1.269529	0.264453	0.461857
C31	C	1.350936	0.002011	0.491490
C32	C	1.463873	0.010521	0.532571
C33	C	1.089785	-0.201070	0.396488
C34	C	1.052954	-0.309025	0.383092
N35	N	1.249902	0.046650	0.692154
C36	C	0.903610	0.518648	0.328753
C37	C	0.938247	0.620095	0.341357
C38	C	1.133067	0.660427	0.412234
C39	C	1.098444	0.558980	0.399631
C40	C	0.983715	0.488098	0.357891
C41	C	1.178549	0.528431	0.428769
C42	C	1.143931	0.426994	0.416172
C43	C	1.029208	0.356107	0.374438
C44	C	0.949097	0.386662	0.345295
C45	C	1.293281	0.599316	0.470516
C46	C	1.373386	0.568766	0.499654
C47	C	1.338766	0.467326	0.487050
C48	C	1.224042	0.396439	0.445315
C49	C	1.418877	0.436771	0.516193
C50	C	1.384259	0.335335	0.503597
C51	C	1.189424	0.295003	0.432719
N52	N	1.072595	-0.091211	0.152809
C53	C	0.920352	-0.209548	0.939918
C54	C	0.959612	-0.179033	1.059222
C55	C	1.146359	-0.033867	1.127119
C56	C	1.107112	-0.064367	1.007818
C57	C	0.994108	-0.152209	0.914225
C58	C	1.180868	-0.007028	0.982125
C59	C	1.141626	-0.037529	0.862835
C60	C	1.028628	-0.125369	0.769237
C61	C	0.954866	-0.182710	0.794935
C62	C	1.293875	0.080810	1.075720
C63	C	1.367631	0.138149	1.050028
C64	C	1.328386	0.107652	0.930735
C65	C	1.215388	0.019812	0.837137
C66	C	1.402148	0.164993	0.905037
C67	C	1.362906	0.134492	0.785747
C68	C	1.176146	-0.010689	0.717847
H69	H	0.535334	0.059145	0.723571
F70	F	1.055867	-0.104173	0.618231
F71	F	0.874838	0.066873	0.778857
H72	H	0.469401	-0.103859	0.096734
F73	F	1.330125	0.707277	0.483929
F74	F	0.390346	-0.044251	0.318082
F75	F	1.495488	0.644215	0.544083
H76	H	0.594611	-0.118262	0.051339
F77	F	0.749626	0.081284	0.824258
F78	F	0.408232	-0.065182	0.239494
H79	H	0.787133	-0.103742	0.121387
H80	H	1.422967	0.181183	0.764831
H81	H	1.512293	0.494501	0.550189
H82	H	1.095997	0.237283	0.398722
H83	H	0.910381	-0.007932	0.496208
F84	F	0.800073	-0.303032	0.840302
H85	H	1.238370	0.037653	1.203335
F86	F	1.469521	0.302823	0.534625
H87	H	1.325823	0.105637	1.172853
H88	H	0.887720	0.018627	0.595805
F89	F	1.522418	0.258471	1.004657
H90	H	0.899542	-0.225734	1.080129
H91	H	1.001026	0.273513	0.364189
H92	H	0.855670	0.328942	0.311298
F93	F	0.781497	0.443201	0.284318
H94	H	0.873012	0.644966	0.317642
F95	F	1.487897	0.231632	1.149644
H96	H	1.226481	0.718154	0.446223
F97	F	0.986867	-0.157834	0.642277
H98	H	0.862842	-0.254233	0.718724
