data_functionalizedCrystal
_audit_creation_method	'MofGen! by Chris Wilmer'
_symmetry_space_group_name_H-M	'P1'
_symmetry_Int_Tables_number	1
_symmetry_cell_setting	triclinic
loop_
_symmetry_equiv_pos_as_xyz
  x,y,z
_cell_length_a	16.959453
_cell_length_b	16.959455
_cell_length_c	18.215399
_cell_angle_alpha	90.019469
_cell_angle_beta	89.971469
_cell_angle_gamma	89.982504
loop_
_atom_site_label
_atom_site_type_symbol
_atom_site_fract_x
_atom_site_fract_y
_atom_site_fract_z
Zn1	Zn	-0.314800	-1.208402	-0.416106
Zn2	Zn	-0.446985	-1.208309	-0.293038
Zn3	Zn	-0.314813	-1.076221	-0.293054
Zn4	Zn	-0.446928	-1.076189	-0.416064
O5	O	-0.380882	-1.142280	-0.354565
O6	O	-0.332353	-1.319001	-0.399791
O7	O	-0.429482	-1.190761	-0.190056
O8	O	-0.204200	-1.093807	-0.309401
O9	O	-0.429469	-1.318932	-0.309374
O10	O	-0.204191	-1.190920	-0.399807
O11	O	-0.332375	-1.093717	-0.190067
O12	O	-0.332320	-0.965606	-0.309360
O13	O	-0.429372	-1.093753	-0.519054
O14	O	-0.429384	-0.965583	-0.399735
O15	O	-0.332298	-1.190890	-0.519084
O16	O	-0.557589	-1.190731	-0.309334
O17	O	-0.557547	-1.093663	-0.399720
C18	C	-0.380848	-0.936914	-0.354545
C19	C	-0.380852	-0.849057	-0.354554
C20	C	-0.330273	-0.477570	-0.307596
C21	C	-0.431504	-0.477594	-0.401558
C22	C	-0.431496	-0.560140	-0.401554
C23	C	-0.380877	-0.601405	-0.354570
C24	C	-0.330265	-0.560123	-0.307589
C25	C	-0.482112	-0.601428	-0.448529
C26	C	-0.482107	-0.683979	-0.448527
C27	C	-0.431483	-0.725245	-0.401546
C28	C	-0.380869	-0.683958	-0.354564
C29	C	-0.330249	-0.725223	-0.307580
C30	C	-0.279630	-0.683938	-0.260601
C31	C	-0.279641	-0.601389	-0.260608
C32	C	-0.431472	-0.807793	-0.401539
C33	C	-0.330241	-0.807776	-0.307574
C34	C	-0.586248	-1.142205	-0.354537
C35	C	-0.674104	-1.142245	-0.354549
C36	C	-0.715452	-1.091744	-0.307446
C37	C	-0.715311	-1.192779	-0.401669
C38	C	-0.797857	-1.192816	-0.401685
C39	C	-0.839204	-1.142315	-0.354581
C40	C	-0.798005	-1.091777	-0.307462
C41	C	-0.839062	-1.243347	-0.448809
C42	C	-0.921613	-1.243386	-0.448827
C43	C	-0.962961	-1.192888	-0.401719
C44	C	-0.921757	-1.142349	-0.354597
C45	C	-0.963104	-1.091848	-0.307494
C46	C	-0.921902	-1.041312	-0.260368
C47	C	-0.839354	-1.041280	-0.260354
C48	C	-1.045510	-1.192920	-0.401733
C49	C	-1.045658	-1.091882	-0.307510
C50	C	-0.174713	-1.142378	-0.354610
C51	C	-0.086857	-1.142419	-0.354629
C52	C	-0.380827	-1.142328	-0.546518
C53	C	-0.380804	-1.142349	-0.628317
C54	C	-0.380907	-0.348449	-0.354582
C55	C	-0.380893	-0.436305	-0.354580
C56	C	-0.330210	-1.192946	-0.816529
C57	C	-0.330187	-1.192955	-0.893387
C58	C	-0.431275	-1.091808	-0.893344
C59	C	-0.431294	-1.091795	-0.816487
C60	C	-0.380762	-1.142369	-0.778081
C61	C	-0.380721	-1.142391	-0.931797
C62	C	-0.380696	-1.142401	-1.015131
C63	C	-0.380786	-1.142358	-0.694742
C64	C	-0.380879	-1.142278	-0.163359
C65	C	-0.380679	-1.142410	-0.081561
H66	H	-0.289059	-0.443952	-0.269349
Cl67	Cl	-0.545738	-0.735872	-0.507587
H68	H	-0.289021	-1.234139	-0.924688
H69	H	-0.472687	-0.841404	-0.439786
H70	H	-1.079053	-1.234056	-0.440112
H71	H	-0.955153	-1.284537	-0.487198
Cl72	Cl	-0.266682	-1.256521	-0.768250
Cl73	Cl	-0.266596	-0.859645	-0.248508
H74	H	-0.472418	-1.050634	-0.924623
H75	H	-0.472721	-0.443992	-0.439806
H76	H	-0.238419	-0.717546	-0.222343
H77	H	-0.472459	-1.050603	-0.785182
H78	H	-1.079317	-1.050759	-0.269150
Cl79	Cl	-0.787080	-1.306814	-0.508035
H80	H	-0.238431	-0.567768	-0.222360
H81	H	-0.681903	-1.050600	-0.269074
H82	H	-0.523330	-0.567824	-0.486776
H83	H	-0.955578	-1.000190	-0.222020
Cl84	Cl	-0.787552	-0.977751	-0.201119
Cl85	Cl	-0.663331	-1.256251	-0.460891
