data_functionalizedCrystal
_audit_creation_method	'MofGen! by Chris Wilmer'
_symmetry_space_group_name_H-M	'P1'
_symmetry_Int_Tables_number	1
_symmetry_cell_setting	triclinic
loop_
_symmetry_equiv_pos_as_xyz
  x,y,z
_cell_length_a	18.050591
_cell_length_b	18.050590
_cell_length_c	18.050582
_cell_angle_alpha	90.023337
_cell_angle_beta	90.019760
_cell_angle_gamma	90.015000
loop_
_atom_site_label
_atom_site_type_symbol
_atom_site_fract_x
_atom_site_fract_y
_atom_site_fract_z
Zn1	Zn	1.135342	-0.295777	0.420004
Zn2	Zn	1.468676	0.037556	0.753338
Zn3	Zn	1.802009	0.370890	1.086671
Zn4	Zn	1.135274	-0.419960	0.295813
Zn5	Zn	1.468607	-0.086627	0.629146
Zn6	Zn	1.801941	0.246706	0.962479
Zn7	Zn	1.011162	-0.295781	0.295818
Zn8	Zn	1.344495	0.037552	0.629151
Zn9	Zn	1.677828	0.370886	0.962485
Zn10	Zn	1.011131	-0.419922	0.419951
Zn11	Zn	1.344464	-0.086589	0.753284
Zn12	Zn	1.677797	0.246745	1.086617
O13	O	1.073227	-0.357860	0.357897
O14	O	1.406561	-0.024527	0.691230
O15	O	1.739894	0.308807	1.024563
O16	O	1.239258	-0.312265	0.403550
O17	O	1.572591	0.021069	0.736884
O18	O	1.905925	0.354402	1.070217
O19	O	1.118795	-0.403505	0.191889
O20	O	1.452128	-0.070172	0.525222
O21	O	1.785461	0.263161	0.858556
O22	O	1.027676	-0.191856	0.312316
O23	O	1.361009	0.141478	0.645650
O24	O	1.694343	0.474811	0.978983
O25	O	1.239208	-0.403501	0.312307
O26	O	1.572541	-0.070168	0.645641
O27	O	1.905874	0.263165	0.978974
O28	O	1.118911	-0.191853	0.403556
O29	O	1.452245	0.141480	0.736889
O30	O	1.785578	0.474814	1.070222
O31	O	1.027610	-0.312271	0.191893
O32	O	1.360943	0.021062	0.525226
O33	O	1.694276	0.354395	0.858559
O34	O	0.907233	-0.312234	0.312264
O35	O	1.240566	0.021099	0.645598
O36	O	1.573900	0.354433	0.978931
O37	O	1.027623	-0.403436	0.523883
O38	O	1.360956	-0.070103	0.857216
O39	O	1.694290	0.263230	1.190549
O40	O	0.907210	-0.403440	0.403464
O41	O	1.240543	-0.070107	0.736797
O42	O	1.573877	0.263227	1.070131
O43	O	1.118881	-0.312227	0.523922
O44	O	1.452214	0.021106	0.857255
O45	O	1.785548	0.354439	1.190589
O46	O	1.118765	-0.523880	0.312255
O47	O	1.452098	-0.190546	0.645589
O48	O	1.785431	0.142787	0.978922
O49	O	1.027557	-0.523852	0.403459
O50	O	1.360890	-0.190518	0.736792
O51	O	1.694224	0.142815	1.070126
C52	C	0.880275	-0.357834	0.357859
C53	C	1.213608	-0.024501	0.691193
C54	C	1.546942	0.308833	1.024526
C55	C	0.797729	-0.357841	0.357861
C56	C	1.131063	-0.024507	0.691194
C57	C	1.464396	0.308826	1.024528
C58	C	1.073170	-0.550812	0.357867
C59	C	1.406503	-0.217479	0.691200
C60	C	1.739837	0.115854	1.024534
C61	C	1.073214	-0.633358	0.357879
C62	C	1.406547	-0.300025	0.691212
C63	C	1.739880	0.033309	1.024546
C64	C	0.548895	-0.308191	0.308384
C65	C	0.882228	0.025142	0.641717
C66	C	1.215561	0.358475	0.975051
C67	C	0.598323	-0.290110	0.376160
C68	C	0.931657	0.043223	0.709494
C69	C	1.264990	0.376556	1.042827
C70	C	0.500609	-0.357879	0.357922
C71	C	0.833942	-0.024545	0.691255
C72	C	1.167276	0.308788	1.024589
C73	C	0.598262	-0.375906	0.290119
C74	C	0.931595	-0.042572	0.623453
C75	C	1.264928	0.290761	0.956786
C76	C	0.646594	-0.357858	0.357888
C77	C	0.979927	-0.024525	0.691222
C78	C	1.313261	0.308809	1.024555
C79	C	0.548951	-0.339762	0.425734
C80	C	0.882284	-0.006429	0.759068
C81	C	1.215617	0.326904	1.092401
C82	C	0.548884	-0.425589	0.339648
C83	C	0.882218	-0.092256	0.672981
C84	C	1.215551	0.241077	1.006314
C85	C	0.598291	-0.407534	0.407471
C86	C	0.931624	-0.074201	0.740804
C87	C	1.264958	0.259133	1.074137
C88	C	0.416511	-0.357888	0.357940
C89	C	0.749844	-0.024555	0.691273
C90	C	1.083177	0.308778	1.024607
C91	C	0.730690	-0.357848	0.357878
C92	C	1.064024	-0.024515	0.691211
C93	C	1.397357	0.308818	1.024544
C94	C	1.122916	-0.832797	0.308352
C95	C	1.456249	-0.499464	0.641685
C96	C	1.789582	-0.166130	0.975018
C97	C	1.141051	-0.882137	0.376133
C98	C	1.474384	-0.548803	0.709467
C99	C	1.807718	-0.215470	1.042800
C100	C	1.073256	-0.784488	0.357909
C101	C	1.406589	-0.451155	0.691242
C102	C	1.739922	-0.117822	1.024575
C103	C	1.055196	-0.882230	0.290158
C104	C	1.388529	-0.548897	0.623491
C105	C	1.721863	-0.215564	0.956824
C106	C	1.073298	-0.930473	0.357931
C107	C	1.406631	-0.597140	0.691265
C108	C	1.739965	-0.263807	1.024598
C109	C	1.091426	-0.832741	0.425726
C110	C	1.424759	-0.499407	0.759059
C111	C	1.758093	-0.166074	1.092393
C112	C	1.005539	-0.832830	0.339704
C113	C	1.338873	-0.499497	0.673038
C114	C	1.672206	-0.166163	1.006371
C115	C	1.023649	-0.882147	0.407533
C116	C	1.356982	-0.548814	0.740866
C117	C	1.690316	-0.215481	1.074199
C118	C	1.073233	-0.700390	0.357895
C119	C	1.406567	-0.367057	0.691228
C120	C	1.739900	-0.033723	1.024561
C121	C	1.073320	-1.014570	0.357953
C122	C	1.406653	-0.681237	0.691286
C123	C	1.739987	-0.347903	1.024620
C124	C	1.266933	-0.357887	0.357934
C125	C	1.600266	-0.024554	0.691268
C126	C	1.933599	0.308780	1.024601
C127	C	1.349479	-0.357898	0.357950
C128	C	1.682812	-0.024565	0.691284
C129	C	2.016145	0.308768	1.024617
C130	C	1.073256	-0.357827	0.551602
C131	C	1.406590	-0.024494	0.884936
C132	C	1.739923	0.308840	1.218269
C133	C	1.073269	-0.357813	0.634148
C134	C	1.406602	-0.024480	0.967481
C135	C	1.739935	0.308854	1.300815
C136	C	1.073305	-0.164154	0.357943
C137	C	1.406638	0.169179	0.691276
C138	C	1.739971	0.502512	1.024609
C139	C	1.073338	-0.081609	0.357962
C140	C	1.406671	0.251725	0.691295
C141	C	1.740004	0.585058	1.024629
C142	C	1.073241	-0.357839	0.164944
C143	C	1.406574	-0.024506	0.498278
C144	C	1.739908	0.308827	0.831611
C145	C	1.073372	-0.357644	0.082399
C146	C	1.406706	-0.024311	0.415732
C147	C	1.740039	0.309023	0.749066
C148	C	1.023681	-0.407345	0.833577
C149	C	1.357014	-0.074011	1.166911
C150	C	1.690347	0.259322	1.500244
C151	C	1.091439	-0.425502	0.882974
C152	C	1.424772	-0.092169	1.216308
C153	C	1.758106	0.241164	1.549641
C154	C	1.073305	-0.357756	0.785278
C155	C	1.406639	-0.024423	1.118612
C156	C	1.739972	0.308910	1.451945
C157	C	1.005584	-0.339578	0.882963
C158	C	1.338918	-0.006245	1.216297
C159	C	1.672251	0.327089	1.549630
C160	C	1.073335	-0.357703	0.931264
C161	C	1.406668	-0.024370	1.264597
C162	C	1.740001	0.308964	1.597930
C163	C	1.141099	-0.375950	0.833588
C164	C	1.474432	-0.042616	1.166921
C165	C	1.807766	0.290717	1.500255
C166	C	1.055199	-0.289994	0.833573
C167	C	1.388532	0.043340	1.166906
C168	C	1.721865	0.376673	1.500240
C169	C	1.123004	-0.308126	0.882948
C170	C	1.456337	0.025208	1.216281
C171	C	1.789671	0.358541	1.549614
C172	C	1.073287	-0.357789	0.701180
C173	C	1.406621	-0.024456	1.034513
C174	C	1.739954	0.308878	1.367847
C175	C	1.073360	-0.357670	1.015360
C176	C	1.406694	-0.024337	1.348694
C177	C	1.740027	0.308996	1.682027
H178	H	0.527208	-0.266150	0.266557
H179	H	0.860541	0.067184	0.599891
H180	H	1.193874	0.400517	0.933224
C181	C	1.179662	-0.803515	0.251798
C182	C	1.512996	-0.470181	0.585131
C183	C	1.846329	-0.136848	0.918465
H184	H	1.227768	-0.820397	0.264865
H185	H	1.561102	-0.487063	0.598199
H186	H	1.894435	-0.153730	0.931532
H187	H	1.167292	-0.821185	0.203783
H188	H	1.500625	-0.487852	0.537116
H189	H	1.833958	-0.154518	0.870450
H190	H	1.178945	-0.750890	0.251871
H191	H	1.512278	-0.417556	0.585204
H192	H	1.845612	-0.084223	0.918538
H193	H	1.198335	-0.903797	0.391545
H194	H	1.531669	-0.570463	0.724879
H195	H	1.865002	-0.237130	1.058212
C196	C	1.112182	-0.803505	0.503162
C197	C	1.445515	-0.470172	0.836495
C198	C	1.778849	-0.136838	1.169828
H199	H	1.112066	-0.750876	0.502674
H200	H	1.445400	-0.417542	0.836007
H201	H	1.778733	-0.084209	1.169341
H202	H	1.077144	-0.820796	0.538401
H203	H	1.410477	-0.487463	0.871734
H204	H	1.743811	-0.154129	1.205068
H205	H	1.160155	-0.820797	0.516175
H206	H	1.493488	-0.487464	0.849508
H207	H	1.826821	-0.154130	1.182841
C208	C	0.627526	-0.396523	0.212682
C209	C	0.960859	-0.063190	0.546015
C210	C	1.294192	0.270143	0.879349
H211	H	0.656482	-0.440343	0.215958
H212	H	0.989815	-0.107010	0.549291
H213	H	1.323148	0.226323	0.882624
H214	H	0.586941	-0.404711	0.180176
H215	H	0.920274	-0.071378	0.513510
H216	H	1.253607	0.261955	0.846843
H217	H	0.657222	-0.357229	0.194143
H218	H	0.990555	-0.023896	0.527476
H219	H	1.323888	0.309437	0.860809
C220	C	0.627414	-0.464283	0.464106
C221	C	0.960748	-0.130950	0.797439
C222	C	1.294081	0.202384	1.130773
H223	H	0.610439	-0.451348	0.512215
H224	H	0.943772	-0.118015	0.845548
H225	H	1.277106	0.215319	1.178881
H226	H	0.609738	-0.512246	0.451548
H227	H	0.943071	-0.178912	0.784881
H228	H	1.276405	0.154421	1.118214
H229	H	0.680041	-0.464251	0.463505
H230	H	1.013374	-0.130918	0.796838
H231	H	1.346707	0.202415	1.130171
C232	C	0.967041	-0.464062	0.804286
C233	C	1.300374	-0.130728	1.137619
C234	C	1.633708	0.202605	1.470952
H235	H	0.930752	-0.439281	0.775324
H236	H	1.264085	-0.105948	1.108657
H237	H	1.597419	0.227386	1.441990
H238	H	0.991740	-0.499816	0.774605
H239	H	1.325073	-0.166483	1.107938
H240	H	1.658407	0.166850	1.441271
H241	H	0.943680	-0.488070	0.844864
H242	H	1.277013	-0.154737	1.178197
H243	H	1.610346	0.178596	1.511531
H244	H	1.039903	-0.903968	0.232852
H245	H	1.373237	-0.570635	0.566185
H246	H	1.706570	-0.237302	0.899518
H247	H	1.039846	-0.232728	0.811857
H248	H	1.373180	0.100606	1.145190
H249	H	1.706513	0.433939	1.478524
C250	C	0.519820	-0.319060	0.503199
C251	C	0.853154	0.014274	0.836533
C252	C	1.186487	0.347607	1.169866
H253	H	0.560470	-0.310437	0.535521
H254	H	0.893803	0.022897	0.868855
H255	H	1.227136	0.356230	1.202188
H256	H	0.490528	-0.275476	0.499860
H257	H	0.823861	0.057857	0.833193
H258	H	1.157194	0.391191	1.166526
H259	H	0.490500	-0.358505	0.522012
H260	H	0.823833	-0.025172	0.855346
H261	H	1.157167	0.308162	1.188679
H262	H	0.981672	-0.903680	0.449500
H263	H	1.315005	-0.570346	0.782833
H264	H	1.648338	-0.237013	1.116166
C265	C	0.519518	-0.502931	0.318753
C266	C	0.852851	-0.169598	0.652086
C267	C	1.186184	0.163736	0.985420
H268	H	0.536369	-0.515675	0.270550
H269	H	0.869703	-0.182342	0.603883
H270	H	1.203036	0.150992	0.937217
H271	H	0.537165	-0.538344	0.353438
H272	H	0.870498	-0.205011	0.686772
H273	H	1.203831	0.128322	1.020105
H274	H	0.466893	-0.502482	0.319362
H275	H	0.800227	-0.169149	0.652695
H276	H	1.133560	0.164185	0.986028
C277	C	0.928179	-0.803539	0.318857
C278	C	1.261512	-0.470206	0.652190
C279	C	1.594846	-0.136872	0.985524
H280	H	0.915404	-0.820454	0.270670
H281	H	1.248737	-0.487121	0.604003
H282	H	1.582071	-0.153787	0.937337
H283	H	0.892792	-0.821170	0.353576
H284	H	1.226126	-0.487837	0.686909
H285	H	1.559459	-0.154504	1.020242
H286	H	0.928620	-0.750914	0.319445
H287	H	1.261954	-0.417580	0.652778
H288	H	1.595287	-0.084247	0.986112
C289	C	1.218515	-0.396745	0.804417
C290	C	1.551849	-0.063412	1.137751
C291	C	1.885182	0.269922	1.471084
H292	H	1.218029	-0.396651	0.751788
H293	H	1.551362	-0.063317	1.085121
H294	H	1.884695	0.270016	1.418454
H295	H	1.253779	-0.361703	0.821727
H296	H	1.587112	-0.028370	1.155060
H297	H	1.920446	0.304963	1.488393
H298	H	1.231494	-0.444712	0.821732
H299	H	1.564828	-0.111379	1.155065
H300	H	1.898161	0.221955	1.488399
C301	C	1.112150	-0.502882	0.912296
C302	C	1.445484	-0.169548	1.245629
C303	C	1.778817	0.163785	1.578963
H304	H	1.076834	-0.538078	0.895397
H305	H	1.410167	-0.204745	1.228730
H306	H	1.743500	0.128589	1.562063
H307	H	1.159928	-0.516119	0.894665
H308	H	1.493261	-0.182786	1.227998
H309	H	1.826594	0.150548	1.561331
H310	H	1.112450	-0.502187	0.964921
H311	H	1.445783	-0.168854	1.298254
H312	H	1.779116	0.164479	1.631588
C313	C	1.179772	-0.251446	0.912058
C314	C	1.513105	0.081888	1.245391
C315	C	1.846438	0.415221	1.578725
H316	H	1.155044	-0.215123	0.941028
H317	H	1.488377	0.118210	1.274361
H318	H	1.821711	0.451543	1.607695
H319	H	1.215586	-0.276105	0.941696
H320	H	1.548919	0.057228	1.275029
H321	H	1.882252	0.390561	1.608363
H322	H	1.203700	-0.228132	0.871405
H323	H	1.537033	0.105202	1.204738
H324	H	1.870366	0.438535	1.538072
C325	C	0.627667	-0.212747	0.397027
C326	C	0.961000	0.120586	0.730360
C327	C	1.294334	0.453919	1.063694
H328	H	0.610759	-0.177507	0.361794
H329	H	0.944092	0.155827	0.695127
H330	H	1.277425	0.489160	1.028460
H331	H	0.610059	-0.199590	0.444841
H332	H	0.943392	0.133743	0.778174
H333	H	1.276725	0.467076	1.111507
H334	H	0.680292	-0.213416	0.397302
H335	H	1.013625	0.119918	0.730635
H336	H	1.346959	0.453251	1.063969
C337	C	0.928202	-0.318833	0.912262
C338	C	1.261536	0.014501	1.245595
C339	C	1.594869	0.347834	1.578928
H340	H	0.892997	-0.354134	0.895348
H341	H	1.226331	-0.020801	1.228681
H342	H	1.559664	0.312533	1.562015
H343	H	0.928876	-0.318518	0.964883
H344	H	1.262210	0.014815	1.298216
H345	H	1.595543	0.348149	1.631550
H346	H	0.914988	-0.271052	0.894613
H347	H	1.248322	0.062281	1.227947
H348	H	1.581655	0.395615	1.561280
