data_functionalizedCrystal
_audit_creation_method	'MofGen! by Chris Wilmer'
_symmetry_space_group_name_H-M	'P1'
_symmetry_Int_Tables_number	1
_symmetry_cell_setting	triclinic
loop_
_symmetry_equiv_pos_as_xyz
  x,y,z
_cell_length_a	14.908742
_cell_length_b	14.908178
_cell_length_c	19.805399
_cell_angle_alpha	86.675724
_cell_angle_beta	93.284555
_cell_angle_gamma	90.210560
loop_
_atom_site_label
_atom_site_type_symbol
_atom_site_fract_x
_atom_site_fract_y
_atom_site_fract_z
Zn1	Zn	1.353933	-0.437289	-0.305014
Zn2	Zn	1.853933	0.062711	0.194986
Zn3	Zn	1.345165	-0.587660	-0.185695
Zn4	Zn	1.845165	-0.087660	0.314305
Zn5	Zn	1.203576	-0.428643	-0.198740
Zn6	Zn	1.703576	0.071357	0.301260
Zn7	Zn	1.194878	-0.578945	-0.305743
Zn8	Zn	1.694878	-0.078945	0.194257
O9	O	1.274388	-0.508134	-0.248798
O10	O	1.774388	-0.008134	0.251202
O11	O	1.478590	-0.464502	-0.283422
O12	O	1.978590	0.035498	0.216578
O13	O	1.326354	-0.566595	-0.092709
O14	O	1.826354	-0.066595	0.407291
O15	O	1.230831	-0.303957	-0.217992
O16	O	1.730831	0.196043	0.282008
O17	O	1.472148	-0.574979	-0.195759
O18	O	1.972148	-0.074979	0.304241
O19	O	1.341297	-0.310309	-0.296071
O20	O	1.841297	0.189691	0.203929
O21	O	1.222330	-0.449766	-0.102293
O22	O	1.722330	0.050234	0.397707
O23	O	1.076602	-0.441315	-0.218698
O24	O	1.576602	0.058685	0.281302
O25	O	1.216005	-0.560125	-0.400363
O26	O	1.716005	-0.060125	0.099637
O27	O	1.070211	-0.551741	-0.297313
O28	O	1.570211	-0.051741	0.202687
O29	O	1.332862	-0.456051	-0.399828
O30	O	1.832862	0.043949	0.100172
O31	O	1.317919	-0.712337	-0.196466
O32	O	1.817919	-0.212337	0.303534
O33	O	1.207504	-0.705934	-0.284664
O34	O	1.707504	-0.205934	0.215336
C35	C	1.040783	-0.494645	-0.259500
C36	C	1.540783	0.005355	0.240500
C37	C	0.940844	-0.488896	-0.264094
C38	C	1.440844	0.011104	0.235906
C39	C	0.803329	-0.423375	-0.316268
C40	C	1.303329	0.076625	0.183732
C41	C	0.897231	-0.428769	-0.311956
C42	C	1.397231	0.071231	0.188044
C43	C	0.890549	-0.543634	-0.220543
C44	C	1.390549	-0.043634	0.279457
C45	C	0.796647	-0.538240	-0.224855
C46	C	1.296647	-0.038240	0.275145
C47	C	0.753041	-0.478107	-0.272719
C48	C	1.253041	0.021893	0.227281
C49	C	0.659138	-0.472709	-0.277027
C50	C	1.159138	0.027291	0.222973
C51	C	0.652457	-0.587578	-0.185618
C52	C	1.152457	-0.087578	0.314382
C53	C	0.746359	-0.592973	-0.181306
C54	C	1.246359	-0.092973	0.318694
C55	C	1.260841	-0.741764	-0.239242
C56	C	1.760841	-0.241764	0.260758
C57	C	1.255127	-0.841716	-0.235173
C58	C	1.755127	-0.341716	0.264827
C59	C	1.359333	-1.035997	-0.308927
C60	C	1.859333	-0.535997	0.191073
C61	C	1.353968	-1.129911	-0.305106
C62	C	1.853968	-0.629911	0.194894
C63	C	1.239028	-1.123461	-0.223713
C64	C	1.739028	-0.623461	0.276287
C65	C	1.244393	-1.029546	-0.227534
C66	C	1.744393	-0.529546	0.272466
C67	C	1.304548	-0.985818	-0.270142
C68	C	1.804548	-0.485818	0.229858
C69	C	1.309917	-0.891902	-0.273959
C70	C	1.809917	-0.391902	0.226041
C71	C	1.194974	-0.885453	-0.192570
C72	C	1.694974	-0.385453	0.307430
C73	C	1.189609	-0.979367	-0.188749
C74	C	1.689609	-0.479367	0.311251
C75	C	1.508905	-0.521677	-0.238055
C76	C	2.008905	-0.021677	0.261945
C77	C	1.608842	-0.527448	-0.233476
C78	C	2.108842	-0.027448	0.266524
C79	C	1.274442	-0.508080	-0.425341
C80	C	1.774442	-0.008080	0.074659
C81	C	1.274464	-0.508057	-0.500573
C82	C	1.774464	-0.008057	-0.000573
C83	C	1.288012	-0.273594	-0.258405
C84	C	1.788012	0.226406	0.241595
C85	C	1.293818	-0.173647	-0.262499
C86	C	1.793818	0.326353	0.237501
C87	C	1.335313	-0.453863	-0.535640
C88	C	1.835313	0.046137	-0.035640
C89	C	1.335324	-0.453838	-0.606329
C90	C	1.835324	0.046162	-0.106329
C91	C	1.274489	-0.508012	-0.641950
C92	C	1.774489	-0.008012	-0.141950
C93	C	1.213634	-0.562208	-0.606878
C94	C	1.713634	-0.062208	-0.106878
C95	C	1.213620	-0.562228	-0.536191
C96	C	1.713620	-0.062228	-0.036191
C97	C	1.213690	-0.562127	-0.891953
C98	C	1.713690	-0.062127	-0.391953
C99	C	1.213710	-0.562105	-0.962645
C100	C	1.713710	-0.062105	-0.462645
C101	C	1.335394	-0.453737	-0.962091
C102	C	1.835394	0.046263	-0.462091
C103	C	1.335380	-0.453757	-0.891403
C104	C	1.835380	0.046243	-0.391403
C105	C	1.274522	-0.507949	-0.856338
C106	C	1.774522	-0.007949	-0.356338
C107	C	1.274509	-0.507975	-0.779689
C108	C	1.774509	-0.007975	-0.279689
C109	C	1.274505	-0.507991	-0.718597
C110	C	1.774505	-0.007991	-0.218597
C111	C	1.274390	-0.508126	-0.072942
C112	C	1.774390	-0.008126	0.427058
C113	C	1.274556	-0.507905	0.002287
C114	C	1.774556	-0.007905	0.502287
H115	H	0.938172	-0.384200	-0.347418
H116	H	1.438172	0.115800	0.152582
H117	H	0.767825	-0.374404	-0.355235
H118	H	1.267825	0.125596	0.144765
H119	H	0.623635	-0.423742	-0.315998
H120	H	1.123635	0.076258	0.184002
H121	H	1.164148	-0.606268	-0.863410
H122	H	1.664148	-0.106268	-0.363410
H123	H	0.926069	-0.592594	-0.181576
H124	H	1.426069	-0.092594	0.318424
C125	C	1.146707	-0.621865	-0.497615
C126	C	1.646707	-0.121865	0.002385
H127	H	1.110489	-0.654139	-0.528952
H128	H	1.610489	-0.154139	-0.028952
H129	H	1.109517	-0.585231	-0.473234
H130	H	1.609517	-0.085231	0.026766
H131	H	1.178844	-0.663037	-0.466869
H132	H	1.678844	-0.163037	0.033131
H133	H	0.781876	-0.641933	-0.142338
H134	H	1.281876	-0.141933	0.357662
C135	C	1.414235	-1.185106	-0.347765
C136	C	1.914235	-0.685106	0.152235
H137	H	1.450832	-1.145609	-0.373682
H138	H	1.950832	-0.645609	0.126318
H139	H	1.377726	-1.219765	-0.377319
H140	H	1.877726	-0.719765	0.122681
H141	H	1.451345	-1.223987	-0.318607
H142	H	1.951345	-0.723987	0.181393
C143	C	0.597138	-0.647793	-0.137716
C144	C	1.097138	-0.147793	0.362284
H145	H	0.534967	-0.635975	-0.147141
H146	H	1.034967	-0.135975	0.352859
H147	H	0.613269	-0.635443	-0.092090
H148	H	1.113269	-0.135443	0.407910
H149	H	0.609040	-0.709115	-0.144377
H150	H	1.109040	-0.209115	0.355623
H151	H	1.358901	-0.856299	-0.308651
H152	H	1.858901	-0.356299	0.191349
C153	C	1.172856	-1.171568	-0.176855
C154	C	1.672856	-0.671568	0.323145
H155	H	1.140988	-1.128234	-0.154306
H156	H	1.640988	-0.628234	0.345694
H157	H	1.205176	-1.210192	-0.144321
H158	H	1.705176	-0.710192	0.355679
H159	H	1.131563	-1.205947	-0.203038
H160	H	1.631563	-0.705947	0.296962
C161	C	1.425486	-0.987892	-0.355801
C162	C	1.925486	-0.487892	0.144199
H163	H	1.457340	-1.031228	-0.378359
H164	H	1.957340	-0.531228	0.121641
H165	H	1.466780	-0.953495	-0.329640
H166	H	1.966780	-0.453495	0.170360
H167	H	1.393140	-0.949285	-0.388338
H168	H	1.893140	-0.449285	0.111662
C169	C	1.123442	-1.027469	-0.141884
C170	C	1.623442	-0.527469	0.358116
H171	H	1.091580	-0.984131	-0.119335
H172	H	1.591580	-0.484131	0.380665
H173	H	1.155768	-1.066089	-0.109350
H174	H	1.655768	-0.566089	0.390650
H175	H	1.082145	-1.061852	-0.168060
H176	H	1.582145	-0.561852	0.331940
C177	C	1.134705	-0.830254	-0.149908
C178	C	1.634705	-0.330254	0.350092
H179	H	1.146510	-0.768058	-0.158288
H180	H	1.646510	-0.268058	0.341712
H181	H	1.147018	-0.846435	-0.103208
H182	H	1.647018	-0.346435	0.396792
H183	H	1.073400	-0.842205	-0.161921
H184	H	1.573400	-0.342205	0.338079
H185	H	1.384920	-0.409646	-0.862404
H186	H	1.884920	0.090354	-0.362404
H187	H	1.164098	-0.606314	-0.635887
H188	H	1.664098	-0.106314	-0.135887
C189	C	1.402228	-0.394267	-0.496463
C190	C	1.902228	0.105733	0.003537
H191	H	1.438462	-0.361980	-0.527475
H192	H	1.938462	0.138020	-0.027475
H193	H	1.439403	-0.430928	-0.465684
H194	H	1.939403	0.069072	0.034316
H195	H	1.370095	-0.353106	-0.472071
H196	H	1.870095	0.146894	0.027929
H197	H	1.384875	-0.409710	-0.634877
H198	H	1.884875	0.090290	-0.134877
H199	H	1.384945	-0.409607	-0.990649
H200	H	1.884945	0.090393	-0.490649
H201	H	1.164168	-0.606221	-0.991646
H202	H	1.664168	-0.106221	-0.491646
