data_functionalizedCrystal
_audit_creation_method	'MofGen! by Chris Wilmer'
_symmetry_space_group_name_H-M	'P1'
_symmetry_Int_Tables_number	1
_symmetry_cell_setting	triclinic
loop_
_symmetry_equiv_pos_as_xyz
  x,y,z
_cell_length_a	19.805407
_cell_length_b	19.805405
_cell_length_c	19.805398
_cell_angle_alpha	89.972361
_cell_angle_beta	89.988649
_cell_angle_gamma	90.024042
loop_
_atom_site_label
_atom_site_type_symbol
_atom_site_fract_x
_atom_site_fract_y
_atom_site_fract_z
Zn1	Zn	1.034691	-0.269521	-0.382692
Zn2	Zn	1.534691	0.230479	0.117308
Zn3	Zn	1.034618	-0.382711	-0.269506
Zn4	Zn	1.534618	0.117289	0.230494
Zn5	Zn	0.921518	-0.269536	-0.269520
Zn6	Zn	1.421518	0.230464	0.230480
Zn7	Zn	0.921469	-0.382668	-0.382656
Zn8	Zn	1.421469	0.117332	0.117344
O9	O	0.978074	-0.326109	-0.326094
O10	O	1.478074	0.173891	0.173906
O11	O	1.129398	-0.284547	-0.367687
O12	O	1.629398	0.215453	0.132313
O13	O	1.019605	-0.367723	-0.174791
O14	O	1.519605	0.132277	0.325209
O15	O	0.936582	-0.174817	-0.284554
O16	O	1.436582	0.325183	0.215446
O17	O	1.129344	-0.367708	-0.284529
O18	O	1.629344	0.132292	0.215471
O19	O	1.019730	-0.174806	-0.367701
O20	O	1.519730	0.325194	0.132299
O21	O	0.936512	-0.284573	-0.174802
O22	O	1.436512	0.215427	0.325198
O23	O	0.826795	-0.284531	-0.284519
O24	O	1.326795	0.215469	0.215481
O25	O	0.936498	-0.367634	-0.477378
O26	O	1.436498	0.132366	0.022622
O27	O	0.826759	-0.367649	-0.367639
O28	O	1.326759	0.132351	0.132361
O29	O	1.019682	-0.284505	-0.477404
O30	O	1.519682	0.215495	0.022596
O31	O	1.019557	-0.477422	-0.284494
O32	O	1.519557	0.022578	0.215506
O33	O	0.936427	-0.477390	-0.367625
O34	O	1.436427	0.022610	0.132375
C35	C	0.802218	-0.326088	-0.326077
C36	C	1.302218	0.173912	0.173923
C37	C	0.726986	-0.326095	-0.326086
C38	C	1.226986	0.173905	0.173914
C39	C	0.691670	-0.282870	-0.369452
C40	C	1.191670	0.217130	0.130548
C41	C	0.620982	-0.282873	-0.369455
C42	C	1.120982	0.217127	0.130545
C43	C	0.585610	-0.326106	-0.326094
C44	C	1.085610	0.173894	0.173906
C45	C	0.620931	-0.369333	-0.282724
C46	C	1.120931	0.130667	0.217276
C47	C	0.691618	-0.369325	-0.282718
C48	C	1.191618	0.130675	0.217282
C49	C	0.335858	-0.369363	-0.282744
C50	C	0.835858	0.130637	0.217256
C51	C	0.265166	-0.369369	-0.282755
C52	C	0.765166	0.130631	0.217245
C53	C	0.265222	-0.282911	-0.369481
C54	C	0.765222	0.217089	0.130519
C55	C	0.335909	-0.282904	-0.369476
C56	C	0.835909	0.217096	0.130524
C57	C	0.371223	-0.326128	-0.326103
C58	C	0.871223	0.173872	0.173897
C59	C	0.447871	-0.326123	-0.326099
C60	C	0.947871	0.173877	0.173901
C61	C	0.508963	-0.326115	-0.326100
C62	C	1.008963	0.173885	0.173900
C63	C	0.977997	-0.501965	-0.326069
C64	C	1.477997	-0.001965	0.173931
C65	C	0.978026	-0.577197	-0.326081
C66	C	1.478026	-0.077197	0.173919
C67	C	1.021295	-0.612477	-0.369410
C68	C	1.521295	-0.112477	0.130590
C69	C	1.021320	-0.683165	-0.369422
C70	C	1.521320	-0.183165	0.130578
C71	C	0.978078	-0.718572	-0.326103
C72	C	1.478078	-0.218572	0.173897
C73	C	0.934804	-0.683287	-0.282772
C74	C	1.434804	-0.183287	0.217228
C75	C	0.934776	-0.612600	-0.282763
C76	C	1.434776	-0.112600	0.217237
C77	C	0.934912	-0.968361	-0.282807
C78	C	1.434912	-0.468361	0.217193
C79	C	0.934944	-1.039053	-0.282817
C80	C	1.434944	-0.539053	0.217183
C81	C	1.021456	-1.038926	-0.369466
C82	C	1.521456	-0.538926	0.130534
C83	C	1.021428	-0.968238	-0.369457
C84	C	1.521428	-0.468238	0.130543
C85	C	0.978152	-0.932960	-0.326129
C86	C	1.478152	-0.432960	0.173871
C87	C	0.978125	-0.856311	-0.326117
C88	C	1.478125	-0.356311	0.173883
C89	C	0.978107	-0.795219	-0.326111
C90	C	1.478107	-0.295219	0.173889
C91	C	1.154617	-0.326130	-0.326111
C92	C	1.654617	0.173870	0.173889
C93	C	1.229849	-0.326140	-0.326118
C94	C	1.729849	0.173860	0.173882
C95	C	0.978092	-0.326063	-0.502636
C96	C	1.478092	0.173937	-0.002636
C97	C	0.978100	-0.326043	-0.577868
C98	C	1.478100	0.173957	-0.077868
C99	C	0.978170	-0.149566	-0.326133
C100	C	1.478170	0.350434	0.173867
C101	C	0.978211	-0.074334	-0.326150
C102	C	1.478211	0.425666	0.173850
C103	C	1.021473	-0.369232	-1.039652
C104	C	1.521473	0.130768	-0.539652
C105	C	1.021455	-0.369250	-0.968963
C106	C	1.521455	0.130750	-0.468963
C107	C	0.978184	-0.325967	-0.933630
C108	C	1.478184	0.174033	-0.433630
C109	C	0.934924	-0.282668	-0.968990
C110	C	1.434924	0.217332	-0.468990
C111	C	0.934940	-0.282653	-1.039677
C112	C	1.434940	0.217347	-0.539677
C113	C	0.934859	-0.282726	-0.683916
C114	C	1.434859	0.217274	-0.183916
C115	C	0.934848	-0.282742	-0.613224
C116	C	1.434848	0.217258	-0.113224
C117	C	1.021374	-0.369322	-0.613203
C118	C	1.521374	0.130678	-0.113203
C119	C	1.021389	-0.369308	-0.683890
C120	C	1.521389	0.130692	-0.183890
C121	C	0.978127	-0.326012	-0.719243
C122	C	1.478127	0.173988	-0.219243
C123	C	0.978147	-0.325993	-0.795891
C124	C	1.478147	0.174007	-0.295891
C125	C	0.978167	-0.325982	-0.856983
C126	C	1.478167	0.174018	-0.356983
C127	C	0.978095	-0.326105	-0.150238
C128	C	1.478095	0.173895	0.349762
C129	C	0.978218	-0.325934	-0.075006
C130	C	1.478218	0.174066	0.424994
H131	H	0.720465	-0.247666	-0.404763
H132	H	1.220465	0.252334	0.095237
C133	C	0.887278	-0.722238	-0.235079
C134	C	1.387278	-0.222238	0.264921
N135	N	0.851498	-0.751574	-0.199138
N136	N	1.351498	-0.251574	0.300862
C137	C	0.887292	-0.929563	-0.235160
C138	C	1.387292	-0.429563	0.264840
N139	N	0.851416	-0.900338	-0.199277
N140	N	1.351416	-0.400338	0.300723
C141	C	0.582138	-0.235324	-0.417163
C142	C	1.082138	0.264676	0.082837
N143	N	0.552881	-0.199508	-0.453099
N144	N	1.052881	0.300492	0.046901
C145	C	1.069056	-1.077739	-0.417133
C146	C	1.569056	-0.577739	0.082867
N147	N	1.104907	-1.106971	-0.453034
N148	N	1.604907	-0.606971	0.046966
C149	C	0.730465	-0.416878	-0.235014
C150	C	1.230465	0.083122	0.264986
N151	N	0.759723	-0.452695	-0.199080
N152	N	1.259723	0.047305	0.300920
C153	C	0.226370	-0.235352	-0.417182
C154	C	0.726370	0.264648	0.082818
N155	N	0.197107	-0.199530	-0.453108
N156	N	0.697107	0.300470	0.046892
H157	H	0.899631	-0.247472	-0.712692
H158	H	1.399631	0.252528	-0.212692
H159	H	1.056713	-0.404474	-1.068415
H160	H	1.556713	0.095526	-0.568415
H161	H	1.056598	-0.404579	-0.584410
H162	H	1.556598	0.095421	-0.084410
C163	C	0.374694	-0.416914	-0.235036
C164	C	0.874694	0.083086	0.264964
N165	N	0.403948	-0.452732	-0.199100
N166	N	0.903948	0.047268	0.300900
C167	C	0.887358	-0.235021	-1.078566
C168	C	1.387358	0.264979	-0.578566
N169	N	0.851516	-0.199144	-1.107857
N170	N	1.351516	0.300856	-0.607857
H171	H	1.056669	-0.404515	-0.940181
H172	H	1.556669	0.095485	-0.440181
H173	H	0.899541	-0.583876	-0.247482
H174	H	1.399541	-0.083876	0.252518
H175	H	1.056559	-0.711887	-0.404700
H176	H	1.556559	-0.211887	0.095300
C177	C	0.374813	-0.235342	-0.417173
C178	C	0.874813	0.264658	0.082827
N179	N	0.404116	-0.199515	-0.453096
N180	N	0.904116	0.300485	0.046904
C181	C	1.068989	-0.416924	-0.722752
C182	C	1.568989	0.083076	-0.222752
N183	N	1.104840	-0.452792	-0.752022
N184	N	1.604840	0.047208	-0.252022
H185	H	0.899609	-0.247494	-0.584458
H186	H	1.399609	0.252506	-0.084458
H187	H	0.236368	-0.404576	-0.247443
H188	H	0.736368	0.095424	0.252557
H189	H	1.056511	-0.583653	-0.404683
H190	H	1.556511	-0.083653	0.095317
H191	H	0.899728	-1.067879	-0.247540
H192	H	1.399728	-0.567879	0.252460
C193	C	0.582020	-0.416888	-0.235026
C194	C	1.082020	0.083112	0.264974
N195	N	0.552712	-0.452710	-0.199100
N196	N	1.052712	0.047290	0.300900
H197	H	1.056642	-0.939412	-0.404730
H198	H	1.556642	-0.439412	0.095270
C199	C	0.887331	-0.235051	-0.930121
C200	C	1.387331	0.264949	-0.430121
N201	N	0.851488	-0.199180	-0.900846
N202	N	1.351488	0.300820	-0.400846
