data_functionalizedCrystal
_audit_creation_method	'MofGen! by Chris Wilmer'
_symmetry_space_group_name_H-M	'P1'
_symmetry_Int_Tables_number	1
_symmetry_cell_setting	triclinic
loop_
_symmetry_equiv_pos_as_xyz
  x,y,z
_cell_length_a	14.971482
_cell_length_b	13.262508
_cell_length_c	13.448316
_cell_angle_alpha	105.911733
_cell_angle_beta	89.993798
_cell_angle_gamma	84.039810
loop_
_atom_site_label
_atom_site_type_symbol
_atom_site_fract_x
_atom_site_fract_y
_atom_site_fract_z
O1	O	1.187331	0.136760	-0.045689
O2	O	0.926976	0.153143	-0.041262
O3	O	1.063707	-0.007827	-0.084792
O4	O	1.050600	0.297730	-0.002159
O5	O	1.063689	-0.007837	0.080589
O6	O	0.926958	0.153134	0.124119
O7	O	1.187313	0.136750	0.119693
Cu8	Cu	1.057134	0.144941	0.137006
Cu9	Cu	1.057155	0.144953	-0.058576
O10	O	1.050582	0.297720	0.163222
C11	C	0.893640	0.152407	0.041230
C12	C	0.794337	0.150213	0.040635
C13	C	0.747680	0.149174	0.130506
C14	C	0.654376	0.147096	0.129945
C15	C	0.607729	0.146065	0.039514
C16	C	0.654393	0.147100	-0.050364
C17	C	0.747696	0.149171	-0.049805
C18	C	0.459919	0.142788	-0.051524
C19	C	0.366609	0.140719	-0.052084
C20	C	0.366598	0.140713	0.128225
C21	C	0.459902	0.142784	0.128785
C22	C	0.506559	0.143821	0.038907
C23	C	1.062965	-0.046935	-0.012678
C24	C	1.060769	-0.163452	-0.044195
C25	C	1.054538	-0.491927	0.227574
C26	C	1.056594	-0.382453	0.257187
C27	C	1.057638	-0.327697	0.181844
C28	C	1.056626	-0.382426	0.076884
C29	C	1.054563	-0.491910	0.047269
C30	C	1.057663	-0.327680	0.001538
C31	C	1.056651	-0.382409	-0.103422
C32	C	1.054588	-0.491882	-0.133032
C33	C	1.053544	-0.546638	-0.057689
C34	C	1.059726	-0.218197	0.031153
C35	C	1.059751	-0.218180	-0.149152
C36	C	1.057695	-0.327654	-0.178765
C37	C	1.220649	0.137487	0.037198
C38	C	1.319952	0.139681	0.037787
C39	C	1.051324	0.336829	0.091107
C40	C	1.053520	0.453345	0.122616
N41	N	1.057126	0.144932	0.274568
N42	N	1.057170	0.144953	-0.196140
C43	C	1.117690	0.073684	0.307342
C44	C	1.117695	0.073683	0.411445
C45	C	1.057141	0.144936	0.482774
C46	C	0.996571	0.216188	0.449994
C47	C	0.996562	0.216183	0.345892
C48	C	0.996596	0.216195	0.666976
C49	C	0.996606	0.216201	0.771087
C50	C	1.117730	0.073695	0.732529
C51	C	1.117720	0.073690	0.628427
C52	C	1.057151	0.144943	0.595655
H53	H	0.328606	0.139869	0.201408
H54	H	0.328632	0.139880	-0.125721
H55	H	1.060594	-0.173597	-0.210503
F56	F	0.604722	0.146006	0.225602
H57	H	1.167010	0.015667	0.438127
F58	F	0.797352	0.150272	-0.145459
F59	F	1.182173	-0.002139	0.552513
F60	F	0.932154	0.292038	0.846994
F61	F	0.932128	0.292029	0.632102
H62	H	1.167004	0.015665	0.249271
H63	H	1.060542	-0.173646	0.116613
H64	H	1.167046	0.015678	0.759218
F65	F	0.932119	0.292017	0.525908
F66	F	0.604749	0.145970	-0.146617
H67	H	0.947244	0.274199	0.319210
H68	H	1.051875	-0.635781	-0.081795
F69	F	1.059824	-0.211184	0.213363
H70	H	1.056870	-0.372230	-0.264225
F71	F	0.797316	0.150279	0.226758
H72	H	0.497878	0.143630	0.202424
F73	F	0.509573	0.143888	-0.147185
H74	H	1.057428	-0.337902	0.342645
H75	H	1.053682	-0.536518	0.288907
F76	F	1.053499	-0.550124	-0.244740
