data_functionalizedCrystal
_audit_creation_method	'MofGen! by Chris Wilmer'
_symmetry_space_group_name_H-M	'P1'
_symmetry_Int_Tables_number	1
_symmetry_cell_setting	triclinic
loop_
_symmetry_equiv_pos_as_xyz
  x,y,z
_cell_length_a	10.654550
_cell_length_b	15.944551
_cell_length_c	9.130313
_cell_angle_alpha	89.997799
_cell_angle_beta	89.996220
_cell_angle_gamma	83.991820
loop_
_atom_site_label
_atom_site_type_symbol
_atom_site_fract_x
_atom_site_fract_y
_atom_site_fract_z
O1	O	1.666308	0.117973	-0.121923
O2	O	1.300684	0.129213	-0.121900
O3	O	1.493480	0.001376	-0.121899
O4	O	1.473511	0.245810	-0.121924
O5	O	1.493478	0.001379	0.121700
O6	O	1.300681	0.129216	0.121699
O7	O	1.666305	0.117976	0.121676
Cu8	Cu	1.483493	0.123596	0.143930
Cu9	Cu	1.483496	0.123592	-0.144154
O10	O	1.473509	0.245813	0.121675
C11	C	1.253895	0.128389	-0.000098
C12	C	1.114484	0.125920	-0.000088
C13	C	1.034024	0.201188	-0.000117
C14	C	0.903034	0.198863	-0.000142
C15	C	0.932975	0.045995	-0.000116
C16	C	1.063963	0.048321	-0.000080
C17	C	1.084545	0.278788	-0.000126
C18	C	1.004084	0.354062	-0.000156
C19	C	0.873094	0.351737	-0.000182
C20	C	0.822564	0.274137	-0.000176
C21	C	1.492650	-0.029921	-0.000099
C22	C	1.490165	-0.123182	-0.000098
C23	C	1.364720	-0.338765	-0.000111
C24	C	1.422971	-0.399443	0.119995
C25	C	1.485668	-0.293934	-0.000109
C26	C	1.423002	-0.399430	-0.120175
C27	C	1.481317	-0.458872	-0.000126
C28	C	1.543953	-0.353384	0.120095
C29	C	1.543967	-0.353364	-0.120182
C30	C	1.602306	-0.414024	-0.000048
C31	C	1.488172	-0.198917	-0.000098
C32	C	1.478822	-0.553887	-0.000127
C33	C	1.713094	0.118800	-0.000130
C34	C	1.852505	0.121269	-0.000149
C35	C	1.474339	0.277110	-0.000128
C36	C	1.476824	0.370371	-0.000139
N37	N	1.483500	0.123599	0.346552
N38	N	1.483499	0.123583	-0.346777
C39	C	1.568892	0.067012	0.423205
C40	C	1.568889	0.067002	0.576542
C41	C	1.398098	0.180173	0.576560
C42	C	1.398096	0.180178	0.423226
C43	C	1.654296	0.010433	0.346531
C44	C	1.739696	-0.046158	0.423184
C45	C	1.739693	-0.046168	0.576520
C46	C	1.654290	0.010412	0.653205
H47	H	1.129476	-0.012970	-0.000060
H48	H	1.045235	0.417241	-0.000149
C49	C	1.613013	-0.325762	-0.257364
H50	H	1.569917	-0.341355	-0.342622
H51	H	1.696939	-0.352572	-0.258234
H52	H	1.614748	-0.266319	-0.255886
H53	H	1.191203	0.280689	-0.000112
C54	C	1.612991	-0.325983	0.257424
H55	H	1.614102	-0.266483	0.256619
H56	H	1.697134	-0.352425	0.257773
H57	H	1.570300	-0.342123	0.342611
H58	H	0.715901	0.272250	-0.000174
H59	H	0.807585	0.413029	-0.000192
C60	C	1.654301	0.010446	0.177867
H61	H	1.591218	0.052255	0.143196
H62	H	1.637128	-0.043345	0.143164
H63	H	1.734565	0.022456	0.143186
H64	H	1.654286	0.010394	0.778062
H65	H	1.328561	0.226256	0.360815
C66	C	1.738038	-0.458043	0.000034
H67	H	1.780793	-0.442282	0.085427
H68	H	1.781321	-0.441570	-0.084479
H69	H	1.735731	-0.517441	-0.000763
H70	H	0.891822	-0.017184	-0.000135
H71	H	1.371831	-0.419804	-0.221721
C72	C	1.229106	-0.294547	0.000056
H73	H	1.186334	-0.310216	0.085506
H74	H	1.185709	-0.310971	-0.084398
H75	H	1.231618	-0.235166	-0.000806
H76	H	1.809220	-0.092252	0.638929
C77	C	1.833628	-0.108397	0.338845
H78	H	1.884475	-0.142105	0.406462
H79	H	1.885902	-0.077853	0.279029
H80	H	1.788449	-0.143644	0.279030
C81	C	1.353867	-0.427012	0.257169
H82	H	1.269468	-0.401000	0.257031
H83	H	1.396019	-0.410484	0.342457
H84	H	1.353458	-0.486563	0.256626
C85	C	1.304175	0.242413	0.660909
H86	H	1.316415	0.234310	0.763208
H87	H	1.220364	0.232773	0.635792
H88	H	1.317823	0.298560	0.635779
