data_functionalizedCrystal
_audit_creation_method	'MofGen! by Chris Wilmer'
_symmetry_space_group_name_H-M	'P1'
_symmetry_Int_Tables_number	1
_symmetry_cell_setting	triclinic
loop_
_symmetry_equiv_pos_as_xyz
  x,y,z
_cell_length_a	8.559649
_cell_length_b	13.101039
_cell_length_c	8.559649
_cell_angle_alpha	87.109304
_cell_angle_beta	110.221336
_cell_angle_gamma	87.116543
loop_
_atom_site_label
_atom_site_type_symbol
_atom_site_fract_x
_atom_site_fract_y
_atom_site_fract_z
O1	O	-2.136905	0.085216	-0.065084
O2	O	-1.661420	0.085216	0.018697
O3	O	-1.941053	0.085215	-0.260936
O4	O	-1.857272	0.085217	0.214549
O5	O	-1.920986	-0.085215	-0.240843
O6	O	-1.641353	-0.085214	0.038790
O7	O	-2.116838	-0.085214	-0.044991
Zn8	Zn	-1.875909	-0.112273	0.000090
Zn9	Zn	-1.902348	0.112275	-0.026384
O10	O	-1.837205	-0.085213	0.234642
C11	C	-1.591077	0.000001	0.035093
C12	C	-1.411378	0.000001	0.053992
N13	N	-1.857877	-0.265522	0.018154
C14	C	-1.833342	-0.474564	0.042747
C15	C	-1.944924	-0.525441	-0.069050
C16	C	-1.931272	-0.641759	-0.055366
C17	C	-1.846991	-0.358236	0.029066
C18	C	-1.187180	0.000001	-0.061387
C19	C	-1.366880	0.000001	-0.080286
C20	C	-1.937369	0.000002	-0.311199
C21	C	-1.956269	0.000007	-0.490899
N22	N	-1.920395	0.265524	-0.044463
C23	C	-1.840889	0.000002	0.284904
C24	C	-1.821990	0.000003	0.464603
H25	H	-1.311991	0.000007	0.183419
H26	H	-1.727569	-0.518361	0.148730
C27	C	-1.647153	0.000013	-0.401155
H28	H	-1.656960	0.000027	-0.293938
H29	H	-1.581313	-0.059418	-0.406327
H30	H	-1.595330	0.059455	-0.420363
H31	H	-2.085696	-0.000001	-0.590286
H32	H	-1.466258	0.000007	-0.209706
H33	H	-2.050706	-0.481639	-0.175038
