data_functionalizedCrystal
_audit_creation_method	'MofGen! by Chris Wilmer'
_symmetry_space_group_name_H-M	'P1'
_symmetry_Int_Tables_number	1
_symmetry_cell_setting	triclinic
loop_
_symmetry_equiv_pos_as_xyz
  x,y,z
_cell_length_a	14.908571
_cell_length_b	17.640280
_cell_length_c	14.908308
_cell_angle_alpha	97.330278
_cell_angle_beta	89.824947
_cell_angle_gamma	74.921313
loop_
_atom_site_label
_atom_site_type_symbol
_atom_site_fract_x
_atom_site_fract_y
_atom_site_fract_z
Zn1	Zn	1.445833	-0.413045	0.498174
Zn2	Zn	1.484886	-0.538235	0.320716
Zn3	Zn	1.300448	-0.397842	0.342463
Zn4	Zn	1.325685	-0.537295	0.462571
O5	O	1.389213	-0.471604	0.405981
O6	O	1.578484	-0.436407	0.480433
O7	O	1.466202	-0.513643	0.199068
O8	O	1.292829	-0.289105	0.387120
O9	O	1.607176	-0.528384	0.350055
O10	O	1.399643	-0.300274	0.501520
O11	O	1.330696	-0.410497	0.215045
O12	O	1.176326	-0.409585	0.352597
O13	O	1.335841	-0.526782	0.591827
O14	O	1.194867	-0.512041	0.440840
O15	O	1.424113	-0.435496	0.617984
O16	O	1.490673	-0.648865	0.315532
O17	O	1.373708	-0.648174	0.419752
C18	C	1.152545	-0.459062	0.395215
C19	C	1.051300	-0.453716	0.390626
C20	C	1.439191	-0.677239	0.361439
C21	C	1.460653	-0.765216	0.342418
C22	C	0.880453	-0.550508	0.473704
C23	C	0.785325	-0.545487	0.469395
C24	C	0.765915	-0.438653	0.377705
C25	C	0.861043	-0.443673	0.382014
C26	C	0.918309	-0.499603	0.430014
C27	C	1.013439	-0.504626	0.434317
C28	C	0.994026	-0.397788	0.342633
C29	C	0.898899	-0.392768	0.338324
C30	C	1.226523	-1.052872	0.550826
C31	C	1.246694	-1.135539	0.532924
C32	C	1.368555	-1.136202	0.424518
C33	C	1.348398	-1.053534	0.442414
C34	C	1.277380	-1.011876	0.505568
C35	C	1.399256	-1.012538	0.397156
C36	C	1.379096	-0.929876	0.415047
C37	C	1.308080	-0.888212	0.478197
C38	C	1.257221	-0.929214	0.523460
C39	C	1.470269	-1.054197	0.333997
C40	C	1.521126	-1.013201	0.288739
C41	C	1.500972	-0.930538	0.306635
C42	C	1.429955	-0.888874	0.369784
C43	C	1.551830	-0.889536	0.261372
C44	C	1.531671	-0.806875	0.279264
C45	C	1.409796	-0.806213	0.387676
C46	C	1.626806	-0.484197	0.416790
C47	C	1.728054	-0.489563	0.421396
C48	C	1.378436	-0.482730	0.638098
C49	C	1.373843	-0.487470	0.737013
C50	C	1.339064	-0.265169	0.450717
C51	C	1.317694	-0.177199	0.469781
C52	C	1.399987	-0.460468	0.174782
C53	C	1.404702	-0.455514	0.075924
C54	C	1.457124	-0.401304	0.950127
C55	C	1.452812	-0.405756	1.043067
C56	C	1.360899	-0.500821	1.015834
C57	C	1.365212	-0.496369	0.922895
C58	C	1.413328	-0.446610	0.890045
C59	C	1.417646	-0.442163	0.797102
C60	C	1.325728	-0.537224	0.769872
C61	C	1.321415	-0.541675	0.862812
H62	H	1.060064	-0.550169	0.473399
C63	C	1.308000	-0.555580	1.051955
C64	C	1.203477	-0.543063	1.035859
C65	C	1.150590	-0.597837	1.071968
C66	C	1.202226	-0.665129	1.124173
C67	C	1.306755	-0.677650	1.140271
C68	C	1.359642	-0.622875	1.104162
H69	H	1.165247	-0.493247	0.997212
H70	H	1.073210	-0.588568	1.060051
H71	H	1.163075	-0.705676	1.150903
H72	H	1.344984	-0.727466	1.178919
H73	H	1.437021	-0.632144	1.116080
C74	C	1.587613	-0.761770	0.229486
C75	C	1.587745	-0.767914	0.125515
C76	C	1.643685	-0.722807	0.075734
C77	C	1.699492	-0.671556	0.129925
C78	C	1.699361	-0.665409	0.233903
C79	C	1.643422	-0.710516	0.283684
H80	H	1.546432	-0.805855	0.085394
H81	H	1.643781	-0.727357	-0.001238
H82	H	1.740901	-0.638165	0.093075
H83	H	1.740675	-0.627468	0.274024
H84	H	1.643326	-0.705966	0.360655
C85	C	1.277526	-0.587055	0.703791
C86	C	1.200635	-0.545904	0.644089
C87	C	1.152428	-0.595733	0.578013
C88	C	1.181112	-0.686713	0.571638
C89	C	1.258007	-0.727869	0.631342
C90	C	1.306214	-0.678040	0.697418
H91	H	1.179397	-0.478551	0.648806
H92	H	1.095505	-0.565266	0.533816
H93	H	1.145426	-0.723599	0.522725
H94	H	1.279245	-0.795222	0.626625
H95	H	1.363138	-0.708507	0.741615
H96	H	1.168699	-1.018953	0.602260
H97	H	1.351972	-0.772293	0.439109
H98	H	0.927081	-0.596052	0.512781
H99	H	0.719272	-0.393112	0.338632
C100	C	0.743683	-0.601485	0.517451
C101	C	0.806677	-0.663004	0.570246
C102	C	0.765035	-0.719003	0.618306
C103	C	0.660399	-0.713485	0.613570
C104	C	0.597399	-0.651964	0.560773
C105	C	0.639041	-0.595964	0.512713
H106	H	0.884141	-0.667091	0.573754
H107	H	0.811673	-0.764545	0.657390
H108	H	0.629574	-0.754939	0.649147
H109	H	0.519936	-0.647877	0.557265
H110	H	0.592403	-0.550423	0.473629
C111	C	1.268504	-0.596422	0.898942
C112	C	1.163978	-0.583888	0.882850
C113	C	1.111074	-0.638644	0.918972
C114	C	1.162695	-0.705933	0.971188
C115	C	1.267226	-0.718470	0.987283
C116	C	1.320131	-0.663715	0.951160
H117	H	1.125760	-0.534074	0.844194
H118	H	1.033692	-0.629363	0.907057
H119	H	1.123532	-0.746467	0.997928
H120	H	1.305445	-0.768285	1.025938
H121	H	1.397512	-0.672995	0.963075
H122	H	1.456825	-0.401647	0.770358
H123	H	1.496307	-0.360792	0.923380
C124	C	1.190754	-1.180637	0.582722
C125	C	1.212927	-1.271561	0.563050
C126	C	1.156991	-1.316659	0.612848
C127	C	1.078881	-1.270833	0.682318
C128	C	1.056704	-1.179904	0.701993
C129	C	1.112640	-1.134806	0.652195
H130	H	1.270752	-1.305489	0.511622
H131	H	1.173408	-1.383972	0.598283
H132	H	1.037473	-1.304218	0.719181
H133	H	0.998878	-1.145976	0.753421
H134	H	1.096223	-1.067494	0.666761
C135	C	0.835899	-0.331250	0.285527
C136	C	0.753615	-0.267566	0.334685
C137	C	0.690616	-0.206048	0.281885
C138	C	0.709901	-0.208214	0.179927
C139	C	0.792188	-0.271900	0.130763
C140	C	0.855187	-0.333418	0.183563
H141	H	0.739336	-0.265960	0.410166
H142	H	0.629702	-0.158903	0.318280
H143	H	0.663265	-0.162674	0.140841
H144	H	0.806467	-0.273505	0.055282
H145	H	0.916102	-0.380562	0.147168
H146	H	1.024859	-0.356339	0.307055
H147	H	1.426376	-1.170132	0.373095
H148	H	1.486682	-1.121505	0.319435
C149	C	1.599244	-1.059031	0.219274
C150	C	1.576950	-1.110460	0.135272
C151	C	1.655071	-1.156290	0.065808
C152	C	1.755487	-1.150690	0.080347
C153	C	1.777787	-1.099258	0.164353
C154	C	1.699665	-1.053429	0.233816
H155	H	1.502612	-1.114608	0.124507
H156	H	1.638564	-1.194363	0.003622
H157	H	1.813318	-1.184615	0.028925
H158	H	1.852125	-1.095111	0.175118
H159	H	1.716173	-1.015355	0.296003
H160	H	1.291662	-0.820903	0.492756
H161	H	1.199398	-0.895295	0.574893
C162	C	1.629942	-0.935367	0.191901
C163	C	1.607634	-0.986792	0.107901
C164	C	1.685746	-1.032622	0.038428
C165	C	1.786166	-1.027029	0.052955
C166	C	1.808479	-0.975603	0.136959
C167	C	1.730367	-0.929772	0.206432
H168	H	1.533293	-0.990934	0.097144
H169	H	1.669229	-1.070692	-0.023757
H170	H	1.843990	-1.060956	0.001527
H171	H	1.882820	-0.971460	0.147716
H172	H	1.746885	-0.891702	0.268617
H173	H	1.488473	-0.368861	1.091984
