data_functionalizedCrystal
_audit_creation_method	'MofGen! by Chris Wilmer'
_symmetry_space_group_name_H-M	'P1'
_symmetry_Int_Tables_number	1
_symmetry_cell_setting	triclinic
loop_
_symmetry_equiv_pos_as_xyz
  x,y,z
_cell_length_a	11.169417
_cell_length_b	19.121063
_cell_length_c	11.169409
_cell_angle_alpha	87.599247
_cell_angle_beta	90.019513
_cell_angle_gamma	92.470085
loop_
_atom_site_label
_atom_site_type_symbol
_atom_site_fract_x
_atom_site_fract_y
_atom_site_fract_z
Zn1	Zn	1.814442	-0.279532	0.698841
Zn2	Zn	2.147775	0.053801	1.032174
Zn3	Zn	2.481109	0.387135	1.365507
Zn4	Zn	1.805708	-0.397005	0.506692
Zn5	Zn	2.139041	-0.063672	0.840025
Zn6	Zn	2.472374	0.269661	1.173359
Zn7	Zn	1.613725	-0.279576	0.498179
Zn8	Zn	1.947058	0.053758	0.831513
Zn9	Zn	2.280391	0.387091	1.164846
Zn10	Zn	1.605116	-0.396949	0.707334
Zn11	Zn	1.938449	-0.063616	1.040667
Zn12	Zn	2.271783	0.269718	1.374000
O13	O	1.709748	-0.338266	0.602761
O14	O	2.043081	-0.004932	0.936095
O15	O	2.376414	0.328401	1.269428
O16	O	1.981233	-0.295121	0.673360
O17	O	2.314566	0.038213	1.006693
O18	O	2.647899	0.371546	1.340027
O19	O	1.780188	-0.381470	0.337616
O20	O	2.113522	-0.048137	0.670949
O21	O	2.446855	0.285197	1.004283
O22	O	1.647608	-0.181286	0.517680
O23	O	1.980942	0.152047	0.851014
O24	O	2.314275	0.485381	1.184347
O25	O	1.974816	-0.381428	0.532189
O26	O	2.308149	-0.048094	0.865522
O27	O	2.641482	0.285239	1.198856
O28	O	1.795075	-0.181254	0.665105
O29	O	2.128408	0.152079	0.998439
O30	O	2.461741	0.485413	1.331772
O31	O	1.639139	-0.295195	0.331362
O32	O	1.972473	0.038138	0.664695
O33	O	2.305806	0.371472	0.998028
O34	O	1.444633	-0.295140	0.525916
O35	O	1.777967	0.038193	0.859249
O36	O	2.111300	0.371526	1.192583
O37	O	1.632936	-0.381332	0.874154
O38	O	1.966269	-0.047998	1.207487
O39	O	2.299603	0.285335	1.540821
O40	O	1.438309	-0.381374	0.679581
O41	O	1.771642	-0.048040	1.012914
O42	O	2.104975	0.285293	1.346247
O43	O	1.786727	-0.295066	0.867914
O44	O	2.120060	0.038267	1.201247
O45	O	2.453394	0.371601	1.534581
O46	O	1.771841	-0.495282	0.540424
O47	O	2.105174	-0.161949	0.873758
O48	O	2.438507	0.171385	1.207091
O49	O	1.624467	-0.495241	0.687835
O50	O	1.957800	-0.161907	1.021169
O51	O	2.291133	0.171426	1.354502
C52	C	1.397924	-0.338256	0.602747
C53	C	1.731257	-0.004923	0.936080
C54	C	2.064590	0.328411	1.269414
C55	C	1.264523	-0.338269	0.602770
C56	C	1.597856	-0.004936	0.936104
C57	C	1.931189	0.328398	1.269437
C58	C	1.696304	-0.520745	0.616001
C59	C	2.029638	-0.187412	0.949335
C60	C	2.362971	0.145921	1.282668
C61	C	1.690663	-0.598811	0.621706
C62	C	2.023996	-0.265477	0.955039
C63	C	2.357330	0.067856	1.288372
C64	C	1.764802	-0.635484	0.547700
C65	C	2.098136	-0.302151	0.881033
C66	C	2.431469	0.031182	1.214367
C67	C	1.759504	-0.708835	0.553072
C68	C	2.092837	-0.375502	0.886405
C69	C	2.426170	-0.042169	1.219739
C70	C	1.680059	-0.745511	0.632444
C71	C	2.013393	-0.412178	0.965777
C72	C	2.346726	-0.078845	1.299111
C73	C	1.605917	-0.708832	0.706458
C74	C	1.939250	-0.375499	1.039791
C75	C	2.272584	-0.042166	1.373124
C76	C	1.611222	-0.635483	0.701091
C77	C	1.944556	-0.302150	1.034424
C78	C	2.277889	0.031184	1.367758
C79	C	1.660204	-0.966979	0.652490
C80	C	1.993538	-0.633646	0.985823
C81	C	2.326871	-0.300313	1.319157
C82	C	1.654902	-1.040334	0.657849
C83	C	1.988235	-0.707001	0.991182
C84	C	2.321569	-0.373667	1.324515
C85	C	1.808491	-1.040332	0.504464
C86	C	2.141824	-0.706999	0.837797
C87	C	2.475158	-0.373665	1.171131
C88	C	1.813784	-0.966981	0.499099
C89	C	2.147117	-0.633648	0.832433
C90	C	2.480451	-0.300314	1.165766
C91	C	1.739647	-0.930309	0.573117
C92	C	2.072980	-0.596975	0.906450
C93	C	2.406313	-0.263642	1.239784
C94	C	1.674639	-0.820488	0.637934
C95	C	2.007972	-0.487154	0.971268
C96	C	2.341305	-0.153821	1.304601
C97	C	1.745074	-0.855334	0.567632
C98	C	2.078407	-0.522000	0.900965
C99	C	2.411741	-0.188667	1.234299
C100	C	2.022789	-0.338276	0.602777
C101	C	2.356123	-0.004942	0.936110
C102	C	2.689456	0.328391	1.269443
C103	C	2.156189	-0.338280	0.602783
C104	C	2.489522	-0.004947	0.936116
C105	C	2.822856	0.328387	1.269450
C106	C	1.709846	-0.338188	0.915798
C107	C	2.043179	-0.004854	1.249132
C108	C	2.376512	0.328479	1.582465
C109	C	1.709887	-0.338154	1.049196
C110	C	2.043221	-0.004821	1.382529
C111	C	2.376554	0.328512	1.715863
C112	C	1.723276	-0.155073	0.589496
C113	C	2.056609	0.178260	0.922829
C114	C	2.389943	0.511593	1.256163
C115	C	1.729041	-0.077008	0.583843
C116	C	2.062374	0.256326	0.917176
C117	C	2.395708	0.589659	1.250510
C118	C	1.709723	-0.338293	0.290939
C119	C	2.043056	-0.004959	0.624272
C120	C	2.376390	0.328374	0.957605
C121	C	1.709928	-0.338128	0.157527
C122	C	2.043262	-0.004795	0.490861
C123	C	2.376595	0.328539	0.824194
H124	H	1.819875	-0.738692	0.492808
H125	H	2.153208	-0.405358	0.826141
H126	H	2.486542	-0.072025	1.159475
H127	H	1.599836	-0.937127	0.712756
H128	H	1.933170	-0.603793	1.046089
H129	H	2.266503	-0.270460	1.379423
O130	O	1.577757	-1.076071	0.734852
O131	O	1.911090	-0.742738	1.068185
O132	O	2.244424	-0.409404	1.401518
C133	C	1.588992	-1.148675	0.723727
C134	C	1.922325	-0.815341	1.057060
C135	C	2.255659	-0.482008	1.390394
H136	H	1.627618	-1.158714	0.631870
H137	H	1.960951	-0.825381	0.965204
H138	H	2.294285	-0.492047	1.298537
H139	H	1.497070	-1.176592	0.733830
H140	H	1.830404	-0.843259	1.067164
H141	H	2.163737	-0.509925	1.400497
H142	H	1.651369	-1.169427	0.796483
H143	H	1.984703	-0.836094	1.129817
H144	H	2.318036	-0.502760	1.463150
H145	H	1.609952	-0.850357	0.702557
H146	H	1.943286	-0.517024	1.035890
H147	H	2.276619	-0.183691	1.369224
O148	O	1.842039	-0.599784	0.470756
O149	O	2.175373	-0.266450	0.804090
O150	O	2.508706	0.066883	1.137423
C151	C	1.922615	-0.557296	0.536043
C152	C	2.255949	-0.223962	0.869377
C153	C	2.589282	0.109371	1.202710
H154	H	1.881036	-0.546279	0.626153
H155	H	2.214370	-0.212946	0.959487
H156	H	2.547703	0.120388	1.292820
H157	H	1.942456	-0.505734	0.483395
H158	H	2.275790	-0.172401	0.816728
H159	H	2.609123	0.160932	1.150062
H160	H	2.009508	-0.585515	0.551373
H161	H	2.342841	-0.252181	0.884706
H162	H	2.676175	0.081152	1.218040
H163	H	1.878474	-0.937121	0.434468
H164	H	2.211807	-0.603788	0.767801
H165	H	2.545141	-0.270454	1.101135
O166	O	1.880472	-1.076064	0.432704
O167	O	2.213806	-0.742731	0.766037
O168	O	2.547139	-0.409398	1.099371
C169	C	1.858743	-1.148669	0.454438
C170	C	2.192076	-0.815336	0.787772
C171	C	2.525409	-0.482002	1.121105
H172	H	1.818651	-1.158660	0.547751
H173	H	2.151985	-0.825327	0.881085
H174	H	2.485318	-0.491993	1.214418
H175	H	1.946638	-1.176502	0.448427
H176	H	2.279971	-0.843168	0.781761
H177	H	2.613304	-0.509835	1.115094
H178	H	1.793370	-1.169556	0.384713
H179	H	2.126704	-0.836223	0.718047
H180	H	2.460037	-0.502889	1.051380
H181	H	1.541237	-0.738700	0.771089
H182	H	1.874570	-0.405366	1.104423
H183	H	2.207904	-0.072033	1.437756
H184	H	1.550852	-0.605624	0.761356
H185	H	1.884186	-0.272291	1.094689
H186	H	2.217519	0.061043	1.428022
H187	H	1.809762	-0.825470	0.503012
H188	H	2.143096	-0.492137	0.836345
H189	H	2.476429	-0.158803	1.169678
