data_functionalizedCrystal
_audit_creation_method	'MofGen! by Chris Wilmer'
_symmetry_space_group_name_H-M	'P1'
_symmetry_Int_Tables_number	1
_symmetry_cell_setting	triclinic
loop_
_symmetry_equiv_pos_as_xyz
  x,y,z
_cell_length_a	19.805407
_cell_length_b	12.827892
_cell_length_c	19.805399
_cell_angle_alpha	89.976064
_cell_angle_beta	89.983114
_cell_angle_gamma	90.015392
loop_
_atom_site_label
_atom_site_type_symbol
_atom_site_fract_x
_atom_site_fract_y
_atom_site_fract_z
Zn1	Zn	1.034770	-0.416043	-0.382743
Zn2	Zn	1.534770	0.083957	0.117257
Zn3	Zn	1.034711	-0.590802	-0.269565
Zn4	Zn	1.534711	-0.090802	0.230435
Zn5	Zn	0.921590	-0.416076	-0.269568
Zn6	Zn	1.421590	0.083924	0.230432
Zn7	Zn	0.921569	-0.590742	-0.382712
Zn8	Zn	1.421569	-0.090742	0.117288
O9	O	0.978160	-0.503416	-0.326147
O10	O	1.478160	-0.003416	0.173853
O11	O	1.129478	-0.439236	-0.367742
O12	O	1.629478	0.060764	0.132258
O13	O	1.019690	-0.567663	-0.174849
O14	O	1.519690	-0.067663	0.325151
O15	O	0.936636	-0.269835	-0.284595
O16	O	1.436636	0.230165	0.215405
O17	O	1.129436	-0.567631	-0.284590
O18	O	1.629436	-0.067631	0.215410
O19	O	1.019789	-0.269811	-0.367745
O20	O	1.519789	0.230189	0.132255
O21	O	0.936579	-0.439293	-0.174851
O22	O	1.436579	0.060707	0.325149
O23	O	0.826870	-0.439235	-0.284565
O24	O	1.326870	0.060765	0.215435
O25	O	0.936602	-0.567529	-0.477433
O26	O	1.436602	-0.067529	0.022567
O27	O	0.826856	-0.567561	-0.367691
O28	O	1.326856	-0.067561	0.132309
O29	O	1.019769	-0.439178	-0.477456
O30	O	1.519769	0.060822	0.022544
O31	O	1.019670	-0.737030	-0.284560
O32	O	1.519670	-0.237030	0.215440
O33	O	0.936545	-0.736986	-0.367688
O34	O	1.436545	-0.236986	0.132312
C35	C	0.802304	-0.503396	-0.326125
C36	C	1.302304	-0.003396	0.173875
C37	C	0.727072	-0.503412	-0.326132
C38	C	1.227072	-0.003412	0.173868
C39	C	0.691738	-0.570333	-0.369346
C40	C	1.191738	-0.070333	0.130654
C41	C	0.621049	-0.570335	-0.369355
C42	C	1.121049	-0.070335	0.130645
C43	C	0.585696	-0.503421	-0.326147
C44	C	1.085696	-0.003421	0.173853
C45	C	0.621035	-0.436493	-0.282931
C46	C	1.121035	0.063507	0.217069
C47	C	0.691723	-0.436487	-0.282926
C48	C	1.191723	0.063513	0.217074
C49	C	0.335962	-0.436516	-0.282954
C50	C	0.835962	0.063484	0.217046
C51	C	0.265270	-0.436530	-0.282961
C52	C	0.765270	0.063470	0.217039
C53	C	0.265289	-0.570364	-0.369383
C54	C	0.765289	-0.070364	0.130617
C55	C	0.335976	-0.570358	-0.369378
C56	C	0.835976	-0.070358	0.130622
C57	C	0.371309	-0.503427	-0.326165
C58	C	0.871309	-0.003427	0.173835
C59	C	0.447957	-0.503424	-0.326156
C60	C	0.947957	-0.003424	0.173844
C61	C	0.509049	-0.503428	-0.326152
C62	C	1.009049	-0.003428	0.173848
C63	C	0.978118	-0.774926	-0.326135
C64	C	1.478118	-0.274926	0.173865
C65	C	0.978161	-0.891079	-0.326153
C66	C	1.478161	-0.391079	0.173847
C67	C	1.019343	-0.942851	-0.285064
C68	C	1.519343	-0.442851	0.214936
C69	C	1.019389	-1.062901	-0.285081
C70	C	1.519389	-0.562901	0.214919
C71	C	1.154703	-0.503437	-0.326169
C72	C	1.654703	-0.003437	0.173831
C73	C	1.229935	-0.503446	-0.326179
C74	C	1.729935	-0.003446	0.173821
C75	C	0.978190	-0.503343	-0.502690
C76	C	1.478190	-0.003343	-0.002690
C77	C	0.978202	-0.503312	-0.577922
C78	C	1.478202	-0.003312	-0.077922
C79	C	0.978221	-0.230846	-0.326174
C80	C	1.478221	0.269154	0.173826
C81	C	0.978247	-0.114693	-0.326185
C82	C	1.478247	0.385307	0.173815
C83	C	0.934939	-0.436463	-0.613267
C84	C	1.434939	0.063537	-0.113267
C85	C	0.934948	-0.436443	-0.683955
C86	C	1.434948	0.063557	-0.183955
C87	C	0.978225	-0.503267	-0.719298
C88	C	1.478225	-0.003267	-0.219298
C89	C	1.021490	-0.570124	-0.683948
C90	C	1.521490	-0.070124	-0.183948
C91	C	1.021477	-0.570148	-0.613261
C92	C	1.521477	-0.070148	-0.113261
C93	C	1.021544	-0.570026	-0.969021
C94	C	1.521544	-0.070026	-0.469021
C95	C	1.021555	-0.569994	-1.039713
C96	C	1.521555	-0.069994	-0.539713
C97	C	0.935015	-0.436321	-1.039716
C98	C	1.435015	0.063679	-0.539716
C99	C	0.935002	-0.436345	-0.969029
C100	C	1.435002	0.063655	-0.469029
C101	C	0.978264	-0.503205	-0.933685
C102	C	1.478264	-0.003205	-0.433685
C103	C	0.978253	-0.503228	-0.857037
C104	C	1.478253	-0.003228	-0.357037
C105	C	0.978240	-0.503240	-0.795945
C106	C	1.478240	-0.003240	-0.295945
C107	C	0.978169	-0.503413	-0.150291
C108	C	1.478169	-0.003413	0.349709
C109	C	0.978288	-0.503149	-0.075060
C110	C	1.478288	-0.003149	0.424940
H111	H	0.236513	-0.624859	-0.404572
H112	H	0.736513	-0.124859	0.095428
H113	H	0.720491	-0.381988	-0.247740
H114	H	1.220491	0.118012	0.252260
H115	H	1.054569	-0.898300	-0.249875
H116	H	1.554569	-0.398300	0.250125
H117	H	1.056711	-0.624576	-0.584484
H118	H	1.556711	-0.124576	-0.084484
H119	H	0.720517	-0.624826	-0.404529
H120	H	1.220517	-0.124826	0.095471
H121	H	1.054645	-1.107424	-0.249901
H122	H	1.554645	-0.607424	0.250099
C123	C	0.930612	-1.054554	-0.373713
C124	C	1.430612	-0.554554	0.126287
N125	N	0.894735	-1.009250	-0.409512
N126	N	1.394735	-0.509250	0.090488
H127	H	1.056763	-0.624478	-0.940253
H128	H	1.556763	-0.124478	-0.440253
H129	H	0.942941	-0.935632	-0.361346
H130	H	1.442941	-0.435632	0.138654
H131	H	0.364757	-0.624850	-0.404560
H132	H	0.864757	-0.124850	0.095440
H133	H	1.056723	-0.624538	-0.712729
H134	H	1.556723	-0.124538	-0.212729
C135	C	0.887394	-0.362835	-0.930156
C136	C	1.387394	0.137165	-0.430156
N137	N	0.851532	-0.307469	-0.900878
N138	N	1.351532	0.192531	-0.400878
H139	H	0.592284	-0.624829	-0.404544
H140	H	1.092284	-0.124829	0.095456
C141	C	1.069160	-0.643516	-1.078589
C142	C	1.569160	-0.143516	-0.578589
N143	N	1.105014	-0.698890	-1.107870
N144	N	1.605014	-0.198890	-0.607870
H145	H	0.899702	-0.382041	-0.584496
H146	H	1.399702	0.117959	-0.084496
H147	H	0.899717	-0.382012	-0.712730
H148	H	1.399717	0.117988	-0.212730
C149	C	0.374819	-0.362896	-0.235414
C150	C	0.874819	0.137104	0.264586
N151	N	0.404089	-0.307444	-0.199603
N152	N	0.904089	0.192556	0.300397
C153	C	0.226383	-0.362907	-0.235432
C154	C	0.726383	0.137093	0.264568
N155	N	0.197093	-0.307457	-0.199635
N156	N	0.697093	0.192543	0.300365
C157	C	0.887420	-0.362780	-1.078600
C158	C	1.387420	0.137220	-0.578600
N159	N	0.851574	-0.307390	-1.107886
N160	N	1.351574	0.192610	-0.607886
H161	H	0.592245	-0.382006	-0.247753
H162	H	1.092245	0.117994	0.252247
