data_functionalizedCrystal
_audit_creation_method	'MofGen! by Chris Wilmer'
_symmetry_space_group_name_H-M	'P1'
_symmetry_Int_Tables_number	1
_symmetry_cell_setting	triclinic
loop_
_symmetry_equiv_pos_as_xyz
  x,y,z
_cell_length_a	18.215399
_cell_length_b	12.759401
_cell_length_c	12.759400
_cell_angle_alpha	90.014845
_cell_angle_beta	90.026955
_cell_angle_gamma	90.013489
loop_
_atom_site_label
_atom_site_type_symbol
_atom_site_fract_x
_atom_site_fract_y
_atom_site_fract_z
Zn1	Zn	-0.416068	-1.606204	0.418248
Zn2	Zn	-0.293009	-1.606113	0.593952
Zn3	Zn	-0.293022	-1.430521	0.418288
Zn4	Zn	-0.416041	-1.430494	0.593886
O5	O	-0.354535	-1.518333	0.506094
O6	O	-0.399749	-1.753213	0.441566
O7	O	-0.190026	-1.582794	0.570695
O8	O	-0.309361	-1.453875	0.271262
O9	O	-0.309338	-1.753146	0.570656
O10	O	-0.399762	-1.582948	0.271232
O11	O	-0.190036	-1.453787	0.441636
O12	O	-0.309335	-1.283496	0.441571
O13	O	-0.519029	-1.453829	0.570542
O14	O	-0.399717	-1.283477	0.570581
O15	O	-0.519049	-1.582922	0.441501
O16	O	-0.309312	-1.582768	0.740965
O17	O	-0.399704	-1.453742	0.740916
C18	C	-0.354525	-1.245366	0.506074
C19	C	-0.354538	-1.128589	0.506091
C20	C	-0.354520	-1.518271	0.779061
C21	C	-0.354538	-1.518340	0.895838
C22	C	-0.546488	-1.518383	0.506010
C23	C	-0.628287	-1.518404	0.505974
C24	C	-0.816487	-1.451287	0.438727
C25	C	-0.893346	-1.451305	0.438706
C26	C	-0.893325	-1.585647	0.573095
C27	C	-0.816467	-1.585622	0.573121
C28	C	-0.778050	-1.518444	0.505931
C29	C	-0.931767	-1.518486	0.505884
C30	C	-1.015100	-1.518507	0.505862
C31	C	-0.694711	-1.518422	0.505954
C32	C	-0.163329	-1.518344	0.506101
C33	C	-0.081530	-1.518526	0.505841
C34	C	-0.354545	-1.792366	0.506114
C35	C	-0.354550	-1.909143	0.506122
C36	C	-0.401522	-1.073744	0.573374
C37	C	-0.401530	-0.964020	0.573388
C38	C	-0.307564	-0.963995	0.438832
C39	C	-0.307560	-1.073717	0.438814
C40	C	-0.455770	-1.073758	0.651063
C41	C	-0.455778	-0.964034	0.651076
C42	C	-0.354566	-1.518424	0.232060
C43	C	-0.354580	-1.518463	0.115284
C44	C	-0.307523	-1.585599	0.950690
C45	C	-0.307546	-1.585663	1.060414
C46	C	-0.401600	-1.451201	1.060423
C47	C	-0.401580	-1.451143	0.950701
C48	C	-0.253219	-1.663226	0.950686
C49	C	-0.253242	-1.663291	1.060410
H50	H	-0.924637	-1.396618	0.383983
H51	H	-0.924613	-1.640342	0.627798
O52	O	-0.779239	-1.650962	0.638440
C53	C	-0.787322	-1.784167	0.771780
C54	C	-0.829575	-1.710250	0.697844
H55	H	-0.828000	-1.832104	0.819843
H56	H	-0.751367	-1.839174	0.723610
H57	H	-0.751311	-1.735881	0.826678
H58	H	-0.865625	-1.758451	0.642932
H59	H	-0.865484	-1.655240	0.746080
O60	O	-0.437533	-0.928604	0.748195
C61	C	-0.468374	-0.925203	0.931794
C62	C	-0.489110	-0.965420	0.821877
H63	H	-0.510072	-0.954934	0.991393
H64	H	-0.411370	-0.954971	0.953580
H65	H	-0.468355	-0.835855	0.931765
H66	H	-0.489172	-1.054764	0.821822
H67	H	-0.546101	-0.935572	0.800135
H68	H	-0.512793	-1.103559	0.629370
O69	O	-0.261859	-1.126832	0.373411
C70	C	-0.168705	-1.115223	0.239885
C71	C	-0.220412	-1.054942	0.313924
H72	H	-0.135192	-1.057127	0.191755
H73	H	-0.130109	-1.166547	0.287979
H74	H	-0.202578	-1.166636	0.185055
H75	H	-0.186598	-1.003472	0.368769
H76	H	-0.259010	-1.003684	0.265765
O77	O	-0.447256	-1.385781	1.113604
C78	C	-0.482856	-1.207055	1.147333
C79	C	-0.431115	-1.281028	1.087026
H80	H	-0.469814	-1.122346	1.125884
H81	H	-0.542216	-1.225357	1.125658
H82	H	-0.474810	-1.218706	1.235172
H83	H	-0.439095	-1.269419	0.999174
H84	H	-0.371775	-1.262708	1.108788
H85	H	-0.269317	-0.919305	0.384056
O86	O	-0.271440	-1.760211	0.914881
C87	C	-0.292124	-1.869911	0.763969
C88	C	-0.271463	-1.760040	0.804376
H89	H	-0.292165	-1.869803	0.674622
H90	H	-0.250436	-1.929566	0.793662
H91	H	-0.349125	-1.891688	0.793722
H92	H	-0.214480	-1.738164	0.774639
H93	H	-0.313199	-1.700449	0.774692
O94	O	-0.277639	-1.755589	1.100745
C95	C	-0.323562	-1.928907	1.064142
C96	C	-0.295930	-1.824448	1.018321
H97	H	-0.338373	-1.984600	0.997524
H98	H	-0.278626	-1.965540	1.114410
H99	H	-0.374195	-1.913880	1.114426
H100	H	-0.245310	-1.839385	0.967989
H101	H	-0.340911	-1.787847	0.968112
H102	H	-0.196237	-1.641560	1.090266
H103	H	-0.435257	-1.107775	0.728312
H104	H	-0.199055	-1.634108	0.916732
H105	H	-0.785210	-1.396585	0.384017
H106	H	-0.509961	-0.930029	0.622038
H107	H	-0.439870	-1.396385	0.906041
