data_functionalizedCrystal
_audit_creation_method	'MofGen! by Chris Wilmer'
_symmetry_space_group_name_H-M	'P1'
_symmetry_Int_Tables_number	1
_symmetry_cell_setting	triclinic
loop_
_symmetry_equiv_pos_as_xyz
  x,y,z
_cell_length_a	14.044220
_cell_length_b	10.540539
_cell_length_c	12.503572
_cell_angle_alpha	93.560877
_cell_angle_beta	86.164750
_cell_angle_gamma	88.857185
loop_
_atom_site_label
_atom_site_type_symbol
_atom_site_fract_x
_atom_site_fract_y
_atom_site_fract_z
O1	O	1.265193	0.299541	-0.089197
O2	O	0.989150	0.288487	-0.089224
O3	O	1.133469	0.109945	-0.089208
O4	O	1.120874	0.478084	-0.089212
O5	O	1.122616	0.123396	0.089432
O6	O	0.978297	0.301939	0.089417
O7	O	1.254339	0.312993	0.089444
Cu8	Cu	1.115327	0.308694	0.105742
Cu9	Cu	1.128163	0.292786	-0.105522
O10	O	1.110020	0.491536	0.089428
C11	C	0.948377	0.290375	0.000093
C12	C	0.843054	0.275945	0.000082
C13	C	0.650213	0.249566	0.000104
C14	C	0.593272	0.351908	0.000107
C15	C	0.485969	0.337231	0.000119
C16	C	0.757526	0.264241	0.000092
C17	C	1.127098	0.069272	0.000110
C18	C	1.124272	-0.071962	0.000104
C19	C	1.016008	-0.266368	-0.000308
C20	C	1.018848	-0.119430	0.000095
C21	C	1.168809	-0.120809	0.102122
C22	C	1.165206	-0.267711	0.102207
C23	C	1.179693	-0.283309	-0.100941
C24	C	1.180746	-0.136331	-0.102289
C25	C	1.295113	0.311105	0.000125
C26	C	1.400436	0.325535	0.000129
C27	C	1.116392	0.532208	0.000108
C28	C	1.119218	0.673442	0.000107
N29	N	1.106306	0.319883	0.254333
N30	N	1.137191	0.281588	-0.254113
C31	C	1.093036	0.336354	0.473447
C32	C	1.150458	0.265121	0.526780
C33	C	1.143074	0.274286	0.648703
C34	C	1.100419	0.327191	0.351513
H35	H	0.618375	0.150932	0.000110
H36	H	1.038335	0.404216	0.519348
N37	N	1.219120	0.179998	0.469235
N38	N	1.216180	0.063359	0.481693
H39	H	1.264683	0.003253	0.441056
N40	N	0.633202	0.475659	0.000114
N41	N	0.681551	0.514331	0.075409
H42	H	0.709755	0.601727	0.075413
H43	H	0.978808	-0.304687	-0.073467
N44	N	0.974337	-0.077966	-0.091648
N45	N	0.940950	-0.157602	-0.156420
H46	H	0.909507	-0.128325	-0.221215
N47	N	0.958456	-0.302640	0.090966
N48	N	0.982490	-0.273573	0.183625
H49	H	0.941851	-0.299191	0.248093
N50	N	0.962834	-0.065236	0.091983
N51	N	0.921524	-0.135946	0.156020
H52	H	0.881963	-0.097673	0.220922
H53	H	1.123078	-0.293959	0.178460
H54	H	1.240744	-0.307665	0.106843
N55	N	1.265637	-0.082561	0.106888
N56	N	1.284714	0.032893	0.111387
H57	H	1.353099	0.059911	0.114750
N58	N	1.118806	-0.064664	0.197346
N59	N	1.050364	0.011327	0.190341
H60	H	1.015043	0.050978	0.257590
H61	H	1.150270	-0.324134	-0.178263
H62	H	1.148208	-0.104908	-0.177759
N63	N	1.277631	-0.096750	-0.110012
N64	N	1.306767	-0.020122	-0.039859
H65	H	1.375195	0.007838	-0.045309
H66	H	1.255882	-0.322888	-0.101619
