data_functionalizedCrystal
_audit_creation_method	'MofGen! by Chris Wilmer'
_symmetry_space_group_name_H-M	'P1'
_symmetry_Int_Tables_number	1
_symmetry_cell_setting	triclinic
loop_
_symmetry_equiv_pos_as_xyz
  x,y,z
_cell_length_a	18.215407
_cell_length_b	12.759394
_cell_length_c	18.215399
_cell_angle_alpha	90.025695
_cell_angle_beta	90.019350
_cell_angle_gamma	90.015285
loop_
_atom_site_label
_atom_site_type_symbol
_atom_site_fract_x
_atom_site_fract_y
_atom_site_fract_z
Zn1	Zn	1.125120	-0.418260	0.416130
Zn2	Zn	1.625120	0.081740	0.916130
Zn3	Zn	1.125051	-0.593959	0.293069
Zn4	Zn	1.625051	-0.093959	0.793069
Zn5	Zn	1.002053	-0.418296	0.293077
Zn6	Zn	1.502053	0.081704	0.793077
Zn7	Zn	1.002040	-0.593899	0.416094
Zn8	Zn	1.502040	-0.093899	0.916094
O9	O	1.063566	-0.506104	0.354592
O10	O	1.563566	-0.006104	0.854592
O11	O	1.228095	-0.441577	0.399817
O12	O	1.728095	0.058423	0.899817
O13	O	1.108712	-0.570697	0.190086
O14	O	1.608712	-0.070697	0.690086
O15	O	1.018413	-0.271270	0.309418
O16	O	1.518413	0.228730	0.809418
O17	O	1.228044	-0.570662	0.309405
O18	O	1.728044	-0.070662	0.809405
O19	O	1.108829	-0.271244	0.399825
O20	O	1.608829	0.228756	0.899825
O21	O	1.018346	-0.441638	0.190092
O22	O	1.518346	0.058362	0.690092
O23	O	0.899067	-0.441580	0.309384
O24	O	1.399067	0.058420	0.809384
O25	O	1.018390	-0.570560	0.519083
O26	O	1.518390	-0.070560	1.019083
O27	O	0.899057	-0.570595	0.399764
O28	O	1.399057	-0.070595	0.899764
O29	O	1.108816	-0.441519	0.519109
O30	O	1.608816	0.058481	1.019109
O31	O	1.108699	-0.740972	0.309370
O32	O	1.608699	-0.240972	0.809370
O33	O	1.018323	-0.740928	0.399756
O34	O	1.518323	-0.240928	0.899756
C35	C	0.872360	-0.506086	0.354571
C36	C	1.372360	-0.006086	0.854571
C37	C	0.790561	-0.506103	0.354580
C38	C	1.290561	-0.006103	0.854580
C39	C	0.602381	-0.573387	0.401582
C40	C	1.102381	-0.073387	0.901582
C41	C	0.525522	-0.573390	0.401591
C42	C	1.025522	-0.073390	0.901591
C43	C	0.525503	-0.438839	0.307619
C44	C	1.025503	0.061161	0.807619
C45	C	0.602360	-0.438832	0.307614
C46	C	1.102360	0.061168	0.807614
C47	C	0.640797	-0.506111	0.354594
C48	C	1.140797	-0.006111	0.854594
C49	C	0.487081	-0.506122	0.354608
C50	C	0.987081	-0.006122	0.854608
C51	C	0.403748	-0.506126	0.354618
C52	C	0.903748	-0.006126	0.854618
C53	C	0.724136	-0.506107	0.354586
C54	C	1.224136	-0.006107	0.854586
C55	C	1.063522	-0.779071	0.354575
C56	C	1.563522	-0.279071	0.854575
C57	C	1.063570	-0.895848	0.354592
C58	C	1.563570	-0.395848	0.854592
C59	C	1.157749	-0.895840	0.260543
C60	C	1.657749	-0.395840	0.760543
C61	C	1.204858	-0.950697	0.213528
C62	C	1.704858	-0.450697	0.713528
C63	C	1.204901	-1.060419	0.213548
C64	C	1.704901	-0.560419	0.713548
C65	C	1.157832	-1.115286	0.260590
C66	C	1.657832	-0.615286	0.760590
C67	C	1.110723	-1.060429	0.307605
C68	C	1.610723	-0.560429	0.807605
C69	C	1.110684	-0.950705	0.307579
C70	C	1.610684	-0.450705	0.807579
C71	C	1.016549	-1.060437	0.401656
C72	C	1.516549	-0.560437	0.901656
C73	C	1.016501	-0.950715	0.401634
C74	C	1.516501	-0.450715	0.901634
C75	C	0.969480	-1.115304	0.448698
C76	C	1.469480	-0.615304	0.948698
C77	C	0.922367	-1.060447	0.495711
C78	C	1.422367	-0.560447	0.995711
C79	C	0.922325	-0.950718	0.495689
C80	C	1.422325	-0.450718	0.995689
C81	C	0.969393	-0.895858	0.448649
C82	C	1.469393	-0.395858	0.948649
C83	C	1.255519	-0.506122	0.354614
C84	C	1.755519	-0.006122	0.854614
C85	C	1.337318	-0.506131	0.354623
C86	C	1.837318	-0.006131	0.854623
C87	C	1.063609	-0.506029	0.546545
C88	C	1.563609	-0.006029	1.046545
C89	C	1.063628	-0.505998	0.628344
C90	C	1.563628	-0.005998	1.128344
C91	C	1.063630	-0.232070	0.354626
C92	C	1.563630	0.267930	0.854626
C93	C	1.063658	-0.115294	0.354641
C94	C	1.563658	0.384706	0.854641
C95	C	1.063565	-0.506102	0.163386
C96	C	1.563565	-0.006102	0.663386
C97	C	1.063689	-0.505838	0.081588
C98	C	1.563689	-0.005838	0.581588
C99	C	1.110740	-0.438715	0.893417
C100	C	1.610740	0.061285	1.393417
C101	C	1.110731	-0.438744	0.816558
C102	C	1.610731	0.061256	1.316558
C103	C	1.016575	-0.573128	0.816520
C104	C	1.516575	-0.073128	1.316520
C105	C	1.016588	-0.573104	0.893378
C106	C	1.516588	-0.073104	1.393378
C107	C	1.063669	-0.505892	0.931824
C108	C	1.563669	-0.005892	1.431824
C109	C	1.063648	-0.505944	0.778108
C110	C	1.563648	-0.005944	1.278108
C111	C	1.063638	-0.505975	0.694774
C112	C	1.563638	-0.005975	1.194774
C113	C	1.063680	-0.505861	1.015163
C114	C	1.563680	-0.005861	1.515163
H115	H	0.494247	-0.628171	0.439853
H116	H	0.994247	-0.128171	0.939853
H117	H	0.969522	-1.204645	0.448714
H118	H	1.469522	-0.704645	0.948714
H119	H	0.969358	-0.806517	0.448621
H120	H	1.469358	-0.306517	0.948621
H121	H	0.494198	-0.384064	0.269369
H122	H	0.994198	0.115936	0.769369
N123	N	0.643808	-0.366274	0.256933
N124	N	1.143808	0.133726	0.756933
H125	H	0.675713	-0.317640	0.286901
H126	H	1.175713	0.182360	0.786901
H127	H	0.607755	-0.323725	0.227175
H128	H	1.107755	0.176275	0.727175
N129	N	0.871608	-1.119621	0.546448
N130	N	1.371608	-0.619621	1.046448
H131	H	0.878788	-1.197452	0.539330
H132	H	1.378788	-0.697452	1.039330
H133	H	0.819046	-1.100523	0.534944
H134	H	1.319046	-0.600523	1.034944
N135	N	1.157692	-0.777499	0.260512
N136	N	1.657692	-0.277499	0.760512
H137	H	1.194654	-0.751065	0.223577
H138	H	1.694654	-0.251065	0.723577
H139	H	1.171163	-0.751076	0.311026
H140	H	1.671163	-0.251076	0.811026
N141	N	1.255628	-0.891521	0.162796
N142	N	1.755628	-0.391521	0.662796
H143	H	1.248454	-0.813689	0.169914
H144	H	1.748454	-0.313689	0.669914
H145	H	1.244207	-0.910769	0.110230
H146	H	1.744207	-0.410769	0.610230
H147	H	0.978257	-0.627812	0.924650
H148	H	1.478257	-0.127812	1.424650
N149	N	0.965795	-0.645616	0.775053
N150	N	1.465795	-0.145616	1.275053
H151	H	0.972927	-0.635437	0.720536
H152	H	1.472927	-0.135437	1.220536
H153	H	0.913242	-0.629259	0.788483
H154	H	1.413242	-0.129259	1.288483
N155	N	0.871518	-0.891554	0.546403
N156	N	1.371518	-0.391554	1.046403
H157	H	0.841711	-0.942964	0.576204
H158	H	1.341711	-0.442964	1.076204
H159	H	0.837455	-0.846102	0.516411
H160	H	1.337455	-0.346102	1.016411
H161	H	1.157877	-1.204627	0.260608
H162	H	1.657877	-0.704627	0.760608
N163	N	0.643840	-0.645948	0.452251
N164	N	1.143840	-0.145948	0.952251
H165	H	0.607837	-0.688566	0.482019
H166	H	1.107837	-0.188566	0.982019
H167	H	0.675749	-0.603240	0.486356
H168	H	1.175749	-0.103240	0.986356
H169	H	1.149076	-0.383986	0.924717
H170	H	1.649076	0.116014	1.424717
N171	N	1.255713	-1.119594	0.162845
N172	N	1.755713	-0.619594	0.662845
H173	H	1.285526	-1.068192	0.133042
H174	H	1.785526	-0.568192	0.633042
H175	H	1.225789	-1.165188	0.128773
H176	H	1.725789	-0.665188	0.628773
H177	H	1.149061	-0.384043	0.785290
H178	H	1.649061	0.115957	1.285290
