data_functionalizedCrystal
_audit_creation_method	'MofGen! by Chris Wilmer'
_symmetry_space_group_name_H-M	'P1'
_symmetry_Int_Tables_number	1
_symmetry_cell_setting	triclinic
loop_
_symmetry_equiv_pos_as_xyz
  x,y,z
_cell_length_a	15.944499
_cell_length_b	15.944493
_cell_length_c	13.930277
_cell_angle_alpha	90.001318
_cell_angle_beta	89.990192
_cell_angle_gamma	83.476327
loop_
_atom_site_label
_atom_site_type_symbol
_atom_site_fract_x
_atom_site_fract_y
_atom_site_fract_z
O1	O	1.114532	0.108128	-0.079876
O2	O	1.614532	0.608128	0.420124
O3	O	0.869974	0.121530	-0.079863
O4	O	1.369974	0.621530	0.420137
O5	O	0.998957	-0.007451	-0.079878
O6	O	1.498957	0.492549	0.420122
O7	O	0.985549	0.237108	-0.079861
O8	O	1.485549	0.737108	0.420139
O9	O	0.998939	-0.007454	0.079784
O10	O	1.498939	0.492546	0.579784
O11	O	0.869956	0.121527	0.079798
O12	O	1.369956	0.621527	0.579798
O13	O	1.114514	0.108125	0.079786
O14	O	1.614514	0.608125	0.579786
Zn15	Zn	0.992232	0.114825	0.105142
Zn16	Zn	1.492232	0.614825	0.605142
Zn17	Zn	0.992256	0.114829	-0.105219
Zn18	Zn	1.492256	0.614829	0.394781
O19	O	0.985531	0.237105	0.079801
O20	O	1.485531	0.737105	0.579801
C21	C	0.838670	0.120979	-0.000031
C22	C	1.338670	0.620979	0.499969
C23	C	0.745422	0.119334	-0.000027
C24	C	1.245422	0.619334	0.499973
C25	C	0.453871	0.194269	-0.000036
C26	C	0.953871	0.694269	0.499964
C27	C	0.514917	0.155317	-0.078762
C28	C	1.014917	0.655317	0.421238
C29	C	0.409787	0.113358	-0.000050
C30	C	0.909787	0.613358	0.499950
C31	C	0.514885	0.155293	0.078652
C32	C	1.014885	0.655293	0.578652
C33	C	0.574695	0.116299	-0.000037
C34	C	1.074695	0.616299	0.499963
C35	C	0.469605	0.074384	-0.078841
C36	C	0.969605	0.574384	0.421159
C37	C	0.469567	0.074371	0.078644
C38	C	0.969567	0.574371	0.578644
C39	C	0.530595	0.035361	-0.000101
C40	C	1.030595	0.535361	0.499899
C41	C	0.314787	0.111666	-0.000058
C42	C	0.814787	0.611666	0.499942
C43	C	0.669694	0.117984	-0.000036
C44	C	1.169694	0.617984	0.499964
C45	C	0.998400	-0.038747	-0.000051
C46	C	1.498400	0.461253	0.499949
C47	C	0.996757	-0.131995	-0.000063
C48	C	1.496757	0.368005	0.499937
C49	C	1.072679	-0.367769	-0.000049
C50	C	1.572679	0.132231	0.499951
C51	C	1.031746	-0.418328	-0.078768
C52	C	1.531746	0.081672	0.421232
C53	C	0.993713	-0.302716	-0.000051
C54	C	1.493713	0.197284	0.499949
C55	C	1.031710	-0.418307	0.078646
C56	C	1.531710	0.081693	0.578646
C57	C	0.990778	-0.467625	-0.000036
C58	C	1.490778	0.032375	0.499964
C59	C	0.952801	-0.352047	-0.078835
C60	C	1.452801	0.147953	0.421165
C61	C	0.952776	-0.352022	0.078649
C62	C	1.452776	0.147978	0.578649
C63	C	0.911785	-0.402548	-0.000089
C64	C	1.411785	0.097452	0.499911
C65	C	0.995405	-0.207716	-0.000061
C66	C	1.495405	0.292284	0.499939
C67	C	0.989079	-0.562622	-0.000033
C68	C	1.489079	-0.062622	0.499967
C69	C	1.145818	0.108675	-0.000048
C70	C	1.645818	0.608675	0.499952
C71	C	1.239066	0.110320	-0.000059
C72	C	1.739066	0.610320	0.499941
C73	C	0.986088	0.268401	-0.000028
C74	C	1.486088	0.768401	0.499972
C75	C	0.987731	0.361650	-0.000023
C76	C	1.487731	0.861650	0.499977
N77	N	0.992222	0.114822	0.248708
N78	N	1.492222	0.614822	0.748708
N79	N	0.992272	0.114825	-0.248785
N80	N	1.492272	0.614825	0.251215
C81	C	0.935140	0.171919	0.700984
C82	C	1.435140	0.671919	1.200984
C83	C	1.049395	0.057732	0.700940
C84	C	1.549395	0.557732	1.200940
C85	C	1.049385	0.057730	0.600445
C86	C	1.549385	0.557730	1.100445
C87	C	0.992252	0.114823	0.550214
C88	C	1.492252	0.614823	1.050214
C89	C	0.935130	0.171920	0.600479
C90	C	1.435130	0.671920	1.100479
C91	C	1.106512	0.000640	0.550172
C92	C	1.606512	0.500640	1.050172
C93	C	1.106505	0.000636	0.449670
C94	C	1.606505	0.500636	0.949670
C95	C	1.049368	0.057726	0.399438
C96	C	1.549368	0.557726	0.899438
C97	C	0.992242	0.114824	0.449709
C98	C	1.492242	0.614824	0.949709
C99	C	0.935110	0.171918	0.399478
C100	C	1.435110	0.671918	0.899478
C101	C	0.877980	0.229013	0.449747
C102	C	1.377980	0.729013	0.949747
C103	C	0.877993	0.229010	0.550246
C104	C	1.377993	0.729010	1.050246
C105	C	1.049355	0.057729	0.298939
C106	C	1.549355	0.557729	0.798939
C107	C	0.935100	0.171919	0.298973
C108	C	1.435100	0.671919	0.798973
H109	H	0.449450	0.040176	0.145198
H110	H	0.949450	0.540176	0.645198
H111	H	0.449641	0.040195	-0.145472
H112	H	0.949641	0.540195	0.354528
N113	N	1.073595	-0.454638	-0.162261
N114	N	1.573595	0.045362	0.337739
N115	N	1.149727	-0.446715	-0.176295
N116	N	1.649727	0.053285	0.323705
H117	H	1.179288	-0.472356	-0.235261
H118	H	1.679288	0.027644	0.264739
H119	H	0.888572	0.218409	0.258081
H120	H	1.388572	0.718409	0.758081
H121	H	0.534946	0.189527	0.145206
H122	H	1.034946	0.689527	0.645206
H123	H	0.919479	-0.323219	-0.145457
H124	H	1.419479	0.176781	0.354543
N125	N	1.107703	-0.000614	0.247629
N126	N	1.607703	0.499386	0.747629
N127	N	1.159864	0.025999	0.191529
N128	N	1.659864	0.525999	0.691529
H129	H	1.201075	-0.015224	0.155310
H130	H	1.701075	0.484776	0.655310
H131	H	0.843713	-0.418002	-0.000129
H132	H	1.343713	0.081998	0.499871
N133	N	0.572257	-0.048940	-0.000146
N134	N	1.072257	0.451060	0.499854
N135	N	0.620332	-0.073766	0.067457
N136	N	1.120332	0.426234	0.567457
H137	H	0.649757	-0.133304	0.067425
H138	H	1.149757	0.366696	0.567425
H139	H	1.140699	-0.352153	-0.000131
H140	H	1.640699	0.147847	0.499869
H141	H	1.153022	-0.045854	0.408747
H142	H	1.653022	0.454146	0.908747
H143	H	0.420527	0.261416	-0.000108
H144	H	0.920527	0.761416	0.499892
H145	H	0.535015	0.189543	-0.145310
H146	H	1.035015	0.689543	0.354690
N147	N	0.819652	0.287340	0.601591
N148	N	1.319652	0.787340	1.101591
N149	N	0.820784	0.364983	0.590367
N150	N	1.320784	0.864983	1.090367
H151	H	0.779582	0.406180	0.626631
H152	H	1.279582	0.906180	1.126631
H153	H	0.919449	-0.323056	0.145207
H154	H	1.419449	0.176944	0.645207
N155	N	1.073563	-0.454606	0.162125
N156	N	1.573563	0.045394	0.662125
N157	N	1.149694	-0.446677	0.176124
N158	N	1.649694	0.053323	0.676124
H159	H	1.179259	-0.472312	0.235077
H160	H	1.679259	0.027688	0.735077
N161	N	0.819635	0.287333	0.398418
N162	N	1.319635	0.787333	0.898418
N163	N	0.819647	0.287325	0.308687
N164	N	1.319647	0.787325	0.808687
H165	H	0.778444	0.328514	0.272431
H166	H	1.278444	0.828514	0.772431
H167	H	1.095914	0.011252	0.741841
H168	H	1.595914	0.511252	1.241841
H169	H	0.888623	0.218403	0.741916
H170	H	1.388623	0.718403	1.241916
H171	H	1.153032	-0.045840	0.591073
H172	H	1.653032	0.454160	1.091073
