data_functionalizedCrystal
_audit_creation_method	'MofGen! by Chris Wilmer'
_symmetry_space_group_name_H-M	'P1'
_symmetry_Int_Tables_number	1
_symmetry_cell_setting	triclinic
loop_
_symmetry_equiv_pos_as_xyz
  x,y,z
_cell_length_a	17.019311
_cell_length_b	19.188924
_cell_length_c	16.098538
_cell_angle_alpha	92.711427
_cell_angle_beta	83.390489
_cell_angle_gamma	83.269696
loop_
_atom_site_label
_atom_site_type_symbol
_atom_site_fract_x
_atom_site_fract_y
_atom_site_fract_z
O1	O	1.053778	0.082446	-0.144832
O2	O	0.823228	0.094528	-0.128300
O3	O	0.945159	-0.013179	-0.137034
O4	O	0.931848	0.190153	-0.136099
O5	O	0.938036	-0.006911	0.001989
O6	O	0.816106	0.100795	0.010723
O7	O	1.046656	0.088713	-0.005809
Zn8	Zn	0.930250	0.095749	0.024530
Zn9	Zn	0.939634	0.087492	-0.158639
O10	O	0.924725	0.196420	0.002924
C11	C	0.790171	0.097326	-0.056674
C12	C	0.702283	0.096318	-0.050371
C13	C	0.205007	0.090812	-0.010925
C14	C	0.287587	0.091759	-0.016849
C15	C	0.332761	0.088811	-0.095594
C16	C	0.295349	0.084923	-0.168419
C17	C	0.212770	0.083981	-0.162495
C18	C	0.582292	0.091488	-0.117273
C19	C	0.664877	0.092429	-0.123192
C20	C	0.657109	0.099266	0.028380
C21	C	0.574529	0.098320	0.034297
C22	C	0.537124	0.094435	-0.038529
C23	C	0.417172	0.089777	-0.101650
C24	C	0.452714	0.093475	-0.032471
C25	C	0.941167	-0.036055	-0.067491
C26	C	0.939876	-0.113558	-0.067396
C27	C	0.943156	-0.153372	-0.143134
C28	C	0.941931	-0.226193	-0.143053
C29	C	0.937443	-0.259199	-0.067230
C30	C	0.934158	-0.219375	0.008519
C31	C	0.935375	-0.146555	0.008436
N32	N	0.977699	-0.376385	-0.013923
N33	N	0.976545	-0.445562	-0.013849
C34	C	0.933776	-0.478603	-0.066975
N35	N	0.892215	-0.439856	-0.120191
N36	N	0.893372	-0.370673	-0.120267
C37	C	0.936123	-0.338161	-0.067131
C38	C	0.935728	-0.597379	-0.142630
C39	C	0.934498	-0.670200	-0.142545
C40	C	0.926733	-0.663382	0.009028
C41	C	0.927954	-0.590560	0.008942
C42	C	0.932456	-0.557564	-0.066890
C43	C	1.079713	0.085915	-0.077438
C44	C	1.167601	0.086922	-0.083746
C45	C	0.928717	0.219297	-0.066621
C46	C	0.930009	0.296799	-0.066721
N47	N	0.923851	0.101384	0.149537
N48	N	0.946039	0.081852	-0.283647
C49	C	0.975622	0.055685	0.189414
C50	C	0.971153	0.059634	0.276923
C51	C	0.914917	0.109285	0.324553
C52	C	0.863140	0.154986	0.284671
C53	C	0.867606	0.151034	0.197164
C54	C	0.898728	0.123600	0.588963
C55	C	0.894268	0.127551	0.676476
C56	C	1.002281	0.032197	0.668722
C57	C	1.006745	0.028252	0.581213
C58	C	0.954965	0.073950	0.541339
C59	C	0.910349	0.113323	0.414002
C60	C	0.959530	0.069908	0.451892
H61	H	0.318040	0.094925	0.042449
C62	C	0.403029	0.096718	0.054144
H63	H	0.437131	0.099173	0.096670
H64	H	0.376827	0.055778	0.059164
H65	H	0.364480	0.137214	0.060040
H66	H	0.453962	0.087374	-0.165765
H67	H	1.013309	0.022421	0.309390
H68	H	0.946818	-0.126511	-0.204882
C69	C	0.929220	-0.255675	0.091924
H70	H	0.927434	-0.221530	0.137022
H71	H	0.974743	-0.289460	0.091801
H72	H	0.882418	-0.278420	0.098413
C73	C	0.945543	-0.270001	-0.226366
H74	H	0.944170	-0.318096	-0.215454
H75	H	0.993500	-0.264988	-0.260824
H76	H	0.901175	-0.253951	-0.254213
C77	C	0.714566	0.089193	-0.209814
H78	H	0.680461	0.086753	-0.252339
H79	H	0.753118	0.048704	-0.215717
H80	H	0.740764	0.130140	-0.214829
C81	C	0.810661	0.201305	0.153299
H82	H	0.776534	0.231447	0.194197
H83	H	0.779536	0.174769	0.121532
H84	H	0.840785	0.228725	0.117114
C85	C	0.931774	-0.102758	0.091751
H86	H	0.928929	-0.132842	0.136922
H87	H	0.885931	-0.068686	0.098179
H88	H	0.978256	-0.079734	0.091557
H89	H	0.923072	-0.690254	0.070765
H90	H	0.848471	0.167986	0.715253
H91	H	0.939388	-0.570511	-0.204377
C92	C	0.345038	0.081678	-0.255037
H93	H	0.399579	0.082788	-0.248137
H94	H	0.326927	0.120832	-0.284771
H95	H	0.339273	0.039397	-0.285636
H96	H	1.005315	0.029479	0.413109
H97	H	0.925290	-0.558144	0.070616
H98	H	0.551847	0.088323	-0.176573
C99	C	0.171622	0.079708	-0.242597
H100	H	0.210353	0.078083	-0.290344
H101	H	0.133396	0.119916	-0.242994
H102	H	0.145743	0.038480	-0.243878
H103	H	1.044436	-0.005010	0.701196
H104	H	0.937165	-0.702616	-0.204223
C105	C	1.037482	0.001067	0.137028
H106	H	1.067669	-0.025588	0.173314
H107	H	1.072093	0.024517	0.100519
H108	H	1.010841	-0.029436	0.104943
H109	H	0.168232	0.093216	0.053197
H110	H	1.052537	-0.012178	0.542434
C111	C	0.841780	0.173873	0.545111
H112	H	0.807656	0.204013	0.586012
H113	H	0.810651	0.147340	0.513345
H114	H	0.871903	0.201293	0.508926
C115	C	0.801283	0.209602	0.337061
H116	H	0.806042	0.205417	0.394889
H117	H	0.749202	0.201569	0.326525
H118	H	0.810454	0.255523	0.322099
H119	H	0.864561	0.153752	0.452789
H120	H	0.687573	0.102430	0.087670
C121	C	0.524843	0.101568	0.120916
H122	H	0.558947	0.104027	0.163438
H123	H	0.498641	0.060629	0.125943
H124	H	0.486293	0.142064	0.126810
