data_functionalizedCrystal
_audit_creation_method	'MofGen! by Chris Wilmer'
_symmetry_space_group_name_H-M	'P1'
_symmetry_Int_Tables_number	1
_symmetry_cell_setting	triclinic
loop_
_symmetry_equiv_pos_as_xyz
  x,y,z
_cell_length_a	15.995292
_cell_length_b	27.732048
_cell_length_c	15.072220
_cell_angle_alpha	90.001640
_cell_angle_beta	90.006971
_cell_angle_gamma	83.055635
loop_
_atom_site_label
_atom_site_type_symbol
_atom_site_fract_x
_atom_site_fract_y
_atom_site_fract_z
O1	O	1.110214	0.062165	0.073816
O2	O	1.610214	0.562165	0.573816
O3	O	0.866332	0.069888	0.073814
O4	O	1.366332	0.569888	0.573814
O5	O	0.995848	-0.004338	0.073798
O6	O	1.495848	0.495662	0.573798
O7	O	0.980699	0.136392	0.073832
O8	O	1.480699	0.636392	0.573832
O9	O	0.995831	-0.004329	-0.073767
O10	O	1.495831	0.495671	0.426233
O11	O	0.866316	0.069898	-0.073751
O12	O	1.366316	0.569898	0.426249
O13	O	1.110198	0.062174	-0.073749
O14	O	1.610198	0.562174	0.426251
Zn15	Zn	0.988254	0.066037	-0.097179
Zn16	Zn	1.488254	0.566037	0.402821
Zn17	Zn	0.988276	0.066025	0.097244
Zn18	Zn	1.488276	0.566025	0.597244
O19	O	0.980682	0.136401	-0.073733
O20	O	1.480682	0.636401	0.426267
C21	C	0.835132	0.069579	0.000031
C22	C	1.335132	0.569579	0.500031
C23	C	0.742192	0.068636	0.000029
C24	C	1.242192	0.568636	0.500029
C25	C	0.404498	0.065172	0.000039
C26	C	0.904498	0.565172	0.500039
C27	C	0.427117	0.118746	0.000381
C28	C	0.927117	0.618746	0.500381
C29	C	0.523780	0.119765	0.000045
C30	C	1.023780	0.619765	0.500045
C31	C	0.572032	0.066891	0.000034
C32	C	1.072032	0.566891	0.500034
C33	C	0.543267	0.040111	-0.084236
C34	C	1.043267	0.540111	0.415764
C35	C	0.446485	0.039466	-0.084303
C36	C	0.946485	0.539466	0.415697
C37	C	0.446663	0.038362	0.083506
C38	C	0.946663	0.538362	0.583506
C39	C	0.543129	0.040347	0.084616
C40	C	1.043129	0.540347	0.584616
C41	C	0.666715	0.067859	0.000029
C42	C	1.166715	0.567859	0.500029
C43	C	0.309815	0.064201	0.000038
C44	C	0.809815	0.564201	0.500038
C45	C	0.995521	-0.022342	0.000013
C46	C	1.495521	0.477658	0.500013
C47	C	0.994564	-0.076001	0.000006
C48	C	1.494564	0.423999	0.500006
C49	C	1.065071	-0.414520	0.000052
C50	C	1.565071	0.085480	0.500052
C51	C	1.061518	-0.616195	0.000065
C52	C	1.561518	-0.116195	0.500065
O53	O	1.125992	-0.647180	0.000104
O54	O	1.625992	-0.147180	0.500104
N55	N	0.984721	-0.635641	0.000063
N56	N	1.484721	-0.135641	0.500063
C57	C	0.908806	-0.604664	0.000064
C58	C	1.408806	-0.104664	0.500064
O59	O	0.843404	-0.625831	0.000072
O60	O	1.343404	-0.125831	0.500072
C61	C	0.912360	-0.402991	0.000058
C62	C	1.412360	0.097009	0.500058
C63	C	0.989162	-0.383548	0.000051
C64	C	1.489162	0.116452	0.500051
C65	C	1.141867	-0.395077	0.000046
C66	C	1.641867	0.104923	0.500046
C67	C	1.142754	-0.344662	0.000038
C68	C	1.642754	0.155338	0.500038
C69	C	1.066845	-0.313689	0.000036
C70	C	1.566845	0.186311	0.500036
C71	C	0.990049	-0.333132	0.000043
C72	C	1.490049	0.166868	0.500043
C73	C	0.836446	-0.372015	0.000066
C74	C	1.336446	0.127985	0.500066
C75	C	0.837342	-0.321594	0.000067
C76	C	1.337342	0.178406	0.500067
C77	C	0.914144	-0.302151	0.000059
C78	C	1.414144	0.197849	0.500059
C79	C	0.915028	-0.251744	0.000033
C80	C	1.415028	0.248256	0.500033
N81	N	0.991825	-0.232298	0.000035
N82	N	1.491825	0.267702	0.500035
C83	C	1.067734	-0.263271	0.000036
C84	C	1.567734	0.236729	0.500036
C85	C	0.906946	-0.710546	0.000066
C86	C	1.406946	-0.210546	0.500066
C87	C	0.906057	-0.760964	0.000066
C88	C	1.406057	-0.260964	0.500066
C89	C	1.058770	-0.772492	0.000068
C90	C	1.558770	-0.272492	0.500068
C91	C	1.059657	-0.722072	0.000061
C92	C	1.559657	-0.222072	0.500061
C93	C	0.983743	-0.691100	0.000067
C94	C	1.483743	-0.191100	0.500067
C95	C	1.069592	-0.157394	0.000019
C96	C	1.569592	0.342606	0.500019
C97	C	1.070473	-0.106973	0.000007
C98	C	1.570473	0.393027	0.500007
C99	C	0.917761	-0.095450	0.000010
C100	C	1.417761	0.404550	0.500010
C101	C	0.916880	-0.145867	0.000017
C102	C	1.416880	0.354133	0.500017
C103	C	0.992802	-0.176838	0.000025
C104	C	1.492802	0.323162	0.500025
O105	O	0.850589	-0.220730	0.000004
O106	O	1.350589	0.279270	0.500004
O107	O	1.133127	-0.242094	0.000048
O108	O	1.633127	0.257906	0.500048
C109	C	1.064183	-0.464936	0.000060
C110	C	1.564183	0.035064	0.500060
C111	C	0.987387	-0.484379	0.000067
C112	C	1.487387	0.015621	0.500067
C113	C	0.911479	-0.453407	0.000065
C114	C	1.411479	0.046593	0.500065
C115	C	0.986499	-0.534797	0.000067
C116	C	1.486499	-0.034797	0.500067
C117	C	1.062407	-0.565770	0.000068
C118	C	1.562407	-0.065770	0.500068
C119	C	1.139205	-0.546324	0.000070
C120	C	1.639205	-0.046324	0.500070
C121	C	1.140092	-0.495909	0.000062
C122	C	1.640092	0.004091	0.500062
C123	C	0.834682	-0.472852	0.000064
C124	C	1.334682	0.027148	0.500064
C125	C	0.833800	-0.523269	0.000071
C126	C	1.333800	-0.023269	0.500071
C127	C	0.909709	-0.554241	0.000072
C128	C	1.409709	-0.054241	0.500072
C129	C	1.141397	0.062484	0.000036
C130	C	1.641397	0.562484	0.500036
C131	C	1.234338	0.063426	0.000044
C132	C	1.734338	0.563426	0.500044
C133	C	0.981008	0.154404	0.000054
C134	C	1.481008	0.654404	0.500054
C135	C	0.981966	0.208063	0.000067
C136	C	1.481966	0.708063	0.500067
N137	N	0.988245	0.066046	-0.229868
N138	N	1.488245	0.566046	0.270132
C139	C	0.988261	0.066034	-0.410865
C140	C	1.488261	0.566034	0.089135
C141	C	0.918949	0.105737	-0.448526
C142	C	1.418949	0.605737	0.051474
C143	C	0.918715	0.105629	-0.551352
C144	C	1.418715	0.605629	-0.051352
C145	C	0.988276	0.066024	-0.589069
C146	C	1.488276	0.566024	-0.089069
C147	C	0.970204	0.015531	-0.551740
C148	C	1.470204	0.515531	-0.051740
C149	C	0.969698	0.015769	-0.448882
C150	C	1.469698	0.515769	0.051118
C151	C	1.075862	0.076370	-0.448750
C152	C	1.575862	0.576370	0.051250
C153	C	1.075268	0.077510	-0.551614
C154	C	1.575268	0.577510	-0.051614
C155	C	0.988286	0.066015	-0.689783
C156	C	1.488286	0.566015	-0.189783
C157	C	0.988249	0.066040	-0.310152
C158	C	1.488249	0.566040	0.189848
N159	N	0.988291	0.066013	0.229933
N160	N	1.488291	0.566013	0.729933
H161	H	0.432442	0.000185	-0.088138
H162	H	0.932442	0.500185	0.411862
H163	H	0.542541	0.140735	0.060456
H164	H	1.042541	0.640735	0.560456
Br165	Br	0.729559	-0.549648	0.000074
Br166	Br	1.229559	-0.049648	0.500074
Br167	Br	0.380023	0.153162	0.101111
Br168	Br	0.880023	0.653162	0.601111
Br169	Br	0.936403	0.168178	-0.593426
Br170	Br	1.436403	0.668178	-0.093426
Br171	Br	0.811170	0.094860	-0.405478
Br172	Br	1.311170	0.594860	0.094522
Br173	Br	0.731651	-0.430825	0.000066
Br174	Br	1.231651	0.069175	0.500066
Br175	Br	1.242223	-0.588368	0.000065
Br176	Br	1.742223	-0.088368	0.500065
H177	H	0.575638	0.001203	-0.087377
H178	H	1.075638	0.501203	0.412623
Br179	Br	0.936312	0.168502	-0.407299
Br180	Br	1.436312	0.668502	0.092701
H181	H	1.131415	-0.182605	0.000029
H182	H	1.631415	0.317395	0.500029
H183	H	0.418126	0.055103	0.147377
H184	H	0.918126	0.555103	0.647377
H185	H	0.775522	-0.296378	0.000073
H186	H	1.275522	0.203622	0.500073
Br187	Br	0.865009	0.000028	-0.594703
Br188	Br	1.365009	0.500028	-0.094703
H189	H	0.855958	-0.070224	0.000006
H190	H	1.355958	0.429776	0.500006
Br191	Br	0.810339	0.094586	-0.592405
Br192	Br	1.310339	0.594586	-0.092405
Br193	Br	1.246991	-0.318283	0.000053
Br194	Br	1.746991	0.181717	0.500053
Br195	Br	0.553995	0.154942	-0.100799
Br196	Br	1.053995	0.654942	0.399201
Br197	Br	0.812648	-0.172254	0.000007
Br198	Br	1.312648	0.327746	0.500007
H199	H	1.202632	-0.480083	0.000056
H200	H	1.702632	0.019917	0.500056
Br201	Br	1.161814	0.028118	-0.408149
Br202	Br	1.661814	0.528118	0.091851
H203	H	0.419421	0.058020	-0.147289
H204	H	0.919421	0.558020	0.352711
H205	H	0.905842	0.006690	-0.424910
H206	H	1.405842	0.506690	0.075090
H207	H	1.093469	0.112416	-0.422807
H208	H	1.593469	0.612416	0.077193
Br209	Br	0.378295	0.152984	-0.099760
Br210	Br	0.878295	0.652984	0.400240
H211	H	0.563078	0.058716	-0.146942
H212	H	1.063078	0.558716	0.353058
Br213	Br	1.098165	0.139424	-0.592272
Br214	Br	1.598165	0.639424	-0.092272
H215	H	1.129193	0.050479	-0.577288
H216	H	1.629193	0.550479	-0.077288
H217	H	1.018314	-0.014672	-0.423967
H218	H	1.518314	0.485328	0.076033
H219	H	0.561454	0.059845	0.146959
H220	H	1.061454	0.559845	0.646959
Br221	Br	1.174711	-0.080590	-0.000004
Br222	Br	1.674711	0.419410	0.499996
H223	H	0.576599	0.001754	0.089698
H224	H	1.076599	0.501754	0.589698
H225	H	0.433180	-0.001073	0.084068
H226	H	0.933180	0.498927	0.584068
Br227	Br	1.244900	-0.437103	0.000049
Br228	Br	1.744900	0.062897	0.500049
Br229	Br	1.163892	-0.695691	0.000049
Br230	Br	1.663892	-0.195691	0.500049
H231	H	0.843517	-0.776790	0.000056
H232	H	1.343517	-0.276790	0.500056
Br233	Br	1.161788	-0.814535	0.000072
Br234	Br	1.661788	-0.314535	0.500072
Br235	Br	0.803909	-0.668519	0.000075
Br236	Br	1.303909	-0.168519	0.500075
H237	H	0.773906	-0.387836	0.000077
H238	H	1.273906	0.112164	0.500077
H239	H	1.019393	-0.014736	-0.576169
H240	H	1.519393	0.485264	-0.076169
