data_functionalizedCrystal
_audit_creation_method	'MofGen! by Chris Wilmer'
_symmetry_space_group_name_H-M	'P1'
_symmetry_Int_Tables_number	1
_symmetry_cell_setting	triclinic
loop_
_symmetry_equiv_pos_as_xyz
  x,y,z
_cell_length_a	16.992694
_cell_length_b	22.010155
_cell_length_c	23.532416
_cell_angle_alpha	89.997898
_cell_angle_beta	93.239765
_cell_angle_gamma	90.010093
loop_
_atom_site_label
_atom_site_type_symbol
_atom_site_fract_x
_atom_site_fract_y
_atom_site_fract_z
O1	O	1.039469	0.050444	-0.120714
O2	O	0.811194	0.050462	-0.119390
O3	O	0.932212	0.050452	-0.037462
O4	O	0.918452	0.050453	-0.202642
O5	O	0.932176	-0.050598	-0.037460
O6	O	0.811158	-0.050589	-0.119388
O7	O	1.039433	-0.050607	-0.120712
Cu8	Cu	0.925292	-0.059824	-0.120050
Cu9	Cu	0.925335	0.059679	-0.120052
O10	O	0.918415	-0.050597	-0.202640
C11	C	0.781977	-0.000061	-0.117685
C12	C	0.694972	-0.000054	-0.112602
N13	N	0.925268	-0.143877	-0.120048
C14	C	0.644352	-0.000054	-0.161648
C15	C	0.562602	-0.000063	-0.156869
C16	C	0.531474	-0.000067	-0.103042
C17	C	0.582101	-0.000069	-0.053992
C18	C	0.663849	-0.000064	-0.058772
C19	C	0.288030	-0.000083	-0.083230
C20	C	0.206276	-0.000085	-0.078454
C21	C	0.186782	-0.000081	-0.181331
C22	C	0.268532	-0.000073	-0.186106
C23	C	0.319152	-0.000078	-0.137056
N24	N	0.447913	-0.000073	-0.098155
N25	N	0.402711	-0.000076	-0.141943
C26	C	0.972606	-0.563660	-0.156758
C27	C	0.972615	-0.627268	-0.156757
O28	O	1.012835	-0.660162	-0.187964
N29	N	0.925350	-0.659084	-0.120046
C30	C	0.878079	-0.627289	-0.083330
O31	O	0.837879	-0.660192	-0.052104
C32	C	0.878075	-0.563683	-0.083329
C33	C	0.925337	-0.531870	-0.120046
C34	C	1.019864	-0.531847	-0.193472
C35	C	1.019854	-0.468244	-0.193473
C36	C	0.972585	-0.436454	-0.156761
C37	C	0.925326	-0.468267	-0.120047
C38	C	0.830809	-0.531890	-0.046610
C39	C	0.830809	-0.468279	-0.046611
C40	C	0.878071	-0.436466	-0.083328
C41	C	0.878046	-0.372873	-0.083337
N42	N	0.925311	-0.341057	-0.120047
C43	C	0.972580	-0.372847	-0.156760
C44	C	0.878093	-0.760867	-0.083335
C45	C	0.878093	-0.824473	-0.083339
C46	C	0.972630	-0.824446	-0.156766
C47	C	0.972626	-0.760840	-0.156764
C48	C	0.925358	-0.729051	-0.120046
C49	C	0.972554	-0.239276	-0.156761
C50	C	0.972537	-0.175667	-0.156761
C51	C	0.878003	-0.175699	-0.083332
C52	C	0.878017	-0.239302	-0.083334
C53	C	0.925299	-0.271089	-0.120050
O54	O	0.837849	-0.339938	-0.052144
O55	O	1.012782	-0.339936	-0.187975
C56	C	1.068650	-0.000082	-0.122417
C57	C	1.155655	-0.000085	-0.127500
C58	C	0.931842	-0.000072	-0.016228
C59	C	0.930785	-0.000068	0.047042
N60	N	0.925366	0.143732	-0.120049
C61	C	0.926311	0.055014	0.320508
C62	C	0.927292	0.055015	0.261059
O63	O	0.927844	0.101859	0.230307
N64	N	0.927758	-0.000068	0.231334
C65	C	0.927251	-0.055156	0.261061
O66	O	0.927738	-0.102008	0.230319
C67	C	0.926275	-0.055156	0.320509
C68	C	0.925801	-0.000069	0.350230
C69	C	0.925838	0.110097	0.350230
C70	C	0.924855	0.110096	0.409674
C71	C	0.924345	0.055012	0.439397
C72	C	0.924818	-0.000070	0.409675
C73	C	0.925773	-0.110243	0.350235
C74	C	0.924798	-0.110238	0.409687
C75	C	0.924324	-0.055151	0.439409
C76	C	0.923326	-0.055154	0.498842
N77	N	0.922860	-0.000071	0.528567
C78	C	0.923370	0.055012	0.498845
C79	C	0.929301	-0.055151	0.136216
C80	C	0.930271	-0.055152	0.076769
C81	C	0.930314	0.055019	0.076772
C82	C	0.929339	0.055019	0.136219
C83	C	0.928835	-0.000068	0.165942
C84	C	0.921305	0.055006	0.623682
C85	C	0.920319	0.055000	0.683132
C86	C	0.920280	-0.055170	0.683125
C87	C	0.921262	-0.055165	0.623680
C88	C	0.921777	-0.000072	0.593961
O89	O	0.922777	-0.101974	0.529632
O90	O	0.922893	0.101857	0.529595
C91	C	0.918777	-0.000075	0.776125
C92	C	0.919809	-0.000083	0.712855
H93	H	0.669689	-0.000051	-0.205479
N94	N	1.068151	-0.435757	-0.230969
N95	N	1.120151	-0.400261	-0.211122
H96	H	1.154268	-0.377323	-0.237604
H97	H	0.924475	0.154953	0.433868
N98	N	0.782542	-0.564385	-0.009102
N99	N	0.782545	-0.621176	-0.009098
H100	H	0.748455	-0.644126	0.017394
N101	N	0.928870	0.111294	0.166567
N102	N	0.984250	0.148170	0.162644
H103	H	0.983922	0.187918	0.184074
H104	H	0.839523	-0.265206	-0.053443
N105	N	0.829721	-0.143210	-0.045840
N106	N	0.829727	-0.086419	-0.045850
H107	H	0.795631	-0.063471	-0.019369
N108	N	0.919848	0.111280	0.713481
N109	N	0.975231	0.148154	0.709563
H110	H	0.974900	0.187902	0.730994
N111	N	0.510906	-0.000066	-0.206974
N112	N	0.538708	-0.000060	-0.255030
H113	H	0.502198	-0.000063	-0.290420
H114	H	0.293870	-0.000063	-0.229937
N115	N	0.924264	-0.166510	0.440046
N116	N	0.868451	-0.178798	0.470486
H117	H	0.868070	-0.218540	0.491926
N118	N	0.782536	-0.435818	-0.009089
N119	N	0.740355	-0.464235	0.023695
H120	H	0.706266	-0.441311	0.050198
H121	H	0.145559	-0.000078	-0.221264
N122	N	1.020920	-0.856913	-0.194274
N123	N	1.011124	-0.849810	-0.246898
H124	H	1.045226	-0.872739	-0.273388
N125	N	0.829785	-0.728400	-0.045839
N126	N	0.777782	-0.692921	-0.065689
H127	H	0.743664	-0.669994	-0.039207
H128	H	0.921725	0.099868	0.599492
N129	N	1.020833	-0.271738	-0.194277
N130	N	0.989934	-0.307231	-0.230514
H131	H	1.024026	-0.330157	-0.257014
H132	H	0.921617	-0.100021	0.599478
N133	N	0.174492	-0.000088	-0.023464
N134	N	0.219695	-0.000092	0.020326
H135	H	0.197248	-0.000093	0.059161
H136	H	0.926168	-0.155100	0.326046
N137	N	0.930836	0.111282	0.046395
N138	N	0.931712	0.111268	-0.006682
H139	H	0.932081	0.151000	-0.028138
H140	H	1.011023	-0.149768	-0.186663
N141	N	0.926363	0.166373	0.319884
N142	N	0.925944	0.215545	0.346439
H143	H	0.926310	0.255294	0.325012
N144	N	0.550308	-0.000061	0.000991
N145	N	0.565974	0.042536	0.034896
H146	H	0.543522	0.042544	0.073729
N147	N	0.930737	-0.111427	0.046421
N148	N	0.930277	-0.160602	0.072973
H149	H	0.930609	-0.200349	0.051542
N150	N	0.339718	-0.000086	-0.033123
N151	N	0.311912	-0.000086	0.014931
H152	H	0.348420	-0.000086	0.050323
H153	H	0.705064	-0.000064	-0.018834
N154	N	1.068162	-0.564304	-0.230977
N155	N	1.110351	-0.535879	-0.263750
H156	H	1.144461	-0.558798	-0.290243
H157	H	0.928885	-0.100013	0.160412
N158	N	1.020912	-0.728356	-0.194269
N159	N	1.063112	-0.756755	-0.227042
H160	H	1.097221	-0.733817	-0.253530
N161	N	0.829798	-0.856955	-0.045839
N162	N	0.787596	-0.828556	-0.013067
H163	H	0.753488	-0.851495	0.013421
N164	N	0.919754	-0.111428	0.713501
N165	N	0.918880	-0.111414	0.766578
H166	H	0.918512	-0.151147	0.788034
