data_functionalizedCrystal
_audit_creation_method	'MofGen! by Chris Wilmer'
_symmetry_space_group_name_H-M	'P1'
_symmetry_Int_Tables_number	1
_symmetry_cell_setting	triclinic
loop_
_symmetry_equiv_pos_as_xyz
  x,y,z
_cell_length_a	10.686220
_cell_length_b	10.686551
_cell_length_c	10.686285
_cell_angle_alpha	99.084519
_cell_angle_beta	89.654569
_cell_angle_gamma	90.308082
loop_
_atom_site_label
_atom_site_type_symbol
_atom_site_fract_x
_atom_site_fract_y
_atom_site_fract_z
Zn1	Zn	1.994012	-0.537149	0.307898
Zn2	Zn	1.993911	-0.308653	0.536485
Zn3	Zn	1.770410	-0.340818	0.340205
Zn4	Zn	1.800161	-0.534641	0.533926
O5	O	1.889623	-0.430315	0.429629
O6	O	2.168662	-0.494427	0.325771
O7	O	1.951770	-0.136178	0.525040
O8	O	1.787663	-0.381372	0.159182
O9	O	2.168588	-0.326552	0.493713
O10	O	1.951942	-0.525615	0.135446
O11	O	1.787565	-0.159810	0.380834
O12	O	1.599693	-0.378940	0.378352
O13	O	1.838368	-0.711715	0.489351
O14	O	1.621551	-0.521341	0.520678
O15	O	1.980790	-0.713557	0.323289
O16	O	1.980618	-0.324121	0.712883
O17	O	1.838270	-0.490153	0.711003
C18	C	1.565334	-0.453360	0.452744
C19	C	1.426605	-0.463246	0.462661
C20	C	1.912909	-0.759745	0.402431
C21	C	1.922832	-0.900128	0.390841
C22	C	2.215179	-0.407181	0.406424
C23	C	2.353912	-0.397323	0.396535
C24	C	1.912697	-0.403399	0.757764
C25	C	1.922686	-0.391919	0.898130
C26	C	1.866493	-0.102170	0.456624
C27	C	1.856787	0.038201	0.467841
C28	C	1.866495	-0.457361	0.100207
C29	C	1.856639	-0.468887	-0.040173
H30	H	1.382704	-0.527245	0.526872
H31	H	1.792656	-0.907200	0.542634
O32	O	1.999250	-0.965459	0.301640
C33	C	2.079241	-1.169627	0.208452
C34	C	1.992634	-1.095800	0.309506
H35	H	2.073942	-1.275018	0.214795
H36	H	2.048362	-1.153779	0.110252
H37	H	2.179616	-1.134716	0.225555
H38	H	1.892236	-1.130665	0.292522
H39	H	2.023619	-1.111649	0.407671
O40	O	1.780170	-0.557956	0.894542
C41	C	1.700070	-0.650916	0.690425
C42	C	1.786741	-0.550009	0.764210
H43	H	1.705333	-0.644507	0.585042
H44	H	1.730918	-0.749173	0.706168
H45	H	1.599714	-0.633713	0.725466
H46	H	1.887121	-0.567093	0.729215
H47	H	1.755787	-0.451787	0.748467
O48	O	1.999279	-0.302706	0.963033
C49	C	2.145536	-0.132505	0.951218
C50	C	2.058824	-0.233459	0.877565
H51	H	2.193722	-0.076509	0.882146
H52	H	2.088012	-0.065395	1.022546
H53	H	2.219140	-0.180943	1.003492
H54	H	1.985205	-0.185130	0.825214
H55	H	2.116432	-0.300561	0.806310
O56	O	1.406473	-0.321071	0.319957
C57	C	1.597314	-0.241266	0.240014
C58	C	1.537944	-0.327693	0.326765
H59	H	1.703617	-0.246570	0.245510
H60	H	1.566257	-0.273760	0.138138
H61	H	1.566007	-0.139404	0.272243
H62	H	1.569222	-0.429579	0.294650
H63	H	1.568998	-0.295092	0.428623
