data_functionalizedCrystal
_audit_creation_method	'MofGen! by Chris Wilmer'
_symmetry_space_group_name_H-M	'P1'
_symmetry_Int_Tables_number	1
_symmetry_cell_setting	triclinic
loop_
_symmetry_equiv_pos_as_xyz
  x,y,z
_cell_length_a	27.440280
_cell_length_b	12.970454
_cell_length_c	12.970454
_cell_angle_alpha	59.999320
_cell_angle_beta	59.998635
_cell_angle_gamma	90.004941
loop_
_atom_site_label
_atom_site_type_symbol
_atom_site_fract_x
_atom_site_fract_y
_atom_site_fract_z
Zr1	Zr	-0.063968	0.993173	1.128560
O2	O	-0.141787	1.043614	1.128579
O3	O	-0.040112	0.828556	1.128553
O4	O	-0.141788	0.828520	1.343672
O5	O	0.040093	1.213345	0.743771
O6	O	-0.141789	0.828517	1.513342
O7	O	-0.040111	1.043650	0.913460
O8	O	0.040091	0.828581	1.128533
O9	O	-0.141787	1.213281	1.128580
O10	O	-0.029939	0.938549	1.255174
O11	O	0.029917	1.065194	1.001914
O12	O	-0.089793	1.065151	1.255189
O13	O	-0.029937	1.191795	1.001929
Zr14	Zr	0.063946	1.263811	1.128529
Zr15	Zr	-0.063970	0.993167	1.399164
Zr16	Zr	0.063948	1.263817	0.857925
Zr17	Zr	-0.063968	1.263771	1.128561
Zr18	Zr	0.063946	0.993212	1.128528
O19	O	0.040090	1.428427	1.128536
O20	O	-0.141790	1.043606	1.513344
O21	O	0.040093	1.428435	0.743772
O22	O	0.141765	1.213369	1.128510
O23	O	-0.040114	0.828548	1.513317
O24	O	0.141768	1.213377	0.743746
O25	O	-0.040115	1.043638	1.513318
O26	O	0.141766	1.428463	0.913417
O27	O	0.141767	1.428467	0.743747
O28	O	0.040089	1.213333	1.343629
O29	O	-0.141789	1.213276	1.343674
O30	O	0.141767	1.043707	0.913415
O31	O	0.141765	1.043703	1.128509
O32	O	0.040090	0.828577	1.343627
O33	O	-0.040112	1.428407	0.913462
O34	O	-0.040113	1.428402	1.128556
O35	O	0.089771	1.191832	1.001900
O36	O	0.029915	1.065188	1.255160
O37	O	-0.029939	1.191790	1.255175
O38	O	0.029917	1.318434	1.001915
C39	C	-0.000010	0.790014	1.128543
C40	C	-0.000010	0.675138	1.128542
C41	C	-0.160012	1.128442	1.128584
C42	C	-0.214315	1.128425	1.128598
C43	C	-0.519769	1.194635	0.996321
C44	C	-0.570787	1.194648	0.996313
O45	O	-0.570603	1.250909	0.883883
N46	N	-0.627548	1.128541	1.128511
C47	C	-0.633290	1.062427	1.260725
O48	O	-0.686254	1.006200	1.373169
C49	C	-0.582272	1.062422	1.260732
C50	C	-0.525512	1.128523	1.128526
C51	C	-0.463011	1.260732	0.864126
C52	C	-0.411996	1.260717	0.864135
C53	C	-0.417739	1.194605	0.996339
C54	C	-0.474497	1.128508	1.128534
C55	C	-0.588014	0.996316	1.392945
C56	C	-0.536990	0.996318	1.392940
C57	C	-0.480230	1.062419	1.260733
C58	C	-0.429225	1.062381	1.260747
N59	N	-0.372464	1.128488	1.128549
C60	C	-0.366721	1.194600	0.996345
C61	C	-0.740428	1.062444	1.260701
C62	C	-0.791446	1.062441	1.260696
C63	C	-0.728939	1.194664	0.996284
C64	C	-0.677921	1.194659	0.996291
C65	C	-0.683667	1.128551	1.128504
C66	C	-0.259589	1.194562	0.996373
C67	C	-0.208572	1.194537	0.996394
C68	C	-0.271083	1.062319	1.260805
C69	C	-0.322095	1.062339	1.260786
C70	C	-0.316344	1.128470	1.128558
O71	O	-0.429363	1.006153	1.373120
O72	O	-0.313755	1.250831	0.883920
C73	C	0.159990	1.128542	1.128505
C74	C	0.214293	1.128559	1.128491
C75	C	-0.000008	1.128499	0.790060
C76	C	-0.000008	1.128501	0.675181
C77	C	-0.000012	1.466969	1.128546
C78	C	-0.000012	1.581845	1.128547
C79	C	-0.000013	1.128485	1.467029
C80	C	-0.000014	1.128482	1.581908
C81	C	-0.160014	0.789957	1.467067
C82	C	-0.214317	0.675062	1.581958
C83	C	-0.000013	0.790007	1.467027
C84	C	-0.000013	0.675129	1.581905
C85	C	0.159993	1.128549	0.790020
C86	C	0.214296	1.128568	0.675128
C87	C	-0.000009	1.466976	0.790062
C88	C	-0.000009	1.581855	0.675184
C89	C	0.159992	1.467026	0.790022
C90	C	0.214295	1.581922	0.675131
C91	C	-0.160015	1.128435	1.467069
C92	C	-0.214318	1.128416	1.581961
C93	C	-0.271068	0.687190	1.635932
C94	C	-0.322096	0.579244	1.743901
C95	C	-0.316373	0.459171	1.797885
C96	C	-0.259617	0.447045	1.743907
C97	C	-0.208590	0.554990	1.635948
C98	C	0.271047	1.194693	0.621155
C99	C	0.322076	1.194736	0.513187
C100	C	0.316353	1.128647	0.459201
C101	C	0.259597	1.062520	0.513179
C102	C	0.208569	1.062485	0.621138
C103	C	0.208553	1.701974	0.621173
C104	C	0.259572	1.809941	0.513205
C105	C	0.316333	1.797853	0.459204
C106	C	0.322074	1.677788	0.513166
C107	C	0.271055	1.569824	0.621125
C108	C	-0.208577	1.194511	1.635919
C109	C	-0.259596	1.194489	1.743886
C110	C	-0.316356	1.128378	1.797887
C111	C	-0.322097	1.062274	1.743924
C112	C	-0.271078	1.062290	1.635966
H113	H	-0.162355	1.248363	0.888731
C114	C	0.146144	0.989731	0.680513
C115	C	0.139857	0.917033	0.621126
C116	C	0.077434	0.844276	0.680493
C117	C	0.021297	0.844216	0.799247
C118	C	0.027582	0.916917	0.858641
C119	C	0.090006	0.989674	0.799274
H120	H	0.181415	0.917074	0.533211
H121	H	0.072781	0.790458	0.636525
H122	H	-0.024913	0.790357	0.843194
H123	H	-0.013975	0.916875	0.946556
H124	H	0.094659	1.043492	0.843242
H125	H	-0.357894	1.128376	1.885793
H126	H	-0.254966	0.349266	1.787879
H127	H	0.254946	1.008713	0.469207
C128	C	0.384502	1.267470	0.453838
C129	C	0.403252	1.232935	0.557742
C130	C	0.465676	1.305667	0.498399
C131	C	0.509350	1.412934	0.335151
C132	C	0.490601	1.447475	0.231236
C133	C	0.428177	1.374743	0.290580
H134	H	0.370921	1.153524	0.678597
H135	H	0.479555	1.280097	0.575324
H136	H	0.555560	1.466775	0.291221
H137	H	0.522932	1.526886	0.110381
H138	H	0.414298	1.400312	0.213655
H139	H	-0.162383	0.545097	1.592005
C140	C	0.384513	1.664503	0.453764
C141	C	0.440626	1.783271	0.335025
C142	C	0.503067	1.769990	0.275627
C143	C	0.509394	1.637943	0.334969
C144	C	0.453280	1.519166	0.453714
C145	C	0.390839	1.532446	0.513112
H146	H	0.435944	1.881029	0.291091
H147	H	0.544607	1.857918	0.187724
H148	H	0.555617	1.628112	0.290999
H149	H	0.457962	1.421408	0.497648
H150	H	0.349299	1.444519	0.601016
H151	H	0.357908	1.128686	0.371294
H152	H	-0.357928	0.371285	1.885793
H153	H	0.275717	1.248515	0.665094
H154	H	-0.368312	1.008498	1.368440
C155	C	-0.146144	1.267228	1.576546
C156	C	-0.139841	1.339910	1.635935
C157	C	-0.077411	1.412622	1.576579
C158	C	-0.021284	1.412652	1.457835
C159	C	-0.027585	1.339968	1.398439
C160	C	-0.090015	1.267256	1.457795
H161	H	-0.181392	1.339890	1.723842
H162	H	-0.072747	1.466428	1.620548
H163	H	0.024931	1.466478	1.413896
H164	H	0.013966	1.339988	1.310532
H165	H	-0.094679	1.213450	1.413825
C166	C	-0.384536	0.989567	1.803322
C167	C	-0.440649	0.989575	1.922058
C168	C	-0.503090	0.916877	1.981450
C169	C	-0.509417	0.844172	1.922106
C170	C	-0.453302	0.844162	1.803363
C171	C	-0.390861	0.916859	1.743971
H172	H	-0.435967	1.043398	1.965994
H173	H	-0.544630	0.916885	2.069352
H174	H	-0.555639	0.790357	1.966072
H175	H	-0.457984	0.790338	1.759427
H176	H	-0.349321	0.916851	1.656070
H177	H	-0.254910	1.248324	1.787804
H178	H	-0.254897	1.248413	0.888701
H179	H	-0.541675	0.942487	1.500606
C180	C	-0.456683	1.333458	0.718685
C181	C	-0.483146	1.440702	0.682279
C182	C	-0.476812	1.513423	0.536827
C183	C	-0.444014	1.478901	0.427780
C184	C	-0.417548	1.371652	0.464182
C185	C	-0.423883	1.298931	0.609635
H186	H	-0.507427	1.466262	0.763005
H187	H	-0.496403	1.592816	0.509880
H188	H	-0.439324	1.532734	0.320107
H189	H	-0.393267	1.346092	0.383457
H190	H	-0.404292	1.219538	0.636582
H191	H	-0.365783	1.314552	0.756479
H192	H	-0.275761	1.008469	1.592038
H193	H	0.254886	1.907692	0.469287
C194	C	-0.384523	0.592606	1.803249
C195	C	-0.403272	0.662007	1.877412
C196	C	-0.465696	0.675374	1.936753
C197	C	-0.509370	0.619338	1.921932
C198	C	-0.490621	0.549932	1.847766
C199	C	-0.428197	0.536566	1.788424
H200	H	-0.370941	0.703492	1.888386
H201	H	-0.479575	0.726753	1.991656
H202	H	-0.555579	0.629233	1.965861
H203	H	-0.522952	0.508447	1.836792
H204	H	-0.414319	0.485186	1.733521
H205	H	-0.631708	1.248481	0.888636
H206	H	0.162341	1.711840	0.665127
H207	H	0.275739	1.472076	0.665054
H208	H	-0.724271	1.248493	0.888636
H209	H	-0.745114	1.008600	1.368371
H210	H	-0.837659	1.008599	1.368351
H211	H	-0.275750	1.008487	1.368444
H212	H	-0.634224	0.942492	1.500598
H213	H	-0.275739	0.784951	1.591987
H214	H	0.357870	1.885774	0.371296
