data_functionalizedCrystal
_audit_creation_method	'MofGen! by Chris Wilmer'
_symmetry_space_group_name_H-M	'P1'
_symmetry_Int_Tables_number	1
_symmetry_cell_setting	triclinic
loop_
_symmetry_equiv_pos_as_xyz
  x,y,z
_cell_length_a	10.654550
_cell_length_b	16.109301
_cell_length_c	9.130313
_cell_angle_alpha	89.997330
_cell_angle_beta	89.996220
_cell_angle_gamma	83.973192
loop_
_atom_site_label
_atom_site_type_symbol
_atom_site_fract_x
_atom_site_fract_y
_atom_site_fract_z
O1	O	1.666250	0.116770	-0.121925
O2	O	1.300621	0.127896	-0.121902
O3	O	1.493479	0.001362	-0.121899
O4	O	1.473391	0.243304	-0.121928
O5	O	1.493477	0.001365	0.121700
O6	O	1.300618	0.127899	0.121697
O7	O	1.666248	0.116774	0.121674
Cu8	Cu	1.483433	0.122337	0.143928
Cu9	Cu	1.483435	0.122333	-0.144156
O10	O	1.473389	0.243308	0.121671
C11	C	1.253832	0.127080	-0.000099
C12	C	1.114422	0.124636	-0.000090
C13	C	1.033926	0.199138	-0.000120
C14	C	0.902936	0.196836	-0.000145
C15	C	0.932952	0.045526	-0.000116
C16	C	1.063939	0.047828	-0.000081
C17	C	1.016595	0.286496	-0.000143
C18	C	0.885606	0.284194	-0.000168
C19	C	1.492665	-0.029616	-0.000099
C20	C	1.490225	-0.121926	-0.000097
C21	C	1.598991	-0.343552	-0.000127
C22	C	1.596689	-0.430286	-0.000139
C23	C	1.367868	-0.411772	-0.000119
C24	C	1.370172	-0.325040	-0.000117
C25	C	1.485737	-0.290932	-0.000114
C26	C	1.481131	-0.464399	-0.000127
C27	C	1.478634	-0.558440	-0.000140
C28	C	1.488234	-0.196885	-0.000104
C29	C	1.713036	0.117589	-0.000132
C30	C	1.852446	0.120033	-0.000151
C31	C	1.474204	0.274286	-0.000132
C32	C	1.476643	0.366595	-0.000144
N33	N	1.483440	0.122339	0.346551
N34	N	1.483438	0.122324	-0.346779
C35	C	1.568859	0.066329	0.423204
C36	C	1.568856	0.066319	0.576541
C37	C	1.398010	0.178336	0.576558
C38	C	1.398008	0.178342	0.423223
C39	C	1.667500	0.001659	0.423195
C40	C	1.667497	0.001649	0.576532
H41	H	1.129476	-0.012838	-0.000035
C42	C	1.245590	-0.267151	-0.000110
H43	H	1.263515	-0.210612	-0.000127
H44	H	1.198196	-0.277558	0.084838
H45	H	1.198210	-0.277560	-0.085069
H46	H	1.273779	-0.439553	-0.000118
C47	C	1.304050	0.239939	0.660902
H48	H	1.316287	0.231918	0.763201
H49	H	1.220246	0.230396	0.635777
H50	H	1.317668	0.295516	0.635776
H51	H	0.891833	-0.017009	-0.000131
C52	C	1.726106	-0.306036	-0.000140
H53	H	1.793225	-0.349799	-0.000163
H54	H	1.731769	-0.272589	0.084807
H55	H	1.731755	-0.272585	-0.085100
C56	C	1.304040	0.239947	0.338909
H57	H	1.253171	0.273303	0.406537
H58	H	1.251787	0.209716	0.279096
H59	H	1.349195	0.274845	0.279094
H60	H	1.688912	-0.473126	-0.000152
H61	H	1.646924	-0.062245	0.381584
H62	H	1.758409	0.021908	0.375628
H63	H	1.637803	-0.058739	0.624088
C64	C	1.797605	0.020894	0.632753
H65	H	1.851111	0.028825	0.551821
H66	H	1.833959	-0.024438	0.690546
H67	H	1.788006	0.070185	0.690559
C68	C	1.064263	0.324078	-0.142212
H69	H	0.994848	0.339224	-0.205500
H70	H	1.122427	0.284005	-0.189400
H71	H	1.104906	0.372202	-0.119380
H72	H	0.839575	0.310596	0.104997
H73	H	0.843427	0.317108	-0.102126
C74	C	1.055600	0.332659	0.137562
H75	H	0.982755	0.350074	0.194181
H76	H	1.095741	0.380097	0.109236
H77	H	1.112356	0.296278	0.194234
