data_functionalizedCrystal
_audit_creation_method	'MofGen! by Chris Wilmer'
_symmetry_space_group_name_H-M	'P1'
_symmetry_Int_Tables_number	1
_symmetry_cell_setting	triclinic
loop_
_symmetry_equiv_pos_as_xyz
  x,y,z
_cell_length_a	19.805407
_cell_length_b	16.959454
_cell_length_c	19.805399
_cell_angle_alpha	89.977613
_cell_angle_beta	89.980427
_cell_angle_gamma	90.020075
loop_
_atom_site_label
_atom_site_type_symbol
_atom_site_fract_x
_atom_site_fract_y
_atom_site_fract_z
Zn1	Zn	1.034765	-0.314700	-0.382744
Zn2	Zn	1.034693	-0.446882	-0.269566
Zn3	Zn	0.921580	-0.314722	-0.269569
Zn4	Zn	0.921556	-0.446840	-0.382713
O5	O	0.978149	-0.380786	-0.326148
O6	O	1.129472	-0.332243	-0.367743
O7	O	1.019668	-0.429378	-0.174850
O8	O	0.936635	-0.204108	-0.284596
O9	O	1.129419	-0.429356	-0.284591
O10	O	1.019792	-0.204092	-0.367745
O11	O	0.936564	-0.332280	-0.174852
O12	O	0.826860	-0.332239	-0.284565
O13	O	0.936594	-0.429285	-0.477434
O14	O	0.826843	-0.429306	-0.367692
O15	O	1.019768	-0.332202	-0.477457
O16	O	1.019645	-0.557488	-0.284561
O17	O	0.936524	-0.557457	-0.367690
C18	C	0.802293	-0.380771	-0.326126
C19	C	0.727061	-0.380783	-0.326133
C20	C	0.978092	-0.586152	-0.326136
C21	C	0.978130	-0.674009	-0.326154
C22	C	0.691725	-0.431402	-0.369347
C23	C	0.621037	-0.431404	-0.369356
C24	C	0.585685	-0.380790	-0.326148
C25	C	0.621026	-0.330165	-0.282932
C26	C	0.691713	-0.330160	-0.282926
C27	C	0.335952	-0.330183	-0.282954
C28	C	0.265260	-0.330193	-0.282962
C29	C	0.265276	-0.431426	-0.369384
C30	C	0.335963	-0.431421	-0.369379
C31	C	0.371298	-0.380794	-0.326166
C32	C	0.447946	-0.380792	-0.326157
C33	C	0.509038	-0.380795	-0.326153
C34	C	0.934930	-1.045498	-0.369428
C35	C	1.021555	-1.045470	-0.282937
C36	C	1.021532	-0.962925	-0.282930
C37	C	0.978206	-0.921662	-0.326173
C38	C	0.934904	-0.962945	-0.369422
C39	C	1.064828	-0.921635	-0.239677
C40	C	1.064806	-0.839085	-0.239669
C41	C	1.021483	-0.797820	-0.282915
C42	C	0.978180	-0.839108	-0.326167
C43	C	0.934854	-0.797845	-0.369409
C44	C	0.891553	-0.839132	-0.412665
C45	C	0.891581	-0.921680	-0.412669
C46	C	1.021455	-0.715272	-0.282911
C47	C	0.934827	-0.715292	-0.369403
C48	C	1.154691	-0.380802	-0.326170
C49	C	1.229923	-0.380808	-0.326180
C50	C	0.978187	-0.380736	-0.502691
C51	C	0.978203	-0.380715	-0.577923
C52	C	0.978224	-0.174618	-0.326174
C53	C	0.978256	-0.086761	-0.326186
C54	C	1.021513	-0.330161	-0.613280
C55	C	1.021520	-0.330138	-0.683968
C56	C	0.978220	-0.380674	-0.719298
C57	C	0.934905	-0.431230	-0.683936
C58	C	0.934895	-0.431248	-0.613249
C59	C	0.934943	-0.431156	-0.969010
C60	C	0.934958	-0.431135	-1.039702
C61	C	1.021568	-0.330046	-1.039729
C62	C	1.021558	-0.330065	-0.969042
C63	C	0.978241	-0.380617	-0.933686
C64	C	0.978233	-0.380641	-0.857037
C65	C	0.978230	-0.380655	-0.795946
C66	C	0.978150	-0.380779	-0.150292
C67	C	0.978265	-0.380577	-0.075060
H68	H	0.720503	-0.472621	-0.404530
C69	C	0.156924	-0.476385	-0.407782
C70	C	0.226434	-0.487069	-0.416894
H71	H	0.132948	-0.510734	-0.437114
H72	H	0.145319	-0.487885	-0.362295
H73	H	0.145365	-0.423290	-0.417769
H74	H	0.237995	-0.540163	-0.406901
H75	H	0.238045	-0.475575	-0.462391
H76	H	1.100064	-0.805474	-0.204449
C77	C	0.628152	-0.531493	-0.454762
C78	C	0.582196	-0.487059	-0.416847
H79	H	0.604172	-0.565858	-0.484077
H80	H	0.655738	-0.497098	-0.480708
H81	H	0.655707	-0.561668	-0.425213
H82	H	0.554644	-0.456879	-0.446397
H83	H	0.554599	-0.521458	-0.390900
C84	C	0.776956	-0.947166	-0.445537
C85	C	0.843984	-0.967059	-0.460209
H86	H	0.747573	-0.975180	-0.474889
H87	H	0.767087	-0.960731	-0.400057
H88	H	0.770751	-0.892097	-0.451725
H89	H	0.850191	-1.022129	-0.454016
H90	H	0.853856	-0.953501	-0.505700
C91	C	0.849318	-0.531060	-0.976093
C92	C	0.887322	-0.486713	-0.930152
H93	H	0.819917	-0.565359	-0.952101
H94	H	0.823460	-0.496606	-1.003670
H95	H	0.878806	-0.561302	-1.003658
H96	H	0.857833	-0.456466	-0.902591
H97	H	0.913182	-0.521171	-0.902564
H98	H	0.236479	-0.288972	-0.247776
C99	C	1.107186	-0.230124	-1.032654
C100	C	1.069179	-0.274470	-1.078594
H101	H	1.136582	-0.195820	-1.056648
H102	H	1.077704	-0.199895	-1.005083
H103	H	1.133056	-0.264585	-1.005084
H104	H	1.043305	-0.240010	-1.106161
H105	H	1.098665	-0.304701	-1.106177
H106	H	0.592237	-0.288951	-0.247754
C107	C	0.328826	-0.230116	-0.197530
C108	C	0.374786	-0.274535	-0.235454
H109	H	0.352804	-0.195763	-0.168203
H110	H	0.301274	-0.199936	-0.227068
H111	H	0.301238	-0.264527	-0.171591
H112	H	0.402371	-0.240125	-0.261398
H113	H	0.402349	-0.304718	-0.205913
H114	H	0.899549	-0.681701	-0.404619
H115	H	1.056707	-0.681660	-0.247691
C116	C	0.853054	-0.712597	-0.451050
C117	C	0.843931	-0.793770	-0.460197
H118	H	0.823657	-0.684592	-0.480397
H119	H	0.843168	-0.699114	-0.405567
H120	H	0.898524	-0.699033	-0.460996
H121	H	0.798462	-0.807335	-0.450247
H122	H	0.853812	-0.807258	-0.505691
H123	H	0.899678	-1.079117	-0.404647
H124	H	1.056825	-1.079072	-0.247726
C125	C	1.107121	-0.230228	-0.620414
C126	C	1.069109	-0.274609	-0.574449
H127	H	1.136501	-0.195927	-0.596441
H128	H	1.133003	-0.264662	-0.647983
H129	H	1.077637	-0.199988	-0.647985
H130	H	1.098593	-0.304854	-0.546881
H131	H	1.043225	-0.240171	-0.546868
H132	H	0.899647	-0.472373	-0.712708
C133	C	0.771223	-0.223814	-0.273669
C134	C	0.730554	-0.274519	-0.235422
H135	H	0.795197	-0.189458	-0.244341
H136	H	0.802391	-0.253956	-0.299394
H137	H	0.743659	-0.193631	-0.303204
H138	H	0.758119	-0.304706	-0.205891
H139	H	0.699383	-0.244374	-0.209685
C140	C	1.103230	-1.048165	-0.201191
C141	C	1.112379	-0.966992	-0.192077
H142	H	1.132571	-1.076167	-0.171786
H143	H	1.057744	-1.061691	-0.191311
H144	H	1.113182	-1.061690	-0.246658
H145	H	1.102422	-0.953466	-0.146612
H146	H	1.157875	-0.953461	-0.201952
H147	H	1.056788	-0.288974	-0.712753
C148	C	1.030972	-0.223757	-0.889574
C149	C	1.069147	-0.274502	-0.930212
H150	H	1.060350	-0.189453	-0.865602
H151	H	1.001499	-0.193527	-0.917154
H152	H	1.005185	-0.253878	-0.858398
H153	H	1.094930	-0.244381	-0.961391
H154	H	1.098632	-0.304735	-0.902630
H155	H	0.899695	-0.472289	-1.068466
C156	C	0.849301	-0.531193	-0.620318
C157	C	0.887299	-0.486832	-0.574382
H158	H	0.819922	-0.565513	-0.596322
H159	H	0.823421	-0.496748	-0.647882
H160	H	0.878794	-0.561412	-0.647895
H161	H	0.857806	-0.456608	-0.546807
H162	H	0.913182	-0.521280	-0.546806
H163	H	0.364743	-0.472639	-0.404561
