data_functionalizedCrystal
_audit_creation_method	'MofGen! by Chris Wilmer'
_symmetry_space_group_name_H-M	'P1'
_symmetry_Int_Tables_number	1
_symmetry_cell_setting	triclinic
loop_
_symmetry_equiv_pos_as_xyz
  x,y,z
_cell_length_a	19.188930
_cell_length_b	18.266242
_cell_length_c	17.699083
_cell_angle_alpha	90.007243
_cell_angle_beta	83.213897
_cell_angle_gamma	90.022918
loop_
_atom_site_label
_atom_site_type_symbol
_atom_site_fract_x
_atom_site_fract_y
_atom_site_fract_z
O1	O	0.926255	0.061118	0.094493
O2	O	1.426255	0.561118	0.594493
O3	O	0.722958	0.061068	0.107213
O4	O	1.222958	0.561068	0.607213
O5	O	0.830350	0.061088	-0.009344
O6	O	1.330350	0.561088	0.490656
O7	O	0.818863	0.061098	0.211049
O8	O	1.318863	0.561098	0.711049
O9	O	0.830332	-0.060674	-0.009350
O10	O	1.330332	0.439326	0.490650
O11	O	0.722940	-0.060694	0.107207
O12	O	1.222940	0.439306	0.607207
O13	O	0.926237	-0.060644	0.094487
O14	O	1.426237	0.439356	0.594487
Zn15	Zn	0.824586	-0.080002	0.100846
Zn16	Zn	1.324586	0.419998	0.600846
Zn17	Zn	0.824610	0.080425	0.100854
Zn18	Zn	1.324610	0.580425	0.600854
O19	O	0.818845	-0.060664	0.211044
O20	O	1.318845	0.439336	0.711044
C21	C	0.696938	0.000180	0.106798
C22	C	1.196938	0.500180	0.606798
C23	C	0.619432	0.000161	0.105561
C24	C	1.119432	0.500161	0.605561
C25	C	0.574584	0.000176	0.173953
C26	C	1.074584	0.500176	0.673953
C27	C	0.501759	0.000184	0.172791
C28	C	1.001759	0.500184	0.672791
C29	C	0.473785	0.000192	0.103234
C30	C	0.973785	0.500192	0.603234
C31	C	0.518642	0.000173	0.034833
C32	C	1.018642	0.500173	0.534833
C33	C	0.591465	0.000158	0.035997
C34	C	1.091465	0.500158	0.535997
N35	N	0.365751	0.041660	0.050068
N36	N	0.865751	0.541660	0.550068
N37	N	0.296571	0.041676	0.048967
N38	N	0.796571	0.541676	0.548967
C39	C	0.254372	0.000236	0.099724
C40	C	0.754372	0.500236	0.599724
N41	N	0.283965	-0.041211	0.151634
N42	N	0.783965	0.458789	0.651634
N43	N	0.353151	-0.041224	0.152737
N44	N	0.853151	0.458776	0.652737
C45	C	0.394821	0.000208	0.101965
C46	C	0.894821	0.500208	0.601965
C47	C	0.130559	0.000259	0.166861
C48	C	0.630559	0.500259	0.666861
C49	C	0.057733	0.000262	0.165696
C50	C	0.557733	0.500262	0.665696
C51	C	0.074617	0.000259	0.027736
C52	C	0.574617	0.500259	0.527736
C53	C	0.147442	0.000248	0.028903
C54	C	0.647442	0.500248	0.528903
C55	C	0.175408	0.000251	0.098467
C56	C	0.675408	0.500251	0.598467
N57	N	0.824574	-0.189489	0.100840
N58	N	1.324574	0.310511	0.600840
C59	C	0.872143	-0.227789	0.049254
C60	C	1.372143	0.272211	0.549254
C61	C	0.872148	-0.304433	0.049250
C62	C	1.372148	0.195567	0.549250
C63	C	0.824590	-0.342775	0.100846
C64	C	1.324590	0.157225	0.600846
C65	C	0.777012	-0.304466	0.152436
C66	C	1.277012	0.195534	0.652436
C67	C	0.777004	-0.227823	0.152433
C68	C	1.277004	0.272177	0.652433
N69	N	0.815589	-0.463106	0.167847
N70	N	1.315589	0.036894	0.667847
N71	N	0.815601	-0.535914	0.167847
N72	N	1.315601	-0.035914	0.667847
C73	C	0.824609	-0.573698	0.100857
C74	C	1.324609	-0.073698	0.600857
N75	N	0.833620	-0.535923	0.033864
N76	N	1.333620	-0.035923	0.533864
N77	N	0.833612	-0.463108	0.033864
N78	N	1.333612	0.036892	0.533864
C79	C	0.824593	-0.425882	0.100855
C80	C	1.324593	0.074118	0.600855
C81	C	0.872186	-0.695105	0.049263
C82	C	1.372186	-0.195105	0.549263
C83	C	0.872185	-0.771751	0.049258
C84	C	1.372185	-0.271751	0.549258
C85	C	0.777053	-0.771783	0.152450
C86	C	1.277053	-0.271783	0.652450
C87	C	0.777050	-0.695138	0.152448
C88	C	1.277050	-0.195138	0.652448
C89	C	0.824620	-0.656803	0.100855
C90	C	1.324620	-0.156803	0.600855
C91	C	0.952258	0.000245	0.094902
C92	C	1.452258	0.500245	0.594902
C93	C	1.029763	0.000269	0.096138
C94	C	1.529763	0.500269	0.596138
C95	C	0.829930	0.000207	-0.037543
C96	C	1.329930	0.500207	0.462457
C97	C	0.828695	0.000206	-0.121560
C98	C	1.328695	0.500206	0.378440
N99	N	0.824626	0.189912	0.100853
N100	N	1.324626	0.689912	0.600853
C101	C	0.891732	0.000220	-0.170264
C102	C	1.391732	0.500220	0.329736
C103	C	0.890567	0.000227	-0.249206
C104	C	1.390567	0.500227	0.250794
C105	C	0.826365	0.000213	-0.279442
C106	C	1.326365	0.500213	0.220558
C107	C	0.763323	0.000201	-0.230732
C108	C	1.263323	0.500201	0.269268
C109	C	0.764489	0.000200	-0.151791
C110	C	1.264489	0.500200	0.348209
C111	C	0.758623	0.000206	-0.549089
C112	C	1.258623	0.500206	-0.049089
C113	C	0.757463	0.000204	-0.628035
C114	C	1.257463	0.500204	-0.128035
C115	C	0.884702	0.000232	-0.646503
C116	C	1.384702	0.500232	-0.146503
C117	C	0.885867	0.000231	-0.567563
C118	C	1.385867	0.500231	-0.067563
C119	C	0.822826	0.000223	-0.518859
C120	C	1.322826	0.500223	-0.018859
C121	C	0.824089	0.000218	-0.433262
C122	C	1.324089	0.500218	0.066738
C123	C	0.825101	0.000213	-0.365038
C124	C	1.325101	0.500213	0.134962
C125	C	0.819266	0.000219	0.239243
C126	C	1.319266	0.500219	0.739243
C127	C	0.820500	0.000224	0.323259
C128	C	1.320500	0.500224	0.823259
H129	H	0.183958	0.000240	-0.026790
H130	H	0.683958	0.500240	0.473210
O131	O	0.945988	0.000347	-0.693738
O132	O	1.445988	0.500347	-0.193738
C133	C	1.054380	0.063474	-0.733697
C134	C	1.554380	0.563474	-0.233697
C135	C	0.985010	0.063430	-0.680151
C136	C	1.485010	0.563430	-0.180151
H137	H	1.085942	0.114479	-0.722741
H138	H	1.585942	0.614479	-0.222741
H139	H	1.086021	0.012557	-0.722729
H140	H	1.586021	0.512557	-0.222729
H141	H	1.042506	0.063441	-0.795305
H142	H	1.542506	0.563441	-0.295305
H143	H	0.996820	0.063489	-0.618523
H144	H	1.496820	0.563489	-0.118523
H145	H	0.953389	0.114342	-0.691184
H146	H	1.453389	0.614342	-0.191184
H147	H	0.711049	0.000194	-0.255356
H148	H	1.211049	0.500194	0.244644
H149	H	0.910876	-0.196579	0.007242
H150	H	1.410876	0.303421	0.507242
H151	H	0.051841	0.000311	-0.028899
H152	H	0.551841	0.500311	0.471101
O153	O	0.458212	0.000333	0.239249
O154	O	0.958212	0.500333	0.739249
C155	C	0.421562	0.063421	0.356815
C156	C	0.921562	0.563421	0.856815
C157	C	0.470904	0.063348	0.281574
C158	C	0.970904	0.563348	0.781574
H159	H	0.431816	0.114355	0.391063
H160	H	0.931816	0.614355	0.891063
H161	H	0.364696	0.063481	0.344075
H162	H	0.864696	0.563481	0.844075
H163	H	0.431677	0.012443	0.391035
H164	H	0.931677	0.512443	0.891035
H165	H	0.460852	0.114317	0.247318
H166	H	0.960852	0.614317	0.747318
H167	H	0.527754	0.063250	0.294368
H168	H	1.027754	0.563250	0.794368
H169	H	0.910885	-0.335623	0.007241
H170	H	1.410885	0.164377	0.507241
H171	H	0.597349	0.000180	0.230598
H172	H	1.097349	0.500180	0.730598
H173	H	0.910919	-0.802936	0.007246
H174	H	1.410919	-0.302936	0.507246
H175	H	0.944013	0.000227	-0.145652
H176	H	1.444013	0.500227	0.354348
O177	O	0.951737	0.000275	-0.296624
O178	O	1.451737	0.500275	0.203376
C179	C	1.006339	0.000259	-0.426422
C180	C	1.506339	0.500259	0.073578
C181	C	0.937010	0.000216	-0.372808
C182	C	1.437010	0.500216	0.127192
H183	H	0.994456	0.000196	-0.488027
H184	H	1.494456	0.500196	0.011973
H185	H	1.037957	0.051235	-0.415501
H186	H	1.537957	0.551235	0.084499
H187	H	1.037935	-0.050680	-0.415421
H188	H	1.537935	0.449320	0.084579
H189	H	0.905357	0.051120	-0.383777
H190	H	1.405357	0.551120	0.116223
H191	H	0.905445	-0.050793	-0.383740
H192	H	1.405445	0.449207	0.116260
O193	O	0.157766	0.000379	0.234411
O194	O	0.657766	0.500379	0.734411
C195	C	0.230260	0.063417	0.315776
C196	C	0.730260	0.563417	0.815776
C197	C	0.199484	0.063383	0.239258
C198	C	0.699484	0.563383	0.739258
H199	H	0.264007	0.114342	0.319713
H200	H	0.764007	0.614342	0.819713
H201	H	0.185723	0.063467	0.364493
H202	H	0.685723	0.563467	0.864493
H203	H	0.263876	0.012430	0.319749
H204	H	0.763876	0.512430	0.819749
H205	H	0.165876	0.114361	0.235211
H206	H	0.665876	0.614361	0.735211
H207	H	0.244054	0.063294	0.190578
H208	H	0.744054	0.563294	0.690578
O209	O	0.730787	-0.341790	0.202453
O210	O	1.230787	0.158210	0.702453
C211	C	0.635394	-0.428341	0.218819
C212	C	1.135394	0.071659	0.718819
C213	C	0.687720	-0.386132	0.162094
C214	C	1.187720	0.113868	0.662094
H215	H	0.600551	-0.464190	0.186211
H216	H	1.100551	0.035810	0.686211
H217	H	0.665437	-0.464249	0.256542
H218	H	1.165437	0.035751	0.756542
H219	H	0.601423	-0.387785	0.255706
H220	H	1.101423	0.112215	0.755706
H221	H	0.721704	-0.426635	0.125157
H222	H	1.221704	0.073365	0.625157
H223	H	0.657635	-0.350213	0.124424
H224	H	1.157635	0.149787	0.624424
H225	H	0.938147	0.000239	-0.542949
H226	H	1.438147	0.500239	-0.042949
O227	O	0.730782	-0.657894	0.202464
O228	O	1.230782	-0.157894	0.702464
C229	C	0.635431	-0.571368	0.218837
C230	C	1.135431	-0.071368	0.718837
C231	C	0.687783	-0.613514	0.162109
C232	C	1.187783	-0.113514	0.662109
H233	H	0.600663	-0.535466	0.186233
H234	H	1.100663	-0.035466	0.686233
H235	H	0.601390	-0.611900	0.255708
H236	H	1.101390	-0.111900	0.755708
H237	H	0.665525	-0.535499	0.256576
H238	H	1.165525	-0.035499	0.756576
H239	H	0.657746	-0.649385	0.124321
H240	H	1.157746	-0.149385	0.624321
H241	H	0.721824	-0.572943	0.125292
H242	H	1.221824	-0.072943	0.625292
O243	O	0.730771	-0.190728	0.202623
O244	O	1.230771	0.309272	0.702623
C245	C	0.636385	-0.198847	0.304942
C246	C	1.136385	0.301153	0.804942
C247	C	0.688717	-0.240949	0.248154
C248	C	1.188717	0.259051	0.748154
H249	H	0.602361	-0.239432	0.341758
H250	H	1.102361	0.260568	0.841758
H251	H	0.666424	-0.162965	0.342725
H252	H	1.166424	0.337035	0.842725
H253	H	0.601596	-0.162965	0.272342
H254	H	1.101596	0.337035	0.772342
H255	H	0.723520	-0.276871	0.280692
H256	H	1.223520	0.223129	0.780692
H257	H	0.658635	-0.276785	0.210372
H258	H	1.158635	0.223215	0.710372
H259	H	0.705179	0.000192	-0.652650
H260	H	1.205179	0.500192	-0.152650
H261	H	0.707291	0.000198	-0.509443
H262	H	1.207291	0.500198	-0.009443
H263	H	0.910918	-0.663892	0.007250
H264	H	1.410918	-0.163892	0.507250
H265	H	0.713157	0.000188	-0.112137
H266	H	1.213157	0.500188	0.387863
O267	O	0.730758	-0.808985	0.202497
O268	O	1.230758	-0.308985	0.702497
C269	C	0.609285	-0.832454	0.247203
C270	C	1.109285	-0.332454	0.747203
C271	C	0.661641	-0.790287	0.190473
C272	C	1.161641	-0.290287	0.690473
H273	H	0.553393	-0.817341	0.237512
H274	H	1.053393	-0.317341	0.737512
H275	H	0.617398	-0.893822	0.238346
H276	H	1.117398	-0.393822	0.738346
H277	H	0.618312	-0.817379	0.307793
H278	H	1.118312	-0.317379	0.807793
H279	H	0.652646	-0.805301	0.129860
H280	H	1.152646	-0.305301	0.629860
H281	H	0.653516	-0.728929	0.199396
H282	H	1.153516	-0.228929	0.699396
H283	H	0.627981	0.000146	-0.019698
H284	H	1.127981	0.500146	0.480302
O285	O	0.491437	0.000313	-0.032715
O286	O	0.991437	0.500313	0.467285
C287	C	0.419018	0.063390	-0.114071
C288	C	0.919018	0.563390	0.385929
C289	C	0.449792	0.063335	-0.037550
C290	C	0.949792	0.563335	0.462450
H291	H	0.385330	0.114330	-0.117998
H292	H	0.885330	0.614330	0.382002
H293	H	0.463557	0.063424	-0.162786
H294	H	0.963557	0.563424	0.337214
H295	H	0.385345	0.012418	-0.118055
H296	H	0.885345	0.512418	0.381945
H297	H	0.483458	0.114298	-0.033492
H298	H	0.983458	0.614298	0.466508
H299	H	0.405220	0.063262	0.011128
H300	H	0.905220	0.563262	0.511128
H301	H	0.021218	0.000270	0.221391
H302	H	0.521218	0.500270	0.721391
