data_functionalizedCrystal
_audit_creation_method	'MofGen! by Chris Wilmer'
_symmetry_space_group_name_H-M	'P1'
_symmetry_Int_Tables_number	1
_symmetry_cell_setting	triclinic
loop_
_symmetry_equiv_pos_as_xyz
  x,y,z
_cell_length_a	13.897449
_cell_length_b	19.121063
_cell_length_c	13.897441
_cell_angle_alpha	92.405670
_cell_angle_beta	89.979267
_cell_angle_gamma	92.470221
loop_
_atom_site_label
_atom_site_type_symbol
_atom_site_fract_x
_atom_site_fract_y
_atom_site_fract_z
Zn1	Zn	1.458257	-0.279567	-0.561726
Zn2	Zn	1.451242	-0.397031	-0.407294
Zn3	Zn	1.296944	-0.279601	-0.400446
Zn4	Zn	1.290021	-0.396984	-0.568544
O5	O	1.374116	-0.338296	-0.484503
O6	O	1.592308	-0.295154	-0.541253
O7	O	1.430735	-0.381487	-0.271406
O8	O	1.324176	-0.181312	-0.416120
O9	O	1.587154	-0.381454	-0.427793
O10	O	1.442692	-0.181287	-0.534612
O11	O	1.317374	-0.295211	-0.266375
O12	O	1.161045	-0.295166	-0.422732
O13	O	1.312377	-0.381375	-0.702620
O14	O	1.155958	-0.381408	-0.546233
O15	O	1.435979	-0.295109	-0.697610
O16	O	1.424022	-0.495309	-0.434404
O17	O	1.305574	-0.495275	-0.552874
C18	C	1.123502	-0.338286	-0.484480
C19	C	1.016288	-0.338299	-0.484494
C20	C	1.363311	-0.520776	-0.495143
C21	C	1.358777	-0.598842	-0.499727
C22	C	0.819992	-0.338302	-0.484520
C23	C	0.929225	-0.338298	-0.484503
C24	C	1.418365	-0.635512	-0.440252
C25	C	1.414106	-0.708863	-0.444569
C26	C	1.350255	-0.745543	-0.508358
C27	C	1.290665	-0.708868	-0.567840
C28	C	1.294929	-0.635518	-0.563527
C29	C	1.334297	-0.967012	-0.524468
C30	C	1.330035	-1.040367	-0.528775
C31	C	1.453478	-1.040357	-0.405504
C32	C	1.457733	-0.967006	-0.401192
C33	C	1.398147	-0.930337	-0.460678
C34	C	1.345898	-0.820519	-0.512770
C35	C	1.402509	-0.855362	-0.456270
C36	C	1.625708	-0.338306	-0.484526
C37	C	1.732922	-0.338310	-0.484536
C38	C	1.374188	-0.338234	-0.736092
C39	C	1.374219	-0.338207	-0.843305
C40	C	1.384989	-0.155103	-0.473842
C41	C	1.389623	-0.077037	-0.469299
C42	C	1.374248	-0.338160	-1.039597
C43	C	1.374229	-0.338188	-0.930366
C44	C	1.374103	-0.338307	-0.233889
C45	C	1.374271	-0.338135	-0.126665
H46	H	1.462628	-0.738716	-0.396136
H47	H	1.285778	-0.937162	-0.572902
H48	H	1.470355	-0.605652	-0.388304
O49	O	1.519852	-0.931486	-0.339211
C50	C	1.571519	-0.979581	-0.287626
H51	H	1.571795	-1.031845	-0.330207
H52	H	1.535785	-0.987442	-0.214794
C53	C	1.675518	-0.886709	-0.219842
C54	C	1.675864	-0.950899	-0.272145
H55	H	1.739882	-0.869016	-0.210288
H56	H	1.640707	-0.854306	-0.254593
H57	H	1.645735	-0.893268	-0.159154
H58	H	1.705635	-0.944337	-0.332836
H59	H	1.710683	-0.983301	-0.237404
O60	O	1.511332	-1.076086	-0.347832
C61	C	1.493867	-1.148692	-0.365300
H62	H	1.461644	-1.158687	-0.440295
H63	H	1.441329	-1.169575	-0.309259
C64	C	1.628866	-1.174013	-0.266667
C65	C	1.589296	-1.186290	-0.358780
H66	H	1.687730	-1.197207	-0.262641
H67	H	1.640631	-1.125098	-0.254895
H68	H	1.585075	-1.191416	-0.219976
H69	H	1.633082	-1.168880	-0.405468
H70	H	1.577541	-1.235204	-0.370559
O71	O	1.228769	-0.744575	-0.629857
C72	C	1.281191	-0.786923	-0.694711
H73	H	1.353672	-0.797886	-0.661402
H74	H	1.293397	-0.758610	-0.764540
C75	C	1.135035	-0.843156	-0.757134
C76	C	1.224054	-0.856626	-0.716219
H77	H	1.099789	-0.886150	-0.770406
H78	H	1.099717	-0.814623	-0.713444
H79	H	1.145219	-0.819560	-0.815320
H80	H	1.213869	-0.880213	-0.658029
H81	H	1.259370	-0.885164	-0.759901
O82	O	1.267988	-1.075891	-0.590834
C83	C	1.216295	-1.027798	-0.642400
H84	H	1.258841	-0.975485	-0.642699
H85	H	1.143500	-1.020063	-0.606566
C86	C	1.148437	-1.120634	-0.746360
C87	C	1.200695	-1.056383	-0.746735
H88	H	1.138809	-1.138267	-0.810717
H89	H	1.183260	-1.153035	-0.711617
H90	H	1.087780	-1.114179	-0.716494
H91	H	1.261355	-1.062841	-0.776589
H92	H	1.165882	-1.023983	-0.781485
O93	O	1.236951	-0.600003	-0.621342
C94	C	1.179698	-0.648105	-0.678588
H95	H	1.173330	-0.700414	-0.642149
H96	H	1.214540	-0.655847	-0.752329
C97	C	1.086518	-0.555281	-0.735489
C98	C	1.078689	-0.619527	-0.690729
H99	H	1.024212	-0.537652	-0.742982
H100	H	1.125092	-0.522874	-0.696924
H101	H	1.115557	-0.561742	-0.796935
H102	H	1.049662	-0.613064	-0.629280
H103	H	1.040107	-0.651933	-0.729284
O104	O	1.464666	-0.819767	-0.394409
C105	C	1.559757	-0.837628	-0.416597
H106	H	1.563428	-0.857749	-0.494841
H107	H	1.582521	-0.880215	-0.367402
C108	C	1.623411	-0.747720	-0.305493
C109	C	1.627921	-0.772427	-0.401597
H110	H	1.665459	-0.707502	-0.296237
H111	H	1.559346	-0.735688	-0.290542
H112	H	1.642379	-0.783215	-0.264508
H113	H	1.608942	-0.736935	-0.442579
H114	H	1.691985	-0.784452	-0.416555
H115	H	1.293908	-0.850392	-0.564705
