data_functionalizedCrystal
_audit_creation_method	'MofGen! by Chris Wilmer'
_symmetry_space_group_name_H-M	'P1'
_symmetry_Int_Tables_number	1
_symmetry_cell_setting	triclinic
loop_
_symmetry_equiv_pos_as_xyz
  x,y,z
_cell_length_a	18.101398
_cell_length_b	18.050589
_cell_length_c	18.101390
_cell_angle_alpha	89.971488
_cell_angle_beta	89.975319
_cell_angle_gamma	90.023488
loop_
_atom_site_label
_atom_site_type_symbol
_atom_site_fract_x
_atom_site_fract_y
_atom_site_fract_z
Zn1	Zn	1.132138	-0.295725	-0.418861
Zn2	Zn	1.465472	0.037609	-0.085528
Zn3	Zn	1.798805	0.370942	0.247805
Zn4	Zn	1.132040	-0.419930	-0.295029
Zn5	Zn	1.465373	-0.086597	0.038304
Zn6	Zn	1.798706	0.246736	0.371637
Zn7	Zn	1.008297	-0.295749	-0.295023
Zn8	Zn	1.341630	0.037585	0.038311
Zn9	Zn	1.674963	0.370918	0.371644
Zn10	Zn	1.008254	-0.419867	-0.418818
Zn11	Zn	1.341588	-0.086534	-0.085485
Zn12	Zn	1.674921	0.246799	0.247849
O13	O	1.070182	-0.357818	-0.356933
O14	O	1.403516	-0.024484	-0.023599
O15	O	1.736849	0.308849	0.309734
O16	O	1.235758	-0.312217	-0.402456
O17	O	1.569092	0.021116	-0.069123
O18	O	1.902425	0.354449	0.264211
O19	O	1.115601	-0.403494	-0.191396
O20	O	1.448935	-0.070160	0.141938
O21	O	1.782268	0.263173	0.475271
O22	O	1.024783	-0.191821	-0.311465
O23	O	1.358117	0.141513	0.021868
O24	O	1.691450	0.474846	0.355201
O25	O	1.235686	-0.403471	-0.311477
O26	O	1.569019	-0.070137	0.021856
O27	O	1.902352	0.263196	0.355190
O28	O	1.115770	-0.191803	-0.402449
O29	O	1.449103	0.141530	-0.069116
O30	O	1.782436	0.474863	0.264217
O31	O	1.024688	-0.312258	-0.191391
O32	O	1.358021	0.021075	0.141943
O33	O	1.691354	0.354409	0.475276
O34	O	0.904658	-0.312197	-0.311423
O35	O	1.237991	0.021137	0.021910
O36	O	1.571325	0.354470	0.355243
O37	O	1.024711	-0.403363	-0.522457
O38	O	1.358045	-0.070030	-0.189123
O39	O	1.691378	0.263304	0.144210
O40	O	0.904627	-0.403386	-0.402375
O41	O	1.237960	-0.070053	-0.069042
O42	O	1.571294	0.263281	0.264291
O43	O	1.115729	-0.312156	-0.522489
O44	O	1.449062	0.021177	-0.189155
O45	O	1.782395	0.354510	0.144178
O46	O	1.115560	-0.523847	-0.311435
O47	O	1.448894	-0.190513	0.021898
O48	O	1.782227	0.142820	0.355232
O49	O	1.024616	-0.523800	-0.402382
O50	O	1.357949	-0.190467	-0.069048
O51	O	1.691282	0.142866	0.264285
C52	C	0.877772	-0.357788	-0.356894
C53	C	1.211105	-0.024454	-0.023561
C54	C	1.544438	0.308879	0.309772
C55	C	0.795458	-0.357793	-0.356895
C56	C	1.128791	-0.024459	-0.023562
C57	C	1.462124	0.308874	0.309771
C58	C	0.496367	-0.357839	-0.356957
C59	C	0.829700	-0.024506	-0.023624
C60	C	1.163033	0.308828	0.309709
C61	C	0.527687	-0.300178	-0.300012
C62	C	0.861020	0.033155	0.033321
C63	C	1.194353	0.366489	0.366655
C64	C	0.613305	-0.300333	-0.299769
C65	C	0.946638	0.033000	0.033564
C66	C	1.279972	0.366334	0.366898
C67	C	0.644749	-0.357815	-0.356927
C68	C	0.978083	-0.024482	-0.023593
C69	C	1.311416	0.308851	0.309740
C70	C	0.613635	-0.436048	-0.335608
C71	C	0.946968	-0.102715	-0.002275
C72	C	1.280302	0.230618	0.331059
C73	C	0.527990	-0.435728	-0.335212
C74	C	0.861323	-0.102395	-0.001879
C75	C	1.194656	0.230939	0.331455
C76	C	0.527981	-0.337947	-0.435355
C77	C	0.861314	-0.004614	-0.102022
C78	C	1.194648	0.328720	0.231311
C79	C	0.613632	-0.336205	-0.434927
C80	C	0.946965	-0.002872	-0.101594
C81	C	1.280298	0.330462	0.231739
C82	C	0.728609	-0.357807	-0.356910
C83	C	1.061942	-0.024473	-0.023577
C84	C	1.395275	0.308860	0.309756
C85	C	0.412507	-0.357853	-0.356972
C86	C	0.745841	-0.024519	-0.023638
C87	C	1.079174	0.308814	0.309695
C88	C	1.070093	-0.550770	-0.356921
C89	C	1.403426	-0.217437	-0.023587
C90	C	1.736760	0.115897	0.309746
C91	C	1.070122	-0.633316	-0.356940
C92	C	1.403456	-0.299982	-0.023607
C93	C	1.736789	0.033351	0.309727
C94	C	1.020715	-0.832768	-0.406380
C95	C	1.354049	-0.499435	-0.073046
C96	C	1.687382	-0.166101	0.260287
C97	C	1.002663	-0.882213	-0.338801
C98	C	1.335996	-0.548879	-0.005468
C99	C	1.669330	-0.215546	0.327866
C100	C	1.070195	-0.784446	-0.356950
C101	C	1.403529	-0.451113	-0.023616
C102	C	1.736862	-0.117779	0.309717
C103	C	1.088284	-0.882083	-0.424536
C104	C	1.421617	-0.548750	-0.091203
C105	C	1.754951	-0.215416	0.242130
C106	C	1.070264	-0.930431	-0.356965
C107	C	1.403597	-0.597098	-0.023632
C108	C	1.736931	-0.263764	0.309702
C109	C	1.052107	-0.832803	-0.289335
C110	C	1.385441	-0.499470	0.043998
C111	C	1.718774	-0.166137	0.377332
C112	C	1.137760	-0.832669	-0.375116
C113	C	1.471093	-0.499336	-0.041783
C114	C	1.804426	-0.166003	0.291551
C115	C	1.119733	-0.882092	-0.307491
C116	C	1.453066	-0.548758	0.025843
C117	C	1.786400	-0.215425	0.359176
C118	C	1.070154	-0.700348	-0.356942
C119	C	1.403487	-0.367014	-0.023609
C120	C	1.736820	-0.033681	0.309725
C121	C	1.070306	-1.014528	-0.356965
C122	C	1.403639	-0.681194	-0.023632
C123	C	1.736972	-0.347861	0.309701
C124	C	1.263344	-0.357849	-0.356972
C125	C	1.596678	-0.024515	-0.023639
C126	C	1.930011	0.308818	0.309695
C127	C	1.345658	-0.357862	-0.356989
C128	C	1.678992	-0.024528	-0.023655
C129	C	2.012325	0.308805	0.309678
C130	C	1.070226	-0.357750	-0.550095
C131	C	1.403560	-0.024417	-0.216761
C132	C	1.736893	0.308917	0.116572
C133	C	1.070245	-0.357721	-0.632409
C134	C	1.403578	-0.024388	-0.299076
C135	C	1.736912	0.308946	0.034258
C136	C	1.070292	-0.164112	-0.356961
C137	C	1.403626	0.169221	-0.023628
C138	C	1.736959	0.502555	0.309705
C139	C	1.070339	-0.081566	-0.356974
C140	C	1.403672	0.251767	-0.023640
C141	C	1.737006	0.585100	0.309693
C142	C	1.070285	-0.357675	-0.931500
C143	C	1.403618	-0.024341	-0.598167
C144	C	1.736952	0.308992	-0.264833
C145	C	1.127739	-0.300492	-0.900195
C146	C	1.461072	0.032842	-0.566862
C147	C	1.794406	0.366175	-0.233528
C148	C	1.127560	-0.300280	-0.814577
C149	C	1.460893	0.033054	-0.481243
C150	C	1.794227	0.366387	-0.147910
C151	C	1.070266	-0.357698	-0.783117
C152	C	1.403599	-0.024364	-0.449784
C153	C	1.736933	0.308969	-0.116451
C154	C	0.992248	-0.336428	-0.814182
C155	C	1.325581	-0.003095	-0.480849
C156	C	1.658915	0.330238	-0.147516
C157	C	0.992592	-0.336000	-0.899828
C158	C	1.325925	-0.002666	-0.566494
C159	C	1.659259	0.330667	-0.233161
C160	C	1.090162	-0.436274	-0.899920
C161	C	1.423495	-0.102941	-0.566587
C162	C	1.756828	0.230393	-0.233253
C163	C	1.091874	-0.435873	-0.814270
C164	C	1.425207	-0.102540	-0.480937
C165	C	1.758541	0.230793	-0.147604
C166	C	1.070250	-0.357712	-0.699258
C167	C	1.403584	-0.024379	-0.365925
C168	C	1.736917	0.308955	-0.032591
C169	C	1.070296	-0.357659	-1.015360
C170	C	1.403629	-0.024325	-0.682026
C171	C	1.736962	0.309008	-0.348693
C172	C	1.070181	-0.357832	-0.164522
C173	C	1.403514	-0.024498	0.168811
C174	C	1.736848	0.308835	0.502144
C175	C	1.070306	-0.357651	-0.082209
C176	C	1.403639	-0.024318	0.251125
C177	C	1.736973	0.309015	0.584458
H178	H	0.506138	-0.313180	-0.242258
H179	H	0.839471	0.020153	0.091075
H180	H	1.172804	0.353486	0.424409
H181	H	0.978810	-0.811110	-0.448122
H182	H	1.312144	-0.477777	-0.114788
H183	H	1.645477	-0.144443	0.218545
C184	C	0.969816	-0.258390	-0.926834
C185	C	1.303149	0.074943	-0.593500
C186	C	1.636483	0.408277	-0.260167
H187	H	0.969817	-0.257447	-0.979310
H188	H	1.303150	0.075887	-0.645977
H189	H	1.636483	0.409220	-0.312643
H190	H	1.003867	-0.222701	-0.908729
H191	H	1.337200	0.110632	-0.575396
H192	H	1.670533	0.443965	-0.242062
H193	H	0.921698	-0.247149	-0.909129
H194	H	1.255031	0.086184	-0.575796
H195	H	1.588364	0.419518	-0.242463
C196	C	1.205718	-0.318233	-0.786197
C197	C	1.539052	0.015100	-0.452864
C198	C	1.872385	0.348433	-0.119530
H199	H	1.205715	-0.318121	-0.733713
H200	H	1.539048	0.015213	-0.400380
H201	H	1.872381	0.348546	-0.067047
H202	H	1.239437	-0.281948	-0.803801
H203	H	1.572771	0.051385	-0.470467
H204	H	1.906104	0.384719	-0.137134
H205	H	1.220220	-0.365709	-0.803564
H206	H	1.553554	-0.032376	-0.470230
H207	H	1.886887	0.300957	-0.136897
C208	C	0.640942	-0.318090	-0.221292
C209	C	0.974275	0.015243	0.112041
C210	C	1.307609	0.348576	0.445375
H211	H	0.599826	-0.325247	-0.189437
H212	H	0.933159	0.008087	0.143896
H213	H	1.266492	0.341420	0.477229
H214	H	0.670080	-0.278075	-0.203614
H215	H	1.003413	0.055259	0.129719
H216	H	1.336746	0.388592	0.463052
H217	H	0.669962	-0.361916	-0.222406
H218	H	1.003295	-0.028583	0.110927
H219	H	1.336629	0.304751	0.444261
H220	H	1.103556	-0.903730	-0.481687
H221	H	1.436889	-0.570397	-0.148354
H222	H	1.770223	-0.237063	0.184979
C223	C	0.500952	-0.458508	-0.257788
C224	C	0.834285	-0.125174	0.075545
C225	C	1.167619	0.208159	0.408878
H226	H	0.542311	-0.467867	-0.226872
H227	H	0.875644	-0.134533	0.106461
H228	H	1.208977	0.198800	0.439795
H229	H	0.471713	-0.502061	-0.261470
H230	H	0.805046	-0.168728	0.071863
H231	H	1.138380	0.164605	0.405196
H232	H	0.472163	-0.419636	-0.237249
H233	H	0.805496	-0.086303	0.096084
H234	H	1.138829	0.247030	0.429417
H235	H	0.506406	-0.281892	-0.454739
H236	H	0.839740	0.051441	-0.121406
H237	H	1.173073	0.384774	0.211928
C238	C	1.206150	-0.318255	-0.928032
C239	C	1.539484	0.015078	-0.594699
C240	C	1.872817	0.348412	-0.261366
H241	H	1.239994	-0.283115	-0.908513
H242	H	1.573327	0.050218	-0.575179
H243	H	1.906660	0.383552	-0.241846
H244	H	1.207033	-0.316054	-0.980459
H245	H	1.540366	0.017280	-0.647125
H246	H	1.873700	0.350613	-0.313792
H247	H	1.219806	-0.366557	-0.912288
H248	H	1.553139	-0.033224	-0.578954
H249	H	1.886473	0.300109	-0.245621
C250	C	0.925519	-0.911614	-0.318046
C251	C	1.258852	-0.578281	0.015287
C252	C	1.592186	-0.244948	0.348621
H253	H	0.890394	-0.894731	-0.353209
H254	H	1.223727	-0.561398	-0.019875
H255	H	1.557060	-0.228065	0.313458
H256	H	0.912352	-0.894017	-0.270379
H257	H	1.245686	-0.560683	0.062955
H258	H	1.579019	-0.227350	0.396288
H259	H	0.926216	-0.964239	-0.317764
H260	H	1.259549	-0.630906	0.015569
H261	H	1.592883	-0.297572	0.348902
C262	C	0.500618	-0.394676	-0.492676
C263	C	0.833951	-0.061343	-0.159343
C264	C	1.167284	0.271990	0.173991
H265	H	0.470074	-0.430313	-0.468986
H266	H	0.803408	-0.096979	-0.135653
H267	H	1.136741	0.236354	0.197681
H268	H	0.541803	-0.418831	-0.514517
H269	H	0.875136	-0.085498	-0.181184
H270	H	1.208469	0.247836	0.152149
H271	H	0.473077	-0.369882	-0.529879
H272	H	0.806411	-0.036548	-0.196546
H273	H	1.139744	0.296785	0.136788
C274	C	0.932795	-0.389809	-0.927805
C275	C	1.266128	-0.056476	-0.594472
C276	C	1.599461	0.276857	-0.261138
H277	H	0.908396	-0.411830	-0.886826
H278	H	1.241729	-0.078496	-0.553493
H279	H	1.575062	0.254837	-0.220159
H280	H	0.955162	-0.427361	-0.956963
H281	H	1.288496	-0.094028	-0.623630
H282	H	1.621829	0.239305	-0.290296
H283	H	0.897922	-0.363423	-0.956876
H284	H	1.231256	-0.030089	-0.623542
H285	H	1.564589	0.303244	-0.290209
H286	H	1.114403	-0.242052	-0.794098
H287	H	1.447736	0.091282	-0.460765
H288	H	1.781069	0.424615	-0.127432
C289	C	1.110196	-0.222267	-0.929276
C290	C	1.443530	0.111066	-0.595942
C291	C	1.776863	0.444399	-0.262609
H292	H	1.145170	-0.188061	-0.910101
H293	H	1.478503	0.145272	-0.576767
H294	H	1.811837	0.478605	-0.243434
H295	H	1.061966	-0.208320	-0.913972
H296	H	1.395299	0.125013	-0.580638
H297	H	1.728632	0.458347	-0.247305
H298	H	1.112644	-0.222160	-0.981702
H299	H	1.445977	0.111173	-0.648368
H300	H	1.779310	0.444506	-0.315035
H301	H	0.635039	-0.375141	-0.479629
H302	H	0.968372	-0.041808	-0.146296
H303	H	1.301706	0.291526	0.187038
C304	C	1.176300	-0.911174	-0.250972
C305	C	1.509633	-0.577841	0.082362
C306	C	1.842966	-0.244507	0.415695
H307	H	1.212505	-0.940098	-0.275690
H308	H	1.545839	-0.606765	0.057643
H309	H	1.879172	-0.273432	0.390977
H310	H	1.151740	-0.940851	-0.215231
H311	H	1.485073	-0.607518	0.118102
H312	H	1.818406	-0.274185	0.451436
H313	H	1.199560	-0.870509	-0.227133
H314	H	1.532894	-0.537176	0.106201
H315	H	1.866227	-0.203843	0.439534
H316	H	0.507270	-0.480145	-0.374880
H317	H	0.840604	-0.146811	-0.041547
H318	H	1.173937	0.186522	0.291786
C319	C	0.641152	-0.495646	-0.389877
C320	C	0.974485	-0.162312	-0.056544
C321	C	1.307819	0.171021	0.276790
H322	H	0.671937	-0.473292	-0.426103
H323	H	1.005271	-0.139959	-0.092769
H324	H	1.338604	0.193374	0.240564
H325	H	0.600039	-0.518333	-0.413356
H326	H	0.933372	-0.184999	-0.080023
H327	H	1.266706	0.148334	0.253310
H328	H	0.668472	-0.532075	-0.363649
H329	H	1.001805	-0.198741	-0.030316
H330	H	1.335139	0.134592	0.303017
C331	C	1.165697	-0.462412	-0.929110
C332	C	1.499031	-0.129079	-0.595777
C333	C	1.832364	0.204255	-0.262444
H334	H	1.176638	-0.509942	-0.909392
H335	H	1.509971	-0.176608	-0.576058
H336	H	1.843305	0.156725	-0.242725
H337	H	1.202833	-0.428254	-0.914456
H338	H	1.536166	-0.094920	-0.581123
H339	H	1.869499	0.238413	-0.247789
H340	H	1.164217	-0.465174	-0.981497
H341	H	1.497551	-0.131840	-0.648164
H342	H	1.830884	0.201493	-0.314831
H343	H	0.635050	-0.453209	-0.278915
H344	H	0.968384	-0.119876	0.054419
H345	H	1.301717	0.213457	0.387752
H346	H	1.149288	-0.451912	-0.793967
H347	H	1.482621	-0.118579	-0.460633
H348	H	1.815955	0.214755	-0.127300
H349	H	1.053070	-0.480769	-0.792853
H350	H	1.386404	-0.147436	-0.459520
H351	H	1.719737	0.185898	-0.126186
C352	C	0.969072	-0.259667	-0.785233
C353	C	1.302405	0.073666	-0.451900
C354	C	1.635738	0.407000	-0.118566
H355	H	0.921784	-0.247288	-0.804340
H356	H	1.255117	0.086046	-0.471006
H357	H	1.588451	0.419379	-0.137673
H358	H	1.004113	-0.223664	-0.800697
H359	H	1.337447	0.109670	-0.467363
H360	H	1.670780	0.443003	-0.134030
H361	H	0.967010	-0.260697	-0.732800
H362	H	1.300343	0.072636	-0.399467
H363	H	1.633676	0.405969	-0.066133
H364	H	1.036769	-0.811246	-0.232168
H365	H	1.370103	-0.477913	0.101165
H366	H	1.703436	-0.144580	0.434498
H367	H	0.948278	-0.376795	-0.793803
H368	H	1.281612	-0.043462	-0.460469
H369	H	1.614945	0.289872	-0.127136
C370	C	0.641111	-0.258434	-0.456649
C371	C	0.974444	0.074899	-0.123315
C372	C	1.307777	0.408232	0.210018
H373	H	0.671425	-0.239210	-0.418349
H374	H	1.004758	0.094123	-0.085015
H375	H	1.338091	0.427456	0.248318
H376	H	0.599963	-0.226615	-0.463930
H377	H	0.933297	0.106718	-0.130597
H378	H	1.266630	0.440051	0.202737
H379	H	0.668915	-0.261503	-0.501065
H380	H	1.002248	0.071830	-0.167732
H381	H	1.335581	0.405164	0.165601
H382	H	0.507114	-0.241988	-0.313227
H383	H	0.840447	0.091345	0.020106
H384	H	1.173780	0.424678	0.353440
H385	H	1.194851	-0.810893	-0.390500
H386	H	1.528185	-0.477560	-0.057166
H387	H	1.861518	-0.144227	0.276167
C388	C	1.033636	-0.493836	-0.927265
C389	C	1.366970	-0.160503	-0.593932
C390	C	1.700303	0.172831	-0.260599
H391	H	1.045933	-0.541216	-0.907996
H392	H	1.379266	-0.207883	-0.574663
H393	H	1.712599	0.125450	-0.241330
H394	H	1.034467	-0.495557	-0.979708
H395	H	1.367801	-0.162223	-0.646375
H396	H	1.701134	0.171110	-0.313042
H397	H	0.985632	-0.480246	-0.910949
H398	H	1.318965	-0.146913	-0.577616
H399	H	1.652298	0.186421	-0.244282
C400	C	0.641729	-0.221961	-0.317803
C401	C	0.975063	0.111372	0.015530
C402	C	1.308396	0.444706	0.348864
H403	H	0.600933	-0.189740	-0.325341
H404	H	0.934267	0.143593	0.007992
H405	H	1.267600	0.476926	0.341325
H406	H	0.671011	-0.223565	-0.361334
H407	H	1.004344	0.109768	-0.028001
H408	H	1.337678	0.443101	0.305332
H409	H	0.670768	-0.204218	-0.277843
H410	H	1.004102	0.129115	0.055490
H411	H	1.337435	0.462449	0.388824
