data_functionalizedCrystal
_audit_creation_method	'MofGen! by Chris Wilmer'
_symmetry_space_group_name_H-M	'P1'
_symmetry_Int_Tables_number	1
_symmetry_cell_setting	triclinic
loop_
_symmetry_equiv_pos_as_xyz
  x,y,z
_cell_length_a	14.908571
_cell_length_b	16.959453
_cell_length_c	14.908308
_cell_angle_alpha	86.734637
_cell_angle_beta	89.824947
_cell_angle_gamma	86.716085
loop_
_atom_site_label
_atom_site_type_symbol
_atom_site_fract_x
_atom_site_fract_y
_atom_site_fract_z
Zn1	Zn	1.345300	-0.412495	0.587567
Zn2	Zn	1.353882	-0.537519	0.437203
Zn3	Zn	1.203615	-0.397313	0.428566
Zn4	Zn	1.194909	-0.536580	0.578855
O5	O	1.274426	-0.470976	0.508048
O6	O	1.472264	-0.435826	0.574882
O7	O	1.341183	-0.512959	0.310233
O8	O	1.222462	-0.288720	0.449689
O9	O	1.478569	-0.527681	0.464410
O10	O	1.326557	-0.299874	0.566507
O11	O	1.230783	-0.409951	0.303887
O12	O	1.076634	-0.409040	0.441241
O13	O	1.207624	-0.526080	0.705835
O14	O	1.070238	-0.511359	0.551658
O15	O	1.318115	-0.434916	0.712236
O16	O	1.332742	-0.648001	0.455962
O17	O	1.215945	-0.647311	0.560033
C18	C	1.040811	-0.458451	0.494567
C19	C	0.940868	-0.453112	0.488821
C20	C	1.274353	-0.676337	0.508010
C21	C	1.274403	-0.764197	0.508029
C22	C	0.746461	-0.549774	0.592847
C23	C	0.652556	-0.544761	0.587451
C24	C	0.659149	-0.438068	0.472640
C25	C	0.753055	-0.443082	0.478035
C26	C	0.796707	-0.498938	0.538140
C27	C	0.890615	-0.503954	0.543530
C28	C	0.897206	-0.397258	0.428724
C29	C	0.803301	-0.392245	0.423328
C30	C	1.328696	-1.141433	0.568987
C31	C	1.220400	-1.129936	0.447256
C32	C	1.220368	-1.047387	0.447233
C33	C	1.274500	-1.011858	0.508090
C34	C	1.328664	-1.058877	0.568969
C35	C	1.166198	-1.000362	0.386362
C36	C	1.166163	-0.917808	0.386337
C37	C	1.220300	-0.882277	0.447190
C38	C	1.274467	-0.929302	0.508071
C39	C	1.328599	-0.893773	0.568927
C40	C	1.382771	-0.940796	0.629804
C41	C	1.382801	-1.023347	0.629821
C42	C	1.220271	-0.799727	0.447173
C43	C	1.328567	-0.811216	0.568908
C44	C	1.508954	-0.483552	0.521582
C45	C	1.608896	-0.488911	0.527349
C46	C	1.260941	-0.482087	0.742573
C47	C	1.255195	-0.486821	0.842513
C48	C	1.274523	-0.264816	0.508106
C49	C	1.274564	-0.176963	0.508131
C50	C	1.287911	-0.459855	0.274438
C51	C	1.293831	-0.454907	0.174508
C52	C	1.359449	-0.400770	1.036979
C53	C	1.354052	-0.405216	1.130882
C54	C	1.239001	-0.500154	1.124224
C55	C	1.244398	-0.495708	1.030321
C56	C	1.304625	-0.446015	0.986702
C57	C	1.310025	-0.441574	0.892797
C58	C	1.194970	-0.536508	0.886141
C59	C	1.189574	-0.540954	0.980044
H60	H	0.782004	-0.595258	0.641781
C61	C	0.938124	-0.564473	0.608846
C62	C	0.988758	-0.525405	0.669646
C63	C	1.032542	-0.581129	0.729823
H64	H	0.894845	-0.594057	0.640748
H65	H	0.976774	-0.599185	0.576518
H66	H	0.950113	-0.490708	0.701970
H67	H	1.032053	-0.495825	0.637769
H68	H	1.071191	-0.615841	0.697495
H69	H	0.989257	-0.610710	0.761719
H70	H	1.066909	-0.554630	0.771078
H71	H	0.767745	-0.346767	0.374395
H72	H	1.150331	-0.573353	0.845195
C73	C	0.611578	-0.377478	0.407450
C74	C	0.518586	-0.383970	0.414442
C75	C	0.474735	-0.328161	0.354410
H76	H	0.626132	-0.325810	0.421567
H77	H	0.630351	-0.386897	0.347860
H78	H	0.499821	-0.374545	0.474019
H79	H	0.504006	-0.435626	0.400316
H80	H	0.493507	-0.337580	0.294819
H81	H	0.489295	-0.276497	0.368532
H82	H	0.411636	-0.332563	0.359139
C83	C	1.173755	-0.554197	1.171654
C84	C	1.221539	-0.610147	1.228485
C85	C	1.161461	-0.659946	1.272185
H86	H	1.132470	-0.523677	1.206098
H87	H	1.141881	-0.580559	1.128298
H88	H	1.253397	-0.583787	1.271835
H89	H	1.262820	-0.640685	1.194063
H90	H	1.129588	-0.686307	1.228829
H91	H	1.120179	-0.629419	1.306624
H92	H	1.193875	-0.697918	1.310743
H93	H	0.611648	-0.586156	0.632001
C94	C	1.424954	-0.346961	0.989575
C95	C	1.485674	-0.392258	0.938998
C96	C	1.546040	-0.342718	0.895330
H97	H	1.392791	-0.308929	0.950900
H98	H	1.456890	-0.320669	1.032944
H99	H	1.453741	-0.418537	0.895634
H100	H	1.517858	-0.430288	0.977652
H101	H	1.577977	-0.316426	0.938699
H102	H	1.513869	-0.304688	0.856659
H103	H	1.587251	-0.373446	0.861015
H104	H	1.176325	-1.158869	0.397713
H105	H	1.372805	-1.179723	0.618550
C106	C	0.951917	-0.342104	0.369429
C107	C	1.043499	-0.358436	0.387028
C108	C	1.093925	-0.307642	0.332429
H109	H	0.940091	-0.349863	0.308079
H110	H	0.935834	-0.288805	0.381818
H111	H	1.059577	-0.411723	0.374632
H112	H	1.055352	-0.350673	0.448367
H113	H	1.077842	-0.254343	0.344818
H114	H	1.082092	-0.315405	0.271082
H115	H	1.156068	-0.318711	0.344368
H116	H	1.359066	-0.401113	0.857284
H117	H	1.140537	-0.581411	1.015571
H118	H	1.426904	-1.061640	0.679385
H119	H	1.122124	-1.029296	0.336818
C120	C	1.413533	-0.355956	1.185350
C121	C	1.395313	-0.275624	1.161380
C122	C	1.450099	-0.230219	1.211528
H123	H	1.401753	-0.365614	1.247541
H124	H	1.474843	-0.369984	1.173423
H125	H	1.334017	-0.261601	1.173315
H126	H	1.407098	-0.265941	1.099198
H127	H	1.511409	-0.244247	1.199600
H128	H	1.438315	-0.239884	1.273716
H129	H	1.437751	-0.175710	1.195265
C130	C	1.387367	-0.772794	0.635086
C131	C	1.434793	-0.831645	0.688413
C132	C	1.488958	-0.796280	0.749393
H133	H	1.428608	-0.741052	0.603085
H134	H	1.350690	-0.740633	0.672292
H135	H	1.471467	-0.863792	0.651211
H136	H	1.393575	-0.863390	0.720433
H137	H	1.452281	-0.764119	0.786600
H138	H	1.530193	-0.764539	0.717385
H139	H	1.521137	-0.836205	0.785589
H140	H	1.122054	-0.879527	0.336767
H141	H	1.426842	-0.911858	0.679358
H142	H	1.176160	-0.761444	0.397612
