data_functionalizedCrystal
_audit_creation_method	'MofGen! by Chris Wilmer'
_symmetry_space_group_name_H-M	'P1'
_symmetry_Int_Tables_number	1
_symmetry_cell_setting	triclinic
loop_
_symmetry_equiv_pos_as_xyz
  x,y,z
_cell_length_a	10.654550
_cell_length_b	12.837942
_cell_length_c	9.130313
_cell_angle_alpha	89.996012
_cell_angle_beta	89.999724
_cell_angle_gamma	89.656935
loop_
_atom_site_label
_atom_site_type_symbol
_atom_site_fract_x
_atom_site_fract_y
_atom_site_fract_z
O1	O	1.683741	0.145723	-0.121688
O2	O	1.319778	0.159606	-0.121715
O3	O	1.493689	0.001704	-0.121693
O4	O	1.509830	0.303626	-0.121710
O5	O	1.493675	0.001699	0.121906
O6	O	1.319764	0.159602	0.121884
O7	O	1.683728	0.145718	0.121911
Cu8	Cu	1.501745	0.152660	0.144140
Cu9	Cu	1.501761	0.152665	-0.143944
O10	O	1.509816	0.303621	0.121889
C11	C	1.272862	0.158585	0.000081
C12	C	1.133086	0.155535	0.000071
C13	C	1.063746	0.248505	0.000070
C14	C	0.932411	0.245633	0.000096
C15	C	0.939770	0.056812	0.000117
C16	C	1.071101	0.059685	0.000102
C17	C	1.488230	-0.036958	0.000105
C18	C	1.471967	-0.152152	0.000101
C19	C	1.667472	-0.391705	0.000085
C20	C	1.652197	-0.499941	0.000082
C21	C	1.426146	-0.476861	0.000080
C22	C	1.441420	-0.368626	0.000084
C23	C	1.562087	-0.326052	0.000088
C24	C	1.577360	-0.217814	0.000103
C25	C	1.351309	-0.194737	0.000091
C26	C	1.336035	-0.302972	0.000087
C27	C	1.730644	0.146740	0.000111
C28	C	1.870420	0.149790	0.000112
C29	C	1.515276	0.342283	0.000087
C30	C	1.531538	0.457477	0.000081
N31	N	1.501742	0.152655	0.346762
N32	N	1.501772	0.152661	-0.346567
C33	C	1.578782	0.082766	0.423424
C34	C	1.578794	0.082766	0.576761
C35	C	1.424723	0.222554	0.576761
C36	C	1.424706	0.222548	0.423427
H37	H	1.114209	0.326552	0.000056
H38	H	1.675613	-0.183153	0.000112
H39	H	1.738013	-0.553393	0.000074
O40	O	1.797609	-0.345774	0.000088
H41	H	1.868327	-0.409612	0.000079
O42	O	1.661908	0.007395	0.659439
H43	H	1.636239	-0.073613	0.630014
O44	O	1.296005	-0.522787	0.000086
H45	H	1.303096	-0.609080	0.000092
O46	O	1.237641	-0.123915	0.000100
H47	H	1.180524	-0.139161	0.099396
O48	O	1.205895	-0.348900	0.000104
H49	H	1.193523	-0.397661	-0.099176
H50	H	1.361964	0.279461	0.361005
O51	O	1.661852	0.007374	0.340728
H52	H	1.715413	-0.041232	0.419803
H53	H	0.875960	0.321340	0.000098
O54	O	1.341651	0.297950	0.659447
H55	H	1.354616	0.286223	0.778950
H56	H	0.889286	-0.021225	0.000151
H57	H	1.127560	-0.016027	0.000107
