data_functionalizedCrystal
_audit_creation_method	'MofGen! by Chris Wilmer'
_symmetry_space_group_name_H-M	'P1'
_symmetry_Int_Tables_number	1
_symmetry_cell_setting	triclinic
loop_
_symmetry_equiv_pos_as_xyz
  x,y,z
_cell_length_a	10.489741
_cell_length_b	8.559649
_cell_length_c	7.681481
_cell_angle_alpha	85.069100
_cell_angle_beta	95.784933
_cell_angle_gamma	77.158919
loop_
_atom_site_label
_atom_site_type_symbol
_atom_site_fract_x
_atom_site_fract_y
_atom_site_fract_z
O1	O	1.656827	0.240139	-0.146313
O2	O	1.283403	0.261279	-0.146340
O3	O	1.503014	0.018485	-0.146322
O4	O	1.437216	0.482933	-0.146331
O5	O	1.530052	-0.011467	0.146538
O6	O	1.310441	0.231327	0.146520
O7	O	1.683864	0.210187	0.146547
Zn8	Zn	1.501445	0.216001	0.193031
Zn9	Zn	1.465823	0.255465	-0.192824
O10	O	1.464253	0.452981	0.146529
C11	C	1.521519	-0.055963	0.000105
C12	C	1.536361	-0.233171	0.000096
C13	C	1.249558	0.244707	0.000087
C14	C	1.108431	0.239932	0.000076
C15	C	1.056559	0.085448	0.000096
C16	C	0.943417	0.173191	-0.144297
C17	C	0.970104	0.143698	0.144440
C18	C	0.997137	0.327750	-0.144436
C19	C	1.023847	0.298222	0.144431
C20	C	0.910718	0.386081	0.000003
C21	C	1.717709	0.226760	0.000116
C22	C	1.858836	0.231536	0.000115
C23	C	1.445748	0.527429	0.000098
C24	C	1.430906	0.704639	0.000095
N25	N	1.525766	0.189068	0.456367
N26	N	1.441513	0.282385	-0.456161
H27	H	1.638009	-0.315510	0.000117
H28	H	1.329266	-0.213034	0.000094
H29	H	0.957281	0.065820	0.266513
C30	C	1.014234	0.432860	-0.309542
H31	H	0.931079	0.473731	-0.378400
H32	H	1.072637	0.369580	-0.377042
H33	H	1.049518	0.520136	-0.275033
C34	C	1.641961	0.060390	0.557960
H35	H	1.639316	0.063320	0.680921
H36	H	1.722568	0.081662	0.527816
H37	H	1.635665	-0.043210	0.527837
C38	C	1.141720	-0.086086	-0.000122
H39	H	1.114176	-0.130201	-0.102856
H40	H	1.131999	-0.151937	0.101408
H41	H	1.231539	-0.081928	0.000898
C42	C	1.325321	0.411058	0.442262
H43	H	1.274901	0.466920	0.523444
H44	H	1.271245	0.360393	0.370348
H45	H	1.358143	0.485270	0.370339
C46	C	0.895586	0.101775	-0.309213
H47	H	0.825196	0.179222	-0.377199
H48	H	0.865933	0.008044	-0.274517
H49	H	0.966133	0.074021	-0.377685
C50	C	0.825846	0.557819	-0.000103
H51	H	0.834568	0.622928	-0.102771
H52	H	0.854447	0.602717	0.101494
H53	H	0.736146	0.553761	0.000862
H54	H	1.059287	0.351047	0.266510
