data_functionalizedCrystal
_audit_creation_method	'MofGen! by Chris Wilmer'
_symmetry_space_group_name_H-M	'P1'
_symmetry_Int_Tables_number	1
_symmetry_cell_setting	triclinic
loop_
_symmetry_equiv_pos_as_xyz
  x,y,z
_cell_length_a	18.101395
_cell_length_b	18.101398
_cell_length_c	18.101389
_cell_angle_alpha	89.975673
_cell_angle_beta	90.019685
_cell_angle_gamma	89.972782
loop_
_atom_site_label
_atom_site_type_symbol
_atom_site_fract_x
_atom_site_fract_y
_atom_site_fract_z
Zn1	Zn	-0.295001	-1.132117	0.418832
Zn2	Zn	0.204999	-0.632117	0.918832
Zn3	Zn	-0.418826	-1.132011	0.294988
Zn4	Zn	0.081174	-0.632011	0.794988
Zn5	Zn	-0.294993	-1.008276	0.294993
Zn6	Zn	0.205007	-0.508276	0.794993
Zn7	Zn	-0.418795	-1.008224	0.418776
Zn8	Zn	0.081205	-0.508224	0.918776
O9	O	-0.356904	-1.070157	0.356897
O10	O	0.143096	-0.570157	0.856897
O11	O	-0.311443	-1.235735	0.402425
O12	O	0.188557	-0.735735	0.902425
O13	O	-0.402410	-1.115574	0.191356
O14	O	0.097590	-0.615574	0.691356
O15	O	-0.191361	-1.024769	0.311446
O16	O	0.308639	-0.524769	0.811446
O17	O	-0.402417	-1.235658	0.311437
O18	O	0.097583	-0.735658	0.811437
O19	O	-0.191367	-1.115755	0.402430
O20	O	0.308633	-0.615755	0.902430
O21	O	-0.311430	-1.024666	0.191360
O22	O	0.188570	-0.524666	0.691360
O23	O	-0.311399	-0.904636	0.311392
O24	O	0.188601	-0.404636	0.811392
O25	O	-0.402363	-1.024682	0.522417
O26	O	0.097637	-0.524682	1.022417
O27	O	-0.402356	-0.904598	0.402335
O28	O	0.097644	-0.404598	0.902335
O29	O	-0.311412	-1.115705	0.522458
O30	O	0.188588	-0.615705	1.022458
O31	O	-0.522455	-1.115524	0.311383
O32	O	-0.022455	-0.615524	0.811383
O33	O	-0.522432	-1.024579	0.402330
O34	O	-0.022432	-0.524579	0.902330
C35	C	-0.356874	-0.877746	0.356859
C36	C	0.143126	-0.377746	0.856859
C37	C	-0.356879	-0.795432	0.356860
C38	C	0.143121	-0.295432	0.856860
C39	C	-0.549314	-1.070055	0.356866
C40	C	-0.049314	-0.570055	0.856866
C41	C	-0.631628	-1.070079	0.356878
C42	C	-0.131628	-0.570079	0.856878
C43	C	-0.782337	-1.070164	0.356907
C44	C	-0.282337	-0.570164	0.856907
C45	C	-0.813707	-1.012914	0.414084
C46	C	-0.313707	-0.512914	0.914084
C47	C	-0.899325	-1.013131	0.414326
C48	C	-0.399325	-0.513131	0.914326
C49	C	-0.930719	-1.070247	0.356936
C50	C	-0.430719	-0.570247	0.856936
C51	C	-0.899546	-1.148322	0.377939
C52	C	-0.399546	-0.648322	0.877939
C53	C	-0.813902	-1.147943	0.378337
C54	C	-0.313902	-0.647943	0.878337
C55	C	-0.813959	-1.050039	0.278589
C56	C	-0.313959	-0.550039	0.778589
C57	C	-0.899611	-1.048365	0.279023
C58	C	-0.399611	-0.548365	0.779023
C59	C	-1.014579	-1.070298	0.356951
C60	C	-0.514579	-0.570298	0.856951
C61	C	-0.698477	-1.070118	0.356894
C62	C	-0.198477	-0.570118	0.856894
C63	C	-0.356885	-1.070200	0.550059
C64	C	0.143115	-0.570200	1.050059
C65	C	-0.356877	-1.070218	0.632374
C66	C	0.143123	-0.570218	1.132374
C67	C	-0.163742	-1.070279	0.356945
C68	C	0.336258	-0.570279	0.856945
C69	C	-0.081428	-1.070332	0.356965
C70	C	0.418572	-0.570332	0.856965
C71	C	-0.356935	-1.263319	0.356937
C72	C	0.143065	-0.763319	0.856937
C73	C	-0.356948	-1.345633	0.356953
C74	C	0.143052	-0.845633	0.856953
C75	C	-0.356925	-0.496341	0.356922
C76	C	0.143075	0.003659	0.856922
C77	C	-0.299412	-0.527665	0.299982
C78	C	0.200588	-0.027665	0.799982
C79	C	-0.299566	-0.613283	0.299739
C80	C	0.200434	-0.113283	0.799739
C81	C	-0.356901	-0.644724	0.356891
C82	C	0.143099	-0.144724	0.856891
C83	C	-0.434909	-0.613604	0.335565
C84	C	0.065091	-0.113604	0.835565
C85	C	-0.434590	-0.527959	0.335169
C86	C	0.065410	-0.027959	0.835169
C87	C	-0.337109	-0.527956	0.435322
C88	C	0.162891	-0.027956	0.935322
C89	C	-0.335371	-0.613607	0.434894
C90	C	0.164629	-0.113607	0.934894
C91	C	-0.356893	-0.728583	0.356875
C92	C	0.143107	-0.228583	0.856875
C93	C	-0.356939	-0.412482	0.356936
C94	C	0.143061	0.087518	0.856936
C95	C	-0.356869	-1.070157	0.164487
C96	C	0.143131	-0.570157	0.664487
C97	C	-0.356668	-1.070282	0.082173
C98	C	0.143332	-0.570282	0.582173
C99	C	-0.356738	-1.070261	0.931465
C100	C	0.143262	-0.570261	1.431465
C101	C	-0.413780	-1.012795	0.900114
C102	C	0.086220	-0.512795	1.400114
C103	C	-0.414045	-1.012950	0.814495
C104	C	0.085955	-0.512950	1.314495
C105	C	-0.356807	-1.070239	0.783082
C106	C	0.143193	-0.570239	1.283082
C107	C	-0.377998	-1.148264	0.814187
C108	C	0.122002	-0.648264	1.314187
C109	C	-0.378372	-1.147944	0.899832
C110	C	0.121628	-0.647944	1.399832
C111	C	-0.278379	-1.050381	0.899891
C112	C	0.221621	-0.550381	1.399891
C113	C	-0.278832	-1.048645	0.814240
C114	C	0.221168	-0.548645	1.314240
C115	C	-0.356845	-1.070231	0.699223
C116	C	0.143155	-0.570231	1.199223
C117	C	-0.356702	-1.070274	1.015324
C118	C	0.143298	-0.570274	1.515324
H119	H	-0.920406	-0.955243	0.401197
H120	H	-0.420406	-0.455243	0.901197
C121	C	-0.494353	-0.641117	0.389828
C122	C	0.005647	-0.141117	0.889828
H123	H	-0.472072	-0.671904	0.426056
H124	H	0.027928	-0.171904	0.926056
H125	H	-0.516982	-0.600003	0.413305
H126	H	-0.016982	-0.100003	0.913305
H127	H	-0.530673	-0.668435	0.363597
H128	H	-0.030673	-0.168435	0.863597
C129	C	-0.785852	-1.207555	0.324528
C130	C	-0.285852	-0.707555	0.824528
H131	H	-0.733368	-1.207727	0.324407
H132	H	-0.233368	-0.707727	0.824407
H133	H	-0.803439	-1.254576	0.339801
H134	H	-0.303439	-0.754576	0.839801
H135	H	-0.803437	-1.197131	0.276179
H136	H	-0.303437	-0.697131	0.776179
C137	C	-0.458011	-0.642520	0.258972
C138	C	0.041989	-0.142520	0.758972
H139	H	-0.505294	-0.623381	0.246557
H140	H	-0.005294	-0.123381	0.746557
H141	H	-0.422943	-0.627069	0.223131
H142	H	0.077057	-0.127069	0.723131
H143	H	-0.460059	-0.694952	0.259980
H144	H	0.039941	-0.194952	0.759980
H145	H	-0.793662	-1.091731	0.235990
H146	H	-0.293662	-0.591731	0.735990
C147	C	-0.317267	-0.640924	0.221265
C148	C	0.182733	-0.140924	0.721265
H149	H	-0.317415	-0.693406	0.220846
H150	H	0.182585	-0.193406	0.720846
H151	H	-0.364451	-0.623149	0.206665
H152	H	0.135549	-0.123149	0.706665
H153	H	-0.280843	-0.623277	0.187868
H154	H	0.219157	-0.123277	0.687868
C155	C	-0.455754	-1.170704	0.926831
C156	C	0.044246	-0.670704	1.426831
H157	H	-0.486666	-1.180054	0.885456
H158	H	0.013334	-0.680054	1.385456
H159	H	-0.451998	-1.214133	0.956072
H160	H	0.048002	-0.714133	1.456072
H161	H	-0.476345	-1.131953	0.955608
H162	H	0.023655	-0.631953	1.455608
C163	C	-0.492497	-1.030715	0.786814
C164	C	0.007503	-0.530715	1.286814
H165	H	-0.492929	-1.030864	0.734332
H166	H	0.007071	-0.530864	1.234332
H167	H	-0.507016	-1.077911	0.804580
H168	H	-0.007016	-0.577911	1.304580
H169	H	-0.525949	-0.994318	0.804446
H170	H	-0.025949	-0.494318	1.304446
H171	H	-0.281216	-0.506385	0.454711
H172	H	0.218784	-0.006385	0.954711
H173	H	-0.400784	-0.955091	0.793463
H174	H	0.099216	-0.455091	1.293463
H175	H	-0.235880	-1.092237	0.920168
H176	H	0.264120	-0.592237	1.420168
C177	C	-0.927260	-0.970803	0.257555
C178	C	-0.427260	-0.470803	0.757555
H179	H	-0.957626	-0.951824	0.295914
H180	H	-0.457626	-0.451824	0.795914
H181	H	-0.886204	-0.938938	0.250358
H182	H	-0.386204	-0.438938	0.750358
H183	H	-0.955057	-0.973818	0.213134
H184	H	-0.455057	-0.473818	0.713134
C185	C	-0.252297	-0.974855	0.929043
C186	C	0.247703	-0.474855	1.429043
H187	H	-0.204913	-0.963912	0.909328
H188	H	0.295087	-0.463912	1.409328
H189	H	-0.286369	-0.937713	0.914359
H190	H	0.213631	-0.437713	1.414359
H191	H	-0.249510	-0.976349	0.981431
H192	H	0.250490	-0.476349	1.481431
C193	C	-0.221024	-0.499879	0.317833
C194	C	0.278976	0.000121	0.817833
H195	H	-0.187145	-0.519409	0.282839
H196	H	0.312855	-0.019409	0.782839
H197	H	-0.220157	-0.447453	0.315657
H198	H	0.279843	0.052547	0.815657
H199	H	-0.207405	-0.515645	0.366016
H200	H	0.292595	-0.015645	0.866016
H201	H	-0.793180	-0.954821	0.401103
H202	H	-0.293180	-0.454821	0.901103
C203	C	-0.396049	-0.934394	0.927915
C204	C	0.103951	-0.434394	1.427915
H205	H	-0.353703	-0.936003	0.958896
H206	H	0.146297	-0.436003	1.458896
H207	H	-0.386591	-0.903008	0.886928
H208	H	0.113409	-0.403008	1.386928
H209	H	-0.436913	-0.915807	0.955091
H210	H	0.063087	-0.415807	1.455091
C211	C	-0.324698	-1.207755	0.927856
C212	C	0.175302	-0.707755	1.427856
H213	H	-0.302766	-1.232144	0.886896
H214	H	0.197234	-0.732144	1.386896
H215	H	-0.287233	-1.185400	0.957011
H216	H	0.212767	-0.685400	1.457011
H217	H	-0.350995	-1.242632	0.956941
H218	H	0.149005	-0.742632	1.456941
C219	C	-0.491768	-1.030342	0.929185
C220	C	0.008232	-0.530342	1.429185
H221	H	-0.525889	-0.995361	0.909982
H222	H	-0.025889	-0.495361	1.409982
H223	H	-0.505683	-1.078568	0.913905
H224	H	-0.005683	-0.578568	1.413905
H225	H	-0.491844	-1.027910	0.981610
H226	H	0.008156	-0.527910	1.481610
H227	H	-0.920953	-1.165675	0.434563
H228	H	-0.420953	-0.665675	0.934563
H229	H	-0.792148	-1.026090	0.471785
H230	H	-0.292148	-0.526090	0.971785
H231	H	-0.919876	-1.192165	0.337583
H232	H	-0.419876	-0.692165	0.837583
H233	H	-0.337757	-1.192231	0.793842
H234	H	0.162243	-0.692231	1.293842
C235	C	-0.454560	-1.171426	0.785229
C236	C	0.045440	-0.671426	1.285229
H237	H	-0.473713	-1.133657	0.754192
H238	H	0.026287	-0.633657	1.254192
H239	H	-0.450160	-1.215990	0.757886
H240	H	0.049840	-0.715990	1.257886
H241	H	-0.487048	-1.178903	0.825753
H242	H	0.012952	-0.678903	1.325753
H243	H	-0.241719	-0.634325	0.313107
H244	H	0.258281	-0.134325	0.813107
H245	H	-0.262852	-0.991225	0.793908
H246	H	0.237148	-0.491225	1.293908
C247	C	-0.218375	-1.101102	0.785415
C248	C	0.281625	-0.601102	1.285415
H249	H	-0.171897	-1.086768	0.805130
H250	H	0.328103	-0.586768	1.305130
H251	H	-0.229273	-1.150222	0.800327
H252	H	0.270727	-0.650222	1.300327
H253	H	-0.216654	-1.098681	0.733016
H254	H	0.283346	-0.598681	1.233016
C255	C	-0.926956	-1.031185	0.492727
C256	C	-0.426956	-0.531185	0.992727
H257	H	-0.885837	-1.038422	0.524552
H258	H	-0.385837	-0.538422	1.024552
H259	H	-0.956130	-0.991380	0.510575
H260	H	-0.456130	-0.491380	1.010575
H261	H	-0.955938	-1.074905	0.491424
H262	H	-0.455938	-0.574905	0.991424
C263	C	-0.257825	-0.641091	0.456623
C264	C	0.242175	-0.141091	0.956623
H265	H	-0.238645	-0.671406	0.418325
H266	H	0.261355	-0.171406	0.918325
H267	H	-0.226097	-0.599946	0.463908
H268	H	0.273903	-0.099946	0.963908
H269	H	-0.260896	-0.668894	0.501039
H270	H	0.239104	-0.168894	1.001039
C271	C	-0.494441	-0.499957	0.388740
C272	C	0.005559	0.000043	0.888740
H273	H	-0.494649	-0.447473	0.388864
H274	H	0.005351	0.052527	0.888864
H275	H	-0.541389	-0.517573	0.373280
H276	H	-0.041389	-0.017573	0.873280
H277	H	-0.484201	-0.517542	0.437129
H278	H	0.015799	-0.017542	0.937129
C279	C	-0.316904	-0.498560	0.221959
C280	C	0.183096	0.001440	0.721959
H281	H	-0.359107	-0.467402	0.223933
H282	H	0.140893	0.032598	0.723933
H283	H	-0.275887	-0.471312	0.203848
H284	H	0.224113	0.028688	0.703848
H285	H	-0.326529	-0.539015	0.189961
H286	H	0.173471	-0.039015	0.689961
H287	H	-0.792419	-0.994053	0.259429
H288	H	-0.292419	-0.494053	0.759429
C289	C	-0.457286	-0.500921	0.257743
C290	C	0.042714	-0.000921	0.757743
H291	H	-0.466611	-0.542279	0.226826
H292	H	0.033389	-0.042279	0.726826
H293	H	-0.500718	-0.471679	0.261421
H294	H	-0.000718	0.028321	0.761421
H295	H	-0.418518	-0.472134	0.237208
H296	H	0.081482	0.027866	0.737208
C297	C	-0.786854	-1.170951	0.455668
C298	C	-0.286854	-0.670951	0.955668
H299	H	-0.828208	-1.180437	0.486545
H300	H	-0.328208	-0.680437	0.986545
H301	H	-0.757582	-1.214346	0.451808
H302	H	-0.257582	-0.714346	0.951808
H303	H	-0.758096	-1.132252	0.476366
H304	H	-0.258096	-0.632252	0.976366
H305	H	-0.920991	-1.087023	0.234163
H306	H	-0.420991	-0.587023	0.734163
H307	H	-0.378999	-0.507699	0.477747
H308	H	0.121001	-0.007699	0.977747
C309	C	-0.387846	-0.642507	0.495278
C310	C	0.112154	-0.142507	0.995278
H311	H	-0.423734	-0.674065	0.473610
H312	H	0.076266	-0.174065	0.973610
H313	H	-0.360307	-0.669284	0.531066
H314	H	0.139693	-0.169284	1.031066
H315	H	-0.411887	-0.601991	0.518400
H316	H	0.088113	-0.101991	1.018400
