data_functionalizedCrystal
_audit_creation_method	'MofGen! by Chris Wilmer'
_symmetry_space_group_name_H-M	'P1'
_symmetry_Int_Tables_number	1
_symmetry_cell_setting	triclinic
loop_
_symmetry_equiv_pos_as_xyz
  x,y,z
_cell_length_a	21.395364
_cell_length_b	19.076808
_cell_length_c	21.395355
_cell_angle_alpha	87.682564
_cell_angle_beta	89.975448
_cell_angle_gamma	92.338361
loop_
_atom_site_label
_atom_site_type_symbol
_atom_site_fract_x
_atom_site_fract_y
_atom_site_fract_z
Zn1	Zn	0.947867	-0.280018	-0.344242
Zn2	Zn	1.447867	0.219982	0.155758
Zn3	Zn	0.943570	-0.397705	-0.235254
Zn4	Zn	1.443570	0.102295	0.264746
Zn5	Zn	0.843081	-0.280049	-0.239478
Zn6	Zn	1.343081	0.219951	0.260522
Zn7	Zn	0.838851	-0.397717	-0.339993
Zn8	Zn	1.338851	0.102283	0.160007
O9	O	0.893342	-0.338872	-0.289742
O10	O	1.393342	0.161128	0.210258
O11	O	1.034975	-0.295611	-0.329795
O12	O	1.534975	0.204389	0.170205
O13	O	0.930211	-0.382105	-0.148136
O14	O	1.430211	0.117895	0.351864
O15	O	0.860549	-0.181548	-0.256921
O16	O	1.360549	0.318452	0.243079
O17	O	1.031818	-0.382075	-0.249721
O18	O	1.531818	0.117925	0.250279
O19	O	0.937535	-0.181526	-0.333891
O20	O	1.437535	0.318474	0.166109
O21	O	0.856382	-0.295664	-0.151239
O22	O	1.356382	0.204336	0.348761
O23	O	0.754841	-0.295676	-0.252801
O24	O	1.254841	0.204324	0.247199
O25	O	0.853340	-0.382097	-0.428235
O26	O	1.353340	0.117903	0.071765
O27	O	0.751733	-0.382127	-0.326649
O28	O	1.251733	0.117873	0.173351
O29	O	0.933434	-0.295624	-0.431357
O30	O	1.433434	0.204376	0.068643
O31	O	0.926110	-0.496203	-0.245602
O32	O	1.426110	0.003797	0.254398
O33	O	0.849173	-0.496212	-0.322553
O34	O	1.349173	0.003788	0.177447
C35	C	0.730553	-0.338907	-0.289723
C36	C	1.230553	0.161093	0.210277
C37	C	0.660911	-0.338938	-0.289729
C38	C	1.160911	0.161062	0.210271
C39	C	0.629861	-0.293990	-0.331482
C40	C	1.129861	0.206010	0.168518
C41	C	0.564426	-0.293972	-0.331486
C42	C	1.064426	0.206028	0.168514
C43	C	0.530043	-0.338913	-0.289741
C44	C	1.030043	0.161087	0.210259
C45	C	0.561100	-0.383864	-0.247980
C46	C	1.061100	0.116136	0.252020
C47	C	0.626534	-0.383877	-0.247974
C48	C	1.126534	0.116123	0.252026
C49	C	0.424057	-0.402300	-0.282436
C50	C	0.924057	0.097700	0.217564
C51	C	0.358624	-0.402289	-0.282446
C52	C	0.858624	0.097711	0.217554
C53	C	0.328224	-0.338875	-0.289757
C54	C	0.828224	0.161125	0.210243
C55	C	0.363264	-0.275469	-0.297070
C56	C	0.863264	0.224531	0.202930
C57	C	0.428698	-0.275482	-0.297064
C58	C	0.928698	0.224518	0.202936
C59	C	0.459091	-0.338905	-0.289743
C60	C	0.959091	0.161095	0.210257
C61	C	0.226223	-0.293903	-0.331516
C62	C	0.726223	0.206097	0.168484
C63	C	0.160787	-0.293883	-0.331514
C64	C	0.660787	0.206117	0.168486
C65	C	0.157462	-0.383782	-0.248012
C66	C	0.657462	0.116218	0.251988
C67	C	0.222897	-0.383796	-0.248010
C68	C	0.722897	0.116204	0.251990
C69	C	0.257273	-0.338857	-0.289765
C70	C	0.757273	0.161143	0.210235
C71	C	0.886733	-0.521747	-0.283172
C72	C	1.386733	-0.021747	0.216828
C73	C	0.883963	-0.599981	-0.280382
C74	C	1.383963	-0.099981	0.219618
C75	C	0.922714	-0.636664	-0.319178
C76	C	1.422714	-0.136664	0.180822
C77	C	0.920109	-0.710173	-0.316558
C78	C	1.420109	-0.210173	0.183442
C79	C	0.878756	-0.746999	-0.275138
C80	C	1.378756	-0.246999	0.224862
C81	C	0.840000	-0.710312	-0.236341
C82	C	1.340000	-0.210312	0.263659
C83	C	0.842603	-0.636804	-0.238964
C84	C	1.342603	-0.136804	0.261036
C85	C	0.866675	-0.966853	-0.262993
C86	C	1.366675	-0.466853	0.237007
C87	C	0.864077	-1.040367	-0.260371
C88	C	1.364077	-0.540367	0.239629
C89	C	0.944185	-1.040223	-0.340590
C90	C	1.444185	-0.540223	0.159410
C91	C	0.946787	-0.966714	-0.343207
C92	C	1.446787	-0.466714	0.156793
C93	C	0.908029	-0.930033	-0.304412
C94	C	1.408029	-0.430033	0.195588
N95	N	0.876093	-0.822138	-0.272458
N96	N	1.376093	-0.322138	0.227542
N97	N	0.910689	-0.854895	-0.307096
N98	N	1.410689	-0.354895	0.192904
C99	C	1.056766	-0.338839	-0.289761
C100	C	1.556766	0.161161	0.210239
C101	C	1.126408	-0.338824	-0.289769
C102	C	1.626408	0.161176	0.210231
C103	C	0.893394	-0.338858	-0.453165
C104	C	1.393394	0.161142	0.046835
C105	C	0.893417	-0.338852	-0.522807
C106	C	1.393417	0.161148	-0.022807
C107	C	0.899993	-0.155284	-0.296351
C108	C	1.399993	0.344716	0.203649
C109	C	0.902828	-0.077049	-0.299167
C110	C	1.402828	0.422951	0.200833
C111	C	0.935120	-0.293824	-0.557147
C112	C	1.435120	0.206176	-0.057147
C113	C	0.935120	-0.293793	-0.622583
C114	C	1.435120	0.206207	-0.122583
C115	C	0.893423	-0.338804	-0.653677
C116	C	1.393423	0.161196	-0.153677
C117	C	0.851712	-0.383836	-0.619329
C118	C	1.351712	0.116164	-0.119329
C119	C	0.851709	-0.383860	-0.553894
C120	C	1.351709	0.116140	-0.053894
C121	C	0.886186	-0.402182	-0.755075
C122	C	1.386186	0.097818	-0.255075
C123	C	0.886193	-0.402159	-0.820509
C124	C	1.386193	0.097841	-0.320509
C125	C	0.893430	-0.338730	-0.855501
C126	C	1.393430	0.161270	-0.355501
C127	C	0.900672	-0.275321	-0.825051
C128	C	1.400672	0.224679	-0.325051
C129	C	0.900669	-0.275345	-0.759616
C130	C	1.400669	0.224655	-0.259616
C131	C	0.893422	-0.338783	-0.724630
C132	C	1.393422	0.161217	-0.224630
C133	C	0.935135	-0.293665	-0.960794
C134	C	1.435135	0.206335	-0.460794
C135	C	0.935131	-0.293633	-1.026232
C136	C	1.435131	0.206367	-0.526232
C137	C	0.851727	-0.383682	-1.022977
C138	C	1.351727	0.116318	-0.522977
C139	C	0.851728	-0.383707	-0.957540
C140	C	1.351728	0.116293	-0.457540
C141	C	0.893435	-0.338699	-0.926453
C142	C	1.393435	0.161301	-0.426453
C143	C	0.893327	-0.338836	-0.126955
C144	C	1.393327	0.161164	0.373045
C145	C	0.893434	-0.338644	-0.057321
C146	C	1.393434	0.161356	0.442679
H147	H	0.254214	-0.257306	-0.365512
H148	H	0.754214	0.242694	0.134488
H149	H	0.817761	-0.420481	-0.644650
H150	H	1.317761	0.079519	-0.144650
C151	C	0.962740	-0.750524	-0.359227
C152	C	1.462740	-0.250524	0.140773
H153	H	0.955264	-0.799577	-0.351738
H154	H	1.455264	-0.299577	0.148262
H155	H	1.005268	-0.738428	-0.350523
H156	H	1.505268	-0.238428	0.149477
H157	H	0.953978	-0.738469	-0.401750
H158	H	1.453978	-0.238469	0.098250
H159	H	0.835118	-0.936993	-0.231404
H160	H	1.335118	-0.436993	0.268596
C161	C	0.992286	-0.926210	-0.388759
C162	C	1.492286	-0.426210	0.111241
H163	H	1.014992	-0.958586	-0.411489
H164	H	1.514992	-0.458586	0.088511
H165	H	1.020608	-0.897519	-0.365829
H166	H	1.520608	-0.397519	0.134171
H167	H	0.969327	-0.897545	-0.417066
H168	H	1.469327	-0.397545	0.082934
H169	H	0.657847	-0.257397	-0.365482
H170	H	1.157847	0.242603	0.134518
H171	H	0.539141	-0.257366	-0.365485
H172	H	1.039141	0.242634	0.134515
C173	C	0.660690	-0.433328	-0.202048
C174	C	1.160690	0.066672	0.297952
H175	H	0.630843	-0.460095	-0.177188
H176	H	1.130843	0.039905	0.322812
H177	H	0.687191	-0.406366	-0.175756
H178	H	1.187191	0.093634	0.324244
H179	H	0.685101	-0.464044	-0.224873
H180	H	1.185101	0.035956	0.275127
C181	C	0.986809	-1.080574	-0.383266
C182	C	1.486809	-0.580574	0.116734
H183	H	0.979334	-1.129627	-0.375777
H184	H	1.479334	-0.629627	0.124223
H185	H	1.029340	-1.068479	-0.374570
H186	H	1.529340	-0.568479	0.125430
H187	H	0.978038	-1.068516	-0.425787
H188	H	1.478038	-0.568516	0.074213
H189	H	0.880126	-0.453821	-0.726590
H190	H	1.380126	0.046179	-0.226590
C191	C	0.805865	-0.433197	-1.057172
C192	C	1.305865	0.066803	-0.557172
H193	H	0.811842	-0.426739	-1.101061
H194	H	1.311842	0.073261	-0.601061
H195	H	0.764138	-0.422915	-1.046801
H196	H	1.264138	0.077085	-0.546801
H197	H	0.813330	-0.480493	-1.044758
H198	H	1.313330	0.019507	-0.544758
C199	C	0.805842	-0.433403	-0.516119
C200	C	1.305842	0.066597	-0.016119
H201	H	0.781011	-0.460211	-0.544007
H202	H	1.281011	0.039789	-0.044007
H203	H	0.779517	-0.406500	-0.491539
H204	H	1.279517	0.093500	0.008461
H205	H	0.828708	-0.464077	-0.489511
H206	H	1.328708	0.035923	0.010489
H207	H	0.457225	-0.223855	-0.303016
H208	H	0.957225	0.276145	0.196984
H209	H	0.338514	-0.223831	-0.303023
H210	H	0.838514	0.276169	0.196977
C211	C	0.805860	-0.433244	-0.919762
C212	C	1.305860	0.066756	-0.419762
H213	H	0.811827	-0.426808	-0.876339
H214	H	1.311827	0.073192	-0.376339
H215	H	0.813316	-0.480530	-0.928797
H216	H	1.313316	0.019470	-0.428797
H217	H	0.764134	-0.422942	-0.930837
H218	H	1.264134	0.077058	-0.430837
C219	C	0.523282	-0.433302	-0.202065
C220	C	1.023282	0.066698	0.297935
H221	H	0.479864	-0.426863	-0.208053
H222	H	0.979864	0.073137	0.291947
H223	H	0.534360	-0.422935	-0.160353
H224	H	1.034360	0.077065	0.339647
H225	H	0.532283	-0.480613	-0.209470
H226	H	1.032283	0.019387	0.290530
H227	H	0.806327	-0.740301	-0.202618
H228	H	1.306327	-0.240301	0.297382
C229	C	0.878225	-0.471904	-0.853998
C230	C	1.378225	0.028096	-0.353998
H231	H	0.873903	-0.509683	-0.823788
H232	H	1.373903	-0.009683	-0.323788
H233	H	0.913909	-0.478082	-0.879317
H234	H	1.413909	0.021918	-0.379317
H235	H	0.841937	-0.470981	-0.879541
H236	H	1.341937	0.029019	-0.379541
H237	H	0.135508	-0.257276	-0.365514
H238	H	0.635508	0.242724	0.134486
H239	H	0.129468	-0.420374	-0.214023
H240	H	0.629468	0.079626	0.285977
H241	H	0.956392	-0.606685	-0.352903
H242	H	1.456392	-0.106685	0.147097
H243	H	0.248177	-0.420400	-0.214012
H244	H	0.748177	0.079600	0.285988
C245	C	0.818581	-1.080874	-0.214813
C246	C	1.318581	-0.580874	0.285187
H247	H	0.795866	-1.048501	-0.192088
H248	H	1.295866	-0.548501	0.307912
H249	H	0.841545	-1.109533	-0.186511
H250	H	1.341545	-0.609533	0.313489
H251	H	0.790256	-1.109572	-0.237740
H252	H	1.290256	-0.609572	0.262260
H253	H	0.330099	-0.453918	-0.276494
H254	H	0.830099	0.046082	0.223506
H255	H	0.448803	-0.453944	-0.276482
H256	H	0.948803	0.046056	0.223518
H257	H	0.811047	-0.606937	-0.207373
H258	H	1.311047	-0.106937	0.292627
C259	C	0.981013	-0.244109	-1.064008
C260	C	1.481013	0.255891	-0.564008
H261	H	0.975040	-0.250536	-1.107432
H262	H	1.475040	0.249464	-0.607432
H263	H	1.022733	-0.254417	-1.052930
H264	H	1.522733	0.245583	-0.552930
H265	H	0.973564	-0.196816	-1.054975
H266	H	1.473564	0.303184	-0.554975
H267	H	0.969078	-0.257122	-0.650548
H268	H	1.469078	0.242878	-0.150548
C269	C	0.980991	-0.244312	-0.522954
C270	C	1.480991	0.255688	-0.022954
H271	H	1.005825	-0.217486	-0.552781
H272	H	1.505825	0.282514	-0.052781
H273	H	1.007314	-0.271239	-0.496473
H274	H	1.507314	0.228761	0.003527
H275	H	0.958130	-0.213653	-0.498518
H276	H	1.458130	0.286347	0.001482
C277	C	0.908624	-0.205601	-0.726123
C278	C	1.408624	0.294399	-0.226123
H279	H	0.912930	-0.167818	-0.756330
H280	H	1.412930	0.332182	-0.256330
H281	H	0.944907	-0.206514	-0.700575
H282	H	1.444907	0.293486	-0.200575
H283	H	0.872932	-0.199438	-0.700807
H284	H	1.372932	0.300562	-0.200807
H285	H	0.906566	-0.223670	-0.853540
H286	H	1.406566	0.276330	-0.353540
C287	C	0.981001	-0.244148	-0.926596
C288	C	1.481001	0.255852	-0.426596
H289	H	1.005831	-0.217316	-0.956422
H290	H	1.505831	0.282684	-0.456422
H291	H	1.007327	-0.271071	-0.900116
H292	H	1.507327	0.228929	-0.400116
H293	H	0.958134	-0.213495	-0.902159
H294	H	1.458134	0.286505	-0.402159
