data_functionalizedCrystal
_audit_creation_method	'MofGen! by Chris Wilmer'
_symmetry_space_group_name_H-M	'P1'
_symmetry_Int_Tables_number	1
_symmetry_cell_setting	triclinic
loop_
_symmetry_equiv_pos_as_xyz
  x,y,z
_cell_length_a	10.654556
_cell_length_b	10.868271
_cell_length_c	10.654550
_cell_angle_alpha	89.996036
_cell_angle_beta	95.513844
_cell_angle_gamma	90.004721
loop_
_atom_site_label
_atom_site_type_symbol
_atom_site_fract_x
_atom_site_fract_y
_atom_site_fract_z
O1	O	1.667836	0.102331	-0.176436
O2	O	1.302359	0.102331	-0.193234
O3	O	1.493501	0.102326	-0.002096
O4	O	1.476695	0.102336	-0.367574
O5	O	1.493485	-0.102318	-0.002088
O6	O	1.302343	-0.102314	-0.193227
O7	O	1.667820	-0.102313	-0.176428
Zn8	Zn	1.485079	-0.134805	-0.184826
Zn9	Zn	1.485100	0.134823	-0.184836
O10	O	1.476679	-0.102309	-0.367567
C11	C	1.255553	0.000008	-0.191995
C12	C	1.116110	0.000008	-0.188300
N13	N	1.485074	-0.318819	-0.184819
C14	C	0.919589	0.111570	-0.183105
C15	C	1.050611	0.111565	-0.186569
C16	C	1.050582	-0.111550	-0.186554
C17	C	0.919563	-0.111544	-0.183080
C18	C	0.919606	0.240384	-0.183119
C19	C	1.050628	0.240378	-0.186584
C20	C	1.485094	-0.569825	-0.184834
C21	C	1.485079	-0.430148	-0.184829
C22	C	1.714626	0.000012	-0.177667
C23	C	1.854069	0.000020	-0.181362
C24	C	1.492259	0.000006	0.044706
C25	C	1.488567	0.000010	0.184149
N26	N	1.485115	0.318837	-0.184834
C27	C	1.477921	0.000015	-0.414368
C28	C	1.481612	0.000018	-0.553812
C29	C	1.601108	0.000006	0.263632
C30	C	1.597631	0.000015	0.394653
C31	C	1.369063	0.000025	0.366695
C32	C	1.372540	0.000026	0.235676
C33	C	1.733071	-0.000005	0.279775
C34	C	1.729594	0.000004	0.410796
H35	H	0.866225	-0.202378	-0.181636
H36	H	1.784692	0.085633	0.250413
C37	C	1.241444	0.000033	0.423380
H38	H	1.255489	0.000026	0.512794
H39	H	1.195063	0.071396	0.396157
H40	H	1.195054	-0.071341	0.396172
H41	H	1.775085	-0.088367	0.244151
H42	H	1.769482	0.088364	0.456435
C43	C	0.886059	0.307193	-0.063336
H44	H	0.797147	0.307205	-0.060994
H45	H	0.924618	0.266000	0.009001
H46	H	0.915698	0.389605	-0.064136
H47	H	1.779309	-0.085638	0.452558
H48	H	1.103923	-0.202381	-0.187952
H49	H	0.867903	0.280355	-0.272564
H50	H	1.102338	0.280347	-0.097138
H51	H	1.075465	0.289826	-0.275269
C52	C	1.248746	0.000038	0.148249
H53	H	1.179151	0.000035	0.197705
H54	H	1.245363	0.071401	0.096551
H55	H	1.245340	-0.071336	0.096565
