data_functionalizedCrystal
_audit_creation_method	'MofGen! by Chris Wilmer'
_symmetry_space_group_name_H-M	'P1'
_symmetry_Int_Tables_number	1
_symmetry_cell_setting	triclinic
loop_
_symmetry_equiv_pos_as_xyz
  x,y,z
_cell_length_a	13.032721
_cell_length_b	12.759401
_cell_length_c	12.759393
_cell_angle_alpha	90.022017
_cell_angle_beta	97.149797
_cell_angle_gamma	82.794670
loop_
_atom_site_label
_atom_site_type_symbol
_atom_site_fract_x
_atom_site_fract_y
_atom_site_fract_z
Zn1	Zn	-0.415971	-1.553104	-0.647144
Zn2	Zn	-0.590749	-1.530662	-0.493766
Zn3	Zn	-0.416023	-1.377398	-0.471481
Zn4	Zn	-0.590676	-1.355069	-0.669390
O5	O	-0.503355	-1.454058	-0.570445
O6	O	-0.439165	-1.697147	-0.626815
O7	O	-0.567623	-1.510283	-0.343796
O8	O	-0.269778	-1.419442	-0.476146
O9	O	-0.567573	-1.680659	-0.514129
O10	O	-0.269740	-1.548533	-0.605205
O11	O	-0.439253	-1.397681	-0.327423
O12	O	-0.439182	-1.227416	-0.497717
O13	O	-0.567449	-1.381386	-0.813453
O14	O	-0.567499	-1.211011	-0.643120
O15	O	-0.439094	-1.526882	-0.797109
O16	O	-0.736977	-1.488632	-0.535700
O17	O	-0.736923	-1.359625	-0.664729
C18	C	-0.503339	-1.181093	-0.570415
C19	C	-0.503357	-1.064314	-0.570430
C20	C	-0.570272	-1.000925	-0.646047
C21	C	-0.570275	-0.891200	-0.646065
C22	C	-0.436444	-0.908264	-0.494840
C23	C	-0.436437	-1.017987	-0.494827
C24	C	-0.774868	-1.419299	-0.605070
C25	C	-0.891023	-1.404525	-0.619917
C26	C	-0.942800	-1.461825	-0.562743
C27	C	-1.062852	-1.446556	-0.578088
C28	C	-0.230781	-1.488982	-0.535708
C29	C	-0.114627	-1.503864	-0.520906
C30	C	-0.503257	-1.454147	-0.844466
C31	C	-0.503216	-1.454185	-0.961238
C32	C	-0.503369	-0.728090	-0.570469
C33	C	-0.503367	-0.844866	-0.570461
C34	C	-0.569981	-1.512854	-1.134351
C35	C	-0.570030	-1.512822	-1.024633
C36	C	-0.436355	-1.395566	-1.007566
C37	C	-0.436312	-1.395593	-1.117283
C38	C	-0.503376	-1.454040	-0.297480
C39	C	-0.503123	-1.454243	-0.180672
H40	H	-0.381939	-1.069602	-0.433250
O41	O	-0.634934	-1.569666	-1.196051
C42	C	-0.702417	-1.501215	-1.268092
H43	H	-0.665548	-1.426324	-1.279816
H44	H	-0.779877	-1.479737	-1.235680
C45	C	-0.766585	-1.648607	-1.360336
C46	C	-0.721297	-1.556627	-1.374742
H47	H	-0.778236	-1.682788	-1.426121
H48	H	-0.721124	-1.694724	-1.311798
H49	H	-0.831130	-1.630695	-1.333322
H50	H	-0.656748	-1.574541	-1.401742
H51	H	-0.766748	-1.510514	-1.423286
H52	H	-0.898253	-1.522189	-0.502438
H53	H	-1.070082	-1.564233	-0.460597
O54	O	-0.944274	-1.332645	-0.691935
C55	C	-1.007287	-1.384470	-0.767862
H56	H	-1.023488	-1.462064	-0.732938
H57	H	-0.965218	-1.401283	-0.840392
C58	C	-1.091165	-1.218250	-0.842899
C59	C	-1.111071	-1.313549	-0.800001
H60	H	-1.155182	-1.174502	-0.862728
H61	H	-1.048709	-1.183334	-0.791748
H62	H	-1.056104	-1.232275	-0.903335
H63	H	-1.146118	-1.299524	-0.739559
H64	H	-1.153535	-1.348461	-0.851143
O65	O	-1.116146	-1.374555	-0.649965
C66	C	-1.224147	-1.375353	-0.649299
H67	H	-1.238978	-1.407932	-0.570133
H68	H	-1.255026	-1.427370	-0.715587
C69	C	-1.262156	-1.221933	-0.763200
C70	C	-1.280373	-1.261939	-0.665963
H71	H	-1.296840	-1.151976	-0.773484
H72	H	-1.189394	-1.221397	-0.763652
H73	H	-1.287889	-1.265291	-0.818429
H74	H	-1.254628	-1.218589	-0.610735
H75	H	-1.353132	-1.262465	-0.665502
O76	O	-0.371413	-1.338500	-1.162173
C77	C	-0.394276	-1.230854	-1.138273
H78	H	-0.434477	-1.223513	-1.063731
H79	H	-0.447979	-1.188599	-1.206863
C80	C	-0.243022	-1.189278	-1.211759
C81	C	-0.292391	-1.180263	-1.120200
H82	H	-0.180177	-1.158069	-1.200616
H83	H	-0.227621	-1.261801	-1.227865
H84	H	-0.287786	-1.154066	-1.268909
H85	H	-0.247632	-1.215486	-1.063056
H86	H	-0.307782	-1.107745	-1.104084
O87	O	-0.635330	-0.829502	-0.719378
C88	C	-0.702772	-0.757388	-0.668057
H89	H	-0.665817	-0.745637	-0.583790
H90	H	-0.780199	-0.789756	-0.666249
C91	C	-0.767160	-0.665194	-0.831768
C92	C	-0.721767	-0.650755	-0.728273
H93	H	-0.778881	-0.599419	-0.868914
H94	H	-0.721726	-0.713781	-0.866345
H95	H	-0.831677	-0.692171	-0.830247
H96	H	-0.657245	-0.623792	-0.729795
H97	H	-0.767190	-0.602161	-0.693697
H98	H	-0.624472	-1.560550	-0.986924
H99	H	-0.624761	-1.038640	-0.707610
H100	H	-0.381959	-1.347817	-0.955942
H101	H	-0.381961	-0.870531	-0.433286
