data_functionalizedCrystal
_audit_creation_method	'MofGen! by Chris Wilmer'
_symmetry_space_group_name_H-M	'P1'
_symmetry_Int_Tables_number	1
_symmetry_cell_setting	triclinic
loop_
_symmetry_equiv_pos_as_xyz
  x,y,z
_cell_length_a	18.215407
_cell_length_b	18.215405
_cell_length_c	18.215399
_cell_angle_alpha	89.969449
_cell_angle_beta	89.983101
_cell_angle_gamma	90.022344
loop_
_atom_site_label
_atom_site_type_symbol
_atom_site_fract_x
_atom_site_fract_y
_atom_site_fract_z
Zn1	Zn	1.125072	-0.293042	-0.416045
Zn2	Zn	1.375072	-0.043042	-0.166045
Zn3	Zn	1.625072	0.206958	0.083955
Zn4	Zn	1.875072	0.456958	0.333955
Zn5	Zn	1.124980	-0.416113	-0.292973
Zn6	Zn	1.374980	-0.166113	-0.042973
Zn7	Zn	1.624980	0.083887	0.207027
Zn8	Zn	1.874980	0.333887	0.457027
Zn9	Zn	1.002004	-0.293059	-0.292999
Zn10	Zn	1.252004	-0.043059	-0.042999
Zn11	Zn	1.502004	0.206941	0.207001
Zn12	Zn	1.752004	0.456941	0.457001
Zn13	Zn	1.001970	-0.416066	-0.416004
Zn14	Zn	1.251970	-0.166066	-0.166004
Zn15	Zn	1.501970	0.083934	0.083996
Zn16	Zn	1.751970	0.333934	0.333996
O17	O	1.063507	-0.354570	-0.354505
O18	O	1.313507	-0.104570	-0.104505
O19	O	1.563507	0.145430	0.145495
O20	O	1.813507	0.395430	0.395495
O21	O	1.228044	-0.309380	-0.399726
O22	O	1.478044	-0.059380	-0.149726
O23	O	1.728044	0.190620	0.100274
O24	O	1.978044	0.440620	0.350274
O25	O	1.108643	-0.399817	-0.189992
O26	O	1.358643	-0.149817	0.060008
O27	O	1.608643	0.100183	0.310008
O28	O	1.858643	0.350183	0.560008
O29	O	1.018382	-0.190073	-0.309349
O30	O	1.268382	0.059927	-0.059349
O31	O	1.518382	0.309927	0.190651
O32	O	1.768382	0.559927	0.440651
O33	O	1.227977	-0.399800	-0.309305
O34	O	1.477977	-0.149800	-0.059305
O35	O	1.727977	0.100200	0.190695
O36	O	1.977977	0.350200	0.440695
O37	O	1.108799	-0.190060	-0.399750
O38	O	1.358799	0.059940	-0.149750
O39	O	1.608799	0.309940	0.100250
O40	O	1.858799	0.559940	0.350250
O41	O	1.018293	-0.309410	-0.190011
O42	O	1.268293	-0.059410	0.059989
O43	O	1.518293	0.190590	0.309989
O44	O	1.768293	0.440590	0.559989
O45	O	0.899016	-0.309364	-0.309309
O46	O	1.149016	-0.059364	-0.059309
O47	O	1.399016	0.190636	0.190691
O48	O	1.649016	0.440636	0.440691
O49	O	1.018324	-0.399719	-0.518994
O50	O	1.268324	-0.149719	-0.268994
O51	O	1.518324	0.100281	-0.018994
O52	O	1.768324	0.350281	0.231006
O53	O	0.898991	-0.399736	-0.399681
O54	O	1.148991	-0.149736	-0.149681
O55	O	1.398991	0.100264	0.100319
O56	O	1.648991	0.350264	0.350319
O57	O	1.108766	-0.309334	-0.519024
O58	O	1.358766	-0.059334	-0.269024
O59	O	1.608766	0.190666	-0.019024
O60	O	1.858766	0.440666	0.230976
O61	O	1.108610	-0.519091	-0.309266
O62	O	1.358610	-0.269091	-0.059266
O63	O	1.608610	-0.019091	0.190734
O64	O	1.858610	0.230909	0.440734
O65	O	1.018235	-0.519056	-0.399656
O66	O	1.268235	-0.269056	-0.149656
O67	O	1.518235	-0.019056	0.100344
O68	O	1.768235	0.230944	0.350344
C69	C	0.872300	-0.354547	-0.354494
C70	C	1.122300	-0.104547	-0.104494
C71	C	1.372300	0.145453	0.145506
C72	C	1.622300	0.395453	0.395506
C73	C	0.790502	-0.354555	-0.354507
C74	C	1.040502	-0.104555	-0.104507
C75	C	1.290502	0.145445	0.145493
C76	C	1.540502	0.395445	0.395493
C77	C	0.525450	-0.401704	-0.401497
C78	C	0.775450	-0.151704	-0.151497
C79	C	1.025450	0.098296	0.098503
C80	C	1.275450	0.348296	0.348503
C81	C	0.602309	-0.401698	-0.401494
C82	C	0.852309	-0.151698	-0.151494
C83	C	1.102309	0.098302	0.098506
C84	C	1.352309	0.348302	0.348506
C85	C	0.602305	-0.307452	-0.307526
C86	C	0.852305	-0.057452	-0.057526
C87	C	1.102305	0.192548	0.192474
C88	C	1.352305	0.442548	0.442474
C89	C	0.525447	-0.307463	-0.307527
C90	C	0.775447	-0.057463	-0.057527
C91	C	1.025447	0.192537	0.192473
C92	C	1.275447	0.442537	0.442473
C93	C	0.487022	-0.354588	-0.354516
C94	C	0.737022	-0.104588	-0.104516
C95	C	0.987022	0.145412	0.145484
C96	C	1.237022	0.395412	0.395484
C97	C	0.640738	-0.354571	-0.354512
C98	C	0.890738	-0.104571	-0.104512
C99	C	1.140738	0.145429	0.145488
C100	C	1.390738	0.395429	0.395488
C101	C	0.724072	-0.354564	-0.354508
C102	C	0.974072	-0.104564	-0.104508
C103	C	1.224072	0.145436	0.145492
C104	C	1.474072	0.395436	0.395492
C105	C	0.403683	-0.354596	-0.354520
C106	C	0.653683	-0.104596	-0.104520
C107	C	0.903683	0.145404	0.145480
C108	C	1.153683	0.395404	0.395480
C109	C	1.063429	-0.545776	-0.354470
C110	C	1.313429	-0.295776	-0.104470
C111	C	1.563429	-0.045776	0.145530
C112	C	1.813429	0.204224	0.395530
C113	C	1.063463	-0.627575	-0.354479
C114	C	1.313463	-0.377575	-0.104479
C115	C	1.563463	-0.127575	0.145521
C116	C	1.813463	0.122425	0.395521
C117	C	1.110632	-0.815763	-0.307500
C118	C	1.360632	-0.565763	-0.057500
C119	C	1.610632	-0.315763	0.192500
C120	C	1.860632	-0.065763	0.442500
C121	C	1.110665	-0.892621	-0.307517
C122	C	1.360665	-0.642621	-0.057517
C123	C	1.610665	-0.392621	0.192483
C124	C	1.860665	-0.142621	0.442483
C125	C	1.016476	-0.892625	-0.401564
C126	C	1.266476	-0.642625	-0.151564
C127	C	1.516476	-0.392625	0.098436
C128	C	1.766476	-0.142625	0.348436
C129	C	1.016447	-0.815768	-0.401549
C130	C	1.266447	-0.565768	-0.151549
C131	C	1.516447	-0.315768	0.098451
C132	C	1.766447	-0.065768	0.348451
C133	C	1.063524	-0.777339	-0.354513
C134	C	1.313524	-0.527339	-0.104513
C135	C	1.563524	-0.277339	0.145487
C136	C	1.813524	-0.027339	0.395487
C137	C	1.063586	-0.931055	-0.354545
C138	C	1.313586	-0.681055	-0.104545
C139	C	1.563586	-0.431055	0.145455
C140	C	1.813586	-0.181055	0.395455
C141	C	1.063621	-1.014388	-0.354565
C142	C	1.313621	-0.764388	-0.104565
C143	C	1.563621	-0.514388	0.145435
C144	C	1.813621	-0.264388	0.395435
C145	C	1.063490	-0.694000	-0.354494
C146	C	1.313490	-0.444000	-0.104494
C147	C	1.563490	-0.194000	0.145506
C148	C	1.813490	0.056000	0.395506
C149	C	1.255460	-0.354593	-0.354517
C150	C	1.505460	-0.104593	-0.104517
C151	C	1.755460	0.145407	0.145483
C152	C	2.005460	0.395407	0.395483
C153	C	1.337259	-0.354603	-0.354522
C154	C	1.587259	-0.104603	-0.104522
C155	C	1.837259	0.145397	0.145478
C156	C	2.087259	0.395397	0.395478
C157	C	1.063552	-0.354519	-0.546458
C158	C	1.313552	-0.104519	-0.296458
C159	C	1.563552	0.145481	-0.046458
C160	C	1.813552	0.395481	0.203542
C161	C	1.063571	-0.354498	-0.628257
C162	C	1.313571	-0.104498	-0.378257
C163	C	1.563571	0.145502	-0.128257
C164	C	1.813571	0.395502	0.121743
C165	C	1.063605	-0.162617	-0.354557
C166	C	1.313605	0.087383	-0.104557
C167	C	1.563605	0.337383	0.145443
C168	C	1.813605	0.587383	0.395443
C169	C	1.063647	-0.080818	-0.354579
C170	C	1.313647	0.169182	-0.104579
C171	C	1.563647	0.419182	0.145421
C172	C	1.813647	0.669182	0.395421
C173	C	1.110681	-0.307390	-0.816468
C174	C	1.360681	-0.057390	-0.566468
C175	C	1.610681	0.192610	-0.316468
C176	C	1.860681	0.442610	-0.066468
C177	C	1.110690	-0.307369	-0.893327
C178	C	1.360690	-0.057369	-0.643327
C179	C	1.610690	0.192631	-0.393327
C180	C	1.860690	0.442631	-0.143327
C181	C	1.016513	-0.401491	-0.893284
C182	C	1.266513	-0.151491	-0.643284
C183	C	1.516513	0.098509	-0.393284
C184	C	1.766513	0.348509	-0.143284
C185	C	1.016501	-0.401509	-0.816427
C186	C	1.266501	-0.151509	-0.566427
C187	C	1.516501	0.098491	-0.316427
C188	C	1.766501	0.348491	-0.066427
C189	C	1.063589	-0.354459	-0.778021
C190	C	1.313589	-0.104459	-0.528021
C191	C	1.563589	0.145541	-0.278021
C192	C	1.813589	0.395541	-0.028021
C193	C	1.063610	-0.354420	-0.931737
C194	C	1.313610	-0.104420	-0.681737
C195	C	1.563610	0.145580	-0.431737
C196	C	1.813610	0.395580	-0.181737
C197	C	1.063619	-0.354397	-1.015071
C198	C	1.313619	-0.104397	-0.765071
C199	C	1.563619	0.145603	-0.515071
C200	C	1.813619	0.395603	-0.265071
C201	C	1.063579	-0.354481	-0.694682
C202	C	1.313579	-0.104481	-0.444682
C203	C	1.563579	0.145519	-0.194682
C204	C	1.813579	0.395519	0.055318
C205	C	1.063504	-0.354567	-0.163299
C206	C	1.313504	-0.104567	0.086701
C207	C	1.563504	0.145433	0.336701
C208	C	1.813504	0.395433	0.586701
C209	C	1.063628	-0.354382	-0.081500
C210	C	1.313628	-0.104382	0.168500
C211	C	1.563628	0.145618	0.418500
C212	C	1.813628	0.395618	0.668500
H213	H	0.633594	-0.440065	-0.439749
H214	H	0.883594	-0.190065	-0.189749
H215	H	1.133594	0.059935	0.060251
H216	H	1.383594	0.309935	0.310251
H217	H	1.149035	-0.269039	-0.924627
H218	H	1.399035	-0.019039	-0.674627
H219	H	1.649035	0.230961	-0.424627
H220	H	1.899035	0.480961	-0.174627
H221	H	0.978148	-0.439837	-0.785122
H222	H	1.228148	-0.189837	-0.535122
H223	H	1.478148	0.060163	-0.285122
H224	H	1.728148	0.310163	-0.035122
H225	H	0.978177	-0.439799	-0.924564
H226	H	1.228177	-0.189799	-0.674564
H227	H	1.478177	0.060201	-0.424564
H228	H	1.728177	0.310201	-0.174564
H229	H	0.494167	-0.440076	-0.439759
H230	H	0.744167	-0.190076	-0.189759
H231	H	0.994167	0.059924	0.060241
H232	H	1.244167	0.309924	0.310241
H233	H	1.149026	-0.923903	-0.269235
H234	H	1.399026	-0.673903	-0.019235
H235	H	1.649026	-0.423903	0.230765
H236	H	1.899026	-0.173903	0.480765
H237	H	0.978086	-0.784481	-0.439837
H238	H	1.228086	-0.534481	-0.189837
H239	H	1.478086	-0.284481	0.060163
H240	H	1.728086	-0.034481	0.310163
H241	H	0.633600	-0.269084	-0.269270
H242	H	0.883600	-0.019084	-0.019270
H243	H	1.133600	0.230916	0.230730
H244	H	1.383600	0.480916	0.480730
H245	H	0.494158	-0.269094	-0.269266
H246	H	0.744158	-0.019094	-0.019266
H247	H	0.994158	0.230906	0.230734
H248	H	1.244158	0.480906	0.480734
H249	H	1.148966	-0.784475	-0.269201
H250	H	1.398966	-0.534475	-0.019201
H251	H	1.648966	-0.284475	0.230799
H252	H	1.898966	-0.034475	0.480799
H253	H	0.978146	-0.923924	-0.439858
H254	H	1.228146	-0.673924	-0.189858
H255	H	1.478146	-0.423924	0.060142
H256	H	1.728146	-0.173924	0.310142
H257	H	1.149021	-0.269077	-0.785200
H258	H	1.399021	-0.019077	-0.535200
H259	H	1.649021	0.230923	-0.285200
H260	H	1.899021	0.480923	-0.035200
