data_functionalizedCrystal
_audit_creation_method	'MofGen! by Chris Wilmer'
_symmetry_space_group_name_H-M	'P1'
_symmetry_Int_Tables_number	1
_symmetry_cell_setting	triclinic
loop_
_symmetry_equiv_pos_as_xyz
  x,y,z
_cell_length_a	12.759401
_cell_length_b	29.839133
_cell_length_c	12.759401
_cell_angle_alpha	90.005737
_cell_angle_beta	90.003969
_cell_angle_gamma	90.030028
loop_
_atom_site_label
_atom_site_type_symbol
_atom_site_fract_x
_atom_site_fract_y
_atom_site_fract_z
Zn1	Zn	1.605995	-0.178919	0.594013
Zn2	Zn	1.605888	-0.254028	0.418346
Zn3	Zn	1.430342	-0.178914	0.418352
Zn4	Zn	1.430240	-0.254023	0.593987
O5	O	1.518116	-0.216471	0.506174
O6	O	1.753002	-0.188886	0.570719
O7	O	1.582600	-0.244065	0.271326
O8	O	1.453730	-0.116047	0.441668
O9	O	1.752923	-0.244069	0.441657
O10	O	1.582781	-0.116051	0.570725
O11	O	1.453626	-0.188878	0.271331
O12	O	1.283307	-0.188873	0.441642
O13	O	1.453556	-0.244060	0.741011
O14	O	1.283232	-0.244055	0.570680
O15	O	1.582682	-0.188881	0.741031
O16	O	1.582501	-0.316895	0.441631
O17	O	1.453453	-0.316891	0.570674
C18	C	1.245149	-0.216463	0.506160
C19	C	1.128372	-0.216471	0.506178
C20	C	1.073551	-0.187789	0.573485
C21	C	0.963827	-0.187794	0.573491
C22	C	0.963754	-0.245166	0.438883
C23	C	1.073476	-0.245158	0.438871
C24	C	1.517983	-0.333194	0.506171
C25	C	1.518022	-0.383128	0.506205
C26	C	1.585352	-0.739682	0.573452
C27	C	1.585252	-0.552009	0.573450
O28	O	1.642363	-0.527716	0.630610
N29	N	1.518105	-0.528573	0.506203
C30	C	1.450982	-0.552058	0.438946
O31	O	1.393874	-0.527819	0.381740
C32	C	1.451087	-0.739731	0.438943
C33	C	1.518232	-0.763164	0.506202
C34	C	1.652492	-0.763115	0.640705
C35	C	1.652512	-0.810031	0.640709
C36	C	1.585392	-0.833513	0.573459
C37	C	1.518252	-0.810079	0.506206
C38	C	1.383971	-0.763215	0.371681
C39	C	1.384005	-0.810136	0.371684
C40	C	1.451150	-0.833569	0.438944
C41	C	1.451153	-0.880477	0.438960
N42	N	1.518300	-0.903913	0.506208
C43	C	1.585420	-0.880431	0.573457
C44	C	1.450930	-0.453528	0.438954
C45	C	1.450902	-0.406610	0.438956
C46	C	1.585174	-0.406564	0.573459
C47	C	1.585196	-0.453482	0.573462
C48	C	1.518077	-0.476964	0.506201
C49	C	1.585456	-0.978957	0.573460
C50	C	1.585468	-1.025876	0.573461
C51	C	1.451200	-1.025918	0.438954
C52	C	1.451184	-0.979003	0.438957
C53	C	1.518321	-0.955523	0.506214
O54	O	1.394080	-0.904799	0.381822
O55	O	1.642536	-0.904679	0.630638
C56	C	1.585332	-0.692766	0.573448
C57	C	1.518192	-0.669333	0.506195
C58	C	1.451072	-0.692815	0.438945
C59	C	1.518164	-0.622415	0.506197
C60	C	1.585284	-0.598933	0.573446
C61	C	1.652431	-0.622369	0.640694
C62	C	1.652451	-0.669284	0.640698
C63	C	1.383924	-0.669379	0.371698
C64	C	1.383909	-0.622464	0.371700
C65	C	1.451029	-0.598982	0.438950
C66	C	1.792149	-0.216479	0.506190
C67	C	1.908926	-0.216482	0.506197
C68	C	1.518119	-0.216470	0.780208
C69	C	1.518121	-0.216470	0.896984
C70	C	1.518279	-0.099293	0.506201
C71	C	1.518348	-0.049358	0.506212
C72	C	1.585340	-0.187743	1.061589
C73	C	1.585349	-0.187743	0.951865
C74	C	1.450887	-0.245202	0.951833
C75	C	1.450884	-0.245204	1.061555
C76	C	1.518106	-0.216479	1.233207
C77	C	1.518109	-0.216472	1.116430
H78	H	0.919197	-0.164437	0.628297
H79	H	1.329349	-0.829252	0.316911
O80	O	1.318645	-0.599773	0.306261
C81	C	1.259396	-0.630565	0.246928
H82	H	1.302451	-0.663997	0.243348
H83	H	1.179570	-0.635577	0.285323
C84	C	1.191468	-0.571211	0.139486
C85	C	1.244353	-0.612271	0.135081
H86	H	1.182185	-0.559926	0.070495
H87	H	1.231382	-0.550465	0.179462
H88	H	1.124952	-0.575393	0.171487
H89	H	1.310873	-0.608088	0.103093
H90	H	1.204450	-0.633016	0.095097
O91	O	1.717665	-0.599623	0.706121
C92	C	1.776961	-0.630362	0.765469
H93	H	1.733951	-0.663822	0.769079
H94	H	1.856789	-0.635327	0.727067
C95	C	1.844825	-0.570938	0.872859
C96	C	1.791994	-0.612033	0.877301
H97	H	1.854103	-0.559632	0.941841
H98	H	1.804879	-0.550228	0.832873
H99	H	1.911342	-0.575081	0.840853
H100	H	1.725473	-0.607889	0.909294
H101	H	1.831929	-0.632742	0.917295
H102	H	1.396215	-0.387534	0.384199
H103	H	0.919045	-0.268522	0.384085
H104	H	1.396135	-0.268601	1.106208
O105	O	1.717733	-0.692094	0.705883
C106	C	1.785680	-0.719205	0.646136
H107	H	1.748697	-0.726255	0.566485
H108	H	1.863532	-0.701094	0.634656
C109	C	1.850115	-0.755099	0.801800
C110	C	1.804688	-0.763762	0.703975
H111	H	1.861846	-0.782584	0.837479
H112	H	1.804341	-0.736833	0.842054
H113	H	1.914987	-0.740006	0.792220
H114	H	1.739812	-0.778849	0.713557
H115	H	1.850452	-0.782032	0.663724
O116	O	1.126574	-0.273064	0.373453
C117	C	1.054596	-0.298381	0.314037
H118	H	0.976387	-0.299973	0.357069
H119	H	1.042927	-0.281876	0.234310
C120	C	1.193438	-0.344226	0.245849
C121	C	1.097383	-0.346184	0.298706
H122	H	1.219832	-0.373712	0.236387
H123	H	1.241932	-0.327168	0.285875
H124	H	1.183702	-0.330470	0.179415
H125	H	1.107124	-0.359934	0.365143
H126	H	1.048892	-0.363245	0.258691
O127	O	1.650495	-0.159789	1.114942
C128	C	1.590723	-0.130777	1.178432
H129	H	1.507981	-0.127998	1.145361
H130	H	1.587083	-0.144668	1.261585
C131	C	1.743745	-0.087490	1.220753
C132	C	1.642122	-0.084074	1.180129
H133	H	1.775452	-0.058682	1.221804
H134	H	1.784016	-0.107036	1.177982
H135	H	1.740698	-0.099067	1.290043
H136	H	1.645172	-0.072502	1.110836
H137	H	1.601852	-0.064525	1.222888
H138	H	1.640143	-1.044954	0.628238
H139	H	1.640127	-0.959845	0.628225
O140	O	1.126763	-0.159943	0.639003
C141	C	1.099979	-0.169840	0.743681
H142	H	1.020299	-0.187116	0.745799
H143	H	1.161717	-0.192957	0.778972
C144	C	1.192823	-0.104867	0.804890
C145	C	1.094954	-0.126083	0.807491
H146	H	1.189728	-0.077876	0.844253
H147	H	1.210872	-0.098200	0.734367
H148	H	1.244261	-0.124136	0.834297
H149	H	1.043521	-0.106816	0.778072
H150	H	1.076897	-0.132746	0.878011
O151	O	1.650501	-0.159807	0.898485
C152	C	1.590716	-0.130782	0.835047
H153	H	1.511084	-0.146630	0.818586
H154	H	1.579199	-0.097493	0.877354
C155	C	1.746344	-0.103170	0.751054
C156	C	1.648542	-0.122637	0.730829
H157	H	1.782014	-0.098144	0.686770
H158	H	1.786624	-0.122724	0.793796
H159	H	1.736732	-0.075432	0.786313
H160	H	1.658155	-0.150377	0.695584
H161	H	1.608265	-0.103088	0.688079
H162	H	1.707196	-0.829106	0.695470
H163	H	1.707153	-0.744000	0.695467
H164	H	1.396153	-0.268594	0.907140
H165	H	1.396271	-0.472642	0.384179
H166	H	1.639866	-0.472559	0.628235
H167	H	1.639824	-0.387437	0.628218
H168	H	1.396499	-0.959923	0.384199
H169	H	1.396550	-1.045046	0.384204
O170	O	1.318721	-0.740529	0.306236
C171	C	1.259485	-0.771325	0.246900
H172	H	1.302546	-0.804755	0.243329
H173	H	1.179655	-0.776337	0.285286
C174	C	1.191560	-0.711975	0.139443
C175	C	1.244453	-0.753033	0.135049
H176	H	1.182282	-0.700692	0.070449
H177	H	1.231465	-0.691227	0.179420
H178	H	1.125041	-0.716158	0.171435
H179	H	1.310975	-0.748849	0.103068
H180	H	1.204558	-0.773781	0.095063
H181	H	1.329268	-0.688494	0.316932
