data_functionalizedCrystal
_audit_creation_method	'MofGen! by Chris Wilmer'
_symmetry_space_group_name_H-M	'P1'
_symmetry_Int_Tables_number	1
_symmetry_cell_setting	triclinic
loop_
_symmetry_equiv_pos_as_xyz
  x,y,z
_cell_length_a	27.732048
_cell_length_b	27.731996
_cell_length_c	10.268362
_cell_angle_alpha	89.988758
_cell_angle_beta	90.000911
_cell_angle_gamma	82.632022
loop_
_atom_site_label
_atom_site_type_symbol
_atom_site_fract_x
_atom_site_fract_y
_atom_site_fract_z
O1	O	0.640916	0.057519	-0.108149
O2	O	0.500121	0.066265	-0.108191
O3	O	0.574905	-0.008507	-0.108140
O4	O	0.566133	0.132290	-0.108199
O5	O	0.574898	-0.008510	0.108460
O6	O	0.500115	0.066262	0.108410
O7	O	0.640910	0.057516	0.108452
Cu8	Cu	0.570512	0.061888	0.128208
Cu9	Cu	0.570519	0.061892	-0.127947
O10	O	0.566126	0.132287	0.108401
C11	C	0.482111	0.066079	0.000105
C12	C	0.428456	0.065527	0.000090
C13	C	0.089634	0.106231	0.000129
C14	C	-0.112026	0.104180	0.000142
O15	O	-0.143288	0.141402	0.000183
N16	N	-0.131141	0.059844	0.000158
C17	C	-0.099838	0.016017	0.000180
O18	O	-0.120724	-0.021740	0.000207
C19	C	0.101820	0.018069	0.000176
C20	C	0.120933	0.062408	0.000147
C21	C	0.108747	0.150567	0.000101
C22	C	0.159159	0.151079	0.000091
C23	C	0.190457	0.107256	0.000109
C24	C	0.171344	0.062920	0.000137
C25	C	0.133122	-0.025757	0.000207
C26	C	0.183539	-0.025240	0.000210
C27	C	0.202652	0.019099	0.000181
C28	C	0.253055	0.019609	0.000144
N29	N	0.272171	0.063946	0.000128
C30	C	0.240872	0.107769	0.000110
C31	C	-0.205712	0.014943	0.000179
C32	C	-0.256126	0.014430	0.000177
C33	C	-0.268310	0.102594	0.000142
C34	C	-0.217895	0.103106	0.000134
C35	C	-0.186597	0.059280	0.000162
C36	C	0.346741	0.108842	0.000088
C37	C	0.397158	0.109350	0.000072
C38	C	0.409337	0.021187	0.000114
C39	C	0.358925	0.020678	0.000123
C40	C	0.327627	0.064510	0.000114
O41	O	0.284346	-0.017592	0.000118
O42	O	0.261767	0.145521	0.000112
C43	C	0.039222	0.105719	0.000139
C44	C	0.020109	0.061384	0.000167
C45	C	0.051408	0.017560	0.000185
C46	C	-0.030305	0.060871	0.000166
C47	C	-0.061604	0.104694	0.000148
C48	C	-0.042489	0.149030	0.000132
C49	C	0.007923	0.149543	0.000122
C50	C	0.032292	-0.026776	0.000201
C51	C	-0.018120	-0.027285	0.000210
C52	C	-0.049419	0.016539	0.000192
C53	C	0.574721	-0.026516	0.000164
C54	C	0.574179	-0.080172	0.000177
C55	C	0.570767	-0.412887	-0.117956
C56	C	0.568706	-0.614545	-0.117980
O57	O	0.568422	-0.640614	-0.218394
N58	N	0.568447	-0.639764	0.000088
C59	C	0.568699	-0.614564	0.118170
O60	O	0.568426	-0.640641	0.218593
C61	C	0.570757	-0.412907	0.118192
C62	C	0.571021	-0.387691	0.000117
C63	C	0.571031	-0.387671	-0.236022
C64	C	0.571549	-0.337260	-0.236015
C65	C	0.571803	-0.312064	-0.117942
C66	C	0.571539	-0.337280	0.000124
C67	C	0.571006	-0.387708	0.236273
C68	C	0.571519	-0.337290	0.236268
C69	C	0.571784	-0.312074	0.118192
C70	C	0.572311	-0.261673	0.118204
N71	N	0.572571	-0.236454	0.000136
C72	C	0.572317	-0.261650	-0.117937
C73	C	0.567620	-0.720438	0.118150
C74	C	0.567107	-0.770852	0.118145
C75	C	0.567113	-0.770829	-0.118005
C76	C	0.567630	-0.720414	-0.117999
C77	C	0.567880	-0.695219	0.000082
C78	C	0.573405	-0.155783	-0.117913
C79	C	0.573925	-0.105368	-0.117896
C80	C	0.573916	-0.105395	0.118254
C81	C	0.573399	-0.155806	0.118237
C82	C	0.573141	-0.180999	0.000143
O83	O	0.572590	-0.235572	0.218565
O84	O	0.572579	-0.235563	-0.218345
C85	C	0.570249	-0.463298	-0.117963
C86	C	0.569986	-0.488513	0.000103
C87	C	0.570240	-0.463318	0.118176
C88	C	0.569472	-0.538928	0.000097
C89	C	0.569218	-0.564123	-0.117976
C90	C	0.569478	-0.538905	-0.236043
C91	C	0.569995	-0.488493	-0.236036
C92	C	0.569980	-0.488537	0.236243
C93	C	0.569463	-0.538948	0.236227
C94	C	0.569209	-0.564143	0.118154
C95	C	0.658920	0.057701	0.000153
C96	C	0.712575	0.058254	0.000159
C97	C	0.566310	0.150296	0.000094
C98	C	0.566853	0.203952	0.000072
N99	N	0.570510	0.061886	0.308374
N100	N	0.570525	0.061891	-0.308113
C101	C	0.570517	0.061891	0.574044
C102	C	0.570512	0.061889	0.426207
H103	H	0.412716	0.145458	0.000047
H104	H	0.083267	0.186255	0.000091
C105	C	-0.277147	-0.034343	0.000195
C106	C	-0.310128	-0.046824	-0.112274
C107	C	-0.331147	-0.095599	-0.112248
C108	C	-0.319184	-0.131894	0.000247
C109	C	-0.286201	-0.119414	0.112724
C110	C	-0.265183	-0.070639	0.112698
H111	H	-0.318985	-0.019955	-0.195557
H112	H	-0.355563	-0.104837	-0.195511
H113	H	-0.334744	-0.168000	0.000266
H114	H	-0.277344	-0.146283	0.196007
H115	H	-0.240766	-0.061401	0.195961
C116	C	0.573095	-0.183553	0.248105
C117	C	0.531160	-0.170815	0.345460
C118	C	0.530843	-0.198560	0.475324
C119	C	0.572462	-0.239042	0.507833
C120	C	0.614400	-0.251782	0.410476
C121	C	0.614717	-0.224037	0.280612
H122	H	0.500349	-0.140846	0.321397
H123	H	0.499797	-0.189129	0.547394
H124	H	0.572227	-0.259580	0.603966
H125	H	0.645211	-0.281751	0.434539
H126	H	0.645763	-0.233468	0.208542
H127	H	0.321264	0.144533	0.000085
C128	C	0.066716	-0.074986	0.000210
C129	C	0.064810	-0.111428	0.112691
C130	C	0.099231	-0.159642	0.112689
C131	C	0.135559	-0.171414	0.000206
C132	C	0.137466	-0.134971	-0.112283
C133	C	0.103045	-0.086757	-0.112282
H134	H	0.037917	-0.102715	0.195965
H135	H	0.097819	-0.186619	0.195962
H136	H	0.161039	-0.207105	0.000205
H137	H	0.164359	-0.143684	-0.195558
H138	H	0.104457	-0.059780	-0.195554
C139	C	0.574193	-0.077672	0.248128
C140	C	0.532552	-0.037209	0.280562
C141	C	0.532825	-0.009483	0.410436
C142	C	0.574738	-0.022220	0.507875
C143	C	0.616381	-0.062685	0.475443
C144	C	0.616109	-0.090411	0.345569
H145	H	0.501523	-0.027778	0.208430
H146	H	0.501997	0.020472	0.434443
H147	H	0.574939	-0.001696	0.604015
H148	H	0.647411	-0.072116	0.547576
H149	H	0.646937	-0.120366	0.321562
H150	H	-0.293803	0.138276	0.000128
H151	H	-0.180232	-0.020747	0.000202
C152	C	0.028943	0.198316	0.000105
C153	C	0.061922	0.210803	-0.112373
C154	C	0.082939	0.259579	-0.112384
C155	C	0.070976	0.295869	0.000084
C156	C	0.037996	0.283383	0.112570
C157	C	0.016979	0.234607	0.112581
H158	H	0.070779	0.183938	-0.195635
H159	H	0.107353	0.268822	-0.195654
H160	H	0.086534	0.331976	0.000076
H161	H	0.029139	0.310248	0.195833
H162	H	-0.007435	0.225364	0.195852
C163	C	0.217967	-0.073451	0.000236
C164	C	0.216063	-0.109888	0.112732
C165	C	0.250490	-0.158098	0.112755
C166	C	0.286821	-0.169872	0.000282
C167	C	0.288728	-0.133435	-0.112221
C168	C	0.254301	-0.085224	-0.112244
H169	H	0.189166	-0.101173	0.195998
H170	H	0.249078	-0.185071	0.196038
H171	H	0.312306	-0.205560	0.000299
H172	H	0.315624	-0.142149	-0.195488
H173	H	0.255712	-0.058251	-0.195527
H174	H	0.567826	-0.699929	0.214312
H175	H	0.174715	0.187185	0.000067
H176	H	-0.202337	0.139211	0.000117
H177	H	0.343363	-0.015426	0.000128
H178	H	-0.067981	0.184713	0.000112
H179	H	0.117570	-0.061863	0.000233
H180	H	0.567844	-0.699887	-0.214147
C181	C	0.566831	-0.798549	-0.247890
C182	C	0.608466	-0.839013	-0.280356
C183	C	0.608181	-0.866735	-0.410233
C184	C	0.566260	-0.853992	-0.507645
C185	C	0.524621	-0.813526	-0.475182
C186	C	0.524907	-0.785804	-0.345304
H187	H	0.639502	-0.848448	-0.208244
H188	H	0.639004	-0.896690	-0.434264
H189	H	0.566048	-0.874513	-0.603788
H190	H	0.493586	-0.804091	-0.547294
H191	H	0.494083	-0.755848	-0.321273
H192	H	0.434830	-0.014493	0.000124
H193	H	-0.033676	-0.063394	0.000224
H194	H	0.574141	-0.084840	-0.214051
H195	H	0.570210	-0.467967	-0.332186
H196	H	0.573193	-0.176288	-0.214077
H197	H	0.571763	-0.316734	-0.332165
H198	H	0.570792	-0.408230	0.332423
H199	H	0.570823	-0.408180	-0.332177
H200	H	0.566899	-0.791379	0.214294
H201	H	0.571716	-0.316777	0.332426
H202	H	0.569273	-0.559428	-0.332183
H203	H	0.569251	-0.559475	0.332385
H204	H	0.570188	-0.468028	0.332395
