data_functionalizedCrystal
_audit_creation_method	'MofGen! by Chris Wilmer'
_symmetry_space_group_name_H-M	'P1'
_symmetry_Int_Tables_number	1
_symmetry_cell_setting	triclinic
loop_
_symmetry_equiv_pos_as_xyz
  x,y,z
_cell_length_a	17.077404
_cell_length_b	29.839131
_cell_length_c	17.077404
_cell_angle_alpha	90.014381
_cell_angle_beta	90.008318
_cell_angle_gamma	90.041645
loop_
_atom_site_label
_atom_site_type_symbol
_atom_site_fract_x
_atom_site_fract_y
_atom_site_fract_z
Zn1	Zn	1.199867	-0.178928	0.443824
Zn2	Zn	1.199757	-0.254036	0.312550
Zn3	Zn	1.068624	-0.178921	0.312572
Zn4	Zn	1.068524	-0.254032	0.443773
O5	O	1.134193	-0.216480	0.378180
O6	O	1.309699	-0.188896	0.426422
O7	O	1.182358	-0.244070	0.202706
O8	O	1.086122	-0.116055	0.330013
O9	O	1.309619	-0.244077	0.329976
O10	O	1.182545	-0.116060	0.426443
O11	O	1.086015	-0.188884	0.202722
O12	O	0.958764	-0.188880	0.329964
O13	O	1.085951	-0.244071	0.553627
O14	O	0.958691	-0.244064	0.426357
O15	O	1.182448	-0.188893	0.553664
O16	O	1.182261	-0.316903	0.329927
O17	O	1.085845	-0.316900	0.426336
C18	C	0.930245	-0.216471	0.378158
C19	C	0.842995	-0.216479	0.378167
C20	C	0.801987	-0.245256	0.428279
C21	C	0.720007	-0.245257	0.428291
C22	C	0.679036	-0.216483	0.378188
C23	C	0.720050	-0.187702	0.328074
C24	C	0.802029	-0.187699	0.328066
C25	C	0.549180	-0.187711	0.328093
C26	C	0.467195	-0.187714	0.328100
C27	C	0.467158	-0.245269	0.428318
C28	C	0.549137	-0.245266	0.428310
C29	C	0.590145	-0.216486	0.378195
C30	C	1.134051	-0.333202	0.378141
C31	C	1.134062	-0.383137	0.378150
C32	C	1.184488	-0.692769	0.328053
C33	C	1.184585	-0.880442	0.328083
O34	O	1.227347	-0.904697	0.285458
N35	N	1.134356	-0.903922	0.378239
C36	C	1.084102	-0.880480	0.428394
O37	O	1.041387	-0.904758	0.471061
C38	C	1.084010	-0.692808	0.428367
C39	C	1.134237	-0.669331	0.378202
C40	C	1.234712	-0.669291	0.277893
C41	C	1.234684	-0.622376	0.277883
C42	C	1.184433	-0.598938	0.328032
C43	C	1.134209	-0.622415	0.378192
C44	C	1.033761	-0.669368	0.478526
C45	C	1.033744	-0.622447	0.478516
C46	C	1.083971	-0.598969	0.428351
C47	C	1.083930	-0.552062	0.428332
N48	N	1.134160	-0.528582	0.378176
C49	C	1.184411	-0.552020	0.328026
C50	C	1.084153	-0.979011	0.428404
C51	C	1.084175	-1.025929	0.428410
C52	C	1.184659	-1.025887	0.328099
C53	C	1.184633	-0.978968	0.328090
C54	C	1.134383	-0.955531	0.378248
C55	C	1.184348	-0.453494	0.328009
C56	C	1.184314	-0.406575	0.328001
C57	C	1.083833	-0.406620	0.428313
C58	C	1.083864	-0.453536	0.428319
C59	C	1.134128	-0.476972	0.378164
O60	O	1.041197	-0.527778	0.470941
O61	O	1.227132	-0.527735	0.285378
C62	C	1.184516	-0.739684	0.328063
C63	C	1.134292	-0.763162	0.378223
C64	C	1.084041	-0.739724	0.428373
C65	C	1.134314	-0.810079	0.378229
C66	C	1.184566	-0.833517	0.328079
C67	C	1.234795	-0.810038	0.277923
C68	C	1.234767	-0.763122	0.277913
C69	C	1.033812	-0.763203	0.478528
C70	C	1.033843	-0.810119	0.478534
C71	C	1.084094	-0.833557	0.428384
C72	C	1.338937	-0.216488	0.378202
C73	C	1.426187	-0.216492	0.378211
C74	C	1.134201	-0.216482	0.582924
C75	C	1.134204	-0.216483	0.670174
C76	C	1.134357	-0.099301	0.378236
C77	C	1.134427	-0.049367	0.378260
C78	C	1.184444	-0.187757	0.711184
C79	C	1.184437	-0.187756	0.793165
C80	C	1.134194	-0.216485	0.834133
C81	C	1.083949	-0.245213	0.793117
C82	C	1.083952	-0.245211	0.711138
C83	C	1.083947	-0.245216	0.963987
C84	C	1.083945	-0.245218	1.045971
C85	C	1.184432	-0.187761	1.046014
C86	C	1.184435	-0.187759	0.964035
C87	C	1.134191	-0.216488	0.923024
C88	C	1.134182	-0.216488	1.174232
C89	C	1.134184	-0.216492	1.086982
H90	H	0.835340	-0.268690	0.469076
F91	F	1.030357	-0.381668	0.481686
H92	H	0.686622	-0.268691	0.469096
F93	F	1.288152	-0.597395	0.224499
H94	H	1.225280	-0.472570	0.287169
F95	F	1.288229	-0.738141	0.224523
F96	F	1.288274	-0.834990	0.224548
F97	F	0.845672	-0.157069	0.274732
F98	F	0.980379	-0.835100	0.531928
H99	H	0.582493	-0.268699	0.469105
F100	F	1.030469	-0.275791	0.920342
F101	F	0.423592	-0.157091	0.274771
H102	H	1.275637	-0.688369	0.237055
F103	F	1.237774	-0.381591	0.274606
H104	H	0.582566	-0.164271	0.287291
H105	H	0.433765	-0.268702	0.469126
H106	H	1.225532	-0.959856	0.287242
H107	H	1.043034	-0.268599	0.677748
F108	F	1.238139	-1.050839	0.274724
F109	F	0.980261	-0.597506	0.531904
F110	F	1.237914	-0.157185	0.920435
H111	H	0.992892	-0.744124	0.519367
F112	F	1.030708	-1.050910	0.481793
F113	F	1.237924	-0.157181	0.667590
H114	H	0.686685	-0.164271	0.287282
F115	F	1.237936	-0.157197	0.836808
F116	F	1.030666	-0.954073	0.481791
F117	F	0.980308	-0.694344	0.531926
F118	F	1.030393	-0.478523	0.481695
F119	F	1.237907	-0.157186	1.089661
H120	H	1.043031	-0.268611	1.079326
F121	F	1.030473	-0.275786	0.836720
