data_functionalizedCrystal
_audit_creation_method	'MofGen! by Chris Wilmer'
_symmetry_space_group_name_H-M	'P1'
_symmetry_Int_Tables_number	1
_symmetry_cell_setting	triclinic
loop_
_symmetry_equiv_pos_as_xyz
  x,y,z
_cell_length_a	18.215405
_cell_length_b	18.215407
_cell_length_c	18.215399
_cell_angle_alpha	90.019833
_cell_angle_beta	90.027541
_cell_angle_gamma	90.023180
loop_
_atom_site_label
_atom_site_type_symbol
_atom_site_fract_x
_atom_site_fract_y
_atom_site_fract_z
Zn1	Zn	-0.292983	1.125083	0.416118
Zn2	Zn	-0.416054	1.124996	0.293053
Zn3	Zn	-0.293007	1.002016	0.293065
Zn4	Zn	-0.416013	1.001986	0.416077
O5	O	-0.354514	1.063520	0.354578
O6	O	-0.309316	1.228056	0.399805
O7	O	-0.399759	1.108658	0.190070
O8	O	-0.190020	1.018389	0.309411
O9	O	-0.399736	1.227992	0.309389
O10	O	-0.190002	1.108807	0.399817
O11	O	-0.309357	1.018305	0.190079
O12	O	-0.309317	0.899027	0.309372
O13	O	-0.399666	1.018339	0.519067
O14	O	-0.399689	0.899006	0.399748
O15	O	-0.309276	1.108778	0.519097
O16	O	-0.519033	1.108630	0.309350
O17	O	-0.519003	1.018255	0.399736
C18	C	-0.354502	0.872314	0.354557
C19	C	-0.354514	0.790515	0.354566
C20	C	-0.401645	0.602329	0.401566
C21	C	-0.401647	0.525470	0.401575
C22	C	-0.307397	0.525463	0.307607
C23	C	-0.307392	0.602321	0.307602
C24	C	-0.354520	0.640751	0.354580
C25	C	-0.354528	0.487035	0.354594
C26	C	-0.354530	0.403702	0.354604
C27	C	-0.354517	0.724090	0.354572
C28	C	-0.545721	1.063450	0.354553
C29	C	-0.627520	1.063487	0.354567
C30	C	-0.815643	1.110589	0.401705
C31	C	-0.892502	1.110616	0.401719
C32	C	-0.892634	1.016542	0.307497
C33	C	-0.815776	1.016512	0.307488
C34	C	-0.777283	1.063540	0.354590
C35	C	-0.930999	1.063597	0.354614
C36	C	-1.014333	1.063625	0.354628
C37	C	-0.693944	1.063511	0.354577
C38	C	-0.162561	1.063611	0.354620
C39	C	-0.080763	1.063650	0.354638
C40	C	-0.354464	1.063565	0.546531
C41	C	-0.354442	1.063584	0.628330
C42	C	-0.354528	1.255473	0.354600
C43	C	-0.354533	1.337272	0.354609
C44	C	-0.354512	1.063518	0.163372
C45	C	-0.354326	1.063641	0.081574
C46	C	-0.307332	1.110692	0.816541
C47	C	-0.307311	1.110701	0.893400
C48	C	-0.401438	1.016528	0.893358
C49	C	-0.401455	1.016516	0.816500
C50	C	-0.354403	1.063602	0.778094
C51	C	-0.354365	1.063623	0.931810
C52	C	-0.354342	1.063632	1.015144
C53	C	-0.354425	1.063592	0.694755
H54	H	-0.269028	0.494163	0.269358
C55	C	-0.255553	0.644588	0.255915
H56	H	-0.227493	0.610694	0.227930
H57	H	-0.223522	0.674593	0.284121
H58	H	-0.283668	0.674547	0.223797
H59	H	-0.923731	1.148927	0.440086
C60	C	-0.453241	0.964719	0.774205
H61	H	-0.481270	0.936686	0.808085
H62	H	-0.425098	0.932661	0.744222
H63	H	-0.485315	0.992861	0.744223
C64	C	-0.453198	0.964743	0.935607
H65	H	-0.446452	0.971500	0.986887
H66	H	-0.442431	0.915299	0.923006
H67	H	-0.502649	0.975497	0.922998
C68	C	-0.453483	0.483209	0.453260
H69	H	-0.481550	0.517107	0.481233
H70	H	-0.425372	0.453252	0.485377
H71	H	-0.485518	0.453202	0.425054
H72	H	-0.784304	1.148881	0.440060
H73	H	-0.269017	1.149031	0.785273
C74	C	-0.934978	0.964823	0.255681
H75	H	-0.986246	0.971584	0.262428
H76	H	-0.922418	0.915364	0.266398
H77	H	-0.922401	0.975627	0.206242
C78	C	-0.773577	0.964757	0.255658
H79	H	-0.807509	0.936760	0.227599
H80	H	-0.743603	0.932664	0.283775
H81	H	-0.743593	0.992923	0.223614
H82	H	-0.440018	0.633617	0.439820
C83	C	-0.255536	1.162504	0.935689
H84	H	-0.227522	1.190547	0.901805
H85	H	-0.223460	1.134374	0.965673
H86	H	-0.283688	1.194563	0.965669
