data_functionalizedCrystal
_audit_creation_method	'MofGen! by Chris Wilmer'
_symmetry_space_group_name_H-M	'P1'
_symmetry_Int_Tables_number	1
_symmetry_cell_setting	triclinic
loop_
_symmetry_equiv_pos_as_xyz
  x,y,z
_cell_length_a	10.686220
_cell_length_b	13.897448
_cell_length_c	10.686551
_cell_angle_alpha	85.592616
_cell_angle_beta	90.308082
_cell_angle_gamma	94.399460
loop_
_atom_site_label
_atom_site_type_symbol
_atom_site_fract_x
_atom_site_fract_y
_atom_site_fract_z
Zn1	Zn	1.972272	-0.235165	-0.562377
Zn2	Zn	2.472272	0.264835	-0.062377
Zn3	Zn	1.956032	-0.409754	-0.352612
Zn4	Zn	2.456032	0.090246	0.147388
Zn5	Zn	1.746389	-0.259840	-0.368693
Zn6	Zn	2.246389	0.240160	0.131307
Zn7	Zn	1.762462	-0.407799	-0.578389
Zn8	Zn	2.262462	0.092201	-0.078389
O9	O	1.859289	-0.328139	-0.465518
O10	O	2.359289	0.171861	0.034482
O11	O	2.145660	-0.248816	-0.521120
O12	O	2.645660	0.251184	-0.021120
O13	O	1.914699	-0.401012	-0.179199
O14	O	2.414699	0.098988	0.320801
O15	O	1.776423	-0.121579	-0.394415
O16	O	2.276423	0.378421	0.105585
O17	O	2.133728	-0.377086	-0.367006
O18	O	2.633728	0.122914	0.132994
O19	O	1.942379	-0.103450	-0.536713
O20	O	2.442379	0.396550	-0.036713
O21	O	1.760675	-0.290871	-0.191014
O22	O	2.260675	0.209129	0.308986
O23	O	1.572979	-0.288976	-0.409942
O24	O	2.072979	0.211024	0.090058
O25	O	1.803817	-0.373754	-0.751811
O26	O	2.303817	0.126246	-0.251811
O27	O	1.584787	-0.397681	-0.564004
O28	O	2.084787	0.102319	-0.064004
O29	O	1.957964	-0.246920	-0.740047
O30	O	2.457964	0.253080	-0.240047
O31	O	1.930284	-0.544482	-0.382532
O32	O	2.430284	-0.044482	0.117468
O33	O	1.788069	-0.543046	-0.548410
O34	O	2.288069	-0.043046	-0.048410
C35	C	1.533367	-0.345794	-0.490456
C36	C	2.033367	0.154206	0.009544
C37	C	1.393938	-0.353368	-0.501155
C38	C	1.893938	0.146632	-0.001155
C39	C	1.859194	-0.578761	-0.465489
C40	C	2.359194	-0.078761	0.034511
C41	C	1.859272	-0.685969	-0.465509
C42	C	2.359272	-0.185969	0.034491
C43	C	1.859410	-0.882252	-0.465578
C44	C	2.359410	-0.382252	0.034422
C45	C	1.859330	-0.773026	-0.465544
C46	C	2.359330	-0.273026	0.034456
C47	C	2.186483	-0.310416	-0.440483
C48	C	2.686483	0.189584	0.059517
C49	C	2.325914	-0.302864	-0.429814
C50	C	2.825914	0.197136	0.070186
C51	C	1.884495	-0.307367	-0.792719
C52	C	2.384495	0.192633	-0.292719
C53	C	1.895236	-0.298514	-0.932152
C54	C	2.395236	0.201486	-0.432152
C55	C	1.859420	-0.076535	-0.465572
C56	C	2.359420	0.423465	0.034428
C57	C	1.859475	0.030683	-0.465595
C58	C	2.359475	0.530683	0.034405
C59	C	1.834253	-0.348758	-0.139584
C60	C	2.334253	0.151242	0.360416
C61	C	1.823755	-0.357325	-0.000133
C62	C	2.323755	0.142675	0.499867
H63	H	1.754342	-0.414450	-0.951662
H64	H	2.254342	0.085550	-0.451662
H65	H	1.374343	-0.253831	-0.360550
H66	H	1.874343	0.246169	0.139450
H67	H	1.964662	-0.241392	-0.980628
H68	H	2.464662	0.258608	-0.480628
C69	C	1.198462	-0.414517	-0.587522
C70	C	1.698462	0.085483	-0.087522
C71	C	1.328565	-0.419570	-0.594665
C72	C	1.828565	0.080430	-0.094665
H73	H	1.158107	-0.455382	-0.645257
H74	H	1.658107	0.044618	-0.145257
H75	H	1.170544	-0.435041	-0.504839
H76	H	1.670544	0.064959	-0.004839
H77	H	1.178502	-0.349700	-0.607649
H78	H	1.678502	0.150300	-0.107649
H79	H	1.348527	-0.484387	-0.574528
H80	H	1.848527	0.015613	-0.074528
H81	H	1.356494	-0.399051	-0.677367
H82	H	1.856494	0.100949	-0.177367
