data_functionalizedCrystal
_audit_creation_method	'MofGen! by Chris Wilmer'
_symmetry_space_group_name_H-M	'P1'
_symmetry_Int_Tables_number	1
_symmetry_cell_setting	triclinic
loop_
_symmetry_equiv_pos_as_xyz
  x,y,z
_cell_length_a	13.185408
_cell_length_b	26.210047
_cell_length_c	13.339070
_cell_angle_alpha	90.008486
_cell_angle_beta	96.198603
_cell_angle_gamma	90.004003
loop_
_atom_site_label
_atom_site_type_symbol
_atom_site_fract_x
_atom_site_fract_y
_atom_site_fract_z
O1	O	1.373299	0.042394	0.243502
O2	O	1.084467	0.042402	0.148764
O3	O	1.195734	0.042397	0.334372
O4	O	1.262031	0.042398	0.057894
O5	O	1.195711	-0.042461	0.334341
O6	O	1.084444	-0.042456	0.148734
O7	O	1.373276	-0.042464	0.243471
Cu8	Cu	1.228858	-0.050209	0.196100
Cu9	Cu	1.228885	0.050146	0.196136
O10	O	1.262008	-0.042460	0.057864
C11	C	1.046733	-0.000026	0.139145
C12	C	0.934328	-0.000023	0.110538
N13	N	1.228846	-0.120792	0.196077
C14	C	0.895277	-0.000022	0.008684
C15	C	0.789668	-0.000026	-0.018197
C16	C	0.723099	-0.000028	0.056774
C17	C	0.762150	-0.000026	0.158631
C18	C	0.867770	-0.000026	0.185514
C19	C	0.695592	-0.000032	0.233605
C20	C	0.734643	-0.000030	0.335461
C21	C	0.840253	-0.000029	0.362340
C22	C	0.906821	-0.000027	0.287369
C23	C	0.589973	-0.000033	0.206722
C24	C	0.562466	-0.000036	0.383552
C25	C	0.668075	-0.000032	0.410432
C26	C	1.278152	-0.473309	0.278307
C27	C	1.278170	-0.686967	0.278326
O28	O	1.320054	-0.714591	0.348226
N29	N	1.228884	-0.713686	0.196158
C30	C	1.179585	-0.686988	0.113982
O31	O	1.137656	-0.714617	0.044099
C32	C	1.179561	-0.473330	0.113968
C33	C	1.228859	-0.446614	0.196136
C34	C	1.327444	-0.446592	0.360469
C35	C	1.327444	-0.393181	0.360461
C36	C	1.278151	-0.366486	0.278291
C37	C	1.228858	-0.393202	0.196128
C38	C	1.130256	-0.446632	0.031796
C39	C	1.130252	-0.393215	0.031801
C40	C	1.179550	-0.366498	0.113970
C41	C	1.179565	-0.313096	0.113950
N42	N	1.228850	-0.286377	0.196118
C43	C	1.278144	-0.313071	0.278288
C44	C	1.179602	-0.799161	0.113995
C45	C	1.179610	-0.852575	0.113998
C46	C	1.278193	-0.852551	0.278342
C47	C	1.278192	-0.799136	0.278335
C48	C	1.228888	-0.772442	0.196163
C49	C	1.278140	-0.200904	0.278265
C50	C	1.278139	-0.147487	0.278247
C51	C	1.179551	-0.147516	0.113906
C52	C	1.179556	-0.200928	0.113920
C53	C	1.228852	-0.227620	0.196108
O54	O	1.137693	-0.285439	0.044091
O55	O	1.320047	-0.285433	0.348171
C56	C	1.278152	-0.526720	0.278315
C57	C	1.228859	-0.553437	0.196152
C58	C	1.179566	-0.526742	0.113982
C59	C	1.228867	-0.606851	0.196155
C60	C	1.278160	-0.633546	0.278325
C61	C	1.327445	-0.606826	0.360493
C62	C	1.327445	-0.553415	0.360485
C63	C	1.130280	-0.553461	0.031814
C64	C	1.130286	-0.606872	0.031828
C65	C	1.179579	-0.633567	0.113999
C66	C	1.411010	-0.000035	0.253091
C67	C	1.523415	-0.000035	0.281697
C68	C	1.184524	-0.000031	0.368997
C69	C	1.151143	-0.000028	0.472211
N70	N	1.228903	0.120730	0.196168
C71	C	1.273219	-0.000031	0.023239
C72	C	1.306600	-0.000030	-0.079975
C73	C	1.410697	-0.000035	0.907668
C74	C	1.442064	-0.000041	0.810695
C75	C	1.369336	-0.000038	0.726069
C76	C	1.265237	-0.000029	0.738426
C77	C	1.233867	-0.000027	0.835408
C78	C	1.192506	-0.000029	0.653810
C79	C	1.088406	-0.000021	0.666166
C80	C	1.057042	-0.000019	0.763140
C81	C	1.129770	-0.000022	0.847766
C82	C	1.223876	-0.000031	0.556827
C83	C	1.047045	-0.000023	0.484568
C84	C	1.015679	-0.000017	0.581541
H85	H	0.558188	-0.000035	0.123789
H86	H	1.526821	-0.000049	0.800642
H87	H	0.637108	-0.000032	0.034882
F88	F	0.946250	-0.000016	0.776288
F89	F	0.491624	-0.000041	0.463347
H90	H	0.930919	-0.000010	0.591616
F91	F	1.096391	0.000032	0.950980
H92	H	1.318286	-0.125736	0.345160
F93	F	0.748114	-0.000027	-0.126595
H94	H	1.090113	-0.468378	-0.035112
F95	F	0.969637	-0.000022	0.394507
F96	F	1.127101	-0.229361	0.026459
H97	H	1.139420	-0.125773	0.047002
F98	F	1.379912	-0.474995	0.447934
H99	H	1.308634	-0.000038	0.546778
F100	F	1.488087	-0.000047	0.997733
H101	H	0.949485	-0.000024	-0.052346
F102	F	1.019225	-0.000019	0.315973
F103	F	0.881811	-0.000036	0.470745
F104	F	0.709649	-0.000031	0.518833
H105	H	1.367583	-0.371431	0.427371
F106	F	1.330606	-0.229304	0.365739
F107	F	1.330659	-0.770707	0.365790
F108	F	1.330655	-0.880971	0.365794
F109	F	1.127157	-0.881004	0.026535
F110	F	1.402722	-0.000042	0.622863
H111	H	1.139453	-0.777430	0.047078
H112	H	1.090100	-0.371483	-0.035114
F113	F	1.379914	-0.524987	0.447941
F114	F	1.379911	-0.635246	0.447943
F115	F	1.077819	-0.635301	-0.055636
F116	F	1.077814	-0.525056	-0.055647
