data_functionalizedCrystal
_audit_creation_method	'MofGen! by Chris Wilmer'
_symmetry_space_group_name_H-M	'P1'
_symmetry_Int_Tables_number	1
_symmetry_cell_setting	triclinic
loop_
_symmetry_equiv_pos_as_xyz
  x,y,z
_cell_length_a	15.944551
_cell_length_b	15.995350
_cell_length_c	15.021413
_cell_angle_alpha	90.004882
_cell_angle_beta	90.009811
_cell_angle_gamma	96.504444
loop_
_atom_site_label
_atom_site_type_symbol
_atom_site_fract_x
_atom_site_fract_y
_atom_site_fract_z
O1	O	-1.114505	0.107995	0.073931
O2	O	-0.781172	0.441329	0.407264
O3	O	-0.447839	0.774662	0.740598
O4	O	-0.869955	0.121309	0.073952
O5	O	-0.536622	0.454642	0.407285
O6	O	-0.203288	0.787976	0.740619
O7	O	-0.998915	-0.007235	0.073944
O8	O	-0.665582	0.326098	0.407278
O9	O	-0.332248	0.659432	0.740611
O10	O	-0.985545	0.236539	0.073939
O11	O	-0.652212	0.569873	0.407272
O12	O	-0.318879	0.903206	0.740605
O13	O	-0.998929	-0.007252	-0.074120
O14	O	-0.665596	0.326081	0.259214
O15	O	-0.332263	0.659414	0.592547
O16	O	-0.869969	0.121292	-0.074112
O17	O	-0.536636	0.454625	0.259221
O18	O	-0.203303	0.787959	0.592555
O19	O	-1.114520	0.107978	-0.074133
O20	O	-0.781186	0.441311	0.259200
O21	O	-0.447853	0.774645	0.592533
Zn22	Zn	-0.992247	0.114632	-0.097631
Zn23	Zn	-0.658913	0.447966	0.235702
Zn24	Zn	-0.325580	0.781299	0.569036
Zn25	Zn	-0.992228	0.114655	0.097450
Zn26	Zn	-0.658895	0.447988	0.430783
Zn27	Zn	-0.325561	0.781322	0.764117
O28	O	-0.985560	0.236522	-0.074126
O29	O	-0.652226	0.569856	0.259208
O30	O	-0.318893	0.903189	0.592541
C31	C	-0.838668	0.120748	-0.000077
C32	C	-0.505335	0.454081	0.333256
C33	C	-0.172002	0.787415	0.666589
C34	C	-0.745422	0.119091	-0.000069
C35	C	-0.412089	0.452424	0.333265
C36	C	-0.078756	0.785758	0.666598
C37	C	-0.998370	-0.038438	-0.000085
C38	C	-0.665036	0.294895	0.333248
C39	C	-0.331703	0.628228	0.666582
C40	C	-0.996712	-0.131389	-0.000076
C41	C	-0.663379	0.201944	0.333257
C42	C	-0.330046	0.535278	0.666590
C43	C	-1.145806	0.108539	-0.000102
C44	C	-0.812473	0.441873	0.333231
C45	C	-0.479140	0.775206	0.666565
C46	C	-1.239052	0.110196	-0.000105
C47	C	-0.905719	0.443530	0.333229
C48	C	-0.572386	0.776863	0.666562
C49	C	-0.530570	0.035452	-0.000084
C50	C	-0.197237	0.368786	0.333249
C51	C	0.136096	0.702119	0.666583
C52	C	-0.469541	0.074300	0.072919
C53	C	-0.136208	0.407633	0.406252
C54	C	0.197126	0.740966	0.739585
C55	C	-0.574697	0.116093	-0.000079
C56	C	-0.241363	0.449426	0.333254
C57	C	0.091970	0.782760	0.666587
C58	C	-0.469577	0.074302	-0.073061
C59	C	-0.136244	0.407635	0.260272
C60	C	0.197089	0.740969	0.593605
C61	C	-0.409784	0.113192	-0.000093
C62	C	-0.076451	0.446525	0.333240
C63	C	0.256883	0.779858	0.666573
C64	C	-0.514895	0.154963	0.072984
C65	C	-0.181562	0.488296	0.406317
C66	C	0.151771	0.821629	0.739650
C67	C	-0.514938	0.154953	-0.073062
C68	C	-0.181605	0.488287	0.260272
C69	C	0.151729	0.821620	0.593605
C70	C	-0.453926	0.193859	-0.000041
C71	C	-0.120593	0.527193	0.333292
C72	C	0.212740	0.860526	0.666625
C73	C	-0.669699	0.117762	-0.000070
C74	C	-0.336365	0.451096	0.333263
C75	C	-0.003032	0.784429	0.666596
C76	C	-0.314783	0.111529	-0.000096
C77	C	0.018550	0.444862	0.333238
C78	C	0.351884	0.778195	0.666571
C79	C	-0.986105	0.267726	-0.000094
C80	C	-0.652772	0.601059	0.333239
C81	C	-0.319438	0.934392	0.666572
C82	C	-0.987762	0.360676	-0.000097
C83	C	-0.654429	0.694009	0.333236
C84	C	-0.321096	1.027343	0.666570
N85	N	-0.992266	0.114616	-0.230769
N86	N	-0.658932	0.447950	0.102565
N87	N	-0.325599	0.781283	0.435898
C88	C	-0.993713	0.698424	-0.000084
C89	C	-0.660380	1.031757	0.333250
C90	C	-0.327047	1.365091	0.666583
C91	C	-1.085556	0.650995	0.000239
C92	C	-0.752223	0.984328	0.333572
C93	C	-0.418890	1.317662	0.666906
C94	C	-1.083899	0.554305	-0.000100
C95	C	-0.750566	0.887638	0.333234
C96	C	-0.417232	1.220971	0.666567
C97	C	-0.990761	0.530863	-0.000090
C98	C	-0.657428	0.864197	0.333244
C99	C	-0.324095	1.197530	0.666577
C100	C	-0.945469	0.571934	-0.084635
C101	C	-0.612136	0.905267	0.248699
C102	C	-0.278803	1.238600	0.582032
C103	C	-0.947777	0.668570	-0.084701
C104	C	-0.614443	1.001903	0.248633
C105	C	-0.281110	1.335236	0.581966
C106	C	-0.945863	0.668937	0.083676
C107	C	-0.612530	1.002270	0.417010
C108	C	-0.279196	1.335603	0.750343
C109	C	-0.945885	0.571991	0.084789
C110	C	-0.612551	0.905325	0.418122
C111	C	-0.279218	1.238658	0.751455
C112	C	-0.989088	0.436166	-0.000096
C113	C	-0.655755	0.769499	0.333237
C114	C	-0.322422	1.102832	0.666571
C115	C	-0.995384	0.793122	-0.000083
C116	C	-0.662050	1.126455	0.333250
C117	C	-0.328717	1.459789	0.666583
N118	N	-0.992216	0.114664	0.230588
N119	N	-0.658882	0.447998	0.563921
N120	N	-0.325549	0.781331	0.897254
C121	C	-0.932473	0.173983	0.470269
C122	C	-0.599139	0.507316	0.803602
C123	C	-0.265806	0.840649	1.136935
C124	C	-0.916366	0.098261	0.529609
C125	C	-0.583032	0.431595	0.862942
C126	C	-0.249699	0.764928	1.196276
C127	C	-0.992232	0.114646	0.412194
C128	C	-0.658899	0.447980	0.745528
C129	C	-0.325566	0.781313	1.078861
C130	C	-1.008316	0.190351	0.529596
C131	C	-0.674983	0.523684	0.862929
C132	C	-0.341649	0.857017	1.196263
C133	C	-0.992246	0.114636	0.587618
C134	C	-0.658913	0.447969	0.920952
C135	C	-0.325580	0.781302	1.254285
C136	C	-0.976088	0.038887	0.470228
C137	C	-0.642755	0.372220	0.803562
C138	C	-0.309421	0.705553	1.136895
C139	C	-1.068071	0.131026	0.470210
C140	C	-0.734738	0.464359	0.803543
C141	C	-0.401404	0.797692	1.136877
C142	C	-1.051997	0.055250	0.529523
C143	C	-0.718663	0.388583	0.862857
C144	C	-0.385330	0.721916	1.196190
C145	C	-0.992222	0.114654	0.311137
C146	C	-0.658889	0.447987	0.644470
C147	C	-0.325555	0.781320	0.977804
C148	C	-0.992257	0.114620	0.688674
C149	C	-0.658924	0.447953	1.022007
C150	C	-0.325591	0.781286	1.355340
H151	H	-0.563907	-0.031473	0.000008
H152	H	-0.230574	0.301861	0.333341
H153	H	0.102760	0.635194	0.666675
Cl154	Cl	-0.402721	0.297291	0.000016
Cl155	Cl	-0.069388	0.630624	0.333350
Cl156	Cl	0.263946	0.963957	0.666683
H157	H	-0.535073	0.189026	-0.134785
H158	H	-0.201740	0.522359	0.198549
H159	H	0.131593	0.855692	0.531882
Cl160	Cl	-0.992207	0.700664	0.182616
Cl161	Cl	-0.658874	1.033997	0.515949
Cl162	Cl	-0.325541	1.367331	0.849283
H163	H	-0.534875	0.189052	0.134769
H164	H	-0.201542	0.522385	0.468102
H165	H	0.131791	0.855719	0.801436
H166	H	-0.976946	0.543559	-0.147560
H167	H	-0.643613	0.876892	0.185773
H168	H	-0.310279	1.210225	0.519106
Cl169	Cl	-0.996939	0.529850	0.181358
Cl170	Cl	-0.663606	0.863183	0.514691
Cl171	Cl	-0.330273	1.196517	0.848025
H172	H	-1.119750	0.526439	-0.060818
H173	H	-0.786417	0.859772	0.272515
H174	H	-0.453084	1.193106	0.605849
Cl175	Cl	-1.142227	0.679611	0.093850
Cl176	Cl	-0.808894	1.012944	0.427183
Cl177	Cl	-0.475561	1.346278	0.760517
Cl178	Cl	-0.841315	0.717962	0.084567
Cl179	Cl	-0.507981	1.051295	0.417900
Cl180	Cl	-0.174648	1.384628	0.751233
Cl181	Cl	-0.854392	0.251374	0.430094
Cl182	Cl	-0.521058	0.584707	0.763427
Cl183	Cl	-0.187725	0.918040	1.096760
Cl184	Cl	-0.998787	0.696827	-0.182286
Cl185	Cl	-0.665454	1.030160	0.151047
Cl186	Cl	-0.332121	1.363494	0.484381
H187	H	-0.852238	0.084401	0.555706
H188	H	-0.518905	0.417734	0.889039
H189	H	-0.185571	0.751067	1.222372
H190	H	-0.962415	-0.025154	0.444260
H191	H	-0.629081	0.308179	0.777593
H192	H	-0.295748	0.641513	1.110927
H193	H	-1.122141	0.670665	-0.060000
H194	H	-0.788808	1.003998	0.273334
H195	H	-0.455474	1.337332	0.606667
H196	H	-1.102543	0.005011	0.555377
H197	H	-0.769209	0.338345	0.888710
H198	H	-0.435876	0.671678	1.222044
H199	H	-1.021925	0.254379	0.555658
H200	H	-0.688591	0.587713	0.888991
H201	H	-0.355258	0.921046	1.222324
Cl202	Cl	-0.438487	0.021655	0.168212
Cl203	Cl	-0.105154	0.354988	0.501545
Cl204	Cl	0.228180	0.688321	0.834878
Cl205	Cl	-0.839825	0.550122	-0.089483
Cl206	Cl	-0.506491	0.883455	0.243851
Cl207	Cl	-0.173158	1.216789	0.577184
H208	H	-1.119507	0.525887	0.060502
H209	H	-0.786173	0.859221	0.393835
H210	H	-0.452840	1.192554	0.727169
H211	H	-1.132179	0.144915	0.444098
H212	H	-0.798845	0.478248	0.777431
H213	H	-0.465512	0.811581	1.110764
H214	H	-0.880348	0.700814	-0.088538
H215	H	-0.547014	1.034147	0.244796
H216	H	-0.213681	1.367480	0.578129
Cl217	Cl	-0.438580	0.021611	-0.168347
Cl218	Cl	-0.105246	0.354945	0.164986
Cl219	Cl	0.228087	0.688278	0.498319
H220	H	-0.877966	0.556621	0.089904
H221	H	-0.544633	0.889955	0.423237
H222	H	-0.211299	1.223288	0.756571
