data_functionalizedCrystal
_audit_creation_method	'MofGen! by Chris Wilmer'
_symmetry_space_group_name_H-M	'P1'
_symmetry_Int_Tables_number	1
_symmetry_cell_setting	triclinic
loop_
_symmetry_equiv_pos_as_xyz
  x,y,z
_cell_length_a	13.032831
_cell_length_b	21.295417
_cell_length_c	13.033288
_cell_angle_alpha	97.193221
_cell_angle_beta	105.167499
_cell_angle_gamma	82.834379
loop_
_atom_site_label
_atom_site_type_symbol
_atom_site_fract_x
_atom_site_fract_y
_atom_site_fract_z
Zn1	Zn	1.699838	-0.319299	0.806346
Zn2	Zn	2.199838	0.180701	1.306346
Zn3	Zn	1.677156	-0.436393	0.628699
Zn4	Zn	2.177156	0.063607	1.128699
Zn5	Zn	1.499699	-0.319260	0.606236
Zn6	Zn	1.999699	0.180740	1.106236
Zn7	Zn	1.522152	-0.412645	0.783751
Zn8	Zn	2.022152	0.087355	1.283751
O9	O	1.599711	-0.371899	0.706258
O10	O	2.099711	0.128101	1.206258
O11	O	1.845458	-0.344786	0.801638
O12	O	2.345458	0.155214	1.301638
O13	O	1.634726	-0.430778	0.477082
O14	O	2.134726	0.069222	0.977082
O15	O	1.526344	-0.231179	0.632837
O16	O	2.026344	0.268821	1.132837
O17	O	1.828793	-0.430815	0.671121
O18	O	2.328793	0.069185	1.171121
O19	O	1.673385	-0.231207	0.779857
O20	O	2.173385	0.268793	1.279857
O21	O	1.504350	-0.344721	0.460579
O22	O	2.004350	0.155279	0.960579
O23	O	1.354049	-0.321693	0.610927
O24	O	1.854049	0.178307	1.110927
O25	O	1.564611	-0.390340	0.935385
O26	O	2.064611	0.109660	1.435385
O27	O	1.370545	-0.390302	0.741346
O28	O	1.870545	0.109698	1.241346
O29	O	1.695157	-0.321759	0.951986
O30	O	2.195157	0.178241	1.451986
O31	O	1.656498	-0.521329	0.649211
O32	O	2.156498	-0.021329	1.149211
O33	O	1.542617	-0.503882	0.763127
O34	O	2.042617	-0.003882	1.263127
C35	C	1.323759	-0.353417	0.671248
C36	C	1.823759	0.146583	1.171248
C37	C	1.205709	-0.345524	0.656296
C38	C	1.705709	0.154476	1.156296
C39	C	1.161255	-0.376019	0.714062
C40	C	1.661255	0.123981	1.214062
C41	C	1.039244	-0.367862	0.698609
C42	C	1.539244	0.132138	1.198609
C43	C	1.599564	-0.535446	0.706182
C44	C	2.099564	-0.035446	1.206182
C45	C	1.599603	-0.605415	0.706197
C46	C	2.099603	-0.105415	1.206197
C47	C	1.658970	-0.647346	0.646958
C48	C	2.158970	-0.147346	1.146958
C49	C	1.659023	-0.713090	0.646988
C50	C	2.159023	-0.213090	1.146988
C51	C	1.599689	-0.736901	0.706244
C52	C	2.099689	-0.236901	1.206244
C53	C	1.540319	-0.694962	0.765495
C54	C	2.040319	-0.194962	1.265495
C55	C	1.540276	-0.629219	0.765472
C56	C	2.040276	-0.129219	1.265472
N57	N	1.507803	-0.833408	0.702553
N58	N	2.007803	-0.333408	1.202553
N59	N	1.507846	-0.895862	0.702569
N60	N	2.007846	-0.395862	1.202569
C61	C	1.599815	-0.934979	0.706320
C62	C	2.099815	-0.434979	1.206320
N63	N	1.691740	-0.909286	0.710032
N64	N	2.191740	-0.409286	1.210032
N65	N	1.691695	-0.846827	0.710010
N66	N	2.191695	-0.346827	1.210010
C67	C	1.599729	-0.808187	0.706276
C68	C	2.099729	-0.308187	1.206276
C69	C	1.659245	-1.048198	0.647111
C70	C	2.159245	-0.548198	1.147111
C71	C	1.659300	-1.113943	0.647149
C72	C	2.159300	-0.613943	1.147149
C73	C	1.540586	-1.095813	0.765649
C74	C	2.040586	-0.595813	1.265649
C75	C	1.540540	-1.030069	0.765618
C76	C	2.040540	-0.530069	1.265618
C77	C	1.599868	-1.006266	0.706343
C78	C	2.099868	-0.506266	1.206343
C79	C	1.876741	-0.390454	0.741406
C80	C	2.376741	0.109546	1.241406
C81	C	1.994794	-0.398361	0.756383
C82	C	2.494794	0.101639	1.256383
C83	C	1.634919	-0.353404	0.983303
C84	C	2.134919	0.146596	1.483303
C85	C	1.649922	-0.345523	1.101363
C86	C	2.149922	0.154477	1.601363
C87	C	1.599890	-0.207715	0.706362
C88	C	2.099890	0.292285	1.206362
C89	C	1.599967	-0.137749	0.706406
C90	C	2.099967	0.362251	1.206406
C91	C	1.607524	-0.367800	1.267805
C92	C	2.107524	0.132200	1.767805
C93	C	1.592014	-0.375946	1.145784
C94	C	2.092014	0.124054	1.645784
C95	C	1.564631	-0.390336	1.430290
C96	C	2.064631	0.109664	1.930290
C97	C	1.549623	-0.398218	1.312229
C98	C	2.049623	0.101782	1.812229
H99	H	1.213526	-0.408164	0.774961
H100	H	1.713526	0.091836	1.274961
H101	H	1.153439	-0.313374	0.595405
H102	H	1.653439	0.186626	1.095405
C103	C	1.475255	-0.983944	0.830810
C104	C	1.975255	-0.483944	1.330810
N105	N	1.426093	-0.949202	0.879931
N106	N	1.926093	-0.449202	1.379931
C107	C	1.467141	-0.441548	1.241576
C108	C	1.967141	0.058452	1.741576
N109	N	1.405012	-0.474183	1.188360
N110	N	1.905012	0.025817	1.688360
C111	C	0.968638	-0.324428	0.616336
C112	C	1.468638	0.175572	1.116336
N113	N	0.915456	-0.291715	0.554369
N114	N	1.415456	0.208285	1.054369
C115	C	1.509527	-0.419277	1.075133
C116	C	2.009527	0.080723	1.575133
N117	N	1.447398	-0.451913	1.021918
N118	N	1.947398	0.048087	1.521918
C119	C	1.065399	-0.441794	0.838658
C120	C	1.565399	0.058206	1.338658
N121	N	1.118578	-0.474509	0.900625
N122	N	1.618578	0.025491	1.400625
H123	H	1.707651	-1.148083	0.598912
H124	H	2.207651	-0.648083	1.098912
H125	H	1.707557	-1.028816	0.598849
H126	H	2.207557	-0.528816	1.098849
H127	H	1.707281	-0.627967	0.598696
H128	H	2.207281	-0.127967	1.098696
C129	C	1.474980	-0.583093	0.830657
C130	C	1.974980	-0.083093	1.330657
N131	N	1.425802	-0.548351	0.879761
N132	N	1.925802	-0.048351	1.379761
H133	H	1.707370	-0.747236	0.598749
H134	H	2.207370	-0.247236	1.098749
C135	C	1.475319	-1.122001	0.830833
C136	C	1.975319	-0.622001	1.330833
N137	N	1.426160	-1.141729	0.879934
N138	N	1.926160	-0.641729	1.379934
C139	C	1.475046	-0.721155	0.830672
C140	C	1.975046	-0.221155	1.330672
N141	N	1.425882	-0.740883	0.879767
N142	N	1.925882	-0.240883	1.379767
C143	C	1.689998	-0.324465	1.338458
C144	C	2.189998	0.175535	1.838458
N145	N	1.752117	-0.291822	1.391672
N146	N	2.252117	0.208178	1.891672
H147	H	1.710982	-0.313450	1.153661
H148	H	2.210982	0.186550	1.653661
