data_functionalizedCrystal
_audit_creation_method	'MofGen! by Chris Wilmer'
_symmetry_space_group_name_H-M	'P1'
_symmetry_Int_Tables_number	1
_symmetry_cell_setting	triclinic
loop_
_symmetry_equiv_pos_as_xyz
  x,y,z
_cell_length_a	18.101398
_cell_length_b	18.101396
_cell_length_c	21.395355
_cell_angle_alpha	89.984906
_cell_angle_beta	90.029870
_cell_angle_gamma	89.967710
loop_
_atom_site_label
_atom_site_type_symbol
_atom_site_fract_x
_atom_site_fract_y
_atom_site_fract_z
Zn1	Zn	1.132131	0.295009	0.354365
Zn2	Zn	1.632131	0.795009	0.854365
Zn3	Zn	1.132002	0.418832	0.249594
Zn4	Zn	1.632002	0.918832	0.749594
Zn5	Zn	1.008278	0.294999	0.249592
Zn6	Zn	1.508278	0.794999	0.749592
Zn7	Zn	1.008228	0.418803	0.354324
Zn8	Zn	1.508228	0.918803	0.854324
O9	O	1.070160	0.356911	0.301969
O10	O	1.570160	0.856911	0.801969
O11	O	1.235747	0.311451	0.340485
O12	O	1.735747	0.811451	0.840485
O13	O	1.115557	0.402413	0.161916
O14	O	1.615557	0.902413	0.661916
O15	O	1.024782	0.191367	0.263507
O16	O	1.524782	0.691367	0.763507
O17	O	1.235652	0.402423	0.263510
O18	O	1.735652	0.902423	0.763510
O19	O	1.115777	0.191375	0.340483
O20	O	1.615777	0.691375	0.840483
O21	O	1.024657	0.311434	0.161914
O22	O	1.524657	0.811434	0.661914
O23	O	0.904638	0.311405	0.263467
O24	O	1.404638	0.811405	0.763467
O25	O	1.024697	0.402373	0.442008
O26	O	1.524697	0.902373	0.942008
O27	O	0.904602	0.402364	0.340414
O28	O	1.404602	0.902364	0.840414
O29	O	1.115728	0.311422	0.442038
O30	O	1.615728	0.811422	0.942038
O31	O	1.115508	0.522461	0.263470
O32	O	1.615508	1.022461	0.763470
O33	O	1.024572	0.522440	0.340415
O34	O	1.524572	1.022440	0.840415
C35	C	0.877749	0.356881	0.301936
C36	C	1.377749	0.856881	0.801936
C37	C	0.795435	0.356886	0.301937
C38	C	1.295435	0.856886	0.801937
C39	C	1.070041	0.549321	0.301952
C40	C	1.570041	1.049321	0.801952
C41	C	1.070058	0.631635	0.301966
C42	C	1.570058	1.131635	0.801966
C43	C	0.496344	0.356932	0.301990
C44	C	0.996344	0.856932	0.801990
C45	C	0.527668	0.299417	0.253813
C46	C	1.027668	0.799417	0.753813
C47	C	0.613286	0.299572	0.253608
C48	C	1.113286	0.799572	0.753608
C49	C	0.644727	0.356908	0.301964
C50	C	1.144727	0.856908	0.801964
C51	C	0.613598	0.434916	0.283925
C52	C	1.113598	0.934916	0.783925
C53	C	0.527953	0.434596	0.283590
C54	C	1.027953	0.934596	0.783590
C55	C	0.527968	0.337117	0.368318
C56	C	1.027968	0.837117	0.868318
C57	C	0.613619	0.335380	0.367956
C58	C	1.113619	0.835380	0.867956
C59	C	0.728586	0.356900	0.301950
C60	C	1.228586	0.856900	0.801950
C61	C	0.412485	0.356946	0.302002
C62	C	0.912485	0.856946	0.802002
C63	C	1.070189	0.930726	0.302003
C64	C	1.570189	1.430726	0.802003
C65	C	1.013111	0.899418	0.350534
C66	C	1.513111	1.399418	0.850534
C67	C	1.012848	0.813800	0.350382
C68	C	1.512848	1.313800	0.850382
C69	C	1.070124	0.782344	0.301985
C70	C	1.570124	1.282344	0.801985
C71	C	1.048984	0.813478	0.235950
C72	C	1.548984	1.313478	0.735950
C73	C	1.048607	0.899123	0.236242
C74	C	1.548607	1.399123	0.736242
C75	C	1.148536	0.899081	0.318924
C76	C	1.648536	1.399081	0.818924
C77	C	1.148085	0.813430	0.320371
C78	C	1.648085	1.313430	0.820371
C79	C	1.070088	0.698484	0.301971
C80	C	1.570088	1.198484	0.801971
C81	C	1.070223	1.014586	0.302012
C82	C	1.570223	1.514586	0.802012
C83	C	1.263322	0.356941	0.302002
C84	C	1.763322	0.856941	0.802002
C85	C	1.345636	0.356955	0.302016
C86	C	1.845636	0.856955	0.802016
C87	C	1.070221	0.356896	0.465392
C88	C	1.570221	0.856896	0.965392
C89	C	1.070247	0.356889	0.535034
C90	C	1.570247	0.856889	1.035034
C91	C	1.070273	1.163749	0.302002
C92	C	1.570273	1.663749	0.802002
C93	C	1.070256	1.081435	0.302022
C94	C	1.570256	1.581435	0.802022
C95	C	1.070141	0.356872	0.139181
C96	C	1.570141	0.856872	0.639181
C97	C	1.070259	0.356670	0.069540
C98	C	1.570259	0.856670	0.569540
C99	C	1.117645	0.309529	0.567763
C100	C	1.617645	0.809529	1.067763
C101	C	1.117644	0.309497	0.633199
C102	C	1.617644	0.809497	1.133199
C103	C	1.070253	0.356839	0.665902
C104	C	1.570253	0.856839	1.165902
C105	C	1.022846	0.404202	0.633164
C106	C	1.522846	0.904202	1.133164
C107	C	1.022843	0.404228	0.567730
C108	C	1.522843	0.904228	1.067730
C109	C	1.064364	0.423520	0.769570
C110	C	1.564364	0.923520	1.269570
C111	C	1.064373	0.423496	0.835003
C112	C	1.564373	0.923496	1.335003
C113	C	1.070258	0.356761	0.867723
C114	C	1.570258	0.856761	1.367723
C115	C	1.076151	0.290047	0.835001
C116	C	1.576151	0.790047	1.335001
C117	C	1.076148	0.290073	0.769567
C118	C	1.576148	0.790073	1.269567
C119	C	1.070251	0.356816	0.736854
C120	C	1.570251	0.856816	1.236854
C121	C	1.117657	0.309362	0.971405
C122	C	1.617657	0.809362	1.471405
C123	C	1.117651	0.309329	1.036842
C124	C	1.617651	0.809329	1.536842
C125	C	1.022857	0.404040	1.036806
C126	C	1.522857	0.904040	1.536806
C127	C	1.022859	0.404067	0.971371
C128	C	1.522859	0.904067	1.471371
C129	C	1.070263	0.356729	0.938674
C130	C	1.570263	0.856729	1.438674
H131	H	0.634334	0.241725	0.264915
H132	H	1.134334	0.741725	0.764915
C133	C	1.205970	0.926355	0.271132
C134	C	1.705970	1.426355	0.771132
H135	H	1.182361	0.956889	0.241017
H136	H	1.682361	1.456889	0.741017
H137	H	1.227802	0.885120	0.250810
H138	H	1.727802	1.385120	0.750810
H139	H	1.243168	0.953878	0.292074
H140	H	1.743168	1.453878	0.792074
H141	H	1.167803	0.920641	0.366257
H142	H	1.667803	1.420641	0.866257
H143	H	1.026202	0.919979	0.399657
H144	H	1.526202	1.419979	0.899657
C145	C	1.030690	0.785358	0.416531
C146	C	1.530690	1.285358	0.916531
H147	H	1.038163	0.826146	0.443739
H148	H	1.538163	1.326146	0.943739
H149	H	1.074216	0.756057	0.415260
H150	H	1.574216	1.256057	0.915260
H151	H	0.990678	0.756334	0.431410
H152	H	1.490678	1.256334	0.931410
H153	H	0.507934	0.451402	0.235100
H154	H	1.007934	0.951402	0.735100
C155	C	0.934407	0.786191	0.335238
C156	C	1.434407	1.286191	0.835238
H157	H	0.933976	0.733709	0.335099
H158	H	1.433976	1.233709	0.835099
H159	H	0.919916	0.803975	0.295293
H160	H	1.419916	1.303975	0.795293
H161	H	0.900933	0.803848	0.365990
H162	H	1.400933	1.303848	0.865990
H163	H	1.088377	0.919835	0.198848
H164	H	1.588377	1.419835	0.698848
H165	H	0.991336	0.919158	0.221908
H166	H	1.491336	1.419158	0.721908
C167	C	0.970726	0.456169	0.935366
C168	C	1.470726	0.956169	1.435366
H169	H	0.942504	0.484364	0.964213
H170	H	1.442504	0.984364	1.464213
H171	H	0.938479	0.427845	0.909825
H172	H	1.438479	0.927845	1.409825
H173	H	0.999035	0.488454	0.909855
H174	H	1.499035	0.988454	1.409855
C175	C	1.082620	0.216696	0.733572
C176	C	1.582620	0.716696	1.233572
H177	H	1.081780	0.226273	0.689917
H178	H	1.581780	0.726273	1.189917
H179	H	1.042357	0.185535	0.744277
H180	H	1.542357	0.685535	1.244277
H181	H	1.127727	0.193018	0.744310
H182	H	1.627727	0.693018	1.244310
H183	H	0.506404	0.281225	0.384720
H184	H	1.006404	0.781225	0.884720
C185	C	0.970732	0.456120	1.072772
C186	C	1.470732	0.956120	1.572772
H187	H	0.977526	0.449327	1.116430
H188	H	1.477526	0.949327	1.616430
H189	H	0.920980	0.445285	1.062028
H190	H	1.420980	0.945285	1.562028
H191	H	0.981545	0.505885	1.062053
H192	H	1.481545	1.005885	1.562053
C193	C	0.499954	0.494383	0.328979
C194	C	0.999954	0.994383	0.828979
H195	H	0.540925	0.518770	0.347531
H196	H	1.040925	1.018770	0.847531
H197	H	0.470851	0.471984	0.360679
H198	H	0.970851	0.971984	0.860679
H199	H	0.470824	0.529272	0.306739
H200	H	0.970824	1.029272	0.806739
H201	H	1.089254	0.793102	0.198804
H202	H	1.589254	1.293102	0.698804
H203	H	0.992324	0.792085	0.221360
H204	H	1.492324	1.292085	0.721360
C205	C	0.498545	0.316898	0.187803
C206	C	0.998545	0.816898	0.687803
H207	H	0.517732	0.281888	0.158986
H208	H	1.017732	0.781888	0.658986
H209	H	0.513810	0.365112	0.175968
H210	H	1.013810	0.865112	0.675968
H211	H	0.446121	0.314466	0.187732
H212	H	0.946121	0.814466	0.687732
C213	C	0.641133	0.257845	0.386350
C214	C	1.141133	0.757845	0.886350
H215	H	0.622135	0.245140	0.426314
H216	H	1.122135	0.745140	0.926314
H217	H	0.693586	0.257698	0.387747
H218	H	1.193586	0.757698	0.887747
H219	H	0.624649	0.222864	0.356339
H220	H	1.124649	0.722864	0.856339
C221	C	1.169783	0.257402	0.669212
C222	C	1.669783	0.757402	1.169212
H223	H	1.162991	0.264164	0.712865
H224	H	1.662991	0.764164	1.212865
H225	H	1.219533	0.268254	0.658510
H226	H	1.719533	0.768254	1.158510
H227	H	1.158980	0.207642	0.658483
H228	H	1.658980	0.707642	1.158483
C229	C	1.169782	0.257453	0.531800
C230	C	1.669782	0.757453	1.031800
H231	H	1.198006	0.229238	0.560669
H232	H	1.698006	0.729238	1.060669
H233	H	1.202027	0.285796	0.506287
H234	H	1.702027	0.785796	1.006287
H235	H	1.141471	0.225186	0.506264
H236	H	1.641471	0.725186	1.006264
C237	C	1.083106	0.216679	0.870983
C238	C	1.583106	0.716679	1.370983
H239	H	1.082402	0.226228	0.914639
H240	H	1.582402	0.726228	1.414639
H241	H	1.128325	0.193335	0.860125
H242	H	1.628325	0.693335	1.360125
H243	H	1.043014	0.185228	0.860390
H244	H	1.543014	0.685228	1.360390
H245	H	1.156252	0.270812	0.944782
H246	H	1.656252	0.770812	1.444782
C247	C	1.169630	0.785930	0.386017
C248	C	1.669630	1.285930	0.886017
H249	H	1.131281	0.755626	0.402156
H250	H	1.631281	1.255626	0.902156
H251	H	1.176852	0.827069	0.412886
H252	H	1.676852	1.327069	0.912886
H253	H	1.214047	0.758110	0.383503
H254	H	1.714047	1.258110	0.883503
C255	C	0.642520	0.387855	0.419046
C256	C	1.142520	0.887855	0.919046
H257	H	0.674074	0.423743	0.400716
H258	H	1.174074	0.923743	0.900716
H259	H	0.669303	0.360318	0.449323
H260	H	1.169303	0.860318	0.949323
H261	H	0.602005	0.411897	0.438610
H262	H	1.102005	0.911897	0.938610
C263	C	1.169792	0.257230	1.072845
C264	C	1.669792	0.757230	1.572845
H265	H	1.198026	0.229049	1.043998
H266	H	1.698026	0.729049	1.543998
H267	H	1.141491	0.224945	1.098356
H268	H	1.641491	0.724945	1.598356
H269	H	1.202038	0.285563	1.098386
H270	H	1.702038	0.785563	1.598386
C271	C	1.057900	0.496875	0.870994
C272	C	1.557900	0.996875	1.370994
H273	H	1.058757	0.487304	0.914650
H274	H	1.558757	0.987304	1.414650
H275	H	1.012798	0.520553	0.860257
H276	H	1.512798	1.020553	1.360257
H277	H	1.098168	0.528034	0.860284
H278	H	1.598168	1.028034	1.360284
H279	H	1.192866	0.792013	0.287600
H280	H	1.692866	1.292013	0.787600
C281	C	0.499870	0.221035	0.268902
C282	C	0.999870	0.721035	0.768902
H283	H	0.468909	0.222681	0.304717
H284	H	0.968909	0.722681	0.804717
H285	H	0.540856	0.189642	0.276954
H286	H	1.040856	0.689642	0.776954
H287	H	0.472671	0.202431	0.234342
H288	H	0.972671	0.702431	0.734342
H289	H	0.635006	0.452013	0.235959
H290	H	1.135006	0.952013	0.735959
C291	C	1.057729	0.496919	0.733585
C292	C	1.557729	0.996919	1.233585
H293	H	1.054182	0.536642	0.762443
H294	H	1.554182	1.036642	1.262443
H295	H	1.014762	0.495854	0.708092
H296	H	1.514762	0.995854	1.208092
H297	H	1.100113	0.503543	0.708027
H298	H	1.600113	1.003543	1.208027
H299	H	0.507712	0.379009	0.404214
H300	H	1.007712	0.879009	0.904214
H301	H	0.984243	0.442793	0.541082
H302	H	1.484243	0.942793	1.041082
C303	C	0.640913	0.317258	0.187212
C304	C	1.140913	0.817258	0.687212
H305	H	0.599793	0.324385	0.160262
H306	H	1.099793	0.824385	0.660262
H307	H	0.670055	0.277350	0.172258
H308	H	1.170055	0.777350	0.672258
H309	H	0.669927	0.360961	0.188153
H310	H	1.169927	0.860961	0.688153
C311	C	0.641111	0.494361	0.329837
C312	C	1.141111	0.994361	0.829837
H313	H	0.671903	0.472080	0.360486
H314	H	1.171903	0.972080	0.860486
H315	H	0.599997	0.516990	0.349701
H316	H	1.099997	1.016990	0.849701
H317	H	0.668423	0.530680	0.307646
H318	H	1.168423	1.030680	0.807646
C319	C	0.935135	0.928560	0.335582
C320	C	1.435135	1.428560	0.835582
H321	H	0.937213	0.959721	0.299890
H322	H	1.437213	1.459721	0.799890
H323	H	0.916941	0.955810	0.370255
H324	H	1.416941	1.455810	0.870255
H325	H	0.903146	0.888120	0.327362
H326	H	1.403146	1.388120	0.827362
H327	H	0.984258	0.442746	0.659795
H328	H	1.484258	0.942746	1.159795
