data_functionalizedCrystal
_audit_creation_method	'MofGen! by Chris Wilmer'
_symmetry_space_group_name_H-M	'P1'
_symmetry_Int_Tables_number	1
_symmetry_cell_setting	triclinic
loop_
_symmetry_equiv_pos_as_xyz
  x,y,z
_cell_length_a	6.394989
_cell_length_b	10.723024
_cell_length_c	9.198806
_cell_angle_alpha	90.003648
_cell_angle_beta	90.000201
_cell_angle_gamma	85.482790
loop_
_atom_site_label
_atom_site_type_symbol
_atom_site_fract_x
_atom_site_fract_y
_atom_site_fract_z
O1	O	-0.293022	-1.660298	-0.120873
O2	O	-0.321070	-1.297443	-0.120877
O3	O	-0.003055	-1.484021	-0.120876
O4	O	-0.611036	-1.473720	-0.120874
O5	O	-0.003054	-1.484006	0.120909
O6	O	-0.321069	-1.297428	0.120908
O7	O	-0.293021	-1.660282	0.120912
Cu8	Cu	-0.307045	-1.478854	0.142987
Cu9	Cu	-0.307046	-1.478872	-0.142952
O10	O	-0.611035	-1.473705	0.120911
C11	C	-0.319028	-1.250914	0.000015
C12	C	-0.312921	-1.112295	0.000013
C13	C	-0.295062	-1.706811	0.000017
C14	C	-0.301169	-1.845430	0.000010
N15	N	-0.307043	-1.478850	0.344101
C16	C	0.074796	-1.481977	0.000011
C17	C	0.311120	-1.475752	0.000010
N18	N	-0.307031	-1.478885	-0.344066
C19	C	-0.490865	-1.039201	0.000013
C20	C	-0.484558	-0.895931	0.000011
C21	C	-0.172929	-1.557183	0.416299
C22	C	-0.172922	-1.557202	0.583711
H23	H	-0.647879	-1.082689	0.000022
H24	H	-0.421866	-1.411822	0.593857
H25	H	-0.155907	-1.068806	-0.000025
C26	C	-0.017778	-1.647744	0.332372
N27	N	0.099096	-1.715952	0.269160
C28	C	-0.095356	-0.930281	0.000014
N29	N	0.059663	-0.994200	0.000021
C30	C	-0.462151	-1.388262	0.428028
N31	N	-0.578982	-1.320028	0.491240
C32	C	-0.017798	-1.647804	0.667585
N33	N	0.099049	-1.716047	0.730762
H34	H	-0.636892	-0.833115	0.000005
