data_functionalizedCrystal
_audit_creation_method	'MofGen! by Chris Wilmer'
_symmetry_space_group_name_H-M	'P1'
_symmetry_Int_Tables_number	1
_symmetry_cell_setting	triclinic
loop_
_symmetry_equiv_pos_as_xyz
  x,y,z
_cell_length_a	10.654545
_cell_length_b	15.995350
_cell_length_c	9.730223
_cell_angle_alpha	89.997832
_cell_angle_beta	89.997167
_cell_angle_gamma	83.987727
loop_
_atom_site_label
_atom_site_type_symbol
_atom_site_fract_x
_atom_site_fract_y
_atom_site_fract_z
O1	O	1.666306	0.117584	-0.114269
O2	O	1.300681	0.128793	-0.114274
O3	O	1.493488	0.001359	-0.114270
O4	O	1.473499	0.245018	-0.114273
O5	O	1.493476	0.001355	0.114310
O6	O	1.300668	0.128789	0.114306
O7	O	1.666294	0.117581	0.114311
Zn8	Zn	1.483479	0.123184	0.150601
Zn9	Zn	1.483495	0.123189	-0.150563
O10	O	1.473486	0.245015	0.114307
C11	C	1.253887	0.127969	0.000015
C12	C	1.114476	0.125509	0.000013
C13	C	1.048980	0.124349	0.124613
C14	C	0.917991	0.122024	0.124613
C15	C	0.918005	0.122022	-0.124597
C16	C	1.048992	0.124341	-0.124596
C17	C	1.492655	-0.029842	0.000017
C18	C	1.490178	-0.122807	0.000010
C19	C	1.481281	-0.460606	0.000014
C20	C	1.343967	-0.413968	-0.000500
C21	C	1.346445	-0.317264	0.000015
C22	C	1.485694	-0.293020	0.000011
C23	C	1.553415	-0.333707	0.130540
C24	C	1.549965	-0.430363	0.130649
C25	C	1.552816	-0.430700	-0.129289
C26	C	1.552784	-0.333755	-0.131014
C27	C	1.488195	-0.198308	0.000014
C28	C	1.478783	-0.555319	0.000021
C29	C	1.713087	0.118405	0.000019
C30	C	1.852499	0.120865	0.000012
C31	C	1.474319	0.276216	0.000017
C32	C	1.476797	0.369181	0.000016
N33	N	1.483477	0.123181	0.356137
N34	N	1.483507	0.123186	-0.356100
C35	C	1.568881	0.066777	0.428065
C36	C	1.568894	0.066777	0.571948
C37	C	1.398094	0.179593	0.571963
C38	C	1.398077	0.179587	0.428082
H39	H	0.864669	0.121080	0.226075
H40	H	1.503271	-0.306792	-0.227576
H41	H	1.654330	-0.317805	-0.138898
C42	C	1.661421	0.005443	0.650113
C43	C	1.594547	-0.046246	0.732705
C44	C	1.679743	-0.102768	0.804715
H45	H	1.713729	0.035790	0.706341
H46	H	1.712257	-0.028198	0.586697
H47	H	1.543733	-0.012609	0.796113
H48	H	1.542244	-0.076612	0.676511
H49	H	1.730579	-0.136409	0.741299
H50	H	1.732046	-0.072413	0.860935
H51	H	1.634382	-0.137850	0.860752
C52	C	1.305492	0.240968	0.350054
C53	C	1.325872	0.323377	0.385002
C54	C	1.240619	0.379937	0.313137
H55	H	1.221631	0.231468	0.373593
H56	H	1.317716	0.232941	0.254047
H57	H	1.313638	0.331400	0.480987
H58	H	1.409715	0.332903	0.361459
H59	H	1.252843	0.371910	0.217130
H60	H	1.156765	0.370430	0.336681
H61	H	1.254443	0.435858	0.336829
H62	H	1.654057	-0.461875	-0.130169
H63	H	1.328565	0.225519	0.630555
C64	C	1.120213	0.125431	-0.259843
C65	C	1.209527	0.054842	-0.267129
C66	C	1.275148	0.055809	-0.391698
H67	H	1.161844	0.175020	-0.265155
H68	H	1.062503	0.124365	-0.334096
H69	H	1.267229	0.055916	-0.192896
H70	H	1.167929	0.005242	-0.261841
H71	H	1.217438	0.054743	-0.465951
H72	H	1.316772	0.105401	-0.396999
H73	H	1.335747	0.007912	-0.396663
H74	H	1.102292	0.125300	0.226078
C75	C	0.847034	0.120902	-0.259981
C76	C	0.864794	0.193366	-0.335166
C77	C	0.799449	0.192362	-0.459898
H78	H	0.759613	0.119401	-0.242330
H79	H	0.878101	0.072568	-0.311257
H80	H	0.833721	0.241687	-0.283901
H81	H	0.952200	0.194881	-0.352854
H82	H	0.830517	0.144028	-0.511174
H83	H	0.712033	0.190859	-0.442233
H84	H	0.811500	0.241523	-0.510931
C85	C	1.275347	-0.279923	-0.124781
C86	C	1.229776	-0.344432	-0.201336
C87	C	1.164251	-0.310069	-0.316296
H88	H	1.330578	-0.251322	-0.180161
H89	H	1.206560	-0.241463	-0.095445
H90	H	1.298554	-0.382877	-0.230673
H91	H	1.174529	-0.373038	-0.145996
H92	H	1.095464	-0.271608	-0.286960
H93	H	1.219490	-0.281468	-0.371665
H94	H	1.133313	-0.353831	-0.368246
C95	C	1.270956	-0.440611	0.123440
C96	C	1.164522	-0.477391	0.078825
C97	C	1.097250	-0.501958	0.192960
H98	H	1.245083	-0.392778	0.178312
H99	H	1.323395	-0.480177	0.176246
H100	H	1.112093	-0.437828	0.026041
H101	H	1.190359	-0.525233	0.023967
H102	H	1.149689	-0.541523	0.245766
H103	H	1.071386	-0.454120	0.247825
H104	H	1.025034	-0.526922	0.162704
H105	H	1.289089	-0.432817	-0.094105
H106	H	1.292843	-0.289711	0.093741
C107	C	1.484004	-0.454983	0.260791
C108	C	1.447635	-0.382862	0.338587
C109	C	1.386850	-0.405503	0.458473
H110	H	1.540007	-0.492599	0.313137
H111	H	1.411417	-0.481637	0.236992
H112	H	1.520213	-0.356221	0.362388
H113	H	1.391618	-0.345237	0.286282
H114	H	1.314263	-0.432156	0.434674
H115	H	1.442861	-0.443120	0.510807
H116	H	1.362156	-0.356572	0.511266
C117	C	1.684470	-0.472432	0.138638
C118	C	1.768479	-0.410790	0.143340
C119	C	1.892390	-0.449508	0.150726
H120	H	1.701970	-0.506842	0.059960
H121	H	1.694041	-0.506093	0.219158
H122	H	1.758914	-0.377144	0.062828
H123	H	1.751020	-0.376376	0.222014
H124	H	1.901961	-0.483169	0.231247
H125	H	1.909877	-0.483917	0.072046
H126	H	1.949405	-0.407690	0.153930
H127	H	1.655717	-0.318989	0.135392
H128	H	1.506369	-0.305600	0.227678
H129	H	1.507927	-0.451499	-0.228222
H130	H	1.638418	0.020846	0.369490
