data_functionalizedCrystal
_audit_creation_method	'MofGen! by Chris Wilmer'
_symmetry_space_group_name_H-M	'P1'
_symmetry_Int_Tables_number	1
_symmetry_cell_setting	triclinic
loop_
_symmetry_equiv_pos_as_xyz
  x,y,z
_cell_length_a	10.686220
_cell_length_b	12.759394
_cell_length_c	12.759395
_cell_angle_alpha	90.009677
_cell_angle_beta	85.636489
_cell_angle_gamma	94.396533
loop_
_atom_site_label
_atom_site_type_symbol
_atom_site_fract_x
_atom_site_fract_y
_atom_site_fract_z
Zn1	Zn	1.928964	-0.295030	0.470999
Zn2	Zn	1.928895	-0.470684	0.295322
Zn3	Zn	1.718003	-0.308512	0.308788
Zn4	Zn	1.717932	-0.484169	0.484413
O5	O	1.823448	-0.389599	0.389881
O6	O	2.105532	-0.307046	0.436446
O7	O	1.900920	-0.449171	0.150087
O8	O	1.746047	-0.159699	0.330328
O9	O	2.105480	-0.436098	0.307377
O10	O	1.901039	-0.149794	0.449504
O11	O	1.745979	-0.330023	0.159981
O12	O	1.541417	-0.343099	0.343334
O13	O	1.745925	-0.459081	0.629654
O14	O	1.541365	-0.472153	0.472365
O15	O	1.900970	-0.320121	0.619800
O16	O	1.900851	-0.619498	0.320383
O17	O	1.745857	-0.629405	0.459307
C18	C	1.495607	-0.410553	0.410767
C19	C	1.355354	-0.419543	0.419727
C20	C	1.823373	-0.662571	0.389860
C21	C	1.823456	-0.779343	0.389879
C22	C	1.984972	-0.768965	0.245310
C23	C	2.065762	-0.818635	0.173036
C24	C	2.065836	-0.928352	0.173060
C25	C	1.985113	-0.988402	0.245368
C26	C	1.904323	-0.938732	0.317642
C27	C	1.904255	-0.829012	0.317608
C28	C	1.742815	-0.949109	0.462214
C29	C	1.742733	-0.839392	0.462187
C30	C	1.662092	-1.009159	0.534522
C31	C	1.581293	-0.959489	0.606793
C32	C	1.581222	-0.849765	0.606765
C33	C	1.661942	-0.789722	0.534461
C34	C	2.152570	-0.368564	0.368913
C35	C	2.292823	-0.359600	0.359978
C36	C	1.823447	-0.389601	0.663914
C37	C	1.823446	-0.389602	0.780691
C38	C	1.823559	-0.115559	0.389922
C39	C	1.823606	0.001221	0.389940
C40	C	1.984904	-0.244912	0.989872
C41	C	2.065629	-0.172562	0.929879
C42	C	2.065629	-0.172556	0.820157
C43	C	1.984897	-0.244909	0.770426
C44	C	1.904172	-0.317259	0.830419
C45	C	1.904178	-0.317256	0.940143
C46	C	1.742721	-0.461952	0.840684
C47	C	1.742713	-0.461956	0.950406
C48	C	1.661989	-0.534306	0.790953
C49	C	1.581256	-0.606652	0.850946
C50	C	1.581258	-0.606655	0.960674
C51	C	1.661988	-0.534306	1.010399
C52	C	1.823441	-0.389616	1.116913
C53	C	1.823445	-0.389602	1.000137
H54	H	1.984903	-0.679629	0.245271
H55	H	1.346584	-0.301404	0.301968
C56	C	2.105249	-1.137788	0.264615
C57	C	1.985208	-1.109004	0.245397
H58	H	2.105307	-1.212243	0.264627
H59	H	2.126973	-1.111530	0.331029
H60	H	2.164874	-1.109123	0.211207
H61	H	1.925585	-1.137661	0.298809
H62	H	1.963469	-1.135273	0.178974
C63	C	1.782089	-0.553380	0.626164
C64	C	1.662042	-0.534283	0.670342
H65	H	1.782132	-0.553355	0.551703
H66	H	1.803853	-0.619787	0.649579
H67	H	1.841693	-0.499937	0.647238
H68	H	1.602439	-0.587731	0.649274
H69	H	1.640262	-0.467868	0.646917
H70	H	1.515437	-0.809330	0.665623
C71	C	2.137361	-0.645836	0.108786
C72	C	2.154486	-0.752627	0.093554
H73	H	2.192133	-0.605091	0.059713
H74	H	2.155762	-0.626637	0.178201
H75	H	2.052577	-0.633354	0.098756
H76	H	2.239269	-0.765111	0.103592
H77	H	2.136095	-0.771833	0.024123
H78	H	1.662164	-1.098495	0.534540
H79	H	1.661883	-0.700385	0.534425
C80	C	2.137320	-0.108307	1.093521
C81	C	2.154365	-0.093032	0.984545
H82	H	2.192099	-0.059205	1.127264
H83	H	2.155760	-0.177711	1.110308
H84	H	2.052542	-0.098347	1.116897
H85	H	2.239141	-0.103000	0.961167
H86	H	2.135933	-0.023611	0.967750
H87	H	1.301587	-0.477749	0.477734
H88	H	2.131365	-0.113644	0.771311
H89	H	1.515581	-1.008389	0.665664
H90	H	2.131629	-0.968793	0.114213
H91	H	1.984896	-0.244898	1.079213
C92	C	1.509576	-0.670895	0.687307
C93	C	1.492522	-0.686174	0.796282
H94	H	1.454787	-0.719985	0.653559
H95	H	1.594342	-0.680861	0.663934
H96	H	1.491144	-0.601478	0.670522
H97	H	1.510964	-0.755590	0.813067
H98	H	1.407738	-0.676217	0.819663
H99	H	1.984915	-0.244905	0.681084
C100	C	1.421666	-0.749682	0.959789
C101	C	1.492519	-0.686185	1.026615
H102	H	1.366876	-0.798776	1.000498
H103	H	1.476629	-0.786354	0.913489
H104	H	1.373424	-0.706977	0.920072
H105	H	1.540768	-0.728890	1.066327
H106	H	1.437549	-0.649511	1.072934
C107	C	1.694113	-0.632206	1.165503
C108	C	1.661990	-0.534313	1.131006
H109	H	1.694111	-0.632210	1.239962
H110	H	1.775525	-0.645157	1.135490
H111	H	1.634474	-0.685640	1.144467
H112	H	1.721635	-0.480879	1.152036
H113	H	1.580566	-0.521350	1.161031
