data_functionalizedCrystal
_audit_creation_method	'MofGen! by Chris Wilmer'
_symmetry_space_group_name_H-M	'P1'
_symmetry_Int_Tables_number	1
_symmetry_cell_setting	triclinic
loop_
_symmetry_equiv_pos_as_xyz
  x,y,z
_cell_length_a	14.519709
_cell_length_b	19.288864
_cell_length_c	12.996460
_cell_angle_alpha	89.980567
_cell_angle_beta	90.007090
_cell_angle_gamma	96.591805
loop_
_atom_site_label
_atom_site_type_symbol
_atom_site_fract_x
_atom_site_fract_y
_atom_site_fract_z
O1	O	0.115045	-0.921763	0.085899
O2	O	0.615045	-0.421763	0.585899
O3	O	0.130565	-0.719558	0.085829
O4	O	0.630565	-0.219558	0.585829
O5	O	-0.011467	-0.826022	0.085857
O6	O	0.488533	-0.326022	0.585857
O7	O	0.257077	-0.815300	0.085871
O8	O	0.757077	-0.315300	0.585871
O9	O	-0.011475	-0.826011	-0.085277
O10	O	0.488525	-0.326011	0.414723
O11	O	0.130557	-0.719547	-0.085305
O12	O	0.630557	-0.219547	0.414695
O13	O	0.115038	-0.921752	-0.085235
O14	O	0.615038	-0.421752	0.414765
Cu15	Cu	0.122797	-0.820649	-0.100896
Cu16	Cu	0.622797	-0.320649	0.399104
Cu17	Cu	0.122806	-0.820662	0.101490
Cu18	Cu	0.622806	-0.320662	0.601490
O19	O	0.257070	-0.815289	-0.085262
O20	O	0.757070	-0.315289	0.414738
C21	C	-0.045828	-0.825517	0.000289
C22	C	0.454172	-0.325517	0.500289
C23	C	-0.148200	-0.824019	0.000288
C24	C	0.351800	-0.324019	0.500288
C25	C	0.130061	-0.693675	0.000253
C26	C	0.630061	-0.193675	0.500253
C27	C	0.128562	-0.616566	0.000226
C28	C	0.628562	-0.116566	0.500226
N29	N	0.122789	-0.820645	-0.243243
N30	N	0.622789	-0.320645	0.256757
C31	C	-0.523061	-0.818507	0.000313
C32	C	-0.023061	-0.318507	0.500313
C33	C	-0.418762	-0.820037	0.000306
C34	C	0.081238	-0.320037	0.500306
C35	C	-0.335633	-0.821263	0.000300
C36	C	0.164367	-0.321263	0.500300
C37	C	-0.231329	-0.822794	0.000294
C38	C	0.268671	-0.322794	0.500294
C39	C	0.291430	-0.815794	0.000307
C40	C	0.791430	-0.315794	0.500307
C41	C	0.393802	-0.817291	0.000315
C42	C	0.893802	-0.317291	0.500315
C43	C	0.115541	-0.947636	0.000344
C44	C	0.615541	-0.447636	0.500344
C45	C	0.117040	-1.024745	0.000377
C46	C	0.617040	-0.524745	0.500377
C47	C	0.211900	-0.572169	0.000247
C48	C	0.711900	-0.072169	0.500247
C49	C	0.210492	-0.499717	0.000258
C50	C	0.710492	0.000283	0.500258
C51	C	0.125741	-0.471665	0.000269
C52	C	0.625741	0.028335	0.500269
C53	C	0.042392	-0.516071	0.000243
C54	C	0.542392	-0.016071	0.500243
C55	C	0.043803	-0.588521	0.000221
C56	C	0.543803	-0.088521	0.500221
C57	C	0.059120	-0.363167	0.060256
C58	C	0.559120	0.136833	0.560256
C59	C	0.057713	-0.290717	0.060284
C60	C	0.557713	0.209283	0.560284
C61	C	0.121387	-0.248203	0.000331
C62	C	0.621387	0.251797	0.500331
C63	C	0.186483	-0.278146	-0.059636
C64	C	0.686483	0.221854	0.440364
C65	C	0.187894	-0.350597	-0.059658
C66	C	0.687894	0.149403	0.440342
C67	C	0.124202	-0.393105	0.000292
C68	C	0.624202	0.106895	0.500292
C69	C	0.203203	-0.125246	0.000363
C70	C	0.703203	0.374754	0.500363
C71	C	0.201792	-0.052792	0.000368
C72	C	0.701792	0.447208	0.500368
C73	C	0.033689	-0.069148	0.000363
C74	C	0.533689	0.430852	0.500363
C75	C	0.035103	-0.141599	0.000347
C76	C	0.535103	0.358401	0.500347
C77	C	0.119863	-0.169644	0.000352
C78	C	0.619863	0.330356	0.500352
C79	C	0.122807	-0.820661	-0.663057
C80	C	0.622807	-0.320661	-0.163057
C81	C	0.122805	-0.820654	-0.546252
C82	C	0.622805	-0.320654	-0.046252
C83	C	0.122799	-0.820653	-0.453154
C84	C	0.622799	-0.320653	0.046846
C85	C	0.122796	-0.820646	-0.336341
C86	C	0.622796	-0.320646	0.163659
N87	N	0.122805	-0.820672	0.243837
N88	N	0.622805	-0.320672	0.743837
H89	H	0.280918	-0.594998	0.000253
H90	H	0.780918	-0.094998	0.500253
H91	H	-0.035317	-0.046308	0.000436
H92	H	0.464683	0.453692	0.500436
H93	H	-0.032760	-0.177748	0.000336
H94	H	0.467240	0.322252	0.500336
Cl95	Cl	0.315268	-0.443894	0.000282
Cl96	Cl	0.815268	0.056106	0.500282
H97	H	-0.024063	-0.624670	0.000205
H98	H	0.475937	-0.124670	0.500205
Cl99	Cl	-0.024113	-0.253081	0.135681
Cl100	Cl	0.475887	0.246919	0.635681
H101	H	0.007267	-0.397776	0.109083
H102	H	0.507267	0.102224	0.609083
H103	H	0.269658	-0.016645	0.000379
H104	H	0.769658	0.483355	0.500379
H105	H	0.238332	-0.243533	-0.108456
H106	H	0.738332	0.256467	0.391544
Cl107	Cl	-0.064152	-0.480806	0.000251
Cl108	Cl	0.435848	0.019194	0.500251
H109	H	0.272220	-0.148080	0.000352
H110	H	0.772220	0.351920	0.500352
H111	H	0.240895	-0.374974	-0.108488
H112	H	0.740895	0.125026	0.391512
