data_functionalizedCrystal
_audit_creation_method	'MofGen! by Chris Wilmer'
_symmetry_space_group_name_H-M	'P1'
_symmetry_Int_Tables_number	1
_symmetry_cell_setting	triclinic
loop_
_symmetry_equiv_pos_as_xyz
  x,y,z
_cell_length_a	6.817900
_cell_length_b	11.168121
_cell_length_c	16.305550
_cell_angle_alpha	93.901156
_cell_angle_beta	103.455250
_cell_angle_gamma	108.508496
loop_
_atom_site_label
_atom_site_type_symbol
_atom_site_fract_x
_atom_site_fract_y
_atom_site_fract_z
V1	V	-4.052075	-0.175770	-0.263038
O2	O	-4.012761	0.007350	-0.258024
O3	O	-4.028756	-0.347468	-0.261246
O4	O	-4.003154	-0.173548	-0.377755
O5	O	-4.038540	-0.167775	-0.140708
V6	V	-4.532520	-0.153810	-0.248406
O7	O	-4.320084	-0.223942	-0.295136
O8	O	-4.714708	-0.105639	-0.216308
O9	O	-4.332632	0.017888	-0.250198
O10	O	-4.689230	-0.336930	-0.253420
O11	O	-4.663451	-0.161806	-0.370736
O12	O	-4.358234	-0.156033	-0.133689
C13	C	-3.879875	-0.389310	-0.257099
C14	C	-3.942093	-0.529678	-0.256398
C15	C	-3.847216	-0.167455	-0.405716
C16	C	-3.888668	-0.166774	-0.499498
C17	C	-4.143791	-0.598385	-0.260087
C18	C	-4.208100	-0.743464	-0.259363
C19	C	-4.039367	-0.164135	-0.840243
C20	C	-3.802168	-0.156300	-0.799315
C21	C	-3.759155	-0.157531	-0.701820
C22	C	-3.964601	-0.165443	-0.671196
C23	C	-4.149960	-0.290149	-0.721827
C24	C	-4.191720	-0.289444	-0.819377
C25	C	-4.077095	-0.048261	-0.794395
C26	C	-4.029020	-0.047274	-0.696553
C27	C	-3.922361	-0.166187	-0.575658
C28	C	-4.081618	-0.163399	-0.935782
C29	C	-4.144856	0.059723	-0.254343
C30	C	-4.061876	0.200090	-0.255049
C31	C	-4.177514	-0.162130	-0.105724
C32	C	-4.115300	-0.162804	-0.011941
H33	H	-4.268865	-0.549804	-0.263786
C34	C	-3.570708	-0.036296	-0.654488
C35	C	-3.458382	0.062313	-0.705347
C36	C	-3.270046	0.183605	-0.658017
C37	C	-3.194037	0.206288	-0.559827
C38	C	-3.306364	0.107676	-0.508962
C39	C	-3.494700	-0.013616	-0.556293
H40	H	-3.514647	0.045524	-0.778038
H41	H	-3.186894	0.256604	-0.695671
H42	H	-3.054619	0.296075	-0.524790
H43	H	-3.250099	0.124464	-0.436271
H44	H	-3.577852	-0.086615	-0.518639
H45	H	-3.769310	-0.239550	-0.830830
C46	C	-3.640878	-0.034604	-0.816013
C47	C	-3.722567	0.059150	-0.867019
C48	C	-3.561277	0.180850	-0.883723
C49	C	-3.318297	0.208797	-0.849420
C50	C	-3.236596	0.115040	-0.798411
C51	C	-3.397886	-0.006661	-0.781708
H52	H	-3.902446	0.038465	-0.892414
H53	H	-3.621759	0.250255	-0.921483
H54	H	-3.198900	0.298886	-0.861786
H55	H	-3.056717	0.135725	-0.773016
H56	H	-3.337404	-0.076065	-0.743947
C57	C	-3.686132	-0.271293	-0.679804
C58	C	-3.666835	-0.361308	-0.750987
C59	C	-3.593812	-0.475076	-0.728972
C60	C	-3.540087	-0.498830	-0.635774
C61	C	-3.559383	-0.408813	-0.564584
C62	C	-3.632406	-0.295044	-0.586599
H63	H	-3.706606	-0.343726	-0.819984
H64	H	-3.579528	-0.541712	-0.781672
H65	H	-3.486031	-0.583048	-0.619477
H66	H	-3.519612	-0.426394	-0.495588
H67	H	-3.646690	-0.228408	-0.533899
C68	C	-4.160293	-0.407940	-0.860431
C69	C	-4.097449	-0.502550	-0.804398
C70	C	-4.066013	-0.621046	-0.845447
C71	C	-4.097421	-0.644933	-0.942530
C72	C	-4.160268	-0.550321	-0.998569
C73	C	-4.191704	-0.431824	-0.957519
H74	H	-4.074196	-0.484869	-0.732526
H75	H	-4.019490	-0.691084	-0.803962
H76	H	-4.074150	-0.732651	-0.972917
H77	H	-4.183521	-0.568001	-1.070440
H78	H	-4.238228	-0.361786	-0.999004
C79	C	-3.847179	0.077339	-0.650112
C80	C	-3.737255	0.175312	-0.701894
C81	C	-3.555404	0.299921	-0.655448
C82	C	-3.483477	0.326556	-0.557218
C83	C	-3.593403	0.228580	-0.505430
C84	C	-3.775254	0.103972	-0.551877
H85	H	-3.790498	0.155598	-0.774615
H86	H	-3.474030	0.372449	-0.693785
H87	H	-3.348860	0.418799	-0.522836
H88	H	-3.540161	0.248295	-0.432710
H89	H	-3.856629	0.031444	-0.513539
H90	H	-3.817024	-0.578262	-0.252709
H91	H	-4.367163	-0.300381	-0.847369
H92	H	-4.380883	-0.802525	-0.262511
H93	H	-3.889082	-0.740854	-0.251889
H94	H	-4.304629	-0.300449	-0.702915
H95	H	-4.107420	-0.377893	-0.705018
H96	H	-3.971808	0.046228	-0.807759
H97	H	-4.176080	-0.045722	-0.675205
H98	H	-4.249840	-0.052892	-0.821212
