data_functionalizedCrystal
_audit_creation_method	'MofGen! by Chris Wilmer'
_symmetry_space_group_name_H-M	'P1'
_symmetry_Int_Tables_number	1
_symmetry_cell_setting	triclinic
loop_
_symmetry_equiv_pos_as_xyz
  x,y,z
_cell_length_a	16.992694
_cell_length_b	26.809956
_cell_length_c	27.731996
_cell_angle_alpha	89.998344
_cell_angle_beta	93.355194
_cell_angle_gamma	90.003736
loop_
_atom_site_label
_atom_site_type_symbol
_atom_site_fract_x
_atom_site_fract_y
_atom_site_fract_z
O1	O	1.039125	0.041428	-0.102440
O2	O	0.810854	0.041443	-0.101316
O3	O	0.932100	0.041424	-0.031787
O4	O	0.917879	0.041447	-0.171969
O5	O	0.932078	-0.041535	-0.031797
O6	O	0.810831	-0.041516	-0.101326
O7	O	1.039102	-0.041531	-0.102450
Zn8	Zn	0.924963	-0.054695	-0.101890
Zn9	Zn	0.924993	0.054607	-0.101876
O10	O	0.917856	-0.041512	-0.171979
C11	C	0.781648	-0.000035	-0.099875
C12	C	0.694657	-0.000030	-0.095561
N13	N	0.924948	-0.129291	-0.101899
C14	C	0.643900	-0.000024	-0.137185
C15	C	0.562164	-0.000031	-0.133129
C16	C	0.531186	-0.000042	-0.087448
C17	C	0.581950	-0.000049	-0.045821
C18	C	0.663685	-0.000045	-0.049878
C19	C	0.287797	-0.000058	-0.070635
C20	C	0.206056	-0.000060	-0.066581
C21	C	0.186275	-0.000043	-0.153889
C22	C	0.268012	-0.000036	-0.157942
C23	C	0.318769	-0.000046	-0.116315
N24	N	0.447639	-0.000048	-0.083301
N25	N	0.402315	-0.000044	-0.120462
C26	C	0.978674	-0.473925	-0.071096
C27	C	0.978693	-0.682803	-0.071090
O28	O	1.024341	-0.709814	-0.044902
N29	N	0.924997	-0.708918	-0.101866
C30	C	0.871290	-0.682811	-0.132643
O31	O	0.825614	-0.709816	-0.158816
C32	C	0.871269	-0.473934	-0.132647
C33	C	0.924973	-0.447822	-0.101873
C34	C	1.032373	-0.447813	-0.040324
C35	C	1.032371	-0.395597	-0.040328
C36	C	0.978669	-0.369493	-0.071104
C37	C	0.924970	-0.395605	-0.101876
C38	C	0.817558	-0.447828	-0.163421
C39	C	0.817556	-0.395605	-0.163419
C40	C	0.871260	-0.369493	-0.132644
C41	C	0.871266	-0.317285	-0.132656
N42	N	0.924962	-0.291170	-0.101880
C43	C	0.978663	-0.317274	-0.071104
C44	C	0.871306	-0.792474	-0.132640
C45	C	0.871313	-0.844693	-0.132639
C46	C	0.978715	-0.844682	-0.071085
C47	C	0.978711	-0.792462	-0.071088
C48	C	0.925002	-0.766359	-0.101864
C49	C	0.978655	-0.207616	-0.071115
C50	C	0.978650	-0.155395	-0.071123
C51	C	0.871246	-0.155411	-0.132675
C52	C	0.871253	-0.207627	-0.132669
C53	C	0.924960	-0.233728	-0.101885
O54	O	0.825637	-0.290242	-0.158827
O55	O	1.024321	-0.290260	-0.044928
C56	C	0.978677	-0.526142	-0.071093
C57	C	0.924977	-0.552254	-0.101865
C58	C	0.871276	-0.526150	-0.132641
C59	C	0.924984	-0.604473	-0.101865
C60	C	0.978685	-0.630577	-0.071089
C61	C	1.032380	-0.604462	-0.040313
C62	C	1.032378	-0.552246	-0.040317
C63	C	0.817581	-0.552266	-0.163417
C64	C	0.817588	-0.604482	-0.163411
C65	C	0.871289	-0.630586	-0.132635
C66	C	1.068308	-0.000052	-0.103891
C67	C	1.155299	-0.000054	-0.108205
C68	C	0.931797	-0.000057	-0.013772
C69	C	0.930917	-0.000062	0.039922
N70	N	0.925014	0.129203	-0.101863
C71	C	0.918159	-0.000030	-0.189994
C72	C	0.919039	-0.000022	-0.243688
C73	C	0.925393	0.045184	0.372884
C74	C	0.922051	0.045193	0.574686
O75	O	0.921596	0.083652	0.600782
N76	N	0.921624	-0.000028	0.599916
C77	C	0.922027	-0.045254	0.574691
O78	O	0.921578	-0.083717	0.600781
C79	C	0.925363	-0.045262	0.372889
C80	C	0.925798	-0.000039	0.347663
C81	C	0.925828	0.090404	0.347657
C82	C	0.926667	0.090401	0.297210
C83	C	0.927072	0.045178	0.271989
C84	C	0.926638	-0.000042	0.297215
C85	C	0.925760	-0.090488	0.347665
C86	C	0.926592	-0.090486	0.297212
C87	C	0.927027	-0.045262	0.271985
C88	C	0.927882	-0.045267	0.221547
N89	N	0.928310	-0.000046	0.196318
C90	C	0.927905	0.045176	0.221538
C91	C	0.920277	-0.045246	0.680640
C92	C	0.919444	-0.045244	0.731091
C93	C	0.919468	0.045203	0.731082
C94	C	0.920306	0.045200	0.680631
C95	C	0.920704	-0.000026	0.655411
C96	C	0.929669	0.045167	0.115595
C97	C	0.930512	0.045161	0.065143
C98	C	0.930484	-0.045286	0.065156
C99	C	0.929646	-0.045280	0.115604
C100	C	0.929235	-0.000049	0.140822
O101	O	0.928329	-0.083706	0.195420
O102	O	0.928336	0.083633	0.195440
C103	C	0.924553	0.045186	0.423331
C104	C	0.924119	-0.000033	0.448558
C105	C	0.924524	-0.045256	0.423337
C106	C	0.923286	-0.000031	0.499008
C107	C	0.922881	0.045191	0.524229
C108	C	0.923309	0.090412	0.499000
C109	C	0.924148	0.090409	0.448552
C110	C	0.924096	-0.090477	0.448566
C111	C	0.923258	-0.090470	0.499014
C112	C	0.922853	-0.045248	0.524235
H113	H	0.669114	-0.000015	-0.174383
C114	C	0.089544	-0.000072	-0.021598
C115	C	0.172004	-0.000075	-0.016365
H116	H	0.068523	-0.000078	0.009401
H117	H	0.072089	-0.028996	-0.038874
H118	H	0.072098	0.028864	-0.038864
H119	H	0.189451	-0.029013	0.000898
H120	H	0.189466	0.028851	0.000918
C121	C	0.550821	-0.000007	-0.219835
C122	C	0.506371	-0.000022	-0.178883
H123	H	0.516375	0.000001	-0.248082
H124	H	0.583111	-0.028933	-0.219606
H125	H	0.583113	0.028927	-0.219591
H126	H	0.474082	-0.028958	-0.179125
H127	H	0.474067	0.028907	-0.179111
C128	C	0.921931	-0.130640	0.576348
C129	C	0.922763	-0.140185	0.526739
H130	H	0.921620	-0.161331	0.593462
H131	H	0.876090	-0.112050	0.582685
H132	H	0.967529	-0.112073	0.586542
H133	H	0.877162	-0.158749	0.516544
H134	H	0.968609	-0.158783	0.520399
H135	H	0.293227	-0.000022	-0.195139
C136	C	0.996530	-0.903406	-0.005995
C137	C	1.037740	-0.873381	-0.037251
H138	H	1.032967	-0.921122	0.014895
H139	H	0.964559	-0.926426	-0.024328
H140	H	0.964126	-0.883031	0.012652
H141	H	1.070140	-0.893756	-0.055901
H142	H	1.069725	-0.850358	-0.018916
C143	C	0.710784	-0.493551	-0.169761
C144	C	0.758553	-0.523576	-0.197252
H145	H	0.674342	-0.475843	-0.190654
H146	H	0.742759	-0.470524	-0.151439
H147	H	0.682846	-0.513926	-0.148551
H148	H	0.786497	-0.503201	-0.218460
H149	H	0.726575	-0.546606	-0.215582
H150	H	0.930868	0.081989	0.044606
C151	C	0.918188	0.085358	0.808419
C152	C	0.919014	0.094913	0.758811
H153	H	0.917898	0.116046	0.825538
H154	H	0.963767	0.066782	0.818606
H155	H	0.872328	0.066774	0.814757
H156	H	0.964877	0.113494	0.752473
H157	H	0.873430	0.113497	0.748621
H158	H	0.919102	-0.082070	0.751626
H159	H	0.329114	-0.000066	-0.036739
H160	H	1.076104	-0.469062	-0.015260
C161	C	0.465442	-0.000058	-0.000836
C162	C	0.547902	-0.000060	0.004392
H163	H	0.444425	-0.000060	0.030165
H164	H	0.447985	-0.028984	-0.018108
H165	H	0.447992	0.028876	-0.018104
H166	H	0.565352	-0.028996	0.021658
H167	H	0.565366	0.028869	0.021671
C168	C	0.765147	-0.839446	-0.193478
C169	C	0.812283	-0.873392	-0.166470
H170	H	0.728699	-0.857164	-0.214361
H171	H	0.797550	-0.819078	-0.212129
H172	H	0.737215	-0.819080	-0.172261
H173	H	0.840220	-0.893756	-0.187688
H174	H	0.779876	-0.893769	-0.147818
H175	H	0.827530	-0.228888	-0.157733
C176	C	0.765080	-0.160654	-0.193517
C177	C	0.812218	-0.126711	-0.166504
H178	H	0.728640	-0.142934	-0.214402
H179	H	0.737145	-0.181023	-0.172306
H180	H	0.797488	-0.181021	-0.212171
H181	H	0.779811	-0.106347	-0.147847
H182	H	0.840155	-0.106334	-0.187717
H183	H	0.930818	-0.082105	0.044612
C184	C	0.994904	-0.142978	0.243318
C185	C	0.927029	-0.140202	0.269492
H186	H	0.995170	-0.173669	0.226204
H187	H	1.040289	-0.141102	0.264922
H188	H	0.995276	-0.116047	0.221071
H189	H	0.926661	-0.167130	0.291741
H190	H	0.881632	-0.142082	0.247886
C191	C	0.920188	-0.134649	0.685728
C192	C	0.920731	-0.094963	0.652923
H193	H	0.920479	-0.165341	0.668617
H194	H	0.874144	-0.132765	0.703480
H195	H	0.965584	-0.132757	0.707330
H196	H	0.875333	-0.096853	0.631323
H197	H	0.966780	-0.096848	0.635163
C198	C	0.923394	0.179819	0.493937
C199	C	0.922846	0.140122	0.526728
H200	H	0.923105	0.210506	0.511057
H201	H	0.878010	0.177936	0.472333
H202	H	0.969449	0.177942	0.476186
H203	H	0.876788	0.141997	0.544476
H204	H	0.968235	0.142007	0.548340
H205	H	0.827568	-0.771225	-0.157702
C206	C	0.052198	-0.000046	-0.186439
C207	C	0.130482	-0.000038	-0.199643
H208	H	0.017756	-0.000047	-0.214688
H209	H	0.042870	0.028879	-0.167839
H210	H	0.042876	-0.028981	-0.167840
H211	H	0.139806	0.028899	-0.218238
H212	H	0.139814	-0.028966	-0.218251
C213	C	0.924007	-0.179875	0.453653
C214	C	0.924555	-0.140190	0.420849
H215	H	0.924300	-0.210568	0.436542
H216	H	0.877960	-0.177992	0.471402
H217	H	0.969399	-0.177984	0.475258
H218	H	0.879159	-0.142079	0.399246
H219	H	0.970607	-0.142074	0.403092
H220	H	0.925406	-0.127314	0.368196
H221	H	0.705012	-0.000050	-0.015983
H222	H	1.022385	-0.134136	-0.046063
H223	H	1.022387	-0.228862	-0.046047
H224	H	1.076099	-0.374339	-0.015268
H225	H	0.924502	0.127235	0.428017
C226	C	0.929706	-0.134683	0.110542
C227	C	0.929171	-0.094989	0.143336
H228	H	0.929402	-0.165371	0.127660
H229	H	0.975754	-0.132806	0.092793
H230	H	0.884315	-0.132793	0.088936
H231	H	0.974565	-0.096876	0.164939
H232	H	0.883118	-0.096866	0.161093
C233	C	0.861337	0.097653	0.169484
C234	C	0.929217	0.094883	0.143314
H235	H	0.861060	0.128345	0.186595
H236	H	0.860965	0.070726	0.191728
H237	H	0.815951	0.095774	0.147874
H238	H	0.974604	0.096758	0.164925
H239	H	0.929596	0.121817	0.121068
C240	C	1.084871	-0.797708	-0.010246
C241	C	1.037738	-0.763762	-0.037256
H242	H	1.121308	-0.779991	0.010644
H243	H	1.112809	-0.818069	-0.031458
H244	H	1.052458	-0.818081	0.008402
H245	H	1.070150	-0.743391	-0.055907
H246	H	1.009798	-0.743392	-0.016041
H247	H	0.773827	-0.469081	-0.188480
H248	H	1.076109	-0.625724	-0.015255
C249	C	0.711391	-0.400866	-0.224261
C250	C	0.758519	-0.366914	-0.197252
H251	H	0.674950	-0.383152	-0.245150
H252	H	0.683457	-0.421232	-0.203048
H253	H	0.743805	-0.421233	-0.242909
H254	H	0.726105	-0.346548	-0.178601
H255	H	0.786455	-0.346539	-0.218468
C256	C	1.138533	-0.557496	0.020528
C257	C	1.091406	-0.523547	-0.006484
H258	H	1.174972	-0.539780	0.041418
H259	H	1.166469	-0.577859	-0.000684
H260	H	1.106117	-0.577867	0.039175
H261	H	1.123822	-0.503179	-0.025134
H262	H	1.063468	-0.503176	0.014730
H263	H	0.925495	0.127231	0.368187
H264	H	0.773857	-0.625739	-0.188475
C265	C	0.926593	0.179801	0.302284
C266	C	0.927132	0.140113	0.269485
H267	H	0.926872	0.210492	0.285169
H268	H	0.971986	0.177918	0.323881
H269	H	0.880546	0.177913	0.320041
H270	H	0.973182	0.141999	0.251730
H271	H	0.881735	0.141997	0.247879
H272	H	0.920659	0.082025	0.660095
