data_functionalizedCrystal
_audit_creation_method	'MofGen! by Chris Wilmer'
_symmetry_space_group_name_H-M	'P1'
_symmetry_Int_Tables_number	1
_symmetry_cell_setting	triclinic
loop_
_symmetry_equiv_pos_as_xyz
  x,y,z
_cell_length_a	19.077236
_cell_length_b	12.759394
_cell_length_c	19.076929
_cell_angle_alpha	92.271260
_cell_angle_beta	89.889628
_cell_angle_gamma	92.307717
loop_
_atom_site_label
_atom_site_type_symbol
_atom_site_fract_x
_atom_site_fract_y
_atom_site_fract_z
Zn1	Zn	1.058317	-0.381344	-0.440552
Zn2	Zn	1.558317	0.118656	0.059448
Zn3	Zn	1.062980	-0.549721	-0.323051
Zn4	Zn	1.562980	-0.049721	0.176949
Zn5	Zn	0.945537	-0.380802	-0.318332
Zn6	Zn	1.445537	0.119198	0.181668
Zn7	Zn	0.940797	-0.563729	-0.435789
Zn8	Zn	1.440797	-0.063729	0.064211
O9	O	1.001908	-0.468899	-0.379431
O10	O	1.501908	0.031101	0.120569
O11	O	1.157268	-0.398044	-0.428933
O12	O	1.657268	0.101956	0.071067
O13	O	1.051337	-0.521224	-0.224094
O14	O	1.551337	-0.021224	0.275906
O15	O	0.960530	-0.233852	-0.334564
O16	O	1.460530	0.266148	0.165436
O17	O	1.160695	-0.521750	-0.342605
O18	O	1.660695	-0.021750	0.157395
O19	O	1.043389	-0.234250	-0.424358
O20	O	1.543389	0.265750	0.075642
O21	O	0.965052	-0.397120	-0.220628
O22	O	1.465052	0.102880	0.279372
O23	O	0.846575	-0.410703	-0.329945
O24	O	1.346575	0.089297	0.170055
O25	O	0.952451	-0.545625	-0.534752
O26	O	1.452451	-0.045625	-0.034752
O27	O	0.843093	-0.545099	-0.416240
O28	O	1.343093	-0.045099	0.083760
O29	O	1.038792	-0.411627	-0.538251
O30	O	1.538792	0.088373	-0.038251
O31	O	1.046740	-0.698601	-0.337987
O32	O	1.546740	-0.198601	0.162013
O33	O	0.956972	-0.708893	-0.420815
O34	O	1.456972	-0.208893	0.079185
C35	C	0.819337	-0.479363	-0.372064
C36	C	1.319337	0.020637	0.127936
C37	C	0.741232	-0.483866	-0.368929
C38	C	1.241232	0.016134	0.131071
C39	C	0.702752	-0.421686	-0.412471
C40	C	1.202752	0.078314	0.087529
C41	C	0.629365	-0.425911	-0.409520
C42	C	1.129365	0.074089	0.090480
C43	C	0.594458	-0.492324	-0.363029
C44	C	1.094458	0.007676	0.136971
C45	C	0.632943	-0.554506	-0.319482
C46	C	1.132943	-0.054506	0.180518
C47	C	0.706330	-0.550275	-0.322431
C48	C	1.206330	-0.050275	0.177569
C49	C	0.375167	-0.511869	-0.349380
C50	C	0.875167	-0.011869	0.150620
C51	C	0.301775	-0.516099	-0.346437
C52	C	0.801775	-0.016099	0.153563
C53	C	0.298202	-0.387502	-0.436473
C54	C	0.798202	0.112498	0.063527
C55	C	0.371590	-0.383280	-0.439421
C56	C	0.871590	0.116720	0.060579
C57	C	0.410069	-0.445459	-0.395872
C58	C	0.910069	0.054541	0.104128
N59	N	0.519444	-0.496647	-0.360013
N60	N	1.019444	0.003353	0.139987
N61	N	0.485082	-0.441130	-0.398885
N62	N	0.985082	0.058870	0.101115
C63	C	1.001866	-0.741868	-0.379412
C64	C	1.501866	-0.241868	0.120588
C65	C	1.001912	-0.858643	-0.379430
C66	C	1.501912	-0.358643	0.120570
C67	C	1.095452	-0.847873	-0.293251
C68	C	1.595452	-0.347873	0.206749
C69	C	1.142239	-0.897348	-0.250171
C70	C	1.642239	-0.397348	0.249829
C71	C	1.142280	-1.007069	-0.250191
C72	C	1.642280	-0.507069	0.249809
C73	C	1.095529	-1.067317	-0.293299
C74	C	1.595529	-0.567317	0.206701
C75	C	1.048741	-1.017842	-0.336380
C76	C	1.548741	-0.517842	0.163620
C77	C	1.048704	-0.908118	-0.336353
C78	C	1.548704	-0.408118	0.163647
C79	C	0.955206	-1.028611	-0.422561
C80	C	1.455206	-0.528611	0.077439
C81	C	0.955161	-0.918891	-0.422538
C82	C	1.455161	-0.418891	0.077462
C83	C	0.908455	-1.088859	-0.465669
C84	C	1.408455	-0.588859	0.034331
C85	C	0.861662	-1.039384	-0.508747
C86	C	1.361662	-0.539384	-0.008747
C87	C	0.861623	-0.929657	-0.508724
C88	C	1.361623	-0.429657	-0.008724
C89	C	0.908373	-0.869416	-0.465618
C90	C	1.408373	-0.369416	0.034382
C91	C	1.185191	-0.458395	-0.386827
C92	C	1.685191	0.041605	0.113173
C93	C	1.263295	-0.453918	-0.389979
C94	C	1.763295	0.046082	0.110021
C95	C	1.001968	-0.194864	-0.379466
C96	C	1.501968	0.305136	0.120534
C97	C	1.001994	-0.078087	-0.379481
C98	C	1.501994	0.421913	0.120519
C99	C	0.994572	-0.480249	-0.562710
C100	C	1.494572	0.019751	-0.062710
C101	C	0.991447	-0.485085	-0.640813
C102	C	1.491447	0.014915	-0.140813
C103	C	0.969031	-0.519859	-1.080253
C104	C	1.469031	-0.019859	-0.580253
C105	C	0.971966	-0.515299	-1.006867
C106	C	1.471966	-0.015299	-0.506867
C107	C	1.018390	-0.443259	-0.972000
C108	C	1.518390	0.056741	-0.472000
C109	C	1.061877	-0.375768	-1.010522
C110	C	1.561877	0.124232	-0.510522
C111	C	1.058939	-0.380324	-1.083906
C112	C	1.558939	0.119676	-0.583906
C113	C	1.031995	-0.422150	-0.752719
C114	C	1.531995	0.077850	-0.252719
C115	C	1.034932	-0.417601	-0.679330
C116	C	1.534932	0.082399	-0.179330
C117	C	0.945019	-0.557131	-0.675680
C118	C	1.445019	-0.057131	-0.175680
C119	C	0.942088	-0.561685	-0.749066
C120	C	1.442088	-0.061685	-0.249066
C121	C	0.985573	-0.494190	-0.787582
C122	C	1.485573	0.005810	-0.287582
N123	N	1.021392	-0.438599	-0.896987
N124	N	1.521392	0.061401	-0.396987
N125	N	0.982566	-0.498846	-0.862592
N126	N	1.482566	0.001154	-0.362592
C127	C	1.009255	-0.457515	-0.196866
C128	C	1.509255	0.042485	0.303134
C129	C	1.012517	-0.452375	-0.118770
C130	C	1.512517	0.047625	0.381230
H131	H	0.400006	-0.329204	-0.477281
H132	H	0.900006	0.170796	0.022719
H133	H	1.095572	-1.156657	-0.293318
H134	H	1.595572	-0.656657	0.206682
N135	N	0.908493	-1.207200	-0.465687
N136	N	1.408493	-0.707200	0.034313
H137	H	0.871778	-1.237856	-0.499531
H138	H	1.371778	-0.737856	0.000469
H139	H	0.956203	-1.231517	-0.480565
H140	H	1.456203	-0.731517	0.019435
H141	H	1.180305	-0.848285	-0.215074
H142	H	1.680305	-0.348285	0.284926
N143	N	1.192746	-1.060439	-0.203732
N144	N	1.692746	-0.560439	0.296268
H145	H	1.222358	-1.005629	-0.176422
H146	H	1.722358	-0.505629	0.323578
H147	H	1.165483	-1.105647	-0.170051
H148	H	1.665483	-0.605647	0.329949
H149	H	0.823526	-0.889380	-0.543808
H150	H	1.323526	-0.389380	-0.043808
H151	H	0.823605	-1.088446	-0.543845
H152	H	1.323605	-0.588446	-0.043845
H153	H	0.904285	-0.620348	-0.777450
H154	H	1.404285	-0.120348	-0.277450
N155	N	0.416656	-0.578937	-0.302409
N156	N	0.916656	-0.078937	0.197591
H157	H	0.403445	-0.655435	-0.312724
H158	H	0.903445	-0.155435	0.187276
H159	H	0.468431	-0.566099	-0.311342
H160	H	0.968431	-0.066099	0.188658
H161	H	0.909616	-0.612081	-0.644313
H162	H	1.409616	-0.112081	-0.144313
N163	N	0.918963	-0.597565	-1.117857
N164	N	1.418963	-0.097565	-0.617857
H165	H	0.891860	-0.639622	-1.082318
H166	H	1.391860	-0.139622	-0.582318
H167	H	0.885236	-0.558551	-1.147001
H168	H	1.385236	-0.058551	-0.647001
N169	N	1.085008	-0.339901	-0.641720
N170	N	1.585008	0.160099	-0.141720
H171	H	1.112109	-0.297833	-0.677255
H172	H	1.612109	0.202167	-0.177255
H173	H	1.057634	-0.291034	-0.610124
H174	H	1.557634	0.208966	-0.110124
H175	H	0.908341	-0.780075	-0.465591
H176	H	1.408341	-0.280075	0.034409
N177	N	0.256701	-0.320439	-0.483441
N178	N	0.756701	0.179561	0.016559
H179	H	0.204914	-0.333193	-0.474520
H180	H	0.704914	0.166807	0.025480
H181	H	0.269968	-0.243968	-0.473105
H182	H	0.769968	0.256032	0.026895
N183	N	1.111961	-0.298090	-0.972913
N184	N	1.611961	0.201910	-0.472913
H185	H	1.084648	-0.249145	-0.941312
H186	H	1.584648	0.250855	-0.441312
H187	H	1.145714	-0.337140	-0.943822
H188	H	1.645714	0.162860	-0.443822
H189	H	1.067408	-0.367196	-0.784070
H190	H	1.567408	0.132804	-0.284070
N191	N	0.925039	-0.588049	-0.965322
N192	N	1.425039	-0.088049	-0.465322
H193	H	0.895179	-0.634370	-0.998545
H194	H	1.395179	-0.134370	-0.498545
H195	H	0.954826	-0.633153	-0.936003
H196	H	1.454826	-0.133153	-0.436003
N197	N	1.105836	-0.307531	-1.125453
N198	N	1.605836	0.192469	-0.625453
H199	H	1.135691	-0.261202	-1.092231
H200	H	1.635691	0.238798	-0.592231
H201	H	1.137126	-0.350320	-1.157208
H202	H	1.637126	0.149680	-0.657208
N203	N	0.264123	-0.587738	-0.296294
N204	N	0.764123	-0.087738	0.203706
H205	H	0.299634	-0.626486	-0.269153
H206	H	0.799634	-0.126486	0.230847
H207	H	0.234967	-0.544641	-0.262606
H208	H	0.734967	-0.044641	0.237394
H209	H	0.598037	-0.375279	-0.444978
H210	H	1.098037	0.124721	0.055022
N211	N	0.740399	-0.350064	-0.462621
N212	N	1.240399	0.149936	0.037379
H213	H	0.728069	-0.275035	-0.451285
H214	H	1.228069	0.224965	0.048715
H215	H	0.792716	-0.356913	-0.457860
H216	H	1.292716	0.143087	0.042140
N217	N	0.595291	-0.626127	-0.269335
N218	N	1.095291	-0.126127	0.230665
H219	H	0.563704	-0.678402	-0.296611
H220	H	1.063704	-0.178402	0.203389
H221	H	0.630846	-0.664803	-0.242206
H222	H	1.130846	-0.164803	0.257794
N223	N	0.747837	-0.617334	-0.275465
N224	N	1.247837	-0.117334	0.224535
H225	H	0.714589	-0.660050	-0.245566
H226	H	1.214589	-0.160050	0.254434
H227	H	0.777147	-0.666034	-0.305232
H228	H	1.277147	-0.166034	0.194768
H229	H	1.095415	-0.758532	-0.293221
H230	H	1.595415	-0.258532	0.206779
