data_functionalizedCrystal
_audit_creation_method	'MofGen! by Chris Wilmer'
_symmetry_space_group_name_H-M	'P1'
_symmetry_Int_Tables_number	1
_symmetry_cell_setting	triclinic
loop_
_symmetry_equiv_pos_as_xyz
  x,y,z
_cell_length_a	15.538191
_cell_length_b	16.992695
_cell_length_c	15.455301
_cell_angle_alpha	87.173129
_cell_angle_beta	86.314925
_cell_angle_gamma	68.970158
loop_
_atom_site_label
_atom_site_type_symbol
_atom_site_fract_x
_atom_site_fract_y
_atom_site_fract_z
O1	O	-1.234972	0.247350	0.072138
O2	O	-0.967386	0.158712	0.072139
O3	O	-1.100106	0.316869	0.072132
O4	O	-1.102252	0.089193	0.072145
O5	O	-1.092435	0.320815	-0.072131
O6	O	-0.959715	0.162659	-0.072124
O7	O	-1.227301	0.251296	-0.072125
Cu8	Cu	-1.092808	0.207338	-0.085297
Cu9	Cu	-1.101880	0.202671	0.085311
O10	O	-1.094581	0.093140	-0.072118
C11	C	-0.929153	0.151412	0.000007
C12	C	-0.826659	0.123788	0.000007
C13	C	-1.093511	0.347269	0.000000
C14	C	-1.085276	0.431969	0.000000
C15	C	-1.265534	0.258597	0.000009
C16	C	-1.368029	0.286220	0.000014
C17	C	-0.518209	0.398222	0.000004
C18	C	-0.421899	0.372246	0.000007
C19	C	-0.410455	0.226137	0.000015
C20	C	-0.506766	0.252101	0.000009
C21	C	-0.560636	0.338144	0.000004
C22	C	-0.549193	0.192023	0.000009
C23	C	-0.645496	0.217985	0.000007
C24	C	-0.699372	0.304025	0.000005
C25	C	-0.656938	0.364106	0.000002
C26	C	-0.495322	0.105980	0.000019
C27	C	-0.537749	0.045902	0.000019
C28	C	-0.634053	0.071864	0.000011
C29	C	-0.687929	0.157904	0.000009
C30	C	-0.676487	0.011782	0.000014
C31	C	-0.772790	0.037744	0.000012
C32	C	-0.784232	0.183866	0.000007
C33	C	-1.101177	0.062740	0.000016
C34	C	-1.109412	-0.021961	0.000021
N35	N	-1.086433	0.210623	-0.205293
C36	C	-1.164729	0.504823	-0.000001
C37	C	-1.156987	0.584406	0.000008
C38	C	-1.069790	0.591133	0.000011
C39	C	-0.990331	0.518272	0.000014
C40	C	-0.998075	0.438690	0.000012
C41	C	-1.037696	0.825596	0.000023
C42	C	-1.029958	0.905186	0.000022
C43	C	-1.196615	0.971314	0.000017
C44	C	-1.204351	0.891729	0.000010
C45	C	-1.124892	0.818874	0.000018
N46	N	-1.061874	0.672479	0.000016
N47	N	-1.132809	0.737530	0.000019
C48	C	-1.143461	0.181196	-0.250681
C49	C	-1.138652	0.183689	-0.341489
C50	C	-1.076811	0.215604	-0.386908
C51	C	-1.019781	0.245035	-0.341514
C52	C	-1.024595	0.242548	-0.250707
C53	C	-1.056045	0.226337	-0.658492
C54	C	-1.051233	0.228820	-0.749305
C55	C	-1.170106	0.167476	-0.749274
C56	C	-1.174911	0.164986	-0.658465
C57	C	-1.117884	0.194422	-0.613079
N58	N	-1.071892	0.218150	-0.479729
N59	N	-1.122808	0.191881	-0.520260
N60	N	-1.108261	0.199394	0.205307
H61	H	-0.828096	0.253931	-0.000001
H62	H	-0.807334	-0.011177	0.000004
F63	F	-0.937147	0.912340	0.000021
F64	F	-0.995325	0.257634	-0.610200
F65	F	-0.913509	0.361153	0.000016
H66	H	-0.700802	0.434172	-0.000006
H67	H	-1.221686	0.643723	0.000005
H68	H	-1.193814	0.155202	-0.213707
F69	F	-1.199348	0.152367	-0.389790
H70	H	-0.969433	0.271026	-0.378502
H71	H	-0.972995	0.766286	0.000029
F72	F	-1.240702	0.130984	-0.610134
H73	H	-0.562072	0.468287	-0.000004
F74	F	-1.230795	0.136152	-0.797584
F75	F	-0.480408	-0.045669	0.000029
H76	H	-1.235734	0.499355	-0.000009
F77	F	-1.281175	1.048855	0.000009
F78	F	-0.392827	0.078350	0.000022
H79	H	-1.000870	0.254808	-0.786283
F80	F	-0.897530	0.525433	0.000028
F81	F	-0.963905	0.273876	-0.202403
H82	H	-0.366582	0.156080	0.000022
F83	F	-0.619144	-0.079788	0.000031
F84	F	-0.376748	0.436196	-0.000004
F85	F	-0.801867	0.331656	0.000008
H86	H	-1.275356	0.886260	0.000007
