data_functionalizedCrystal
_audit_creation_method	'MofGen! by Chris Wilmer'
_symmetry_space_group_name_H-M	'P1'
_symmetry_Int_Tables_number	1
_symmetry_cell_setting	triclinic
loop_
_symmetry_equiv_pos_as_xyz
  x,y,z
_cell_length_a	6.817900
_cell_length_b	10.992421
_cell_length_c	10.943624
_cell_angle_alpha	91.800796
_cell_angle_beta	108.838799
_cell_angle_gamma	108.764763
loop_
_atom_site_label
_atom_site_type_symbol
_atom_site_fract_x
_atom_site_fract_y
_atom_site_fract_z
V1	V	-4.115111	-0.177727	-0.402533
O2	O	-4.073223	0.008575	-0.394889
O3	O	-4.092684	-0.352436	-0.399762
O4	O	-4.093080	-0.174978	-0.578100
O5	O	-4.072824	-0.170111	-0.215317
V6	V	-4.591957	-0.155445	-0.380143
O7	O	-4.391017	-0.226605	-0.451648
O8	O	-4.766248	-0.106567	-0.331028
O9	O	-4.391177	0.019264	-0.382914
O10	O	-4.751242	-0.341747	-0.387787
O11	O	-4.751641	-0.163061	-0.567359
O12	O	-4.390782	-0.158194	-0.204576
C13	C	-3.943150	-0.395027	-0.393408
C14	C	-4.006276	-0.537854	-0.392312
C15	C	-3.873921	-0.733142	-0.383483
C16	C	-3.807840	-0.584497	-0.384111
C17	C	-4.076627	-0.576499	-0.271911
C18	C	-4.140860	-0.725043	-0.270636
C19	C	-4.272894	-0.763604	-0.517452
C20	C	-4.203846	-0.615090	-0.520065
C21	C	-3.943653	-0.168660	-0.620893
C22	C	-4.007095	-0.167568	-0.764420
C23	C	-3.851941	-0.160217	-0.841568
C24	C	-4.041064	-0.269328	-0.947547
C25	C	-3.931042	-0.056525	-0.914182
C26	C	-4.195429	-0.276781	-0.868522
C27	C	-4.085327	-0.063882	-0.835133
C28	C	-4.274586	-0.173023	-0.941083
C29	C	-4.204054	0.061848	-0.389265
C30	C	-4.120168	0.204674	-0.390368
C31	C	-4.203550	-0.164516	-0.161776
C32	C	-4.119345	-0.165601	-0.018248
H33	H	-3.848281	-0.779555	-0.468981
H34	H	-4.023014	-0.356183	-0.996487
N35	N	-3.720258	-0.760366	-0.262082
H36	H	-3.809462	-0.812807	-0.211526
H37	H	-3.612590	-0.675472	-0.205828
N38	N	-3.610601	-0.515054	-0.262622
H39	H	-3.650206	-0.537468	-0.182784
H40	H	-3.566852	-0.418114	-0.262633
H41	H	-3.819895	0.036539	-0.934954
H42	H	-4.306610	-0.369970	-0.847968
H43	H	-4.452757	-0.804720	-0.523763
H44	H	-4.317071	-0.765926	-0.270446
N45	N	-4.109140	0.051165	-0.770257
H46	H	-4.008588	0.134290	-0.786253
H47	H	-4.067210	0.048943	-0.673224
N48	N	-3.993834	-0.748266	-0.144011
H49	H	-3.888665	-0.662093	-0.089291
H50	H	-3.906492	-0.800302	-0.163410
N51	N	-3.732404	-0.550345	-0.498061
H52	H	-3.741875	-0.631938	-0.548336
H53	H	-3.574358	-0.487880	-0.464616
N54	N	-4.512081	-0.180214	-0.998365
H55	H	-4.612140	-0.263393	-0.982137
H56	H	-4.553348	-0.178607	-1.095469
N57	N	-3.614581	-0.153222	-0.784011
H58	H	-3.597629	-0.230927	-0.825299
H59	H	-3.572786	-0.153155	-0.686658
N60	N	-3.890136	-0.504680	-0.146627
H61	H	-3.937003	-0.530202	-0.069716
H62	H	-3.853008	-0.407980	-0.146291
N63	N	-4.264744	-0.829167	-0.638133
H64	H	-4.363867	-0.807508	-0.718523
H65	H	-4.317053	-0.926373	-0.639336
H66	H	-4.155037	-0.591186	-0.609143
N67	N	-4.269535	-0.536456	-0.273736
H68	H	-4.313283	-0.492772	-0.352818
H69	H	-4.225408	-0.473948	-0.191842
N70	N	-4.402299	-0.575083	-0.537890
H71	H	-4.366791	-0.506021	-0.463068
H72	H	-4.532222	-0.653139	-0.539677
