data_functionalizedCrystal
_audit_creation_method	'MofGen! by Chris Wilmer'
_symmetry_space_group_name_H-M	'P1'
_symmetry_Int_Tables_number	1
_symmetry_cell_setting	triclinic
loop_
_symmetry_equiv_pos_as_xyz
  x,y,z
_cell_length_a	19.188930
_cell_length_b	19.188924
_cell_length_c	8.140239
_cell_angle_alpha	89.994423
_cell_angle_beta	89.983403
_cell_angle_gamma	83.143372
loop_
_atom_site_label
_atom_site_type_symbol
_atom_site_fract_x
_atom_site_fract_y
_atom_site_fract_z
O1	O	0.926141	0.087167	-0.137149
O2	O	1.426141	0.587167	0.362851
O3	O	0.722829	0.098901	-0.137037
O4	O	1.222829	0.598901	0.362963
O5	O	0.830355	-0.008622	-0.137077
O6	O	1.330355	0.491378	0.362923
O7	O	0.818616	0.194690	-0.137109
O8	O	1.318616	0.694690	0.362891
O9	O	0.830349	-0.008623	0.136150
O10	O	1.330349	0.491377	0.636150
O11	O	0.722824	0.098900	0.136190
O12	O	1.222824	0.598900	0.636190
O13	O	0.926135	0.087166	0.136078
O14	O	1.426135	0.587166	0.636078
Zn15	Zn	0.824478	0.093033	0.179515
Zn16	Zn	1.324478	0.593033	0.679515
Zn17	Zn	0.824486	0.093034	-0.180474
Zn18	Zn	1.324486	0.593034	0.319526
O19	O	0.818610	0.194689	0.136118
O20	O	1.318610	0.694689	0.636118
C21	C	0.696815	0.098521	-0.000409
C22	C	1.196815	0.598521	0.499591
C23	C	0.619311	0.097380	-0.000366
C24	C	1.119311	0.597380	0.499634
C25	C	0.574385	0.160471	-0.000402
C26	C	1.074385	0.660471	0.499598
C27	C	0.501562	0.159399	-0.000420
C28	C	1.001562	0.659399	0.499580
C29	C	0.473667	0.095233	-0.000435
C30	C	0.973667	0.595233	0.499565
C31	C	0.518602	0.032134	-0.000390
C32	C	1.018602	0.532134	0.499610
C33	C	0.591424	0.033207	-0.000355
C34	C	1.091424	0.533207	0.499645
N35	N	0.365690	0.046186	-0.093484
N36	N	0.865690	0.546186	0.406516
N37	N	0.296511	0.045171	-0.093520
N38	N	0.796511	0.545171	0.406480
C39	C	0.254258	0.091995	-0.000535
C40	C	0.754258	0.591995	0.499465
N41	N	0.283796	0.139883	0.092468
N42	N	0.783796	0.639883	0.592468
N43	N	0.352980	0.140901	0.092497
N44	N	0.852980	0.640901	0.592497
C45	C	0.394704	0.094062	-0.000471
C46	C	0.894704	0.594062	0.499529
C47	C	0.130368	0.153928	-0.000588
C48	C	0.630368	0.653928	0.499412
C49	C	0.057543	0.152854	-0.000595
C50	C	0.557543	0.652854	0.499405
C51	C	0.074585	0.025586	-0.000582
C52	C	0.574585	0.525586	0.499418
C53	C	0.147409	0.026663	-0.000558
C54	C	0.647409	0.526663	0.499442
C55	C	0.175295	0.090835	-0.000568
C56	C	0.675295	0.590835	0.499432
C57	C	0.829973	-0.034634	-0.000462
C58	C	1.329973	0.465366	0.499538
C59	C	0.828834	-0.112138	-0.000457
C60	C	1.328834	0.387862	0.499543
C61	C	0.828306	-0.148537	-0.149393
C62	C	1.328306	0.351463	0.350607
C63	C	0.827226	-0.221359	-0.149405
C64	C	1.327226	0.278641	0.350595
C65	C	0.826688	-0.257783	-0.000472
C66	C	1.326688	0.242217	0.499528
C67	C	0.827212	-0.221375	0.148484
C68	C	1.327212	0.278625	0.648484
C69	C	0.828285	-0.148553	0.148491
C70	C	1.328285	0.351447	0.648491
N71	N	0.864733	-0.377447	0.110354
N72	N	1.364733	0.122553	0.610354
N73	N	0.863716	-0.446625	0.110337
N74	N	1.363716	0.053375	0.610337
C75	C	0.823454	-0.477192	-0.000486
C76	C	1.323454	0.022808	0.499514
N77	N	0.784257	-0.435969	-0.111316
N78	N	1.284257	0.064031	0.388684
N79	N	0.785278	-0.366785	-0.111303
N80	N	1.285278	0.133215	0.388697
C81	C	0.825524	-0.336746	-0.000464
C82	C	1.325524	0.163254	0.499536
C83	C	0.821754	-0.592553	-0.149445
C84	C	1.321754	-0.092553	0.350555
C85	C	0.820669	-0.665376	-0.149451
C86	C	1.320669	-0.165376	0.350549
C87	C	0.820663	-0.665392	0.148442
C88	C	1.320663	-0.165392	0.648442
C89	C	0.821741	-0.592569	0.148443
C90	C	1.321741	-0.092569	0.648443
C91	C	0.822289	-0.556154	-0.000505
C92	C	1.322289	-0.056154	0.499495
C93	C	0.952149	0.087546	-0.000554
C94	C	1.452149	0.587546	0.499446
C95	C	1.029654	0.088687	-0.000608
C96	C	1.529654	0.588687	0.499392
C97	C	0.818992	0.220700	-0.000501
C98	C	1.318992	0.720700	0.499499
C99	C	0.820131	0.298205	-0.000517
C100	C	1.320131	0.798205	0.499483
N101	N	0.824478	0.093031	0.425197
N102	N	1.324478	0.593031	0.925197
N103	N	0.824492	0.093030	-0.426156
N104	N	1.324492	0.593030	0.073844
H105	H	0.051874	-0.026659	-0.000696
H106	H	0.551874	0.473341	0.499304
Cl107	Cl	0.647905	-0.046114	-0.000312
Cl108	Cl	1.147905	0.453886	0.499688
Cl109	Cl	0.828949	-0.102793	0.335742
Cl110	Cl	1.328949	0.397207	0.835742
Cl111	Cl	0.822437	-0.546770	-0.336690
Cl112	Cl	1.322437	-0.046770	0.163310
Cl113	Cl	0.203890	-0.052657	-0.000522
Cl114	Cl	0.703890	0.447343	0.499478
H115	H	0.828750	-0.118892	-0.270678
H116	H	1.328750	0.381108	0.229322
H117	H	0.464976	0.210777	-0.000444
H118	H	0.964976	0.710777	0.499556
Cl119	Cl	0.609439	0.241145	-0.000407
Cl120	Cl	1.109439	0.741145	0.499593
H121	H	0.153075	0.206181	-0.000572
H122	H	0.653075	0.706181	0.499428
Cl123	Cl	0.826561	-0.267127	-0.336653
Cl124	Cl	1.326561	0.232873	0.163347
Cl125	Cl	0.001064	0.232176	-0.000632
Cl126	Cl	0.501064	0.732176	0.499368
H127	H	0.826773	-0.251036	0.269746
H128	H	1.326773	0.248964	0.769746
Cl129	Cl	0.820000	-0.711134	-0.336703
Cl130	Cl	1.320000	-0.211134	0.163297
Cl131	Cl	0.819983	-0.711174	0.335674
Cl132	Cl	1.319983	-0.211174	0.835674
H133	H	0.822177	-0.562934	0.269723
H134	H	1.322177	-0.062934	0.769723
H135	H	0.495885	-0.020111	-0.000424
H136	H	0.995885	0.479889	0.499576
