data_functionalizedCrystal
_audit_creation_method	'MofGen! by Chris Wilmer'
_symmetry_space_group_name_H-M	'P1'
_symmetry_Int_Tables_number	1
_symmetry_cell_setting	triclinic
loop_
_symmetry_equiv_pos_as_xyz
  x,y,z
_cell_length_a	14.853567
_cell_length_b	8.559649
_cell_length_c	7.681481
_cell_angle_alpha	85.086760
_cell_angle_beta	84.253558
_cell_angle_gamma	103.293203
loop_
_atom_site_label
_atom_site_type_symbol
_atom_site_fract_x
_atom_site_fract_y
_atom_site_fract_z
O1	O	-0.021001	-2.104976	-0.146403
O2	O	0.025551	-1.639875	-0.146407
O3	O	-0.129824	-1.884849	-0.146410
O4	O	0.134373	-1.860003	-0.146400
O5	O	-0.148986	-1.915001	0.146447
O6	O	0.006388	-1.670027	0.146451
O7	O	-0.040164	-2.135128	0.146455
Zn8	Zn	-0.019930	-1.907365	0.192950
Zn9	Zn	0.005317	-1.867638	-0.192902
O10	O	0.115211	-1.890155	0.146458
C11	C	-0.172914	-1.898798	0.000014
C12	C	-0.272761	-1.895423	-0.000002
C13	C	0.019498	-1.595429	0.000021
C14	C	0.029999	-1.418072	0.000019
C15	C	-0.034110	-2.179574	0.000023
C16	C	-0.044611	-2.356930	0.000013
C17	C	-0.674122	-1.735645	0.000030
C18	C	-0.715759	-2.026680	0.000033
C19	C	-0.621946	-2.029851	0.000022
C20	C	-0.554217	-1.885917	0.000019
C21	C	-0.580300	-1.738812	0.000025
C22	C	-0.595857	-2.176955	0.000034
C23	C	-0.502039	-2.180132	0.000025
C24	C	-0.434307	-2.036196	0.000009
C25	C	-0.460395	-1.889085	0.000014
C26	C	-0.392666	-1.745151	0.000010
C27	C	-0.418751	-1.598037	0.000002
C28	C	-0.512568	-1.594876	0.000009
C29	C	-0.340490	-2.039357	0.000002
C30	C	-0.298844	-1.748318	0.000005
C31	C	0.158302	-1.876205	0.000030
C32	C	0.258149	-1.879579	0.000034
N33	N	-0.037162	-1.934489	0.456284
N34	N	0.022541	-1.840527	-0.456236
H35	H	-0.243703	-1.631107	-0.000006
H36	H	0.101914	-1.334725	0.000012
C37	C	0.157475	-1.628158	0.561934
C38	C	0.104810	-1.711034	0.442265
H39	H	0.208268	-1.548221	0.499260
H40	H	0.119304	-1.577865	0.633844
H41	H	0.180583	-1.702185	0.633837
H42	H	0.081696	-1.637008	0.370370
H43	H	0.142987	-1.761328	0.370324
H44	H	-0.098101	-2.030423	0.531488
C45	C	-0.142537	-1.550891	-0.150532
C46	C	-0.141691	-1.469425	0.000011
H47	H	-0.202470	-1.620355	-0.150524
H48	H	-0.128591	-1.474588	-0.252638
H49	H	-0.097132	-1.613003	-0.150510
H50	H	-0.187091	-1.407304	-0.000017
H51	H	-0.155648	-1.545739	0.102144
H52	H	-0.695364	-1.615868	0.000017
H53	H	-0.651008	-2.294139	0.000053
C54	C	-0.279236	-1.417277	-0.150550
C55	C	-0.344298	-1.439825	-0.000005
H56	H	-0.233274	-1.319601	-0.150555
H57	H	-0.250283	-1.505337	-0.150527
H58	H	-0.310027	-1.411573	-0.252666
H59	H	-0.313508	-1.445541	0.102112
H60	H	-0.373253	-1.351743	-0.000011
C61	C	-0.770289	-2.258261	-0.150513
C62	C	-0.790203	-2.184887	0.000037
H63	H	-0.816250	-2.355940	-0.150503
H64	H	-0.770436	-2.187435	-0.252614
H65	H	-0.710681	-2.281195	-0.150502
H66	H	-0.849809	-2.161942	0.000021
H67	H	-0.790066	-2.255728	0.102166
C68	C	-0.496129	-1.330335	-0.150545
C69	C	-0.541248	-1.433183	0.000008
H70	H	-0.513845	-1.230521	-0.150544
H71	H	-0.430571	-1.311614	-0.150541
H72	H	-0.513387	-1.379114	-0.252655
H73	H	-0.523986	-1.384410	0.102119
H74	H	-0.606821	-1.451901	0.000020
C75	C	-0.215166	-2.173435	0.000010
C76	C	-0.311814	-2.201047	0.000018
H77	H	-0.197467	-2.273265	0.000030
H78	H	-0.184567	-2.103670	-0.102118
H79	H	-0.197923	-2.124667	0.102134
H80	H	-0.329057	-2.249804	-0.102113
H81	H	-0.342425	-2.270839	0.102157
H82	H	-0.480810	-2.299921	0.000029
