data_functionalizedCrystal
_audit_creation_method	'MofGen! by Chris Wilmer'
_symmetry_space_group_name_H-M	'P1'
_symmetry_Int_Tables_number	1
_symmetry_cell_setting	triclinic
loop_
_symmetry_equiv_pos_as_xyz
  x,y,z
_cell_length_a	19.077105
_cell_length_b	19.077068
_cell_length_c	19.076919
_cell_angle_alpha	85.529249
_cell_angle_beta	89.923776
_cell_angle_gamma	90.115316
loop_
_atom_site_label
_atom_site_type_symbol
_atom_site_fract_x
_atom_site_fract_y
_atom_site_fract_z
Zn1	Zn	1.044048	-0.340450	0.453500
Zn2	Zn	1.377382	-0.007117	0.786833
Zn3	Zn	1.710715	0.326216	1.120166
Zn4	Zn	1.043962	-0.453600	0.340340
Zn5	Zn	1.377295	-0.120267	0.673674
Zn6	Zn	1.710628	0.213066	1.007007
Zn7	Zn	0.931660	-0.331023	0.330931
Zn8	Zn	1.264993	0.002310	0.664264
Zn9	Zn	1.598327	0.335643	0.997597
Zn10	Zn	0.921801	-0.453176	0.453077
Zn11	Zn	1.255134	-0.119842	0.786410
Zn12	Zn	1.588468	0.213491	1.119743
O13	O	0.985368	-0.394562	0.394462
O14	O	1.318701	-0.061229	0.727795
O15	O	1.652034	0.272104	1.061129
O16	O	1.142196	-0.359583	0.442604
O17	O	1.475530	-0.026250	0.775937
O18	O	1.808863	0.307084	1.109270
O19	O	1.033154	-0.433572	0.240616
O20	O	1.366488	-0.100239	0.573950
O21	O	1.699821	0.233094	0.907283
O22	O	0.950731	-0.233799	0.343429
O23	O	1.284064	0.099534	0.676762
O24	O	1.617398	0.432868	1.010095
O25	O	1.142133	-0.442714	0.359466
O26	O	1.475466	-0.109380	0.692800
O27	O	1.808799	0.223953	1.026133
O28	O	1.033302	-0.240725	0.433479
O29	O	1.366636	0.092608	0.766813
O30	O	1.699969	0.425942	1.100146
O31	O	0.950647	-0.343516	0.233703
O32	O	1.283980	-0.010182	0.567036
O33	O	1.617313	0.323151	0.900370
O34	O	0.832193	-0.343104	0.343019
O35	O	1.165526	-0.009771	0.676352
O36	O	1.498859	0.323563	1.009685
O37	O	0.933928	-0.441990	0.551609
O38	O	1.267261	-0.108657	0.884942
O39	O	1.600594	0.224676	1.218276
O40	O	0.824949	-0.432849	0.432759
O41	O	1.158283	-0.099516	0.766092
O42	O	1.491616	0.233818	1.099426
O43	O	1.023742	-0.359171	0.551919
O44	O	1.357076	-0.025838	0.885253
O45	O	1.690409	0.307495	1.218586
O46	O	1.023594	-0.552019	0.359056
O47	O	1.356928	-0.218685	0.692390
O48	O	1.690261	0.114648	1.025723
O49	O	0.933844	-0.551707	0.441883
O50	O	1.267177	-0.218374	0.775217
O51	O	1.600510	0.114960	1.108550
C52	C	0.803119	-0.386908	0.386822
C53	C	1.136453	-0.053575	0.720156
C54	C	1.469786	0.279759	1.053489
C55	C	0.725151	-0.383651	0.383571
C56	C	1.058485	-0.050318	0.716905
C57	C	1.391818	0.283016	1.050238
C58	C	0.684769	-0.428912	0.428699
C59	C	1.018102	-0.095578	0.762032
C60	C	1.351436	0.237755	1.095365
C61	C	0.611510	-0.425842	0.425647
C62	C	0.944843	-0.092509	0.758981
C63	C	1.278176	0.240825	1.092314
C64	C	0.578634	-0.377515	0.377464
C65	C	0.911968	-0.044182	0.710798
C66	C	1.245301	0.289151	1.044131
C67	C	0.619022	-0.332250	0.332335
C68	C	0.952355	0.001083	0.665668
C69	C	1.285689	0.334417	0.999001
C70	C	0.692280	-0.335317	0.335390
C71	C	1.025613	-0.001983	0.668724
C72	C	1.358946	0.331350	1.002057
C73	C	0.359940	-0.363323	0.363326
C74	C	0.693273	-0.029990	0.696660
C75	C	1.026607	0.303343	1.029993
C76	C	0.286677	-0.360262	0.360273
C77	C	0.620010	-0.026928	0.693606
C78	C	0.953344	0.306405	1.026939
C79	C	0.279170	-0.453853	0.453586
C80	C	0.612503	-0.120520	0.786920
C81	C	0.945836	0.212813	1.120253
C82	C	0.352429	-0.456918	0.456635
C83	C	0.685762	-0.123585	0.789968
C84	C	1.019096	0.209748	1.123301
C85	C	0.392810	-0.411651	0.411508
C86	C	0.726144	-0.078317	0.744841
C87	C	1.059477	0.255016	1.078175
N88	N	0.503752	-0.374378	0.374342
N89	N	0.837085	-0.041045	0.707676
N90	N	1.170419	0.292289	1.041009
N91	N	0.467691	-0.414785	0.414634
N92	N	0.801025	-0.081451	0.747967
N93	N	1.134358	0.251882	1.081300
C94	C	0.977658	-0.577398	0.401461
C95	C	1.310992	-0.244064	0.734794
C96	C	1.644325	0.089269	1.068128
C97	C	0.974423	-0.655619	0.404482
C98	C	1.307756	-0.322285	0.737815
C99	C	1.641090	0.011048	1.071148
C100	C	1.019665	-0.692509	0.362816
C101	C	1.352998	-0.359176	0.696149
C102	C	1.686332	-0.025843	1.029483
C103	C	1.016626	-0.766007	0.365661
C104	C	1.349960	-0.432673	0.698995
C105	C	1.683293	-0.099340	1.032328
C106	C	0.968342	-0.802612	0.410169
C107	C	1.301675	-0.469279	0.743502
C108	C	1.635009	-0.135945	1.076836
C109	C	0.923098	-0.765717	0.451839
C110	C	1.256431	-0.432383	0.785173
C111	C	1.589765	-0.099050	1.118506
C112	C	0.926141	-0.692221	0.448997
C113	C	1.259474	-0.358888	0.782331
C114	C	1.592807	-0.025554	1.115664
C115	C	0.954231	-1.022406	0.423292
C116	C	1.287564	-0.689073	0.756626
C117	C	1.620897	-0.355740	1.089959
C118	C	0.951190	-1.095907	0.426130
C119	C	1.284523	-0.762574	0.759463
C120	C	1.617857	-0.429241	1.092796
C121	C	1.044720	-1.096192	0.339952
C122	C	1.378053	-0.762859	0.673286
C123	C	1.711386	-0.429526	1.006619
C124	C	1.047755	-1.022695	0.337111
C125	C	1.381089	-0.689361	0.670444
C126	C	1.714422	-0.356028	1.003778
C127	C	1.002514	-0.985806	0.378784
C128	C	1.335847	-0.652473	0.712117
C129	C	1.669181	-0.319139	1.045451
N130	N	0.965233	-0.877738	0.413077
N131	N	1.298566	-0.544405	0.746410
N132	N	1.631900	-0.211072	1.079743
N133	N	1.005627	-0.910681	0.375880
N134	N	1.338960	-0.577348	0.709213
N135	N	1.672293	-0.244015	1.042546
C136	C	1.168328	-0.402247	0.402132
C137	C	1.501661	-0.068914	0.735465
C138	C	1.834995	0.264419	1.068798
C139	C	1.246295	-0.405522	0.405400
C140	C	1.579628	-0.072189	0.738734
C141	C	1.912961	0.261145	1.072067
C142	C	0.977745	-0.401585	0.578012
C143	C	1.311078	-0.068252	0.911345
C144	C	1.644412	0.265082	1.244679
C145	C	0.974497	-0.404578	0.656230
C146	C	1.307830	-0.071244	0.989563
C147	C	1.641163	0.262089	1.322897
C148	C	0.993126	-0.211015	0.387451
C149	C	1.326459	0.122319	0.720785
C150	C	1.659793	0.455652	1.054118
C151	C	0.996432	-0.132798	0.384464
C152	C	1.329765	0.200536	0.717797
C153	C	1.663099	0.533869	1.051131
C154	C	0.993003	-0.387518	0.211626
C155	C	1.326337	-0.054185	0.544959
C156	C	1.659670	0.279149	0.878292
C157	C	0.996396	-0.384333	0.133406
C158	C	1.329729	-0.051000	0.466739
C159	C	1.663063	0.282334	0.800073
C160	C	1.019730	-0.362866	0.693140
C161	C	1.353063	-0.029533	1.026473
C162	C	1.686396	0.303800	1.359806
C163	C	1.016669	-0.365675	0.766634
C164	C	1.350002	-0.032342	1.099967
C165	C	1.683336	0.300992	1.433300
C166	C	0.968378	-0.410200	0.803216
C167	C	1.301712	-0.076866	1.136550
C168	C	1.635045	0.256467	1.469883
C169	C	0.923140	-0.451913	0.766301
C170	C	1.256474	-0.118579	1.099635
C171	C	1.589807	0.214754	1.432968
C172	C	0.926198	-0.449100	0.692809
C173	C	1.259531	-0.115766	1.026142
C174	C	1.592865	0.217567	1.359475
C175	C	0.954216	-0.423233	1.022998
C176	C	1.287549	-0.089900	1.356332
C177	C	1.620882	0.243434	1.689665
C178	C	0.951163	-0.426044	1.096496
C179	C	1.284496	-0.092711	1.429830
C180	C	1.617830	0.240622	1.763163
C181	C	1.044691	-0.339805	1.096823
C182	C	1.378025	-0.006472	1.430157
C183	C	1.711358	0.326861	1.763490
C184	C	1.047748	-0.337000	1.023329
C185	C	1.381081	-0.003666	1.356663
C186	C	1.714414	0.329667	1.689996
C187	C	1.002507	-0.378710	0.986421
C188	C	1.335840	-0.045376	1.319754
C189	C	1.669174	0.287957	1.653087
N190	N	0.965250	-0.413073	0.878339
N191	N	1.298583	-0.079740	1.211672
N192	N	1.631917	0.253593	1.545006
N193	N	1.005632	-0.375832	0.911299
N194	N	1.338966	-0.042498	1.244632
N195	N	1.672299	0.290835	1.577966
H196	H	0.246283	-0.490707	0.490327
H197	H	0.579617	-0.157373	0.823660
H198	H	0.912950	0.175960	1.156994
Cl199	Cl	1.073507	-0.812380	0.313281
Cl200	Cl	1.406840	-0.479047	0.646614
Cl201	Cl	1.740174	-0.145714	0.979948
H202	H	0.711530	-0.468267	0.467932
H203	H	1.044864	-0.134933	0.801266
H204	H	1.378197	0.198400	1.134599
H205	H	0.259912	-0.320900	0.321040
H206	H	0.593246	0.012433	0.654374
H207	H	0.926579	0.345767	0.987707
Cl208	Cl	0.897354	-0.976041	0.475681
Cl209	Cl	1.230687	-0.642708	0.809014
Cl210	Cl	1.564021	-0.309375	1.142347
Cl211	Cl	0.410696	-0.306413	0.306597
Cl212	Cl	0.744029	0.026920	0.639930
Cl213	Cl	1.077362	0.360254	0.973263
Cl214	Cl	0.577693	-0.271491	0.271766
Cl215	Cl	0.911026	0.061842	0.605099
Cl216	Cl	1.244360	0.395175	0.938433
H217	H	0.725159	-0.298457	0.298646
H218	H	1.058492	0.034876	0.631979
H219	H	1.391825	0.368210	0.965313
Cl220	Cl	1.080445	-0.306893	0.647157
Cl221	Cl	1.413778	0.026440	0.980491
Cl222	Cl	1.747112	0.359773	1.313824
H223	H	1.087073	-0.300745	0.993549
H224	H	1.420406	0.032588	1.326882
H225	H	1.753740	0.365922	1.660216
Cl226	Cl	0.862429	-0.507884	0.812291
Cl227	Cl	1.195762	-0.174551	1.145624
Cl228	Cl	1.529095	0.158783	1.478958
H229	H	1.087072	-0.992892	0.300869
H230	H	1.420406	-0.659559	0.634203
H231	H	1.753739	-0.326225	0.967536
Cl232	Cl	1.080365	-0.646498	0.306856
Cl233	Cl	1.413698	-0.313164	0.640189
Cl234	Cl	1.747031	0.020169	0.973522
Cl235	Cl	0.897342	-0.475670	0.976608
Cl236	Cl	1.230675	-0.142336	1.309941
Cl237	Cl	1.564009	0.190997	1.643275
H238	H	0.883787	-0.795527	0.488082
H239	H	1.217120	-0.462194	0.821415
H240	H	1.550453	-0.128860	1.154748
Cl241	Cl	0.869265	-0.645844	0.501382
Cl242	Cl	1.202598	-0.312511	0.834715
Cl243	Cl	1.535931	0.020822	1.168048
H244	H	1.081523	-0.305846	1.126882
H245	H	1.414856	0.027487	1.460216
H246	H	1.748189	0.360820	1.793549
H247	H	0.911836	-0.462303	1.126280
H248	H	1.245170	-0.128970	1.459613
H249	H	1.578503	0.204364	1.792947
H250	H	0.578633	-0.462699	0.462394
H251	H	0.911967	-0.129365	0.795728
H252	H	1.245300	0.203968	1.129061
H253	H	1.081554	-1.126235	0.306026
H254	H	1.414887	-0.792902	0.639359
H255	H	1.748220	-0.459568	0.972692
H256	H	0.379191	-0.496273	0.495869
H257	H	0.712524	-0.162939	0.829202
H258	H	1.045858	0.170394	1.162536
H259	H	1.053504	-0.331711	0.796682
H260	H	1.386838	0.001622	1.130016
H261	H	1.720171	0.334956	1.463349
H262	H	0.889357	-0.483058	0.662757
H263	H	1.222691	-0.149725	0.996090
H264	H	1.556024	0.183609	1.329424
H265	H	0.911879	-1.125710	0.462386
H266	H	1.245212	-0.792377	0.795719
H267	H	1.578546	-0.459044	1.129053
