data_functionalizedCrystal
_audit_creation_method	'MofGen! by Chris Wilmer'
_symmetry_space_group_name_H-M	'P1'
_symmetry_Int_Tables_number	1
_symmetry_cell_setting	triclinic
loop_
_symmetry_equiv_pos_as_xyz
  x,y,z
_cell_length_a	19.077236
_cell_length_b	16.120531
_cell_length_c	19.076919
_cell_angle_alpha	95.042833
_cell_angle_beta	90.112677
_cell_angle_gamma	84.663528
loop_
_atom_site_label
_atom_site_type_symbol
_atom_site_fract_x
_atom_site_fract_y
_atom_site_fract_z
Zn1	Zn	1.044748	0.303871	0.452976
Zn2	Zn	1.043409	0.438022	0.340958
Zn3	Zn	0.931983	0.303432	0.330738
Zn4	Zn	0.920730	0.449190	0.454154
O5	O	0.985218	0.373629	0.394706
O6	O	1.143104	0.317176	0.441901
O7	O	1.032777	0.415311	0.241073
O8	O	0.952211	0.186347	0.342183
O9	O	1.142120	0.415737	0.359602
O10	O	1.035059	0.186669	0.431990
O11	O	0.950913	0.316428	0.233564
O12	O	0.831957	0.327257	0.343325
O13	O	0.933033	0.434771	0.552527
O14	O	0.823689	0.434345	0.433998
O15	O	1.024148	0.328005	0.551662
O16	O	1.021866	0.556647	0.360744
O17	O	0.931734	0.564852	0.443908
C18	C	0.802274	0.381966	0.387680
C19	C	0.724009	0.385553	0.384692
C20	C	0.687745	0.336012	0.426209
C21	C	0.614207	0.339379	0.423395
C22	C	0.576933	0.392292	0.379067
C23	C	0.613201	0.441835	0.337546
C24	C	0.686739	0.438463	0.340357
C25	C	0.356945	0.407865	0.366055
C26	C	0.283403	0.411234	0.363249
C27	C	0.284414	0.308777	0.449098
C28	C	0.357952	0.305413	0.451908
C29	C	0.394214	0.354953	0.410383
N30	N	0.501764	0.395736	0.376192
N31	N	0.469382	0.351504	0.413256
C32	C	0.975452	0.591123	0.403579
C33	C	0.971338	0.684167	0.407401
C34	C	0.963830	0.854518	0.414393
C35	C	1.006634	0.891896	0.374981
C36	C	1.002456	0.986685	0.378871
C37	C	0.968006	0.759720	0.410504
C38	C	1.168875	0.365259	0.401760
C39	C	1.247139	0.361693	0.404766
C40	C	0.995015	1.155285	0.385801
C41	C	0.999128	1.062241	0.381971
C42	C	0.977485	0.382682	0.578356
C43	C	0.974189	0.386541	0.656617
C44	C	0.992964	0.364548	0.211770
C45	C	0.996406	0.360447	0.133506
C46	C	1.020077	0.332769	0.692934
C47	C	1.016972	0.336391	0.766468
C48	C	0.967982	0.393790	0.803683
C49	C	0.922089	0.447564	0.767360
C50	C	0.925191	0.443937	0.693828
C51	C	0.953615	0.410595	1.023650
C52	C	0.950518	0.414219	1.097188
C53	C	1.045401	0.303044	1.096291
C54	C	1.048501	0.299426	1.022757
C55	C	1.002606	0.353197	0.986440
N56	N	0.964809	0.397496	0.878846
N57	N	1.005776	0.349487	0.911278
H58	H	0.386461	0.448204	0.332244
Br59	Br	0.738324	0.264204	0.486376
Br60	Br	0.897524	0.919832	0.475499
Br61	Br	1.086572	0.254872	0.642436
Br62	Br	1.079283	0.263449	0.815757
Br63	Br	1.114992	0.221527	0.972256
Br64	Br	1.107683	0.230072	1.145581
H65	H	0.388296	0.262329	0.488007
H66	H	0.916254	0.454391	0.994091
H67	H	0.882198	0.494297	0.797666
Br68	Br	0.884025	0.492120	1.147694
H69	H	0.887817	0.487716	0.664258
Br70	Br	0.235197	0.241547	0.505449
H71	H	0.584685	0.299039	0.457204
H72	H	0.253056	0.454327	0.327152
Br73	Br	0.562616	0.513639	0.277380
H74	H	0.716263	0.478805	0.306549
Br75	Br	1.072941	0.826583	0.313869
