data_functionalizedCrystal
_audit_creation_method	'MofGen! by Chris Wilmer'
_symmetry_space_group_name_H-M	'P1'
_symmetry_Int_Tables_number	1
_symmetry_cell_setting	triclinic
loop_
_symmetry_equiv_pos_as_xyz
  x,y,z
_cell_length_a	16.974897
_cell_length_b	17.019294
_cell_length_c	15.455313
_cell_angle_alpha	88.788101
_cell_angle_beta	83.675220
_cell_angle_gamma	83.149135
loop_
_atom_site_label
_atom_site_type_symbol
_atom_site_fract_x
_atom_site_fract_y
_atom_site_fract_z
O1	O	1.056388	0.093263	-0.153173
O2	O	1.556388	0.593263	0.346827
O3	O	0.825440	0.106784	-0.137989
O4	O	1.325440	0.606784	0.362011
O5	O	0.946945	-0.014427	-0.137451
O6	O	1.446945	0.485573	0.362549
O7	O	0.934883	0.214474	-0.153711
O8	O	1.434883	0.714474	0.346289
O9	O	0.939997	-0.007524	0.006782
O10	O	1.439997	0.492476	0.506782
O11	O	0.818492	0.113687	0.006244
O12	O	1.318492	0.613687	0.506244
O13	O	1.049440	0.100166	-0.008939
O14	O	1.549440	0.600166	0.491061
Cu15	Cu	0.933331	0.107557	0.011822
Cu16	Cu	1.433331	0.607557	0.511822
Cu17	Cu	0.941548	0.099393	-0.158751
Cu18	Cu	1.441548	0.599393	0.341249
O19	O	0.927935	0.221377	-0.009477
O20	O	1.427935	0.721377	0.490523
C21	C	0.792407	0.109847	-0.063771
C22	C	1.292407	0.609847	0.436229
C23	C	0.704332	0.108681	-0.057508
C24	C	1.204332	0.608681	0.442492
C25	C	0.666734	0.104373	-0.133182
C26	C	1.166734	0.604373	0.366818
C27	C	0.583976	0.103291	-0.127285
C28	C	1.083976	0.603291	0.372715
C29	C	0.538818	0.106511	-0.045715
C30	C	1.038818	0.606511	0.454285
C31	C	0.576421	0.110822	0.029964
C32	C	1.076421	0.610822	0.529964
C33	C	0.659177	0.111910	0.024067
C34	C	1.159177	0.611910	0.524067
C35	C	0.290907	0.103667	-0.019646
C36	C	0.790907	0.603667	0.480354
C37	C	0.208146	0.102576	-0.013754
C38	C	0.708146	0.602576	0.486246
C39	C	0.215707	0.095046	-0.171005
C40	C	0.715707	0.595046	0.328995
C41	C	0.298464	0.096130	-0.176895
C42	C	0.798464	0.596130	0.323105
C43	C	0.336060	0.100445	-0.101216
C44	C	0.836060	0.600445	0.398784
N45	N	0.454226	0.105403	-0.039686
N46	N	0.954226	0.605403	0.460314
N47	N	0.420650	0.101559	-0.107246
N48	N	0.920650	0.601559	0.392754
C49	C	0.942877	-0.040257	-0.063106
C50	C	1.442877	0.459743	0.436894
C51	C	0.941096	-0.127508	-0.056467
C52	C	1.441096	0.372492	0.443533
C53	C	0.944049	-0.172257	-0.131969
C54	C	1.444049	0.327743	0.368031
C55	C	0.942371	-0.254238	-0.125727
C56	C	1.442371	0.245762	0.374273
C57	C	0.937746	-0.291469	-0.043983
C58	C	1.437746	0.208531	0.456017
C59	C	0.934790	-0.246714	0.031524
C60	C	1.434790	0.253286	0.531524
C61	C	0.936463	-0.164734	0.025282
C62	C	1.436463	0.335266	0.525282
C63	C	0.932501	-0.538807	-0.021203
C64	C	1.432501	-0.038807	0.478797
C65	C	0.930831	-0.620793	-0.014967
C66	C	1.430831	-0.120793	0.485033
C67	C	0.938410	-0.628312	-0.172219
C68	C	1.438410	-0.128312	0.327781
C69	C	0.940087	-0.546331	-0.178454
C70	C	1.440087	-0.046331	0.321546
C71	C	0.937128	-0.501582	-0.102946
C72	C	1.437128	-0.001582	0.397054
C73	C	0.936033	-0.375267	-0.037602
C74	C	1.436033	0.124733	0.462398
C75	C	0.938835	-0.417785	-0.109328
C76	C	1.438835	0.082215	0.390672
C77	C	1.082473	0.097103	-0.083159
C78	C	1.582473	0.597103	0.416841
C79	C	1.170548	0.098268	-0.089428
C80	C	1.670548	0.598268	0.410572
C81	C	0.932003	0.247207	-0.083824
C82	C	1.432003	0.747207	0.416176
C83	C	0.933784	0.334458	-0.090469
C84	C	1.433784	0.834458	0.409531
N85	N	0.927558	0.113298	0.131794
N86	N	1.427558	0.613298	0.631794
N87	N	0.947328	0.093646	-0.278722
N88	N	1.447328	0.593646	0.221278
C89	C	0.979195	0.061822	0.177414
C90	C	1.479195	0.561822	0.677414
C91	C	0.974836	0.066171	0.268202
C92	C	1.474836	0.566171	0.768202
C93	C	0.918843	0.122000	0.313368
C94	C	1.418843	0.622000	0.813368
C95	C	0.867199	0.173478	0.267742
C96	C	1.367199	0.673478	0.767742
C97	C	0.871555	0.169125	0.176956
C98	C	1.371555	0.669125	0.676956
C99	C	0.900041	0.140770	0.584866
C100	C	1.400041	0.640770	1.084866
C101	C	0.895691	0.145121	0.675658
C102	C	1.395691	0.645121	1.175658
C103	C	1.003327	0.037813	0.676112
C104	C	1.503327	0.537813	1.176112
C105	C	1.007681	0.033467	0.585323
C106	C	1.507681	0.533467	1.085323
C107	C	0.956035	0.084943	0.539705
C108	C	1.456035	0.584943	1.039705
N109	N	0.914387	0.126449	0.406169
N110	N	1.414387	0.626449	0.906169
N111	N	0.960487	0.080490	0.446907
N112	N	1.460487	0.580490	0.946907
H113	H	0.947820	-0.141951	-0.198534
H114	H	1.447820	0.358049	0.301466
Br115	Br	0.801467	0.238983	0.115044
Br116	Br	1.301467	0.738983	0.615044
H117	H	0.930107	-0.502384	0.040280
H118	H	1.430107	-0.002384	0.540280
H119	H	1.016883	0.024255	0.305346
H120	H	1.516883	0.524255	0.805346
H121	H	0.553367	0.099783	-0.188907
H122	H	1.053367	0.599783	0.311093
Br123	Br	0.829954	0.210629	0.522960
Br124	Br	1.329954	0.710629	1.022960
Br125	Br	0.791200	0.249243	0.329037
Br126	Br	1.291200	0.749243	0.829037
H127	H	0.931019	-0.277033	0.098082
H128	H	1.431019	0.222967	0.598082
Br129	Br	0.932451	-0.104001	0.127754
Br130	Br	1.432451	0.395999	0.627754
H131	H	0.185087	0.091535	-0.232618
H132	H	0.685087	0.591535	0.267382
Br133	Br	0.728013	0.099994	-0.243890
Br134	Br	1.228013	0.599994	0.256110
H135	H	0.171377	0.105221	0.052672
H136	H	0.671377	0.605221	0.552672
H137	H	0.321508	0.107175	0.041977
H138	H	0.821508	0.607175	0.541977
H139	H	0.942595	-0.387467	-0.175884
H140	H	1.442595	0.112533	0.324116
Br141	Br	0.515135	0.115203	0.140668
Br142	Br	1.015135	0.615203	0.640668
H143	H	0.940818	-0.664755	-0.233693
H144	H	1.440818	-0.164755	0.266307
H145	H	0.689787	0.115422	0.085688
H146	H	1.189787	0.615422	0.585688
Br147	Br	0.924562	-0.671322	0.095978
Br148	Br	1.424562	-0.171322	0.595978
H149	H	0.335228	0.093502	-0.243318
H150	H	0.835228	0.593502	0.256682
Br151	Br	0.929748	-0.425800	0.073334
Br152	Br	1.429748	0.074200	0.573334
Br153	Br	1.055197	-0.013944	0.116125
Br154	Br	1.555197	0.486056	0.616125
H155	H	1.045374	-0.004097	0.713262
H156	H	1.545374	0.495903	1.213262
H157	H	1.053276	-0.011993	0.548551
H158	H	1.553276	0.488007	1.048551
Br159	Br	0.946377	-0.314966	-0.228199
Br160	Br	1.446377	0.185034	0.271801
Br161	Br	0.946370	-0.495809	-0.289397
Br162	Br	1.446370	0.004191	0.210603
Br163	Br	0.819696	0.220900	0.736949
Br164	Br	1.319696	0.720900	1.236949
