data_functionalizedCrystal
_audit_creation_method	'MofGen! by Chris Wilmer'
_symmetry_space_group_name_H-M	'P1'
_symmetry_Int_Tables_number	1
_symmetry_cell_setting	triclinic
loop_
_symmetry_equiv_pos_as_xyz
  x,y,z
_cell_length_a	15.625950
_cell_length_b	23.532407
_cell_length_c	14.185569
_cell_angle_alpha	76.924933
_cell_angle_beta	120.545593
_cell_angle_gamma	83.582877
loop_
_atom_site_label
_atom_site_type_symbol
_atom_site_fract_x
_atom_site_fract_y
_atom_site_fract_z
O1	O	1.290518	0.014754	0.385860
O2	O	1.790518	0.514754	0.885860
O3	O	1.002143	0.039811	0.280991
O4	O	1.502143	0.539811	0.780991
O5	O	1.155031	-0.056106	0.336608
O6	O	1.655031	0.443894	0.836608
O7	O	1.137630	0.110671	0.330243
O8	O	1.637630	0.610671	0.830243
O9	O	1.200196	-0.084438	0.519872
O10	O	1.700196	0.415562	1.019872
O11	O	1.047308	0.011479	0.464255
O12	O	1.547308	0.511479	0.964255
O13	O	1.335682	-0.013578	0.569124
O14	O	1.835682	0.486422	1.069124
Cu15	Cu	1.195619	-0.003637	0.533423
Cu16	Cu	1.695619	0.496363	1.033423
Cu17	Cu	1.142207	0.029869	0.316692
Cu18	Cu	1.642207	0.529869	0.816692
O19	O	1.182794	0.082339	0.513507
O20	O	1.682794	0.582339	1.013507
C21	C	0.987839	0.027316	0.359209
C22	C	1.487839	0.527316	0.859209
C23	C	0.877928	0.032288	0.319240
C24	C	1.377928	0.532288	0.819240
C25	C	0.639415	-0.028527	0.687139
C26	C	1.139415	0.471473	1.187139
C27	C	0.536122	-0.023836	0.649530
C28	C	1.036122	0.476164	1.149530
C29	C	0.486937	0.007048	0.449762
C30	C	0.986937	0.507048	0.949762
C31	C	0.590227	0.002362	0.487353
C32	C	1.090227	0.502362	0.987353
C33	C	0.666459	-0.015426	0.606043
C34	C	1.166459	0.484574	1.106043
C35	C	0.617271	0.015464	0.406258
C36	C	1.117271	0.515464	0.906258
C37	C	0.720553	0.010775	0.443847
C38	C	1.220553	0.510775	0.943847
C39	C	0.796791	-0.007014	0.562532
C40	C	1.296791	0.492986	1.062532
C41	C	0.769741	-0.020115	0.643633
C42	C	1.269741	0.479885	1.143633
C43	C	0.541038	0.033248	0.287568
C44	C	1.041038	0.533248	0.787568
C45	C	0.568082	0.046349	0.206473
C46	C	1.068082	0.546349	0.706473
C47	C	0.671365	0.041665	0.244061
C48	C	1.171365	0.541665	0.744061
C49	C	0.747603	0.023875	0.362746
C50	C	1.247603	0.523875	0.862746
C51	C	0.698414	0.054765	0.162961
C52	C	1.198414	0.554765	0.662961
C53	C	0.801696	0.050077	0.200550
C54	C	1.301696	0.550077	0.700550
C55	C	0.850884	0.019187	0.400336
C56	C	1.350884	0.519187	0.900336
C57	C	1.177171	-0.091466	0.428082
C58	C	1.677171	0.408534	0.928082
C59	C	1.175842	-0.154615	0.427606
C60	C	1.675842	0.345385	0.927606
C61	C	1.257948	-0.557995	0.457410
C62	C	1.757948	-0.057995	0.957410
C63	C	1.256709	-0.617330	0.456952
C64	C	1.756709	-0.117330	0.956952
O65	O	1.332827	-0.658042	0.484595
O66	O	1.832827	-0.158042	0.984595
N67	N	1.165821	-0.635211	0.423900
N68	N	1.665821	-0.135211	0.923900
C69	C	1.076162	-0.593753	0.391293
C70	C	1.576162	-0.093753	0.891293
O71	O	0.998740	-0.614410	0.363137
O72	O	1.498740	-0.114410	0.863137
C73	C	1.077400	-0.534418	0.391744
C74	C	1.577400	-0.034418	0.891744
C75	C	1.168298	-0.516542	0.424809
C76	C	1.668298	-0.016542	0.924809
C77	C	1.348838	-0.540118	0.490471
C78	C	1.848838	-0.040118	0.990471
C79	C	1.350077	-0.480788	0.490931
C80	C	1.850077	0.019212	0.990931
C81	C	1.260427	-0.439335	0.458330
C82	C	1.760427	0.060665	0.958330
C83	C	1.169537	-0.457212	0.425269
C84	C	1.669537	0.042788	0.925269
C85	C	0.987741	-0.492960	0.359130
C86	C	1.487741	0.007040	0.859130
C87	C	0.988987	-0.433622	0.359582
C88	C	1.488987	0.066378	0.859582
C89	C	1.079884	-0.415746	0.392647
C90	C	1.579884	0.084254	0.892647
C91	C	1.081125	-0.356430	0.393128
C92	C	1.581125	0.143570	0.893128
N93	N	1.172014	-0.338548	0.426180
N94	N	1.672014	0.161452	0.926180
C95	C	1.261665	-0.380001	0.458781
C96	C	1.761665	0.119999	0.958781
C97	C	1.073569	-0.718359	0.390347
C98	C	1.573569	-0.218359	0.890347
C99	C	1.072331	-0.777694	0.389904
C100	C	1.572331	-0.277694	0.889904
C101	C	1.252878	-0.801266	0.455561
C102	C	1.752878	-0.301266	0.955561
C103	C	1.254117	-0.741932	0.456011
C104	C	1.754117	-0.241932	0.956011
C105	C	1.164457	-0.700478	0.423399
C106	C	1.664457	-0.200478	0.923399
C107	C	1.264260	-0.255403	0.459745
C108	C	1.764260	0.244597	0.959745
C109	C	1.265493	-0.196067	0.460207
C110	C	1.765493	0.303933	0.960207
C111	C	1.084945	-0.172499	0.394545
C112	C	1.584945	0.327501	0.894545
C113	C	1.083713	-0.231830	0.394089
C114	C	1.583713	0.268170	0.894089
C115	C	1.173378	-0.273281	0.426688
C116	C	1.673378	0.226719	0.926688
O117	O	1.005047	-0.315684	0.365495
O118	O	1.505047	0.184316	0.865495
O119	O	1.339070	-0.359332	0.486918
O120	O	1.839070	0.140668	0.986918
C121	C	1.349986	-0.001083	0.490904
C122	C	1.849986	0.498917	0.990904
C123	C	1.459895	-0.006054	0.530865
C124	C	1.959895	0.493946	1.030865
C125	C	1.160653	0.117699	0.422031
C126	C	1.660653	0.617699	0.922031
C127	C	1.161981	0.180849	0.422499
C128	C	1.661981	0.680849	0.922499
N129	N	1.233193	-0.027204	0.685863
N130	N	1.733193	0.472796	1.185863
N131	N	1.104640	0.053432	0.164255
N132	N	1.604640	0.553432	0.664255
C133	C	0.994246	0.122647	0.966590
C134	C	1.494246	0.622647	1.466590
C135	C	1.022715	0.104799	1.081968
C136	C	1.522715	0.604799	1.581968
C137	C	1.158125	0.019891	1.131187
C138	C	1.658125	0.519891	1.631187
C139	C	1.129664	0.037730	1.015810
C140	C	1.629664	0.537730	1.515810
C141	C	1.047725	0.089109	0.933520
C142	C	1.547725	0.589109	1.433520
C143	C	1.183142	0.004193	0.982740
C144	C	1.683142	0.504193	1.482740
C145	C	1.154687	0.022033	0.867374
C146	C	1.654687	0.522033	1.367374
C147	C	1.072753	0.073411	0.785078
C148	C	1.572753	0.573411	1.285078
C149	C	1.019269	0.106949	0.818154
C150	C	1.519269	0.606949	1.318154
C151	C	1.265086	-0.047184	1.065034
C152	C	1.765086	0.452816	1.565034
C153	C	1.318564	-0.080721	1.031964
C154	C	1.818564	0.419279	1.531964
C155	C	1.290104	-0.062884	0.916595
C156	C	1.790104	0.437116	1.416595
C157	C	1.208170	-0.011506	0.834299
C158	C	1.708170	0.488494	1.334299
C159	C	1.343588	-0.096423	0.883520
C160	C	1.843588	0.403577	1.383520
C161	C	1.315132	-0.078582	0.768154
C162	C	1.815132	0.421418	1.268154
C163	C	1.179715	0.006334	0.718933
C164	C	1.679715	0.506334	1.218933
H165	H	0.701487	-0.043004	0.783787
H166	H	1.201487	0.456996	1.283787
H167	H	0.927516	0.164481	0.899581
H168	H	1.427516	0.664481	1.399581
H169	H	1.337273	-0.289146	0.486287
H170	H	1.837273	0.210854	0.986287
H171	H	1.000555	-0.684611	0.363798
H172	H	1.500555	-0.184611	0.863798
H173	H	1.224843	-0.021941	1.198202
H174	H	1.724843	0.478059	1.698202
H175	H	0.952539	0.148783	0.751145
H176	H	1.452539	0.648783	1.251145
H177	H	1.011955	-0.138738	0.368006
H178	H	1.511955	0.361262	0.868006
H179	H	0.636333	0.069242	0.066324
H180	H	1.136333	0.569242	0.566324
H181	H	0.506002	0.060830	0.109835
H182	H	1.006002	0.560830	0.609835
H183	H	0.831813	-0.034591	0.740281
H184	H	1.331813	0.465409	1.240281
H185	H	0.979160	0.132114	1.108883
H186	H	1.479160	0.632114	1.608883
H187	H	0.823714	0.060748	0.134513
H188	H	1.323714	0.560748	0.634513
H189	H	0.912956	0.004711	0.496984
H190	H	1.412956	0.504711	0.996984
H191	H	1.339516	-0.181518	0.487136
H192	H	1.839516	0.318482	0.987136
H193	H	1.288254	-0.061705	1.158972
H194	H	1.788254	0.438295	1.658972
H195	H	0.424856	0.021529	0.353124
H196	H	0.924856	0.521529	0.853124
H197	H	1.424094	-0.466239	0.517851
H198	H	1.924094	0.033761	1.017851
H199	H	1.421846	-0.573864	0.517016
H200	H	1.921846	-0.073864	1.017016
H201	H	0.880888	-0.010832	0.593136
H202	H	1.380888	0.489168	1.093136
H203	H	1.410310	-0.138252	0.950537
H204	H	1.910310	0.361748	1.450537
H205	H	1.328133	-0.727382	0.482935
H206	H	1.828133	-0.227382	0.982935
H207	H	1.358681	-0.105892	0.741230
H208	H	1.858681	0.394108	1.241230
H209	H	1.325876	-0.835028	0.482102
H210	H	1.825876	-0.335028	0.982102
H211	H	0.514108	-0.034493	0.715576
H212	H	1.014108	0.465507	1.215576
H213	H	1.385282	-0.122553	1.098979
H214	H	1.885282	0.377447	1.598979
H215	H	0.998318	-0.792245	0.362998
H216	H	1.498318	-0.292245	0.862998
H217	H	0.456940	0.037067	0.256967
H218	H	0.956940	0.537067	0.756967
H219	H	0.913721	-0.507502	0.332198
H220	H	1.413721	-0.007502	0.832198
H221	H	0.915973	-0.399872	0.333023
H222	H	1.415973	0.100128	0.833023
H223	H	1.009705	-0.246390	0.367195
H224	H	1.509705	0.253610	0.867195
H225	H	1.112985	0.048168	0.651924
H226	H	1.612985	0.548168	1.151924
H227	H	1.049589	0.087937	0.691142
H228	H	1.549589	0.587937	1.191142
