data_functionalizedCrystal
_audit_creation_method	'MofGen! by Chris Wilmer'
_symmetry_space_group_name_H-M	'P1'
_symmetry_Int_Tables_number	1
_symmetry_cell_setting	triclinic
loop_
_symmetry_equiv_pos_as_xyz
  x,y,z
_cell_length_a	13.032831
_cell_length_b	16.120484
_cell_length_c	13.034356
_cell_angle_alpha	86.035874
_cell_angle_beta	74.815040
_cell_angle_gamma	86.078521
loop_
_atom_site_label
_atom_site_type_symbol
_atom_site_fract_x
_atom_site_fract_y
_atom_site_fract_z
Zn1	Zn	1.676550	-0.417867	-0.829972
Zn2	Zn	2.176550	0.082133	-0.329972
Zn3	Zn	1.645187	-0.571245	-0.660979
Zn4	Zn	2.145187	-0.071245	-0.160979
Zn5	Zn	1.476355	-0.417874	-0.629855
Zn6	Zn	1.976355	0.082126	-0.129855
Zn7	Zn	1.491979	-0.540104	-0.814278
Zn8	Zn	1.991979	-0.040104	-0.314278
O9	O	1.572518	-0.486772	-0.733771
O10	O	2.072518	0.013228	-0.233771
O11	O	1.820291	-0.451243	-0.827148
O12	O	2.320291	0.048757	-0.327148
O13	O	1.603127	-0.563935	-0.508944
O14	O	2.103127	-0.063935	-0.008944
O15	O	1.509498	-0.302530	-0.649943
O16	O	2.009498	0.197470	-0.149943
O17	O	1.797249	-0.563929	-0.702990
O18	O	2.297249	-0.063929	-0.202990
O19	O	1.656581	-0.302525	-0.796969
O20	O	2.156581	0.197475	-0.296969
O21	O	1.479086	-0.451255	-0.486078
O22	O	1.979086	0.048745	0.013922
O23	O	1.330527	-0.421058	-0.634726
O24	O	1.830527	0.078942	-0.134726
O25	O	1.536127	-0.510853	-0.964266
O26	O	2.036127	-0.010853	-0.464266
O27	O	1.342006	-0.510860	-0.770221
O28	O	1.842006	-0.010860	-0.270221
O29	O	1.671731	-0.421046	-0.975796
O30	O	2.171731	0.078954	-0.475796
O31	O	1.618277	-0.682456	-0.687772
O32	O	2.118277	-0.182456	-0.187772
O33	O	1.505716	-0.659577	-0.800400
O34	O	2.005716	-0.159577	-0.300400
C35	C	1.297917	-0.462581	-0.697394
C36	C	1.797917	0.037419	-0.197394
C37	C	1.180444	-0.452250	-0.681857
C38	C	1.680444	0.047750	-0.181857
C39	C	1.133761	-0.492165	-0.741880
C40	C	1.633761	0.007835	-0.241880
C41	C	1.012346	-0.481487	-0.725824
C42	C	1.512346	0.018513	-0.225824
C43	C	1.560321	-0.700924	-0.745787
C44	C	2.060321	-0.200924	-0.245787
C45	C	1.555204	-0.792545	-0.750976
C46	C	2.055204	-0.292545	-0.250976
C47	C	1.545871	-0.960297	-0.760472
C48	C	2.045871	-0.460297	-0.260472
C49	C	1.599356	-1.012423	-0.707113
C50	C	2.099356	-0.512423	-0.207113
C51	C	1.594163	-1.105765	-0.712396
C52	C	2.094163	-0.605765	-0.212396
C53	C	1.551063	-0.866945	-0.755190
C54	C	2.051063	-0.366945	-0.255190
C55	C	1.848191	-0.511059	-0.770291
C56	C	2.348191	-0.011059	-0.270291
C57	C	1.965666	-0.521408	-0.785854
C58	C	2.465666	-0.021408	-0.285854
C59	C	1.609171	-0.462475	-1.009454
C60	C	2.109171	0.037525	-0.509454
C61	C	1.624790	-0.452121	-1.126933
C62	C	2.124790	0.047879	-0.626933
C63	C	1.584795	-0.271785	-0.721735
C64	C	2.084795	0.228215	-0.221735
C65	C	1.590026	-0.180170	-0.716606
C66	C	2.090026	0.319830	-0.216606
C67	C	1.580799	-0.481243	-1.295026
C68	C	2.080799	0.018757	-0.795026
C69	C	1.564653	-0.491944	-1.173605
C70	C	2.064653	0.008056	-0.673605
C71	C	1.536072	-0.510921	-0.459166
C72	C	2.036072	-0.010921	0.040834
C73	C	1.520671	-0.521061	-0.341701
C74	C	2.020671	-0.021061	0.158299
H75	H	1.183681	-0.534238	-0.805157
H76	H	1.683681	-0.034238	-0.305157
Br77	Br	1.048855	-0.591528	-0.891344
Br78	Br	1.548855	-0.091528	-0.391344
H79	H	1.130525	-0.410169	-0.618588
H80	H	1.630525	0.089831	-0.118588
Br81	Br	0.929160	-0.411343	-0.620363
Br82	Br	1.429160	0.088657	-0.120363
H83	H	1.649045	-0.986946	-0.657461
H84	H	2.149045	-0.486946	-0.157461
Br85	Br	1.463055	-1.002757	-0.843221
Br86	Br	1.963055	-0.502757	-0.343221
Br87	Br	1.686535	-0.411225	-1.378241
Br88	Br	2.186535	0.088775	-0.878241
Br89	Br	1.458930	-0.561981	-1.090397
Br90	Br	1.958930	-0.061981	-0.590397
Br91	Br	1.730531	-0.382099	-1.210141
Br92	Br	2.230531	0.117901	-0.710141
Br93	Br	1.414952	-0.591094	-1.258489
Br94	Br	1.914952	-0.091094	-0.758489
