data_functionalizedCrystal
_audit_creation_method	'MofGen! by Chris Wilmer'
_symmetry_space_group_name_H-M	'P1'
_symmetry_Int_Tables_number	1
_symmetry_cell_setting	triclinic
loop_
_symmetry_equiv_pos_as_xyz
  x,y,z
_cell_length_a	16.109301
_cell_length_b	12.503552
_cell_length_c	16.109304
_cell_angle_alpha	86.478516
_cell_angle_beta	83.462111
_cell_angle_gamma	93.519831
loop_
_atom_site_label
_atom_site_type_symbol
_atom_site_fract_x
_atom_site_fract_y
_atom_site_fract_z
O1	O	1.107930	0.089255	0.102064
O2	O	1.441264	0.422588	0.435398
O3	O	1.774597	0.755922	0.768731
O4	O	0.865869	0.089269	0.115363
O5	O	1.199203	0.422603	0.448696
O6	O	1.532536	0.755936	0.782029
O7	O	0.993548	0.089262	-0.012317
O8	O	1.326882	0.422596	0.321016
O9	O	1.660215	0.755929	0.654349
O10	O	0.980251	0.089262	0.229744
O11	O	1.313585	0.422595	0.563078
O12	O	1.646918	0.755929	0.896411
O13	O	0.983935	-0.089380	-0.002707
O14	O	1.317268	0.243954	0.330627
O15	O	1.650602	0.577287	0.663960
O16	O	0.856256	-0.089373	0.124973
O17	O	1.189589	0.243961	0.458307
O18	O	1.522923	0.577294	0.791640
O19	O	1.098317	-0.089387	0.111675
O20	O	1.431650	0.243946	0.445008
O21	O	1.764984	0.577280	0.778342
Cu22	Cu	0.976409	-0.105691	0.119202
Cu23	Cu	1.309742	0.227642	0.452535
Cu24	Cu	1.643076	0.560975	0.785868
Cu25	Cu	0.987778	0.105574	0.107836
Cu26	Cu	1.321111	0.438907	0.441169
Cu27	Cu	1.654444	0.772240	0.774502
O28	O	0.970638	-0.089380	0.239355
O29	O	1.303972	0.243953	0.572688
O30	O	1.637305	0.577287	0.906022
C31	C	0.830088	-0.000050	0.119629
C32	C	1.163421	0.333284	0.452962
C33	C	1.496755	0.666617	0.786296
C34	C	0.737793	-0.000044	0.118014
C35	C	1.071126	0.333289	0.451347
C36	C	1.404460	0.666623	0.784680
N37	N	0.968419	-0.254283	0.127195
N38	N	1.301752	0.079050	0.460528
N39	N	1.635085	0.412383	0.793862
C40	C	0.428794	-0.000063	0.188498
C41	C	0.762128	0.333271	0.521831
C42	C	1.095461	0.666604	0.855164
C43	C	0.515515	-0.000057	0.190023
C44	C	0.848848	0.333277	0.523356
C45	C	1.182182	0.666610	0.856689
C46	C	0.535387	-0.000042	0.038533
C47	C	0.868721	0.333291	0.371867
C48	C	1.202054	0.666625	0.705200
C49	C	0.448669	-0.000041	0.037009
C50	C	0.782002	0.333293	0.370342
C51	C	1.115335	0.666626	0.703675
C52	C	0.395374	-0.000056	0.111994
C53	C	0.728707	0.333277	0.445327
C54	C	1.062041	0.666610	0.778660
C55	C	0.568813	-0.000052	0.115043
C56	C	0.902146	0.333282	0.448377
C57	C	1.235480	0.666615	0.781710
C58	C	0.662840	-0.000045	0.116696
C59	C	0.996173	0.333288	0.450030
C60	C	1.329506	0.666622	0.783363
C61	C	0.301342	-0.000061	0.110341
C62	C	0.634675	0.333272	0.443674
C63	C	0.968008	0.666606	0.777007
C64	C	1.007524	-0.526719	0.088074
C65	C	1.340857	-0.193385	0.421407
C66	C	1.674191	0.139948	0.754741
C67	C	0.956672	-0.473392	0.138954
C68	C	1.290005	-0.140059	0.472287
C69	C	1.623339	0.193275	0.805621
C70	C	0.963210	-0.351469	0.132410
C71	C	1.296543	-0.018135	0.465743
C72	C	1.629876	0.315198	0.799076
C73	C	1.000987	-0.648653	0.094617
C74	C	1.334321	-0.315320	0.427951
C75	C	1.667654	0.018014	0.761284
C76	C	1.134099	-0.000065	0.107408
C77	C	1.467432	0.333268	0.440742
C78	C	1.800765	0.666601	0.774075
C79	C	1.226394	-0.000064	0.109023
C80	C	1.559727	0.333269	0.442357
C81	C	1.893061	0.666603	0.775690
C82	C	0.988203	-0.000056	-0.038487
C83	C	1.321536	0.333277	0.294846
C84	C	1.654869	0.666611	0.628180
C85	C	0.986587	-0.000049	-0.130783
C86	C	1.319920	0.333285	0.202551
C87	C	1.653254	0.666618	0.535884
N88	N	0.995774	0.254166	0.099836
N89	N	1.329108	0.587499	0.433169
N90	N	1.662441	0.920833	0.766502
C91	C	0.988094	0.097325	-0.348359
C92	C	1.321427	0.430659	-0.015025
C93	C	1.654760	0.763992	0.318308
C94	C	0.986567	0.097324	-0.435079
C95	C	1.319901	0.430658	-0.101745
C96	C	1.653234	0.763991	0.231588
C97	C	0.976091	-0.097441	-0.424598
C98	C	1.309424	0.235892	-0.091264
C99	C	1.642757	0.569226	0.242069
C100	C	0.977611	-0.097439	-0.337878
C101	C	1.310944	0.235894	-0.004545
C102	C	1.644278	0.569228	0.328788
C103	C	0.983617	-0.000053	-0.299762
C104	C	1.316950	0.333281	0.033571
C105	C	1.650283	0.666614	0.366905
C106	C	0.980570	-0.000056	-0.473201
C107	C	1.313904	0.333278	-0.139868
C108	C	1.647237	0.666611	0.193465
C109	C	0.978916	-0.000057	-0.567227
C110	C	1.312249	0.333276	-0.233894
C111	C	1.645582	0.666609	0.099440
C112	C	0.985270	-0.000050	-0.205730
C113	C	1.318603	0.333283	0.127603
C114	C	1.651937	0.666616	0.460937
C115	C	0.975984	-0.000059	0.265524
C116	C	1.309317	0.333274	0.598858
C117	C	1.642650	0.666608	0.932191
C118	C	0.977600	-0.000059	0.357820
C119	C	1.310933	0.333274	0.691153
C120	C	1.644267	0.666607	1.024486
H121	H	0.385404	-0.000075	0.249555
H122	H	0.718737	0.333258	0.582889
H123	H	1.052070	0.666592	0.916222
H124	H	0.992982	0.176624	-0.317327
H125	H	1.326315	0.509957	0.016007
H126	H	1.659648	0.843290	0.349340
C127	C	0.845522	-0.462408	0.250181
C128	C	1.178855	-0.129074	0.583515
C129	C	1.512189	0.204259	0.916848
C130	C	0.891275	-0.535363	0.204400
C131	C	1.224608	-0.202029	0.537733
C132	C	1.557942	0.131304	0.871067
H133	H	0.805150	-0.500671	0.290581
H134	H	1.138483	-0.167338	0.623914
H135	H	1.471816	0.165995	0.957248
H136	H	0.882459	-0.418541	0.277749
H137	H	1.215793	-0.085207	0.611082
H138	H	1.549126	0.248126	0.944416
H139	H	0.817916	-0.418546	0.213261
H140	H	1.151250	-0.085212	0.546594
H141	H	1.484583	0.248121	0.879928
H142	H	0.918886	-0.579220	0.241320
H143	H	1.252219	-0.245887	0.574653
H144	H	1.585552	0.087447	0.907987
H145	H	0.854332	-0.579248	0.176831
H146	H	1.187665	-0.245915	0.510165
H147	H	1.520999	0.087419	0.843498
H148	H	0.542721	-0.000061	0.252320
H149	H	0.876054	0.333272	0.585653
H150	H	1.209388	0.666606	0.918986
H151	H	0.973960	-0.176740	-0.298308
H152	H	1.307294	0.156593	0.035025
H153	H	1.640627	0.489926	0.368358
H154	H	0.578790	-0.000032	-0.022516
H155	H	0.912124	0.333302	0.310817
H156	H	1.245457	0.666635	0.644150
H157	H	0.421459	-0.000032	-0.025294
H158	H	0.754792	0.333302	0.308040
H159	H	1.088125	0.666635	0.641373
C160	C	1.066853	-0.354212	0.028777
C161	C	1.400186	-0.020878	0.362111
C162	C	1.733520	0.312455	0.695444
C163	C	1.072945	-0.464747	0.022662
C164	C	1.406278	-0.131413	0.355996
C165	C	1.739612	0.201920	0.689329
H166	H	1.107252	-0.315946	-0.011595
H167	H	1.440585	0.017387	0.321738
H168	H	1.773918	0.350721	0.655072
H169	H	1.012347	-0.335846	0.018769
H170	H	1.345680	-0.002513	0.352103
H171	H	1.679014	0.330821	0.685436
H172	H	1.076844	-0.335878	0.083303
H173	H	1.410177	-0.002545	0.416637
H174	H	1.743511	0.330788	0.749970
H175	H	1.062948	-0.483082	-0.031862
H176	H	1.396281	-0.149748	0.301471
H177	H	1.729615	0.183585	0.634804
H178	H	1.127464	-0.483120	0.032664
H179	H	1.460798	-0.149786	0.365997
H180	H	1.794131	0.183547	0.699331
H181	H	0.990211	0.176619	-0.474643
H182	H	1.323544	0.509953	-0.141309
H183	H	1.656878	0.843286	0.192024
C184	C	0.969125	-0.183925	-0.552881
C185	C	1.302458	0.149408	-0.219548
C186	C	1.635792	0.482742	0.113785
C187	C	0.969506	-0.204484	-0.466501
C188	C	1.302839	0.128849	-0.133168
C189	C	1.636172	0.462182	0.200166
H190	H	0.965068	-0.250012	-0.578748
H191	H	1.298402	0.083321	-0.245415
H192	H	1.631735	0.416655	0.087918
H193	H	0.922574	-0.143927	-0.562891
H194	H	1.255907	0.189406	-0.229558
H195	H	1.589240	0.522739	0.103776
H196	H	1.019484	-0.143906	-0.575588
H197	H	1.352817	0.189427	-0.242255
H198	H	1.686151	0.522761	0.091079
H199	H	0.919144	-0.244497	-0.443793
H200	H	1.252477	0.088837	-0.110460
H201	H	1.585810	0.422170	0.222874
H202	H	1.016061	-0.244499	-0.456485
H203	H	1.349394	0.088834	-0.123152
H204	H	1.682728	0.422168	0.210182
