data_functionalizedCrystal
_audit_creation_method	'MofGen! by Chris Wilmer'
_symmetry_space_group_name_H-M	'P1'
_symmetry_Int_Tables_number	1
_symmetry_cell_setting	triclinic
loop_
_symmetry_equiv_pos_as_xyz
  x,y,z
_cell_length_a	19.121102
_cell_length_b	18.050589
_cell_length_c	18.050583
_cell_angle_alpha	90.031910
_cell_angle_beta	87.544925
_cell_angle_gamma	92.417299
loop_
_atom_site_label
_atom_site_type_symbol
_atom_site_fract_x
_atom_site_fract_y
_atom_site_fract_z
Zn1	Zn	1.073680	0.344109	-0.468311
Zn2	Zn	1.407014	0.677442	-0.134977
Zn3	Zn	1.740347	1.010776	0.198356
Zn4	Zn	1.073594	0.468318	-0.344126
Zn5	Zn	1.406927	0.801651	-0.010793
Zn6	Zn	1.740260	1.134985	0.322541
Zn7	Zn	0.956237	0.338845	-0.338843
Zn8	Zn	1.289571	0.672178	-0.005510
Zn9	Zn	1.622904	1.005512	0.327824
Zn10	Zn	0.956191	0.462954	-0.462985
Zn11	Zn	1.289524	0.796288	-0.129652
Zn12	Zn	1.622857	1.129621	0.203682
O13	O	1.014926	0.403557	-0.403566
O14	O	1.348259	0.736890	-0.070233
O15	O	1.681592	1.070223	0.263101
O16	O	1.171953	0.365034	-0.456277
O17	O	1.505286	0.698367	-0.122944
O18	O	1.838619	1.031700	0.210390
O19	O	1.058009	0.451185	-0.239500
O20	O	1.391343	0.784518	0.093833
O21	O	1.724676	1.117852	0.427167
O22	O	0.971872	0.235621	-0.356035
O23	O	1.305206	0.568955	-0.022702
O24	O	1.638539	0.902288	0.310632
O25	O	1.171889	0.456289	-0.365039
O26	O	1.505222	0.789623	-0.031706
O27	O	1.838556	1.122956	0.301628
O28	O	1.058157	0.239489	-0.451154
O29	O	1.391491	0.572822	-0.117821
O30	O	1.724824	0.906155	0.215512
O31	O	0.971788	0.356062	-0.235619
O32	O	1.305122	0.689395	0.097715
O33	O	1.638455	1.022728	0.431048
O34	O	0.857947	0.350860	-0.350871
O35	O	1.191281	0.684194	-0.017538
O36	O	1.524614	1.017527	0.315796
O37	O	0.971792	0.447147	-0.567617
O38	O	1.305126	0.780481	-0.234283
O39	O	1.638459	1.113814	0.099050
O40	O	0.857913	0.442043	-0.442077
O41	O	1.191246	0.775376	-0.108744
O42	O	1.524580	1.108710	0.224589
O43	O	1.058112	0.359832	-0.571529
O44	O	1.391445	0.693166	-0.238196
O45	O	1.724778	1.026499	0.095137
O46	O	1.057964	0.571529	-0.359875
O47	O	1.391297	0.904862	-0.026542
O48	O	1.724631	1.238195	0.306792
O49	O	0.971708	0.567588	-0.447200
O50	O	1.305042	0.900921	-0.113867
O51	O	1.638375	1.234255	0.219467
C52	C	0.832446	0.395299	-0.395324
C53	C	1.165779	0.728632	-0.061990
C54	C	1.499113	1.061966	0.271343
C55	C	0.754381	0.391784	-0.391815
C56	C	1.087714	0.725118	-0.058482
C57	C	1.421047	1.058451	0.274852
C58	C	1.014841	0.596505	-0.403550
C59	C	1.348174	0.929838	-0.070217
C60	C	1.681507	1.263172	0.263117
C61	C	1.014869	0.679052	-0.403571
C62	C	1.348202	1.012385	-0.070237
C63	C	1.681535	1.345719	0.263096
C64	C	1.014957	0.403479	-0.597273
C65	C	1.348290	0.736812	-0.263940
C66	C	1.681623	1.070145	0.069393
C67	C	1.014970	0.403446	-0.679820
C68	C	1.348303	0.736779	-0.346486
C69	C	1.681636	1.070112	-0.013153
C70	C	0.717706	0.437679	-0.437578
C71	C	1.051039	0.771012	-0.104245
C72	C	1.384372	1.104345	0.229088
C73	C	0.644355	0.434366	-0.434285
C74	C	0.977688	0.767700	-0.100952
C75	C	1.311022	1.101033	0.232382
C76	C	0.607680	0.385163	-0.385224
C77	C	0.941014	0.718496	-0.051891
C78	C	1.274347	1.051830	0.281442
C79	C	0.644360	0.339264	-0.339459
C80	C	0.977694	0.672597	-0.006126
C81	C	1.311027	1.005930	0.327207
C82	C	0.717710	0.342573	-0.342757
C83	C	1.051043	0.675906	-0.009423
C84	C	1.384377	1.009239	0.323910
C85	C	0.386212	0.372790	-0.372900
C86	C	0.719546	0.706123	-0.039567
C87	C	1.052879	1.039456	0.293767
C88	C	0.312858	0.369486	-0.369604
C89	C	0.646191	0.702819	-0.036271
C90	C	0.979524	1.036152	0.297062
C91	C	0.312857	0.464588	-0.464432
C92	C	0.646191	0.797921	-0.131098
C93	C	0.979524	1.131254	0.202235
C94	C	0.386208	0.467895	-0.467722
C95	C	0.719542	0.801229	-0.134388
C96	C	1.052875	1.134562	0.198945
C97	C	0.422882	0.421993	-0.421959
C98	C	0.756215	0.755327	-0.088626
C99	C	1.089549	1.088660	0.244707
C100	C	0.532704	0.381778	-0.381855
C101	C	0.866037	0.715111	-0.048522
C102	C	1.199371	1.048444	0.284811
C103	C	0.497857	0.425375	-0.425332
C104	C	0.831190	0.758709	-0.091999
C105	C	1.164524	1.092042	0.241334
C106	C	1.198117	0.411847	-0.411841
C107	C	1.531451	0.745180	-0.078508
C108	C	1.864784	1.078514	0.254825
C109	C	1.276183	0.415380	-0.415368
C110	C	1.609516	0.748713	-0.082034
C111	C	1.942850	1.082047	0.251299
C112	C	1.015030	0.209856	-0.403599
C113	C	1.348363	0.543189	-0.070266
C114	C	1.681696	0.876522	0.263067
C115	C	1.015074	0.127312	-0.403614
C116	C	1.348408	0.460645	-0.070280
C117	C	1.681741	0.793979	0.263053
C118	C	0.968009	0.876389	-0.451043
C119	C	1.301342	1.209722	-0.117710
C120	C	1.634676	1.543055	0.215624
C121	C	0.950892	0.925066	-0.382504
C122	C	1.284226	1.258399	-0.049171
C123	C	1.617559	1.591732	0.284162
C124	C	1.014938	0.830185	-0.403584
C125	C	1.348271	1.163519	-0.070250
C126	C	1.681604	1.496852	0.263083
C127	C	1.032089	0.928592	-0.472131
C128	C	1.365422	1.261925	-0.138798
C129	C	1.698756	1.595258	0.194535
C130	C	1.015003	0.976173	-0.403602
C131	C	1.348336	1.309507	-0.070269
C132	C	1.681670	1.642840	0.263065
C133	C	0.997787	0.877774	-0.335008
C134	C	1.331121	1.211107	-0.001674
C135	C	1.664454	1.544440	0.331659
C136	C	1.079014	0.881297	-0.424682
C137	C	1.412347	1.214630	-0.091348
C138	C	1.745680	1.547963	0.241985
C139	C	1.061921	0.929953	-0.356098
C140	C	1.395255	1.263286	-0.022764
C141	C	1.728588	1.596619	0.310569
C142	C	1.014898	0.746085	-0.403574
C143	C	1.348232	1.079419	-0.070241
C144	C	1.681565	1.412752	0.263093
C145	C	1.015043	1.060272	-0.403604
C146	C	1.348376	1.393605	-0.070271
C147	C	1.681709	1.726938	0.263063
C148	C	1.061957	0.355942	-0.881400
C149	C	1.395291	0.689275	-0.548067
C150	C	1.728624	1.022609	-0.214734
C151	C	0.997900	0.334872	-0.927908
C152	C	1.331233	0.668205	-0.594574
C153	C	1.664567	1.001539	-0.261241
C154	C	1.014998	0.403434	-0.830951
C155	C	1.348331	0.736767	-0.497618
C156	C	1.681665	1.070101	-0.164285
C157	C	1.079081	0.424458	-0.931527
C158	C	1.412414	0.757792	-0.598194
C159	C	1.745748	1.091125	-0.264860
C160	C	1.015031	0.403422	-0.976938
C161	C	1.348364	0.736755	-0.643605
C162	C	1.681697	1.070088	-0.310271
C163	C	0.950907	0.382328	-0.876370
C164	C	1.284240	0.715661	-0.543037
C165	C	1.617573	1.048994	-0.209703
C166	C	1.032131	0.471947	-0.879987
C167	C	1.365464	0.805281	-0.546654
C168	C	1.698798	1.138614	-0.213320
C169	C	0.968030	0.450901	-0.926470
C170	C	1.301363	0.784234	-0.593137
C171	C	1.634696	1.117568	-0.259803
C172	C	1.014980	0.403439	-0.746852
C173	C	1.348313	0.736773	-0.413519
C174	C	1.681647	1.070106	-0.080186
C175	C	1.015042	0.403416	-1.061035
C176	C	1.348375	0.736750	-0.727702
C177	C	1.681708	1.070083	-0.394368
C178	C	1.014935	0.403582	-0.210614
C179	C	1.348268	0.736916	0.122719
C180	C	1.681602	1.070249	0.456052
C181	C	1.015058	0.403413	-0.128075
C182	C	1.348391	0.736746	0.205259
C183	C	1.681725	1.070079	0.538592
H184	H	0.614497	0.471739	-0.471550
H185	H	0.947831	0.805072	-0.138217
H186	H	1.281164	1.138406	0.195117
H187	H	0.983419	0.276926	-0.948982
H188	H	1.316752	0.610260	-0.615649
H189	H	1.650085	0.943593	-0.282315
H190	H	0.928286	0.491057	-0.946190
H191	H	1.261619	0.824390	-0.612857
H192	H	1.594953	1.157723	-0.279524
H193	H	0.502836	0.341718	-0.341909
H194	H	0.836169	0.675051	-0.008575
H195	H	1.169502	1.008384	0.324758
N196	N	1.114523	0.960846	-0.302884
N197	N	1.447856	1.294180	0.030449
N198	N	1.781190	1.627513	0.363783
H199	H	1.151038	0.993252	-0.330846
H200	H	1.484372	1.326585	0.002487
H201	H	1.817705	1.659918	0.335820
H202	H	1.137938	0.918654	-0.278513
H203	H	1.471272	1.251988	0.054820
H204	H	1.804605	1.585321	0.388154
N205	N	0.915366	0.845307	-0.504116
N206	N	1.248699	1.178640	-0.170783
N207	N	1.582033	1.511973	0.162550
H208	H	0.940218	0.815580	-0.543853
H209	H	1.273552	1.148913	-0.210519
H210	H	1.606885	1.482247	0.122814
H211	H	0.891200	0.887381	-0.527805
H212	H	1.224534	1.220714	-0.194472
H213	H	1.557867	1.554047	0.138862
H214	H	0.416064	0.507964	-0.507670
H215	H	0.749397	0.841297	-0.174337
H216	H	1.082730	1.174630	0.158996
H217	H	1.046570	0.950888	-0.530094
H218	H	1.379903	1.284221	-0.196761
H219	H	1.713236	1.617555	0.136572
N220	N	1.114476	0.302713	-0.855077
N221	N	1.447809	0.636046	-0.521744
N222	N	1.781143	0.969380	-0.188410
H223	H	1.162752	0.318069	-0.875988
H224	H	1.496086	0.651402	-0.542655
H225	H	1.829419	0.984736	-0.209321
H226	H	1.101392	0.250981	-0.872487
H227	H	1.434726	0.584314	-0.539153
H228	H	1.768059	0.917648	-0.205820
N229	N	0.273302	0.316436	-0.316663
N230	N	0.606635	0.649769	0.016670
N231	N	0.939968	0.983102	0.350004
H232	H	0.221270	0.321319	-0.321508
H233	H	0.554604	0.654652	0.011825
H234	H	0.887937	0.987986	0.345159
H235	H	0.286115	0.328536	-0.264190
H236	H	0.619448	0.661870	0.069144
H237	H	0.952782	0.995203	0.402477
H238	H	1.046631	0.529878	-0.858899
H239	H	1.379965	0.863211	-0.525566
H240	H	1.713298	1.196545	-0.192232
H241	H	1.133261	0.442244	-0.955662
H242	H	1.466595	0.775577	-0.622329
H243	H	1.799928	1.108910	-0.288996
H244	H	0.896711	0.364473	-0.852327
H245	H	1.230044	0.697807	-0.518994
H246	H	1.563377	1.031140	-0.185661
H247	H	0.282990	0.501957	-0.501690
H248	H	0.616323	0.835291	-0.168357
H249	H	0.949656	1.168624	0.164977
N250	N	0.757259	0.490753	-0.490489
N251	N	1.090593	0.824087	-0.157156
N252	N	1.423926	1.157420	0.176178
H253	H	0.722893	0.519323	-0.518980
H254	H	1.056226	0.852657	-0.185647
H255	H	1.389560	1.185990	0.147686
H256	H	0.787718	0.461938	-0.526278
H257	H	1.121052	0.795272	-0.192945
H258	H	1.454385	1.128605	0.140388
N259	N	1.150735	0.855681	-0.448334
N260	N	1.484068	1.189015	-0.115001
N261	N	1.817402	1.522348	0.218333
H262	H	1.163625	0.874151	-0.500142
H263	H	1.496958	1.207485	-0.166808
H264	H	1.830292	1.540818	0.166525
H265	H	1.150236	0.799714	-0.447631
H266	H	1.483569	1.133048	-0.114298
H267	H	1.816902	1.466381	0.219035
H268	H	0.416063	0.335419	-0.335631
H269	H	0.749397	0.668752	-0.002298
H270	H	1.082730	1.002085	0.331035
N271	N	0.537411	0.478449	-0.478240
N272	N	0.870744	0.811782	-0.144906
N273	N	1.204078	1.145115	0.188427
H274	H	0.503050	0.507026	-0.506731
H275	H	0.836384	0.840360	-0.173398
H276	H	1.169717	1.173693	0.159935
H277	H	0.567870	0.449634	-0.514029
H278	H	0.901203	0.782967	-0.180696
H279	H	1.234536	1.116301	0.152637
N280	N	0.604808	0.286207	-0.286529
N281	N	0.938142	0.619540	0.046804
N282	N	1.271475	0.952874	0.380138
H283	H	0.552776	0.291081	-0.291375
H284	H	0.886110	0.624415	0.041958
H285	H	1.219443	0.957748	0.375291
H286	H	0.617617	0.298301	-0.234053
H287	H	0.950951	0.631634	0.099281
H288	H	1.284284	0.964968	0.432614
N289	N	0.757270	0.293068	-0.293403
N290	N	1.090604	0.626401	0.039930
N291	N	1.423937	0.959734	0.373263
H292	H	0.722908	0.261395	-0.261823
H293	H	1.056242	0.594728	0.071510
H294	H	1.389575	0.928062	0.404844
H295	H	0.787682	0.324626	-0.260350
H296	H	1.121015	0.657959	0.072984
H297	H	1.454349	0.991292	0.406317
H298	H	0.983244	0.855564	-0.277026
H299	H	1.316577	1.188897	0.056307
H300	H	1.649911	1.522231	0.389640
N301	N	0.879154	0.950652	-0.358860
N302	N	1.212487	1.283985	-0.025527
N303	N	1.545821	1.617318	0.307807
H304	H	0.843711	0.931113	-0.394731
H305	H	1.177045	1.264446	-0.061398
H306	H	1.510378	1.597779	0.271935
H307	H	0.879885	1.006630	-0.358563
H308	H	1.213218	1.339963	-0.025230
H309	H	1.546552	1.673296	0.308104
