data_functionalizedCrystal
_audit_creation_method	'MofGen! by Chris Wilmer'
_symmetry_space_group_name_H-M	'P1'
_symmetry_Int_Tables_number	1
_symmetry_cell_setting	triclinic
loop_
_symmetry_equiv_pos_as_xyz
  x,y,z
_cell_length_a	10.723024
_cell_length_b	10.723023
_cell_length_c	9.798715
_cell_angle_alpha	89.996770
_cell_angle_beta	90.001075
_cell_angle_gamma	95.532291
loop_
_atom_site_label
_atom_site_type_symbol
_atom_site_fract_x
_atom_site_fract_y
_atom_site_fract_z
O1	O	-0.175020	1.657188	-0.113470
O2	O	-0.191774	1.294035	-0.113475
O3	O	-0.001821	1.483988	-0.113471
O4	O	-0.364973	1.467235	-0.113475
O5	O	-0.001820	1.483974	0.113511
O6	O	-0.191774	1.294021	0.113507
O7	O	-0.175019	1.657174	0.113512
Zn8	Zn	-0.183396	1.475595	0.149548
Zn9	Zn	-0.183397	1.475614	-0.149511
O10	O	-0.364973	1.467221	0.113507
C11	C	-0.190555	1.247529	0.000015
C12	C	-0.186908	1.108974	0.000013
C13	C	-0.185281	1.047195	0.117595
C14	C	-0.181511	0.903992	0.117596
C15	C	-0.411473	1.468447	0.000016
C16	C	-0.550027	1.472095	0.000014
C17	C	-0.625010	1.365807	0.000012
C18	C	-0.768213	1.369575	0.000010
C19	C	0.044679	1.482762	0.000018
C20	C	0.183233	1.479114	0.000011
C21	C	-0.176239	1.703680	0.000019
C22	C	-0.179886	1.842235	0.000012
N23	N	-0.183395	1.475591	0.353647
N24	N	-0.183388	1.475627	-0.353611
C25	C	-0.103288	1.555347	0.421426
C26	C	-0.103283	1.555367	0.578589
H27	H	-0.180120	0.850862	0.218262
H28	H	-0.752341	1.570110	0.000019
H29	H	-0.251971	1.407319	0.411970
H30	H	-0.251980	1.407346	0.588111
H31	H	-0.181292	0.895355	-0.100660
H32	H	-0.583188	1.272021	0.000003
C33	C	-0.187173	1.118951	0.253592
H34	H	-0.189468	1.205785	0.235751
H35	H	-0.113971	1.106565	0.304468
H36	H	-0.259269	1.088778	0.304454
C37	C	-0.606506	1.598799	0.000014
H38	H	-0.540892	1.664995	0.000007
H39	H	-0.656730	1.604787	0.079165
H40	H	-0.656722	1.604794	-0.079153
C41	C	-0.185026	1.037223	-0.135988
H42	H	-0.186529	1.094554	-0.209758
H43	H	-0.256333	0.977539	-0.141056
H44	H	-0.111035	0.995328	-0.141063
C45	C	-0.010627	1.647611	0.657320
H46	H	-0.022772	1.635517	0.752622
H47	H	-0.024677	1.731089	0.633953
H48	H	0.072744	1.633118	0.633973
H49	H	-0.832646	1.278584	0.000017
C50	C	-0.010637	1.647572	0.342649
H51	H	-0.022799	1.635465	0.247352
H52	H	0.072732	1.633100	0.366004
H53	H	-0.024701	1.731060	0.365978
