data_functionalizedCrystal
_audit_creation_method	'MofGen! by Chris Wilmer'
_symmetry_space_group_name_H-M	'P1'
_symmetry_Int_Tables_number	1
_symmetry_cell_setting	triclinic
loop_
_symmetry_equiv_pos_as_xyz
  x,y,z
_cell_length_a	12.827893
_cell_length_b	16.625546
_cell_length_c	12.827885
_cell_angle_alpha	89.964876
_cell_angle_beta	89.980728
_cell_angle_gamma	90.022439
loop_
_atom_site_label
_atom_site_type_symbol
_atom_site_fract_x
_atom_site_fract_y
_atom_site_fract_z
Zn1	Zn	1.597618	-0.320963	-0.590810
Zn2	Zn	1.930952	0.012370	-0.257477
Zn3	Zn	2.264285	0.345703	0.075857
Zn4	Zn	1.597491	-0.455817	-0.416054
Zn5	Zn	1.930824	-0.122484	-0.082721
Zn6	Zn	2.264157	0.210849	0.250613
Zn7	Zn	1.422860	-0.321002	-0.416084
Zn8	Zn	1.756193	0.012331	-0.082750
Zn9	Zn	2.089526	0.345664	0.250583
Zn10	Zn	1.422823	-0.455757	-0.590754
Zn11	Zn	1.756157	-0.122424	-0.257421
Zn12	Zn	2.089490	0.210909	0.075913
O13	O	1.510198	-0.388385	-0.503425
O14	O	1.843531	-0.055052	-0.170092
O15	O	2.176865	0.278282	0.163241
O16	O	1.743837	-0.338861	-0.567639
O17	O	2.077171	-0.005527	-0.234306
O18	O	2.410504	0.327806	0.099027
O19	O	1.574287	-0.437976	-0.269822
O20	O	1.907621	-0.104642	0.063512
O21	O	2.240954	0.228691	0.396845
O22	O	1.446110	-0.208165	-0.439297
O23	O	1.779444	0.125168	-0.105964
O24	O	2.112777	0.458502	0.227369
O25	O	1.743744	-0.437937	-0.439247
O26	O	2.077077	-0.104604	-0.105913
O27	O	2.410410	0.228729	0.227420
O28	O	1.574505	-0.208136	-0.567668
O29	O	1.907838	0.125197	-0.234335
O30	O	2.241171	0.458531	0.098999
O31	O	1.445987	-0.338928	-0.269843
O32	O	1.779320	-0.005594	0.063490
O33	O	2.112653	0.327739	0.396823
O34	O	1.276619	-0.338869	-0.439243
O35	O	1.609952	-0.005536	-0.105910
O36	O	1.943285	0.327797	0.227424
O37	O	1.446048	-0.437835	-0.736997
O38	O	1.779382	-0.104502	-0.403664
O39	O	2.112715	0.228831	-0.070331
O40	O	1.276592	-0.437873	-0.567572
O41	O	1.609925	-0.104540	-0.234239
O42	O	1.943259	0.228793	0.099094
O43	O	1.574469	-0.338802	-0.737039
O44	O	1.907803	-0.005469	-0.403705
O45	O	2.241136	0.327864	-0.070372
O46	O	1.574252	-0.568642	-0.439192
O47	O	1.907586	-0.235309	-0.105859
O48	O	2.240919	0.098025	0.227474
O49	O	1.445925	-0.568598	-0.567544
O50	O	1.779258	-0.235265	-0.234210
O51	O	2.112591	0.098069	0.099123
C52	C	1.238688	-0.388370	-0.503405
C53	C	1.572021	-0.055036	-0.170072
C54	C	1.905355	0.278297	0.163261
C55	C	1.122535	-0.388382	-0.503422
C56	C	1.455868	-0.055049	-0.170088
C57	C	1.789202	0.278284	0.163245
C58	C	1.510099	-0.597876	-0.503382
C59	C	1.843432	-0.264543	-0.170048
C60	C	2.176766	0.068791	0.163285
C61	C	1.510152	-0.687497	-0.503398
C62	C	1.843486	-0.354164	-0.170064
C63	C	2.176819	-0.020830	0.163269
C64	C	1.070765	-0.437449	-0.566825
C65	C	1.404098	-0.104116	-0.233492
C66	C	1.737431	0.229217	0.099841
C67	C	0.950714	-0.437464	-0.566844
C68	C	1.284048	-0.104130	-0.233510
C69	C	1.617381	0.229203	0.099823
C70	C	1.510335	-1.015673	-0.503507
C71	C	1.843668	-0.682339	-0.170173
C72	C	2.177001	-0.349006	0.163160
C73	C	1.510281	-0.924364	-0.503479
C74	C	1.843614	-0.591031	-0.170146
C75	C	2.176947	-0.257698	0.163187
C76	C	1.510243	-0.851588	-0.503452
C77	C	1.843576	-0.518254	-0.170118
C78	C	2.176909	-0.184921	0.163215
C79	C	1.510190	-0.760274	-0.503425
C80	C	1.843524	-0.426940	-0.170092
C81	C	2.176857	-0.093607	0.163241
C82	C	1.782768	-0.388401	-0.503446
C83	C	2.116101	-0.055068	-0.170113
C84	C	2.449435	0.278265	0.163221
C85	C	1.898921	-0.388408	-0.503455
C86	C	2.232255	-0.055075	-0.170121
C87	C	2.565588	0.278258	0.163212
C88	C	1.510269	-0.388308	-0.775996
C89	C	1.843602	-0.054974	-0.442662
C90	C	2.176936	0.278359	-0.109329
C91	C	1.510299	-0.388275	-0.892149
C92	C	1.843633	-0.054941	-0.558816
C93	C	2.176966	0.278392	-0.225482
C94	C	1.510326	-0.178076	-0.503492
C95	C	1.843659	0.155257	-0.170159
C96	C	2.176992	0.488590	0.163175
C97	C	1.510380	-0.088455	-0.503521
C98	C	1.843713	0.244878	-0.170187
C99	C	2.177047	0.578212	0.163146
C100	C	1.573853	-0.339261	-0.943954
C101	C	1.907186	-0.005927	-0.610621
C102	C	2.240520	0.327406	-0.277287
C103	C	1.573886	-0.339225	-1.064004
C104	C	1.907219	-0.005892	-0.730671
C105	C	2.240553	0.327441	-0.397338
C106	C	1.510187	-0.388404	-0.231915
C107	C	1.843521	-0.055071	0.101418
C108	C	2.176854	0.278263	0.434751
C109	C	1.510359	-0.388210	-0.115763
C110	C	1.843693	-0.054877	0.217571
C111	C	2.177026	0.278457	0.550904
H112	H	1.115319	-0.479444	-0.621098
H113	H	1.448652	-0.146110	-0.287764
H114	H	1.781986	0.187223	0.045569
N115	N	1.645970	-0.283642	-1.123005
N116	N	1.979304	0.049692	-0.789672
N117	N	2.312637	0.383025	-0.456339
H118	H	1.635778	-0.291496	-1.200401
H119	H	1.969111	0.041837	-0.867068
H120	H	2.302444	0.375170	-0.533735
H121	H	1.629753	-0.226047	-1.104000
H122	H	1.963086	0.107286	-0.770666
H123	H	2.296419	0.440620	-0.437333
H124	H	0.906193	-0.479474	-0.621123
H125	H	1.239526	-0.146140	-0.287789
H126	H	1.572860	0.187193	0.045544
H127	H	0.943436	-0.346401	-0.449166
H128	H	1.276769	-0.013068	-0.115833
H129	H	1.610102	0.320266	0.217501
N130	N	1.063531	-0.332755	-0.431524
N131	N	1.396864	0.000579	-0.098191
N132	N	1.730198	0.333912	0.235143
H133	H	1.018272	-0.295464	-0.474120
H134	H	1.351605	0.037869	-0.140787
H135	H	1.684939	0.371203	0.192547
H136	H	1.018276	-0.365581	-0.383087
H137	H	1.351609	-0.032247	-0.049754
H138	H	1.684943	0.301086	0.283580
N139	N	1.645923	-0.283725	-0.884990
N140	N	1.979256	0.049609	-0.551657
N141	N	2.312589	0.382942	-0.218323
H142	H	1.635696	-0.291632	-0.807588
H143	H	1.969029	0.041702	-0.474254
H144	H	2.302363	0.375035	-0.140921
H145	H	1.720561	-0.296284	-0.904030
H146	H	2.053894	0.037050	-0.570696
H147	H	2.387227	0.370383	-0.237363
N148	N	1.438273	-0.443804	-1.056780
N149	N	1.771606	-0.110470	-0.723447
N150	N	2.104939	0.222863	-0.390113
H151	H	1.480742	-0.481157	-1.011485
H152	H	1.814075	-0.147823	-0.678152
H153	H	2.147408	0.185510	-0.344818
H154	H	1.389904	-0.410960	-1.011562
H155	H	1.723238	-0.077626	-0.678229
H156	H	2.056571	0.255707	-0.344896
N157	N	1.438259	-0.443824	-0.951127
N158	N	1.771592	-0.110490	-0.617794
N159	N	2.104926	0.222843	-0.284461
H160	H	1.454429	-0.501455	-0.932176
H161	H	1.787762	-0.168122	-0.598843
H162	H	2.121096	0.165211	-0.265510
H163	H	1.363606	-0.431247	-0.932166
H164	H	1.696939	-0.097914	-0.598833
H165	H	2.030273	0.235420	-0.265500
