data_functionalizedCrystal
_audit_creation_method	'MofGen! by Chris Wilmer'
_symmetry_space_group_name_H-M	'P1'
_symmetry_Int_Tables_number	1
_symmetry_cell_setting	triclinic
loop_
_symmetry_equiv_pos_as_xyz
  x,y,z
_cell_length_a	6.817900
_cell_length_b	11.102289
_cell_length_c	16.015572
_cell_angle_alpha	76.744036
_cell_angle_beta	104.485554
_cell_angle_gamma	108.605707
loop_
_atom_site_label
_atom_site_type_symbol
_atom_site_fract_x
_atom_site_fract_y
_atom_site_fract_z
V1	V	-3.999220	-0.051261	-0.269393
O2	O	-3.960391	0.130656	-0.264265
O3	O	-3.976766	-0.224933	-0.267550
O4	O	-3.927019	0.005776	-0.386885
O5	O	-4.010482	-0.101651	-0.144105
V6	V	-4.482571	-0.036148	-0.254407
O7	O	-4.260858	-0.084413	-0.302265
O8	O	-4.671130	-0.002996	-0.221536
O9	O	-4.281819	0.137524	-0.256250
O10	O	-4.638797	-0.218065	-0.259535
O11	O	-4.588706	0.014242	-0.379696
O12	O	-4.331565	-0.093185	-0.136916
C13	C	-3.828848	-0.269029	-0.263300
C14	C	-3.891617	-0.410646	-0.262577
C15	C	-4.103316	-0.481658	-0.266547
C16	C	-4.162285	-0.614720	-0.265875
C17	C	-3.797832	-0.605747	-0.257259
C18	C	-3.738869	-0.472686	-0.257937
C19	C	-4.313730	-0.486841	-0.271518
C20	C	-4.372698	-0.619903	-0.270846
C21	C	-3.765391	0.025266	-0.415522
C22	C	-3.787814	0.070751	-0.511572
C23	C	-4.136761	-0.332975	-0.889205
C24	C	-4.157829	-0.290194	-0.979454
C25	C	-4.047775	-0.068856	-0.954747
C26	C	-4.026687	-0.111619	-0.864494
C27	C	-4.071187	-0.243680	-0.831730
C28	C	-3.961113	-0.022324	-0.807019
C29	C	-3.940038	-0.065084	-0.716774
C30	C	-3.984537	-0.197140	-0.684003
C31	C	-4.050112	-0.286440	-0.741485
C32	C	-3.916629	0.109736	-0.839785
C33	C	-3.851054	0.199031	-0.782310
C34	C	-3.829964	0.156272	-0.692063
C35	C	-3.874463	0.024216	-0.659292
C36	C	-3.764390	0.245572	-0.634581
C37	C	-3.743314	0.202812	-0.544336
C38	C	-3.853388	-0.018544	-0.569047
C39	C	-4.093080	0.181612	-0.260497
C40	C	-4.009548	0.323230	-0.261226
C41	C	-4.156537	-0.112681	-0.108274
C42	C	-4.113352	-0.158160	-0.012223
H43	H	-3.889597	-0.126081	-0.542368
H44	H	-3.566491	-0.414870	-0.254714
O45	O	-3.961787	-0.243273	-0.586667
H46	H	-4.068671	-0.209993	-0.560811
O47	O	-4.098097	-0.428879	-0.706134
H48	H	-4.147244	-0.483795	-0.761259
O49	O	-4.473214	-0.689139	-0.192659
H50	H	-4.519922	-0.794618	-0.192179
O51	O	-4.184747	-0.475414	-0.853853
H52	H	-4.233893	-0.530330	-0.908979
O53	O	-4.228542	-0.386509	-1.041449
H54	H	-4.255924	-0.485519	-1.003501
O55	O	-4.511933	-0.657383	-0.355627
H56	H	-4.434118	-0.706242	-0.385404
H57	H	-4.339195	-0.461785	-0.210598
H58	H	-4.011557	0.038668	-0.981437
O59	O	-3.939365	0.155891	-0.937119
H60	H	-3.832445	0.122645	-0.962977
H61	H	-3.814836	0.306556	-0.809000
H62	H	-3.728184	0.353096	-0.661272
O63	O	-3.672532	0.299115	-0.482333
H64	H	-3.796501	0.281721	-0.443907
O65	O	-3.633085	-0.672659	-0.252254
H66	H	-3.709647	-0.777117	-0.252448
H67	H	-4.399399	-0.438562	-0.334356
