data_functionalizedCrystal
_audit_creation_method	'MofGen! by Chris Wilmer'
_symmetry_space_group_name_H-M	'P1'
_symmetry_Int_Tables_number	1
_symmetry_cell_setting	triclinic
loop_
_symmetry_equiv_pos_as_xyz
  x,y,z
_cell_length_a	15.072220
_cell_length_b	14.853567
_cell_length_c	15.995292
_cell_angle_alpha	96.448227
_cell_angle_beta	90.002061
_cell_angle_gamma	90.009531
loop_
_atom_site_label
_atom_site_type_symbol
_atom_site_fract_x
_atom_site_fract_y
_atom_site_fract_z
O1	O	-0.073715	-1.196204	0.109315
O2	O	0.426285	-0.696204	0.609315
O3	O	-0.073729	-0.933724	0.122338
O4	O	0.426271	-0.433724	0.622338
O5	O	-0.073723	-1.072166	-0.006056
O6	O	0.426277	-0.572166	0.493944
O7	O	-0.073721	-1.057762	0.237709
O8	O	0.426279	-0.557762	0.737709
O9	O	0.073842	-1.072132	-0.006049
O10	O	0.573842	-0.572132	0.493951
O11	O	0.073836	-0.933690	0.122345
O12	O	0.573836	-0.433690	0.622345
O13	O	0.073850	-1.196170	0.109322
O14	O	0.573850	-0.696170	0.609322
Zn15	Zn	0.097272	-1.064924	0.115834
Zn16	Zn	0.597272	-0.564924	0.615834
Zn17	Zn	-0.097151	-1.064969	0.115825
Zn18	Zn	0.402849	-0.564969	0.615825
O19	O	0.073844	-1.057727	0.237716
O20	O	0.573844	-0.557727	0.737716
C21	C	0.000051	-0.900119	0.121751
C22	C	0.500051	-0.400119	0.621751
C23	C	0.000046	-0.800038	0.119983
C24	C	0.500046	-0.300038	0.619983
N25	N	0.229961	-1.064900	0.115840
N26	N	0.729961	-0.564900	0.615840
N27	N	-0.229840	-1.065001	0.115813
N28	N	0.270160	-0.565001	0.615813
C29	C	0.589163	-1.064968	0.115822
C30	C	1.089163	-0.564968	0.615822
C31	C	0.551552	-0.990641	0.184292
C32	C	1.051552	-0.490641	0.684292
C33	C	0.448726	-0.990811	0.184542
C34	C	0.948726	-0.490811	0.684542
C35	C	0.410958	-1.064933	0.115831
C36	C	0.910958	-0.564933	0.615831
C37	C	0.448255	-1.158996	0.135023
C38	C	0.948255	-0.658996	0.635023
C39	C	0.551113	-1.158580	0.135509
C40	C	1.051113	-0.658580	0.635509
C41	C	0.551261	-1.046070	0.027958
C42	C	1.051261	-0.546070	0.527958
C43	C	0.448397	-1.043911	0.028541
C44	C	0.948397	-0.543911	0.528541
C45	C	0.310245	-1.064920	0.115835
C46	C	0.810245	-0.564920	0.615835
C47	C	0.689876	-1.064987	0.115820
C48	C	1.189876	-0.564987	0.615820
C49	C	0.000057	-1.071563	-0.037249
C50	C	0.500057	-0.571563	0.462751
C51	C	0.000050	-1.069805	-0.130204
C52	C	0.500050	-0.569805	0.369796
C53	C	0.000068	-1.229775	0.109908
C54	C	0.500068	-0.729775	0.609908
C55	C	0.000068	-1.329856	0.111677
C56	C	0.500068	-0.829856	0.611677
C57	C	0.000065	-0.387636	0.036239
C58	C	0.500065	0.112364	0.536239
C59	C	0.000065	-0.366115	0.188774
C60	C	0.500065	0.133885	0.688774
C61	C	0.000062	-0.460146	0.190437
C62	C	0.500062	0.039854	0.690437
C63	C	0.000059	-0.517927	0.115000
C64	C	0.500059	-0.017927	0.615000
C65	C	0.000059	-0.481676	0.037900
C66	C	0.500059	0.018324	0.537900
C67	C	0.000053	-0.496404	0.267535
C68	C	0.500053	0.003596	0.767535
C69	C	0.000049	-0.590441	0.269201
C70	C	0.500049	-0.090441	0.769201
C71	C	0.000053	-0.648223	0.193763
C72	C	0.500053	-0.148223	0.693763
C73	C	0.000054	-0.611967	0.116660
C74	C	0.500054	-0.111967	0.616660
C75	C	0.000051	-0.669747	0.041223
C76	C	0.500051	-0.169747	0.541223
C77	C	0.000058	-0.633493	-0.035881
C78	C	0.500058	-0.133493	0.464119
C79	C	0.000063	-0.539459	-0.037539
C80	C	0.500063	-0.039459	0.462461
C81	C	0.000048	-0.742258	0.195420
C82	C	0.500048	-0.242258	0.695420
C83	C	0.000045	-0.763788	0.042883
C84	C	0.500045	-0.263788	0.542883
C85	C	0.000058	-1.063344	-0.467950
C86	C	0.500058	-0.563344	0.032050
C87	C	0.000393	-1.163268	-0.444522
C88	C	0.500393	-0.663268	0.055478
C89	C	0.000058	-1.165167	-0.347844
C90	C	0.500058	-0.665167	0.152156
C91	C	0.000055	-1.066550	-0.300390
C92	C	0.500055	-0.566550	0.199610
C93	C	-0.084212	-1.016612	-0.329554
C94	C	0.415788	-0.516612	0.170446
C95	C	-0.084279	-1.015409	-0.426345
C96	C	0.415721	-0.515409	0.073655
C97	C	0.083530	-1.013330	-0.426197
C98	C	0.583530	-0.513330	0.073803
C99	C	0.084640	-1.017033	-0.329700
C100	C	0.584640	-0.517033	0.170300
C101	C	0.000050	-1.068357	-0.205692
C102	C	0.500050	-0.568357	0.294308
C103	C	0.000057	-1.061534	-0.562648
C104	C	0.500057	-0.561534	-0.062648
C105	C	0.000062	-1.058331	0.268909
C106	C	0.500062	-0.558331	0.768909
C107	C	0.000063	-1.060088	0.361864
C108	C	0.500063	-0.560088	0.861864
H109	H	0.423511	-0.920892	0.173092
H110	H	0.923511	-0.420892	0.673092
F111	F	0.000034	-0.780839	0.277473
F112	F	0.500034	-0.280839	0.777473
F113	F	0.583633	-1.232977	0.072747
F114	F	1.083633	-0.732977	0.572747
H115	H	0.423789	-1.215625	0.086484
H116	H	0.923789	-0.715625	0.586484
F117	F	-0.089286	-0.919651	-0.445478
F118	F	0.410714	-0.419651	0.054522
F119	F	0.583894	-0.898951	0.169560
F120	F	1.083894	-0.398951	0.669560
H121	H	-0.147268	-1.050022	-0.453125
H122	H	0.352732	-0.550022	0.046875
H123	H	0.424021	-0.974718	0.013979
H124	H	0.924021	-0.474718	0.513979
F125	F	0.000043	-0.629016	0.351261
F126	F	0.500043	-0.129016	0.851261
H127	H	0.060462	-1.204278	-0.328770
H128	H	0.560462	-0.704278	0.171230
H129	H	-0.060450	-1.204537	-0.329396
H130	H	0.439550	-0.704537	0.170604
F131	F	0.000077	-0.349052	-0.045816
F132	F	0.500077	0.150948	0.454184
H133	H	0.422691	-1.094532	-0.024807
H134	H	0.922691	-0.594532	0.475193
H135	H	0.000090	-0.509931	-0.100312
H136	H	0.500090	-0.009931	0.399688
H137	H	0.089727	-0.945051	-0.296814
H138	H	0.589727	-0.445051	0.203186
F139	F	0.414577	-1.181290	0.217828
F140	F	0.914577	-0.681290	0.717828
F141	F	0.167013	-1.054174	-0.463130
F142	F	0.667013	-0.554174	0.036870
H143	H	0.575096	-1.175235	0.199591
H144	H	1.075096	-0.675235	0.699591
F145	F	0.000057	-0.304620	0.269055
F146	F	0.500057	0.195380	0.769055
F147	F	0.583050	-1.116916	-0.038644
F148	F	1.083050	-0.616916	0.461356
F149	F	-0.088316	-0.921761	-0.288009
F150	F	0.411684	-0.421761	0.211991
H151	H	0.577247	-0.978970	0.009531
H152	H	1.077247	-0.478970	0.509531
F153	F	-0.078146	-1.213351	-0.482393
F154	F	0.421854	-0.713351	0.017607
F155	F	-0.166179	-1.061976	-0.303289
F156	F	0.333821	-0.561976	0.196711
F157	F	0.000049	-0.694998	-0.116164
F158	F	0.500049	-0.194998	0.383836
H159	H	0.146980	-1.053395	-0.311089
H160	H	0.646980	-0.553395	0.188911
H161	H	0.000047	-0.810827	-0.018548
H162	H	0.500047	-0.310827	0.481452
H163	H	0.577392	-1.002540	0.249125
H164	H	1.077392	-0.502540	0.749125
F165	F	0.084271	-0.917193	-0.444596
F166	F	0.584271	-0.417193	0.055404
F167	F	0.000044	-0.434907	0.347815
F168	F	0.500044	0.065093	0.847815
F169	F	0.079383	-1.213595	-0.481052
F170	F	0.579383	-0.713595	0.018948
H171	H	0.424114	-1.002877	0.249742
H172	H	0.924114	-0.502877	0.749742
