data_functionalizedCrystal
_audit_creation_method	'MofGen! by Chris Wilmer'
_symmetry_space_group_name_H-M	'P1'
_symmetry_Int_Tables_number	1
_symmetry_cell_setting	triclinic
loop_
_symmetry_equiv_pos_as_xyz
  x,y,z
_cell_length_a	14.519709
_cell_length_b	14.519709
_cell_length_c	16.776229
_cell_angle_alpha	89.992406
_cell_angle_beta	89.998478
_cell_angle_gamma	83.680145
loop_
_atom_site_label
_atom_site_type_symbol
_atom_site_fract_x
_atom_site_fract_y
_atom_site_fract_z
O1	O	1.223871	0.120893	-0.066186
O2	O	1.473871	0.370893	0.183814
O3	O	1.723871	0.620893	0.433814
O4	O	1.973871	0.870893	0.683814
O5	O	0.955394	0.135130	-0.066211
O6	O	1.205394	0.385130	0.183789
O7	O	1.455394	0.635130	0.433789
O8	O	1.705394	0.885130	0.683789
O9	O	1.096751	-0.006227	-0.066191
O10	O	1.346751	0.243773	0.183809
O11	O	1.596751	0.493773	0.433809
O12	O	1.846751	0.743773	0.683809
O13	O	1.082514	0.262250	-0.066206
O14	O	1.332514	0.512250	0.183794
O15	O	1.582514	0.762250	0.433794
O16	O	1.832514	1.012250	0.683794
O17	O	1.096732	-0.006236	0.066386
O18	O	1.346732	0.243764	0.316386
O19	O	1.596732	0.493764	0.566386
O20	O	1.846732	0.743764	0.816386
O21	O	0.955375	0.135121	0.066366
O22	O	1.205375	0.385121	0.316366
O23	O	1.455375	0.635121	0.566366
O24	O	1.705375	0.885121	0.816366
O25	O	1.223852	0.120885	0.066390
O26	O	1.473852	0.370885	0.316390
O27	O	1.723852	0.620885	0.566390
O28	O	1.973852	0.870885	0.816390
Zn29	Zn	1.089611	0.128002	0.087427
Zn30	Zn	1.339611	0.378002	0.337427
Zn31	Zn	1.589611	0.628002	0.587427
Zn32	Zn	1.839611	0.878002	0.837427
Zn33	Zn	1.089635	0.128013	-0.087248
Zn34	Zn	1.339635	0.378013	0.162752
Zn35	Zn	1.589635	0.628013	0.412752
Zn36	Zn	1.839635	0.878013	0.662752
O37	O	1.082495	0.262241	0.066370
O38	O	1.332495	0.512241	0.316370
O39	O	1.582495	0.762241	0.566370
O40	O	1.832495	1.012241	0.816370
C41	C	0.921025	0.134462	0.000074
C42	C	1.171025	0.384462	0.250074
C43	C	1.421025	0.634462	0.500074
C44	C	1.671025	0.884462	0.750074
C45	C	0.818643	0.132474	0.000065
C46	C	1.068643	0.382474	0.250065
C47	C	1.318643	0.632474	0.500065
C48	C	1.568643	0.882474	0.750065
C49	C	0.443748	0.125154	0.000102
C50	C	0.693748	0.375154	0.250102
C51	C	0.943748	0.625154	0.500102
C52	C	1.193748	0.875154	0.750102
C53	C	0.548056	0.127187	0.000092
C54	C	0.798056	0.377187	0.250092
C55	C	1.048056	0.627187	0.500092
C56	C	1.298056	0.877187	0.750092
C57	C	0.631192	0.128814	0.000083
C58	C	0.881192	0.378814	0.250083
C59	C	1.131192	0.628814	0.500083
C60	C	1.381192	0.878814	0.750083
C61	C	0.735507	0.130847	0.000074
C62	C	0.985507	0.380847	0.250074
C63	C	1.235507	0.630847	0.500074
C64	C	1.485507	0.880847	0.750074
C65	C	1.096078	-0.040591	0.000098
C66	C	1.346078	0.209409	0.250098
C67	C	1.596078	0.459409	0.500098
C68	C	1.846078	0.709409	0.750098
C69	C	1.094090	-0.142972	0.000098
C70	C	1.344090	0.107028	0.250098
C71	C	1.594090	0.357028	0.500098
C72	C	1.844090	0.607028	0.750098
C73	C	1.086770	-0.517868	0.000077
C74	C	1.336770	-0.267868	0.250077
C75	C	1.586770	-0.017868	0.500077
C76	C	1.836770	0.232132	0.750077
C77	C	1.088803	-0.413560	0.000083
C78	C	1.338803	-0.163560	0.250083
C79	C	1.588803	0.086440	0.500083
C80	C	1.838803	0.336440	0.750083
C81	C	1.090430	-0.330423	0.000088
C82	C	1.340430	-0.080423	0.250088
C83	C	1.590430	0.169577	0.500088
C84	C	1.840430	0.419577	0.750088
C85	C	1.092463	-0.226109	0.000093
C86	C	1.342463	0.023891	0.250093
C87	C	1.592463	0.273891	0.500093
C88	C	1.842463	0.523891	0.750093
C89	C	1.258221	0.121553	0.000103
C90	C	1.508221	0.371553	0.250103
C91	C	1.758221	0.621553	0.500103
C92	C	2.008221	0.871553	0.750103
C93	C	1.360602	0.123541	0.000107
C94	C	1.610602	0.373541	0.250107
C95	C	1.860602	0.623541	0.500107
C96	C	2.110602	0.873541	0.750107
C97	C	1.083168	0.296605	0.000080
C98	C	1.333168	0.546605	0.250080
C99	C	1.583168	0.796605	0.500080
C100	C	1.833168	1.046605	0.750080
C101	C	1.085156	0.398987	0.000075
C102	C	1.335156	0.648987	0.250075
C103	C	1.585156	0.898987	0.500075
C104	C	1.835156	1.148987	0.750075
N105	N	1.089600	0.127993	0.206639
N106	N	1.339600	0.377993	0.456639
N107	N	1.589600	0.627993	0.706639
N108	N	1.839600	0.877993	0.956639
N109	N	1.089653	0.128014	-0.206459
N110	N	1.339653	0.378014	0.043541
N111	N	1.589653	0.628014	0.293541
N112	N	1.839653	0.878014	0.543541
C113	C	1.152212	0.065426	0.248365
C114	C	1.402212	0.315426	0.498365
C115	C	1.652212	0.565426	0.748365
C116	C	1.902212	0.815426	0.998365
C117	C	1.152217	0.065425	0.331817
C118	C	1.402217	0.315425	0.581817
C119	C	1.652217	0.565425	0.831817
C120	C	1.902217	0.815425	1.081817
C121	C	1.089614	0.127997	0.373542
C122	C	1.339614	0.377997	0.623542
C123	C	1.589614	0.627997	0.873542
C124	C	1.839614	0.877997	1.123542
C125	C	1.026996	0.190567	0.331810
C126	C	1.276996	0.440567	0.581810
C127	C	1.526996	0.690567	0.831810
C128	C	1.776996	0.940567	1.081810
C129	C	1.026987	0.190562	0.248359
C130	C	1.276987	0.440562	0.498359
C131	C	1.526987	0.690562	0.748359
C132	C	1.776987	0.940562	0.998359
C133	C	1.027029	0.190585	0.668357
C134	C	1.277029	0.440585	0.918357
C135	C	1.527029	0.690585	1.168357
C136	C	1.777029	0.940585	1.418357
C137	C	1.027045	0.190586	0.751813
C138	C	1.277045	0.440586	1.001813
C139	C	1.527045	0.690586	1.251813
C140	C	1.777045	0.940586	1.501813
C141	C	1.152260	0.065448	0.751815
C142	C	1.402260	0.315448	1.001815
C143	C	1.652260	0.565448	1.251815
C144	C	1.902260	0.815448	1.501815
C145	C	1.152251	0.065444	0.668364
C146	C	1.402251	0.315444	0.918364
C147	C	1.652251	0.565444	1.168364
C148	C	1.902251	0.815444	1.418364
C149	C	1.089629	0.128010	0.626640
C150	C	1.339629	0.378010	0.876640
C151	C	1.589629	0.628010	1.126640
C152	C	1.839629	0.878010	1.376640
C153	C	1.089623	0.128009	0.536151
C154	C	1.339623	0.378009	0.786151
C155	C	1.589623	0.628009	1.036151
C156	C	1.839623	0.878009	1.286151
C157	C	1.089624	0.128003	0.464028
C158	C	1.339624	0.378003	0.714028
C159	C	1.589624	0.628003	0.964028
C160	C	1.839624	0.878003	1.214028
H161	H	1.203195	0.014477	0.214398
H162	H	1.453195	0.264477	0.464398
H163	H	1.703195	0.514477	0.714398
H164	H	1.953195	0.764477	0.964398
H165	H	1.203200	0.014478	0.365790
H166	H	1.453200	0.264478	0.615790
H167	H	1.703200	0.514478	0.865790
H168	H	1.953200	0.764478	1.115790
H169	H	1.203231	0.014495	0.634394
H170	H	1.453231	0.264495	0.884394
H171	H	1.703231	0.514495	1.134394
H172	H	1.953231	0.764495	1.384394
H173	H	1.203247	0.014500	0.785796
H174	H	1.453247	0.264500	1.035796
H175	H	1.703247	0.514500	1.285796
H176	H	1.953247	0.764500	1.535796
H177	H	0.976062	0.241541	0.785784
H178	H	1.226062	0.491541	1.035784
H179	H	1.476062	0.741541	1.285784
H180	H	1.726062	0.991541	1.535784
H181	H	0.976042	0.241530	0.634391
H182	H	1.226042	0.491530	0.884391
H183	H	1.476042	0.741530	1.134391
H184	H	1.726042	0.991530	1.384391
H185	H	0.976018	0.241510	0.365787
H186	H	1.226018	0.491510	0.615787
H187	H	1.476018	0.741510	0.865787
H188	H	1.726018	0.991510	1.115787
H189	H	0.976001	0.241509	0.214386
H190	H	1.226001	0.491509	0.464386
H191	H	1.476001	0.741509	0.714386
H192	H	1.726001	0.991509	0.964386
