data_functionalizedCrystal
_audit_creation_method	'MofGen! by Chris Wilmer'
_symmetry_space_group_name_H-M	'P1'
_symmetry_Int_Tables_number	1
_symmetry_cell_setting	triclinic
loop_
_symmetry_equiv_pos_as_xyz
  x,y,z
_cell_length_a	14.750426
_cell_length_b	13.339070
_cell_length_c	13.262508
_cell_angle_alpha	80.569504
_cell_angle_beta	119.607771
_cell_angle_gamma	79.925492
loop_
_atom_site_label
_atom_site_type_symbol
_atom_site_fract_x
_atom_site_fract_y
_atom_site_fract_z
O1	O	0.063076	-1.360055	0.547430
O2	O	0.043343	-1.060369	0.471834
O3	O	0.010218	-1.207024	0.344959
O4	O	0.096201	-1.213400	0.674305
O5	O	0.184761	-1.250077	0.401976
O6	O	0.217886	-1.103423	0.528851
O7	O	0.237619	-1.403109	0.604447
Zn8	Zn	0.255465	-1.260101	0.575702
Zn9	Zn	0.025497	-1.203376	0.500579
O10	O	0.270744	-1.256454	0.731322
C11	C	0.127281	-1.043335	0.487573
C12	C	0.117345	-0.928436	0.449510
N13	N	0.412412	-1.298822	0.626972
N14	N	-0.131452	-1.164663	0.449302
C15	C	0.600515	-1.406939	0.770079
C16	C	0.490638	-1.379808	0.734172
C17	C	0.444041	-1.244939	0.555633
C18	C	0.553916	-1.272063	0.591522
C19	C	0.632146	-1.353062	0.698746
C20	C	0.585547	-1.218186	0.520190
C21	C	0.695414	-1.245304	0.556080
C22	C	0.773650	-1.326298	0.663301
C23	C	0.742013	-1.380180	0.734636
C24	C	0.507317	-1.137182	0.412971
C25	C	0.538948	-1.083305	0.341638
C26	C	0.648815	-1.110428	0.377523
C27	C	0.727051	-1.191422	0.484745
C28	C	0.680452	-1.056546	0.306188
C29	C	0.790318	-1.083664	0.342078
C30	C	0.836917	-1.218540	0.520634
C31	C	0.086258	-1.224949	0.330453
C32	C	0.052789	-1.214203	0.202279
C33	C	0.153679	-1.420142	0.588707
C34	C	0.163608	-1.535040	0.626768
C35	C	0.194595	-0.583839	0.745467
C36	C	0.203929	-0.691792	0.781231
C37	C	0.182284	-0.750958	0.698304
C38	C	0.151303	-0.702161	0.579606
C39	C	0.141961	-0.594195	0.543835
C40	C	0.129649	-0.761315	0.496672
C41	C	0.098669	-0.712517	0.377974
C42	C	0.089329	-0.604563	0.342209
C43	C	0.110974	-0.545396	0.425136
C44	C	0.138992	-0.869280	0.532443
C45	C	0.086357	-0.879637	0.330811
C46	C	0.077024	-0.771684	0.295047
C47	C	0.339032	-1.277786	-0.034712
C48	C	0.370478	-1.287873	0.085713
C49	C	0.291059	-1.269457	0.114861
C50	C	0.180188	-1.240950	0.023572
C51	C	0.148738	-1.230853	-0.096866
C52	C	0.100765	-1.222525	0.052706
C53	C	-0.010106	-1.194018	-0.038583
C54	C	-0.041550	-1.183924	-0.159008
C55	C	0.037870	-1.202340	-0.188156
C56	C	0.132214	-1.232622	0.173144
C57	C	-0.058080	-1.185690	0.110990
C58	C	-0.089525	-1.175602	-0.009435
C59	C	0.194702	-1.238528	0.745827
C60	C	0.228163	-1.249272	0.873999
H61	H	0.900616	-1.284504	0.607942
H62	H	0.189882	-0.838857	0.727430
C63	C	-0.211482	-1.144236	-0.109868
N64	N	-0.303340	-1.120610	-0.185516
C65	C	0.455851	-1.439086	0.812650
N66	N	0.429649	-1.483732	0.871759
H67	H	0.222486	-1.255823	0.247460
C68	C	0.357948	-1.155976	0.437573
N69	N	0.293091	-1.089019	0.348604
C70	C	0.492432	-1.319230	0.186121
N71	N	0.584295	-1.342851	0.261752
H72	H	0.403683	-1.292770	-0.058459
H73	H	0.051791	-0.731936	0.198397
H74	H	0.475240	-1.017352	0.254338
C75	C	0.686572	-1.496058	0.888018
N76	N	0.751388	-1.563183	0.976845
C77	C	0.173079	-0.922947	0.663012
N78	N	0.198761	-0.963368	0.761365
C79	C	-0.145447	-1.165433	0.143046
N80	N	-0.211247	-1.150177	0.167200
H81	H	0.229145	-0.731512	0.877873
H82	H	-0.131829	-1.160702	-0.233336
H83	H	0.012272	-1.194133	-0.286212
C84	C	0.062550	-0.944716	0.239585
N85	N	0.044619	-0.993740	0.170881
C86	C	0.218399	-0.518749	0.836671
N87	N	0.236330	-0.469722	0.905373
H88	H	0.103376	-0.457492	0.396022
C89	C	0.325655	-1.280565	0.247334
N90	N	0.351717	-1.288940	0.347121
C91	C	0.894507	-1.356130	0.702779
N92	N	0.985536	-1.378600	0.732513
C93	C	0.828069	-1.469300	0.852576
N94	N	0.892885	-1.536424	0.941402
H95	H	0.417859	-1.115099	0.383758
H96	H	0.616744	-0.990588	0.218892
H97	H	0.816072	-1.039789	0.283994
H98	H	0.064091	-0.564833	0.245553
