data_functionalizedCrystal
_audit_creation_method	'MofGen! by Chris Wilmer'
_symmetry_space_group_name_H-M	'P1'
_symmetry_Int_Tables_number	1
_symmetry_cell_setting	triclinic
loop_
_symmetry_equiv_pos_as_xyz
  x,y,z
_cell_length_a	16.120530
_cell_length_b	12.594516
_cell_length_c	16.120297
_cell_angle_alpha	87.126738
_cell_angle_beta	89.871860
_cell_angle_gamma	87.109090
loop_
_atom_site_label
_atom_site_type_symbol
_atom_site_fract_x
_atom_site_fract_y
_atom_site_fract_z
Zn1	Zn	1.247514	-0.539248	0.534570
Zn2	Zn	1.747514	-0.039248	1.034570
Zn3	Zn	1.254487	-0.708691	0.395513
Zn4	Zn	1.754487	-0.208691	0.895513
Zn5	Zn	1.115501	-0.521262	0.388487
Zn6	Zn	1.615501	-0.021262	0.888487
Zn7	Zn	1.108444	-0.707711	0.527483
Zn8	Zn	1.608444	-0.207711	1.027483
O9	O	1.181487	-0.619228	0.461513
O10	O	1.681487	-0.119228	0.961513
O11	O	1.364806	-0.569663	0.522030
O12	O	1.864806	-0.069663	1.022030
O13	O	1.241923	-0.676711	0.278216
O14	O	1.741923	-0.176711	0.778216
O15	O	1.133048	-0.374706	0.407891
O16	O	1.633048	0.125294	0.907891
O17	O	1.369930	-0.694152	0.419866
O18	O	1.869930	-0.194152	0.919866
O19	O	1.230037	-0.387920	0.515217
O20	O	1.730037	0.112080	1.015217
O21	O	1.139811	-0.539008	0.273054
O22	O	1.639811	-0.039008	0.773054
O23	O	0.998198	-0.538057	0.401019
O24	O	1.498198	-0.038057	0.901019
O25	O	1.121019	-0.692481	0.644788
O26	O	1.621019	-0.192481	1.144788
O27	O	0.993013	-0.675040	0.503138
O28	O	1.493013	-0.175040	1.003138
O29	O	1.223193	-0.568712	0.649995
O30	O	1.723193	-0.068712	1.149995
O31	O	1.235079	-0.857503	0.412994
O32	O	1.735079	-0.357503	0.912994
O33	O	1.127781	-0.856783	0.509951
O34	O	1.627781	-0.356783	1.009951
C35	C	0.965432	-0.604492	0.450548
C36	C	1.465432	-0.104492	0.950548
C37	C	0.873003	-0.598214	0.445876
C38	C	1.373003	-0.098214	0.945876
C39	C	1.181443	-0.895764	0.461485
C40	C	1.681443	-0.395764	0.961485
C41	C	1.181499	-1.014075	0.461505
C42	C	1.681499	-0.514075	0.961505
C43	C	0.703771	-0.586729	0.437355
C44	C	1.203771	-0.086729	0.937355
C45	C	0.660039	-0.651809	0.485732
C46	C	1.160039	-0.151809	0.985732
C47	C	0.565873	-0.645419	0.480991
C48	C	1.065873	-0.145419	0.980991
C49	C	0.797946	-0.593118	0.442095
C50	C	1.297946	-0.093118	0.942095
C51	C	1.239955	-1.154457	0.408872
C52	C	1.739955	-0.654457	0.908872
C53	C	1.165106	-1.077346	0.384592
C54	C	1.665106	-0.577346	0.884592
C55	C	1.256341	-1.089611	0.485746
C56	C	1.756341	-0.589611	0.985746
C57	C	1.106694	-1.147754	0.437261
C58	C	1.606694	-0.647754	0.937261
C59	C	1.197978	-1.160031	0.538452
C60	C	1.697978	-0.660031	1.038452
C61	C	1.123075	-1.082950	0.514199
C62	C	1.623075	-0.582950	1.014199
C63	C	1.398384	-0.634023	0.472522
C64	C	1.898384	-0.134023	0.972522
C65	C	1.490813	-0.640327	0.477213
C66	C	1.990813	-0.140327	0.977213
C67	C	1.170541	-0.632494	0.678408
C68	C	1.670541	-0.132494	1.178408
C69	C	1.165877	-0.638147	0.770835
C70	C	1.665877	-0.138147	1.270835
C71	C	1.181552	-0.341615	0.461561
C72	C	1.681552	0.158385	0.961561
C73	C	1.181580	-0.223312	0.461581
C74	C	1.681580	0.276688	0.961581
C75	C	1.192437	-0.605941	0.245465
C76	C	1.692437	-0.105941	0.745465
C77	C	1.197263	-0.599999	0.153046
C78	C	1.697263	-0.099999	0.653046
C79	C	1.157331	-0.648442	0.940060
C80	C	1.657331	-0.148442	1.440060
C81	C	1.205806	-0.589707	0.983827
C82	C	1.705806	-0.089707	1.483827
C83	C	1.201051	-0.595435	1.077989
C84	C	1.701051	-0.095435	1.577989
C85	C	1.162085	-0.642715	0.845889
C86	C	1.662085	-0.142715	1.345889
H87	H	0.670493	-0.526218	0.392380
H88	H	1.170493	-0.026218	0.892380
O89	O	0.704114	-0.731974	0.545314
O90	O	1.204114	-0.231974	1.045314
H91	H	0.745547	-0.786407	0.509971
H92	H	1.245547	-0.286407	1.009971
H93	H	1.211911	-1.196178	0.603477
H94	H	1.711911	-0.696178	1.103477
O95	O	1.265518	-0.517407	0.939792
O96	O	1.765518	-0.017407	1.439792
H97	H	1.329951	-0.541113	0.959735
H98	H	1.829951	-0.041113	1.459735
O99	O	1.305318	-1.196033	0.349828
O100	O	1.805318	-0.696033	0.849828
H101	H	1.291469	-1.162734	0.286024
H102	H	1.791469	-0.662734	0.786024
O103	O	1.146678	-1.029477	0.298444
O104	O	1.646678	-0.529477	0.798444
H105	H	1.195251	-1.058127	0.254835
H106	H	1.695251	-0.558127	0.754835
H107	H	1.043421	-1.173369	0.416717
H108	H	1.543421	-0.673369	0.916717
H109	H	1.073620	-1.051760	0.558739
H110	H	1.573620	-0.551760	1.058739
H111	H	1.319598	-1.063858	0.506216
H112	H	1.819598	-0.563858	1.006216
H113	H	1.112262	-0.703025	0.973306
H114	H	1.612262	-0.203025	1.473306
