data_functionalizedCrystal
_audit_creation_method	'MofGen! by Chris Wilmer'
_symmetry_space_group_name_H-M	'P1'
_symmetry_Int_Tables_number	1
_symmetry_cell_setting	triclinic
loop_
_symmetry_equiv_pos_as_xyz
  x,y,z
_cell_length_a	6.817900
_cell_length_b	12.000032
_cell_length_c	11.102193
_cell_angle_alpha	88.832106
_cell_angle_beta	108.604059
_cell_angle_gamma	119.142083
loop_
_atom_site_label
_atom_site_type_symbol
_atom_site_fract_x
_atom_site_fract_y
_atom_site_fract_z
V1	V	-4.172869	-0.176875	-0.398401
O2	O	-4.067602	0.008490	-0.388611
O3	O	-4.209944	-0.350704	-0.397797
O4	O	-4.148701	-0.174158	-0.571189
O5	O	-4.129269	-0.169278	-0.214019
V6	V	-4.642281	-0.154703	-0.376089
O7	O	-4.465080	-0.225512	-0.447342
O8	O	-4.800268	-0.106066	-0.327148
O9	O	-4.382000	0.019127	-0.376693
O10	O	-4.864945	-0.340068	-0.385878
O11	O	-4.803278	-0.162300	-0.560471
O12	O	-4.443243	-0.157419	-0.203301
C13	C	-4.074954	-0.393080	-0.392059
C14	C	-4.186716	-0.535187	-0.392717
C15	C	-4.059522	-0.592357	-0.386908
C16	C	-4.175030	-0.739233	-0.387588
C17	C	-3.996831	-0.167876	-0.613237
C18	C	-4.058920	-0.166806	-0.754506
C19	C	-4.260466	-0.400943	-0.793670
C20	C	-4.390398	-0.517503	-0.879619
C21	C	-4.448732	-0.516490	-1.012352
C22	C	-4.377132	-0.398903	-1.059139
C23	C	-4.247200	-0.282343	-0.973190
C24	C	-4.188869	-0.283369	-0.840456
C25	C	-4.045671	-0.048209	-0.934027
C26	C	-3.987319	-0.049219	-0.801293
C27	C	-3.974070	0.069377	-0.980814
C28	C	-3.844121	0.185940	-0.894865
C29	C	-3.785785	0.184922	-0.762124
C30	C	-3.857387	0.067341	-0.715345
C31	C	-4.180334	0.061496	-0.382428
C32	C	-4.047813	0.203602	-0.381778
C33	C	-4.258456	-0.163705	-0.161247
C34	C	-4.175602	-0.164770	-0.019976
H35	H	-4.369439	-0.799017	-0.393052
H36	H	-3.853393	-0.736613	-0.376297
O37	O	-4.444231	-0.614368	-0.399965
H38	H	-4.494546	-0.717305	-0.399366
O39	O	-3.794455	0.066239	-0.572182
H40	H	-3.874814	0.111732	-0.533620
O41	O	-4.588864	-0.642211	-1.105051
H42	H	-4.759522	-0.652135	-1.171354
O43	O	-3.645626	0.310650	-0.669431
H44	H	-3.474979	0.320560	-0.603129
H45	H	-4.424666	-0.398090	-1.167220
H46	H	-4.212945	-0.401779	-0.685592
O47	O	-4.467601	-0.644326	-0.829160
H48	H	-4.405188	-0.625455	-0.722422
O49	O	-3.802013	-0.513169	-0.379668
H50	H	-3.695653	-0.438361	-0.291901
O51	O	-4.036970	0.070482	-1.123975
H52	H	-4.139324	-0.030321	-1.175882
O53	O	-3.766890	0.312756	-0.945321
H54	H	-3.829280	0.293878	-1.052058
