data_functionalizedCrystal
_audit_creation_method	'MofGen! by Chris Wilmer'
_symmetry_space_group_name_H-M	'P1'
_symmetry_Int_Tables_number	1
_symmetry_cell_setting	triclinic
loop_
_symmetry_equiv_pos_as_xyz
  x,y,z
_cell_length_a	25.639234
_cell_length_b	13.897449
_cell_length_c	13.897448
_cell_angle_alpha	90.020848
_cell_angle_beta	90.014809
_cell_angle_gamma	90.009841
loop_
_atom_site_label
_atom_site_type_symbol
_atom_site_fract_x
_atom_site_fract_y
_atom_site_fract_z
Zn1	Zn	-0.295627	-1.474586	0.384077
Zn2	Zn	-0.208201	-1.474506	0.545361
Zn3	Zn	-0.208206	-1.313306	0.384086
Zn4	Zn	-0.295606	-1.313252	0.545335
O5	O	-0.251910	-1.393913	0.464715
O6	O	-0.284036	-1.609557	0.405479
O7	O	-0.135036	-1.453111	0.523982
O8	O	-0.219813	-1.334757	0.249103
O9	O	-0.219805	-1.609498	0.523974
O10	O	-0.284041	-1.453249	0.249096
O11	O	-0.135040	-1.334679	0.405494
O12	O	-0.219793	-1.178317	0.405468
O13	O	-0.368774	-1.334664	0.523929
O14	O	-0.284005	-1.178277	0.523938
O15	O	-0.368789	-1.453196	0.405454
O16	O	-0.219784	-1.453059	0.680340
O17	O	-0.284000	-1.334586	0.680320
C18	C	-0.251901	-1.393834	0.715329
C19	C	-0.251914	-1.393889	0.822543
C20	C	-0.251898	-1.143298	0.464702
C21	C	-0.251905	-1.036084	0.464720
C22	C	-0.388283	-1.393933	0.464688
C23	C	-0.446397	-1.393942	0.464676
C24	C	-0.697577	-1.332287	0.526245
C25	C	-0.642972	-1.332270	0.526267
O26	O	-0.614724	-1.279756	0.578711
N27	N	-0.615671	-1.393979	0.464598
C28	C	-0.642977	-1.455701	0.402897
O29	O	-0.614740	-1.508187	0.350444
C30	C	-0.697580	-1.455713	0.402871
C31	C	-0.724879	-1.394007	0.464550
C32	C	-0.724875	-1.270585	0.587919
C33	C	-0.779476	-1.270603	0.587898
C34	C	-0.806778	-1.332324	0.526204
C35	C	-0.779479	-1.394025	0.464530
C36	C	-0.724885	-1.517430	0.341165
C37	C	-0.779492	-1.517435	0.341144
C38	C	-0.806790	-1.455729	0.402824
C39	C	-0.861382	-1.455764	0.402814
N40	N	-0.888683	-1.394055	0.464483
C41	C	-0.861381	-1.332335	0.526178
C42	C	-0.528306	-1.455672	0.402955
C43	C	-0.473703	-1.455666	0.402985
C44	C	-0.473703	-1.332233	0.526354
C45	C	-0.528306	-1.332244	0.526328
C46	C	-0.555607	-1.393963	0.464623
C47	C	-0.976046	-1.332379	0.526130
C48	C	-1.030652	-1.332406	0.526107
C49	C	-1.030647	-1.455835	0.402735
C50	C	-0.976047	-1.455812	0.402761
C51	C	-0.948748	-1.394076	0.464462
O52	O	-0.889665	-1.508248	0.350394
O53	O	-0.889624	-1.279849	0.578613
C54	C	-0.116067	-1.393948	0.464672
C55	C	-0.057954	-1.394126	0.464412
C56	C	-0.251922	-1.645505	0.464728
C57	C	-0.251927	-1.752719	0.464734
C58	C	-0.251919	-0.839789	0.464723
C59	C	-0.251910	-0.949022	0.464718
C60	C	-0.251952	-1.393983	1.018838
C61	C	-0.251933	-1.393928	0.909606
C62	C	-0.251936	-1.394009	1.213122
C63	C	-0.251963	-1.394030	1.105908
H64	H	-1.052876	-1.282157	0.576338
H65	H	-0.953826	-1.282099	0.576364
C66	C	-0.840894	-1.530911	0.211355
C67	C	-0.809499	-1.585282	0.273315
H68	H	-0.859416	-1.572798	0.169479
H69	H	-0.864968	-1.494179	0.248082
H70	H	-0.819588	-1.488892	0.174473
H71	H	-0.830806	-1.627295	0.310202
H72	H	-0.785422	-1.622030	0.236584
C73	C	-1.025176	-1.577836	0.280783
C74	C	-1.060664	-1.523674	0.334919
H75	H	-1.043710	-1.619716	0.238917
H76	H	-1.003879	-1.535820	0.243897
H77	H	-1.003879	-1.614716	0.322824
H78	H	-1.081960	-1.486787	0.292878
H79	H	-1.081970	-1.565695	0.371808
C80	C	-0.589703	-1.469164	0.273158
C81	C	-0.558311	-1.523528	0.335128
H82	H	-0.608221	-1.511055	0.231281
H83	H	-0.613780	-1.432431	0.309877
H84	H	-0.568395	-1.427147	0.236278
H85	H	-0.579619	-1.565540	0.372014
H86	H	-0.534231	-1.560277	0.298406
H87	H	-0.451464	-1.281975	0.576587
H88	H	-0.702667	-1.567678	0.290940
C89	C	-0.796264	-1.223538	0.751225
C90	C	-0.809473	-1.202763	0.655696
H91	H	-0.814777	-1.181646	0.793080
H92	H	-0.805224	-1.288331	0.765341
H93	H	-0.759834	-1.214710	0.760041
H94	H	-0.845903	-1.211598	0.646878
H95	H	-0.800517	-1.137954	0.641574
C96	C	-0.663477	-1.257112	0.717707
C97	C	-0.694870	-1.202739	0.655744
H98	H	-0.644954	-1.215226	0.759581
H99	H	-0.684782	-1.299125	0.754582
H100	H	-0.639400	-1.293848	0.680975
H101	H	-0.718950	-1.166008	0.692475
H102	H	-0.673564	-1.160709	0.618866
C103	C	-0.522809	-1.210237	0.648272
C104	C	-0.558310	-1.264408	0.594119
H105	H	-0.541331	-1.168352	0.690119
H106	H	-0.501516	-1.252247	0.685178
H107	H	-0.501508	-1.173362	0.606240
H108	H	-0.579609	-1.301289	0.636151
H109	H	-0.579612	-1.222392	0.557210
H110	H	-0.451482	-1.505923	0.352769
C111	C	-0.914646	-1.585568	0.389402
C112	C	-0.946041	-1.523660	0.334977
H113	H	-0.896129	-1.627457	0.347550
H114	H	-0.890568	-1.548805	0.426127
H115	H	-0.935952	-1.622438	0.431430
H116	H	-0.924735	-1.486783	0.292954
H117	H	-0.970122	-1.560426	0.298236
