data_functionalizedCrystal
_audit_creation_method	'MofGen! by Chris Wilmer'
_symmetry_space_group_name_H-M	'P1'
_symmetry_Int_Tables_number	1
_symmetry_cell_setting	triclinic
loop_
_symmetry_equiv_pos_as_xyz
  x,y,z
_cell_length_a	10.654555
_cell_length_b	13.596369
_cell_length_c	10.654550
_cell_angle_alpha	90.001719
_cell_angle_beta	95.514048
_cell_angle_gamma	89.997333
loop_
_atom_site_label
_atom_site_type_symbol
_atom_site_fract_x
_atom_site_fract_y
_atom_site_fract_z
O1	O	-1.667839	0.081721	0.176431
O2	O	-1.302361	0.081736	0.193231
O3	O	-1.493503	0.081732	0.002092
O4	O	-1.476697	0.081725	0.367570
O5	O	-1.493484	-0.081851	0.002081
O6	O	-1.302342	-0.081847	0.193220
O7	O	-1.667820	-0.081861	0.176421
Zn8	Zn	-1.485078	-0.107827	0.184819
Zn9	Zn	-1.485103	0.107701	0.184832
O10	O	-1.476678	-0.081858	0.367560
C11	C	-1.255554	-0.000054	0.191991
C12	C	-1.116111	-0.000048	0.188296
N13	N	-1.485069	-0.254919	0.184809
C14	C	-0.919576	0.089116	0.183100
C15	C	-1.050598	0.089120	0.186564
C16	C	-1.050596	-0.089227	0.186552
C17	C	-0.919577	-0.089230	0.183080
C18	C	-1.485101	-0.656209	0.184834
C19	C	-1.485089	-0.544558	0.184831
C20	C	-1.485086	-0.455568	0.184822
C21	C	-1.485072	-0.343909	0.184818
C22	C	-0.714627	-0.000066	0.177662
C23	C	-0.854069	-0.000056	0.181360
C24	C	-1.477921	-0.000068	0.414363
C25	C	-1.481613	-0.000071	0.553806
N26	N	-1.485121	0.254793	0.184833
C27	C	-1.492259	-0.000056	-0.044711
C28	C	-1.488567	-0.000046	-0.184155
C29	C	-1.369072	-0.000064	0.633290
C30	C	-1.372548	-0.000048	0.764311
C31	C	-1.601117	-0.000050	0.736351
C32	C	-1.597640	-0.000059	0.605333
H33	H	-1.103928	0.161733	0.187979
N34	N	-0.848914	-0.185413	0.181193
H35	H	-0.910395	-0.241902	0.181944
H36	H	-0.785646	-0.189596	0.257919
H37	H	-1.689290	-0.000061	0.540614
N38	N	-1.251171	-0.000044	0.850049
H39	H	-1.200602	0.060592	0.833352
H40	H	-1.200701	-0.060729	0.833329
H41	H	-1.695582	-0.000051	0.778321
H42	H	-1.274596	-0.000077	0.591341
N43	N	-0.848913	0.185288	0.181232
H44	H	-0.862212	0.224277	0.259551
H45	H	-0.881251	0.224193	0.104067
N46	N	-1.121249	-0.185404	0.188417
H47	H	-1.214189	-0.171873	0.190886
H48	H	-1.088838	-0.224341	0.265528
