data_functionalizedCrystal
_audit_creation_method	'MofGen! by Chris Wilmer'
_symmetry_space_group_name_H-M	'P1'
_symmetry_Int_Tables_number	1
_symmetry_cell_setting	triclinic
loop_
_symmetry_equiv_pos_as_xyz
  x,y,z
_cell_length_a	23.532355
_cell_length_b	23.532407
_cell_length_c	15.072220
_cell_angle_alpha	89.994175
_cell_angle_beta	89.993350
_cell_angle_gamma	82.838088
loop_
_atom_site_label
_atom_site_type_symbol
_atom_site_fract_x
_atom_site_fract_y
_atom_site_fract_z
O1	O	0.755286	0.068990	-0.073671
O2	O	0.589418	0.079024	-0.073700
O3	O	0.677354	-0.008925	-0.073668
O4	O	0.667350	0.156940	-0.073703
O5	O	0.677332	-0.008920	0.073897
O6	O	0.589397	0.079029	0.073865
O7	O	0.755264	0.068995	0.073894
Zn8	Zn	0.672327	0.074013	0.097309
Zn9	Zn	0.672355	0.074007	-0.097115
O10	O	0.667329	0.156945	0.073862
C11	C	0.568191	0.078776	0.000079
C12	C	0.504972	0.078022	0.000068
C13	C	0.112946	0.073287	0.080544
C14	C	0.053547	0.072569	0.080548
O15	O	0.022818	0.072181	0.148956
N16	N	0.023850	0.072211	0.000110
C17	C	0.053557	0.072564	-0.080336
O18	O	0.022843	0.072193	-0.148754
C19	C	0.112956	0.073277	-0.080339
C20	C	0.142649	0.073641	0.000104
C21	C	0.142639	0.073650	0.160980
C22	C	0.202035	0.074369	0.160976
C23	C	0.231737	0.074724	0.080536
C24	C	0.202044	0.074360	0.000100
C25	C	0.142662	0.073626	-0.160784
C26	C	0.202065	0.074339	-0.160780
C27	C	0.231758	0.074704	-0.080337
C28	C	0.291141	0.075433	-0.080344
N29	N	0.320838	0.075792	0.000094
C30	C	0.291136	0.075437	0.080534
C31	C	-0.071185	0.071065	-0.080324
C32	C	-0.130583	0.070356	-0.080323
C33	C	-0.130589	0.070360	0.080561
C34	C	-0.071190	0.071073	0.080559
C35	C	-0.041488	0.071423	0.000113
C36	C	0.415870	0.076946	0.080519
C37	C	0.475270	0.077667	0.080508
C38	C	0.475271	0.077660	-0.080375
C39	C	0.415875	0.076942	-0.080365
C40	C	0.386177	0.076583	0.000090
O41	O	0.321908	0.075819	-0.148717
O42	O	0.321858	0.075801	0.148940
C43	C	0.677088	-0.030139	0.000116
C44	C	0.676322	-0.093356	0.000123
C45	C	0.723557	-0.492468	0.000083
C46	C	0.722845	-0.551868	0.000076
O47	O	0.766632	-0.588620	0.000051
N48	N	0.670568	-0.574484	0.000067
C49	C	0.618998	-0.537697	0.000057
O50	O	0.574467	-0.562388	0.000048
C51	C	0.619710	-0.478298	0.000057
C52	C	0.671991	-0.455685	0.000075
C53	C	0.775834	-0.469854	0.000100
C54	C	0.776545	-0.410458	0.000108
C55	C	0.724979	-0.373676	0.000100
C56	C	0.672703	-0.396289	0.000083
C57	C	0.568141	-0.441512	0.000040
C58	C	0.568858	-0.382110	0.000040
C59	C	0.621139	-0.359497	0.000057
C60	C	0.621848	-0.300110	0.000084
N61	N	0.674126	-0.277494	0.000092
C62	C	0.725691	-0.314277	0.000100
C63	C	0.617507	-0.662439	0.000054
C64	C	0.616794	-0.721837	0.000060
C65	C	0.720642	-0.736004	0.000078
C66	C	0.721354	-0.676605	0.000078
C67	C	0.669784	-0.639823	0.000063
C68	C	0.727181	-0.189540	0.000119
C69	C	0.727888	-0.130138	0.000131
C70	C	0.624041	-0.115977	0.000109
C71	C	0.623334	-0.175373	0.000101
C72	C	0.674909	-0.212154	0.000103
O73	O	0.578084	-0.263323	0.000105
O74	O	0.770216	-0.289577	0.000098
C75	C	0.776491	0.069244	0.000113
C76	C	0.839710	0.069998	0.000118
C77	C	0.667594	0.178158	0.000076
C78	C	0.668360	0.241375	0.000063
N79	N	0.672312	0.074017	0.229998
N80	N	0.672375	0.073998	-0.229803
C81	C	0.672354	0.074004	0.589199
C82	C	0.625145	0.120908	0.551575
C83	C	0.625252	0.121078	0.448749
C84	C	0.672333	0.074011	0.410995
C85	C	0.731685	0.086643	0.448294
C86	C	0.731420	0.086976	0.551151
C87	C	0.660741	0.014327	0.551309
C88	C	0.659376	0.014734	0.448445
C89	C	0.672324	0.074013	0.310282
C90	C	0.672367	0.074003	0.689912
H91	H	0.499465	0.077951	-0.145867
H92	H	0.226245	0.074625	-0.226290
F93	F	0.569164	-0.076820	0.000100
F94	F	0.634661	0.178479	0.585323
F95	F	0.783535	-0.106076	0.000150
F96	F	0.744862	0.143848	0.582491
F97	F	-0.162210	0.069980	0.166174
H98	H	0.769178	-0.219481	0.000117
H99	H	0.632633	0.165371	0.424128
F100	F	0.562616	-0.623297	0.000046
H101	H	0.763925	-0.658198	0.000092
H102	H	0.391697	0.076655	-0.145868
F103	F	0.778682	0.043158	0.416332
F104	F	0.775523	-0.775161	0.000082
F105	F	-0.162179	0.069979	-0.165941
H106	H	0.767629	0.054141	0.576039
F107	F	0.745462	0.142864	0.414604
H108	H	0.574222	-0.740243	0.000061
H109	H	0.819117	-0.392053	0.000119
H110	H	0.618420	0.002094	0.577295
F111	F	0.567275	0.111300	0.583915
H112	H	0.525569	-0.459912	0.000020
H113	H	-0.047006	0.071355	-0.145837
F114	F	0.602310	0.002192	0.416584
H115	H	0.817827	-0.499797	0.000103
F116	F	0.513969	-0.342966	0.000021
F117	F	0.567565	0.111337	0.415786
F118	F	0.567691	-0.199441	0.000098
H119	H	0.691552	-0.021779	0.422750
H120	H	0.695173	-0.020573	0.575640
F121	F	0.233629	0.074754	0.246595
F122	F	0.384271	0.076563	0.166148
H123	H	0.499443	0.077966	0.146017
H124	H	0.118462	0.073360	0.226488
F125	F	-0.039593	0.071460	0.166176
H126	H	0.118496	0.073329	-0.226289
