data_functionalizedCrystal
_audit_creation_method	'MofGen! by Chris Wilmer'
_symmetry_space_group_name_H-M	'P1'
_symmetry_Int_Tables_number	1
_symmetry_cell_setting	triclinic
loop_
_symmetry_equiv_pos_as_xyz
  x,y,z
_cell_length_a	16.625548
_cell_length_b	10.686285
_cell_length_c	16.625539
_cell_angle_alpha	94.392139
_cell_angle_beta	89.979432
_cell_angle_gamma	94.367355
loop_
_atom_site_label
_atom_site_type_symbol
_atom_site_fract_x
_atom_site_fract_y
_atom_site_fract_z
Zn1	Zn	1.257390	0.502308	-0.431351
Zn2	Zn	1.757390	1.002308	0.068649
Zn3	Zn	1.267674	0.713328	-0.286201
Zn4	Zn	1.767674	1.213328	0.213799
Zn5	Zn	1.122554	0.502356	-0.296529
Zn6	Zn	1.622554	1.002356	0.203471
Zn7	Zn	1.132899	0.713256	-0.420995
Zn8	Zn	1.632899	1.213256	0.079005
O9	O	1.195129	0.607812	-0.358769
O10	O	1.695129	1.107812	0.141231
O11	O	1.371587	0.530310	-0.412109
O12	O	1.871587	1.030310	0.087891
O13	O	1.248398	0.685393	-0.174736
O14	O	1.748398	1.185393	0.325264
O15	O	1.131807	0.325774	-0.323070
O16	O	1.631807	0.825774	0.176930
O17	O	1.379142	0.685346	-0.305468
O18	O	1.879142	1.185346	0.194532
O19	O	1.230871	0.325739	-0.422123
O20	O	1.730871	0.825739	0.077877
O21	O	1.141779	0.530392	-0.182324
O22	O	1.641779	1.030392	0.317676
O23	O	1.011094	0.530322	-0.313028
O24	O	1.511094	1.030322	0.186972
O25	O	1.149439	0.685223	-0.535203
O26	O	1.649439	1.185223	-0.035203
O27	O	1.018694	0.685269	-0.404472
O28	O	1.518694	1.185269	0.095528
O29	O	1.240902	0.530240	-0.542812
O30	O	1.740902	1.030240	-0.042812
O31	O	1.258429	0.889894	-0.295425
O32	O	1.758429	1.389894	0.204575
O33	O	1.159410	0.889841	-0.394458
O34	O	1.659410	1.389841	0.105542
C35	C	1.211180	0.935651	-0.342715
C36	C	1.711180	1.435651	0.157285
C37	C	1.218120	1.075902	-0.335873
C38	C	1.718120	1.575902	0.164127
C39	C	0.985637	0.607794	-0.358747
C40	C	1.485637	1.107794	0.141253
C41	C	0.896017	0.607817	-0.358756
C42	C	1.396017	1.107817	0.141244
C43	C	1.195177	0.607718	-0.569083
C44	C	1.695177	1.107718	-0.069083
C45	C	1.195197	0.607678	-0.658706
C46	C	1.695197	1.107678	-0.158706
C47	C	0.567842	0.607825	-0.358790
C48	C	1.067842	1.107825	0.141210
C49	C	0.659150	0.607819	-0.358778
C50	C	1.159150	1.107819	0.141222
C51	C	0.731927	0.607821	-0.358772
C52	C	1.231927	1.107821	0.141228
C53	C	0.823241	0.607814	-0.358762
C54	C	1.323241	1.107814	0.141238
C55	C	1.405439	0.607831	-0.358791
C56	C	1.905439	1.107831	0.141209
C57	C	1.495061	0.607839	-0.358801
C58	C	1.995061	1.107839	0.141199
C59	C	1.179038	0.278693	-0.374904
C60	C	1.679038	0.778693	0.125096
C61	C	1.172181	0.138442	-0.381780
C62	C	1.672181	0.638442	0.118220
C63	C	1.195228	0.607537	-0.986889
C64	C	1.695228	1.107537	-0.486889
C65	C	1.195217	0.607580	-0.895578
C66	C	1.695217	1.107580	-0.395578
C67	C	1.195213	0.607608	-0.822800
C68	C	1.695213	1.107608	-0.322800
C69	C	1.195202	0.607650	-0.731484
C70	C	1.695202	1.107650	-0.231484
C71	C	1.195124	0.607815	-0.149278
C72	C	1.695124	1.107815	0.350722
C73	C	1.195242	0.607499	-0.059673
C74	C	1.695242	1.107499	0.440327
H75	H	1.127541	1.084689	-0.426317
H76	H	1.627541	1.584689	0.073683
H77	H	1.262758	1.129662	-0.291328
H78	H	1.762758	1.629662	0.208672
