data_functionalizedCrystal
_audit_creation_method	'MofGen! by Chris Wilmer'
_symmetry_space_group_name_H-M	'P1'
_symmetry_Int_Tables_number	1
_symmetry_cell_setting	triclinic
loop_
_symmetry_equiv_pos_as_xyz
  x,y,z
_cell_length_a	15.995350
_cell_length_b	15.995350
_cell_length_c	15.072220
_cell_angle_alpha	90.008851
_cell_angle_beta	90.001101
_cell_angle_gamma	96.507625
loop_
_atom_site_label
_atom_site_type_symbol
_atom_site_fract_x
_atom_site_fract_y
_atom_site_fract_z
O1	O	0.107921	-1.110996	-0.073703
O2	O	0.121249	-0.867221	-0.073721
O3	O	-0.007303	-0.995772	-0.073710
O4	O	0.236472	-0.982444	-0.073713
O5	O	-0.007296	-0.995740	0.073855
O6	O	0.121256	-0.867189	0.073844
O7	O	0.107928	-1.110964	0.073862
Zn8	Zn	0.114593	-0.989071	0.097283
Zn9	Zn	0.114584	-0.989113	-0.097141
O10	O	0.236480	-0.982413	0.073852
C11	C	0.120701	-0.836010	0.000060
C12	C	0.119049	-0.743060	0.000053
C13	C	-0.038494	-0.995205	0.000070
C14	C	-0.131444	-0.993553	0.000065
C15	C	0.108476	-1.142175	0.000080
C16	C	0.110127	-1.235125	0.000081
C17	C	-0.469192	-0.987621	0.000068
C18	C	-0.421758	-0.896069	-0.000270
C19	C	-0.325068	-0.897721	0.000063
C20	C	-0.301631	-0.990564	0.000066
C21	C	-0.342705	-1.035702	0.084335
C22	C	-0.439341	-1.033402	0.084405
C23	C	-0.439707	-1.035330	-0.083404
C24	C	-0.342761	-1.035308	-0.084518
C25	C	-0.206934	-0.992231	0.000068
C26	C	-0.563890	-0.985956	0.000072
C27	C	0.267671	-0.982980	0.000069
C28	C	0.360621	-0.984631	0.000069
N29	N	0.114599	-0.989049	0.229971
C30	C	0.113117	-0.405312	0.000071
C31	C	0.021565	-0.452746	0.000401
C32	C	0.023217	-0.549436	0.000063
C33	C	0.116060	-0.572873	0.000063
C34	C	0.161212	-0.531804	-0.084201
C35	C	0.158912	-0.435168	-0.084266
C36	C	0.160812	-0.434793	0.083543
C37	C	0.160790	-0.531738	0.084651
C38	C	0.117727	-0.667570	0.000055
C39	C	0.111452	-0.310614	0.000073
N40	N	0.114571	-0.989142	-0.229830
C41	C	0.114580	-0.989112	0.589173
C42	C	0.183135	-0.920095	0.551560
C43	C	0.183385	-0.920254	0.448735
C44	C	0.114590	-0.989080	0.410969
C45	C	0.133671	-1.076445	0.448266
C46	C	0.134159	-1.076058	0.551124
C47	C	0.026741	-0.971542	0.551272
C48	C	0.027327	-0.969537	0.448409
C49	C	0.114593	-0.989067	0.310255
C50	C	0.114579	-0.989130	0.689886
H51	H	-0.440293	-0.859490	-0.060701
C52	C	0.249709	-0.391600	-0.089455
H53	H	0.287835	-0.432984	-0.091521
H54	H	0.261269	-0.357073	-0.038646
H55	H	0.256038	-0.357876	-0.141423
H56	H	-0.327400	-1.103014	-0.089603
C57	C	0.068022	-1.147488	0.415218
H58	H	0.080747	-1.199747	0.438558
H59	H	0.069205	-1.149488	0.352246
H60	H	0.013609	-1.137062	0.434479
H61	H	-0.328579	-1.103910	0.087471
C62	C	-0.448222	-0.846828	0.080896
H63	H	-0.419280	-0.791583	0.080178
H64	H	-0.434565	-0.874762	0.133673
H65	H	-0.507157	-0.843747	0.078899
H66	H	0.171953	-0.854945	0.576317
H67	H	0.172016	-0.855314	0.423519
C68	C	0.270705	-0.935056	0.586428
H69	H	0.311754	-0.893089	0.563381
H70	H	0.283392	-0.989003	0.568022
H71	H	0.270998	-0.932296	0.649391
H72	H	-0.457639	-1.000460	0.147395
H73	H	-0.297200	-0.861974	0.060568
H74	H	-0.314320	-1.004325	0.147042
C75	C	-0.467450	-0.994911	-0.169688
H76	H	-0.497278	-0.948556	-0.155609
H77	H	-0.502926	-1.035315	-0.202590
H78	H	-0.419253	-0.975904	-0.204087
H79	H	0.125979	-0.416873	-0.147255
H80	H	-0.315516	-1.002306	-0.146857
H81	H	0.248570	-0.931473	0.424121
C82	C	-0.025046	-0.587096	-0.081684
H83	H	-0.024205	-0.646388	-0.082168
H84	H	0.000922	-0.563616	-0.134096
H85	H	-0.081640	-0.574528	-0.079215
H86	H	0.198219	-1.091540	0.575106
C87	C	-0.027658	-0.426299	-0.080775
H88	H	-0.082901	-0.455245	-0.080064
H89	H	0.000294	-0.439965	-0.133544
H90	H	-0.030743	-0.367364	-0.078788
C91	C	0.001970	-0.887331	0.586338
H92	H	0.044974	-0.862097	0.624425
H93	H	-0.049349	-0.897112	0.618374
H94	H	-0.004973	-0.850819	0.537843
H95	H	0.229421	-0.545929	-0.087335
H96	H	0.129845	-0.560191	-0.146912
C97	C	0.069272	-1.147515	0.584739
H98	H	0.042737	-1.176657	0.535530
H99	H	0.028127	-1.124493	0.619768
H100	H	0.096931	-1.185491	0.619645
H101	H	0.012846	-0.905271	0.424032
H102	H	-0.471468	-1.102831	-0.083968
C103	C	-0.286670	-0.849776	-0.081532
H104	H	-0.330160	-0.829108	-0.115180
H105	H	-0.258380	-0.886677	-0.117185
H106	H	-0.247790	-0.803945	-0.062562
C107	C	0.219224	-1.097867	0.413463
H108	H	0.230207	-1.150855	0.436401
H109	H	0.262311	-1.055718	0.432019
H110	H	0.217926	-1.100258	0.350493
C111	C	0.252256	-0.552480	0.091530
H112	H	0.277710	-0.526843	0.143204
H113	H	0.282788	-0.531672	0.040575
H114	H	0.252697	-0.611727	0.095068
C115	C	-0.044821	-1.033038	0.413698
H116	H	-0.022569	-1.072479	0.375752
H117	H	-0.083693	-1.003985	0.381585
H118	H	-0.072703	-1.061846	0.462350
C119	C	-0.042180	-1.039525	0.584135
H120	H	-0.017589	-1.078431	0.620776
H121	H	-0.068619	-1.068308	0.534672
H122	H	-0.082841	-1.013774	0.617253
C123	C	-0.024729	-0.587828	0.081660
H124	H	-0.045399	-0.544336	0.115313
H125	H	0.012175	-0.616111	0.117308
H126	H	-0.070559	-0.626713	0.062698
C127	C	-0.027871	-0.427703	0.082032
H128	H	0.006876	-0.388090	0.116643
H129	H	-0.044703	-0.476278	0.116728
H130	H	-0.076280	-0.403269	0.063085
C131	C	0.120386	-0.407035	0.169827
H132	H	0.074035	-0.377206	0.155748
H133	H	0.160790	-0.371557	0.202726
H134	H	0.101372	-0.455225	0.204230
H135	H	0.127829	-0.559041	0.146989
C136	C	0.251999	-0.391891	0.084315
H137	H	0.260994	-0.356181	0.034045
H138	H	0.289819	-0.433561	0.082462
H139	H	0.261432	-0.359449	0.136907
H140	H	-0.471588	-1.100617	0.088231
