data_functionalizedCrystal
_audit_creation_method	'MofGen! by Chris Wilmer'
_symmetry_space_group_name_H-M	'P1'
_symmetry_Int_Tables_number	1
_symmetry_cell_setting	triclinic
loop_
_symmetry_equiv_pos_as_xyz
  x,y,z
_cell_length_a	12.827893
_cell_length_b	12.827892
_cell_length_c	19.805407
_cell_angle_alpha	90.008454
_cell_angle_beta	90.006291
_cell_angle_gamma	90.015362
loop_
_atom_site_label
_atom_site_type_symbol
_atom_site_fract_x
_atom_site_fract_y
_atom_site_fract_z
Zn1	Zn	1.597536	-0.416205	0.382689
Zn2	Zn	1.930869	-0.082872	0.716023
Zn3	Zn	2.264202	0.250461	1.049356
Zn4	Zn	1.597469	-0.590917	0.269511
Zn5	Zn	1.930803	-0.257584	0.602844
Zn6	Zn	2.264136	0.075750	0.936178
Zn7	Zn	1.422817	-0.416190	0.269520
Zn8	Zn	1.756150	-0.082857	0.602853
Zn9	Zn	2.089483	0.250476	0.936187
Zn10	Zn	1.422762	-0.590905	0.382663
Zn11	Zn	1.756096	-0.257571	0.715997
Zn12	Zn	2.089429	0.075762	1.049330
O13	O	1.510146	-0.503554	0.326096
O14	O	1.843479	-0.170221	0.659429
O15	O	2.176813	0.163112	0.992763
O16	O	1.743763	-0.439392	0.367683
O17	O	2.077096	-0.106059	0.701017
O18	O	2.410430	0.227274	1.034350
O19	O	1.574296	-0.567738	0.174795
O20	O	1.907630	-0.234405	0.508129
O21	O	2.240963	0.098929	0.841462
O22	O	1.446044	-0.269956	0.284547
O23	O	1.779377	0.063377	0.617880
O24	O	2.112711	0.396710	0.951213
O25	O	1.743714	-0.567752	0.284531
O26	O	2.077048	-0.234419	0.617865
O27	O	2.410381	0.098914	0.951198
O28	O	1.574409	-0.269967	0.367692
O29	O	1.907743	0.063366	0.701025
O30	O	2.241076	0.396699	1.034359
O31	O	1.445980	-0.439367	0.174802
O32	O	1.779313	-0.106034	0.508135
O33	O	2.112646	0.227299	0.841469
O34	O	1.276573	-0.439355	0.284521
O35	O	1.609907	-0.106022	0.617855
O36	O	1.943240	0.227311	0.951188
O37	O	1.445951	-0.567732	0.477383
O38	O	1.779285	-0.234398	0.810717
O39	O	2.112618	0.098935	1.144050
O40	O	1.276534	-0.567717	0.367647
O41	O	1.609867	-0.234384	0.700981
O42	O	1.943200	0.098949	1.034314
O43	O	1.574357	-0.439381	0.477403
O44	O	1.907690	-0.106047	0.810736
O45	O	2.241023	0.227286	1.144069
O46	O	1.574244	-0.737151	0.284506
O47	O	1.907577	-0.403818	0.617839
O48	O	2.240910	-0.070485	0.951173
O49	O	1.445887	-0.737142	0.367639
O50	O	1.779220	-0.403809	0.700972
O51	O	2.112554	-0.070476	1.034305
C52	C	1.238636	-0.503534	0.326083
C53	C	1.571969	-0.170201	0.659416
C54	C	1.905303	0.163132	0.992750
C55	C	1.122483	-0.503551	0.326094
C56	C	1.455816	-0.170217	0.659427
C57	C	1.789150	0.163116	0.992760
C58	C	1.070706	-0.567167	0.367163
C59	C	1.404039	-0.233834	0.700497
C60	C	1.737373	0.099499	1.033830
C61	C	0.950656	-0.567186	0.367175
C62	C	1.283989	-0.233853	0.700509
C63	C	1.617322	0.099481	1.033842
C64	C	1.510081	-0.775064	0.326083
C65	C	1.843414	-0.441731	0.659417
C66	C	2.176747	-0.108398	0.992750
C67	C	1.510148	-0.891217	0.326101
C68	C	1.843482	-0.557884	0.659434
C69	C	2.176815	-0.224551	0.992767
C70	C	1.573639	-0.942924	0.367280
C71	C	1.906973	-0.609591	0.700614
C72	C	2.240306	-0.276257	1.033947
C73	C	1.573711	-1.062974	0.367299
C74	C	1.907044	-0.729641	0.700633
C75	C	2.240377	-0.396308	1.033966
C76	C	1.782716	-0.503575	0.326109
C77	C	2.116049	-0.170242	0.659443
C78	C	2.449383	0.163091	0.992776
C79	C	1.898869	-0.503584	0.326115
C80	C	2.232203	-0.170251	0.659448
C81	C	2.565536	0.163082	0.992782
C82	C	1.510155	-0.503556	0.502639
C83	C	1.843489	-0.170223	0.835972
C84	C	2.176822	0.163110	1.169305
C85	C	1.510159	-0.503557	0.577871
C86	C	1.843493	-0.170224	0.911204
C87	C	2.176826	0.163109	1.244537
C88	C	1.510240	-0.230984	0.326123
C89	C	1.843573	0.102349	0.659457
C90	C	2.176907	0.435682	0.992790
C91	C	1.510280	-0.114831	0.326135
C92	C	1.843614	0.218502	0.659468
C93	C	2.176947	0.551836	0.992802
C94	C	1.577012	-0.436735	0.613226
C95	C	1.910345	-0.103402	0.946559
C96	C	2.243678	0.229931	1.279892
C97	C	1.577003	-0.436732	0.683914
C98	C	1.910336	-0.103399	1.017248
C99	C	2.243669	0.229935	1.350581
C100	C	1.510146	-0.503557	0.719246
C101	C	1.843479	-0.170224	1.052579
C102	C	2.176813	0.163110	1.385913
C103	C	1.443286	-0.570382	0.683886
C104	C	1.776620	-0.237049	1.017219
C105	C	2.109953	0.096285	1.350553
C106	C	1.443291	-0.570379	0.613199
C107	C	1.776624	-0.237046	0.946532
C108	C	2.109957	0.096287	1.279865
C109	C	1.443266	-0.570394	0.968959
C110	C	1.776599	-0.237061	1.302293
C111	C	2.109932	0.096272	1.635626
C112	C	1.443269	-0.570394	1.039651
C113	C	1.776602	-0.237061	1.372985
C114	C	2.109935	0.096272	1.706318
C115	C	1.576977	-0.436747	1.039675
C116	C	1.910311	-0.103414	1.373008
C117	C	2.243644	0.229920	1.706341
C118	C	1.576982	-0.436744	0.968987
C119	C	1.910315	-0.103411	1.302321
C120	C	2.243649	0.229922	1.635654
C121	C	1.510119	-0.503565	0.933633
C122	C	1.843452	-0.170232	1.266967
C123	C	2.176786	0.163102	1.600300
C124	C	1.510128	-0.503566	0.856985
C125	C	1.843461	-0.170233	1.190318
C126	C	2.176795	0.163101	1.523652
C127	C	1.510141	-0.503562	0.795893
C128	C	1.843475	-0.170229	1.129227
C129	C	2.176808	0.163105	1.462560
C130	C	1.510127	-0.503574	1.150240
C131	C	1.843460	-0.170240	1.483573
C132	C	2.176793	0.163093	1.816907
C133	C	1.510116	-0.503566	1.075008
C134	C	1.843450	-0.170233	1.408341
C135	C	2.176783	0.163101	1.741675
H136	H	1.627940	-0.898318	0.402525
H137	H	1.961274	-0.564985	0.735859
H138	H	2.294607	-0.231651	1.069192
H139	H	1.455839	-0.935826	0.290862
H140	H	1.789173	-0.602493	0.624196
H141	H	2.122506	-0.269159	0.957529
H142	H	1.628071	-1.107441	0.402552
H143	H	1.961405	-0.774108	0.735886
H144	H	2.294738	-0.440775	1.069219
H145	H	1.077934	-0.449096	0.290944
H146	H	1.411268	-0.115762	0.624277
H147	H	1.744601	0.217571	0.957610
H148	H	1.455924	-1.070372	0.290875
H149	H	1.789257	-0.737039	0.624208
H150	H	2.122591	-0.403705	0.957541
H151	H	1.631457	-0.382322	0.584464
H152	H	1.964791	-0.048988	0.917797
H153	H	2.298124	0.284345	1.251130
H154	H	1.631443	-0.382321	0.712697
H155	H	1.964776	-0.048988	1.046031
H156	H	2.298110	0.284345	1.379364
H157	H	1.631427	-0.382332	0.940224
H158	H	1.964760	-0.048999	1.273557
H159	H	2.298094	0.284335	1.606890
H160	H	1.631417	-0.382335	1.068468
H161	H	1.964750	-0.049001	1.401802
H162	H	2.298084	0.284332	1.735135
H163	H	1.388847	-0.624788	0.712659
H164	H	1.722180	-0.291455	1.045992
H165	H	2.055513	0.041878	1.379326
H166	H	1.388821	-0.624813	1.068417
H167	H	1.722155	-0.291480	1.401750
H168	H	2.055488	0.041853	1.735083
H169	H	1.388842	-0.624782	0.584413
H170	H	1.722176	-0.291449	0.917747
H171	H	2.055509	0.041885	1.251080
H172	H	1.115255	-0.621615	0.402319
H173	H	1.448588	-0.288281	0.735652
H174	H	1.781921	0.045052	1.068985
H175	H	0.906129	-0.621654	0.402335
H176	H	1.239462	-0.288320	0.735668
H177	H	1.572796	0.045013	1.069002
H178	H	0.943389	-0.449121	0.290949
H179	H	1.276723	-0.115787	0.624282
H180	H	1.610056	0.217546	0.957616
H181	H	1.388837	-0.624819	0.940183
H182	H	1.722170	-0.291486	1.273516
H183	H	2.055504	0.041847	1.606849
