data_functionalizedCrystal
_audit_creation_method	'MofGen! by Chris Wilmer'
_symmetry_space_group_name_H-M	'P1'
_symmetry_Int_Tables_number	1
_symmetry_cell_setting	triclinic
loop_
_symmetry_equiv_pos_as_xyz
  x,y,z
_cell_length_a	14.908520
_cell_length_b	12.759401
_cell_length_c	12.759393
_cell_angle_alpha	90.019596
_cell_angle_beta	86.736394
_cell_angle_gamma	93.320814
loop_
_atom_site_label
_atom_site_type_symbol
_atom_site_fract_x
_atom_site_fract_y
_atom_site_fract_z
Zn1	Zn	-0.359107	1.582078	0.618084
Zn2	Zn	-0.025774	1.915412	0.951418
Zn3	Zn	0.307559	2.248745	1.284751
Zn4	Zn	-0.509991	1.571806	0.452531
Zn5	Zn	-0.176658	1.905140	0.785864
Zn6	Zn	0.156676	2.238473	1.119198
Zn7	Zn	-0.359152	1.406374	0.442426
Zn8	Zn	-0.025819	1.739707	0.775760
Zn9	Zn	0.307515	2.073041	1.109093
Zn10	Zn	-0.509925	1.396210	0.628168
Zn11	Zn	-0.176592	1.729544	0.961501
Zn12	Zn	0.156742	2.062877	1.294835
O13	O	-0.434544	1.489117	0.535302
O14	O	-0.101211	1.822451	0.868636
O15	O	0.232123	2.155784	1.201969
O16	O	-0.379131	1.727736	0.596132
O17	O	-0.045798	2.061069	0.929465
O18	O	0.287535	2.394403	1.262799
O19	O	-0.490029	1.549816	0.304173
O20	O	-0.156695	1.883149	0.637506
O21	O	0.176638	2.216483	0.970839
O22	O	-0.232902	1.438234	0.457279
O23	O	0.100431	1.771567	0.790612
O24	O	0.433765	2.104900	1.123946
O25	O	-0.489985	1.720189	0.474501
O26	O	-0.156652	2.053523	0.807834
O27	O	0.176682	2.386856	1.141167
O28	O	-0.232869	1.567323	0.586334
O29	O	0.100464	1.900656	0.919667
O30	O	0.433798	2.233990	1.253001
O31	O	-0.379208	1.428274	0.296749
O32	O	-0.045874	1.761607	0.630082
O33	O	0.287459	2.094940	0.963416
O34	O	-0.379143	1.258005	0.467057
O35	O	-0.045810	1.591339	0.800390
O36	O	0.287523	1.924672	1.133723
O37	O	-0.489872	1.420911	0.773848
O38	O	-0.156539	1.754245	1.107182
O39	O	0.176795	2.087578	1.440515
O40	O	-0.489915	1.250538	0.603520
O41	O	-0.156582	1.583872	0.936853
O42	O	0.176751	1.917205	1.270187
O43	O	-0.379067	1.557468	0.766440
O44	O	-0.045734	1.890801	1.099773
O45	O	0.287599	2.224134	1.433107
O46	O	-0.636227	1.539961	0.484278
O47	O	-0.302893	1.873294	0.817612
O48	O	0.030440	2.206628	1.150945
O49	O	-0.636178	1.410951	0.613318
O50	O	-0.302845	1.744285	0.946651
O51	O	0.030489	2.077618	1.279985
C52	C	-0.434528	1.216151	0.535287
C53	C	-0.101194	1.549484	0.868620
C54	C	0.232139	1.882818	1.201954
C55	C	-0.434543	1.099373	0.535307
C56	C	-0.101209	1.432707	0.868640
C57	C	0.232124	1.766040	1.201973
C58	C	-0.492323	0.930913	0.606271
C59	C	-0.158990	1.264246	0.939605
C60	C	0.174344	1.597579	1.272938
C61	C	-0.492313	1.040638	0.606260
C62	C	-0.158980	1.373971	0.939593
C63	C	0.174354	1.707304	1.272926
C64	C	-0.376785	1.048379	0.464353
C65	C	-0.043452	1.381712	0.797687
C66	C	0.289882	1.715045	1.131020
C67	C	-0.376800	0.938655	0.464361
C68	C	-0.043467	1.271989	0.797694
C69	C	0.289866	1.605322	1.131027
C70	C	-0.668936	1.473267	0.551012
C71	C	-0.335603	1.806600	0.884345
C72	C	-0.002269	2.139934	1.217679
C73	C	-0.769210	1.466582	0.557768
C74	C	-0.435877	1.799916	0.891101
C75	C	-0.102543	2.133249	1.224434
C76	C	-0.957625	1.588497	0.436202
C77	C	-0.624292	1.921831	0.769535
C78	C	-0.290958	2.255164	1.102868
C79	C	-1.051841	1.582220	0.442546
C80	C	-0.718508	1.915553	0.775879
C81	C	-0.385175	2.248887	1.109212
C82	C	-1.051861	1.447757	0.576805
C83	C	-0.718527	1.781090	0.910138
C84	C	-0.385194	2.114423	1.243471
C85	C	-0.957644	1.454034	0.570461
C86	C	-0.624311	1.787367	0.903794
C87	C	-0.290978	2.120701	1.237127
C88	C	-0.910530	1.524405	0.500155
C89	C	-0.577196	1.857739	0.833489
C90	C	-0.243863	2.191072	1.166822
C91	C	-0.816312	1.530677	0.493807
C92	C	-0.482978	1.864010	0.827140
C93	C	-0.149645	2.197343	1.160473
C94	C	-0.816333	1.396219	0.628070
C95	C	-0.482999	1.729553	0.961404
C96	C	-0.149666	2.062886	1.294737
C97	C	-0.910549	1.389942	0.634414
C98	C	-0.577216	1.723275	0.967748
C99	C	-0.243882	2.056609	1.301081
C100	C	-0.199236	1.505058	0.519555
C101	C	0.134097	1.838391	0.852888
C102	C	0.467430	2.171725	1.186221
C103	C	-0.098962	1.511851	0.512844
C104	C	0.234371	1.845184	0.846177
C105	C	0.567704	2.178518	1.179511
C106	C	-0.434457	1.489202	0.809330
C107	C	-0.101124	1.822535	1.142663
C108	C	0.232209	2.155868	1.475997
C109	C	-0.434420	1.489238	0.926104
C110	C	-0.101087	1.822571	1.259438
C111	C	0.232246	2.155904	1.592771
C112	C	-0.434561	1.763149	0.535319
C113	C	-0.101227	2.096483	0.868652
C114	C	0.232106	2.429816	1.201985
C115	C	-0.434568	1.879926	0.535326
C116	C	-0.101235	2.213259	0.868659
C117	C	0.232099	2.546592	1.201992
C118	C	-0.434565	1.489098	0.262336
C119	C	-0.101232	1.822431	0.595670
C120	C	0.232102	2.155765	0.929003
C121	C	-0.434348	1.489283	0.145546
C122	C	-0.101014	1.822616	0.478879
C123	C	0.232319	2.155949	0.812212
C124	C	-0.376715	1.560348	0.977110
C125	C	-0.043382	1.893682	1.310443
C126	C	0.289952	2.227015	1.643776
C127	C	-0.376676	1.560369	1.086831
C128	C	-0.043343	1.893702	1.420165
C129	C	0.289991	2.227035	1.753498
C130	C	-0.492056	1.418165	1.094533
C131	C	-0.158722	1.751498	1.427866
C132	C	0.174611	2.084831	1.761199
C133	C	-0.492089	1.418140	0.984813
C134	C	-0.158756	1.751473	1.318146
C135	C	0.174577	2.084807	1.651480
H136	H	-0.539362	0.883098	0.664055
H137	H	-0.206028	1.216431	0.997389
H138	H	0.127305	1.549764	1.330722
H139	H	-0.329755	1.618238	0.929312
H140	H	0.003579	1.951571	1.262645
H141	H	0.336912	2.284904	1.595979
H142	H	-0.539079	1.360226	0.943283
H143	H	-0.205746	1.693559	1.276617
H144	H	0.127587	2.026893	1.609950
H145	H	-0.539344	1.082146	0.664030
H146	H	-0.206011	1.415479	0.997363
H147	H	0.127323	1.748813	1.330697
H148	H	-0.948923	1.332651	0.691657
H149	H	-0.615589	1.665984	1.024991
H150	H	-0.282256	1.999317	1.358324
H151	H	-0.329751	1.096210	0.406578
H152	H	0.003582	1.429543	0.739911
H153	H	0.336915	1.762876	1.073244
H154	H	-0.329768	0.897141	0.406583
H155	H	0.003566	1.230474	0.739916
H156	H	0.336899	1.563808	1.073250
Cl157	Cl	-1.111105	1.359311	0.665194
Cl158	Cl	-0.777772	1.692645	0.998527
Cl159	Cl	-0.444439	2.025978	1.331861
Cl160	Cl	-0.564555	1.328795	1.168345
Cl161	Cl	-0.231221	1.662128	1.501679
Cl162	Cl	0.102112	1.995462	1.835012
H163	H	-0.777952	1.587974	0.436558
H164	H	-0.444619	1.921307	0.769891
H165	H	-0.111285	2.254641	1.103225
H166	H	-0.919264	1.645789	0.378949
H167	H	-0.585930	1.979123	0.712282
H168	H	-0.252597	2.312456	1.045616
H169	H	-0.329685	1.618272	1.128355
H170	H	0.003648	1.951606	1.461688
H171	H	0.336981	2.284939	1.795021
Cl172	Cl	-0.757122	1.315628	0.708460
Cl173	Cl	-0.423789	1.648961	1.041794
Cl174	Cl	-0.090455	1.982295	1.375127
Cl175	Cl	-1.111044	1.662798	0.362145
Cl176	Cl	-0.777711	1.996132	0.695479
Cl177	Cl	-0.444377	2.329465	1.028812
