data_functionalizedCrystal
_audit_creation_method	'MofGen! by Chris Wilmer'
_symmetry_space_group_name_H-M	'P1'
_symmetry_Int_Tables_number	1
_symmetry_cell_setting	triclinic
loop_
_symmetry_equiv_pos_as_xyz
  x,y,z
_cell_length_a	18.627243
_cell_length_b	18.627245
_cell_length_c	18.627297
_cell_angle_alpha	90.002039
_cell_angle_beta	59.997824
_cell_angle_gamma	119.999685
loop_
_atom_site_label
_atom_site_type_symbol
_atom_site_fract_x
_atom_site_fract_y
_atom_site_fract_z
O1	O	0.633240	-0.492484	-0.021356
O2	O	0.486232	-0.388088	0.021256
O3	O	0.633235	-0.388087	-0.125751
O4	O	0.486237	-0.492485	0.125650
O5	O	0.513833	-0.507489	-0.125750
O6	O	0.366830	-0.507489	0.021256
O7	O	0.513838	-0.611886	-0.021356
Zn8	Zn	0.421376	-0.578645	-0.000050
Zn9	Zn	0.578694	-0.421328	-0.000051
O10	O	0.366835	-0.611886	0.125650
C11	C	0.356044	-0.256979	0.030935
C12	C	0.406443	-0.162282	0.024836
C13	C	0.269040	-0.300580	0.031539
C14	C	0.356039	-0.386983	0.030943
C15	C	0.406432	-0.431286	0.024852
C16	C	0.269035	-0.430386	0.031548
C17	C	0.226044	-0.386979	0.030935
C18	C	0.137446	-0.431279	0.024835
C19	C	0.398838	-0.300583	0.031548
O20	O	-0.104350	-0.611881	-0.021369
O21	O	0.104442	-0.507482	0.021239
O22	O	0.104453	-0.507489	-0.125766
O23	O	-0.104360	-0.611875	0.125635
O24	O	0.104457	-0.388084	-0.125773
O25	O	0.104446	-0.388078	0.021231
O26	O	-0.104345	-0.492477	-0.021377
Zn27	Zn	0.000051	-0.421319	-0.000074
Zn28	Zn	0.000046	-0.578640	-0.000064
O29	O	-0.104356	-0.492470	0.125628
C30	C	0.644032	-0.386986	-0.387050
C31	C	0.593636	-0.431285	-0.431350
C32	C	0.731038	-0.300587	-0.430453
C33	C	0.644032	-0.386986	-0.257049
C34	C	0.593635	-0.431287	-0.162352
C35	C	0.731037	-0.300588	-0.300650
C36	C	0.774032	-0.256986	-0.387049
C37	C	0.862632	-0.162290	-0.431348
C38	C	0.601235	-0.430390	-0.300651
C39	C	0.774046	-0.612982	-0.031065
C40	C	0.862649	-0.568681	-0.024971
C41	C	0.731054	-0.699380	-0.031674
C42	C	0.644041	-0.612985	-0.031058
C43	C	0.593641	-0.568686	-0.024957
C44	C	0.601246	-0.699383	-0.031667
C45	C	0.644046	-0.742983	-0.031064
C46	C	0.593651	-0.837679	-0.024969
C47	C	0.731049	-0.569580	-0.031668
O48	O	0.513853	0.125721	-0.021375
O49	O	0.366846	-0.125678	0.021232
O50	O	0.513856	0.021315	-0.125772
O51	O	0.366843	-0.021272	0.125629
O52	O	0.633253	0.021311	-0.125765
O53	O	0.486243	-0.125682	0.021240
O54	O	0.633250	0.125717	-0.021368
Zn55	Zn	0.578703	0.000017	-0.000063
Zn56	Zn	0.421393	0.000022	-0.000073
O57	O	0.486240	-0.021275	0.125637
O58	O	1.104430	0.125707	-0.492538
O59	O	0.895633	-0.125690	-0.388147
O60	O	0.895628	0.021307	-0.388137
O61	O	1.104435	-0.021290	-0.492548
O62	O	0.895631	0.021311	-0.507540
O63	O	0.895636	-0.125686	-0.507550
O64	O	1.104433	0.125711	-0.611941
Zn65	Zn	1.000035	0.000013	-0.578704
Zn66	Zn	1.000031	0.000008	-0.421384
O67	O	1.104438	-0.021286	-0.611951
O68	O	0.486231	-0.492490	-0.611948
O69	O	0.633235	-0.388087	-0.507553
O70	O	0.486230	-0.388090	-0.507544
O71	O	0.633237	-0.492487	-0.611956
O72	O	0.366830	-0.507490	-0.388142
O73	O	0.513836	-0.507487	-0.388151
O74	O	0.366832	-0.611890	-0.492545
Zn75	Zn	0.421376	-0.578646	-0.421390
Zn76	Zn	0.578691	-0.421331	-0.578708
O77	O	0.513837	-0.611887	-0.492554
C78	C	0.226037	-0.742989	0.386948
C79	C	0.137437	-0.837686	0.431246
C80	C	0.269030	-0.699389	0.430353
C81	C	0.356038	-0.612988	0.256949
C82	C	0.406435	-0.568687	0.162252
C83	C	0.398834	-0.569585	0.300552
C84	C	0.356036	-0.612990	0.386950
C85	C	0.406432	-0.568691	0.431252
C86	C	0.269032	-0.699387	0.300549
C87	C	0.356073	-0.256995	-0.387073
C88	C	0.406473	-0.162299	-0.431376
C89	C	0.398871	-0.300599	-0.430474
C90	C	0.226065	-0.386990	-0.257069
C91	C	0.137460	-0.431286	-0.162372
C92	C	0.269060	-0.430398	-0.300668
C93	C	0.356070	-0.386997	-0.387067
C94	C	0.406468	-0.431300	-0.431364
C95	C	0.269063	-0.300593	-0.300674
C96	C	-0.355975	-0.612964	0.386929
C97	C	-0.406373	-0.568662	0.431227
C98	C	-0.398774	-0.699362	0.430336
C99	C	-0.225968	-0.612970	0.256931
C100	C	-0.137363	-0.568673	0.162234
C101	C	-0.268966	-0.699367	0.300535
C102	C	-0.355976	-0.742966	0.386934
C103	C	-0.406376	-0.837662	0.431237
C104	C	-0.268964	-0.569563	0.300530
C105	C	0.774043	0.030962	-0.387056
C106	C	0.862639	0.024856	-0.431349
C107	C	0.731051	0.031564	-0.430463
C108	C	0.644049	0.030986	-0.257064
C109	C	0.593654	0.024905	-0.162369
C110	C	0.601253	0.031588	-0.300669
C111	C	0.644048	0.030966	-0.387064
C112	C	0.593653	0.024863	-0.431366
C113	C	0.731051	0.031584	-0.300660
O114	O	0.633303	0.125701	-0.611972
O115	O	0.486281	-0.125700	-0.507577
O116	O	0.633272	0.021288	-0.507558
O117	O	0.486311	-0.021287	-0.611991
O118	O	0.513861	0.021292	-0.388162
O119	O	0.366869	-0.125696	-0.388181
O120	O	0.513891	0.125706	-0.492576
Zn121	Zn	0.421421	0.000006	-0.421421
Zn122	Zn	0.578751	0.000000	-0.578731
O123	O	0.366900	-0.021282	-0.492594
C124	C	0.356047	-0.030927	0.386929
C125	C	0.406443	-0.024826	0.431231
C126	C	0.269046	-0.031525	0.430327
C127	C	0.356047	-0.030947	0.256928
C128	C	0.406442	-0.024866	0.162234
C129	C	0.269045	-0.031545	0.300525
C130	C	0.226053	-0.030923	0.386920
C131	C	0.137458	-0.024816	0.431213
C132	C	0.398842	-0.031549	0.300533
H133	H	0.468845	-0.265576	0.032531
O134	O	0.773960	-0.484855	-0.032948
C135	C	0.803078	-0.431410	-0.109095
H136	H	0.756291	-0.473540	-0.133659
H137	H	0.887092	-0.398920	-0.162333
C138	C	0.842058	-0.308266	-0.057007
C139	C	0.784588	-0.360009	-0.087172
H140	H	0.830658	-0.264219	-0.043487
H141	H	0.822445	-0.344271	-0.005707
H142	H	0.912066	-0.281199	-0.101377
H143	H	0.714582	-0.387083	-0.042799
H144	H	0.804189	-0.324007	-0.138465
H145	H	0.233069	-0.032523	0.265512
H146	H	0.233084	-0.265580	-0.265673
O147	O	0.773948	0.032864	-0.258833
C148	C	0.803067	0.109015	-0.234510
H149	H	0.756297	0.133591	-0.229875
H150	H	0.887087	0.162241	-0.286025
C151	C	0.841999	0.056917	-0.150307
C152	C	0.784549	0.087097	-0.144606
H153	H	0.830581	0.043400	-0.094852
H154	H	0.822384	0.005614	-0.166696
H155	H	0.912011	0.101278	-0.193239
H156	H	0.714538	0.042733	-0.101682
H157	H	0.804151	0.138393	-0.128208
H158	H	0.233032	-0.734393	0.501347
H159	H	-0.232978	-0.734371	0.265528
H160	H	-0.468788	-0.734361	0.501326
O161	O	0.517815	0.032880	-0.259052
C162	C	0.540535	0.109026	-0.306102
H163	H	0.607235	0.133577	-0.377448
H164	H	0.561279	0.162269	-0.275331
C165	C	0.365308	0.056961	-0.215058
C166	C	0.447225	0.087111	-0.302689
H167	H	0.307749	0.043445	-0.212950
H168	H	0.350001	0.005661	-0.183357
H169	H	0.382608	0.101335	-0.189425
H170	H	0.429928	0.042733	-0.328317
H171	H	0.462526	0.138403	-0.334394
O172	O	0.517837	-0.741061	-0.033000
C173	C	0.540529	-0.693993	-0.109120
H174	H	0.626019	-0.652381	-0.161350
H175	H	0.513624	-0.649378	-0.092202
C176	C	0.381178	-0.810169	-0.080419
C177	C	0.486178	-0.759066	-0.144572
H178	H	0.347649	-0.850307	-0.102286
H179	H	0.365888	-0.841878	-0.029133
H180	H	0.358771	-0.772980	-0.066326
H181	H	0.508585	-0.796254	-0.158655
H182	H	0.501471	-0.727364	-0.195861
H183	H	0.233055	-0.501375	0.032526
O184	O	0.774141	0.032838	-0.515188
C185	C	0.874625	0.108974	-0.568636
H186	H	0.903850	0.133528	-0.526508
H187	H	0.876354	0.162220	-0.601127
C188	C	0.906682	0.056883	-0.691780
C189	C	0.942579	0.087038	-0.640038
H190	H	0.948599	0.043355	-0.735827
H191	H	0.838982	0.005591	-0.655772
H192	H	0.908124	0.101261	-0.718848
H193	H	0.941125	0.042657	-0.612963
H194	H	1.010280	0.138322	-0.676043
O195	O	0.482475	-0.484955	0.258762
C196	C	0.562596	-0.480161	0.254423
H197	H	0.548957	-0.547404	0.260105
H198	H	0.566238	-0.459179	0.310672
C199	C	0.680370	-0.329841	0.159048
C200	C	0.663623	-0.412430	0.166018
H201	H	0.742689	-0.288059	0.104517
H202	H	0.626391	-0.333069	0.161973
H203	H	0.683399	-0.312369	0.205927
H204	H	0.660581	-0.429906	0.119146
H205	H	0.717603	-0.409203	0.163083
H206	H	0.531206	-0.501370	-0.265641
H207	H	0.233063	-0.032497	0.501316
O208	O	0.226253	-0.741177	0.258697
C209	C	0.297245	-0.745512	0.182911
H210	H	0.356535	-0.739826	0.190865
H211	H	0.336153	-0.689265	0.123022
C212	C	0.169322	-0.840891	0.160515
C213	C	0.242138	-0.833915	0.170287
H214	H	0.135330	-0.895420	0.152724
H215	H	0.121494	-0.837969	0.211571
H216	H	0.201756	-0.794014	0.110608
H217	H	0.209702	-0.880786	0.220200
H218	H	0.289960	-0.836848	0.119239
O219	O	0.774116	-0.258783	-0.259006
C220	C	0.874595	-0.234451	-0.306022
H221	H	0.903838	-0.229780	-0.377379
H222	H	0.876302	-0.285977	-0.275244
C223	C	0.906625	-0.150313	-0.214922
C224	C	0.942546	-0.144569	-0.302566
H225	H	0.948541	-0.094872	-0.212787
H226	H	0.838930	-0.166709	-0.183244
H227	H	0.908050	-0.193255	-0.189284
H228	H	0.941109	-0.101635	-0.328199
H229	H	1.010243	-0.128164	-0.334248
H230	H	0.233062	-0.501390	-0.265660
O231	O	-0.225957	-0.484824	0.258852
C232	C	-0.196908	-0.431390	0.305919
H233	H	-0.186286	-0.464641	0.347530
H234	H	-0.258447	-0.421407	0.350536
C235	C	-0.109445	-0.300749	0.189741
C236	C	-0.096390	-0.341586	0.240844
H237	H	-0.047443	-0.245352	0.149601
H238	H	-0.129018	-0.336748	0.158032
H239	H	-0.160730	-0.292438	0.226932
H240	H	-0.045115	-0.349906	0.203654
H241	H	-0.076805	-0.305586	0.272545
H242	H	0.468865	-0.032513	0.265528
H243	H	0.767042	-0.734382	-0.032654
H244	H	0.468895	-0.265589	-0.501459
O245	O	0.225917	-0.258958	0.032883
C246	C	0.125425	-0.306074	0.109021
H247	H	0.117142	-0.347626	0.161239
H248	H	0.070826	-0.350751	0.092124
C249	C	0.110768	-0.190021	0.080340
C250	C	0.100597	-0.241051	0.144478
H251	H	0.095450	-0.149914	0.102211
H252	H	0.178470	-0.158280	0.029043
H253	H	0.065268	-0.227262	0.066266
H254	H	0.146105	-0.203811	0.158544
H255	H	0.032902	-0.272785	0.195779
O256	O	0.773845	-0.258799	-0.515094
C257	C	0.702899	-0.254425	-0.519930
H258	H	0.643607	-0.260085	-0.452701
H259	H	0.663986	-0.310669	-0.540914
C260	C	0.830884	-0.159072	-0.670257
C261	C	0.758065	-0.166017	-0.587686
H262	H	0.864913	-0.104541	-0.712054
H263	H	0.878682	-0.162021	-0.667001
H264	H	0.798446	-0.205947	-0.687731
H265	H	0.790506	-0.119150	-0.570208
H266	H	0.710274	-0.163058	-0.590941
