data_functionalizedCrystal
_audit_creation_method	'MofGen! by Chris Wilmer'
_symmetry_space_group_name_H-M	'P1'
_symmetry_Int_Tables_number	1
_symmetry_cell_setting	triclinic
loop_
_symmetry_equiv_pos_as_xyz
  x,y,z
_cell_length_a	6.817900
_cell_length_b	13.212833
_cell_length_c	12.908943
_cell_angle_alpha	89.852088
_cell_angle_beta	100.860631
_cell_angle_gamma	106.298119
loop_
_atom_site_label
_atom_site_type_symbol
_atom_site_fract_x
_atom_site_fract_y
_atom_site_fract_z
V1	V	-4.004569	-0.143204	-0.315030
O2	O	-3.983830	0.008223	-0.323209
O3	O	-3.964581	-0.285240	-0.299242
O4	O	-3.942683	-0.140413	-0.458646
O5	O	-4.005879	-0.137607	-0.162702
V6	V	-4.488854	-0.125161	-0.298467
O7	O	-4.264155	-0.182783	-0.351364
O8	O	-4.679466	-0.085583	-0.262133
O9	O	-4.305636	0.016875	-0.314255
O10	O	-4.626990	-0.276589	-0.290288
O11	O	-4.604941	-0.130759	-0.450795
O12	O	-4.327534	-0.127953	-0.154851
C13	C	-3.812064	-0.319884	-0.290754
C14	C	-3.860566	-0.435996	-0.278803
C15	C	-3.896817	-0.585126	-0.166818
C16	C	-3.851237	-0.476026	-0.178037
C17	C	-3.915475	-0.505075	-0.368355
C18	C	-3.961055	-0.614174	-0.357135
C19	C	-3.951726	-0.654195	-0.256364
C20	C	-3.997322	-0.763298	-0.245145
C21	C	-4.061545	-0.792343	-0.435461
C22	C	-4.015965	-0.683244	-0.446681
C23	C	-3.784131	-0.135141	-0.494089
C24	C	-3.814871	-0.133798	-0.611405
C25	C	-4.236501	-0.141641	-0.841604
C26	C	-4.265394	-0.140380	-0.951835
C27	C	-3.901549	-0.130008	-0.942097
C28	C	-3.872656	-0.131269	-0.831867
C29	C	-4.040141	-0.137087	-0.781625
C30	C	-4.011249	-0.138355	-0.671393
C31	C	-3.647403	-0.127976	-0.661658
C32	C	-3.676296	-0.126716	-0.771888
C33	C	-4.121495	0.051513	-0.322739
C34	C	-4.052231	0.167624	-0.334698
C35	C	-4.149429	-0.133228	-0.119402
C36	C	-4.097927	-0.134565	-0.002085
H37	H	-4.023545	-0.650643	-0.528726
H38	H	-3.923040	-0.472469	-0.450398
O39	O	-4.114840	-0.859584	-0.522341
C40	C	-4.213694	-1.040536	-0.589410
C41	C	-4.153304	-0.964504	-0.490934
H42	H	-4.244851	-1.125381	-0.564054
H43	H	-4.080907	-1.022268	-0.634901
H44	H	-4.360188	-1.030241	-0.642192
H45	H	-4.006862	-0.974756	-0.438073
H46	H	-4.286212	-0.982792	-0.445525
H47	H	-4.147627	-0.143097	-0.630488
O48	O	-3.456811	-0.123765	-0.603326
C49	C	-3.255320	-0.210220	-0.479050
C50	C	-3.471277	-0.215061	-0.545010
H51	H	-3.266934	-0.284033	-0.431902
H52	H	-3.198411	-0.137242	-0.422526
H53	H	-3.140694	-0.205827	-0.533960
H54	H	-3.586054	-0.219493	-0.490181
H55	H	-3.528012	-0.288027	-0.601545
H56	H	-4.372879	-0.146389	-0.800697
H57	H	-4.425286	-0.144088	-1.000666
H58	H	-3.989728	-0.795881	-0.163092
H59	H	-3.765198	-0.125265	-0.983023
H60	H	-3.539941	-0.121975	-0.812810
O61	O	-3.798150	-0.408833	-0.091140
C62	C	-3.882400	-0.273878	0.002152
C63	C	-3.942732	-0.349905	-0.096325
H64	H	-3.999288	-0.226231	-0.001996
H65	H	-3.719839	-0.217937	0.005316
H66	H	-3.883481	-0.321246	0.076087
H67	H	-3.941774	-0.302624	-0.170313
H68	H	-4.105257	-0.405848	-0.099395
H69	H	-3.889235	-0.617712	-0.084766
