data_functionalizedCrystal
_audit_creation_method	'MofGen! by Chris Wilmer'
_symmetry_space_group_name_H-M	'P1'
_symmetry_Int_Tables_number	1
_symmetry_cell_setting	triclinic
loop_
_symmetry_equiv_pos_as_xyz
  x,y,z
_cell_length_a	16.120490
_cell_length_b	16.120444
_cell_length_c	13.897441
_cell_angle_alpha	87.133622
_cell_angle_beta	92.917671
_cell_angle_gamma	90.165174
loop_
_atom_site_label
_atom_site_type_symbol
_atom_site_fract_x
_atom_site_fract_y
_atom_site_fract_z
Zn1	Zn	1.254490	-0.395644	0.642071
Zn2	Zn	1.247325	-0.534712	0.488503
Zn3	Zn	1.115424	-0.388612	0.472229
Zn4	Zn	1.108340	-0.527590	0.641194
O5	O	1.181395	-0.461640	0.560999
O6	O	1.369905	-0.420015	0.628878
O7	O	1.229795	-0.515369	0.351362
O8	O	1.139834	-0.273182	0.488316
O9	O	1.364642	-0.522188	0.516051
O10	O	1.242006	-0.278349	0.613098
O11	O	1.132887	-0.408031	0.339406
O12	O	0.998118	-0.401124	0.487465
O13	O	1.127760	-0.510049	0.776292
O14	O	0.992913	-0.503231	0.611603
O15	O	1.235136	-0.413109	0.776936
O16	O	1.222925	-0.650130	0.515201
O17	O	1.120813	-0.644897	0.627383
C18	C	0.965343	-0.450642	0.547674
C19	C	0.872915	-0.445958	0.541997
C20	C	0.659946	-0.485933	0.590447
C21	C	0.703691	-0.437412	0.531632
C22	C	0.797856	-0.442168	0.537401
C23	C	0.565773	-0.481178	0.584679
C24	C	1.170346	-0.677686	0.572985
C25	C	1.165695	-0.770116	0.578149
C26	C	1.205724	-0.983094	0.534429
C27	C	1.157219	-0.939342	0.587589
C28	C	1.161937	-0.845176	0.582335
C29	C	1.201008	-1.077268	0.539682
C30	C	1.398289	-0.472680	0.574378
C31	C	1.490717	-0.477385	0.580078
C32	C	1.181457	-0.461569	0.812592
C33	C	1.181484	-0.461539	0.919806
C34	C	1.192509	-0.244750	0.548989
C35	C	1.197246	-0.152325	0.543872
C36	C	1.181383	-0.461652	0.310385
C37	C	1.181529	-0.461456	0.203169
C38	C	1.181510	-0.461484	1.116099
C39	C	1.181493	-0.461517	1.006868
H40	H	0.693212	-0.531043	0.645127
H41	H	1.112150	-0.972605	0.637047
H42	H	1.250789	-0.949834	0.484973
H43	H	0.670423	-0.392300	0.476946
