data_functionalizedCrystal
_audit_creation_method	'MofGen! by Chris Wilmer'
_symmetry_space_group_name_H-M	'P1'
_symmetry_Int_Tables_number	1
_symmetry_cell_setting	triclinic
loop_
_symmetry_equiv_pos_as_xyz
  x,y,z
_cell_length_a	17.699083
_cell_length_b	16.109301
_cell_length_c	14.586319
_cell_angle_alpha	90.005214
_cell_angle_beta	90.002525
_cell_angle_gamma	96.627752
loop_
_atom_site_label
_atom_site_type_symbol
_atom_site_fract_x
_atom_site_fract_y
_atom_site_fract_z
O1	O	1.004225	-0.105136	-0.076115
O2	O	1.504225	0.394864	0.423885
O3	O	0.783866	-0.118815	-0.076145
O4	O	1.283866	0.381185	0.423855
O5	O	0.900099	0.009065	-0.076120
O6	O	1.400099	0.509065	0.423880
O7	O	0.887992	-0.233017	-0.076140
O8	O	1.387992	0.266983	0.423860
O9	O	0.900091	0.009067	0.076361
O10	O	1.400091	0.509067	0.576361
O11	O	0.783858	-0.118813	0.076336
O12	O	1.283858	0.381187	0.576336
O13	O	1.004217	-0.105135	0.076366
O14	O	1.504217	0.394865	0.576366
Cu15	Cu	0.894037	-0.111974	0.090274
Cu16	Cu	1.394037	0.388026	0.590274
Cu17	Cu	0.894046	-0.111976	-0.090053
Cu18	Cu	1.394046	0.388024	0.409947
O19	O	0.887984	-0.233015	0.076341
O20	O	1.387984	0.266985	0.576341
C21	C	0.755664	-0.118324	0.000091
C22	C	1.255664	0.381676	0.500091
C23	C	0.671644	-0.116854	0.000080
C24	C	1.171644	0.383146	0.500080
N25	N	0.894035	-0.111972	0.217105
N26	N	1.394035	0.388028	0.717105
C27	C	0.899604	0.040040	0.000121
C28	C	1.399604	0.540040	0.500121
C29	C	0.898134	0.132333	0.000122
C30	C	1.398134	0.632333	0.500122
C31	C	0.623130	-0.191917	0.000074
C32	C	1.123130	0.308083	0.500074
C33	C	0.544185	-0.190531	0.000086
C34	C	1.044185	0.309469	0.500086
C35	C	0.513755	-0.114080	0.000098
C36	C	1.013755	0.385920	0.500098
C37	C	0.562275	-0.039011	0.000106
C38	C	1.062275	0.460989	0.500106
C39	C	0.641219	-0.040398	0.000101
C40	C	1.141219	0.459602	0.500101
C41	C	0.243904	-0.033414	0.000130
C42	C	0.743904	0.466586	0.500130
C43	C	0.164954	-0.032032	0.000132
C44	C	0.664954	0.467968	0.500132
C45	C	0.146870	-0.183546	0.000115
C46	C	0.646870	0.316454	0.500115
C47	C	0.225814	-0.184934	0.000109
C48	C	0.725814	0.315066	0.500109
C49	C	0.274327	-0.109865	0.000123
C50	C	0.774327	0.390135	0.500123
C51	C	0.359928	-0.111369	0.000112
C52	C	0.859928	0.388631	0.500112
C53	C	0.428155	-0.112575	0.000102
C54	C	0.928155	0.387425	0.500102
C55	C	1.032419	-0.105626	0.000127
C56	C	1.532419	0.394374	0.500127
C57	C	1.116439	-0.107096	0.000133
C58	C	1.616439	0.392904	0.500133
C59	C	0.888478	-0.263990	0.000098
C60	C	1.388478	0.236010	0.500098
C61	C	0.889949	-0.356283	0.000091
C62	C	1.389949	0.143717	0.500091
C63	C	0.963686	0.354719	0.000117
C64	C	1.463686	0.854719	0.500117
C65	C	0.962298	0.441437	0.000109
C66	C	1.462298	0.941437	0.500109
C67	C	0.824392	0.421325	0.000093
C68	C	1.324392	0.921325	0.500093
C69	C	0.825780	0.334608	0.000095
C70	C	1.325780	0.834608	0.500095
C71	C	0.895429	0.301308	0.000111
C72	C	1.395429	0.801308	0.500111
C73	C	0.892654	0.474742	0.000102
C74	C	1.392654	0.974742	0.500102
C75	C	0.891149	0.568766	0.000094
C76	C	1.391149	1.068766	0.500094
C77	C	0.896934	0.207278	0.000118
C78	C	1.396934	0.707278	0.500118
N79	N	0.894053	-0.111972	-0.216884
N80	N	1.394053	0.388028	0.283116
C81	C	0.945520	-0.055365	0.452123
C82	C	1.445520	0.444635	0.952123
C83	C	0.945523	-0.055363	0.548104
C84	C	1.445523	0.444637	1.048104
C85	C	0.842563	-0.168581	0.548091
C86	C	1.342563	0.331419	1.048091
C87	C	0.842558	-0.168578	0.452112
C88	C	1.342558	0.331422	0.952112
C89	C	0.894041	-0.111971	0.404130
C90	C	1.394041	0.388029	0.904130
C91	C	0.894048	-0.111972	0.596091
C92	C	1.394048	0.388028	1.096091
C93	C	0.894050	-0.111970	0.700158
C94	C	1.394050	0.388030	1.200158
C95	C	0.894038	-0.111972	0.300056
C96	C	1.394038	0.388028	0.800056
H97	H	0.647900	-0.254172	0.000064
H98	H	1.147900	0.245828	0.500064
F99	F	1.037812	0.319281	0.000133
F100	F	1.537812	0.819281	0.500133
F101	F	0.492556	-0.270424	0.000076
F102	F	0.992556	0.229576	0.500076
F103	F	0.529887	0.042354	0.000125
F104	F	1.029887	0.542354	0.500125
F105	F	0.787760	-0.228826	0.401030
F106	F	1.287760	0.271174	0.901030
F107	F	0.295525	0.046481	0.000144
F108	F	0.795525	0.546481	0.500144
F109	F	0.753128	0.277761	0.000082
F110	F	1.253128	0.777761	0.500082
H111	H	0.987440	-0.009271	0.413059
H112	H	1.487440	0.490729	0.913059
H113	H	0.987441	-0.009268	0.587177
H114	H	1.487441	0.490732	1.087177
H115	H	1.017880	0.484921	0.000112
H116	H	1.517880	0.984921	0.500112
H117	H	0.250585	-0.247188	0.000096
H118	H	0.750585	0.252812	0.500096
F119	F	0.095233	-0.263442	0.000104
F120	F	0.595233	0.236558	0.500104
H121	H	0.140182	0.030227	0.000143
H122	H	0.640182	0.530227	0.500143
F123	F	0.692851	0.039495	0.000111
F124	F	1.192851	0.539495	0.500111
H125	H	0.767686	0.448449	0.000082
H126	H	1.267686	0.948449	0.500082
H127	H	0.800648	-0.214670	0.587167
H128	H	1.300648	0.285330	1.087167
