data_functionalizedCrystal
_audit_creation_method	'MofGen! by Chris Wilmer'
_symmetry_space_group_name_H-M	'P1'
_symmetry_Int_Tables_number	1
_symmetry_cell_setting	triclinic
loop_
_symmetry_equiv_pos_as_xyz
  x,y,z
_cell_length_a	10.723022
_cell_length_b	10.723024
_cell_length_c	7.540329
_cell_angle_alpha	89.997572
_cell_angle_beta	89.997341
_cell_angle_gamma	84.467548
loop_
_atom_site_label
_atom_site_type_symbol
_atom_site_fract_x
_atom_site_fract_y
_atom_site_fract_z
O1	O	1.657187	0.175016	-0.147466
O2	O	1.294034	0.191771	-0.147472
O3	O	1.483987	0.001818	-0.147462
O4	O	1.467234	0.364970	-0.147476
O5	O	1.483976	0.001815	0.147503
O6	O	1.294023	0.191769	0.147493
O7	O	1.657176	0.175014	0.147499
Cu8	Cu	1.475598	0.183391	0.174429
Cu9	Cu	1.475612	0.183394	-0.174402
O10	O	1.467223	0.364968	0.147490
C11	C	1.247529	0.190551	0.000010
C12	C	1.108975	0.186904	0.000008
C13	C	0.890796	0.289421	0.000001
C14	C	1.033999	0.293192	0.000003
C15	C	1.482763	-0.044683	0.000018
C16	C	1.479115	-0.183238	0.000012
C17	C	1.585403	-0.258221	0.000011
C18	C	1.581635	-0.401424	0.000005
C19	C	1.703681	0.176234	0.000013
C20	C	1.842235	0.179881	0.000004
C21	C	1.468448	0.411468	0.000005
C22	C	1.472095	0.550023	-0.000000
N23	N	1.475598	0.183388	0.419777
N24	N	1.475622	0.183387	-0.419750
H25	H	1.067171	0.093113	-0.000036
H26	H	1.075811	0.386980	0.000010
H27	H	1.672625	-0.465857	0.000012
O28	O	0.813800	0.397892	-0.000241
C29	C	0.737697	0.402622	-0.153031
H30	H	0.730400	0.303493	-0.203961
H31	H	0.640218	0.448149	-0.118678
H32	H	0.780933	0.460049	-0.260002
O33	O	0.919231	0.071409	-0.000229
C34	C	0.995344	0.066681	-0.153018
H35	H	1.002648	0.165811	-0.203953
H36	H	1.092821	0.021152	-0.118660
H37	H	0.952116	0.009258	-0.259986
O38	O	1.697188	-0.208135	0.000094
C39	C	1.676063	-0.076303	0.000051
H40	H	1.578910	-0.046700	0.055891
H41	H	1.749822	-0.035606	0.085690
H42	H	1.682377	-0.040001	-0.141458
H43	H	1.385329	-0.225059	-0.000001
H44	H	1.381100	-0.385552	0.000013
