data_functionalizedCrystal
_audit_creation_method	'MofGen! by Chris Wilmer'
_symmetry_space_group_name_H-M	'P1'
_symmetry_Int_Tables_number	1
_symmetry_cell_setting	triclinic
loop_
_symmetry_equiv_pos_as_xyz
  x,y,z
_cell_length_a	16.120530
_cell_length_b	16.120484
_cell_length_c	16.120379
_cell_angle_alpha	90.213218
_cell_angle_beta	89.817857
_cell_angle_gamma	89.832673
loop_
_atom_site_label
_atom_site_type_symbol
_atom_site_fract_x
_atom_site_fract_y
_atom_site_fract_z
Zn1	Zn	1.228148	0.365922	-0.552154
Zn2	Zn	1.227287	0.512081	-0.420095
Zn3	Zn	1.096051	0.366741	-0.406100
Zn4	Zn	1.082036	0.497916	-0.551395
O5	O	1.158381	0.435665	-0.482436
O6	O	1.344105	0.390896	-0.540810
O7	O	1.215384	0.499073	-0.302165
O8	O	1.119799	0.250567	-0.419935
O9	O	1.343473	0.498278	-0.443787
O10	O	1.216850	0.249965	-0.527240
O11	O	1.118965	0.392292	-0.291883
O12	O	0.978121	0.378556	-0.419199
O13	O	1.095913	0.474135	-0.667569
O14	O	0.967824	0.474929	-0.525947
O15	O	1.203261	0.377160	-0.668127
O16	O	1.201794	0.626267	-0.443051
O17	O	1.095079	0.615860	-0.539517
C18	C	0.942876	0.425295	-0.470972
C19	C	0.850681	0.420878	-0.466089
C20	C	1.146844	0.651158	-0.492740
C21	C	1.141983	0.743349	-0.497179
C22	C	1.148119	0.423976	-0.698786
C23	C	1.143747	0.418995	-0.790982
C24	C	0.681878	0.412793	-0.457179
C25	C	0.635717	0.458594	-0.507756
C26	C	0.541790	0.454096	-0.502799
C27	C	0.775815	0.417290	-0.462135
C28	C	1.374726	0.446076	-0.493945
C29	C	1.466920	0.450512	-0.498849
C30	C	1.169984	0.219330	-0.472111
C31	C	1.174929	0.127141	-0.467711
C32	C	1.133112	0.912144	-0.505303
C33	C	1.183797	0.958352	-0.459591
C34	C	1.178861	1.052275	-0.464110
C35	C	1.138047	0.818212	-0.500784
C36	C	1.168653	0.447251	-0.266927
C37	C	1.173198	0.452006	-0.174729
C38	C	1.181510	0.460689	-0.005923
C39	C	1.135438	0.410315	0.040217
C40	C	1.140062	0.415146	0.134147
C41	C	1.176886	0.455859	-0.099861
H42	H	0.666739	0.501183	-0.554780
H43	H	1.230895	0.927373	-0.417060
F44	F	0.641334	0.357129	-0.395719
F45	F	1.071553	0.952632	-0.560888
F46	F	1.237601	0.521797	0.034648
F47	F	1.079342	0.349203	-0.000354
