data_functionalizedCrystal
_audit_creation_method	'MofGen! by Chris Wilmer'
_symmetry_space_group_name_H-M	'P1'
_symmetry_Int_Tables_number	1
_symmetry_cell_setting	triclinic
loop_
_symmetry_equiv_pos_as_xyz
  x,y,z
_cell_length_a	16.625548
_cell_length_b	13.032868
_cell_length_c	13.032268
_cell_angle_alpha	103.285901
_cell_angle_beta	82.837807
_cell_angle_gamma	82.786692
loop_
_atom_site_label
_atom_site_type_symbol
_atom_site_fract_x
_atom_site_fract_y
_atom_site_fract_z
Zn1	Zn	1.119591	0.499055	0.654192
Zn2	Zn	1.619591	0.999055	1.154192
Zn3	Zn	1.119488	0.654138	0.499133
Zn4	Zn	1.619488	1.154138	0.999133
Zn5	Zn	1.004372	0.476552	0.476612
Zn6	Zn	1.504372	0.976552	0.976612
Zn7	Zn	0.965105	0.676615	0.676672
Zn8	Zn	1.465105	1.176615	1.176672
O9	O	1.052139	0.576590	0.576652
O10	O	1.552139	1.076590	1.076652
O11	O	1.232407	0.519637	0.633641
O12	O	1.732407	1.019637	1.133641
O13	O	1.120607	0.611757	0.347527
O14	O	1.620607	1.111757	0.847527
O15	O	1.036133	0.330907	0.481335
O16	O	1.536133	0.830907	0.981335
O17	O	1.232331	0.633577	0.519719
O18	O	1.732331	1.133577	1.019719
O19	O	1.120784	0.347440	0.611803
O20	O	1.620784	0.847440	1.111803
O21	O	1.036032	0.481285	0.330980
O22	O	1.536032	0.981285	0.830980
O23	O	0.886333	0.503080	0.503133
O24	O	1.386333	1.003080	1.003133
O25	O	0.969208	0.671885	0.822309
O26	O	1.469208	1.171885	1.322309
O27	O	0.857484	0.650066	0.650116
O28	O	1.357484	1.150066	1.150116
O29	O	1.082708	0.541432	0.805793
O30	O	1.582708	1.041432	1.305793
O31	O	1.082532	0.805750	0.541517
O32	O	1.582532	1.305750	1.041517
O33	O	0.969107	0.822263	0.671954
O34	O	1.469107	1.322263	1.171954
C35	C	0.842653	0.576571	0.576621
C36	C	1.342653	1.076571	1.076621
C37	C	0.753028	0.576592	0.576636
C38	C	1.253028	1.076592	1.076636
C39	C	1.021566	0.852548	0.611642
C40	C	1.521566	1.352548	1.111642
C41	C	1.008557	0.970608	0.626646
C42	C	1.508557	1.470608	1.126646
C43	C	1.058916	1.015044	0.568846
C44	C	1.558916	1.515044	1.068846
C45	C	1.045471	1.137065	0.584352
C46	C	1.545471	1.637065	1.084352
C47	C	0.424847	0.576604	0.576682
C48	C	0.924847	1.076604	1.076682
C49	C	0.516158	0.576598	0.576665
C50	C	1.016158	1.076598	1.076665
C51	C	0.588935	0.576599	0.576658
C52	C	1.088935	1.076599	1.076658
C53	C	0.680251	0.576591	0.576643
C54	C	1.180251	1.076591	1.076643
C55	C	1.262443	0.576610	0.576685
C56	C	1.762443	1.076610	1.076685
C57	C	1.352061	0.576618	0.576699
C58	C	1.852061	1.076618	1.076699
C59	C	1.021589	0.611676	0.853664
C60	C	1.521589	1.111676	1.353664
C61	C	1.008571	0.626628	0.971709
C62	C	1.508571	1.126628	1.471709
C63	C	1.082825	1.299556	0.541538
C64	C	1.582825	1.799556	1.041538
C65	C	1.095837	1.181497	0.526544
C66	C	1.595837	1.681497	1.026544
C67	C	1.082624	0.541564	0.300709
C68	C	1.582624	1.041564	0.800709
C69	C	1.095832	0.526313	0.182626
C70	C	1.595832	1.026313	0.682626
C71	C	1.058925	0.568748	1.016166
C72	C	1.558925	1.068748	1.516166
C73	C	1.045471	0.584200	1.138173
C74	C	1.545471	1.084200	1.638173
H75	H	1.111986	0.962754	0.507885
H76	H	1.611986	1.462754	1.007885
C77	C	0.929836	1.143226	0.717145
C78	C	1.429836	1.643226	1.217145
C79	C	0.973828	1.207644	0.666664
C80	C	1.473828	1.707644	1.166664
H81	H	0.885611	1.186801	0.767964
H82	H	1.385611	1.686801	1.267964
H83	H	0.908856	1.094153	0.665383
H84	H	1.408856	1.594153	1.165383
H85	H	0.965206	1.105049	0.752340
H86	H	1.465206	1.605049	1.252340
H87	H	0.938460	1.245814	0.631462
H88	H	1.438460	1.745814	1.131462
H89	H	0.994807	1.256736	0.718434
H90	H	1.494807	1.756736	1.218434
H91	H	0.955496	0.687613	1.023972
H92	H	1.455496	1.187613	1.523972
H93	H	0.955493	1.022901	0.687615
H94	H	1.455493	1.522901	1.187615
H95	H	1.148910	1.129210	0.465579
H96	H	1.648910	1.629210	0.965579
C97	C	1.099641	0.410186	0.873192
C98	C	1.599641	0.910186	1.373192
C99	C	1.130572	0.486413	0.945619
C100	C	1.630572	0.986413	1.445619
H101	H	1.143876	0.359360	0.829637
H102	H	1.643876	0.859360	1.329637
H103	H	1.064289	0.374993	0.911308
H104	H	1.564289	0.874993	1.411308
H105	H	1.069791	0.444509	0.829500
H106	H	1.569791	0.944509	1.329500
H107	H	1.160417	0.452090	0.989316
H108	H	1.660417	0.952090	1.489316
H109	H	1.165938	0.521608	0.907500
H110	H	1.665938	1.021608	1.407500
H111	H	0.992393	0.645190	1.190432
H112	H	1.492393	1.145190	1.690432
C113	C	1.136528	0.367723	1.039685
C114	C	1.636528	0.867723	1.539685
C115	C	1.167474	0.443948	1.112095
C116	C	1.667474	0.943948	1.612095
H117	H	1.180755	0.316874	0.996142
H118	H	1.680755	0.816874	1.496142
H119	H	1.101162	0.332558	1.077814
H120	H	1.601162	0.832558	1.577814
H121	H	1.106691	0.402042	0.995979
H122	H	1.606691	0.902042	1.495979
H123	H	1.197306	0.409629	1.155806
H124	H	1.697306	0.909629	1.655806
H125	H	1.202854	0.479116	1.073963
H126	H	1.702854	0.979116	1.573963
