data_functionalizedCrystal
_audit_creation_method	'MofGen! by Chris Wilmer'
_symmetry_space_group_name_H-M	'P1'
_symmetry_Int_Tables_number	1
_symmetry_cell_setting	triclinic
loop_
_symmetry_equiv_pos_as_xyz
  x,y,z
_cell_length_a	12.594517
_cell_length_b	18.050589
_cell_length_c	12.594509
_cell_angle_alpha	89.972304
_cell_angle_beta	89.978673
_cell_angle_gamma	90.028021
loop_
_atom_site_label
_atom_site_type_symbol
_atom_site_fract_x
_atom_site_fract_y
_atom_site_fract_z
Zn1	Zn	1.627177	-0.295641	-0.601864
Zn2	Zn	1.627030	-0.419845	-0.423887
Zn3	Zn	1.449181	-0.295673	-0.423893
Zn4	Zn	1.449125	-0.419793	-0.601817
O5	O	1.538128	-0.357738	-0.512865
O6	O	1.776103	-0.312125	-0.578272
O7	O	1.603400	-0.403408	-0.274942
O8	O	1.472877	-0.191744	-0.447523
O9	O	1.775995	-0.403377	-0.447513
O10	O	1.603650	-0.191721	-0.578278
O11	O	1.472735	-0.312179	-0.274946
O12	O	1.300228	-0.312129	-0.447478
O13	O	1.472782	-0.403289	-0.750769
O14	O	1.300187	-0.403320	-0.578198
O15	O	1.603596	-0.312075	-0.750804
O16	O	1.603346	-0.523763	-0.447468
O17	O	1.472640	-0.523725	-0.578192
C18	C	1.261587	-0.357723	-0.512834
C19	C	1.143282	-0.357735	-0.512846
C20	C	1.538000	-0.550690	-0.512848
C21	C	1.538042	-0.633236	-0.512876
C22	C	1.074020	-0.308068	-0.441883
C23	C	1.003188	-0.375810	-0.415704
C24	C	1.003314	-0.290026	-0.539043
C25	C	1.074008	-0.425512	-0.486616
C26	C	1.074141	-0.339682	-0.610001
C27	C	1.003341	-0.407471	-0.583858
C28	C	1.467034	-0.832693	-0.583939
C29	C	1.441086	-0.882138	-0.486814
C30	C	1.538147	-0.784366	-0.512889
C31	C	1.564147	-0.882003	-0.610026
C32	C	1.538246	-0.930351	-0.512911
C33	C	1.512147	-0.832724	-0.415713
C34	C	1.635254	-0.832585	-0.538990
C35	C	1.609343	-0.882007	-0.441799
C36	C	1.538087	-0.700268	-0.512878
C37	C	1.538306	-1.014448	-0.512912
C38	C	1.815749	-0.357753	-0.512897
C39	C	1.934055	-0.357760	-0.512911
C40	C	1.538200	-0.357673	-0.790486
C41	C	1.538230	-0.357645	-0.908792
C42	C	1.538286	-0.164032	-0.512906
C43	C	1.538354	-0.081487	-0.512924
C44	C	1.467103	-0.407228	-0.978026
C45	C	1.564218	-0.425374	-1.048817
C46	C	1.441191	-0.339455	-1.048800
C47	C	1.635396	-0.375826	-0.978024
C48	C	1.512303	-0.289876	-0.978001
C49	C	1.609485	-0.307996	-1.048760
C50	C	1.538119	-0.357749	-0.236324
C51	C	1.538294	-0.357568	-0.118019
H52	H	1.105054	-0.266108	-0.381797
H53	H	1.490100	-0.811167	-0.333552
O54	O	1.485948	-0.221623	-0.940723
C55	C	1.364005	-0.149620	-0.835492
C56	C	1.393762	-0.226960	-0.877619
H57	H	1.289458	-0.153907	-0.784482
H58	H	1.432104	-0.126819	-0.785629
H59	H	1.348385	-0.110865	-0.905250
H60	H	1.409364	-0.265771	-0.807926
H61	H	1.325645	-0.249700	-0.927514
H62	H	0.972025	-0.391096	-0.333570
H63	H	1.105330	-0.324376	-0.692110
O64	O	1.681017	-0.907649	-0.369908
C65	C	1.734645	-0.911461	-0.186350
C66	C	1.653392	-0.882384	-0.267651
H67	H	1.712352	-0.891033	-0.103660
H68	H	1.734655	-0.974615	-0.187282
H69	H	1.817135	-0.890216	-0.207940
H70	H	1.570863	-0.903574	-0.246117
H71	H	1.653475	-0.819231	-0.266704
O72	O	1.111069	-0.493805	-0.460069
C73	C	1.264845	-0.570420	-0.430320
C74	C	1.223016	-0.493043	-0.460376
H75	H	1.355359	-0.569834	-0.430581
H76	H	1.235065	-0.585936	-0.347759
H77	H	1.235067	-0.612792	-0.490451
H78	H	1.252777	-0.450619	-0.400318
H79	H	1.252788	-0.477589	-0.542965
H80	H	1.586182	-0.482652	-1.079923
O81	O	0.966590	-0.457746	-0.655364
C82	C	0.961161	-0.585902	-0.708576
C83	C	1.002835	-0.529045	-0.627514
H84	H	0.990466	-0.643558	-0.686101
H85	H	0.870647	-0.585269	-0.708573
H86	H	0.991579	-0.570956	-0.791119
H87	H	0.972495	-0.543952	-0.544931
H88	H	1.093347	-0.529689	-0.627610
O89	O	0.966213	-0.221683	-0.565267
C90	C	0.860978	-0.116703	-0.511649
C91	C	0.902937	-0.194088	-0.481819
H92	H	0.809793	-0.094376	-0.444207
H93	H	0.930741	-0.077659	-0.525818
H94	H	0.811276	-0.120809	-0.587051
H95	H	0.952623	-0.190054	-0.406403
H96	H	0.833127	-0.233102	-0.467719
H97	H	1.586099	-0.903649	-0.692164
O98	O	1.681436	-0.257925	-1.085404
C99	C	1.813654	-0.166646	-1.040495
C100	C	1.732220	-0.223331	-0.998853
H101	H	1.854719	-0.138649	-0.970539
H102	H	1.875324	-0.196201	-1.091424
H103	H	1.771143	-0.123081	-1.090361
H104	H	1.774639	-0.266910	-0.948942
H105	H	1.670555	-0.193724	-0.947982
O106	O	1.733112	-0.806628	-0.565541
C107	C	1.871137	-0.802278	-0.697948
C108	C	1.760295	-0.831710	-0.668009
H109	H	1.893159	-0.822558	-0.780785
H110	H	1.870361	-0.739127	-0.696988
H111	H	1.931988	-0.823404	-0.638189
H112	H	1.699382	-0.810640	-0.727738
H113	H	1.761159	-0.894861	-0.668936
H114	H	1.406808	-0.811039	-0.643938
O115	O	1.395520	-0.457426	-0.941016
C116	C	1.342014	-0.585551	-0.935168
C117	C	1.423164	-0.528783	-0.977132
H118	H	1.364323	-0.643253	-0.964370
H119	H	1.342116	-0.584807	-0.844656
H120	H	1.259473	-0.570604	-0.965474
H121	H	1.505744	-0.543690	-0.946905
H122	H	1.422969	-0.529538	-1.067643
H123	H	1.359012	-0.903921	-0.464757
O124	O	1.343178	-0.321220	-1.085766
C125	C	1.157421	-0.352973	-1.091799
C126	C	1.268356	-0.373689	-1.049849
H127	H	1.096900	-0.395391	-1.062796
H128	H	1.134619	-0.295659	-1.061427
H129	H	1.158634	-0.352556	-1.182307
H130	H	1.267227	-0.374149	-0.959344
H131	H	1.291114	-0.430990	-1.080302
O132	O	1.733284	-0.394248	-0.940922
C133	C	1.843085	-0.414911	-0.787099
C134	C	1.732176	-0.394053	-0.828976
H135	H	1.842232	-0.414745	-0.696586
H136	H	1.865375	-0.472488	-0.816824
H137	H	1.903782	-0.372885	-0.816899
H138	H	1.671405	-0.436029	-0.799193
H139	H	1.709976	-0.336458	-0.799260
