data_functionalizedCrystal
_audit_creation_method	'MofGen! by Chris Wilmer'
_symmetry_space_group_name_H-M	'P1'
_symmetry_Int_Tables_number	1
_symmetry_cell_setting	triclinic
loop_
_symmetry_equiv_pos_as_xyz
  x,y,z
_cell_length_a	19.805407
_cell_length_b	12.759394
_cell_length_c	19.805399
_cell_angle_alpha	90.023967
_cell_angle_beta	90.019573
_cell_angle_gamma	90.014837
loop_
_atom_site_label
_atom_site_type_symbol
_atom_site_fract_x
_atom_site_fract_y
_atom_site_fract_z
Zn1	Zn	1.034790	-0.418291	0.382737
Zn2	Zn	1.034728	-0.593984	0.269556
Zn3	Zn	0.921605	-0.418320	0.269561
Zn4	Zn	0.921591	-0.593928	0.382702
O5	O	0.978178	-0.506131	0.326139
O6	O	1.129498	-0.441608	0.367735
O7	O	1.019701	-0.570717	0.174840
O8	O	0.936651	-0.271295	0.284591
O9	O	1.129453	-0.570689	0.284581
O10	O	1.019808	-0.271274	0.367740
O11	O	0.936590	-0.441658	0.174844
O12	O	0.826886	-0.441603	0.284558
O13	O	0.936628	-0.570594	0.477423
O14	O	0.826876	-0.570622	0.367682
O15	O	1.019794	-0.441554	0.477449
O16	O	1.019688	-0.740998	0.284548
O17	O	0.936567	-0.740957	0.367676
C18	C	0.802322	-0.506111	0.326117
C19	C	0.727090	-0.506127	0.326124
C20	C	0.691759	-0.573409	0.369336
C21	C	0.621070	-0.573411	0.369346
C22	C	0.585715	-0.506136	0.326139
C23	C	0.621051	-0.438847	0.282924
C24	C	0.691739	-0.438841	0.282919
C25	C	0.335978	-0.438870	0.282947
C26	C	0.265286	-0.438884	0.282954
C27	C	0.265310	-0.573440	0.369374
C28	C	0.335997	-0.573434	0.369368
C29	C	0.371327	-0.506142	0.326157
C30	C	0.447976	-0.506139	0.326148
C31	C	0.509068	-0.506143	0.326144
C32	C	0.978138	-0.779098	0.326123
C33	C	0.978182	-0.895875	0.326138
C34	C	1.064801	-0.895864	0.239641
C35	C	1.108128	-0.950720	0.196401
C36	C	1.108168	-1.060441	0.196419
C37	C	1.064877	-1.115310	0.239684
C38	C	1.021550	-1.060455	0.282925
C39	C	1.021514	-0.950730	0.282900
C40	C	0.934936	-1.060465	0.369424
C41	C	0.934892	-0.950744	0.369403
C42	C	0.891645	-1.115334	0.412689
C43	C	0.848314	-1.060478	0.455927
C44	C	0.848275	-0.950750	0.455906
C45	C	0.891565	-0.895888	0.412644
C46	C	1.154721	-0.506152	0.326161
C47	C	1.229953	-0.506161	0.326171
C48	C	0.978216	-0.506065	0.502682
C49	C	0.978233	-0.506036	0.577914
C50	C	0.978238	-0.232097	0.326170
C51	C	0.978263	-0.115321	0.326183
C52	C	0.978180	-0.506121	0.150283
C53	C	0.978295	-0.505853	0.075051
C54	C	1.021539	-0.438842	0.613272
C55	C	1.021545	-0.438811	0.683961
C56	C	0.978249	-0.505982	0.719289
C57	C	0.934939	-0.573179	0.683926
C58	C	0.934929	-0.573203	0.613239
C59	C	0.934977	-0.573081	0.969000
C60	C	0.934992	-0.573054	1.039692
C61	C	1.021594	-0.438689	1.039721
C62	C	1.021584	-0.438713	0.969034
C63	C	0.978271	-0.505907	0.933677
C64	C	0.978263	-0.505937	0.857028
C65	C	0.978260	-0.505957	0.795937
H66	H	0.720540	-0.628195	0.404519
C67	C	0.328844	-0.305864	0.197525
C68	C	0.374807	-0.364905	0.235448
H69	H	0.352819	-0.260203	0.168198
H70	H	0.301290	-0.265750	0.227063
H71	H	0.301259	-0.351602	0.171585
H72	H	0.402389	-0.319167	0.261392
H73	H	0.402373	-0.405023	0.205905
C74	C	0.243537	-0.751415	0.402153
C75	C	0.226474	-0.647400	0.416883
H76	H	0.219559	-0.797072	0.431481
H77	H	0.290690	-0.761031	0.408331
H78	H	0.231922	-0.766687	0.356660
H79	H	0.238093	-0.632126	0.462375
H80	H	0.179310	-0.637779	0.410711
C81	C	0.896502	-0.632810	0.792270
C82	C	0.887346	-0.647015	0.722758
H83	H	0.867122	-0.678401	0.816240
H84	H	0.886612	-0.562223	0.803858
H85	H	0.941979	-0.648191	0.803854
H86	H	0.841870	-0.631626	0.711174
H87	H	0.897231	-0.717618	0.711165
H88	H	1.056811	-0.384097	0.712746
C89	C	0.733700	-1.094374	0.488811
C90	C	0.800734	-1.120786	0.503482
H91	H	0.704327	-1.131604	0.518174
H92	H	0.723829	-1.112430	0.443336
H93	H	0.727480	-1.021176	0.494986
H94	H	0.806955	-1.193983	0.497302
H95	H	0.810608	-1.102737	0.548969
C96	C	1.136222	-0.387519	1.061517
C97	C	1.069200	-0.364819	1.078589
H98	H	1.165611	-0.341921	1.085515
H99	H	1.142409	-0.377920	1.014368
H100	H	1.146104	-0.458109	1.073101
H101	H	1.059317	-0.294231	1.067001
H102	H	1.063010	-0.374409	1.125749
C103	C	1.193781	-1.049422	0.110910
C104	C	1.155792	-1.120745	0.148888
H105	H	1.223178	-1.086653	0.081564
H106	H	1.219643	-1.006566	0.140412
H107	H	1.164284	-1.006687	0.084987
H108	H	1.185289	-1.163475	0.174815
H109	H	1.129927	-1.163619	0.119382
C110	C	1.112097	-1.272479	0.192621
C111	C	1.064924	-1.235918	0.239708
H112	H	1.112121	-1.346938	0.192635
H113	H	1.155753	-1.247590	0.204362
H114	H	1.100401	-1.247717	0.148930
H115	H	1.076623	-1.260673	0.283400
H116	H	1.021258	-1.260818	0.227971
H117	H	0.364780	-0.628219	0.404550
C118	C	0.512684	-0.379107	0.244560
C119	C	0.582190	-0.364892	0.235432
H120	H	0.488695	-0.333452	0.215236
H121	H	0.501125	-0.363827	0.290050
H122	H	0.501093	-0.449680	0.234572
H123	H	0.593782	-0.294320	0.245425
H124	H	0.593754	-0.380164	0.189931
H125	H	0.812996	-0.906092	0.491120
H126	H	0.891683	-1.204675	0.412704
C127	C	0.599361	-0.624862	0.483897
C128	C	0.582239	-0.647384	0.416841
H129	H	0.575392	-0.670541	0.513218
H130	H	0.587781	-0.554308	0.493888
H131	H	0.646521	-0.634482	0.490064
H132	H	0.535079	-0.637757	0.410673
H133	H	0.593815	-0.717956	0.406847
C134	C	0.874294	-0.738806	0.348209
C135	C	0.891526	-0.775280	0.412618
H136	H	0.874276	-0.664347	0.348193
H137	H	0.830632	-0.763686	0.336482
H138	H	0.906295	-0.763636	0.316270
H139	H	0.859521	-0.750457	0.444556
H140	H	0.935194	-0.750390	0.424353
H141	H	1.056797	-0.384147	0.584513
H142	H	0.899732	-0.627754	1.068454
H143	H	0.236502	-0.384094	0.247770
H144	H	0.899658	-0.627910	0.584451
C145	C	0.684620	-0.305850	0.197484
C146	C	0.730578	-0.364892	0.235412
H147	H	0.708598	-0.260200	0.168153
H148	H	0.657070	-0.265722	0.227019
H149	H	0.657030	-0.351588	0.171549
H150	H	0.758165	-0.319154	0.261351
H151	H	0.758139	-0.405023	0.205872
C152	C	1.111899	-0.738681	0.192512
C153	C	1.064755	-0.775257	0.239616
H154	H	1.111872	-0.664223	0.192499
H155	H	1.100220	-0.763567	0.148836
H156	H	1.155578	-0.763438	0.204262
H157	H	1.021074	-0.750507	0.227863
H158	H	1.076429	-0.750361	0.283301
C159	C	1.054578	-0.260819	0.947307
C160	C	1.069173	-0.364868	0.930206
H161	H	1.083955	-0.215226	0.923334
H162	H	1.060783	-0.251202	0.994461
H163	H	1.009100	-0.245462	0.935711
H164	H	1.114649	-0.380228	0.941806
H165	H	1.062974	-0.374490	0.883041
C166	C	0.849360	-0.705872	0.976081
C167	C	0.887360	-0.646926	0.930141
H168	H	0.819961	-0.751460	0.952087
H169	H	0.823499	-0.660076	1.003658
H170	H	0.878850	-0.746069	1.003645
H171	H	0.857869	-0.606723	0.902580
H172	H	0.913222	-0.692727	0.902552
H173	H	1.143377	-0.906036	0.161176
