data_functionalizedCrystal
_audit_creation_method	'MofGen! by Chris Wilmer'
_symmetry_space_group_name_H-M	'P1'
_symmetry_Int_Tables_number	1
_symmetry_cell_setting	triclinic
loop_
_symmetry_equiv_pos_as_xyz
  x,y,z
_cell_length_a	11.792254
_cell_length_b	11.792254
_cell_length_c	12.376457
_cell_angle_alpha	101.355083
_cell_angle_beta	78.628102
_cell_angle_gamma	84.198598
loop_
_atom_site_label
_atom_site_type_symbol
_atom_site_fract_x
_atom_site_fract_y
_atom_site_fract_z
O1	O	1.528539	0.134015	-0.094004
O2	O	1.198201	0.150033	-0.094007
O3	O	1.371377	-0.023143	-0.093998
O4	O	1.355363	0.307191	-0.094014
O5	O	1.328098	0.020091	0.094012
O6	O	1.154922	0.193267	0.094003
O7	O	1.485260	0.177250	0.094005
Zn8	Zn	1.313220	0.192123	0.123855
Zn9	Zn	1.370242	0.135160	-0.123856
O10	O	1.312084	0.350426	0.093996
C11	C	1.134271	0.170641	-0.000002
C12	C	1.008258	0.167621	-0.000003
C13	C	0.905922	0.165166	-0.000008
C14	C	0.777536	0.162097	-0.000008
C15	C	1.348729	-0.043817	0.000007
C16	C	1.345709	-0.169830	0.000006
C17	C	1.343256	-0.272168	0.000002
C18	C	1.340190	-0.400557	-0.000009
C19	C	1.549191	0.156641	-0.000002
C20	C	1.675206	0.159660	-0.000008
C21	C	1.334733	0.371099	-0.000011
C22	C	1.337755	0.497111	-0.000017
N23	N	1.274312	0.230999	0.292911
N24	N	1.409158	0.096275	-0.292912
C25	C	1.499475	0.006010	0.647908
C26	C	1.526700	-0.021199	0.529570
C27	C	1.463605	0.041848	0.470399
C28	C	1.373281	0.132109	0.529579
C29	C	1.346059	0.159327	0.647929
C30	C	1.310189	0.195165	0.470420
C31	C	1.219865	0.285426	0.529599
C32	C	1.192648	0.312639	0.647938
C33	C	1.255742	0.249592	0.707108
C34	C	1.337411	0.167947	0.352070
C35	C	1.183995	0.321264	0.352090
C36	C	1.156770	0.348473	0.470429
H37	H	1.410953	0.094456	0.303896
H38	H	1.119109	0.386143	0.696122
H39	H	1.600242	-0.094688	0.481390
H40	H	1.233573	0.271742	0.803469
H41	H	1.550845	-0.045309	0.696092
Br42	Br	1.500553	0.004920	0.309794
H43	H	1.083227	0.421966	0.518627
H44	H	1.132620	0.372604	0.303915
