data_functionalizedCrystal
_audit_creation_method	'MofGen! by Chris Wilmer'
_symmetry_space_group_name_H-M	'P1'
_symmetry_Int_Tables_number	1
_symmetry_cell_setting	triclinic
loop_
_symmetry_equiv_pos_as_xyz
  x,y,z
_cell_length_a	18.050590
_cell_length_b	19.121747
_cell_length_c	18.050582
_cell_angle_alpha	87.581618
_cell_angle_beta	89.999233
_cell_angle_gamma	87.579812
loop_
_atom_site_label
_atom_site_type_symbol
_atom_site_fract_x
_atom_site_fract_y
_atom_site_fract_z
Zn1	Zn	1.147900	-0.279844	0.432227
Zn2	Zn	1.647900	0.220156	0.932227
Zn3	Zn	1.153102	-0.397280	0.313335
Zn4	Zn	1.653102	0.102720	0.813335
Zn5	Zn	1.023719	-0.279832	0.308085
Zn6	Zn	1.523719	0.220168	0.808085
Zn7	Zn	1.028956	-0.397229	0.437516
Zn8	Zn	1.528956	0.102771	0.937516
O9	O	1.088420	-0.338546	0.372791
O10	O	1.588420	0.161454	0.872791
O11	O	1.252516	-0.295448	0.416440
O12	O	1.752516	0.204552	0.916440
O13	O	1.135924	-0.381717	0.208715
O14	O	1.635924	0.118283	0.708715
O15	O	1.035823	-0.181556	0.320142
O16	O	1.535823	0.318444	0.820142
O17	O	1.256338	-0.381728	0.329091
O18	O	1.756338	0.118272	0.829091
O19	O	1.127059	-0.181564	0.411349
O20	O	1.627059	0.318436	0.911349
O21	O	1.040867	-0.295429	0.204857
O22	O	1.540867	0.204571	0.704857
O23	O	0.920488	-0.295379	0.325270
O24	O	1.420488	0.204621	0.825270
O25	O	1.044749	-0.381641	0.540738
O26	O	1.544749	0.118359	1.040738
O27	O	0.924336	-0.381630	0.420362
O28	O	1.424336	0.118370	0.920362
O29	O	1.132137	-0.295398	0.536852
O30	O	1.632137	0.204602	1.036852
O31	O	1.141003	-0.495551	0.334219
O32	O	1.641003	0.004449	0.834219
O33	O	1.049793	-0.495514	0.425453
O34	O	1.549793	0.004486	0.925453
C35	C	0.895465	-0.338498	0.372821
C36	C	1.395465	0.161502	0.872821
C37	C	0.812919	-0.338495	0.372852
C38	C	1.312919	0.161505	0.872852
C39	C	0.615589	-0.385532	0.424451
C40	C	1.115589	0.114468	0.924451
C41	C	0.563310	-0.321496	0.439837
C42	C	1.063310	0.178504	0.939837
C43	C	0.661791	-0.338534	0.372817
C44	C	1.161791	0.161466	0.872817
C45	C	0.566989	-0.402606	0.357432
C46	C	1.066989	0.097394	0.857432
C47	C	0.515808	-0.338577	0.372785
C48	C	1.015808	0.161423	0.872785
C49	C	0.610598	-0.274464	0.388237
C50	C	1.110598	0.225536	0.888237
C51	C	0.614283	-0.355617	0.305802
C52	C	1.114283	0.144383	0.805802
C53	C	0.562025	-0.291537	0.321161
C54	C	1.062025	0.208463	0.821161
C55	C	0.745888	-0.338510	0.372837
C56	C	1.245888	0.161490	0.872837
C57	C	0.431712	-0.338594	0.372765
C58	C	0.931712	0.161406	0.872765
C59	C	1.096551	-0.521015	0.380996
C60	C	1.596551	-0.021015	0.880996
C61	C	1.100097	-0.599076	0.384531
C62	C	1.600097	-0.099076	0.884531
C63	C	1.122596	-1.040570	0.406924
C64	C	1.622596	-0.540570	0.906924
C65	C	1.119255	-0.967223	0.403596
C66	C	1.619255	-0.467223	0.903596
C67	C	1.070121	-0.930612	0.354413
C68	C	1.570121	-0.430612	0.854413
C69	C	1.024331	-0.967351	0.308551
C70	C	1.524331	-0.467351	0.808551
C71	C	1.027675	-1.040696	0.311876
C72	C	1.527675	-0.540696	0.811876
C73	C	1.057651	-0.709160	0.341993
C74	C	1.557651	-0.209160	0.841993
C75	C	1.054308	-0.635810	0.338674
C76	C	1.554308	-0.135810	0.838674
C77	C	1.149234	-0.635687	0.433718
C78	C	1.649234	-0.135687	0.933718
C79	C	1.152572	-0.709034	0.437041
C80	C	1.652572	-0.209034	0.937041
C81	C	1.106784	-0.745766	0.391176
C82	C	1.606784	-0.245766	0.891176
C83	C	1.066704	-0.855640	0.351012
C84	C	1.566704	-0.355640	0.851012
C85	C	1.110205	-0.820737	0.394574
C86	C	1.610205	-0.320737	0.894574
C87	C	1.282127	-0.338595	0.372761
C88	C	1.782127	0.161405	0.872761
C89	C	1.364674	-0.338616	0.372749
C90	C	1.864674	0.161384	0.872749
C91	C	1.088447	-0.338515	0.566495
C92	C	1.588447	0.161485	1.066495
C93	C	1.088459	-0.338502	0.649040
C94	C	1.588459	0.161498	1.149040
C95	C	1.080277	-0.155365	0.364570
C96	C	1.580277	0.344635	0.864570
C97	C	1.076807	-0.077304	0.361066
C98	C	1.576807	0.422696	0.861066
C99	C	1.088432	-0.338526	0.179838
C100	C	1.588432	0.161474	0.679838
C101	C	1.088556	-0.338342	0.097284
C102	C	1.588556	0.161658	0.597284
C103	C	1.040973	-0.385336	0.850601
C104	C	1.540973	0.114664	1.350601
C105	C	1.109502	-0.402516	0.900749
C106	C	1.609502	0.097484	1.400749
C107	C	1.088493	-0.338448	0.800168
C108	C	1.588493	0.161552	1.300168
C109	C	1.020000	-0.321249	0.897101
C110	C	1.520000	0.178751	1.397101
C111	C	1.088520	-0.338398	0.946151
C112	C	1.588520	0.161602	1.446151
C113	C	1.157060	-0.355661	0.849230
C114	C	1.657060	0.144339	1.349230
C115	C	1.067511	-0.274365	0.845577
C116	C	1.567511	0.225635	1.345577
C117	C	1.136086	-0.291520	0.895702
C118	C	1.636086	0.208480	1.395702
C119	C	1.088477	-0.338479	0.716071
C120	C	1.588477	0.161521	1.216071
C121	C	1.088545	-0.338367	1.030246
C122	C	1.588545	0.161633	1.530246
H123	H	0.547734	-0.456773	0.344434
H124	H	1.047734	0.043227	0.844434
H125	H	1.026697	-0.825825	0.310968
H126	H	1.526697	-0.325825	0.810968
H127	H	0.962065	-0.306724	0.918156
H128	H	1.462065	0.193276	1.418156
H129	H	0.538710	-0.251765	0.277480
H130	H	1.038710	0.248235	0.777480
H131	H	0.639038	-0.425207	0.468160
H132	H	1.139038	0.074793	0.968160
Br133	Br	1.189276	-1.090250	0.473679
Br134	Br	1.689276	-0.590250	0.973679
Br135	Br	1.211371	-0.585832	0.495961
Br136	Br	1.711371	-0.085832	0.995961
H137	H	1.192590	-0.738838	0.477082
H138	H	1.692590	-0.238838	0.977082
Br139	Br	0.987628	-0.586123	0.271916
Br140	Br	1.487628	-0.086123	0.771916
Br141	Br	0.965536	-1.090551	0.249633
Br142	Br	1.465536	-0.590551	0.749633
Br143	Br	0.651559	-0.379694	0.211377
Br144	Br	1.151559	0.120306	0.711377
Br145	Br	0.974060	-0.451507	0.817480
Br146	Br	1.474060	0.048493	1.317480
Br147	Br	1.253654	-0.379981	0.814302
Br148	Br	1.753654	0.120019	1.314302
Br149	Br	1.181401	-0.917373	0.465833
Br150	Br	1.681401	-0.417373	0.965833
Br151	Br	1.139112	-0.492805	0.940982
Br152	Br	1.639112	0.007195	1.440982
Br153	Br	0.526035	-0.297433	0.534271
Br154	Br	1.026035	0.202567	1.034271
Br155	Br	0.642526	-0.184154	0.410011
Br156	Br	1.142526	0.315846	0.910011
H157	H	1.150212	-0.850549	0.434616
H158	H	1.650212	-0.350549	0.934616
H159	H	1.020367	-0.739059	0.304647
H160	H	1.520367	-0.239059	0.804647
H161	H	0.984327	-0.937538	0.268502
H162	H	1.484327	-0.437538	0.768502
Br163	Br	1.203162	-0.225394	0.928600
Br164	Br	1.703162	0.274606	1.428600
H165	H	1.049728	-0.220208	0.821422
H166	H	1.549728	0.279792	1.321422
