data_functionalizedCrystal
_audit_creation_method	'MofGen! by Chris Wilmer'
_symmetry_space_group_name_H-M	'P1'
_symmetry_Int_Tables_number	1
_symmetry_cell_setting	triclinic
loop_
_symmetry_equiv_pos_as_xyz
  x,y,z
_cell_length_a	21.395364
_cell_length_b	21.395362
_cell_length_c	21.395340
_cell_angle_alpha	89.893120
_cell_angle_beta	89.929705
_cell_angle_gamma	90.028124
loop_
_atom_site_label
_atom_site_type_symbol
_atom_site_fract_x
_atom_site_fract_y
_atom_site_fract_z
Zn1	Zn	0.958145	-0.249005	-0.354257
Zn2	Zn	1.208145	0.000995	-0.104257
Zn3	Zn	1.458145	0.250995	0.145743
Zn4	Zn	1.708145	0.500995	0.395743
Zn5	Zn	0.957966	-0.353923	-0.249475
Zn6	Zn	1.207966	-0.103923	0.000525
Zn7	Zn	1.457966	0.146077	0.250525
Zn8	Zn	1.707966	0.396077	0.500525
Zn9	Zn	0.853277	-0.249160	-0.249493
Zn10	Zn	1.103277	0.000840	0.000507
Zn11	Zn	1.353277	0.250840	0.250507
Zn12	Zn	1.603277	0.500840	0.500507
Zn13	Zn	0.853331	-0.353746	-0.354215
Zn14	Zn	1.103331	-0.103746	-0.104215
Zn15	Zn	1.353331	0.146254	0.145785
Zn16	Zn	1.603331	0.396254	0.395785
O17	O	0.905680	-0.301458	-0.301860
O18	O	1.155680	-0.051458	-0.051860
O19	O	1.405680	0.198542	0.198140
O20	O	1.655680	0.448542	0.448140
O21	O	1.045799	-0.262932	-0.340367
O22	O	1.295799	-0.012932	-0.090367
O23	O	1.545799	0.237068	0.159633
O24	O	1.795799	0.487068	0.409633
O25	O	0.943981	-0.340165	-0.161799
O26	O	1.193981	-0.090165	0.088201
O27	O	1.443981	0.159835	0.338201
O28	O	1.693981	0.409835	0.588201
O29	O	0.867240	-0.161462	-0.263414
O30	O	1.117240	0.088538	-0.013414
O31	O	1.367240	0.338538	0.236586
O32	O	1.617240	0.588538	0.486586
O33	O	1.045667	-0.340014	-0.263384
O34	O	1.295667	-0.090014	-0.013384
O35	O	1.545667	0.159986	0.236616
O36	O	1.795667	0.409986	0.486616
O37	O	0.944286	-0.161348	-0.340384
O38	O	1.194286	0.088652	-0.090384
O39	O	1.444286	0.338652	0.159616
O40	O	1.694286	0.588652	0.409616
O41	O	0.867066	-0.263196	-0.161812
O42	O	1.117066	-0.013196	0.088188
O43	O	1.367066	0.236804	0.338188
O44	O	1.617066	0.486804	0.588188
O45	O	0.765606	-0.263024	-0.263374
O46	O	1.015606	-0.013024	-0.013374
O47	O	1.265606	0.236976	0.236626
O48	O	1.515606	0.486976	0.486626
O49	O	0.867332	-0.339713	-0.441899
O50	O	1.117332	-0.089713	-0.191899
O51	O	1.367332	0.160287	0.058101
O52	O	1.617332	0.410287	0.308101
O53	O	0.765646	-0.339863	-0.340314
O54	O	1.015646	-0.089863	-0.090314
O55	O	1.265646	0.160137	0.159686
O56	O	1.515646	0.410137	0.409686
O57	O	0.944339	-0.262760	-0.441929
O58	O	1.194339	-0.012760	-0.191929
O59	O	1.444339	0.237240	0.058071
O60	O	1.694339	0.487240	0.308071
O61	O	0.944033	-0.441577	-0.263344
O62	O	1.194033	-0.191577	-0.013344
O63	O	1.444033	0.058423	0.236656
O64	O	1.694033	0.308423	0.486656
O65	O	0.867159	-0.441447	-0.340297
O66	O	1.117159	-0.191447	-0.090297
O67	O	1.367159	0.058553	0.159703
O68	O	1.617159	0.308553	0.409703
C69	C	0.742892	-0.301442	-0.301842
C70	C	0.992892	-0.051442	-0.051842
C71	C	1.242892	0.198558	0.198158
C72	C	1.492892	0.448558	0.448158
C73	C	0.673251	-0.301450	-0.301849
C74	C	0.923251	-0.051450	-0.051849
C75	C	1.173251	0.198550	0.198151
C76	C	1.423251	0.448550	0.448151
C77	C	0.171492	-0.341542	-0.341883
C78	C	0.421492	-0.091542	-0.091883
C79	C	0.671492	0.158458	0.158117
C80	C	0.921492	0.408458	0.408117
C81	C	0.236927	-0.341542	-0.341877
C82	C	0.486927	-0.091542	-0.091877
C83	C	0.736927	0.158458	0.158123
C84	C	0.986927	0.408458	0.408123
C85	C	0.269612	-0.301472	-0.301880
C86	C	0.519612	-0.051472	-0.051880
C87	C	0.769612	0.198528	0.198120
C88	C	1.019612	0.448528	0.448120
C89	C	0.236857	-0.261410	-0.261875
C90	C	0.486857	-0.011410	-0.011875
C91	C	0.736857	0.238590	0.238125
C92	C	0.986857	0.488590	0.488125
C93	C	0.171423	-0.261416	-0.261878
C94	C	0.421423	-0.011416	-0.011878
C95	C	0.671423	0.238584	0.238122
C96	C	0.921423	0.488584	0.488122
C97	C	0.373296	-0.245014	-0.297030
C98	C	0.623296	0.004986	-0.047030
C99	C	0.873296	0.254986	0.202970
C100	C	1.123296	0.504986	0.452970
C101	C	0.438729	-0.245008	-0.297032
C102	C	0.688729	0.004992	-0.047032
C103	C	0.938729	0.254992	0.202968
C104	C	1.188729	0.504992	0.452968
C105	C	0.471433	-0.301456	-0.301866
C106	C	0.721433	-0.051456	-0.051866
C107	C	0.971433	0.198544	0.198134
C108	C	1.221433	0.448544	0.448134
C109	C	0.438696	-0.357912	-0.306712
C110	C	0.688696	-0.107912	-0.056712
C111	C	0.938696	0.142088	0.193288
C112	C	1.188696	0.392088	0.443288
C113	C	0.373262	-0.357917	-0.306716
C114	C	0.623262	-0.107917	-0.056716
C115	C	0.873262	0.142083	0.193284
C116	C	1.123262	0.392083	0.443284
C117	C	0.340565	-0.301462	-0.301871
C118	C	0.590565	-0.051462	-0.051871
C119	C	0.840565	0.198538	0.198129
C120	C	1.090565	0.448538	0.448129
C121	C	0.575133	-0.341518	-0.341858
C122	C	0.825133	-0.091518	-0.091858
C123	C	1.075133	0.158482	0.158142
C124	C	1.325133	0.408482	0.408142
C125	C	0.640570	-0.341519	-0.341847
C126	C	0.890570	-0.091519	-0.091847
C127	C	1.140570	0.158481	0.158153
C128	C	1.390570	0.408481	0.408153
C129	C	0.640498	-0.261382	-0.261848
C130	C	0.890498	-0.011382	-0.011848
C131	C	1.140498	0.238618	0.238152
C132	C	1.390498	0.488618	0.488152
C133	C	0.575063	-0.261387	-0.261856
C134	C	0.825063	-0.011387	-0.011856
C135	C	1.075063	0.238613	0.238144
C136	C	1.325063	0.488613	0.488144
C137	C	0.542384	-0.301454	-0.301864
C138	C	0.792384	-0.051454	-0.051864
C139	C	1.042384	0.198546	0.198136
C140	C	1.292384	0.448546	0.448136
C141	C	0.905599	-0.464246	-0.301828
C142	C	1.155599	-0.214246	-0.051828
C143	C	1.405599	0.035754	0.198172
C144	C	1.655599	0.285754	0.448172
C145	C	0.905622	-0.533887	-0.301835
C146	C	1.155622	-0.283887	-0.051835
C147	C	1.405622	-0.033887	0.198165
C148	C	1.655622	0.216113	0.448165
C149	C	0.945718	-0.566484	-0.341942
C150	C	1.195718	-0.316484	-0.091942
C151	C	1.445718	-0.066484	0.158058
C152	C	1.695718	0.183516	0.408058
C153	C	0.945740	-0.631920	-0.341957
C154	C	1.195740	-0.381920	-0.091957
C155	C	1.445740	-0.131920	0.158043
C156	C	1.695740	0.118080	0.408043
C157	C	0.905673	-0.664756	-0.301854
C158	C	1.155673	-0.414756	-0.051854
C159	C	1.405673	-0.164756	0.198146
C160	C	1.655673	0.085244	0.448146
C161	C	0.865570	-0.632151	-0.261745
C162	C	1.115570	-0.382151	-0.011745
C163	C	1.365570	-0.132151	0.238255
C164	C	1.615570	0.117849	0.488255
C165	C	0.865545	-0.566717	-0.261735
C166	C	1.115545	-0.316717	-0.011735
C167	C	1.365545	-0.066717	0.238265
C168	C	1.615545	0.183283	0.488265
C169	C	0.900751	-0.768541	-0.245415
C170	C	1.150751	-0.518541	0.004585
C171	C	1.400751	-0.268541	0.254585
C172	C	1.650751	-0.018541	0.504585
C173	C	0.900781	-0.833974	-0.245424
C174	C	1.150781	-0.583974	0.004576
C175	C	1.400781	-0.333974	0.254576
C176	C	1.650781	-0.083974	0.504576
C177	C	0.905748	-0.866576	-0.301885
C178	C	1.155748	-0.616576	-0.051885
C179	C	1.405748	-0.366576	0.198115
C180	C	1.655748	-0.116576	0.448115
C181	C	0.910698	-0.833738	-0.358338
C182	C	1.160698	-0.583738	-0.108338
C183	C	1.410698	-0.333738	0.141662
C184	C	1.660698	-0.083738	0.391662
C185	C	0.910672	-0.768304	-0.358329
C186	C	1.160672	-0.518304	-0.108329
C187	C	1.410672	-0.268304	0.141671
C188	C	1.660672	-0.018304	0.391671
C189	C	0.905696	-0.735708	-0.301861
C190	C	1.155696	-0.485708	-0.051861
C191	C	1.405696	-0.235708	0.198139
C192	C	1.655696	0.014292	0.448139
C193	C	0.945869	-0.970126	-0.342011
C194	C	1.195869	-0.720126	-0.092011
C195	C	1.445869	-0.470126	0.157989
C196	C	1.695869	-0.220126	0.407989
C197	C	0.945886	-1.035562	-0.342028
C198	C	1.195886	-0.785562	-0.092028
C199	C	1.445886	-0.535562	0.157972
C200	C	1.695886	-0.285562	0.407972
C201	C	0.865720	-1.035792	-0.261810
C202	C	1.115720	-0.785792	-0.011810
C203	C	1.365720	-0.535792	0.238190
C204	C	1.615720	-0.285792	0.488190
C205	C	0.865699	-0.970357	-0.261799
C206	C	1.115699	-0.720357	-0.011799
C207	C	1.365699	-0.470357	0.238201
C208	C	1.615699	-0.220357	0.488201
C209	C	0.905777	-0.937528	-0.301899
C210	C	1.155777	-0.687528	-0.051899
C211	C	1.405777	-0.437528	0.198101
C212	C	1.655777	-0.187528	0.448101
C213	C	1.069103	-0.301476	-0.301878
C214	C	1.319103	-0.051476	-0.051878
C215	C	1.569103	0.198524	0.198122
C216	C	1.819103	0.448524	0.448122
C217	C	1.138744	-0.301483	-0.301886
C218	C	1.388744	-0.051483	-0.051886
C219	C	1.638744	0.198517	0.198114
C220	C	1.888744	0.448517	0.448114
C221	C	0.905862	-0.301199	-0.465284
C222	C	1.155862	-0.051199	-0.215284
C223	C	1.405862	0.198801	0.034716
C224	C	1.655862	0.448801	0.284716
C225	C	0.905939	-0.301089	-0.534925
C226	C	1.155939	-0.051089	-0.284925
C227	C	1.405939	0.198911	-0.034925
C228	C	1.655939	0.448911	0.215075
C229	C	0.905777	-0.138035	-0.301906
C230	C	1.155777	0.111965	-0.051906
C231	C	1.405777	0.361965	0.198094
C232	C	1.655777	0.611965	0.448094
C233	C	0.905819	-0.068394	-0.301925
C234	C	1.155819	0.181606	-0.051925
C235	C	1.405819	0.431606	0.198075
C236	C	1.655819	0.681606	0.448075
C237	C	0.905534	-0.301671	-0.139072
C238	C	1.155534	-0.051671	0.110928
C239	C	1.405534	0.198329	0.360928
C240	C	1.655534	0.448329	0.610928
C241	C	0.905578	-0.301605	-0.069431
C242	C	1.155578	-0.051605	0.180569
C243	C	1.405578	0.198395	0.430569
C244	C	1.655578	0.448395	0.680569
C245	C	0.865263	-0.261797	-0.036754
C246	C	1.115263	-0.011797	0.213246
C247	C	1.365263	0.238203	0.463246
C248	C	1.615263	0.488203	0.713246
C249	C	0.865309	-0.261730	0.028682
C250	C	1.115309	-0.011730	0.278682
C251	C	1.365309	0.238270	0.528682
C252	C	1.615309	0.488270	0.778682
C253	C	0.905664	-0.301481	0.061437
C254	C	1.155664	-0.051481	0.311437
C255	C	1.405664	0.198519	0.561437
C256	C	1.655664	0.448519	0.811437
C257	C	0.945987	-0.341292	0.028753
C258	C	1.195987	-0.091292	0.278753
C259	C	1.445987	0.158708	0.528753
C260	C	1.695987	0.408708	0.778753
C261	C	0.945944	-0.341354	-0.036681
C262	C	1.195944	-0.091354	0.213319
C263	C	1.445944	0.158646	0.463319
C264	C	1.695944	0.408646	0.713319
C265	C	0.911053	-0.357796	0.165253
C266	C	1.161053	-0.107796	0.415253
C267	C	1.411053	0.142204	0.665253
C268	C	1.661053	0.392204	0.915253
C269	C	0.911092	-0.357736	0.230686
C270	C	1.161092	-0.107736	0.480686
C271	C	1.411092	0.142264	0.730686
C272	C	1.661092	0.392264	0.980686
C273	C	0.905800	-0.301291	0.263258
C274	C	1.155800	-0.051291	0.513258
C275	C	1.405800	0.198709	0.763258
C276	C	1.655800	0.448709	1.013258
C277	C	0.900456	-0.244904	0.230389
C278	C	1.150456	0.005096	0.480389
C279	C	1.400456	0.255096	0.730389
C280	C	1.650456	0.505096	0.980389
C281	C	0.900414	-0.244966	0.164955
C282	C	1.150414	0.005034	0.414955
C283	C	1.400414	0.255034	0.664955
C284	C	1.650414	0.505034	0.914955
C285	C	0.905715	-0.301419	0.132390
C286	C	1.155715	-0.051419	0.382390
C287	C	1.405715	0.198581	0.632390
C288	C	1.655715	0.448581	0.882390
C289	C	0.865533	-0.261406	0.366887
C290	C	1.115533	-0.011406	0.616887
C291	C	1.365533	0.238594	0.866887
C292	C	1.615533	0.488594	1.116887
C293	C	0.865583	-0.261338	0.432323
C294	C	1.115583	-0.011338	0.682323
C295	C	1.365583	0.238662	0.932323
C296	C	1.615583	0.488662	1.182323
C297	C	0.946258	-0.340905	0.432393
C298	C	1.196258	-0.090905	0.682393
C299	C	1.446258	0.159095	0.932393
C300	C	1.696258	0.409095	1.182393
C301	C	0.946210	-0.340968	0.366958
C302	C	1.196210	-0.090968	0.616958
C303	C	1.446210	0.159032	0.866958
C304	C	1.696210	0.409032	1.116958
C305	C	0.905845	-0.301220	0.334209
C306	C	1.155845	-0.051220	0.584209
C307	C	1.405845	0.198780	0.834209
C308	C	1.655845	0.448780	1.084209
H309	H	0.263474	-0.228786	-0.229308
H310	H	0.513474	0.021214	0.020692
H311	H	0.763474	0.271214	0.270692
H312	H	1.013474	0.521214	0.520692
H313	H	0.465322	-0.403877	-0.310654
H314	H	0.715322	-0.153877	-0.060654
H315	H	0.965322	0.096123	0.189346
H316	H	1.215322	0.346123	0.439346
H317	H	0.915365	-0.403764	0.138738
H318	H	1.165365	-0.153764	0.388738
H319	H	1.415365	0.096236	0.638738
H320	H	1.665365	0.346236	0.888738
Br321	Br	0.281380	-0.395912	-0.396162
Br322	Br	0.531380	-0.145912	-0.146162
Br323	Br	0.781380	0.104088	0.103838
Br324	Br	1.031380	0.354088	0.353838
H325	H	0.346610	-0.403886	-0.310660
H326	H	0.596610	-0.153886	-0.060660
H327	H	0.846610	0.096114	0.189340
H328	H	1.096610	0.346114	0.439340
Br329	Br	0.894071	-0.878534	-0.168809
Br330	Br	1.144071	-0.628534	0.081191
Br331	Br	1.394071	-0.378534	0.331191
Br332	Br	1.644071	-0.128534	0.581191
H333	H	0.978385	-0.658465	-0.374624
H334	H	1.228385	-0.408465	-0.124624
H335	H	1.478385	-0.158465	0.125376
H336	H	1.728385	0.091535	0.375376
Br337	Br	0.892981	-0.168323	0.274585
Br338	Br	1.142981	0.081677	0.524585
Br339	Br	1.392981	0.331677	0.774585
Br340	Br	1.642981	0.581677	1.024585
Br341	Br	0.917387	-0.723739	-0.434940
Br342	Br	1.167387	-0.473739	-0.184940
Br343	Br	1.417387	-0.223739	0.065060
Br344	Br	1.667387	0.026261	0.315060
Br345	Br	1.000760	-0.395235	0.073205
Br346	Br	1.250760	-0.145235	0.323205
Br347	Br	1.500760	0.104765	0.573205
Br348	Br	1.750760	0.354765	0.823205
H349	H	0.978500	-0.943395	-0.374665
H350	H	1.228500	-0.693395	-0.124665
H351	H	1.478500	-0.443395	0.125335
H352	H	1.728500	-0.193395	0.375335
H353	H	0.548525	-0.374144	-0.374434
H354	H	0.798525	-0.124144	-0.124434
H355	H	1.048525	0.125856	0.125566
H356	H	1.298525	0.375856	0.375566
Br357	Br	1.000661	-0.395383	-0.081032
Br358	Br	1.250661	-0.145383	0.168968
Br359	Br	1.500661	0.104617	0.418968
Br360	Br	1.750661	0.354617	0.668968
Br361	Br	0.917444	-0.877975	-0.434969
Br362	Br	1.167444	-0.627975	-0.184969
Br363	Br	1.417444	-0.377975	0.065031
Br364	Br	1.667444	-0.127975	0.315031
H365	H	0.978536	-1.062102	-0.374690
H366	H	1.228536	-0.812102	-0.124690
H367	H	1.478536	-0.562102	0.125310
H368	H	1.728536	-0.312102	0.375310
H369	H	0.896067	-0.199055	0.138196
H370	H	1.146067	0.050945	0.388196
H371	H	1.396067	0.300945	0.638196
H372	H	1.646067	0.550945	0.888196
H373	H	0.667110	-0.228759	-0.229280
H374	H	0.917110	0.021241	0.020720
H375	H	1.167110	0.271241	0.270720
H376	H	1.417110	0.521241	0.520720
Br377	Br	0.894099	-0.724301	-0.168776
Br378	Br	1.144099	-0.474301	0.081224
Br379	Br	1.394099	-0.224301	0.331224
Br380	Br	1.644099	0.025699	0.581224
H381	H	0.833093	-1.062527	-0.229162
H382	H	1.083093	-0.812527	0.020838
H383	H	1.333093	-0.562527	0.270838
H384	H	1.583093	-0.312527	0.520838
H385	H	0.979118	-0.373269	0.459062
H386	H	1.229118	-0.123269	0.709062
H387	H	1.479118	0.126731	0.959062
H388	H	1.729118	0.376731	1.209062
Br389	Br	0.811280	-0.926115	-0.207367
Br390	Br	1.061280	-0.676115	0.042633
Br391	Br	1.311280	-0.426115	0.292633
Br392	Br	1.561280	-0.176115	0.542633
H393	H	0.667232	-0.374144	-0.374416
H394	H	0.917232	-0.124144	-0.124416
H395	H	1.167232	0.125856	0.125584
H396	H	1.417232	0.375856	0.375584
Br397	Br	0.530617	-0.207014	-0.207575
Br398	Br	0.780617	0.042986	0.042425
Br399	Br	1.030617	0.292986	0.292425
Br400	Br	1.280617	0.542986	0.542425
H401	H	0.832946	-0.658890	-0.229095
H402	H	1.082946	-0.408890	0.020905
H403	H	1.332946	-0.158890	0.270905
H404	H	1.582946	0.091110	0.520905
Br405	Br	1.000105	-0.521933	-0.396366
Br406	Br	1.250105	-0.271933	-0.146366
Br407	Br	1.500105	-0.021933	0.103634
Br408	Br	1.750105	0.228067	0.353634
H409	H	0.465379	-0.199037	-0.293093
H410	H	0.715379	0.050963	-0.043093
H411	H	0.965379	0.300963	0.206907
H412	H	1.215379	0.550963	0.456907
Br413	Br	0.328920	-0.168400	-0.290459
Br414	Br	0.578920	0.081600	-0.040459
Br415	Br	0.828920	0.331600	0.209541
Br416	Br	1.078920	0.581600	0.459541
H417	H	0.832669	-0.229036	0.340221
H418	H	1.082669	0.020964	0.590221
H419	H	1.332669	0.270964	0.840221
H420	H	1.582669	0.520964	1.090221
H421	H	0.832894	-0.540176	-0.229075
H422	H	1.082894	-0.290176	0.020925
H423	H	1.332894	-0.040176	0.270925
H424	H	1.582894	0.209824	0.520925
H425	H	0.144760	-0.228794	-0.229307
H426	H	0.394760	0.021206	0.020693
H427	H	0.644760	0.271206	0.270693
H428	H	0.894760	0.521206	0.520693
H429	H	0.832480	-0.229311	0.055292
H430	H	1.082480	0.020689	0.305292
H431	H	1.332480	0.270689	0.555292
H432	H	1.582480	0.520689	0.805292
Br433	Br	0.127145	-0.395921	-0.396177
Br434	Br	0.377145	-0.145921	-0.146177
Br435	Br	0.627145	0.104079	0.103823
Br436	Br	0.877145	0.354079	0.353823
H437	H	0.832394	-0.229431	-0.063414
H438	H	1.082394	0.020569	0.186586
H439	H	1.332394	0.270569	0.436586
H440	H	1.582394	0.520569	0.686586
H441	H	0.832755	-0.228918	0.458928
H442	H	1.082755	0.021082	0.708928
H443	H	1.332755	0.271082	0.958928
H444	H	1.582755	0.521082	1.208928
Br445	Br	1.000923	-0.395000	0.322607
Br446	Br	1.250923	-0.145000	0.572607
Br447	Br	1.500923	0.105000	0.822607
Br448	Br	1.750923	0.355000	1.072607
H449	H	0.915379	-0.403654	0.257443
H450	H	1.165379	-0.153654	0.507443
H451	H	1.415379	0.096346	0.757443
H452	H	1.665379	0.346346	1.007443
