data_functionalizedCrystal
_audit_creation_method	'MofGen! by Chris Wilmer'
_symmetry_space_group_name_H-M	'P1'
_symmetry_Int_Tables_number	1
_symmetry_cell_setting	triclinic
loop_
_symmetry_equiv_pos_as_xyz
  x,y,z
_cell_length_a	10.723024
_cell_length_b	15.538191
_cell_length_c	9.798715
_cell_angle_alpha	89.999989
_cell_angle_beta	89.996609
_cell_angle_gamma	65.869982
loop_
_atom_site_label
_atom_site_type_symbol
_atom_site_fract_x
_atom_site_fract_y
_atom_site_fract_z
O1	O	1.596023	0.131734	-0.113468
O2	O	1.227016	0.144344	-0.113471
O3	O	1.483350	0.001374	-0.113475
O4	O	1.339689	0.274704	-0.113464
O5	O	1.483336	0.001373	0.113507
O6	O	1.227002	0.144343	0.113511
O7	O	1.596009	0.131734	0.113514
Zn8	Zn	1.411503	0.138038	0.149551
Zn9	Zn	1.411522	0.138039	-0.149508
O10	O	1.339675	0.274704	0.113518
C11	C	1.180936	0.143426	0.000019
C12	C	1.043656	0.140680	0.000017
C13	C	0.931530	0.220679	0.000020
C14	C	0.789643	0.217843	0.000018
C15	C	1.498374	-0.033625	0.000011
C16	C	1.543145	-0.137909	-0.000002
C17	C	1.098353	-0.428574	0.000023
C18	C	1.140454	-0.526568	0.000027
C19	C	1.377262	-0.547481	0.000028
C20	C	1.335181	-0.449487	0.000018
C21	C	1.195724	-0.390041	0.000017
C22	C	1.432552	-0.410953	0.000012
C23	C	1.390474	-0.312968	0.000009
C24	C	1.251024	-0.253516	0.000012
C25	C	1.153646	-0.292055	0.000014
C26	C	1.572008	-0.470401	0.000023
C27	C	1.669379	-0.431867	0.000017
C28	C	1.627302	-0.333880	0.000004
C29	C	1.487852	-0.274428	0.000007
C30	C	1.724680	-0.295341	0.000002
C31	C	1.682601	-0.197355	-0.000001
C32	C	1.445773	-0.176443	0.000004
C33	C	1.642090	0.132651	0.000021
C34	C	1.779369	0.135397	0.000014
C35	C	1.324652	0.309702	0.000029
C36	C	1.279880	0.413987	0.000033
N37	N	1.411500	0.138037	0.353651
N38	N	1.411539	0.138032	-0.353608
C39	C	1.519250	0.077744	0.421426
C40	C	1.519272	0.077741	0.578589
H41	H	0.875594	0.066908	0.000003
O42	O	1.629334	0.016025	0.647962
C43	C	1.650858	-0.077046	0.613173
H44	H	1.602908	-0.077225	0.509401
H45	H	1.765254	-0.122848	0.608411
H46	H	1.601819	-0.106325	0.693574
O47	O	0.962845	-0.370914	-0.000172
C48	C	0.901110	-0.388478	-0.117751
H49	H	0.965326	-0.462599	-0.156937
H50	H	0.794214	-0.382254	-0.091324
H51	H	0.893868	-0.334787	-0.200069
H52	H	0.940578	0.291268	0.000031
H53	H	1.761891	-0.165981	-0.000004
H54	H	0.693413	0.286328	0.000015
O55	O	1.210307	-0.158346	0.000190
C56	C	1.261160	-0.131335	0.117762
H57	H	1.354552	-0.193902	0.156957
H58	H	1.291216	-0.070919	0.091319
H59	H	1.178836	-0.107340	0.200078
H60	H	1.034608	0.070091	-0.000021
O61	O	1.613057	-0.565600	-0.000157
C62	C	1.692057	-0.604070	-0.117725
H63	H	1.736949	-0.553705	-0.156913
H64	H	1.778422	-0.674760	-0.091281
H65	H	1.624685	-0.614852	-0.200048
O66	O	1.301540	0.199751	0.576942
C67	C	1.279968	0.292822	0.611788
H68	H	1.379436	0.293783	0.651137
H69	H	1.244568	0.339821	0.517764
H70	H	1.198460	0.320122	0.694639
O71	O	1.310266	-0.118783	-0.000191
C72	C	1.248531	-0.136347	-0.117770
H73	H	1.312747	-0.210468	-0.156956
H74	H	1.141635	-0.130122	-0.091343
H75	H	1.241289	-0.082655	-0.200088
O76	O	1.018139	-0.234395	-0.000181
C77	C	0.956404	-0.251960	-0.117760
H78	H	1.020619	-0.326080	-0.156946
H79	H	0.849508	-0.245735	-0.091333
H80	H	0.949161	-0.198268	-0.200078
H81	H	1.061151	-0.557937	0.000052
O82	O	1.512669	-0.605364	-0.000033
C83	C	1.528932	-0.700113	0.000010
H84	H	1.432915	-0.704512	-0.042954
H85	H	1.620549	-0.744033	-0.065891
H86	H	1.546485	-0.728409	0.108907
O87	O	1.804857	-0.489576	0.000253
C88	C	1.866621	-0.471973	0.117782
H89	H	1.785773	-0.438918	0.199955
H90	H	1.948009	-0.541153	0.157237
H91	H	1.916026	-0.421615	0.091193
H92	H	1.838225	-0.343756	0.000016
H93	H	1.611482	0.026122	0.363102
O94	O	1.301467	0.199490	0.423373
C95	C	1.247311	0.148777	0.506012
H96	H	1.329954	0.075523	0.527261
H97	H	1.210133	0.187806	0.606556
H98	H	1.158057	0.141996	0.451045
