data_functionalizedCrystal
_audit_creation_method	'MofGen! by Chris Wilmer'
_symmetry_space_group_name_H-M	'P1'
_symmetry_Int_Tables_number	1
_symmetry_cell_setting	triclinic
loop_
_symmetry_equiv_pos_as_xyz
  x,y,z
_cell_length_a	19.288864
_cell_length_b	15.995350
_cell_length_c	17.766277
_cell_angle_alpha	89.995869
_cell_angle_beta	89.976791
_cell_angle_gamma	83.314311
loop_
_atom_site_label
_atom_site_type_symbol
_atom_site_fract_x
_atom_site_fract_y
_atom_site_fract_z
O1	O	0.921624	0.104452	-0.062832
O2	O	0.719400	0.118542	-0.062780
O3	O	0.826040	-0.010412	-0.062807
O4	O	0.814984	0.233405	-0.062805
O5	O	0.826021	-0.010418	0.062382
O6	O	0.719381	0.118535	0.062408
O7	O	0.921605	0.104445	0.062357
Cu8	Cu	0.820492	0.111490	0.073813
Cu9	Cu	0.820514	0.111497	-0.074237
O10	O	0.814965	0.233399	0.062383
C11	C	0.693513	0.118085	-0.000179
C12	C	0.616406	0.116724	-0.000159
C13	C	0.825574	-0.041608	-0.000214
C14	C	0.824203	-0.134553	-0.000218
C15	C	0.571906	0.192388	-0.000171
C16	C	0.499456	0.191110	-0.000179
C17	C	0.471508	0.114163	-0.000191
C18	C	0.516018	0.038489	-0.000176
C19	C	0.588467	0.039769	-0.000160
C20	C	0.363096	0.053676	-0.044076
C21	C	0.290648	0.052398	-0.044097
C22	C	0.248053	0.110209	-0.000237
C23	C	0.277912	0.169312	0.043634
C24	C	0.350361	0.170593	0.043650
C25	C	0.392951	0.112765	-0.000208
C26	C	0.124993	0.184492	-0.000256
C27	C	0.052542	0.183210	-0.000260
C28	C	0.069106	0.030587	-0.000264
C29	C	0.141556	0.031871	-0.000253
C30	C	0.169495	0.108826	-0.000252
C31	C	0.819282	-0.472282	-0.000214
C32	C	0.743335	-0.424562	-0.000475
C33	C	0.744706	-0.327877	-0.000193
C34	C	0.821723	-0.304731	-0.000216
C35	C	0.859172	-0.345953	0.071262
C36	C	0.857264	-0.442582	0.071322
C37	C	0.858855	-0.442939	-0.071041
C38	C	0.858837	-0.345993	-0.071986
C39	C	0.823107	-0.210039	-0.000215
C40	C	0.817901	-0.566975	-0.000210
C41	C	0.947492	0.104902	-0.000246
C42	C	1.024600	0.106263	-0.000271
C43	C	0.815432	0.264595	-0.000211
C44	C	0.816802	0.357540	-0.000212
N45	N	0.820481	0.111484	0.177944
N46	N	0.820530	0.111497	-0.178367
C47	C	0.867717	0.054411	0.217319
C48	C	0.867721	0.054407	0.296120
C49	C	0.820496	0.111490	0.335544
C50	C	0.773251	0.168567	0.296160
C51	C	0.773244	0.168564	0.217359
C52	C	0.811395	0.187781	0.460384
C53	C	0.811407	0.187785	0.539183
C54	C	0.820514	0.111500	0.578590
C55	C	0.829624	0.035208	0.539190
C56	C	0.829617	0.035204	0.460389
C57	C	0.820498	0.111500	0.420990
C58	C	0.867757	0.054419	0.703411
C59	C	0.867756	0.054414	0.782215
C60	C	0.773290	0.168581	0.782252
C61	C	0.773288	0.168579	0.703451
C62	C	0.820525	0.111499	0.664035
H63	H	0.463217	0.252727	-0.000186
H64	H	0.914850	-0.474911	-0.071538
N65	N	0.822632	-0.309695	-0.142039
H66	H	0.804489	-0.356282	-0.171898
H67	H	0.782382	-0.266690	-0.127300
H68	H	0.397772	0.006598	-0.079796
H69	H	0.493259	-0.024162	-0.000196
H70	H	0.046352	-0.032065	-0.000320
H71	H	0.833147	-0.317477	0.124469
N72	N	0.602032	0.275392	-0.000172
H73	H	0.585775	0.308530	0.046231
H74	H	0.654676	0.264662	-0.000190
H75	H	0.374670	0.218713	0.079373
N76	N	0.705438	-0.290810	0.067814
H77	H	0.655522	-0.303973	0.065630
H78	H	0.728373	-0.315865	0.115066
N79	N	0.821073	-0.466701	0.142116
H80	H	0.806505	-0.414586	0.172989
H81	H	0.778443	-0.494492	0.128215
H82	H	0.734836	0.215056	0.814350
N83	N	0.231981	0.231676	0.090940
H84	H	0.181554	0.221897	0.084277
H85	H	0.245467	0.224071	0.145649
N86	N	0.918661	-0.007154	0.174806
H87	H	0.948584	-0.043311	0.211712
H88	H	0.892070	-0.044093	0.142132
N89	N	0.918715	-0.007142	0.824681
H90	H	0.892190	-0.044146	0.857393
H91	H	0.948622	-0.043234	0.787697
N92	N	0.155132	0.267490	-0.000241
H93	H	0.207781	0.256820	-0.000235
H94	H	0.138875	0.300593	-0.046651
H95	H	0.906187	0.007930	0.328186
H96	H	0.713107	-0.444044	0.050512
N97	N	0.636466	-0.041845	-0.000159
H98	H	0.686602	-0.029357	-0.000151
H99	H	0.627397	-0.075395	0.046247
H100	H	0.803994	0.249907	0.571257
H101	H	0.715268	-0.299341	-0.051431
N102	N	0.703128	-0.448951	-0.068367
H103	H	0.733750	-0.491173	-0.099614
H104	H	0.660425	-0.474729	-0.051232
N105	N	0.839440	-0.047076	0.417894
H106	H	0.838056	-0.035499	0.361996
H107	H	0.886011	-0.078946	0.431647
N108	N	0.931121	-0.485573	0.075617
H109	H	0.936732	-0.521473	0.122477
H110	H	0.941301	-0.522274	0.029760
N111	N	0.189550	-0.049744	-0.000252
H112	H	0.220004	-0.052612	-0.046653
H113	H	0.219908	-0.052573	0.046193
N114	N	0.934130	-0.327559	0.074753
H115	H	0.944558	-0.292238	0.029929
H116	H	0.941855	-0.295942	0.122657
N117	N	0.825979	-0.470019	-0.142806
H118	H	0.775671	-0.444259	-0.145154
H119	H	0.852224	-0.450543	-0.187493
H120	H	0.016310	0.244828	-0.000265
N121	N	0.258443	-0.011343	-0.091410
H122	H	0.270238	-0.003328	-0.146135
H123	H	0.277446	-0.070001	-0.074963
N124	N	0.933236	-0.325932	-0.077731
H125	H	0.943986	-0.289652	-0.033694
H126	H	0.965998	-0.379994	-0.077127
H127	H	0.837040	-0.026911	0.571273
N128	N	0.722344	0.230149	0.660984
H129	H	0.748880	0.267141	0.628272
H130	H	0.691600	0.198188	0.628354
H131	H	0.803967	0.249906	0.428305
H132	H	0.734799	0.215044	0.328262
N133	N	0.722293	0.230121	0.174885
H134	H	0.692373	0.266281	0.211814
H135	H	0.748877	0.267057	0.142172
N136	N	0.918700	-0.007145	0.660892
H137	H	0.948621	-0.043307	0.697797
H138	H	0.892110	-0.044079	0.628212
