data_functionalizedCrystal
_audit_creation_method	'MofGen! by Chris Wilmer'
_symmetry_space_group_name_H-M	'P1'
_symmetry_Int_Tables_number	1
_symmetry_cell_setting	triclinic
loop_
_symmetry_equiv_pos_as_xyz
  x,y,z
_cell_length_a	12.837943
_cell_length_b	27.732048
_cell_length_c	11.892095
_cell_angle_alpha	93.851775
_cell_angle_beta	85.689438
_cell_angle_gamma	88.735798
loop_
_atom_site_label
_atom_site_type_symbol
_atom_site_fract_x
_atom_site_fract_y
_atom_site_fract_z
O1	O	1.380115	0.122782	-0.094008
O2	O	1.078409	0.116579	-0.094014
O3	O	1.238631	0.049749	-0.093989
O4	O	1.219894	0.189612	-0.094033
O5	O	1.225272	0.055311	0.094016
O6	O	1.065051	0.122142	0.093992
O7	O	1.366757	0.128345	0.093997
Zn8	Zn	1.213783	0.126126	0.123844
Zn9	Zn	1.231383	0.118797	-0.123861
O10	O	1.206535	0.195175	0.093973
C11	C	1.033143	0.117265	-0.000011
C12	C	0.918166	0.111016	-0.000012
C13	C	0.676005	0.186144	-0.000019
C14	C	0.567973	0.180275	-0.000020
C15	C	0.594068	0.093407	-0.000005
C16	C	0.702100	0.099277	-0.000005
C17	C	0.743064	0.145647	-0.000014
C18	C	0.851099	0.151516	-0.000022
C19	C	0.877191	0.064649	0.000001
C20	C	0.769159	0.058780	0.000001
C21	C	1.231558	0.034504	0.000017
C22	C	1.230373	-0.019210	0.000026
C23	C	1.317601	-0.353705	-0.000031
C24	C	1.313207	-0.555583	-0.000046
O25	O	1.392971	-0.582888	-0.000094
N26	N	1.218201	-0.579414	-0.000047
C27	C	1.124288	-0.552772	-0.000051
O28	O	1.043379	-0.577674	-0.000064
C29	C	1.128683	-0.350895	-0.000043
C30	C	1.223695	-0.327067	-0.000031
C31	C	1.412605	-0.329876	-0.000020
C32	C	1.413702	-0.279410	-0.000010
C33	C	1.319795	-0.252772	-0.000010
C34	C	1.224792	-0.276600	-0.000021
C35	C	1.034772	-0.324255	-0.000056
C36	C	1.035879	-0.273783	-0.000056
C37	C	1.130890	-0.249954	-0.000044
C38	C	1.131982	-0.199496	-0.000012
N39	N	1.226988	-0.175665	-0.000011
C40	C	1.320894	-0.202303	-0.000010
C41	C	1.121987	-0.658760	-0.000053
C42	C	1.120887	-0.709229	-0.000053
C43	C	1.309807	-0.712036	-0.000050
C44	C	1.310905	-0.661566	-0.000042
C45	C	1.216992	-0.634929	-0.000052
C46	C	1.323191	-0.096319	0.000012
C47	C	1.324280	-0.045848	0.000027
C48	C	1.135361	-0.043045	0.000018
C49	C	1.134271	-0.093512	0.000009
C50	C	1.228195	-0.120148	0.000002
O51	O	1.052262	-0.172160	0.000024
O52	O	1.401793	-0.177392	-0.000023
C53	C	1.316504	-0.404172	-0.000041
C54	C	1.221500	-0.428000	-0.000051
C55	C	1.127594	-0.401362	-0.000052
C56	C	1.220401	-0.478469	-0.000051
C57	C	1.314308	-0.505107	-0.000051
C58	C	1.409314	-0.481276	-0.000050
C59	C	1.410411	-0.430810	-0.000040
C60	C	1.032588	-0.425193	-0.000053
C61	C	1.031499	-0.475660	-0.000062
C62	C	1.125405	-0.502298	-0.000061
C63	C	1.412023	0.127658	-0.000008
C64	C	1.527001	0.133908	-0.000014
C65	C	1.213608	0.210420	-0.000035
C66	C	1.214794	0.264133	-0.000052
N67	N	1.201778	0.131128	0.292897
N68	N	1.243396	0.113792	-0.292913
C69	C	1.326930	0.078958	0.529564
C70	C	1.318546	0.082459	0.647904
C71	C	1.176623	0.141626	0.647921
C72	C	1.185007	0.138126	0.529580
C73	C	1.260163	0.106791	0.470406
C74	C	1.268551	0.103294	0.352063
C75	C	1.126624	0.162459	0.352082
C76	C	1.118240	0.165959	0.470422
H77	H	0.709358	0.223900	-0.000028
C78	C	1.409599	0.044495	0.464469
H79	H	1.448161	0.028418	0.516651
H80	H	1.455705	0.062502	0.418287
H81	H	1.375925	0.021295	0.418321
H82	H	1.115425	0.167134	0.696116
H83	H	0.513376	0.213252	-0.000021
H84	H	0.884449	0.189273	-0.000027
C85	C	0.548993	0.042407	0.000017
H86	H	0.475049	0.044713	0.000015
H87	H	0.567404	0.027462	0.065582
H88	H	0.576707	0.023582	-0.065549
H89	H	1.372913	0.059793	0.696067
C90	C	1.053177	0.193078	0.287011
H91	H	1.007225	0.212243	0.339206
H92	H	1.013607	0.172344	0.240855
H93	H	1.093398	0.213547	0.240840
C94	C	0.724097	0.007776	0.000006
H95	H	0.779511	-0.015502	0.000015
H96	H	0.687152	0.001744	-0.065554
H97	H	0.677842	0.005617	0.065578
C98	C	0.950959	0.020100	0.000006
H99	H	1.021166	0.030236	0.000009
H100	H	0.943268	-0.000645	-0.065552
H101	H	0.933960	0.003231	0.065580
C102	C	0.926982	-0.501868	-0.000076
H103	H	0.939767	-0.535741	-0.000076
H104	H	0.893018	-0.494949	-0.065640
H105	H	0.883689	-0.491085	0.065492
H106	H	1.401652	-0.026449	0.000039
H107	H	0.957404	-0.343648	-0.000072
C108	C	1.426504	-0.125611	0.000014
H109	H	1.483234	-0.104185	0.000032
H110	H	1.434676	-0.147293	-0.065548
H111	H	1.425344	-0.143421	0.065584
C112	C	1.035579	0.200426	0.535520
H113	H	1.040152	0.198527	0.614473
H114	H	0.967905	0.191410	0.516143
H115	H	1.047701	0.232610	0.516115
H116	H	1.489079	-0.351560	-0.000023
C117	C	1.518216	-0.253205	-0.000018
H118	H	1.573979	-0.276304	-0.000032
H119	H	1.517931	-0.231638	0.065540
H120	H	1.527228	-0.235515	-0.065591
H121	H	1.386269	-0.733734	-0.000049
C122	C	1.415416	-0.635360	-0.000040
H123	H	1.471181	-0.658457	-0.000045
H124	H	1.415120	-0.613793	0.065519
H125	H	1.424435	-0.617669	-0.065613
C126	C	1.016375	-0.735435	-0.000057
H127	H	0.960611	-0.712338	-0.000069
H128	H	1.007351	-0.753130	0.065501
H129	H	1.016679	-0.756998	-0.065631
H130	H	1.045507	-0.637077	-0.000061
H131	H	0.959402	-0.252098	-0.000066
H132	H	1.056903	-0.112913	0.000031
H133	H	1.058904	-0.021347	0.000022
H134	H	1.487778	-0.411413	-0.000030
C135	C	1.512608	-0.510585	-0.000058
H136	H	1.498338	-0.544054	-0.000075
H137	H	1.546953	-0.500961	0.065501
H138	H	1.556252	-0.504827	-0.065631
H139	H	1.329750	0.077782	0.303884
H140	H	0.956116	-0.403509	-0.000056
