data_functionalizedCrystal
_audit_creation_method	'MofGen! by Chris Wilmer'
_symmetry_space_group_name_H-M	'P1'
_symmetry_Int_Tables_number	1
_symmetry_cell_setting	triclinic
loop_
_symmetry_equiv_pos_as_xyz
  x,y,z
_cell_length_a	12.827893
_cell_length_b	16.959454
_cell_length_c	12.827885
_cell_angle_alpha	89.970356
_cell_angle_beta	89.980728
_cell_angle_gamma	90.020046
loop_
_atom_site_label
_atom_site_type_symbol
_atom_site_fract_x
_atom_site_fract_y
_atom_site_fract_z
Zn1	Zn	1.597636	-0.314644	-0.590850
Zn2	Zn	2.097636	0.185356	-0.090850
Zn3	Zn	1.597515	-0.446843	-0.416110
Zn4	Zn	2.097515	0.053157	0.083890
Zn5	Zn	1.422877	-0.314682	-0.416123
Zn6	Zn	1.922877	0.185318	0.083877
Zn7	Zn	1.422848	-0.446784	-0.590810
Zn8	Zn	1.922848	0.053216	-0.090810
O9	O	1.510219	-0.380738	-0.503473
O10	O	2.010219	0.119262	-0.003473
O11	O	1.743856	-0.332189	-0.567681
O12	O	2.243856	0.167811	-0.067681
O13	O	1.574311	-0.429352	-0.269876
O14	O	2.074311	0.070648	0.230124
O15	O	1.446122	-0.204066	-0.439323
O16	O	1.946122	0.295934	0.060677
O17	O	1.743767	-0.429315	-0.439301
O18	O	2.243767	0.070685	0.060699
O19	O	1.574516	-0.204038	-0.567694
O20	O	2.074516	0.295962	-0.067694
O21	O	1.446005	-0.332254	-0.269885
O22	O	1.946005	0.167746	0.230115
O23	O	1.276637	-0.332197	-0.439285
O24	O	1.776637	0.167803	0.060715
O25	O	1.446072	-0.429215	-0.737052
O26	O	1.946072	0.070785	-0.237052
O27	O	1.276616	-0.429252	-0.567627
O28	O	1.776616	0.070748	-0.067627
O29	O	1.574488	-0.332132	-0.737081
O30	O	2.074488	0.167868	-0.237081
O31	O	1.574283	-0.557446	-0.439263
O32	O	2.074283	-0.057446	0.060737
O33	O	1.445956	-0.557403	-0.567614
O34	O	1.945956	-0.057403	-0.067614
C35	C	1.238709	-0.380723	-0.503454
C36	C	1.738709	0.119277	-0.003454
C37	C	1.122556	-0.380736	-0.503470
C38	C	1.622556	0.119264	-0.003470
C39	C	1.510131	-0.586105	-0.503456
C40	C	2.010131	-0.086105	-0.003456
C41	C	1.510190	-0.673961	-0.503483
C42	C	2.010190	-0.173961	-0.003483
C43	C	1.070788	-0.428836	-0.566880
C44	C	1.570788	0.071164	-0.066880
C45	C	0.950738	-0.428850	-0.566898
C46	C	1.450738	0.071150	-0.066898
C47	C	1.443496	-1.045444	-0.570299
C48	C	1.943496	-0.545444	-0.070299
C49	C	1.577233	-1.045429	-0.436755
C50	C	2.077233	-0.545429	0.063245
C51	C	1.577197	-0.962883	-0.436745
C52	C	2.077197	-0.462883	0.063255
C53	C	1.510308	-0.921614	-0.503512
C54	C	2.010308	-0.421614	-0.003512
C55	C	1.443455	-0.962891	-0.570289
C56	C	1.943455	-0.462891	-0.070289
C57	C	1.644041	-0.921601	-0.369962
C58	C	2.144041	-0.421601	0.130038
C59	C	1.644006	-0.839050	-0.369949
C60	C	2.144006	-0.339050	0.130051
C61	C	1.577121	-0.797779	-0.436722
C62	C	2.077121	-0.297779	0.063278
C63	C	1.510267	-0.839061	-0.503502
C64	C	2.010267	-0.339061	-0.003502
C65	C	1.443378	-0.797791	-0.570270
C66	C	1.943378	-0.297791	-0.070270
C67	C	1.376528	-0.839071	-0.637056
C68	C	1.876528	-0.339071	-0.137056
C69	C	1.376571	-0.921620	-0.637062
C70	C	1.876571	-0.421620	-0.137062
C71	C	1.577079	-0.715231	-0.436716
C72	C	2.077079	-0.215231	0.063284
C73	C	1.443337	-0.715238	-0.570260
C74	C	1.943337	-0.215238	-0.070260
C75	C	1.782789	-0.380754	-0.503494
C76	C	2.282789	0.119246	-0.003494
C77	C	1.898942	-0.380761	-0.503503
C78	C	2.398942	0.119239	-0.003503
C79	C	1.510290	-0.380662	-0.776044
C80	C	2.010290	0.119338	-0.276044
C81	C	1.510320	-0.380630	-0.892197
C82	C	2.010320	0.119370	-0.392197
C83	C	1.510335	-0.174570	-0.503514
C84	C	2.010335	0.325430	-0.003514
C85	C	1.510385	-0.086714	-0.503532
C86	C	2.010385	0.413286	-0.003532
C87	C	1.573871	-0.332581	-0.943996
C88	C	2.073871	0.167419	-0.443996
C89	C	1.573904	-0.332546	-1.064046
C90	C	2.073904	0.167454	-0.564046
C91	C	1.510208	-0.380757	-0.231964
C92	C	2.010208	0.119243	0.268036
C93	C	1.510380	-0.380567	-0.115811
C94	C	2.010380	0.119433	0.384189
H95	H	1.115345	-0.470004	-0.621157
H96	H	1.615345	0.029996	-0.121157
N97	N	1.371194	-0.670723	-0.642272
N98	N	1.871194	-0.170723	-0.142272
H99	H	1.387390	-0.685043	-0.716955
H100	H	1.887390	-0.185043	-0.216955
H101	H	1.296573	-0.685157	-0.625890
H102	H	1.796573	-0.185157	-0.125890
H103	H	1.455930	-0.421736	-0.936727
H104	H	1.955930	0.078264	-0.436727
N105	N	1.304374	-0.794557	-0.709058
N106	N	1.804374	-0.294557	-0.209058
H107	H	1.314493	-0.736000	-0.698908
H108	H	1.814493	-0.236000	-0.198908
H109	H	1.320602	-0.808933	-0.783712
H110	H	1.820602	-0.308933	-0.283712
H111	H	1.322144	-0.955238	-0.691435
H112	H	1.822144	-0.455238	-0.191435
N113	N	0.891781	-0.483403	-0.638814
N114	N	1.391781	0.016597	-0.138814
H115	H	0.910701	-0.539875	-0.622469
H116	H	1.410701	-0.039875	-0.122469
H117	H	0.814398	-0.475614	-0.628600
H118	H	1.314398	0.024386	-0.128600
H119	H	1.455973	-0.421708	-1.071272
H120	H	1.955973	0.078292	-0.571272
H121	H	1.077999	-0.339562	-0.449200
H122	H	1.577999	0.160438	0.050800
N123	N	0.957885	-0.326204	-0.431581
N124	N	1.457885	0.173796	0.068419
H125	H	1.003139	-0.358306	-0.383113
H126	H	1.503139	0.141694	0.116887
H127	H	1.003141	-0.289646	-0.474238
H128	H	1.503141	0.210354	0.025762
H129	H	1.628316	-0.291412	-1.108592
H130	H	2.128316	0.208588	-0.608592
N131	N	1.371398	-1.089960	-0.642333
N132	N	1.871398	-0.589960	-0.142333
H133	H	1.381571	-1.148517	-0.632214
H134	H	1.881571	-0.648517	-0.132214
H135	H	1.296767	-1.075580	-0.625998
H136	H	1.796767	-0.575580	-0.125998
N137	N	1.649357	-1.089936	-0.364727
N138	N	2.149357	-0.589936	0.135273
H139	H	1.639233	-1.148494	-0.374861
H140	H	2.139233	-0.648494	0.125139
H141	H	1.723980	-1.075467	-0.381048
H142	H	2.223980	-0.575467	0.118952
H143	H	1.698490	-0.955208	-0.315596
H144	H	2.198490	-0.455208	0.184404
H145	H	1.631502	-0.681624	-0.382334
H146	H	2.131502	-0.181624	0.117666
H147	H	1.628252	-0.291467	-0.899466
H148	H	2.128252	0.208533	-0.399466
H149	H	1.698439	-0.805445	-0.315569
H150	H	2.198439	-0.305445	0.184431
