data_functionalizedCrystal
_audit_creation_method	'MofGen! by Chris Wilmer'
_symmetry_space_group_name_H-M	'P1'
_symmetry_Int_Tables_number	1
_symmetry_cell_setting	triclinic
loop_
_symmetry_equiv_pos_as_xyz
  x,y,z
_cell_length_a	11.169416
_cell_length_b	21.395362
_cell_length_c	21.395356
_cell_angle_alpha	90.035770
_cell_angle_beta	89.981973
_cell_angle_gamma	89.973779
loop_
_atom_site_label
_atom_site_type_symbol
_atom_site_fract_x
_atom_site_fract_y
_atom_site_fract_z
Zn1	Zn	-0.477353	-0.957898	-0.354619
Zn2	Zn	0.022647	-0.457898	0.145381
Zn3	Zn	-0.678049	-0.957852	-0.249855
Zn4	Zn	-0.178049	-0.457852	0.250145
Zn5	Zn	-0.477434	-0.853127	-0.249820
Zn6	Zn	0.022566	-0.353127	0.250180
Zn7	Zn	-0.678049	-0.853119	-0.354560
Zn8	Zn	-0.178049	-0.353119	0.145440
O9	O	-0.577721	-0.905499	-0.302213
O10	O	-0.077721	-0.405499	0.197787
O11	O	-0.503942	-1.045569	-0.340761
O12	O	-0.003942	-0.545569	0.159239
O13	O	-0.651471	-0.943945	-0.162172
O14	O	-0.151471	-0.443945	0.337828
O15	O	-0.309474	-0.867048	-0.263732
O16	O	0.190526	-0.367048	0.236268
O17	O	-0.651392	-1.045536	-0.263792
O18	O	-0.151392	-0.545536	0.236208
O19	O	-0.309414	-0.944022	-0.340727
O20	O	0.190586	-0.444022	0.159273
O21	O	-0.504080	-0.867004	-0.162147
O22	O	-0.004080	-0.367004	0.337853
O23	O	-0.504080	-0.765448	-0.263675
O24	O	-0.004080	-0.265448	0.236325
O25	O	-0.651392	-0.867033	-0.442246
O26	O	-0.151392	-0.367033	0.057754
O27	O	-0.651470	-0.765442	-0.340626
O28	O	-0.151470	-0.265442	0.159374
O29	O	-0.503942	-0.944014	-0.442289
O30	O	-0.003942	-0.444014	0.057711
O31	O	-0.845999	-0.943937	-0.263734
O32	O	-0.345999	-0.443937	0.236266
O33	O	-0.845998	-0.866990	-0.340661
O34	O	-0.345998	-0.366990	0.159339
C35	C	-0.889546	-0.905474	-0.302209
C36	C	-0.389546	-0.405474	0.197791
C37	C	-1.022946	-0.905521	-0.302228
C38	C	-0.522946	-0.405521	0.197772
C39	C	-0.577785	-0.742711	-0.302141
C40	C	-0.077785	-0.242711	0.197859
C41	C	-0.577841	-0.673070	-0.302124
C42	C	-0.077841	-0.173070	0.197876
C43	C	-0.577658	-0.905528	-0.465637
C44	C	-0.077658	-0.405528	0.034363
C45	C	-0.577631	-0.905540	-0.535278
C46	C	-0.077631	-0.405540	-0.035278
C47	C	-0.264679	-0.905541	-0.302232
C48	C	0.235321	-0.405541	0.197768
C49	C	-0.131279	-0.905559	-0.302240
C50	C	0.368721	-0.405559	0.197760
C51	C	-0.577658	-1.068922	-0.302287
C52	C	-0.077658	-0.568922	0.197713
C53	C	-0.577632	-1.138564	-0.302318
C54	C	-0.077632	-0.638564	0.197682
C55	C	-0.654689	-0.640370	-0.342133
C56	C	-0.154689	-0.140370	0.157867
C57	C	-0.654659	-0.574935	-0.342161
C58	C	-0.154659	-0.074935	0.157839
C59	C	-0.577795	-0.542202	-0.302169
C60	C	-0.077795	-0.042202	0.197831
C61	C	-0.500932	-0.574910	-0.262157
C62	C	-0.000932	-0.074910	0.237843
C63	C	-0.500955	-0.640344	-0.262135
C64	C	-0.000955	-0.140344	0.237865
C65	C	-0.568139	-0.438483	-0.245763
C66	C	-0.068139	0.061517	0.254237
C67	C	-0.568125	-0.373050	-0.245784
C68	C	-0.068125	0.126950	0.254216
C69	C	-0.577716	-0.340381	-0.302238
C70	C	-0.077716	0.159619	0.197762
C71	C	-0.587348	-0.373153	-0.358673
C72	C	-0.087348	0.126847	0.141327
C73	C	-0.587371	-0.438587	-0.358650
C74	C	-0.087371	0.061413	0.141350
C75	C	-0.577760	-0.471249	-0.302189
C76	C	-0.077760	0.028751	0.197811
C77	C	-0.654536	-0.236729	-0.342281
C78	C	-0.154536	0.263271	0.157719
C79	C	-0.654499	-0.171292	-0.342310
C80	C	-0.154499	0.328708	0.157690
C81	C	-0.500777	-0.171268	-0.262300
C82	C	-0.000777	0.328732	0.237700
C83	C	-0.500809	-0.236704	-0.262277
C84	C	-0.000809	0.263296	0.237723
C85	C	-0.577695	-0.269430	-0.302266
C86	C	-0.077695	0.230570	0.197734
C87	C	-0.654126	-0.945673	-1.037088
C88	C	-0.154126	-0.445673	-0.537088
C89	C	-0.654164	-0.945662	-0.971653
C90	C	-0.154164	-0.445662	-0.471653
C91	C	-0.577441	-0.905600	-0.938917
C92	C	-0.077441	-0.405600	-0.438917
C93	C	-0.500696	-0.865534	-0.971621
C94	C	-0.000696	-0.365534	-0.471621
C95	C	-0.500668	-0.865542	-1.037055
C96	C	-0.000668	-0.365542	-0.537055
C97	C	-0.469356	-0.900654	-0.835252
C98	C	0.030644	-0.400654	-0.335252
C99	C	-0.469381	-0.900651	-0.769819
C100	C	0.030619	-0.400651	-0.269819
C101	C	-0.577526	-0.905572	-0.737096
C102	C	-0.077526	-0.405572	-0.237096
C103	C	-0.685649	-0.910509	-0.769813
C104	C	-0.185649	-0.410509	-0.269813
C105	C	-0.685622	-0.910517	-0.835247
C106	C	-0.185622	-0.410517	-0.335247
C107	C	-0.577463	-0.905586	-0.867964
C108	C	-0.077463	-0.405586	-0.367964
C109	C	-0.654314	-0.945619	-0.633447
C110	C	-0.154314	-0.445619	-0.133447
C111	C	-0.654354	-0.945604	-0.568010
C112	C	-0.154354	-0.445604	-0.068010
C113	C	-0.500875	-0.865479	-0.567979
C114	C	-0.000875	-0.365479	-0.067979
C115	C	-0.500845	-0.865491	-0.633415
C116	C	-0.000845	-0.365491	-0.133415
C117	C	-0.577563	-0.905565	-0.666144
C118	C	-0.077563	-0.405565	-0.166144
C119	C	-0.577697	-0.905506	-0.139426
C120	C	-0.077697	-0.405506	0.360574
C121	C	-0.577386	-0.905616	-0.069785
C122	C	-0.077386	-0.405616	0.430215
H123	H	-0.717238	-0.548305	-0.374744
H124	H	-0.217238	-0.048305	0.125256
C125	C	-0.416309	-0.821461	-0.935617
C126	C	0.083691	-0.321461	-0.435617
H127	H	-0.370608	-0.797600	-0.964464
H128	H	0.129392	-0.297600	-0.464464
H129	H	-0.364010	-0.845426	-0.910103
H130	H	0.135990	-0.345426	-0.410103
H131	H	-0.462260	-0.794154	-0.910077
H132	H	0.037740	-0.294154	-0.410077
H133	H	-0.438175	-0.832922	-1.063676
H134	H	0.061825	-0.332922	-0.563676
C135	C	-0.739053	-0.135322	-0.386313
C136	C	-0.239053	0.364678	0.113687
H137	H	-0.784856	-0.164187	-0.410117
H138	H	-0.284856	0.335813	0.089883
H139	H	-0.693226	-0.109834	-0.413667
H140	H	-0.193226	0.390166	0.086333
H141	H	-0.791267	-0.109759	-0.362294
H142	H	-0.291267	0.390241	0.137706
H143	H	-0.717294	-0.667012	-0.374697
H144	H	-0.217294	-0.167012	0.125303
H145	H	-0.773711	-0.914518	-0.743171
H146	H	-0.273711	-0.414518	-0.243171
H147	H	-0.716599	-0.978303	-1.063733
H148	H	-0.216599	-0.478303	-0.563733
C149	C	-0.804547	-0.915939	-0.871235
C150	C	-0.304547	-0.415939	-0.371235
H151	H	-0.868963	-0.918864	-0.842379
H152	H	-0.368963	-0.418864	-0.342379
H153	H	-0.802964	-0.952259	-0.896782
H154	H	-0.302964	-0.452259	-0.396782
H155	H	-0.815091	-0.880026	-0.896739
H156	H	-0.315091	-0.380026	-0.396739
C157	C	-0.739088	-0.272733	-0.386273
C158	C	-0.239088	0.227267	0.113727
H159	H	-0.728107	-0.316387	-0.380524
H160	H	-0.228107	0.183613	0.119476
H161	H	-0.721624	-0.262057	-0.428389
H162	H	-0.221624	0.237943	0.071611
H163	H	-0.819705	-0.261972	-0.377036
H164	H	-0.319705	0.238028	0.122964
H165	H	-0.381278	-0.896688	-0.861890
H166	H	0.118722	-0.396688	-0.361890
H167	H	-0.438187	-0.144618	-0.229741
H168	H	0.061813	0.355382	0.270259
H169	H	-0.438236	-0.263328	-0.229694
H170	H	0.061764	0.236672	0.270306
H171	H	-0.381341	-0.896634	-0.743186
H172	H	0.118659	-0.396634	-0.243186
H173	H	-0.716785	-0.978248	-0.660097
H174	H	-0.216785	-0.478248	-0.160097
H175	H	-0.595210	-0.465267	-0.404601
H176	H	-0.095210	0.034733	0.095399
C177	C	-0.557528	-0.337007	-0.183711
C178	C	-0.057528	0.162993	0.316289
H179	H	-0.551796	-0.365834	-0.150087
H180	H	-0.051796	0.134166	0.349913
H181	H	-0.626286	-0.311453	-0.178147
H182	H	-0.126286	0.188547	0.321853
H183	H	-0.487944	-0.311506	-0.184600
H184	H	0.012056	0.188494	0.315400
H185	H	-0.595156	-0.346555	-0.404643
H186	H	-0.095156	0.153445	0.095357
H187	H	-0.560324	-0.465077	-0.199789
H188	H	-0.060324	0.034923	0.300211
H189	H	-0.438345	-0.548254	-0.229597
H190	H	0.061655	-0.048254	0.270403
C191	C	-0.416425	-0.676315	-0.218120
C192	C	0.083575	-0.176315	0.281880
H193	H	-0.370644	-0.647452	-0.194303
H194	H	0.129356	-0.147452	0.305697
H195	H	-0.364207	-0.701885	-0.242123
H196	H	0.135793	-0.201885	0.257877
H197	H	-0.462285	-0.701796	-0.190768
H198	H	0.037715	-0.201796	0.309232
H199	H	-0.716641	-0.978291	-0.945026
H200	H	-0.216641	-0.478291	-0.445026
C201	C	-0.738770	-0.989671	-0.532043
C202	C	-0.238770	-0.489671	-0.032043
H203	H	-0.784444	-1.013541	-0.560910
H204	H	-0.284444	-0.513541	-0.060910
H205	H	-0.791092	-0.965699	-0.506503
H206	H	-0.291092	-0.465699	-0.006503
H207	H	-0.692842	-1.016971	-0.506534
H208	H	-0.192842	-0.516971	-0.006534
C209	C	-0.416481	-0.821410	-0.531977
C210	C	0.083519	-0.321410	-0.031977
H211	H	-0.427483	-0.827144	-0.488323
H212	H	0.072517	-0.327144	0.011677
H213	H	-0.434059	-0.779312	-0.542680
H214	H	0.065941	-0.279312	-0.042680
H215	H	-0.335829	-0.830595	-0.542709
H216	H	0.164171	-0.330595	-0.042709
H217	H	-0.438351	-0.832874	-0.660036
H218	H	0.061649	-0.332874	-0.160036
