data_functionalizedCrystal
_audit_creation_method	'MofGen! by Chris Wilmer'
_symmetry_space_group_name_H-M	'P1'
_symmetry_Int_Tables_number	1
_symmetry_cell_setting	triclinic
loop_
_symmetry_equiv_pos_as_xyz
  x,y,z
_cell_length_a	17.699077
_cell_length_b	15.995292
_cell_length_c	16.176319
_cell_angle_alpha	89.996390
_cell_angle_beta	89.993140
_cell_angle_gamma	83.374596
loop_
_atom_site_label
_atom_site_type_symbol
_atom_site_fract_x
_atom_site_fract_y
_atom_site_fract_z
O1	O	1.004238	0.105864	-0.068730
O2	O	1.504238	0.605864	0.431270
O3	O	0.783879	0.119646	-0.068733
O4	O	1.283879	0.619646	0.431267
O5	O	0.900105	-0.009148	-0.068733
O6	O	1.400105	0.490852	0.431267
O7	O	0.888012	0.234659	-0.068730
O8	O	1.388012	0.734659	0.431270
O9	O	0.900089	-0.009156	0.068761
O10	O	1.400089	0.490844	0.568761
O11	O	0.783863	0.119638	0.068760
O12	O	1.283863	0.619638	0.568760
O13	O	1.004222	0.105856	0.068763
O14	O	1.504222	0.605856	0.568763
Cu15	Cu	0.894041	0.112746	0.081316
Cu16	Cu	1.394041	0.612746	0.581316
Cu17	Cu	0.894060	0.112756	-0.081286
Cu18	Cu	1.394060	0.612756	0.418714
O19	O	0.887996	0.234650	0.068763
O20	O	1.387996	0.734650	0.568763
C21	C	0.755673	0.119149	0.000013
C22	C	1.255673	0.619149	0.500013
C23	C	0.671653	0.117670	0.000012
C24	C	1.171653	0.617670	0.500012
C25	C	0.632176	0.116969	0.074960
C26	C	1.132176	0.616969	0.574960
C27	C	0.553231	0.115566	0.074961
C28	C	1.053231	0.615566	0.574961
C29	C	0.513764	0.114870	0.000012
C30	C	1.013764	0.614870	0.500012
C31	C	0.553247	0.115569	-0.074942
C32	C	1.053247	0.615569	0.425058
C33	C	0.632191	0.116966	-0.074942
C34	C	1.132191	0.616966	0.425058
C35	C	0.234876	0.109934	-0.074943
C36	C	0.734876	0.609934	0.425057
C37	C	0.155926	0.108540	-0.074938
C38	C	0.655926	0.608540	0.425062
C39	C	0.155915	0.108534	0.074959
C40	C	0.655915	0.608534	0.574959
C41	C	0.234859	0.109931	0.074959
C42	C	0.734859	0.609931	0.574959
C43	C	0.274336	0.110625	0.000006
C44	C	0.774336	0.610625	0.500006
C45	C	0.359937	0.112145	0.000005
C46	C	0.859937	0.612145	0.500005
C47	C	0.428164	0.113356	0.000012
C48	C	0.928164	0.613356	0.500012
C49	C	0.899605	-0.040347	0.000012
C50	C	1.399605	0.459653	0.500012
C51	C	0.898129	-0.133297	0.000006
C52	C	1.398129	0.366703	0.500006
C53	C	0.892704	-0.471024	0.000013
C54	C	1.392704	0.028976	0.500013
C55	C	0.976593	-0.447884	0.000322
C56	C	1.476593	0.052116	0.500322
C57	C	0.978188	-0.351212	0.000009
C58	C	1.478188	0.148788	0.500009
C59	C	0.895396	-0.303474	0.000010
C60	C	1.395396	0.196526	0.500010
C61	C	0.853465	-0.332484	-0.078503
C62	C	1.353465	0.167516	0.421497
C63	C	0.852455	-0.429272	-0.078566
C64	C	1.352455	0.070728	0.421434
C65	C	0.850724	-0.429135	0.077789
C66	C	1.350724	0.070865	0.577789
C67	C	0.853832	-0.332649	0.078824
C68	C	1.353832	0.167351	0.578824
C69	C	0.896913	-0.208781	0.000005
C70	C	1.396913	0.291219	0.500005
C71	C	0.891185	-0.565717	0.000012
C72	C	1.391185	-0.065717	0.500012
C73	C	1.032427	0.106353	0.000016
C74	C	1.532427	0.606353	0.500016
C75	C	1.116448	0.107832	0.000012
C76	C	1.616448	0.607832	0.500012
C77	C	0.888496	0.265849	0.000017
C78	C	1.388496	0.765849	0.500017
C79	C	0.889972	0.358799	0.000017
C80	C	1.389972	0.858799	0.500017
N81	N	0.894033	0.112739	0.195681
N82	N	1.394033	0.612739	0.695681
N83	N	0.894074	0.112757	-0.195651
N84	N	1.394074	0.612757	0.304349
C85	C	0.945513	0.055732	0.238946
C86	C	1.445513	0.555732	0.738946
C87	C	0.945517	0.055731	0.325493
C88	C	1.445517	0.555731	0.825493
C89	C	0.894044	0.112742	0.368774
C90	C	1.394044	0.612742	0.868774
C91	C	0.842558	0.169751	0.325503
C92	C	1.342558	0.669751	0.825503
C93	C	0.842551	0.169748	0.238958
C94	C	1.342551	0.669748	0.738958
C95	C	0.842584	0.169767	0.674532
C96	C	1.342584	0.669767	1.174532
C97	C	0.842596	0.169768	0.761083
C98	C	1.342596	0.669768	1.261083
C99	C	0.945550	0.055751	0.761066
C100	C	1.445550	0.555751	1.261066
C101	C	0.945543	0.055747	0.674521
C102	C	1.445543	0.555747	1.174521
C103	C	0.894055	0.112753	0.631258
C104	C	1.394055	0.612753	1.131258
C105	C	0.894051	0.112752	0.537414
C106	C	1.394051	0.612752	1.037414
C107	C	0.894051	0.112747	0.462616
C108	C	1.394051	0.612747	0.962616
H109	H	1.011028	-0.332258	0.056289
H110	H	1.511028	0.167742	0.556289
H111	H	0.882596	-0.312480	-0.136933
H112	H	1.382596	0.187520	0.363067
C113	C	0.891665	-0.465574	-0.157871
C114	C	1.391665	0.034426	0.342129
H115	H	0.908068	-0.421148	-0.189742
H116	H	1.408068	0.078852	0.310258
H117	H	0.856771	-0.493513	-0.189237
H118	H	1.356771	0.006487	0.310763
H119	H	0.934350	-0.504445	-0.143565
H120	H	1.434350	-0.004445	0.356435
H121	H	0.800643	0.216168	0.360748
H122	H	1.300643	0.716168	0.860748
C123	C	0.278289	0.110707	-0.157389
C124	C	0.778289	0.610707	0.342611
H125	H	0.243474	0.110103	-0.202023
H126	H	0.743474	0.610103	0.297977
H127	H	0.314869	0.062443	-0.160510
H128	H	0.814869	0.562443	0.339490
H129	H	0.303299	0.160068	-0.160504
H130	H	0.803299	0.660068	0.339496
H131	H	0.800677	0.216195	0.796321
H132	H	1.300677	0.716195	1.296321
H133	H	0.521108	0.114997	-0.135966
H134	H	1.021108	0.614997	0.364034
H135	H	0.877135	-0.457282	0.137302
H136	H	1.377135	0.042718	0.637302
H137	H	0.521094	0.114981	0.135991
H138	H	1.021094	0.614981	0.635991
H139	H	0.664332	0.117539	-0.135973
H140	H	1.164332	0.617539	0.364027
C141	C	0.895052	-0.307629	0.157295
C142	C	1.395052	0.192371	0.657295
H143	H	0.869637	-0.325444	0.204762
H144	H	1.369637	0.174556	0.704762
H145	H	0.894899	-0.248240	0.158725
H146	H	1.394899	0.251760	0.658725
H147	H	0.946048	-0.333774	0.156815
H148	H	1.446048	0.166226	0.656815
H149	H	0.790948	-0.443696	-0.082123
H150	H	1.290948	0.056304	0.417877
H151	H	0.800630	0.216167	0.203733
H152	H	1.300630	0.716167	0.703733
H153	H	1.008921	-0.475952	0.056627
H154	H	1.508921	0.024048	0.556627
C155	C	1.020042	-0.487158	-0.075316
C156	C	1.520042	0.012842	0.424684
H157	H	0.987279	-0.517594	-0.107084
H158	H	1.487279	-0.017594	0.392916
H159	H	1.062626	-0.524262	-0.057263
H160	H	1.562626	-0.024262	0.442737
H161	H	1.037013	-0.443841	-0.108276
H162	H	1.537013	0.056159	0.391724
H163	H	0.664303	0.117542	0.135992
H164	H	1.164303	0.617542	0.635992
H165	H	0.793402	-0.299555	0.083566
H166	H	1.293402	0.200445	0.583566
H167	H	1.011235	-0.332872	-0.056370
H168	H	1.511235	0.167128	0.443630
H169	H	0.987432	0.009311	0.203712
H170	H	1.487432	0.509311	0.703712
C171	C	0.771166	-0.289260	-0.082456
C172	C	1.271166	0.210740	0.417544
H173	H	0.761626	-0.253048	-0.036150
H174	H	1.261626	0.246952	0.463850
H175	H	0.736864	-0.330761	-0.081727
H176	H	1.236864	0.169239	0.418273
H177	H	0.764241	-0.257288	-0.131929
H178	H	1.264241	0.242712	0.368071
H179	H	0.266989	0.110501	0.135990
H180	H	0.766989	0.610501	0.635990
C181	C	0.767309	-0.447861	0.078509
C182	C	1.267309	0.052139	0.578509
H183	H	0.758080	-0.481043	0.031669
H184	H	1.258080	0.018957	0.531669
H185	H	0.734605	-0.396443	0.076784
H186	H	1.234605	0.103557	0.576784
H187	H	0.757785	-0.477668	0.127510
H188	H	1.257785	0.022332	0.627510
C189	C	1.002179	-0.006964	0.808658
C190	C	1.502179	0.493036	1.308658
H191	H	0.994808	0.001193	0.866400
H192	H	1.494808	0.501193	1.366400
H193	H	1.052686	0.002058	0.794463
H194	H	1.552686	0.502058	1.294463
H195	H	0.993968	-0.062839	0.794478
H196	H	1.493968	0.437161	1.294478
H197	H	0.800662	0.216185	0.639314
H198	H	1.300662	0.716185	1.139314
H199	H	0.123765	0.107965	0.135990
H200	H	0.623765	0.607965	0.635990
C201	C	0.112511	0.107769	-0.157382
C202	C	0.612511	0.607769	0.342618
H203	H	0.059840	0.106848	-0.146644
H204	H	0.559840	0.606848	0.353356
H205	H	0.131231	0.059188	-0.188177
H206	H	0.631231	0.559188	0.311823
H207	H	0.119667	0.156813	-0.188181
H208	H	0.619667	0.656813	0.311819
C209	C	1.002153	-0.006968	0.373080
C210	C	1.502153	0.493032	0.873080
H211	H	1.032815	-0.040913	0.334908
H212	H	1.532815	0.459087	0.834908
H213	H	0.974947	-0.041791	0.406854
H214	H	1.474947	0.458209	0.906854
H215	H	1.033651	0.023122	0.406828
H216	H	1.533651	0.523122	0.906828
H217	H	0.987460	0.009327	0.639284
H218	H	1.487460	0.509327	1.139284
