data_functionalizedCrystal
_audit_creation_method	'MofGen! by Chris Wilmer'
_symmetry_space_group_name_H-M	'P1'
_symmetry_Int_Tables_number	1
_symmetry_cell_setting	triclinic
loop_
_symmetry_equiv_pos_as_xyz
  x,y,z
_cell_length_a	10.654551
_cell_length_b	27.732048
_cell_length_c	9.130313
_cell_angle_alpha	90.005287
_cell_angle_beta	90.001552
_cell_angle_gamma	83.564008
loop_
_atom_site_label
_atom_site_type_symbol
_atom_site_fract_x
_atom_site_fract_y
_atom_site_fract_z
O1	O	0.149411	0.641855	-0.121602
O2	O	0.172130	0.501203	-0.121645
O3	O	-0.022105	0.574763	-0.121624
O4	O	0.343645	0.568296	-0.121624
O5	O	-0.022100	0.574762	0.121975
O6	O	0.172135	0.501202	0.121953
O7	O	0.149416	0.641854	0.121996
Cu8	Cu	0.160776	0.571528	0.144217
Cu9	Cu	0.160770	0.571529	-0.143866
O10	O	0.343651	0.568295	0.121975
C11	C	0.171655	0.483193	0.000148
C12	C	0.170219	0.429529	0.000132
C13	C	-0.068880	0.574287	0.000172
C14	C	-0.208264	0.572866	0.000162
C15	C	0.275959	0.091373	0.000195
C16	C	0.270631	-0.110320	0.000208
O17	O	0.367322	-0.140974	0.000271
N18	N	0.155458	-0.130161	0.000206
C19	C	0.041609	-0.099576	0.000210
O20	O	-0.056475	-0.121080	0.000223
C21	C	0.046938	0.102116	0.000207
C22	C	0.162118	0.121954	0.000194
C23	C	0.391130	0.111211	0.000184
C24	C	0.392461	0.161632	0.000173
C25	C	0.278620	0.192213	0.000172
C26	C	0.163449	0.172374	0.000183
C27	C	-0.066910	0.132700	0.000221
C28	C	-0.065567	0.183126	0.000224
C29	C	0.049613	0.202964	0.000212
C30	C	0.050940	0.253376	0.000171
N31	N	0.166113	0.273217	0.000174
C32	C	0.279953	0.242636	0.000174
C33	C	0.038819	-0.205467	0.000208
C34	C	0.037486	-0.255890	0.000206
C35	C	0.266509	-0.266631	0.000207
C36	C	0.267840	-0.216207	0.000199
C37	C	0.153992	-0.185626	0.000210
C38	C	0.282739	0.348522	0.000150
C39	C	0.284060	0.398947	0.000132
C40	C	0.055038	0.409684	0.000139
C41	C	0.053716	0.359263	0.000148
C42	C	0.167577	0.328683	0.000159
O43	O	-0.045700	0.284058	0.000125
O44	O	0.378023	0.264149	0.000194
C45	C	0.274628	0.040952	0.000206
C46	C	0.159457	0.021114	0.000217
C47	C	0.045616	0.051695	0.000217
C48	C	0.158124	-0.029309	0.000215
C49	C	0.271964	-0.059891	0.000216
C50	C	0.387138	-0.040049	0.000218
C51	C	0.388468	0.010371	0.000207
C52	C	-0.069557	0.031854	0.000214
C53	C	-0.070878	-0.018567	0.000224
C54	C	0.042962	-0.049148	0.000224
C55	C	-0.273750	0.572200	-0.132621
C56	C	-0.404714	0.570861	-0.132615
C57	C	-0.404694	0.570856	0.132970
C58	C	-0.273731	0.572192	0.132962
C59	C	-0.273764	0.572205	-0.285955
C60	C	-0.404728	0.570866	-0.285949
C61	C	0.390426	0.568770	0.000176
C62	C	0.529809	0.570191	0.000176
C63	C	0.149890	0.659865	0.000199
C64	C	0.151326	0.713528	0.000207
N65	N	0.160779	0.571531	0.346840
N66	N	0.160756	0.571530	-0.346489
C67	C	0.074801	0.604112	0.423502
C68	C	0.074786	0.604110	0.576838
C69	C	0.246739	0.538946	0.576839
C70	C	0.246747	0.538946	0.423505
C71	C	-0.024471	0.641735	0.423503
C72	C	-0.024486	0.641734	0.576840
H73	H	0.377857	0.415097	0.000121
H74	H	-0.004529	0.678875	0.618468
C75	C	-0.536922	0.601382	-0.485883
C76	C	-0.469132	0.615957	-0.365390
H77	H	-0.576676	0.629219	-0.534925
H78	H	-0.599268	0.581918	-0.453181
H79	H	-0.480789	0.583131	-0.551271
H80	H	-0.525267	0.634205	-0.299996
H81	H	-0.406780	0.635428	-0.398090
H82	H	-0.115215	0.629991	0.624383
H83	H	0.375456	0.323629	0.000163
H84	H	0.486252	0.177779	0.000162
H85	H	0.004642	0.676826	0.375955
C86	C	0.617633	0.105673	0.000159
C87	C	0.516279	0.077601	0.000172
H88	H	0.694898	0.084925	0.000133
H89	H	0.613389	0.125562	0.085108
H90	H	0.613357	0.125565	-0.084790
H91	H	0.520549	0.057712	0.085127
H92	H	0.520525	0.057704	-0.084785
H93	H	0.316730	0.512416	0.639275
C94	C	0.494079	-0.231900	0.000202
C95	C	0.394449	-0.194404	0.000202
H96	H	0.572244	-0.218441	0.000215
H97	H	0.488790	-0.251342	-0.084746
H98	H	0.488781	-0.251343	0.085152
H99	H	0.399741	-0.174963	-0.084754
H100	H	0.399740	-0.174953	0.085158
C101	C	-0.233065	0.623829	0.486576
C102	C	-0.154309	0.630590	0.367298
H103	H	-0.313215	0.616945	0.451874
H104	H	-0.243140	0.652481	0.544371
H105	H	-0.196259	0.597467	0.544363
H106	H	-0.191111	0.656955	0.309517
H107	H	-0.144238	0.601935	0.309479
C108	C	0.416703	0.474531	0.438913
C109	C	0.341249	0.503129	0.339237
H110	H	0.475050	0.452421	0.386886
H111	H	0.364731	0.456976	0.498706
H112	H	0.461515	0.494803	0.498731
H113	H	0.296429	0.482858	0.279426
H114	H	0.393228	0.520685	0.279419
C115	C	0.366137	-0.348698	0.000223
C116	C	0.391645	-0.300253	0.000218
H117	H	0.443388	-0.369455	0.000245
H118	H	0.318883	-0.354752	-0.084727
H119	H	0.318857	-0.354742	0.085170
H120	H	0.438918	-0.294207	-0.084736
H121	H	0.438919	-0.294196	0.085176
C122	C	-0.188755	-0.240196	0.000215
C123	C	-0.089124	-0.277693	0.000206
H124	H	-0.266919	-0.253656	0.000230
H125	H	-0.183471	-0.220758	-0.084730
H126	H	-0.183451	-0.220750	0.085168
H127	H	-0.094422	-0.297137	-0.084753
H128	H	-0.094410	-0.297139	0.085160
H129	H	-0.053896	-0.180572	0.000218
H130	H	-0.160702	0.116557	0.000233
H131	H	-0.040073	0.343110	0.000137
C132	C	-0.200950	0.094794	0.125418
C133	C	-0.194701	0.065465	0.000203
H134	H	-0.278219	0.115540	0.125405
H135	H	-0.132185	0.113828	0.125406
H136	H	-0.196707	0.074901	0.210363
H137	H	-0.198934	0.085358	-0.084744
H138	H	-0.263485	0.046429	0.000201
C139	C	-0.292083	0.188674	0.000226
C140	C	-0.190717	0.216740	0.000222
H141	H	-0.369342	0.209427	0.000211
H142	H	-0.287835	0.168791	0.085175
H143	H	-0.287827	0.168777	-0.084722
H144	H	-0.194968	0.236635	0.085176
H145	H	-0.194967	0.236632	-0.084736
C146	C	-0.430071	0.528961	0.359319
C147	C	-0.476660	0.570116	0.278939
H148	H	-0.474505	0.528504	0.449433
H149	H	-0.342715	0.529858	0.378313
H150	H	-0.441420	0.500611	0.304731
H151	H	-0.465303	0.598466	0.333524
H152	H	-0.564038	0.569223	0.259950
H153	H	-0.037648	0.434592	0.000133
C154	C	-0.301320	0.498430	-0.413633
C155	C	-0.209380	0.527116	-0.365439
H156	H	-0.261568	0.470594	-0.462692
H157	H	-0.357431	0.516686	-0.479005
H158	H	-0.347299	0.488550	-0.331878
H159	H	-0.163407	0.536999	-0.447195
H160	H	-0.153246	0.508857	-0.300062
H161	H	-0.245681	0.607457	-0.333519
H162	H	0.479830	-0.064958	0.000212
C163	C	-0.297128	-0.002872	0.000249
C164	C	-0.197497	-0.040369	0.000242
H165	H	-0.375293	-0.016332	0.000279
H166	H	-0.291851	0.016563	-0.084704
H167	H	-0.291817	0.016577	0.085193
H168	H	-0.202802	-0.059816	-0.084709
H169	H	-0.202777	-0.059812	0.085203
H170	H	-0.220416	0.572731	0.241087
H171	H	-0.432815	0.535616	-0.333551
H172	H	0.482260	0.026518	0.000199
