data_functionalizedCrystal
_audit_creation_method	'MofGen! by Chris Wilmer'
_symmetry_space_group_name_H-M	'P1'
_symmetry_Int_Tables_number	1
_symmetry_cell_setting	triclinic
loop_
_symmetry_equiv_pos_as_xyz
  x,y,z
_cell_length_a	10.654556
_cell_length_b	16.109301
_cell_length_c	9.730223
_cell_angle_alpha	90.004396
_cell_angle_beta	90.001831
_cell_angle_gamma	83.974509
loop_
_atom_site_label
_atom_site_type_symbol
_atom_site_fract_x
_atom_site_fract_y
_atom_site_fract_z
O1	O	1.666250	0.116797	0.114243
O2	O	1.300622	0.127917	0.114257
O3	O	1.493480	0.001386	0.114236
O4	O	1.473392	0.243328	0.114265
O5	O	1.493467	0.001386	-0.114344
O6	O	1.300609	0.127917	-0.114322
O7	O	1.666237	0.116797	-0.114337
Zn8	Zn	1.483421	0.122357	-0.150622
Zn9	Zn	1.483438	0.122357	0.150542
O10	O	1.473379	0.243328	-0.114315
C11	C	1.253829	0.127100	-0.000031
C12	C	1.114419	0.124653	-0.000026
C13	C	0.917928	0.121209	0.124562
C14	C	1.048919	0.123503	0.124571
C15	C	1.048923	0.123502	-0.124639
C16	C	0.917935	0.121203	-0.124647
C17	C	1.492660	-0.029594	-0.000055
C18	C	1.490220	-0.121903	-0.000057
C19	C	1.598986	-0.343527	-0.000039
C20	C	1.596684	-0.430262	-0.000028
C21	C	1.367864	-0.411751	-0.000024
C22	C	1.370168	-0.325019	-0.000026
C23	C	1.485732	-0.290909	-0.000040
C24	C	1.481127	-0.464376	-0.000027
C25	C	1.478630	-0.558417	-0.000015
C26	C	1.488230	-0.196863	-0.000050
C27	C	1.713030	0.117615	-0.000046
C28	C	1.852440	0.120061	-0.000042
C29	C	1.474199	0.274308	-0.000022
C30	C	1.476639	0.366618	-0.000011
N31	N	1.483417	0.122357	-0.356158
C32	C	1.559558	0.173253	-0.428076
C33	C	1.559579	0.173248	-0.571959
C34	C	1.407308	0.071449	-0.571994
C35	C	1.407294	0.071450	-0.428113
N36	N	1.483452	0.122351	0.356079
H37	H	1.693086	-0.315759	-0.000048
H38	H	1.688907	-0.473100	-0.000024
O39	O	1.633573	0.222768	-0.641606
C40	C	1.784655	0.323705	-0.626378
C41	C	1.700891	0.267678	-0.547333
H42	H	1.839124	0.360015	-0.550193
H43	H	1.722933	0.369294	-0.693709
H44	H	1.853991	0.283231	-0.693768
H45	H	1.631543	0.308084	-0.479869
H46	H	1.762692	0.222083	-0.480089
H47	H	1.273775	-0.439534	-0.000015
H48	H	1.102233	0.124437	0.226036
H49	H	1.277937	-0.282175	-0.000022
H50	H	1.621543	0.214704	-0.369494
H51	H	1.345330	0.030004	-0.630597
O52	O	0.854475	0.119979	-0.245784
C53	C	0.828605	0.047345	-0.458753
C54	C	0.900588	0.048644	-0.321638
H55	H	0.865841	-0.010333	-0.520107
H56	H	0.842872	0.105838	-0.520289
H57	H	0.723733	0.045542	-0.437322
H58	H	1.005482	0.050418	-0.342944
H59	H	0.886216	-0.009846	-0.260144
O60	O	1.333209	0.021984	-0.358456
C61	C	1.182236	-0.079025	-0.373662
C62	C	1.266044	-0.023032	-0.452719
H63	H	1.127931	-0.115449	-0.449839
H64	H	1.112774	-0.038601	-0.306340
H65	H	1.244038	-0.124525	-0.306262
H66	H	1.204343	0.022476	-0.520194
H67	H	1.335514	-0.063509	-0.519954
H68	H	0.864606	0.120278	0.226024
H69	H	1.102264	0.124434	-0.226088
