data_functionalizedCrystal
_audit_creation_method	'MofGen! by Chris Wilmer'
_symmetry_space_group_name_H-M	'P1'
_symmetry_Int_Tables_number	1
_symmetry_cell_setting	triclinic
loop_
_symmetry_equiv_pos_as_xyz
  x,y,z
_cell_length_a	14.044220
_cell_length_b	19.188930
_cell_length_c	12.503572
_cell_angle_alpha	93.506241
_cell_angle_beta	86.164750
_cell_angle_gamma	88.166830
loop_
_atom_site_label
_atom_site_type_symbol
_atom_site_fract_x
_atom_site_fract_y
_atom_site_fract_z
O1	O	1.262485	0.164589	-0.089229
O2	O	1.762485	0.664589	0.410771
O3	O	0.986542	0.158515	-0.089255
O4	O	1.486542	0.658515	0.410745
O5	O	1.132475	0.060411	-0.089220
O6	O	1.632475	0.560411	0.410780
O7	O	1.116552	0.262693	-0.089264
O8	O	1.616552	0.762693	0.410736
O9	O	1.121500	0.067803	0.089419
O10	O	1.621500	0.567803	0.589419
O11	O	0.975567	0.165907	0.089384
O12	O	1.475567	0.665907	0.589384
O13	O	1.251510	0.171980	0.089411
O14	O	1.751510	0.671980	0.589411
Cu15	Cu	1.112536	0.169618	0.105709
Cu16	Cu	1.612536	0.669618	0.605709
Cu17	Cu	1.125516	0.160877	-0.105553
Cu18	Cu	1.625516	0.660877	0.394447
O19	O	1.105577	0.270084	0.089376
O20	O	1.605577	0.770084	0.589376
C21	C	0.945752	0.159553	0.000061
C22	C	1.445752	0.659553	0.500061
C23	C	0.840559	0.151624	0.000052
C24	C	1.340559	0.651624	0.500052
C25	C	1.126472	0.038063	0.000102
C26	C	1.626472	0.538063	0.500102
C27	C	1.124923	-0.039541	0.000112
C28	C	1.624923	0.460459	0.500112
C29	C	0.647956	0.137129	0.000077
C30	C	1.147956	0.637129	0.500077
C31	C	0.590090	0.193363	0.000069
C32	C	1.090090	0.693363	0.500069
C33	C	0.482920	0.185298	0.000083
C34	C	0.982920	0.685298	0.500083
C35	C	0.755137	0.145193	0.000063
C36	C	1.255137	0.645193	0.500063
C37	C	1.210552	-0.078939	0.000125
C38	C	1.710552	0.421061	0.500125
C39	C	1.209099	-0.151857	0.000108
C40	C	1.709099	0.348143	0.500108
C41	C	1.122010	-0.185374	0.000098
C42	C	1.622010	0.314626	0.500098
C43	C	1.036370	-0.145968	0.000079
C44	C	1.536370	0.354032	0.500079
C45	C	1.037826	-0.073051	0.000086
C46	C	1.537826	0.426949	0.500086
N47	N	1.051706	-0.295160	0.060886
N48	N	1.551706	0.204840	0.560886
N49	N	1.050328	-0.364427	0.060882
N50	N	1.550328	0.135573	0.560882
C51	C	1.117616	-0.405067	0.000076
C52	C	1.617616	0.094933	0.500076
N53	N	1.186348	-0.373823	-0.060712
N54	N	1.686348	0.126177	0.439288
N55	N	1.187729	-0.304548	-0.060704
N56	N	1.687729	0.195452	0.439296
C57	C	1.120421	-0.264440	0.000091
C58	C	1.620421	0.235560	0.500091
C59	C	1.201676	-0.523532	0.000069
C60	C	1.701676	-0.023532	0.500069
C61	C	1.200219	-0.596451	0.000045
C62	C	1.700219	-0.096451	0.500045
C63	C	1.027487	-0.590560	0.000028
C64	C	1.527487	-0.090560	0.500028
C65	C	1.028947	-0.517642	0.000041
C66	C	1.528947	-0.017642	0.500041
C67	C	1.116043	-0.484132	0.000067
C68	C	1.616043	0.015868	0.500067
C69	C	1.292301	0.170943	0.000092
C70	C	1.792301	0.670943	0.500092
C71	C	1.397493	0.178872	0.000094
C72	C	1.897493	0.678872	0.500094
C73	C	1.111580	0.292433	0.000051
C74	C	1.611580	0.792433	0.500051
C75	C	1.113129	0.370037	0.000034
C76	C	1.613129	0.870037	0.500034
N77	N	1.103414	0.175766	0.254299
N78	N	1.603414	0.675766	0.754299
N79	N	1.134645	0.154724	-0.254143
N80	N	1.634645	0.654724	0.245857
C81	C	1.089995	0.184816	0.473411
C82	C	1.589995	0.684816	0.973411
C83	C	1.148061	0.145676	0.526752
C84	C	1.648061	0.645676	1.026752
C85	C	1.140595	0.150712	0.648673
C86	C	1.640595	0.650712	1.148673
C87	C	1.097461	0.179782	0.351478
C88	C	1.597461	0.679782	0.851478
H89	H	0.621038	0.247564	0.000052
H90	H	1.121038	0.747564	0.500052
C91	C	0.606839	0.064812	-0.000081
C92	C	1.106839	0.564812	0.499919
C93	C	0.643428	0.024848	-0.091975
C94	C	1.143428	0.524848	0.408025
C95	C	0.605570	-0.041776	-0.092155
C96	C	1.105570	0.458224	0.407845
H97	H	0.539254	0.068828	-0.000133
H98	H	1.039254	0.568828	0.499867
H99	H	0.623942	0.042705	0.062181
H100	H	1.123942	0.542705	0.562181
H101	H	0.626319	0.046950	-0.154221
H102	H	1.126319	0.546950	0.345779
H103	H	0.711009	0.020812	-0.091942
H104	H	1.211009	0.520812	0.408058
H105	H	0.622673	-0.063883	-0.029893
H106	H	1.122673	0.436117	0.470107
H107	H	0.537986	-0.037752	-0.092205
H108	H	1.037986	0.462248	0.407795
H109	H	0.630396	-0.068901	-0.154498
H110	H	1.130396	0.431099	0.345502
C111	C	1.302055	-0.194689	-0.000091
C112	C	1.802055	0.305311	0.499909
C113	C	1.311930	-0.240504	-0.092009
C114	C	1.811930	0.259496	0.407991
C115	C	1.397553	-0.279963	-0.092233
C116	C	1.897553	0.220037	0.407767
H117	H	1.301333	-0.220747	0.062132
H118	H	1.801333	0.279253	0.562132
H119	H	1.354166	-0.164315	-0.000133
H120	H	1.854166	0.335685	0.499867
H121	H	1.259833	-0.270875	-0.091957
H122	H	1.759833	0.229125	0.408043
H123	H	1.312669	-0.214465	-0.154247
H124	H	1.812669	0.285535	0.345753
H125	H	1.449664	-0.249589	-0.092276
H126	H	1.949664	0.250411	0.407724
H127	H	1.396824	-0.306017	-0.030006
H128	H	1.896824	0.193983	0.469994
H129	H	1.404269	-0.311049	-0.154603
H130	H	1.904269	0.188951	0.345397
C131	C	1.293111	-0.639311	0.000221
C132	C	1.793111	-0.139311	0.500221
C133	C	1.291658	-0.677573	0.092104
C134	C	1.791658	-0.177573	0.592104
C135	C	1.377208	-0.717072	0.092294
C136	C	1.877208	-0.217072	0.592294
H137	H	1.345263	-0.608990	0.000293
H138	H	1.845263	-0.108990	0.500293
H139	H	1.299967	-0.670484	-0.062049
H140	H	1.799967	-0.170484	0.437951
H141	H	1.284812	-0.646403	0.154357
H142	H	1.784812	-0.146403	0.654357
H143	H	1.239523	-0.707907	0.092052
H144	H	1.739523	-0.207907	0.592052
H145	H	1.384064	-0.748245	0.030024
H146	H	1.884064	-0.248245	0.530024
H147	H	1.429354	-0.686745	0.092363
H148	H	1.929354	-0.186745	0.592363
H149	H	1.376230	-0.743042	0.154629
H150	H	1.876230	-0.243042	0.654629
C151	C	1.221880	0.095993	0.465565
C152	C	1.721880	0.595993	0.965565
C153	C	1.313420	0.114054	0.492686
C154	C	1.813420	0.614054	0.992686
C155	C	1.381402	0.068295	0.436289
C156	C	1.881402	0.568295	0.936289
H157	H	1.217188	0.099182	0.390574
H158	H	1.717188	0.599182	0.890574
H159	H	1.210601	0.049509	0.483919
H160	H	1.710601	0.549509	0.983919
H161	H	1.324696	0.160527	0.474324
H162	H	1.824696	0.660527	0.974324
H163	H	1.318144	0.110862	0.567666
H164	H	1.818144	0.610862	1.067666
H165	H	1.370123	0.021811	0.454643
H166	H	1.870123	0.521811	0.954643
H167	H	1.376701	0.071487	0.361302
H168	H	1.876701	0.571487	0.861302
H169	H	1.443519	0.080539	0.454690
H170	H	1.943519	0.580539	0.954690
H171	H	1.281473	-0.051660	0.000142
H172	H	1.781473	0.448340	0.500142
H173	H	0.965462	-0.173262	0.000069
H174	H	1.465462	0.326738	0.500069
H175	H	1.034680	0.222105	0.519305
H176	H	1.534680	0.722105	1.019305
H177	H	0.968095	-0.040973	0.000075
H178	H	1.468095	0.459027	0.500075
C179	C	1.296335	-0.487276	0.000021
C180	C	1.796335	0.012724	0.500021
C181	C	1.371020	-0.537392	-0.000015
C182	C	1.871020	-0.037392	0.499985
C183	C	1.458234	-0.504023	-0.000079
C184	C	1.958234	-0.004023	0.499921
H185	H	1.296810	-0.456387	0.062301
H186	H	1.796810	0.043613	0.562301
H187	H	1.304366	-0.461541	-0.062298
H188	H	1.804366	0.038459	0.437702
H189	H	1.362991	-0.563115	0.062297
H190	H	1.862991	-0.063115	0.562297
H191	H	1.370576	-0.568284	-0.062291
H192	H	1.870576	-0.068284	0.437709
H193	H	1.466265	-0.478288	-0.062397
H194	H	1.966265	0.021712	0.437603
H195	H	1.458699	-0.473134	0.062203
H196	H	1.958699	0.026866	0.562203
H197	H	1.508919	-0.538021	-0.000113
H198	H	2.008919	-0.038021	0.499887
H199	H	0.956578	-0.617849	0.000015
H200	H	1.456578	-0.117849	0.500015
H201	H	0.959218	-0.485563	0.000036
H202	H	1.459218	0.014437	0.500036
