data_functionalizedCrystal
_audit_creation_method	'MofGen! by Chris Wilmer'
_symmetry_space_group_name_H-M	'P1'
_symmetry_Int_Tables_number	1
_symmetry_cell_setting	triclinic
loop_
_symmetry_equiv_pos_as_xyz
  x,y,z
_cell_length_a	10.540514
_cell_length_b	15.500215
_cell_length_c	10.540539
_cell_angle_alpha	93.154995
_cell_angle_beta	84.520326
_cell_angle_gamma	93.158088
loop_
_atom_site_label
_atom_site_type_symbol
_atom_site_fract_x
_atom_site_fract_y
_atom_site_fract_z
O1	O	1.691218	0.071951	0.184059
O2	O	2.191218	0.571951	0.684059
O3	O	1.321801	0.071950	0.200948
O4	O	1.821801	0.571950	0.700948
O5	O	1.514938	0.071949	0.007796
O6	O	2.014938	0.571949	0.507796
O7	O	1.498082	0.071952	0.377211
O8	O	1.998082	0.571952	0.877211
O9	O	1.504297	-0.071940	-0.002831
O10	O	2.004297	0.428060	0.497169
O11	O	1.311160	-0.071939	0.190321
O12	O	1.811160	0.428061	0.690321
O13	O	1.680577	-0.071938	0.173431
O14	O	2.180577	0.428062	0.673431
Cu15	Cu	1.494897	-0.085077	0.180906
Cu16	Cu	1.994897	0.414923	0.680906
Cu17	Cu	1.507482	0.085089	0.193474
Cu18	Cu	2.007482	0.585089	0.693474
O19	O	1.487441	-0.071938	0.366583
O20	O	1.987441	0.428062	0.866583
C21	C	1.269177	0.000005	0.194375
C22	C	1.769177	0.500005	0.694375
C23	C	1.128228	0.000005	0.190605
C24	C	1.628228	0.500005	0.690605
N25	N	1.486055	-0.204762	0.172065
N26	N	1.986055	0.295238	0.672065
C27	C	1.057522	0.000007	0.328746
C28	C	1.557522	0.500007	0.828746
C29	C	0.910933	0.000338	0.324896
C30	C	1.410933	0.500338	0.824896
C31	C	0.941955	0.082018	0.121536
C32	C	1.441955	0.582018	0.621536
C33	C	1.088499	0.082082	0.126394
C34	C	1.588499	0.582082	0.626394
C35	C	1.076800	-0.081553	0.112264
C36	C	1.576800	0.418447	0.612264
C37	C	0.929742	-0.082626	0.110852
C38	C	1.429742	0.417374	0.610852
C39	C	1.560399	-0.250035	0.246454
C40	C	2.060399	0.249965	0.746454
C41	C	1.553729	-0.340608	0.239760
C42	C	2.053729	0.159392	0.739760
C43	C	1.472707	-0.385907	0.158683
C44	C	1.972707	0.114093	0.658683
C45	C	1.398361	-0.340629	0.084285
C46	C	1.898361	0.159371	0.584285
C47	C	1.405038	-0.250057	0.090973
C48	C	1.905038	0.249943	0.590973
C49	C	1.448665	-0.659376	0.134595
C50	C	1.948665	-0.159376	0.634595
C51	C	1.441990	-0.749953	0.127915
C52	C	1.941990	-0.249953	0.627915
C53	C	1.597360	-0.749927	0.283389
C54	C	2.097360	-0.249927	0.783389
C55	C	1.604025	-0.659353	0.290076
C56	C	2.104025	-0.159353	0.790076
C57	C	1.529684	-0.614083	0.215673
C58	C	2.029684	-0.114083	0.715673
C59	C	1.465884	-0.478488	0.151842
C60	C	1.965884	0.021512	0.651842
C61	C	1.536514	-0.521504	0.222508
C62	C	2.036514	-0.021504	0.722508
C63	C	1.733202	0.000008	0.180005
C64	C	2.233202	0.500008	0.680005
C65	C	1.874152	0.000014	0.183775
C66	C	2.374152	0.500014	0.683775
C67	C	1.508353	0.000006	-0.044820
C68	C	2.008353	0.500006	0.455180
C69	C	1.504572	0.000011	-0.185768
C70	C	2.004572	0.500011	0.314232
N71	N	1.516333	0.204774	0.202305
N72	N	2.016333	0.704774	0.702305
C73	C	1.359677	0.000334	-0.369158
C74	C	1.859677	0.500334	0.130842
C75	C	1.363487	0.000010	-0.222564
C76	C	1.863487	0.500010	0.277436
C77	C	1.566391	-0.082157	-0.253500
C78	C	2.066391	0.417843	0.246500
C79	C	1.561571	-0.082226	-0.400050
C80	C	2.061571	0.417774	0.099950
C81	C	1.576542	0.081403	-0.388483
C82	C	2.076542	0.581403	0.111517
C83	C	1.577922	0.082490	-0.241420
C84	C	2.077922	0.582490	0.258580
C85	C	1.494026	0.000007	0.419200
C86	C	1.994026	0.500007	0.919200
C87	C	1.497807	0.000008	0.560148
C88	C	1.997807	0.500008	1.060148
H89	H	0.863923	-0.058431	0.374272
H90	H	1.363923	0.441569	0.874272
H91	H	1.614270	-0.377465	0.300334
H92	H	2.114270	0.122535	0.800334
H93	H	1.532738	0.143275	-0.196068
H94	H	2.032738	0.643275	0.303932
C95	C	1.090197	-0.079427	0.398587
C96	C	1.590197	0.420573	0.898587
N97	N	1.114814	-0.139261	0.451191
N98	N	1.614814	0.360739	0.951191
H99	H	1.669774	-0.085211	-0.231381
H100	H	2.169774	0.414789	0.268619
C101	C	1.278849	-0.078842	-0.415767
C102	C	1.778849	0.421158	0.084233
N103	N	1.217979	-0.138485	-0.450863
N104	N	1.717979	0.361515	0.049137
C105	C	1.521072	0.165538	-0.424883
C106	C	2.021072	0.665538	0.075117
N107	N	1.479277	0.228905	-0.452297
N108	N	1.979277	0.728905	0.047703
C109	C	1.297187	0.079578	-0.159121
C110	C	1.797187	0.579578	0.340879
N111	N	1.247240	0.139510	-0.111341
N112	N	1.747240	0.639510	0.388659
H113	H	1.399916	-0.515380	0.085829
H114	H	1.899916	-0.015380	0.585829
C115	C	1.352867	-0.799781	0.038709
C116	C	1.852867	-0.299781	0.538709
N117	N	1.285746	-0.837311	-0.028480
N118	N	1.785746	-0.337311	0.471520
C119	C	1.104217	0.079337	0.409203
C120	C	1.604217	0.579337	0.909203
N121	N	1.139389	0.139090	0.469800
N122	N	1.639389	0.639090	0.969800
H123	H	1.121274	0.143615	0.180820
H124	H	1.621274	0.643615	0.680820
H125	H	1.388131	-0.622527	0.074010
H126	H	1.888131	-0.122527	0.574010
H127	H	1.305325	-0.058990	-0.185160
H128	H	1.805325	0.441010	0.314840
H129	H	1.678488	0.081956	-0.435677
H130	H	2.178488	0.581956	0.064323
H131	H	1.308303	0.059257	-0.393401
H132	H	1.808303	0.559257	0.106599
C133	C	1.717385	0.089191	-0.208227
C134	C	2.217385	0.589191	0.291773
N135	N	1.822435	0.094230	-0.183231
N136	N	2.322435	0.594230	0.316769
C137	C	1.323251	-0.200258	0.009142
C138	C	1.823251	0.299742	0.509142
N139	N	1.261648	-0.162750	-0.052498
N140	N	1.761648	0.337250	0.447502
H141	H	1.514705	-0.143303	-0.215413
H142	H	2.014705	0.356697	0.284587
H143	H	0.873575	0.059468	0.382751
H144	H	1.373575	0.559468	0.882751
H145	H	1.670005	-0.622477	0.356094
H146	H	2.170005	-0.122477	0.856094
C147	C	1.679141	-0.799732	0.365216
C148	C	2.179141	-0.299732	0.865216
N149	N	1.740746	-0.837245	0.426847
N150	N	2.240746	-0.337245	0.926847
H151	H	1.332397	-0.377518	0.018264
H152	H	1.832397	0.122482	0.518264
H153	H	1.602486	-0.484617	0.288517
H154	H	2.102486	0.015383	0.788517
H155	H	1.506850	-0.143648	-0.432781
H156	H	2.006850	0.356352	0.067219
H157	H	0.884261	-0.143293	0.156282
H158	H	1.384261	0.356707	0.656282
H159	H	1.662762	-0.085953	-0.448303
H160	H	2.162762	0.414047	0.051697
H161	H	1.123998	-0.082345	0.010312
H162	H	1.623998	0.417655	0.510312
C163	C	0.890510	0.164779	0.190883
C164	C	1.390510	0.664779	0.690883
N165	N	0.851740	0.227114	0.243104
N166	N	1.351740	0.727114	0.743104
C167	C	1.113127	-0.165549	0.168188
C168	C	1.613127	0.334451	0.668188
N169	N	1.140487	-0.228811	0.210324
N170	N	1.640487	0.271189	0.710324
C171	C	0.912086	0.085829	-0.018184
C172	C	1.412086	0.585829	0.481816
N173	N	0.889583	0.088700	-0.123420
N174	N	1.389583	0.588700	0.376580
C175	C	0.896540	-0.089653	-0.028606
C176	C	1.396540	0.410347	0.471394
N177	N	0.871531	-0.094941	-0.133649
N178	N	1.371531	0.405059	0.366351
H179	H	1.626368	-0.213159	0.312484
H180	H	2.126368	0.286841	0.812484
H181	H	1.136764	0.085583	0.025180
H182	H	1.636764	0.585583	0.525180
