data_functionalizedCrystal
_audit_creation_method	'MofGen! by Chris Wilmer'
_symmetry_space_group_name_H-M	'P1'
_symmetry_Int_Tables_number	1
_symmetry_cell_setting	triclinic
loop_
_symmetry_equiv_pos_as_xyz
  x,y,z
_cell_length_a	14.044220
_cell_length_b	13.101039
_cell_length_c	14.044220
_cell_angle_alpha	86.332523
_cell_angle_beta	93.188878
_cell_angle_gamma	93.659868
loop_
_atom_site_label
_atom_site_type_symbol
_atom_site_fract_x
_atom_site_fract_y
_atom_site_fract_z
O1	O	1.281968	0.085109	0.225348
O2	O	1.615302	0.418442	0.558682
O3	O	1.948635	0.751776	0.892015
O4	O	1.005298	0.085135	0.217041
O5	O	1.338632	0.418468	0.550374
O6	O	1.671965	0.751802	0.883708
O7	O	1.139480	0.085112	0.082860
O8	O	1.472813	0.418446	0.416193
O9	O	1.806147	0.751779	0.749526
O10	O	1.147787	0.085132	0.359530
O11	O	1.481120	0.418465	0.692863
O12	O	1.814454	0.751798	1.026197
O13	O	1.129854	-0.085316	0.092504
O14	O	1.463188	0.248017	0.425838
O15	O	1.796521	0.581351	0.759171
O16	O	0.995673	-0.085293	0.226686
O17	O	1.329006	0.248040	0.560019
O18	O	1.662339	0.581373	0.893353
O19	O	1.272343	-0.085319	0.234993
O20	O	1.605676	0.248014	0.568326
O21	O	1.939009	0.581348	0.901660
Zn22	Zn	1.132479	-0.112365	0.232371
Zn23	Zn	1.465813	0.220968	0.565704
Zn24	Zn	1.799146	0.554301	0.899037
Zn25	Zn	1.145162	0.112181	0.219663
Zn26	Zn	1.478495	0.445515	0.552997
Zn27	Zn	1.811828	0.778848	0.886330
O28	O	1.138161	-0.085296	0.369175
O29	O	1.471494	0.248037	0.702508
O30	O	1.804828	0.581370	1.035841
C31	C	0.964864	-0.000076	0.218228
C32	C	1.298197	0.333257	0.551561
C33	C	1.631531	0.666591	0.884894
C34	C	0.858722	-0.000066	0.207383
C35	C	1.192055	0.333267	0.540716
C36	C	1.525388	0.666600	0.874049
N37	N	1.123831	-0.265612	0.241043
N38	N	1.457164	0.067721	0.574377
N39	N	1.790497	0.401054	0.907710
C40	C	0.664383	-0.000088	0.187558
C41	C	0.997716	0.333245	0.520891
C42	C	1.331049	0.666579	0.854224
C43	C	0.613253	-0.000087	0.264472
C44	C	0.946586	0.333246	0.597805
C45	C	1.279920	0.666580	0.931139
C46	C	0.505116	-0.000099	0.253441
C47	C	0.838449	0.333234	0.586774
C48	C	1.171783	0.666568	0.920108
C49	C	0.772529	-0.000076	0.198587
C50	C	1.105863	0.333257	0.531920
C51	C	1.439196	0.666591	0.865254
C52	C	1.112065	-0.474653	0.252851
C53	C	1.445398	-0.141320	0.586185
C54	C	1.778731	0.192014	0.919518
C55	C	1.165580	-0.525538	0.199179
C56	C	1.498914	-0.192204	0.532512
C57	C	1.832247	0.141129	0.865846
C58	C	1.159034	-0.641855	0.205749
C59	C	1.492367	-0.308522	0.539082
C60	C	1.825700	0.024812	0.872416
C61	C	1.118610	-0.358325	0.246282
C62	C	1.451944	-0.024992	0.579616
C63	C	1.785277	0.308342	0.912949
C64	C	1.312777	-0.000106	0.233806
C65	C	1.646111	0.333227	0.567140
C66	C	1.979444	0.666561	0.900473
C67	C	1.418920	-0.000109	0.244651
C68	C	1.752253	0.333225	0.577984
C69	C	2.085587	0.666558	0.911318
C70	C	1.131031	-0.000102	0.052060
C71	C	1.464365	0.333231	0.385393
C72	C	1.797698	0.666565	0.718727
C73	C	1.120187	-0.000102	-0.054083
C74	C	1.453520	0.333231	0.279251
C75	C	1.786854	0.666565	0.612584
N76	N	1.153817	0.265428	0.210984
N77	N	1.487151	0.598762	0.544317
N78	N	1.820484	0.932095	0.877651
C79	C	1.100362	-0.000086	-0.248421
C80	C	1.433695	0.333248	0.084912
C81	C	1.767028	0.666581	0.418245
C82	C	1.177276	-0.000090	-0.299551
C83	C	1.510609	0.333244	0.033782
C84	C	1.843942	0.666577	0.367116
C85	C	1.166245	-0.000080	-0.407688
C86	C	1.499578	0.333253	-0.074354
C87	C	1.832911	0.666586	0.258979
C88	C	1.111391	-0.000095	-0.140275
C89	C	1.444725	0.333239	0.193059
C90	C	1.778058	0.666572	0.526392
C91	C	1.146610	-0.000080	0.399974
C92	C	1.479943	0.333253	0.733307
C93	C	1.813276	0.666587	1.066641
C94	C	1.157455	-0.000073	0.506116
C95	C	1.490788	0.333260	0.839450
C96	C	1.824121	0.666594	1.172783
H97	H	0.650693	-0.000077	0.338605
H98	H	0.984026	0.333256	0.671938
H99	H	1.317359	0.666590	1.005271
O100	O	1.232784	-0.467538	0.131773
O101	O	1.566117	-0.134205	0.465106
O102	O	1.899450	0.199128	0.798439
H103	H	1.285362	-0.418659	0.173116
H104	H	1.618695	-0.085325	0.506449
H105	H	1.952028	0.248008	0.839783
O106	O	1.275474	-0.000101	-0.249962
O107	O	1.608808	0.333233	0.083371
O108	O	1.942141	0.666566	0.416705
H109	H	1.330118	-0.000095	-0.304101
H110	H	1.663451	0.333239	0.029232
H111	H	1.996785	0.666572	0.362565
H112	H	1.061336	-0.518442	0.303733
H113	H	1.394669	-0.185108	0.637066
H114	H	1.728002	0.148225	0.970400
H115	H	0.626945	-0.000099	0.113431
H116	H	0.960278	0.333234	0.446764
H117	H	1.293612	0.666568	0.780097
O118	O	1.002165	-0.000092	-0.298001
O119	O	1.335498	0.333241	0.035332
O120	O	1.668832	0.666574	0.368666
H121	H	1.008802	-0.000101	-0.376385
H122	H	1.342135	0.333232	-0.043052
H123	H	1.675469	0.666565	0.290282
