data_functionalizedCrystal
_audit_creation_method	'MofGen! by Chris Wilmer'
_symmetry_space_group_name_H-M	'P1'
_symmetry_Int_Tables_number	1
_symmetry_cell_setting	triclinic
loop_
_symmetry_equiv_pos_as_xyz
  x,y,z
_cell_length_a	15.995350
_cell_length_b	11.026607
_cell_length_c	10.065875
_cell_angle_alpha	79.268236
_cell_angle_beta	98.743618
_cell_angle_gamma	96.039196
loop_
_atom_site_label
_atom_site_type_symbol
_atom_site_fract_x
_atom_site_fract_y
_atom_site_fract_z
O1	O	-1.144114	-0.138601	-0.113371
O2	O	-0.903252	-0.157912	-0.113398
O3	O	-1.003720	0.028396	-0.113382
O4	O	-1.043646	-0.324909	-0.113387
O5	O	-0.984584	-0.007273	0.113604
O6	O	-0.884116	-0.193581	0.113587
O7	O	-1.124978	-0.174270	0.113615
Zn8	Zn	-1.001509	-0.189589	0.149640
Zn9	Zn	-1.026722	-0.142593	-0.149423
O10	O	-1.024510	-0.360578	0.113598
C11	C	-0.862369	-0.174948	0.000091
C12	C	-0.769059	-0.172552	0.000080
C13	C	-1.165861	-0.157234	0.000123
C14	C	-1.259172	-0.159628	0.000124
C15	C	-0.986787	0.055773	0.000108
C16	C	-0.964831	0.190488	0.000101
C17	C	-0.430013	-0.163959	0.000109
C18	C	-0.457405	-0.031352	0.000617
C19	C	-0.554500	-0.033664	0.000096
C20	C	-0.598218	-0.168221	0.000096
C21	C	-0.577923	-0.213299	-0.129520
C22	C	-0.480793	-0.209950	-0.129619
C23	C	-0.459105	-0.253254	0.128506
C24	C	-0.555902	-0.253491	0.130210
C25	C	-0.693281	-0.170637	0.000083
C26	C	-0.334952	-0.161546	0.000112
C27	C	-1.041443	-0.387955	0.000105
C28	C	-1.063400	-0.522668	0.000103
N29	N	-0.984307	-0.221661	0.353743
C30	C	-1.025457	0.264293	0.000106
C31	C	-1.002765	0.403528	0.000098
N32	N	-1.043928	-0.110511	-0.353526
C33	C	-1.020730	-0.153745	0.421527
C34	C	-1.007500	-0.178438	0.578693
H35	H	-0.567342	0.003179	0.093010
Cl36	Cl	-0.858756	0.252070	0.000075
Cl37	Cl	-1.169482	0.415762	0.000109
H38	H	-1.084905	-0.034075	0.588160
Cl39	Cl	-1.083769	-0.035472	0.331497
Cl40	Cl	-0.944223	-0.296438	0.668719
H41	H	-0.934059	0.443417	0.000082
Cl42	Cl	-0.921033	-0.339656	0.443774
H43	H	-0.423749	-0.225314	0.226752
Cl44	Cl	-0.404361	0.027986	0.144129
H45	H	-0.463459	-0.146999	-0.226509
H46	H	-0.437647	0.035968	-0.091821
Cl47	Cl	-0.574356	-0.202872	0.278256
Cl48	Cl	-0.597621	0.068568	-0.143850
H49	H	-0.463723	-0.306443	-0.135502
Cl50	Cl	-0.623388	-0.364738	-0.136997
H51	H	-0.607578	-0.152685	-0.225982
H52	H	-0.585397	-0.352844	0.138038
Cl53	Cl	-1.131533	0.202714	0.000110
Cl54	Cl	-0.432721	-0.404507	0.129861
