data_functionalizedCrystal
_audit_creation_method	'MofGen! by Chris Wilmer'
_symmetry_space_group_name_H-M	'P1'
_symmetry_Int_Tables_number	1
_symmetry_cell_setting	triclinic
loop_
_symmetry_equiv_pos_as_xyz
  x,y,z
_cell_length_a	11.792241
_cell_length_b	14.044220
_cell_length_c	10.268362
_cell_angle_alpha	89.993803
_cell_angle_beta	89.999626
_cell_angle_gamma	88.691147
loop_
_atom_site_label
_atom_site_type_symbol
_atom_site_fract_x
_atom_site_fract_y
_atom_site_fract_z
O1	O	1.519112	0.129987	-0.108177
O2	O	1.190028	0.143384	-0.108207
O3	O	1.349630	-0.001325	-0.108180
O4	O	1.359509	0.274695	-0.108204
O5	O	1.349615	-0.001331	0.108421
O6	O	1.190012	0.143378	0.108393
O7	O	1.519096	0.129981	0.108424
Cu8	Cu	1.354553	0.136679	0.128186
Cu9	Cu	1.354571	0.136686	-0.127969
O10	O	1.359494	0.274689	0.108396
C11	C	1.147650	0.142539	0.000089
C12	C	1.021400	0.140020	0.000078
C13	C	0.790253	0.135389	0.000116
C14	C	0.918880	0.137962	0.000095
C15	C	1.345298	-0.036664	0.000121
C16	C	1.332399	-0.141956	0.000121
C17	C	1.308817	-0.334739	0.000100
C18	C	1.400302	-0.391902	0.000105
C19	C	1.387181	-0.499173	0.000093
C20	C	1.321937	-0.227458	0.000112
C21	C	1.561474	0.130826	0.000125
C22	C	1.687724	0.133344	0.000127
C23	C	1.363826	0.310029	0.000093
C24	C	1.376725	0.415321	0.000084
N25	N	1.354548	0.136673	0.308352
N26	N	1.354584	0.136684	-0.308135
C27	C	1.354565	0.136684	0.574022
C28	C	1.354552	0.136681	0.426185
H29	H	1.220647	-0.366361	0.000089
C30	C	1.532472	-0.292954	-0.111198
C31	C	1.519341	-0.349218	0.000134
H32	H	1.605957	-0.266597	-0.111169
H33	H	1.523582	-0.331104	-0.186724
H34	H	1.476791	-0.242994	-0.111191
H35	H	1.575017	-0.399183	0.000122
H36	H	1.528242	-0.311066	0.075680
