data_functionalizedCrystal
_audit_creation_method	'MofGen! by Chris Wilmer'
_symmetry_space_group_name_H-M	'P1'
_symmetry_Int_Tables_number	1
_symmetry_cell_setting	triclinic
loop_
_symmetry_equiv_pos_as_xyz
  x,y,z
_cell_length_a	12.837943
_cell_length_b	12.996460
_cell_length_c	12.837942
_cell_angle_alpha	89.994579
_cell_angle_beta	85.171060
_cell_angle_gamma	90.004257
loop_
_atom_site_label
_atom_site_type_symbol
_atom_site_fract_x
_atom_site_fract_y
_atom_site_fract_z
O1	O	1.402337	0.085548	-0.272142
O2	O	1.099204	0.085554	-0.258699
O3	O	1.244049	0.085544	-0.113854
O4	O	1.257492	0.085557	-0.416988
O5	O	1.244031	-0.085589	-0.113844
O6	O	1.099186	-0.085580	-0.258689
O7	O	1.402320	-0.085586	-0.272132
Cu8	Cu	1.250751	-0.101209	-0.265409
Cu9	Cu	1.250772	0.101176	-0.265422
O10	O	1.257475	-0.085577	-0.416977
C11	C	1.060126	-0.000013	-0.254153
C12	C	0.943711	-0.000010	-0.240608
N13	N	1.250744	-0.243556	-0.265401
C14	C	0.718837	-0.000018	-0.403437
C15	C	0.609454	-0.000017	-0.390716
C16	C	0.615562	-0.000014	-0.202445
C17	C	0.724944	-0.000015	-0.215166
C18	C	0.776578	-0.000016	-0.315666
C19	C	0.885962	-0.000010	-0.328386
C20	C	0.892067	-0.000014	-0.140116
C21	C	0.782685	-0.000013	-0.127395
C22	C	1.250771	-0.663370	-0.265423
C23	C	1.250761	-0.546565	-0.265420
C24	C	1.250758	-0.453467	-0.265413
C25	C	1.250747	-0.336654	-0.265408
C26	C	1.441398	-0.000018	-0.276679
C27	C	1.557813	-0.000013	-0.290223
C28	C	1.239499	-0.000022	-0.074780
C29	C	1.225954	-0.000020	0.041635
N30	N	1.250787	0.243524	-0.265423
C31	C	1.262025	-0.000008	-0.456051
C32	C	1.275569	-0.000004	-0.572467
C33	C	1.388784	-0.000002	0.266510
C34	C	1.376062	0.000000	0.375892
C35	C	1.187791	-0.000007	0.369785
C36	C	1.200513	-0.000009	0.260402
C37	C	1.301012	-0.000008	0.208769
C38	C	1.313732	-0.000017	0.099384
C39	C	1.125462	-0.000017	0.093279
C40	C	1.112741	-0.000015	0.202661
H41	H	0.760878	-0.000017	-0.485268
H42	H	1.105969	0.000004	0.411844
H43	H	1.030917	-0.000011	0.244717
H44	H	1.053992	-0.000030	0.046254
H45	H	0.928000	-0.000012	-0.410218
H46	H	0.562446	-0.000022	-0.462189
O47	O	1.486423	0.000179	0.216392
C48	C	1.651258	0.088807	0.188173
C49	C	1.540703	0.088741	0.244978
H50	H	1.695183	0.160390	0.211280
H51	H	1.645332	0.088873	0.100066
H52	H	1.695131	0.017155	0.211175
H53	H	1.496769	0.160380	0.222061
H54	H	1.546704	0.088621	0.333072
H55	H	0.740630	-0.000024	-0.045571
O56	O	0.565508	0.000121	-0.104777
C57	C	0.537187	0.088812	0.059995
C58	C	0.593960	0.088775	-0.050573
H59	H	0.560153	0.160492	0.103843
H60	H	0.560213	0.017244	0.103996
H61	H	0.449097	0.088758	0.053972
H62	H	0.682062	0.088865	-0.044646
H63	H	0.570848	0.160337	-0.094533
O64	O	0.948110	0.000169	-0.054814
C65	C	0.986746	0.088805	0.102231
C66	C	0.923235	0.088732	0.005663
H67	H	0.966642	0.160389	0.151165
H68	H	1.073810	0.088874	0.075942
H69	H	0.966751	0.017154	0.151117
H70	H	0.943140	0.160371	-0.043265
H71	H	0.836188	0.088610	0.032023
H72	H	1.395564	-0.000020	0.057346
H73	H	1.447536	0.000008	0.422901
