data_functionalizedCrystal
_audit_creation_method	'MofGen! by Chris Wilmer'
_symmetry_space_group_name_H-M	'P1'
_symmetry_Int_Tables_number	1
_symmetry_cell_setting	triclinic
loop_
_symmetry_equiv_pos_as_xyz
  x,y,z
_cell_length_a	14.519731
_cell_length_b	13.596369
_cell_length_c	10.723024
_cell_angle_alpha	89.995193
_cell_angle_beta	95.921639
_cell_angle_gamma	90.005416
loop_
_atom_site_label
_atom_site_type_symbol
_atom_site_fract_x
_atom_site_fract_y
_atom_site_fract_z
O1	O	1.224692	0.081791	-0.163703
O2	O	1.558026	0.415124	0.169630
O3	O	1.891359	0.748458	0.502964
O4	O	0.956316	0.081792	-0.182938
O5	O	1.289650	0.415125	0.150395
O6	O	1.622983	0.748459	0.483728
O7	O	1.096695	0.081788	0.008313
O8	O	1.430028	0.415121	0.341646
O9	O	1.763362	0.748455	0.674979
O10	O	1.084314	0.081795	-0.354954
O11	O	1.417647	0.415129	-0.021621
O12	O	1.750981	0.748462	0.311712
O13	O	1.096681	-0.081795	0.008323
O14	O	1.430014	0.251538	0.341656
O15	O	1.763347	0.584872	0.674990
O16	O	0.956302	-0.081791	-0.182928
O17	O	1.289636	0.251543	0.150405
O18	O	1.622969	0.584876	0.483738
O19	O	1.224678	-0.081792	-0.163693
O20	O	1.558012	0.251541	0.169640
O21	O	1.891345	0.584875	0.502974
Zn22	Zn	1.090488	-0.107764	-0.173309
Zn23	Zn	1.423821	0.225570	0.160024
Zn24	Zn	1.757155	0.558903	0.493358
Zn25	Zn	1.090507	0.107764	-0.173322
Zn26	Zn	1.423840	0.441097	0.160011
Zn27	Zn	1.757173	0.774431	0.493344
O28	O	1.084300	-0.081788	-0.354944
O29	O	1.417633	0.251546	-0.021611
O30	O	1.750966	0.584879	0.311723
C31	C	0.921945	0.000001	-0.182032
C32	C	1.255279	0.333334	0.151301
C33	C	1.588612	0.666668	0.484635
C34	C	0.819551	0.000001	-0.179331
C35	C	1.152885	0.333335	0.154002
C36	C	1.486218	0.666668	0.487335
N37	N	1.090482	-0.254856	-0.173299
N38	N	1.423815	0.078478	0.160034
N39	N	1.757149	0.411811	0.493368
C40	C	0.736396	0.000005	-0.177137
C41	C	1.069729	0.333339	0.156197
C42	C	1.403063	0.666672	0.489530
C43	C	0.632073	0.000006	-0.174395
C44	C	0.965407	0.333339	0.158939
C45	C	1.298740	0.666672	0.492272
C46	C	0.548923	0.000005	-0.172218
C47	C	0.882256	0.333339	0.161115
C48	C	1.215590	0.666672	0.494448
C49	C	0.444594	0.000008	-0.169476
C50	C	0.777927	0.333341	0.163857
C51	C	1.111260	0.666674	0.497190
C52	C	1.090505	-0.656146	-0.173324
C53	C	1.423839	-0.322813	0.160010
C54	C	1.757172	0.010520	0.493343
C55	C	1.090496	-0.544495	-0.173321
C56	C	1.423830	-0.211162	0.160012
C57	C	1.757163	0.122172	0.493346
C58	C	1.090494	-0.455505	-0.173312
C59	C	1.423828	-0.122171	0.160021
C60	C	1.757161	0.211162	0.493354
C61	C	1.090484	-0.343846	-0.173308
C62	C	1.423817	-0.010513	0.160026
C63	C	1.757151	0.322821	0.493359
C64	C	1.259049	0.000001	-0.164599
C65	C	1.592383	0.333335	0.168734
C66	C	1.925716	0.666668	0.502067
C67	C	1.361443	0.000007	-0.167300
C68	C	1.694777	0.333341	0.166033
C69	C	2.028110	0.666674	0.499367
C70	C	1.095787	-0.000002	0.054809
C71	C	1.429120	0.333331	0.388142
C72	C	1.762454	0.666664	0.721476
C73	C	1.093091	0.000001	0.193338
C74	C	1.426425	0.333334	0.526672
C75	C	1.759758	0.666668	0.860005
N76	N	1.090520	0.254856	-0.173322
N77	N	1.423853	0.588189	0.160011
N78	N	1.757187	0.921522	0.493344
C79	C	1.085208	0.000005	-0.401440
C80	C	1.418541	0.333338	-0.068107
C81	C	1.751875	0.666671	0.265226
C82	C	1.087904	0.000008	-0.539970
C83	C	1.421237	0.333341	-0.206636
C84	C	1.754570	0.666674	0.126697
C85	C	1.171640	0.000002	0.269047
C86	C	1.504973	0.333335	0.602381
C87	C	1.838306	0.666669	0.935714
C88	C	1.168855	0.000006	0.412225
C89	C	1.502189	0.333339	0.745558
C90	C	1.835522	0.666672	1.078892
H91	H	1.236099	0.000002	0.477280
H92	H	1.569432	0.333335	0.810613
H93	H	1.902766	0.666669	1.143946
O94	O	0.998818	0.000000	0.373882
O95	O	1.332152	0.333334	0.707216
O96	O	1.665485	0.666667	1.040549
H97	H	0.996012	0.066675	0.313877
H98	H	1.329345	0.400008	0.647210
H99	H	1.662678	0.733342	0.980543
O100	O	1.263456	0.000001	0.214518
O101	O	1.596789	0.333334	0.547852
O102	O	1.930123	0.666667	0.881185
H103	H	1.251234	-0.000008	0.110618
H104	H	1.584568	0.333325	0.443951
H105	H	1.917901	0.666659	0.777285
O106	O	1.001280	-0.000003	0.247880
O107	O	1.334613	0.333330	0.581213
O108	O	1.667946	0.666664	0.914546
H109	H	0.961504	0.066672	0.215927
H110	H	1.294837	0.400006	0.549260
H111	H	1.628171	0.733339	0.882594
