data_functionalizedCrystal
_audit_creation_method	'MofGen! by Chris Wilmer'
_symmetry_space_group_name_H-M	'P1'
_symmetry_Int_Tables_number	1
_symmetry_cell_setting	triclinic
loop_
_symmetry_equiv_pos_as_xyz
  x,y,z
_cell_length_a	8.597340
_cell_length_b	23.532407
_cell_length_c	22.610064
_cell_angle_alpha	89.999397
_cell_angle_beta	97.693743
_cell_angle_gamma	84.100404
loop_
_atom_site_label
_atom_site_type_symbol
_atom_site_fract_x
_atom_site_fract_y
_atom_site_fract_z
O1	O	2.081062	0.085001	0.056861
O2	O	1.624040	0.091519	0.033569
O3	O	1.866333	0.005433	0.045928
O4	O	1.838770	0.171087	0.044502
O5	O	1.866290	0.005446	0.144295
O6	O	1.623998	0.091531	0.131936
O7	O	2.081019	0.085014	0.155228
Zn8	Zn	1.852502	0.088275	0.159200
Zn9	Zn	1.852558	0.088258	0.029597
O10	O	1.838727	0.171099	0.142869
C11	C	1.565560	0.090824	0.079774
C12	C	1.391371	0.088730	0.070896
C13	C	1.865610	-0.015782	0.095078
C14	C	1.863499	-0.079015	0.094975
C15	C	1.993647	-0.477125	0.101575
C16	C	1.991686	-0.536540	0.101471
O17	O	2.112335	-0.572365	0.107598
N18	N	1.847644	-0.560265	0.094130
C19	C	1.705552	-0.524572	0.086887
O20	O	1.582852	-0.550207	0.080633
C21	C	1.707514	-0.465157	0.086988
C22	C	1.851566	-0.441436	0.094335
C23	C	2.137687	-0.453403	0.108921
C24	C	2.139647	-0.393992	0.109027
C25	C	1.997566	-0.358303	0.101786
C26	C	1.853526	-0.382025	0.094440
C27	C	1.565424	-0.429465	0.079741
C28	C	1.567398	-0.370047	0.079841
C29	C	1.711451	-0.346326	0.087188
C30	C	1.713405	-0.286925	0.087305
N31	N	1.857448	-0.263200	0.094646
C32	C	1.999528	-0.298889	0.101886
C33	C	1.701443	-0.649345	0.086676
C34	C	1.699479	-0.708758	0.086580
C35	C	1.985614	-0.720723	0.101163
C36	C	1.987576	-0.661309	0.101263
C37	C	1.845485	-0.625620	0.094017
C38	C	2.003633	-0.174121	0.102108
C39	C	2.005580	-0.114704	0.102215
C40	C	1.719446	-0.102744	0.087630
C41	C	1.717498	-0.162156	0.087525
C42	C	1.859604	-0.197843	0.094763
O43	O	1.592820	-0.251065	0.081179
O44	O	2.122208	-0.273245	0.108132
C45	C	2.139500	0.085708	0.109023
C46	C	2.313689	0.087803	0.117896
C47	C	1.839450	0.192314	0.093718
C48	C	1.841561	0.255547	0.093818
N49	N	1.852475	0.088285	0.247651
N50	N	1.852598	0.088243	-0.058853
C51	C	1.959850	0.050146	0.661770
C52	C	1.959858	0.050141	0.723690
O53	O	2.051085	0.017722	0.760362
N54	N	1.852557	0.088246	0.749193
C55	C	1.745230	0.126354	0.712771
O56	O	1.653962	0.158764	0.740148
C57	C	1.745216	0.126354	0.650851
C58	C	1.852535	0.088251	0.625353
C59	C	2.067159	0.012045	0.636271
C60	C	2.067152	0.012050	0.574355
C61	C	1.959837	0.050155	0.537938
C62	C	1.852528	0.088256	0.563437
C63	C	1.637883	0.164459	0.614430
C64	C	1.637877	0.164456	0.552507
C65	C	1.745196	0.126353	0.527008
C66	C	1.745206	0.126367	0.465104
N67	N	1.852507	0.088262	0.439601
C68	C	1.959823	0.050156	0.476018
C69	C	1.745267	0.126348	0.842806
C70	C	1.745287	0.126351	0.904725
C71	C	1.959913	0.050138	0.915640
C72	C	1.959899	0.050138	0.853720
C73	C	1.852568	0.088243	0.817304
C74	C	1.959802	0.050170	0.345990
C75	C	1.959790	0.050180	0.284068
C76	C	1.745159	0.126391	0.273158
C77	C	1.745176	0.126383	0.335075
C78	C	1.852503	0.088268	0.371489
O79	O	1.654021	0.158768	0.428394
O80	O	2.051062	0.017746	0.448632
H81	H	1.324610	0.087920	0.023862
H82	H	1.380443	0.088608	0.164927
H83	H	2.047293	0.019109	0.945302
F84	F	2.181367	-0.028507	0.547223
H85	H	1.657868	0.157383	0.813158
F86	F	2.288923	-0.491378	0.116628
H87	H	2.104876	-0.641999	0.107245
H88	H	2.122889	-0.095393	0.108200
H89	H	2.119350	-0.203171	0.107999
F90	F	1.416161	-0.332068	0.072128
F91	F	2.292968	-0.368754	0.116834
H92	H	2.101304	-0.749792	0.107056
F93	F	1.546159	-0.733998	0.078771
F94	F	1.550199	-0.611367	0.078969
H95	H	1.448122	-0.448768	0.073754
H96	H	1.600199	-0.181471	0.081559
F97	F	1.568241	-0.064751	0.079924
H98	H	2.047187	0.019152	0.263310
F99	F	2.074032	0.009603	0.384736
H100	H	2.154548	-0.018988	0.665917
F101	F	2.074119	0.009583	0.826589
H102	H	1.657915	0.157384	0.925482
H103	H	1.550494	0.195485	0.635182
F104	F	1.523633	0.205013	0.513753
F105	F	1.630970	0.166943	0.362211
F106	F	1.630954	0.166945	0.234392
