data_functionalizedCrystal
_audit_creation_method	'MofGen! by Chris Wilmer'
_symmetry_space_group_name_H-M	'P1'
_symmetry_Int_Tables_number	1
_symmetry_cell_setting	triclinic
loop_
_symmetry_equiv_pos_as_xyz
  x,y,z
_cell_length_a	35.277628
_cell_length_b	35.288095
_cell_length_c	35.277682
_cell_angle_alpha	59.997929
_cell_angle_beta	89.998958
_cell_angle_gamma	60.000166
loop_
_atom_site_label
_atom_site_type_symbol
_atom_site_fract_x
_atom_site_fract_y
_atom_site_fract_z
O1	O	-0.323087	-0.271234	0.011271
O2	O	-0.267964	-0.193634	-0.011228
O3	O	-0.267962	-0.271233	0.066395
O4	O	-0.323089	-0.193635	-0.066351
O5	O	-0.204915	-0.334261	0.066394
O6	O	-0.204918	-0.256661	-0.011228
O7	O	-0.260040	-0.334261	0.011271
Zn8	Zn	-0.222469	-0.305468	0.000022
Zn9	Zn	-0.305535	-0.222427	0.000022
O10	O	-0.260043	-0.256662	-0.066351
C11	C	-0.163481	-0.071298	-0.023519
C12	C	-0.186872	-0.024531	-0.020298
C13	C	-0.117860	-0.093995	-0.023838
C14	C	-0.163483	-0.139918	-0.023524
C15	C	-0.186875	-0.166518	-0.020308
C16	C	-0.117862	-0.162510	-0.023843
C17	C	-0.094838	-0.139921	-0.023519
C18	C	-0.044836	-0.166525	-0.020298
C19	C	-0.186401	-0.093991	-0.023843
C20	C	-0.004439	-0.188019	-0.017694
C21	C	-0.205769	0.013252	-0.017695
C22	C	-0.205774	-0.188010	-0.017709
C23	C	0.046241	-0.214983	-0.014429
C24	C	-0.229477	0.060653	-0.014430
C25	C	-0.229483	-0.214971	-0.014450
C26	C	-0.500364	-0.466062	0.034181
C27	C	-0.477341	-0.511990	0.034503
C28	C	-0.431722	-0.466060	0.034178
C29	C	-0.408804	-0.511988	0.034500
C30	C	-0.431721	-0.534685	0.034181
C31	C	-0.477342	-0.443470	0.034500
C32	C	-0.665895	-0.342485	0.021756
C33	C	-0.712772	-0.317221	0.018243
C34	C	-0.736287	-0.338907	0.016481
C35	C	-0.787116	-0.311512	0.012664
C36	C	-0.712921	-0.385861	0.018236
C37	C	-0.666047	-0.411125	0.021755
C38	C	-0.642533	-0.389434	0.023515
C39	C	-0.389805	-0.687746	0.021758
C40	C	-0.368199	-0.731097	0.018245
C41	C	-0.322995	-0.752841	0.016478
C42	C	-0.299567	-0.799839	0.012662
C43	C	-0.299393	-0.731235	0.018230
C44	C	-0.320995	-0.687892	0.021751
C45	C	-0.366205	-0.666148	0.023512
C46	C	-0.389808	-0.342477	0.021744
C47	C	-0.368205	-0.317208	0.018222
C48	C	-0.322998	-0.338892	0.016457
C49	C	-0.299573	-0.311495	0.012637
C50	C	-0.299398	-0.385842	0.018210
C51	C	-0.321003	-0.411107	0.021730
C52	C	-0.366208	-0.389423	0.023501
C53	C	-0.591706	-0.416830	0.027326
C54	C	-0.551191	-0.438667	0.030366
C55	C	-0.408299	-0.438663	0.030360
C56	C	-0.389629	-0.416824	0.027317
C57	C	-0.408298	-0.581682	0.030365
C58	C	-0.389627	-0.619146	0.027325
C59	C	-0.432024	-0.061845	-0.438511
C60	C	-0.477645	-0.015917	-0.461431
C61	C	-0.432025	-0.061844	-0.369869
C62	C	-0.477645	-0.015916	-0.392892
C63	C	-0.500668	0.006779	-0.438513
C64	C	-0.409106	-0.084435	-0.392891
C65	C	-0.320834	-0.185425	-0.480424
C66	C	-0.299076	-0.210690	-0.502029
C67	C	-0.322531	-0.189005	-0.547237
C68	C	-0.298945	-0.216401	-0.570661
C69	C	-0.367745	-0.142051	-0.570839
C70	C	-0.389497	-0.116787	-0.549237
C71	C	-0.366040	-0.138476	-0.504027
C72	C	-0.666200	0.159838	-0.549704
C73	C	-0.713077	0.203188	-0.571462
C74	C	-0.736595	0.224934	-0.548009
C75	C	-0.787423	0.271931	-0.571594
C76	C	-0.713230	0.203329	-0.502796
C77	C	-0.666353	0.159987	-0.481041
C78	C	-0.642841	0.138241	-0.504500
C79	C	-0.320836	-0.185423	-0.204335
C80	C	-0.299080	-0.210691	-0.157455
C81	C	-0.322536	-0.189006	-0.133940
C82	C	-0.298950	-0.216402	-0.083110
C83	C	-0.367748	-0.142056	-0.157305
C84	C	-0.389502	-0.116792	-0.204182
C85	C	-0.366040	-0.138478	-0.227695
C86	C	-0.389632	-0.111079	-0.480604
C87	C	-0.408436	-0.089241	-0.461934
C88	C	-0.408437	-0.089240	-0.319041
C89	C	-0.389634	-0.111078	-0.278525
C90	C	-0.551496	0.053776	-0.462102
C91	C	-0.592011	0.091239	-0.480906
O92	O	0.196122	-0.334274	0.011291
O93	O	0.063378	-0.256674	-0.011208
O94	O	0.140994	-0.334276	0.066414
O95	O	0.118506	-0.256671	-0.066331
O96	O	0.140996	-0.271251	0.066419
O97	O	0.063380	-0.193649	-0.011203
O98	O	0.196124	-0.271249	0.011296
Zn99	Zn	0.129752	-0.222442	0.000047
Zn100	Zn	0.129750	-0.305480	0.000041
O101	O	0.118508	-0.193647	-0.066327
O102	O	-0.260036	0.184774	0.011294
O103	O	-0.204910	0.074561	-0.011204
O104	O	-0.204913	0.074554	0.066418
O105	O	-0.260033	0.184781	-0.066328
O106	O	-0.267961	0.074557	0.066413
O107	O	-0.267958	0.074564	-0.011209
O108	O	-0.323083	0.184777	0.011289
Zn109	Zn	-0.305531	0.129671	0.000039
Zn110	Zn	-0.222463	0.129667	0.000046
O111	O	-0.323081	0.184784	-0.066333
O112	O	-0.936929	0.397535	-0.602582
O113	O	-0.804185	0.287317	-0.547454
O114	O	-0.881802	0.287315	-0.547452
O115	O	-0.859312	0.397537	-0.602584
O116	O	-0.881801	0.287314	-0.610498
O117	O	-0.804183	0.287316	-0.610500
O118	O	-0.936927	0.397533	-0.665628
Zn119	Zn	-0.870555	0.342425	-0.648073
Zn120	Zn	-0.870557	0.342426	-0.565008
O121	O	-0.859310	0.397536	-0.665629
O122	O	-0.267961	-0.271234	-0.665316
O123	O	-0.323086	-0.193638	-0.610192
O124	O	-0.323085	-0.271236	-0.610189
O125	O	-0.267962	-0.193636	-0.665319
O126	O	-0.260038	-0.334264	-0.547142
O127	O	-0.260039	-0.256666	-0.547145
O128	O	-0.204914	-0.334262	-0.602269
Zn129	Zn	-0.222466	-0.305471	-0.564697
Zn130	Zn	-0.305534	-0.222429	-0.647764
O131	O	-0.204915	-0.256664	-0.602272
C132	C	-0.094840	-0.456607	0.293255
C133	C	-0.044837	-0.503376	0.316647
C134	C	-0.117862	-0.433912	0.316174
C135	C	-0.163483	-0.387984	0.224612
C136	C	-0.186875	-0.361381	0.174609
C137	C	-0.186401	-0.365393	0.247634
C138	C	-0.163483	-0.387984	0.293255
C139	C	-0.186874	-0.361382	0.316646
C140	C	-0.117862	-0.433912	0.247635
C141	C	-0.205772	-0.339889	0.335543
C142	C	-0.004440	-0.541160	0.335545
C143	C	-0.205773	-0.339888	0.134212
C144	C	-0.229480	-0.312925	0.359250
C145	C	0.046239	-0.588562	0.359254
C146	C	-0.229481	-0.312924	0.083532
C147	C	0.153295	-0.388013	0.293279
C148	C	0.150076	-0.361413	0.316673
C149	C	0.153614	-0.433940	0.316196
C150	C	0.153297	-0.388008	0.224634
C151	C	0.150079	-0.361403	0.174632
C152	C	0.153616	-0.433935	0.247655
C153	C	0.153293	-0.456633	0.293275
C154	C	0.150072	-0.503401	0.316665
C155	C	0.153617	-0.365420	0.247659
C156	C	0.147469	-0.541185	0.335561
C157	C	0.147474	-0.339922	0.335572
C158	C	0.147479	-0.339908	0.134234
C159	C	0.144204	-0.588587	0.359267
C160	C	0.144211	-0.312962	0.359282
C161	C	0.144218	-0.312942	0.083555
C162	C	-0.163482	-0.139963	0.293267
C163	C	-0.186875	-0.166567	0.316654
C164	C	-0.117861	-0.162559	0.316187
C165	C	-0.163482	-0.071333	0.224628
C166	C	-0.186873	-0.024557	0.174627
C167	C	-0.117860	-0.094033	0.247653
C168	C	-0.094838	-0.139967	0.293272
C169	C	-0.044835	-0.166574	0.316665
C170	C	-0.186401	-0.094030	0.247648
C171	C	-0.004438	-0.188070	0.335563
C172	C	-0.205773	-0.188061	0.335549
C173	C	-0.205771	0.013233	0.134231
C174	C	0.046242	-0.215038	0.359273
C175	C	-0.229482	-0.215026	0.359253
C176	C	-0.229479	0.060643	0.083553
C177	C	0.095627	0.006487	-0.438489
C178	C	0.095306	-0.016206	-0.461409
C179	C	0.095623	-0.062137	-0.369847
C180	C	0.095303	-0.084726	-0.392871
C181	C	0.095625	-0.062133	-0.438492
C182	C	0.095305	-0.016210	-0.392868
C183	C	0.108059	0.159543	-0.480399
C184	C	0.111575	0.202893	-0.502003
C185	C	0.113340	0.224640	-0.547210
C186	C	0.117161	0.271637	-0.570634
C187	C	0.111587	0.203038	-0.570814
C188	C	0.108065	0.159695	-0.549212
C189	C	0.106302	0.137948	-0.504002
C190	C	0.108054	-0.116452	-0.549685
C191	C	0.111568	-0.141562	-0.571444
C192	C	0.113332	-0.188519	-0.547992
C193	C	0.117148	-0.215753	-0.571578
C194	C	0.111577	-0.210363	-0.502779
C195	C	0.108055	-0.185249	-0.481023
C196	C	0.106297	-0.138292	-0.504481
C197	C	0.108046	-0.116473	-0.204312
C198	C	0.111564	-0.141591	-0.157432
C199	C	0.113326	-0.188548	-0.133918
C200	C	0.117142	-0.215786	-0.083088
C201	C	0.111574	-0.210388	-0.157283
C202	C	0.108058	-0.185270	-0.204161
C203	C	0.106290	-0.138308	-0.227673
C204	C	0.102487	0.090947	-0.480580
C205	C	0.099445	0.053484	-0.461911
C206	C	0.099438	-0.089371	-0.319019
C207	C	0.102477	-0.111078	-0.278503
C208	C	0.099442	-0.089362	-0.462081
C209	C	0.102482	-0.111066	-0.480886
O210	O	0.118477	-0.256700	0.452885
O211	O	0.140984	-0.334299	0.397762
O212	O	0.063360	-0.256699	0.397752
O213	O	0.196101	-0.334300	0.452895
O214	O	0.063367	-0.193672	0.334708
O215	O	0.140992	-0.271271	0.334718
O216	O	0.118484	-0.193673	0.389842
Zn217	Zn	0.129739	-0.222465	0.352270
Zn218	Zn	0.129729	-0.305506	0.435333
O219	O	0.196108	-0.271272	0.389852
C220	C	-0.500364	0.533998	-0.438484
C221	C	-0.477341	0.556591	-0.461399
C222	C	-0.431721	0.465364	-0.369840
C223	C	-0.408802	0.488061	-0.392859
C224	C	-0.431720	0.533995	-0.438478
C225	C	-0.477342	0.488064	-0.392865
C226	C	-0.665898	0.588334	-0.480407
C227	C	-0.712776	0.613450	-0.502014
C228	C	-0.736291	0.660414	-0.547220
C229	C	-0.787122	0.687654	-0.570647
C230	C	-0.712926	0.682257	-0.570819
C231	C	-0.666050	0.657138	-0.549214
C232	C	-0.642536	0.610174	-0.504006
C233	C	-0.389802	0.657585	-0.549654
C234	C	-0.368196	0.682850	-0.571408
C235	C	-0.322990	0.661164	-0.547952
C236	C	-0.299561	0.688558	-0.571532
C237	C	-0.299388	0.614205	-0.502740
C238	C	-0.320990	0.588935	-0.480990
C239	C	-0.366202	0.610633	-0.504452
C240	C	-0.389804	0.312282	-0.204314
C241	C	-0.368201	0.268929	-0.157436
C242	C	-0.322993	0.247179	-0.133918
C243	C	-0.299567	0.200174	-0.083089
C244	C	-0.299392	0.268786	-0.157278
C245	C	-0.320998	0.312139	-0.204154
C246	C	-0.366204	0.333881	-0.227670
C247	C	-0.591708	0.582942	-0.480581
C248	C	-0.551193	0.561234	-0.461909
C249	C	-0.408297	0.418359	-0.319013
C250	C	-0.389626	0.380890	-0.278499
C251	C	-0.408296	0.561393	-0.462062
C252	C	-0.389624	0.583232	-0.480862
H253	H	-0.371321	-0.530978	0.035012
C254	C	0.094604	0.009442	-0.367890
C255	C	0.134349	0.014686	-0.360680
C256	C	0.133647	0.040334	-0.335700
C257	C	0.093200	0.060739	-0.317930
C258	C	0.053452	0.055496	-0.325140
C259	C	0.054154	0.029848	-0.350120
H260	H	0.164293	-0.000420	-0.373834
H261	H	0.163072	0.044215	-0.330362
H262	H	0.092680	0.079725	-0.299438
H263	H	0.023508	0.070601	-0.311985
H264	H	0.024729	0.025966	-0.355457
C265	C	-0.439228	-0.065143	-0.575197
C266	C	-0.448930	-0.013049	-0.584505
C267	C	-0.498662	0.038594	-0.610465
C268	C	-0.538693	0.038143	-0.627116
C269	C	-0.528992	-0.013952	-0.617808
C270	C	-0.479260	-0.065595	-0.591849
H271	H	-0.419296	-0.012714	-0.572178
H272	H	-0.505843	0.077158	-0.617355
H273	H	-0.575508	0.076373	-0.646333
H274	H	-0.558626	-0.014287	-0.630135
H275	H	-0.472079	-0.104159	-0.584958
C276	C	-0.092886	-0.068340	-0.024534
C277	C	-0.047885	-0.100889	0.015208
C278	C	-0.022909	-0.075237	0.014511
C279	C	-0.042935	-0.017036	-0.025928
C280	C	-0.087938	0.015517	-0.065674
C281	C	-0.112914	-0.010135	-0.064977
H282	H	-0.033058	-0.143976	0.045147
H283	H	0.010406	-0.099335	0.043934
H284	H	-0.024446	0.001953	-0.026444
H285	H	-0.102765	0.058604	-0.095612
H286	H	-0.146228	0.013963	-0.094399
H287	H	0.106619	-0.078217	-0.568789
H288	H	-0.387422	0.251343	-0.138417
C289	C	-0.092888	-0.212493	0.366822
C290	C	-0.118202	-0.237464	0.392138
C291	C	-0.093228	-0.287396	0.442771
C292	C	-0.042942	-0.312356	0.468088
C293	C	-0.017625	-0.287385	0.442773
C294	C	-0.042598	-0.237453	0.392140
H295	H	-0.155430	-0.218987	0.373396
H296	H	-0.111970	-0.305881	0.461511
H297	H	-0.024455	-0.349319	0.505570
H298	H	0.019603	-0.305862	0.461514
H299	H	-0.023857	-0.218968	0.373400
C300	C	-0.237039	-0.068335	-0.024544
C301	C	-0.249491	-0.063094	0.015203
C302	C	-0.300127	-0.037441	0.014503
C303	C	-0.338311	-0.017029	-0.025945
C304	C	-0.325860	-0.022270	-0.065695
C305	C	-0.275224	-0.047923	-0.064994
H306	H	-0.221224	-0.078204	0.045148
H307	H	-0.309344	-0.033561	0.043928
H308	H	-0.375795	0.001961	-0.026464
H309	H	-0.354127	-0.007160	-0.095640
H310	H	-0.266007	-0.051803	-0.094420
C311	C	-0.092893	-0.459565	0.222661
C312	C	-0.042601	-0.510179	0.247973
C313	C	-0.017632	-0.535828	0.222997
C314	C	-0.042955	-0.510862	0.172710
C315	C	-0.093249	-0.460244	0.147395
C316	C	-0.118218	-0.434596	0.172370
H317	H	-0.023854	-0.528663	0.285201
H318	H	0.019599	-0.573298	0.241737
H319	H	-0.024471	-0.529848	0.154221
H320	H	-0.111997	-0.441760	0.110166
H321	H	-0.155449	-0.397125	0.153630
C322	C	-0.502308	-0.537654	0.035203
C323	C	-0.552597	-0.512693	0.035548
C324	C	-0.577561	-0.538357	0.036249
C325	C	-0.552237	-0.588982	0.036604
C326	C	-0.501945	-0.613947	0.036259
C327	C	-0.476981	-0.588282	0.035559
H328	H	-0.571346	-0.475214	0.035285
H329	H	-0.614790	-0.519876	0.036504
H330	H	-0.570717	-0.607981	0.037123
H331	H	-0.483196	-0.651425	0.036522
H332	H	-0.439752	-0.606763	0.035303
C333	C	-0.502308	-0.393548	0.035201
C334	C	-0.552596	-0.368582	0.035549
C335	C	-0.577559	-0.318663	0.036252
C336	C	-0.552234	-0.293710	0.036608
C337	C	-0.501944	-0.318676	0.036260
C338	C	-0.476981	-0.368594	0.035557
H339	H	-0.571345	-0.387054	0.035286
H340	H	-0.614787	-0.300182	0.036510
H341	H	-0.570713	-0.256757	0.037129
H342	H	-0.483194	-0.300204	0.036523
H343	H	-0.439752	-0.387075	0.035299
H344	H	-0.099376	-0.075038	0.229168
H345	H	-0.223884	-0.075035	0.229163
H346	H	-0.386847	-0.124399	-0.138156
H347	H	0.154133	-0.328462	0.229178
H348	H	-0.099377	-0.452909	0.353658
C349	C	0.106126	-0.209290	-0.229862
C350	C	0.108061	-0.260937	-0.204001
C351	C	0.106130	-0.284958	-0.229703
C352	C	0.102263	-0.257331	-0.281265
C353	C	0.100328	-0.205681	-0.307129
C354	C	0.102259	-0.181660	-0.281428
H355	H	0.110924	-0.281391	-0.165829
H356	H	0.107563	-0.323193	-0.210556
H357	H	0.100833	-0.275113	-0.300291
H358	H	0.097465	-0.185227	-0.345302
H359	H	0.100826	-0.143424	-0.300575
H360	H	0.094791	0.002793	-0.498893
C361	C	-0.394164	-0.265565	0.016295
C362	C	-0.410811	-0.266019	0.056780
C363	C	-0.436770	-0.214378	0.054856
C364	C	-0.446081	-0.162282	0.012447
C365	C	-0.429433	-0.161825	-0.028041
C366	C	-0.403475	-0.213467	-0.026117
H367	H	-0.403919	-0.304586	0.088176
H368	H	-0.449093	-0.214716	0.084828
H369	H	-0.465297	-0.124054	0.011023
H370	H	-0.436326	-0.123259	-0.059437
H371	H	-0.391151	-0.213129	-0.056088
C372	C	0.113488	-0.117565	-0.131734
C373	C	0.075911	-0.100089	-0.110125
C374	C	0.077831	-0.076059	-0.084428
C375	C	0.117330	-0.069506	-0.080340
C376	C	0.154910	-0.086984	-0.101950
C377	C	0.152989	-0.111013	-0.127647
H378	H	0.046669	-0.104939	-0.113150
H379	H	0.050012	-0.063122	-0.068431
H380	H	0.118751	-0.051718	-0.061318
H381	H	0.184151	-0.082133	-0.098925
H382	H	0.180809	-0.123951	-0.143644
H383	H	-0.387419	-0.748683	0.016816
H384	H	-0.426614	0.329984	-0.223458
H385	H	-0.301727	-0.203079	-0.223479
C386	C	0.113511	0.226649	-0.476038
C387	C	0.153018	0.191235	-0.429988
C388	C	0.154955	0.214990	-0.404022
C389	C	0.117385	0.274158	-0.424107
C390	C	0.077876	0.309575	-0.470160
C391	C	0.075938	0.285821	-0.496125
H392	H	0.180831	0.147432	-0.415118
H393	H	0.184203	0.188772	-0.369931
H394	H	0.118819	0.291743	-0.404886
H395	H	0.050062	0.353379	-0.485030
H396	H	0.046690	0.312039	-0.530217
H397	H	-0.223883	-0.328432	0.229146
C398	C	0.154315	-0.459596	0.222686
C399	C	0.154663	-0.434633	0.172397
C400	C	0.155364	-0.460294	0.147431
C401	C	0.155718	-0.510920	0.172753
C402	C	0.155371	-0.535887	0.223045
C403	C	0.154669	-0.510225	0.248011
H404	H	0.154401	-0.397154	0.153649
H405	H	0.155621	-0.441812	0.110201
H406	H	0.156237	-0.529916	0.154272
H407	H	0.155633	-0.573365	0.241793
H408	H	0.154412	-0.528707	0.285241
C409	C	0.113528	0.226959	-0.620539
C410	C	0.075960	0.286169	-0.659552
C411	C	0.077902	0.310089	-0.709279
C412	C	0.117413	0.274800	-0.719994
C413	C	0.154984	0.215587	-0.680980
C414	C	0.153042	0.191666	-0.631253
H415	H	0.046709	0.312295	-0.651622
H416	H	0.050089	0.353923	-0.738160
H417	H	0.118851	0.292507	-0.756805
H418	H	0.184235	0.189460	-0.688910
H419	H	0.180855	0.147833	-0.602372
C420	C	-0.393545	-0.118199	-0.620565
C421	C	-0.410160	-0.061128	-0.660677
C422	C	-0.435963	-0.037273	-0.710404
C423	C	-0.445150	-0.070489	-0.720019
C424	C	-0.428534	-0.127563	-0.679906
C425	C	-0.402731	-0.151417	-0.630178
H426	H	-0.403360	-0.036537	-0.653561
H427	H	-0.448263	0.004976	-0.740099
H428	H	-0.464251	-0.052830	-0.756830
H429	H	-0.435335	-0.152154	-0.687022
H430	H	-0.390431	-0.193667	-0.600484
C431	C	-0.738473	-0.265573	0.016307
C432	C	-0.721373	-0.266011	0.056781
C433	C	-0.747075	-0.214361	0.054844
C434	C	-0.789875	-0.162273	0.012432
C435	C	-0.806976	-0.161832	-0.028044
C436	C	-0.781275	-0.213482	-0.026107
H437	H	-0.689688	-0.304572	0.088179
H438	H	-0.734415	-0.214687	0.084808
H439	H	-0.808901	-0.124038	0.010998
H440	H	-0.838662	-0.123272	-0.059442
H441	H	-0.793935	-0.213156	-0.056071
H442	H	-0.426617	-0.324814	0.023182
C443	C	-0.739094	0.227247	-0.476994
C444	C	-0.722120	0.250737	-0.460381
C445	C	-0.747985	0.274654	-0.434578
C446	C	-0.790824	0.275080	-0.425389
C447	C	-0.807801	0.251590	-0.442003
C448	C	-0.781936	0.227673	-0.467805
H449	H	-0.690405	0.250422	-0.467183
H450	H	-0.735417	0.292043	-0.422280
H451	H	-0.809971	0.292785	-0.406288
H452	H	-0.839515	0.251905	-0.435201
H453	H	-0.794503	0.210284	-0.480104
H454	H	-0.646754	-0.324820	0.023190
C455	C	-0.295036	-0.664127	0.023677
C456	C	-0.315129	-0.604957	-0.013900
C457	C	-0.289171	-0.581189	-0.011976
C458	C	-0.243119	-0.616592	0.027525
C459	C	-0.223024	-0.675765	0.065106
C460	C	-0.248982	-0.699533	0.063181
H461	H	-0.349221	-0.578746	-0.043144
H462	H	-0.304047	-0.537385	-0.039796
H463	H	-0.223904	-0.598998	0.028950
H464	H	-0.188932	-0.701976	0.094350
H465	H	-0.234106	-0.743337	0.091001
C466	C	0.154311	-0.459606	0.366834
C467	C	0.154655	-0.434647	0.392156
C468	C	0.155353	-0.460313	0.442792
C469	C	0.155706	-0.510938	0.468106
C470	C	0.155361	-0.535900	0.442784
C471	C	0.154664	-0.510234	0.392148
H472	H	0.154394	-0.397169	0.373417
H473	H	0.155608	-0.441834	0.461537
H474	H	0.156222	-0.529938	0.505590
H475	H	0.155623	-0.573378	0.461524
H476	H	0.154409	-0.528712	0.373403
C477	C	0.106137	0.135934	-0.575173
C478	C	0.108080	0.159850	-0.624898
C479	C	0.106154	0.136086	-0.650858
C480	C	0.102284	0.088407	-0.627095
C481	C	0.100341	0.064488	-0.577367
C482	C	0.102267	0.088251	-0.551406
H483	H	0.110945	0.195147	-0.642491
H484	H	0.107593	0.153793	-0.687670
H485	H	0.100858	0.070816	-0.646312
H486	H	0.097476	0.029190	-0.559774
H487	H	0.100828	0.070545	-0.514595
H488	H	0.094785	-0.121682	-0.374387
H489	H	-0.732070	-0.403516	0.016804
H490	H	-0.647026	-0.449354	0.023185
H491	H	-0.301778	0.329728	-0.223172
H492	H	0.106608	-0.078237	-0.223453
H493	H	0.106623	0.141841	-0.443588
H494	H	0.112999	-0.123775	-0.608256
H495	H	0.113006	-0.248593	-0.483685
C496	C	0.113511	-0.262041	-0.131422
C497	C	0.155918	-0.314058	-0.088578
C498	C	0.157855	-0.365709	-0.062719
C499	C	0.117384	-0.365342	-0.079703
C500	C	0.074973	-0.313323	-0.122549
C501	C	0.073036	-0.261672	-0.148408
H502	H	0.185880	-0.314331	-0.076003
H503	H	0.189251	-0.404217	-0.031001
H504	H	0.118818	-0.403577	-0.060560
H505	H	0.045011	-0.313050	-0.135124
H506	H	0.041641	-0.223164	-0.180126
C507	C	-0.358163	0.462397	-0.367891
C508	C	-0.332842	0.411770	-0.317604
C509	C	-0.282205	0.386107	-0.292639
C510	C	-0.256887	0.411070	-0.317960
C511	C	-0.282208	0.461699	-0.368250
C512	C	-0.332845	0.487362	-0.393215
H513	H	-0.351584	0.393289	-0.298857
H514	H	-0.263461	0.348628	-0.255411
H515	H	-0.219402	0.392072	-0.299479
H516	H	-0.263466	0.480180	-0.386996
H517	H	-0.351589	0.524842	-0.430443
H518	H	-0.495826	0.593550	-0.498882
H519	H	-0.262268	-0.248920	-0.138435
C520	C	-0.502309	0.462399	-0.367897
C521	C	-0.552599	0.487366	-0.393212
C522	C	-0.577564	0.461700	-0.368244
C523	C	-0.552240	0.411068	-0.317961
C524	C	-0.501948	0.386098	-0.292642
C525	C	-0.476982	0.411764	-0.317610
H526	H	-0.571348	0.524849	-0.430438
H527	H	-0.614794	0.480184	-0.386987
H528	H	-0.570721	0.392069	-0.299478
H529	H	-0.483199	0.348615	-0.255416
H530	H	-0.439752	0.393279	-0.298867
C531	C	-0.092881	-0.212452	-0.024514
C532	C	-0.042587	-0.237422	-0.024845
C533	C	-0.017602	-0.287372	-0.025503
C534	C	-0.042909	-0.312352	-0.025830
C535	C	-0.093205	-0.287382	-0.025498
C536	C	-0.118191	-0.237433	-0.024840
H537	H	-0.023851	-0.218930	-0.024604
H538	H	0.019631	-0.305855	-0.025749
H539	H	-0.024413	-0.349328	-0.026316
H540	H	-0.111941	-0.305874	-0.025740
H541	H	-0.155423	-0.218949	-0.024595
H542	H	0.106623	-0.203035	-0.444212
H543	H	-0.646757	0.550094	-0.443598
C544	C	-0.738477	0.589427	-0.476055
C545	C	-0.721380	0.532312	-0.459403
C546	C	-0.747082	0.508289	-0.433443
C547	C	-0.789880	0.541382	-0.424135
C548	C	-0.806979	0.598501	-0.440788
C549	C	-0.781278	0.622523	-0.466748
H550	H	-0.689696	0.507812	-0.466292
H551	H	-0.734424	0.466006	-0.421115
H552	H	-0.808906	0.523599	-0.404918
H553	H	-0.838663	0.623001	-0.433899
H554	H	-0.793936	0.664807	-0.479076
H555	H	-0.732075	0.720493	-0.607626
H556	H	-0.426615	-0.670047	0.023195
H557	H	-0.647028	0.674924	-0.568431
C558	C	-0.249666	-0.755154	0.016291
C559	C	-0.240050	-0.755583	-0.026120
C560	C	-0.190323	-0.779501	-0.028061
C561	C	-0.150212	-0.802990	0.012410
C562	C	-0.159828	-0.802563	0.054825
C563	C	-0.209554	-0.778645	0.056766
H564	H	-0.269743	-0.738194	-0.056082
H565	H	-0.183205	-0.779817	-0.059460
H566	H	-0.113402	-0.820696	0.010974
H567	H	-0.130134	-0.819952	0.084787
H568	H	-0.216672	-0.778328	0.088164
H569	H	-0.387416	0.721084	-0.608218
C570	C	-0.439530	0.681445	-0.575462
C571	C	-0.465489	0.733092	-0.625190
C572	C	-0.515216	0.756950	-0.650996
C573	C	-0.538984	0.729163	-0.627072
C574	C	-0.513025	0.677513	-0.577341
C575	C	-0.463298	0.653655	-0.551536
H576	H	-0.447894	0.753665	-0.642902
H577	H	-0.534432	0.795185	-0.687810
H578	H	-0.575795	0.746824	-0.646175
H579	H	-0.530619	0.656941	-0.559629
H580	H	-0.444081	0.615420	-0.514721
C581	C	-0.249660	0.590344	-0.476937
C582	C	-0.210648	0.572997	-0.497152
C583	C	-0.160921	0.549138	-0.471348
C584	C	-0.150204	0.542625	-0.425328
C585	C	-0.189217	0.559972	-0.405110
C586	C	-0.238944	0.583832	-0.430915
H587	H	-0.218580	0.577817	-0.531221
H588	H	-0.132041	0.536296	-0.486314
H589	H	-0.113393	0.524963	-0.406226
H590	H	-0.181285	0.555152	-0.371042
H591	H	-0.267824	0.596673	-0.415948
C592	C	-0.295030	-0.209277	-0.430698
C593	C	-0.285852	-0.176054	-0.421088
C594	C	-0.260051	-0.199902	-0.371362
C595	C	-0.243430	-0.256973	-0.331247
C596	C	-0.252608	-0.290200	-0.340856
C597	C	-0.278409	-0.266352	-0.390581
H598	H	-0.298156	-0.133803	-0.450785
H599	H	-0.253257	-0.175305	-0.364249
H600	H	-0.224331	-0.274627	-0.294437
H601	H	-0.240304	-0.332451	-0.311159
H602	H	-0.285203	-0.290949	-0.397694
H603	H	-0.301770	0.550701	-0.444180
H604	H	-0.262581	0.251075	-0.138127
H605	H	-0.262587	-0.403497	0.016771
C606	C	-0.502620	0.009742	-0.367923
C607	C	-0.477309	-0.015224	-0.317632
C608	C	-0.502285	0.010432	-0.292664
C609	C	-0.552573	0.061053	-0.317987
C610	C	-0.577887	0.086022	-0.368281
C611	C	-0.552911	0.060366	-0.393249
H612	H	-0.440080	-0.052700	-0.298884
H613	H	-0.483546	-0.008052	-0.255433
H614	H	-0.571062	0.080045	-0.299504
H615	H	-0.615115	0.123497	-0.387029
H616	H	-0.571650	0.078850	-0.430480
H617	H	-0.496124	0.003081	-0.498917
C618	C	-0.249348	-0.262338	-0.476066
C619	C	-0.209312	-0.261899	-0.459407
C620	C	-0.159584	-0.313549	-0.433442
C621	C	-0.149891	-0.365638	-0.424137
C622	C	-0.189928	-0.366079	-0.440796
C623	C	-0.239656	-0.314429	-0.466761
H624	H	-0.216486	-0.223339	-0.466295
H625	H	-0.129946	-0.313223	-0.421110
H626	H	-0.113079	-0.403872	-0.404917
H627	H	-0.182754	-0.404640	-0.433908
H628	H	-0.269294	-0.314755	-0.479093
H629	H	-0.301784	-0.449335	0.023157
C630	C	-0.738778	0.226947	-0.621191
C631	C	-0.781577	0.227334	-0.630882
C632	C	-0.807278	0.251092	-0.680610
C633	C	-0.790180	0.274462	-0.720648
C634	C	-0.747379	0.274075	-0.710958
C635	C	-0.721678	0.250318	-0.661229
H636	H	-0.794236	0.210034	-0.601243
H637	H	-0.838962	0.251378	-0.687783
H638	H	-0.809205	0.292048	-0.757460
H639	H	-0.734720	0.291375	-0.740597
H640	H	-0.689993	0.250031	-0.654057
H641	H	-0.371622	-0.121391	-0.374409
H642	H	-0.647059	0.142138	-0.568809
H643	H	-0.426314	-0.078564	-0.223203
H644	H	-0.647332	0.142401	-0.444230
