data_functionalizedCrystal
_audit_creation_method	'MofGen! by Chris Wilmer'
_symmetry_space_group_name_H-M	'P1'
_symmetry_Int_Tables_number	1
_symmetry_cell_setting	triclinic
loop_
_symmetry_equiv_pos_as_xyz
  x,y,z
_cell_length_a	16.625548
_cell_length_b	12.594516
_cell_length_c	16.625539
_cell_angle_alpha	89.973898
_cell_angle_beta	89.982945
_cell_angle_gamma	90.014591
loop_
_atom_site_label
_atom_site_type_symbol
_atom_site_fract_x
_atom_site_fract_y
_atom_site_fract_z
Zn1	Zn	1.232703	-0.423729	-0.455911
Zn2	Zn	1.482703	-0.173729	-0.205911
Zn3	Zn	1.732703	0.076271	0.044089
Zn4	Zn	1.982703	0.326271	0.294089
Zn5	Zn	1.232635	-0.601725	-0.321079
Zn6	Zn	1.482635	-0.351725	-0.071079
Zn7	Zn	1.732635	-0.101725	0.178921
Zn8	Zn	1.982635	0.148275	0.428921
Zn9	Zn	1.097873	-0.423764	-0.321092
Zn10	Zn	1.347873	-0.173764	-0.071092
Zn11	Zn	1.597873	0.076236	0.178908
Zn12	Zn	1.847873	0.326236	0.428908
Zn13	Zn	1.097856	-0.601670	-0.455869
Zn14	Zn	1.347856	-0.351670	-0.205869
Zn15	Zn	1.597856	-0.101670	0.044131
Zn16	Zn	1.847856	0.148330	0.294131
O17	O	1.165267	-0.512722	-0.388488
O18	O	1.415267	-0.262722	-0.138488
O19	O	1.665267	-0.012722	0.111512
O20	O	1.915267	0.237278	0.361512
O21	O	1.345526	-0.447350	-0.438038
O22	O	1.595526	-0.197350	-0.188038
O23	O	1.845526	0.052650	0.061962
O24	O	2.095526	0.302650	0.311962
O25	O	1.214737	-0.578156	-0.208248
O26	O	1.464737	-0.328156	0.041752
O27	O	1.714737	-0.078156	0.291752
O28	O	1.964737	0.171844	0.541752
O29	O	1.115793	-0.274814	-0.338999
O30	O	1.365793	-0.024814	-0.088999
O31	O	1.615793	0.225186	0.161001
O32	O	1.865793	0.475186	0.411001
O33	O	1.345476	-0.578122	-0.338977
O34	O	1.595476	-0.328122	-0.088977
O35	O	1.845476	-0.078122	0.161023
O36	O	2.095476	0.171878	0.411023
O37	O	1.214852	-0.274788	-0.438050
O38	O	1.464852	-0.024788	-0.188050
O39	O	1.714852	0.225212	0.061950
O40	O	1.964852	0.475212	0.311950
O41	O	1.115728	-0.447409	-0.208258
O42	O	1.365728	-0.197409	0.041742
O43	O	1.615728	0.052591	0.291742
O44	O	1.865728	0.302591	0.541742
O45	O	0.985038	-0.447355	-0.338958
O46	O	1.235038	-0.197355	-0.088958
O47	O	1.485038	0.052645	0.161042
O48	O	1.735038	0.302645	0.411042
O49	O	1.115765	-0.578028	-0.568707
O50	O	1.365765	-0.328028	-0.318707
O51	O	1.615765	-0.078028	-0.068707
O52	O	1.865765	0.171972	0.181293
O53	O	0.985026	-0.578062	-0.437978
O54	O	1.235026	-0.328062	-0.187978
O55	O	1.485026	-0.078062	0.062022
O56	O	1.735026	0.171938	0.312022
O57	O	1.214836	-0.447296	-0.568738
O58	O	1.464836	-0.197296	-0.318738
O59	O	1.714836	0.052704	-0.068738
O60	O	1.964836	0.302704	0.181262
O61	O	1.214721	-0.750663	-0.338937
O62	O	1.464721	-0.500663	-0.088937
O63	O	1.714721	-0.250663	0.161063
O64	O	1.964721	-0.000663	0.411063
O65	O	1.115699	-0.750623	-0.437966
O66	O	1.365699	-0.500623	-0.187966
O67	O	1.615699	-0.250623	0.062034
O68	O	1.865699	-0.000623	0.312034
C69	C	0.955776	-0.512707	-0.388465
C70	C	1.205776	-0.262707	-0.138465
C71	C	1.455776	-0.012707	0.111535
C72	C	1.705776	0.237293	0.361535
C73	C	0.866155	-0.512726	-0.388475
C74	C	1.116155	-0.262726	-0.138475
C75	C	1.366155	-0.012726	0.111525
C76	C	1.616155	0.237274	0.361525
C77	C	1.165223	-0.789263	-0.388463
C78	C	1.415223	-0.539263	-0.138463
C79	C	1.665223	-0.289263	0.111537
C80	C	1.915223	-0.039263	0.361537
C81	C	1.165278	-0.907568	-0.388479
C82	C	1.415278	-0.657568	-0.138479
C83	C	1.665278	-0.407568	0.111521
C84	C	1.915278	-0.157568	0.361521
C85	C	0.537979	-0.512733	-0.388509
C86	C	0.787979	-0.262733	-0.138509
C87	C	1.037979	-0.012733	0.111491
C88	C	1.287979	0.237267	0.361491
C89	C	0.629287	-0.512728	-0.388497
C90	C	0.879287	-0.262728	-0.138497
C91	C	1.129287	-0.012728	0.111503
C92	C	1.379287	0.237272	0.361503
C93	C	0.702064	-0.512730	-0.388491
C94	C	0.952064	-0.262730	-0.138491
C95	C	1.202064	-0.012730	0.111509
C96	C	1.452064	0.237270	0.361509
C97	C	0.793378	-0.512724	-0.388481
C98	C	1.043378	-0.262724	-0.138481
C99	C	1.293378	-0.012724	0.111519
C100	C	1.543378	0.237276	0.361519
C101	C	1.219235	-1.047569	-0.334711
C102	C	1.469235	-0.797569	-0.084711
C103	C	1.719235	-0.547569	0.165289
C104	C	1.969235	-0.297569	0.415289
C105	C	1.145656	-0.976884	-0.314895
C106	C	1.395656	-0.726884	-0.064895
C107	C	1.645656	-0.476884	0.185105
C108	C	1.895656	-0.226884	0.435105
C109	C	1.238848	-0.976682	-0.408259
C110	C	1.488848	-0.726682	-0.158259
C111	C	1.738848	-0.476682	0.091741
C112	C	1.988848	-0.226682	0.341741
C113	C	1.091744	-1.047669	-0.368695
C114	C	1.341744	-0.797669	-0.118695
C115	C	1.591744	-0.547669	0.131305
C116	C	1.841744	-0.297669	0.381305
C117	C	1.184985	-1.047473	-0.462093
C118	C	1.434985	-0.797473	-0.212093
C119	C	1.684985	-0.547473	0.037907
C120	C	1.934985	-0.297473	0.287907
C121	C	1.111355	-0.976821	-0.442305
C122	C	1.361355	-0.726821	-0.192305
C123	C	1.611355	-0.476821	0.057695
C124	C	1.861355	-0.226821	0.307695
C125	C	1.375575	-0.512738	-0.388511
C126	C	1.625575	-0.262738	-0.138511
C127	C	1.875575	-0.012738	0.111489
C128	C	2.125575	0.237262	0.361489
C129	C	1.465197	-0.512745	-0.388521
C130	C	1.715197	-0.262745	-0.138521
C131	C	1.965197	-0.012745	0.111479
C132	C	2.215197	0.237255	0.361479
C133	C	1.165306	-0.512652	-0.598797
C134	C	1.415306	-0.262652	-0.348797
C135	C	1.665306	-0.012652	-0.098797
C136	C	1.915306	0.237348	0.151203
C137	C	1.165323	-0.512622	-0.688418
C138	C	1.415323	-0.262622	-0.438418
C139	C	1.665323	-0.012622	-0.188418
C140	C	1.915323	0.237378	0.061582
C141	C	1.165332	-0.235101	-0.388530
C142	C	1.415332	0.014899	-0.138530
C143	C	1.665332	0.264899	0.111470
C144	C	1.915332	0.514899	0.361470
C145	C	1.165360	-0.116796	-0.388549
C146	C	1.415360	0.133204	-0.138549
C147	C	1.665360	0.383204	0.111451
C148	C	1.915360	0.633204	0.361451
C149	C	1.165336	-0.512598	-0.761201
C150	C	1.415336	-0.262598	-0.511201
C151	C	1.665336	-0.012598	-0.261201
C152	C	1.915336	0.237402	-0.011201
C153	C	1.165355	-0.512559	-0.852509
C154	C	1.415355	-0.262559	-0.602509
C155	C	1.665355	-0.012559	-0.352509
C156	C	1.915355	0.237441	-0.102509
C157	C	1.165374	-0.512521	-0.925286
C158	C	1.415374	-0.262521	-0.675286
C159	C	1.665374	-0.012521	-0.425286
C160	C	1.915374	0.237479	-0.175286
C161	C	1.165394	-0.512483	-1.016600
C162	C	1.415394	-0.262483	-0.766600
C163	C	1.665394	-0.012483	-0.516600
C164	C	1.915394	0.237517	-0.266600
C165	C	1.165274	-0.512715	-0.178997
C166	C	1.415274	-0.262715	0.071003
C167	C	1.665274	-0.012715	0.321003
C168	C	1.915274	0.237285	0.571003
C169	C	1.165413	-0.512445	-0.089376
C170	C	1.415413	-0.262445	0.160624
C171	C	1.665413	-0.012445	0.410624
C172	C	1.915413	0.237555	0.660624
H173	H	1.264773	-1.078632	-0.289177
H174	H	1.514773	-0.828632	-0.039177
H175	H	1.764773	-0.578632	0.210823
H176	H	2.014773	-0.328632	0.460823
C177	C	1.343942	-0.971743	-0.507291
C178	C	1.593942	-0.721743	-0.257291
C179	C	1.843942	-0.471743	-0.007291
C180	C	2.093942	-0.221743	0.242709
C181	C	1.322794	-0.934590	-0.430789
C182	C	1.572794	-0.684590	-0.180789
C183	C	1.822794	-0.434590	0.069211
C184	C	2.072794	-0.184590	0.319211
H185	H	1.395767	-0.945753	-0.521189
H186	H	1.645767	-0.695753	-0.271189
H187	H	1.895767	-0.445753	-0.021189
H188	H	2.145767	-0.195753	0.228811
H189	H	1.344694	-1.047151	-0.506997
H190	H	1.594694	-0.797151	-0.256997
H191	H	1.844694	-0.547151	-0.006997
H192	H	2.094694	-0.297151	0.243003
H193	H	1.305713	-0.947505	-0.545573
H194	H	1.555713	-0.697505	-0.295573
H195	H	1.805713	-0.447505	-0.045573
H196	H	2.055713	-0.197505	0.204427
H197	H	1.361020	-0.958835	-0.392505
H198	H	1.611020	-0.708835	-0.142505
H199	H	1.861020	-0.458835	0.107495
H200	H	2.111020	-0.208835	0.357495
H201	H	1.322048	-0.859166	-0.431077
H202	H	1.572048	-0.609166	-0.181077
H203	H	1.822048	-0.359166	0.068923
H204	H	2.072048	-0.109166	0.318923
C205	C	1.179730	-0.970711	-0.174647
C206	C	1.429730	-0.720711	0.075353
C207	C	1.679730	-0.470711	0.325353
C208	C	1.929730	-0.220711	0.575353
C209	C	1.123194	-0.935008	-0.230898
C210	C	1.373194	-0.685008	0.019102
C211	C	1.623194	-0.435008	0.269102
C212	C	1.873194	-0.185008	0.519102
H213	H	1.165868	-0.944855	-0.122791
H214	H	1.415868	-0.694855	0.127209
H215	H	1.665868	-0.444855	0.377209
H216	H	1.915868	-0.194855	0.627209
H217	H	1.180073	-1.046120	-0.173942
H218	H	1.430073	-0.796120	0.076058
H219	H	1.680073	-0.546120	0.326058
H220	H	1.930073	-0.296120	0.576058
H221	H	1.231590	-0.945356	-0.189052
H222	H	1.481590	-0.695356	0.060948
H223	H	1.731590	-0.445356	0.310948
H224	H	1.981590	-0.195356	0.560948
H225	H	1.071335	-0.960370	-0.216496
H226	H	1.321335	-0.710370	0.033504
H227	H	1.571335	-0.460370	0.283504
H228	H	1.821335	-0.210370	0.533504
H229	H	1.122843	-0.859584	-0.231600
H230	H	1.372843	-0.609584	0.018400
H231	H	1.622843	-0.359584	0.268400
H232	H	1.872843	-0.109584	0.518400
H233	H	1.029544	-1.078718	-0.351925
H234	H	1.279544	-0.828718	-0.101925
H235	H	1.529544	-0.578718	0.148075
H236	H	1.779544	-0.328718	0.398075
H237	H	1.065708	-0.945953	-0.487805
H238	H	1.315708	-0.695953	-0.237805
H239	H	1.565708	-0.445953	0.012195
H240	H	1.815708	-0.195953	0.262195
H241	H	1.201645	-1.078506	-0.524300
H242	H	1.451645	-0.828506	-0.274300
H243	H	1.701645	-0.578506	-0.024300
H244	H	1.951645	-0.328506	0.225700
