data_functionalizedCrystal
_audit_creation_method	'MofGen! by Chris Wilmer'
_symmetry_space_group_name_H-M	'P1'
_symmetry_Int_Tables_number	1
_symmetry_cell_setting	triclinic
loop_
_symmetry_equiv_pos_as_xyz
  x,y,z
_cell_length_a	13.897448
_cell_length_b	12.827893
_cell_length_c	12.827885
_cell_angle_alpha	89.980728
_cell_angle_beta	90.032466
_cell_angle_gamma	89.982337
loop_
_atom_site_label
_atom_site_type_symbol
_atom_site_fract_x
_atom_site_fract_y
_atom_site_fract_z
Zn1	Zn	-0.383967	-1.597653	0.590831
Zn2	Zn	0.116033	-1.097653	1.090831
Zn3	Zn	-0.545294	-1.597540	0.416083
Zn4	Zn	-0.045294	-1.097540	0.916083
Zn5	Zn	-0.384015	-1.422894	0.416104
Zn6	Zn	0.115985	-0.922894	0.916104
Zn7	Zn	-0.545222	-1.422873	0.590783
Zn8	Zn	-0.045222	-0.922873	1.090783
O9	O	-0.464624	-1.510240	0.503450
O10	O	0.035376	-1.010240	1.003450
O11	O	-0.405378	-1.743874	0.567661
O12	O	0.094622	-1.243874	1.067661
O13	O	-0.523950	-1.574335	0.269850
O14	O	-0.023950	-1.074335	0.769850
O15	O	-0.249027	-1.446133	0.439311
O16	O	0.250973	-0.946133	0.939311
O17	O	-0.523904	-1.743791	0.439275
O18	O	-0.023904	-1.243791	0.939275
O19	O	-0.248992	-1.574527	0.567681
O20	O	0.251008	-1.074527	1.067681
O21	O	-0.405459	-1.446023	0.269865
O22	O	0.094541	-0.946023	0.769865
O23	O	-0.405389	-1.276655	0.439265
O24	O	0.094611	-0.776655	0.939265
O25	O	-0.523781	-1.446096	0.737026
O26	O	-0.023781	-0.946096	1.237026
O27	O	-0.523827	-1.276639	0.567601
O28	O	-0.023827	-0.776639	1.067601
O29	O	-0.405308	-1.574506	0.737060
O30	O	0.094692	-1.074506	1.237060
O31	O	-0.680266	-1.574314	0.439229
O32	O	-0.180266	-1.074314	0.939229
O33	O	-0.680213	-1.445986	0.567580
O34	O	-0.180213	-0.945986	1.067580
C35	C	-0.464606	-1.238730	0.503430
C36	C	0.035394	-0.738730	1.003430
C37	C	-0.464621	-1.122577	0.503447
C38	C	0.035379	-0.622577	1.003447
C39	C	-0.715239	-1.510164	0.503420
C40	C	-0.215239	-1.010164	1.003420
C41	C	-0.822453	-1.510227	0.503442
C42	C	-0.322453	-1.010227	1.003442
C43	C	-0.464531	-1.510311	0.776021
C44	C	0.035469	-1.010311	1.276021
C45	C	-0.464491	-1.510341	0.892174
C46	C	0.035509	-1.010341	1.392174
C47	C	-1.018748	-1.510336	0.503508
C48	C	-0.518748	-1.010336	1.003508
C49	C	-0.909515	-1.510272	0.503474
C50	C	-0.409515	-1.010272	1.003474
C51	C	-0.213031	-1.510345	0.503504
C52	C	0.286969	-1.010345	1.003504
C53	C	-0.105817	-1.510390	0.503526
C54	C	0.394183	-1.010390	1.003526
C55	C	-0.464644	-1.782810	0.503471
C56	C	0.035356	-1.282810	1.003471
C57	C	-0.464652	-1.898963	0.503480
C58	C	0.035348	-1.398963	1.003480
C59	C	-0.523320	-1.070812	0.566853
C60	C	-0.023320	-0.570812	1.066853
C61	C	-0.523337	-0.950762	0.566872
C62	C	-0.023337	-0.450762	1.066872
C63	C	-0.464648	-1.510229	0.231940
C64	C	0.035352	-1.010229	0.731940
C65	C	-0.464416	-1.510401	0.115788
C66	C	0.035584	-1.010401	0.615788
C67	C	-0.523101	-1.573841	0.943951
C68	C	-0.023101	-1.073841	1.443951
C69	C	-0.523061	-1.573874	1.064001
C70	C	-0.023061	-1.073874	1.564001
H71	H	-0.573557	-1.115371	0.621128
H72	H	-0.073557	-0.615371	1.121128
H73	H	-0.573304	-1.628185	0.899403
H74	H	-0.073304	-1.128185	1.399403
O75	O	-0.583380	-0.897824	0.631674
O76	O	-0.083380	-0.397824	1.131674
C77	C	-0.637921	-0.969303	0.690634
C78	C	-0.137921	-0.469303	1.190634
H79	H	-0.641272	-1.047113	0.647882
H80	H	-0.141272	-0.547113	1.147882
H81	H	-0.602686	-0.980919	0.770073
H82	H	-0.102686	-0.480919	1.270073
C83	C	-0.736450	-0.831017	0.757988
C84	C	-0.236450	-0.331017	1.257988
C85	C	-0.740573	-0.926582	0.705475
C86	C	-0.240573	-0.426582	1.205475
H87	H	-0.799770	-0.804664	0.767147
H88	H	-0.299770	-0.304664	1.267147
H89	H	-0.699703	-0.782859	0.718269
H90	H	-0.199703	-0.282859	1.218269
H91	H	-0.707084	-0.840710	0.824181
H92	H	-0.207084	-0.340710	1.324181
H93	H	-0.769928	-0.916886	0.639278
H94	H	-0.269928	-0.416886	1.139278
H95	H	-0.777328	-0.974738	0.745183
H96	H	-0.277328	-0.474738	1.245183
O97	O	-0.404561	-0.951940	0.438761
O98	O	0.095439	-0.451940	0.938761
C99	C	-0.308428	-0.925395	0.461776
C100	C	0.191572	-0.425395	0.961776
H101	H	-0.306415	-0.846142	0.501896
H102	H	0.193585	-0.346142	1.001896
H103	H	-0.276040	-0.986836	0.515607
H104	H	0.223960	-0.486836	1.015607
C105	C	-0.252360	-1.017798	0.310730
C106	C	0.247640	-0.517798	0.810730
C107	C	-0.249887	-0.920454	0.359998
C108	C	0.250113	-0.420454	0.859998
H109	H	-0.216247	-1.014754	0.247950
H110	H	0.283753	-0.514754	0.747950
H111	H	-0.317126	-1.035685	0.295225
H112	H	0.182874	-0.535685	0.795225
H113	H	-0.225372	-1.068989	0.355599
H114	H	0.274628	-0.568989	0.855599
H115	H	-0.276886	-0.869268	0.315134
H116	H	0.223114	-0.369268	0.815134
H117	H	-0.185124	-0.902558	0.375492
H118	H	0.314876	-0.402558	0.875492
O119	O	-0.582786	-1.638849	1.117157
O120	O	-0.082786	-1.138849	1.617157
C121	C	-0.527798	-1.706308	1.180329
C122	C	-0.027798	-1.206308	1.680329
H123	H	-0.451865	-1.712809	1.147390
H124	H	0.048135	-1.212809	1.647390
H125	H	-0.524380	-1.673949	1.263008
H126	H	-0.024380	-1.173949	1.763008
C127	C	-0.668184	-1.806942	1.222598
C128	C	-0.168184	-1.306942	1.722598
C129	C	-0.574924	-1.814933	1.182136
C130	C	-0.074924	-1.314933	1.682136
H131	H	-0.697254	-1.873946	1.223718
H132	H	-0.197254	-1.373946	1.723718
H133	H	-0.705231	-1.761491	1.180042
H134	H	-0.205231	-1.261491	1.680042
H135	H	-0.665323	-1.779972	1.291494
H136	H	-0.165323	-1.279972	1.791494
H137	H	-0.577787	-1.841890	1.113238
H138	H	-0.077787	-1.341890	1.613238
H139	H	-0.537878	-1.860391	1.224681
H140	H	-0.037878	-1.360391	1.724681
O141	O	-0.404683	-1.445487	1.062568
O142	O	0.095317	-0.945487	1.562568
C143	C	-0.459672	-1.377990	0.999437
C144	C	0.040328	-0.877990	1.499437
H145	H	-0.532793	-1.414826	0.983180
H146	H	-0.032793	-0.914826	1.483180
H147	H	-0.470214	-1.300517	1.041432
H148	H	0.029786	-0.800517	1.541432
C149	C	-0.316913	-1.313912	0.915677
C150	C	0.183087	-0.813912	1.415677
C151	C	-0.406719	-1.359159	0.895702
C152	C	0.093281	-0.859159	1.395702
H153	H	-0.284248	-1.302292	0.851690
H154	H	0.215752	-0.802292	1.351690
H155	H	-0.279865	-1.359383	0.958212
H156	H	0.220135	-0.859383	1.458212
H157	H	-0.325711	-1.249357	0.950675
H158	H	0.174289	-0.749357	1.450675
H159	H	-0.397919	-1.423719	0.860717
H160	H	0.102081	-0.923719	1.360717
H161	H	-0.443764	-1.313699	0.853159
H162	H	0.056236	-0.813699	1.353159
H163	H	-0.414280	-1.456006	0.936722
H164	H	0.085720	-0.956006	1.436722
H165	H	-0.414376	-1.078018	0.449180
H166	H	0.085624	-0.578018	0.949180
