data_functionalizedCrystal
_audit_creation_method	'MofGen! by Chris Wilmer'
_symmetry_space_group_name_H-M	'P1'
_symmetry_Int_Tables_number	1
_symmetry_cell_setting	triclinic
loop_
_symmetry_equiv_pos_as_xyz
  x,y,z
_cell_length_a	11.026607
_cell_length_b	11.026607
_cell_length_c	9.482900
_cell_angle_alpha	101.400185
_cell_angle_beta	78.636152
_cell_angle_gamma	108.586017
loop_
_atom_site_label
_atom_site_type_symbol
_atom_site_fract_x
_atom_site_fract_y
_atom_site_fract_z
O1	O	1.742236	0.518010	-0.120892
O2	O	2.242236	1.018010	0.379108
O3	O	1.375656	0.457246	-0.120894
O4	O	1.875656	0.957246	0.379106
O5	O	1.528564	0.304339	-0.120888
O6	O	2.028564	0.804339	0.379112
O7	O	1.589328	0.670917	-0.120898
O8	O	2.089328	1.170917	0.379102
O9	O	1.497539	0.335557	0.120903
O10	O	1.997539	0.835557	0.620903
O11	O	1.344632	0.488465	0.120897
O12	O	1.844632	0.988465	0.620897
O13	O	1.711212	0.549228	0.120899
O14	O	2.211212	1.049228	0.620899
Cu15	Cu	1.525089	0.521697	0.142976
Cu16	Cu	2.025089	1.021697	0.642976
Cu17	Cu	1.561779	0.484778	-0.142971
Cu18	Cu	2.061779	0.984778	0.357029
O19	O	1.558304	0.702136	0.120893
O20	O	2.058304	1.202136	0.620893
C21	C	1.312485	0.461645	0.000001
C22	C	1.812485	0.961645	0.500001
C23	C	1.170471	0.428228	0.000000
C24	C	1.670471	0.928228	0.500000
C25	C	1.116822	0.520498	-0.000003
C26	C	1.616822	1.020498	0.499997
C27	C	0.970043	0.485962	-0.000004
C28	C	1.470043	0.985962	0.499996
C29	C	1.501842	0.272288	0.000006
C30	C	2.001842	0.772288	0.500006
C31	C	1.468426	0.130273	0.000000
C32	C	1.968426	0.630273	0.500000
C33	C	1.560695	0.076624	-0.000001
C34	C	2.060695	0.576624	0.499999
C35	C	1.526161	-0.070155	-0.000007
C36	C	2.026161	0.429845	0.499993
C37	C	1.774384	0.544829	0.000001
C38	C	2.274384	1.044829	0.500001
C39	C	1.916399	0.578244	-0.000008
C40	C	2.416399	1.078244	0.499992
C41	C	1.585026	0.734186	-0.000004
C42	C	2.085026	1.234186	0.499996
C43	C	1.618444	0.876199	-0.000008
C44	C	2.118444	1.376199	0.499992
N45	N	1.499293	0.547665	0.344095
N46	N	1.999293	1.047665	0.844095
N47	N	1.587583	0.458801	-0.344090
N48	N	2.087583	0.958801	0.155910
C49	C	1.554160	0.492428	0.416296
C50	C	2.054160	0.992428	0.916296
C51	C	1.532708	0.514046	0.583713
C52	C	2.032708	1.014046	1.083713
H53	H	0.979125	0.682816	-0.000001
H54	H	1.479125	1.182816	0.499999
F55	F	1.417128	0.630390	0.425294
F56	F	1.917128	1.130390	0.925294
F57	F	0.888055	0.349282	0.000009
F58	F	1.388055	0.849282	0.500009
H59	H	1.107742	0.323661	-0.000034
H60	H	1.607742	0.823661	0.499966
F61	F	1.697371	0.158613	-0.000009
F62	F	2.197371	0.658613	0.499991
H63	H	1.421592	-0.132886	-0.000017
H64	H	1.921592	0.367114	0.499983
F65	F	1.755127	-0.041817	-0.000014
F66	F	2.255127	0.458183	0.499986
H67	H	1.469843	0.577340	0.645835
H68	H	1.969843	1.077340	1.145835
F69	F	1.670004	0.376323	0.574720
F70	F	2.170004	0.876323	1.074720
F71	F	1.331753	0.048281	-0.000014
F72	F	1.831753	0.548281	0.499986
F73	F	1.636041	0.409421	0.335097
F74	F	2.136041	0.909421	0.835097
H75	H	1.179554	0.625061	0.000002
H76	H	1.679554	1.125061	0.500002
