data_functionalizedCrystal
_audit_creation_method	'MofGen! by Chris Wilmer'
_symmetry_space_group_name_H-M	'P1'
_symmetry_Int_Tables_number	1
_symmetry_cell_setting	triclinic
loop_
_symmetry_equiv_pos_as_xyz
  x,y,z
_cell_length_a	19.077105
_cell_length_b	29.839131
_cell_length_c	19.076929
_cell_angle_alpha	92.257200
_cell_angle_beta	90.078300
_cell_angle_gamma	87.731134
loop_
_atom_site_label
_atom_site_type_symbol
_atom_site_fract_x
_atom_site_fract_y
_atom_site_fract_z
Zn1	Zn	1.058192	-0.217322	-0.440347
Zn2	Zn	1.558192	0.282678	0.059653
Zn3	Zn	1.062816	-0.289559	-0.322817
Zn4	Zn	1.562816	0.210441	0.177183
Zn5	Zn	0.945416	-0.211308	-0.318143
Zn6	Zn	1.445416	0.288692	0.181857
Zn7	Zn	0.940634	-0.289284	-0.435570
Zn8	Zn	1.440634	0.210716	0.064430
O9	O	1.001765	-0.251868	-0.379219
O10	O	1.501765	0.248132	0.120781
O11	O	1.157137	-0.229536	-0.428712
O12	O	1.657137	0.270464	0.071288
O13	O	1.051180	-0.276777	-0.223867
O14	O	1.551180	0.223223	0.276133
O15	O	0.960443	-0.149242	-0.334396
O16	O	1.460443	0.350758	0.165604
O17	O	1.160534	-0.282608	-0.342364
O18	O	1.660534	0.217392	0.157636
O19	O	1.043299	-0.153660	-0.424179
O20	O	1.543299	0.346340	0.075821
O21	O	0.964927	-0.219286	-0.220433
O22	O	1.464927	0.280714	0.279567
O23	O	0.846451	-0.219020	-0.329764
O24	O	1.346451	0.280980	0.170236
O25	O	0.952291	-0.282140	-0.534534
O26	O	1.452291	0.217860	-0.034534
O27	O	0.842937	-0.276308	-0.416037
O28	O	1.342937	0.223692	0.083963
O29	O	1.038661	-0.229270	-0.538044
O30	O	1.538661	0.270730	-0.038044
O31	O	1.046542	-0.352387	-0.337731
O32	O	1.546542	0.147613	0.162269
O33	O	0.956775	-0.352185	-0.420570
O34	O	1.456775	0.147815	0.079430
C35	C	0.819198	-0.246982	-0.371875
C36	C	1.319198	0.253018	0.128125
C37	C	0.741095	-0.244903	-0.368750
C38	C	1.241095	0.255097	0.131250
C39	C	0.702593	-0.273795	-0.412129
C40	C	1.202593	0.226205	0.087871
C41	C	0.629207	-0.271836	-0.409196
C42	C	1.129207	0.228164	0.090804
C43	C	0.594323	-0.240986	-0.362880
C44	C	1.094323	0.259014	0.137120
C45	C	0.632829	-0.212091	-0.319499
C46	C	1.132829	0.287909	0.180501
C47	C	0.706215	-0.214049	-0.322436
C48	C	1.206215	0.285951	0.177564
C49	C	0.375039	-0.231927	-0.349291
C50	C	0.875039	0.268073	0.150709
C51	C	0.301648	-0.229972	-0.346355
C52	C	0.801648	0.270028	0.153645
C53	C	0.298030	-0.289716	-0.436053
C54	C	0.798030	0.210284	0.063947
C55	C	0.371417	-0.291673	-0.438983
C56	C	0.871417	0.208327	0.061017
C57	C	0.409917	-0.262776	-0.395605
C58	C	0.909917	0.237224	0.104395
N59	N	0.519310	-0.238984	-0.359880
N60	N	1.019310	0.261016	0.140120
N61	N	0.484929	-0.264777	-0.398610
N62	N	0.984929	0.235223	0.101390
C63	C	1.001660	-0.368587	-0.379156
C64	C	1.501660	0.131413	0.120844
C65	C	1.001678	-0.418521	-0.379155
C66	C	1.501678	0.081479	0.120845
C67	C	1.044895	-0.730436	-0.426033
C68	C	1.544895	-0.230436	0.073967
C69	C	1.044970	-0.918112	-0.426078
C70	C	1.544970	-0.418112	0.073922
O71	O	1.081611	-0.944304	-0.465888
O72	O	1.581611	-0.444304	0.034112
N73	N	1.001881	-0.939315	-0.379302
N74	N	1.501881	-0.439315	0.120698
C75	C	0.958767	-0.913597	-0.332514
C76	C	1.458767	-0.413597	0.167486
O77	O	0.922113	-0.935938	-0.292734
O78	O	1.422113	-0.435938	0.207266
C79	C	0.958689	-0.725922	-0.332473
C80	C	1.458689	-0.225922	0.167527
C81	C	1.001786	-0.704721	-0.379247
C82	C	1.501786	-0.204721	0.120753
C83	C	1.087988	-0.709235	-0.472804
C84	C	1.587988	-0.209235	0.027196
C85	C	1.087972	-0.662318	-0.472790
C86	C	1.587972	-0.162318	0.027210
C87	C	1.044863	-0.636603	-0.426004
C88	C	1.544863	-0.136603	0.073996
C89	C	1.001770	-0.657804	-0.379233
C90	C	1.501770	-0.157804	0.120767
C91	C	0.915572	-0.700204	-0.285689
C92	C	1.415572	-0.200204	0.214311
C93	C	0.915555	-0.653282	-0.285684
C94	C	1.415555	-0.153282	0.214316
C95	C	0.958652	-0.632081	-0.332459
C96	C	1.458652	-0.132081	0.167541
C97	C	0.958644	-0.585173	-0.332433
C98	C	1.458644	-0.085173	0.167567
N99	N	1.001733	-0.563970	-0.379209
N100	N	1.501733	-0.063970	0.120791
C101	C	1.044843	-0.589685	-0.425995
C102	C	1.544843	-0.089685	0.074005
C103	C	0.958812	-1.012129	-0.332538
C104	C	1.458812	-0.512129	0.167462
C105	C	0.958832	-1.059048	-0.332548
C106	C	1.458832	-0.559048	0.167452
C107	C	1.045034	-1.063560	-0.426113
C108	C	1.545034	-0.563560	0.073887
C109	C	1.045017	-1.016640	-0.426099
C110	C	1.545017	-0.516640	0.073901
C111	C	1.001901	-0.990926	-0.379315
C112	C	1.501901	-0.490926	0.120685
C113	C	1.044806	-0.491157	-0.425961
C114	C	1.544806	0.008843	0.074039
C115	C	1.044788	-0.444236	-0.425940
C116	C	1.544788	0.055764	0.074060
C117	C	0.958583	-0.439729	-0.332378
C118	C	1.458583	0.060271	0.167622
C119	C	0.958603	-0.486645	-0.332396
C120	C	1.458603	0.013355	0.167604
C121	C	1.001717	-0.512358	-0.379193
C122	C	1.501717	-0.012358	0.120807
O123	O	0.922016	-0.558953	-0.292650
O124	O	1.422016	-0.058953	0.207350
O125	O	1.081479	-0.567335	-0.465780
O126	O	1.581479	-0.067335	0.034220
C127	C	1.044912	-0.777352	-0.426047
C128	C	1.544912	-0.277352	0.073953
C129	C	1.001819	-0.798553	-0.379276
C130	C	1.501819	-0.298553	0.120724
C131	C	0.958709	-0.772838	-0.332491
C132	C	1.458709	-0.272838	0.167509
C133	C	1.001839	-0.845472	-0.379286
C134	C	1.501839	-0.345472	0.120714
C135	C	1.044948	-0.871187	-0.426071
C136	C	1.544948	-0.371187	0.073929
C137	C	1.088037	-0.849983	-0.472847
C138	C	1.588037	-0.349983	0.027153
C139	C	1.088021	-0.803067	-0.472833
C140	C	1.588021	-0.303067	0.027167
C141	C	0.915620	-0.794042	-0.285714
C142	C	1.415620	-0.294042	0.214286
C143	C	0.915641	-0.840958	-0.285732
C144	C	1.415641	-0.340958	0.214268
C145	C	0.958750	-0.866673	-0.332518
C146	C	1.458750	-0.366673	0.167482
C147	C	1.185044	-0.256774	-0.386592
C148	C	1.685044	0.243226	0.113408
C149	C	1.263147	-0.258864	-0.389734
C150	C	1.763147	0.241136	0.110266
C151	C	0.994427	-0.256345	-0.562498
C152	C	1.494427	0.243655	-0.062498
C153	C	0.991300	-0.258253	-0.640600
C154	C	1.491300	0.241747	-0.140600
C155	C	1.001888	-0.134695	-0.379299
C156	C	1.501888	0.365305	0.120701
C157	C	1.001941	-0.084763	-0.379333
C158	C	1.501941	0.415237	0.120667
C159	C	0.968878	-0.271973	-1.080037
C160	C	1.468878	0.228027	-0.580037
C161	C	0.971813	-0.270173	-1.006652
C162	C	1.471813	0.229827	-0.506652
C163	C	1.018252	-0.241750	-0.971790
C164	C	1.518252	0.258250	-0.471790
C165	C	1.061754	-0.215121	-1.010317
C166	C	1.561754	0.284879	-0.510317
C167	C	1.058814	-0.216918	-1.083701
C168	C	1.558814	0.283082	-0.583701
C169	C	1.031862	-0.233421	-0.752511
C170	C	1.531862	0.266579	-0.252511
C171	C	1.034800	-0.231627	-0.679122
C172	C	1.534800	0.268373	-0.179122
C173	C	0.944858	-0.286679	-0.675461
C174	C	1.444858	0.213321	-0.175461
C175	C	0.941925	-0.288476	-0.748847
C176	C	1.441925	0.211524	-0.248847
C177	C	0.985424	-0.261845	-0.787368
C178	C	1.485424	0.238155	-0.287368
N179	N	1.021255	-0.239911	-0.896778
N180	N	1.521255	0.260089	-0.396778
N181	N	0.982417	-0.263682	-0.862378
N182	N	1.482417	0.236318	-0.362378
C183	C	1.009114	-0.247377	-0.196656
C184	C	1.509114	0.252623	0.303344
C185	C	1.012377	-0.245346	-0.118559
C186	C	1.512377	0.254654	0.381441
H187	H	0.399815	-0.316795	-0.476697
H188	H	0.899815	0.183205	0.023303
H189	H	0.597862	-0.295363	-0.444519
H190	H	1.097862	0.204637	0.055481
H191	H	0.273248	-0.204846	-0.308643
H192	H	0.773248	0.295154	0.191357
H193	H	0.266676	-0.313242	-0.471370
H194	H	0.766676	0.186758	0.028630
H195	H	0.923486	-0.418784	-0.294284
H196	H	1.423486	0.081216	0.205716
H197	H	0.406377	-0.208400	-0.313964
H198	H	0.906377	0.291600	0.186036
H199	H	0.730990	-0.298917	-0.449843
H200	H	1.230990	0.201083	0.050157
H201	H	0.604421	-0.186971	-0.281791
H202	H	1.104421	0.313029	0.218209
H203	H	1.072616	-0.208478	-0.650740
H204	H	1.572616	0.291522	-0.150740
H205	H	0.936398	-0.291861	-0.975290
H206	H	1.436398	0.208139	-0.475290
H207	H	0.737562	-0.190520	-0.287116
H208	H	1.237562	0.309480	0.212884
H209	H	1.094234	-0.195234	-1.115065
H210	H	1.594234	0.304766	-0.615065
H211	H	1.079885	-0.426976	-0.464030
H212	H	1.579885	0.073024	0.035970
H213	H	1.079908	-0.512087	-0.464072
H214	H	1.579908	-0.012087	0.035928
H215	H	1.123093	-0.730167	-0.510907
H216	H	1.623093	-0.230167	-0.010907
H217	H	1.123141	-0.870929	-0.510939
H218	H	1.623141	-0.370929	-0.010939
H219	H	0.880547	-0.858215	-0.247636
H220	H	1.380547	-0.358215	0.252364
H221	H	1.123063	-0.645060	-0.510879
H222	H	1.623063	-0.145060	-0.010879
H223	H	1.080110	-0.999381	-0.464188
H224	H	1.580110	-0.499381	0.035812
H225	H	1.080136	-1.084505	-0.464207
H226	H	1.580136	-0.584505	0.035793
H227	H	0.909443	-0.308360	-0.644090
H228	H	1.409443	0.191640	-0.144090
H229	H	0.923700	-0.991195	-0.294439
H230	H	1.423700	-0.491195	0.205561
H231	H	0.923746	-1.076305	-0.294452
H232	H	1.423746	-0.576305	0.205548
H233	H	0.880478	-0.717457	-0.247600
H234	H	1.380478	-0.217457	0.252400
H235	H	1.099563	-0.191976	-0.981927
H236	H	1.599563	0.308024	-0.481927
H237	H	0.880442	-0.632348	-0.247587
H238	H	1.380442	-0.132348	0.252413
H239	H	0.904110	-0.311622	-0.777226
H240	H	1.404110	0.188378	-0.277226
H241	H	1.123114	-0.785809	-0.510921
H242	H	1.623114	-0.285809	-0.010921
H243	H	0.923516	-0.503908	-0.294303
H244	H	1.423516	-0.003908	0.205697
H245	H	0.880514	-0.773108	-0.247617
H246	H	1.380514	-0.273108	0.252383
H247	H	0.931064	-0.295120	-1.108416
H248	H	1.431064	0.204880	-0.608416
H249	H	1.067286	-0.211739	-0.783866
H250	H	1.567286	0.288261	-0.283866
