data_functionalizedCrystal
_audit_creation_method	'MofGen! by Chris Wilmer'
_symmetry_space_group_name_H-M	'P1'
_symmetry_Int_Tables_number	1
_symmetry_cell_setting	triclinic
loop_
_symmetry_equiv_pos_as_xyz
  x,y,z
_cell_length_a	19.077105
_cell_length_b	13.032905
_cell_length_c	19.077258
_cell_angle_alpha	94.591733
_cell_angle_beta	89.903411
_cell_angle_gamma	95.208085
loop_
_atom_site_label
_atom_site_type_symbol
_atom_site_fract_x
_atom_site_fract_y
_atom_site_fract_z
Zn1	Zn	-1.018319	0.448649	0.477170
Zn2	Zn	-0.518319	0.948649	0.977170
Zn3	Zn	-1.006964	0.628814	0.374420
Zn4	Zn	-0.506964	1.128814	0.874420
Zn5	Zn	-0.905510	0.449173	0.355006
Zn6	Zn	-0.405510	0.949173	0.855006
Zn7	Zn	-0.886002	0.614921	0.486035
Zn8	Zn	-0.386002	1.114921	0.986035
O9	O	-0.954199	0.535389	0.423158
O10	O	-0.454199	1.035389	0.923158
O11	O	-1.114647	0.478143	0.467955
O12	O	-0.614647	0.978143	0.967955
O13	O	-0.996918	0.611018	0.274007
O14	O	-0.496918	1.111018	0.774007
O15	O	-0.933391	0.304337	0.359376
O16	O	-0.433391	0.804337	0.859376
O17	O	-1.106304	0.610510	0.392465
O18	O	-0.606304	1.110510	0.892465
O19	O	-1.016271	0.303952	0.449130
O20	O	-0.516271	0.803952	0.949130
O21	O	-0.922380	0.479036	0.259743
O22	O	-0.422380	0.979036	0.759743
O23	O	-0.805089	0.465564	0.367972
O24	O	-0.305089	0.965564	0.867972
O25	O	-0.900142	0.586830	0.582697
O26	O	-0.400142	1.086830	1.082697
O27	O	-0.790756	0.587338	0.464239
O28	O	-0.290756	1.087338	0.964239
O29	O	-0.997355	0.464671	0.576184
O30	O	-0.497355	0.964671	1.076184
O31	O	-0.978001	0.771737	0.401061
O32	O	-0.478001	1.271737	0.901061
O33	O	-0.889131	0.761530	0.483064
O34	O	-0.389131	1.261530	0.983064
C35	C	-0.772555	0.525001	0.414961
C36	C	-0.272555	1.025001	0.914961
C37	C	-0.694844	0.520581	0.411473
C38	C	-0.194844	1.020581	0.911473
C39	C	-0.930235	0.804170	0.445147
C40	C	-0.430235	1.304170	0.945147
C41	C	-0.920047	0.919158	0.454581
C42	C	-0.420047	1.419158	0.954581
C43	C	-0.947839	0.524142	0.605518
C44	C	-0.447839	1.024142	1.105518
C45	C	-0.945129	0.519350	0.683229
C46	C	-0.445129	1.019350	1.183229
C47	C	-1.136552	0.545818	0.431387
C48	C	-0.636552	1.045818	0.931387
C49	C	-1.214260	0.550262	0.434893
C50	C	-0.714260	1.050262	0.934893
C51	C	-0.650885	0.582010	0.459894
C52	C	-0.150885	1.082010	0.959894
C53	C	-0.577869	0.577843	0.456619
C54	C	-0.077869	1.077843	0.956619
C55	C	-0.548812	0.512252	0.404920
C56	C	-0.048812	1.012252	0.904920
C57	C	-0.592777	0.450816	0.356497
C58	C	-0.092777	0.950816	0.856497
C59	C	-0.665793	0.454978	0.359776
C60	C	-0.165793	0.954978	0.859776
C61	C	-0.331240	0.492989	0.389749
C62	C	0.168760	0.992989	0.889749
C63	C	-0.258219	0.488833	0.386473
C64	C	0.241781	0.988833	0.886473
C65	C	-0.243315	0.615859	0.486596
C66	C	0.256685	1.115859	0.986596
C67	C	-0.316332	0.620020	0.489867
C68	C	0.183668	1.120020	0.989867
C69	C	-0.360291	0.558581	0.441447
C70	C	0.139709	1.058581	0.941447
N71	N	-0.474178	0.507994	0.401570
N72	N	0.025822	1.007994	0.901570
N73	N	-0.434924	0.562834	0.444801
N74	N	0.065076	1.062834	0.944801
C75	C	-0.948984	1.094286	0.427992
C76	C	-0.448984	1.594286	0.927992
C77	C	-0.959516	0.975440	0.418242
C78	C	-0.459516	1.475440	0.918242
C79	C	-0.978253	1.265558	0.401088
C80	C	-0.478253	1.765558	0.901088
C81	C	-0.988448	1.150570	0.391659
C82	C	-0.488448	1.650570	0.891659
C83	C	-0.982660	0.585811	0.727167
C84	C	-0.482660	1.085811	1.227167
C85	C	-0.980115	0.581295	0.800184
C86	C	-0.480115	1.081295	1.300184
C87	C	-0.940034	0.510323	0.829262
C88	C	-0.440034	1.010323	1.329262
C89	C	-0.902502	0.443855	0.785319
C90	C	-0.402502	0.943855	1.285319
C91	C	-0.905051	0.448366	0.712303
C92	C	-0.405051	0.948366	1.212303
C93	C	-0.928251	0.489457	1.046838
C94	C	-0.428251	0.989457	1.546838
C95	C	-0.925702	0.484952	1.119860
C96	C	-0.425702	0.984952	1.619860
C97	C	-1.003317	0.622392	1.134720
C98	C	-0.503317	1.122392	1.634720
C99	C	-1.005860	0.626901	1.061702
C100	C	-0.505860	1.126901	1.561702
C101	C	-0.968330	0.560430	1.017765
C102	C	-0.468330	1.060430	1.517765
N103	N	-0.937429	0.505707	0.903897
N104	N	-0.437429	1.005707	1.403897
N105	N	-0.970939	0.565041	0.943131
N106	N	-0.470939	1.065041	1.443131
C107	C	-0.960526	0.546616	1.241508
C108	C	-0.460526	1.046616	1.741508
C109	C	-0.963233	0.551413	1.163797
C110	C	-0.463233	1.051413	1.663797
H111	H	-0.674537	0.635425	0.501991
H112	H	-0.174537	1.135425	1.001991
H113	H	-0.234565	0.435409	0.344377
H114	H	0.265435	0.935409	0.844377
O115	O	-0.713210	0.388737	0.307545
O116	O	-0.213210	0.888737	0.807545
H117	H	-0.680740	0.342438	0.271038
H118	H	-0.180740	0.842438	0.771038
H119	H	-1.001106	0.935648	0.379917
H120	H	-0.501106	1.435648	0.879917
O121	O	-0.195920	0.682180	0.538805
O122	O	0.304080	1.182180	1.038805
H123	H	-0.209599	0.662024	0.592896
H124	H	0.290401	1.162024	1.092896
O125	O	-0.378646	0.426759	0.337508
O126	O	0.121354	0.926759	0.837508
H127	H	-0.346171	0.380471	0.300999
H128	H	0.153829	0.880471	0.800999
H129	H	-1.030034	1.110773	0.353336
H130	H	-0.530034	1.610773	0.853336
H131	H	-0.569114	0.397406	0.314405
H132	H	-0.069114	0.897406	0.814405
O133	O	-0.864960	0.971861	0.505352
O134	O	-0.364960	1.471861	1.005352
H135	H	-0.837658	0.912551	0.530487
H136	H	-0.337658	1.412551	1.030487
O137	O	-0.893900	1.146985	0.478763
O138	O	-0.393900	1.646985	0.978763
H139	H	-0.841274	1.123980	0.462574
H140	H	-0.341274	1.623980	0.962574
O141	O	-1.025897	0.662351	0.695804
O142	O	-0.525897	1.162351	1.195804
H143	H	-1.051575	0.707796	0.738626
H144	H	-0.551575	1.207796	1.238626
H145	H	-0.542080	0.627866	0.496047
H146	H	-0.042080	1.127866	0.996047
O147	O	-1.020575	0.653001	0.847578
O148	O	-0.520575	1.153001	1.347578
H149	H	-1.048860	0.703128	0.815092
H150	H	-0.548860	1.203128	1.315092
H151	H	-0.874492	0.394244	0.676529
H152	H	-0.374492	0.894244	1.176529
H153	H	-1.038485	0.684710	1.038034
H154	H	-0.538485	1.184710	1.538034
O155	O	-1.043801	0.694074	1.182106
O156	O	-0.543801	1.194074	1.682106
H157	H	-1.035302	0.679011	1.237764
H158	H	-0.535302	1.179011	1.737764
O159	O	-0.882476	0.408394	1.151227
O160	O	-0.382476	0.908394	1.651227
H161	H	-0.856813	0.362921	1.108408
H162	H	-0.356813	0.862921	1.608408
H163	H	-0.897688	0.435335	1.011073
H164	H	-0.397688	0.935335	1.511073
O165	O	-0.859288	0.367287	0.816684
O166	O	-0.359288	0.867287	1.316684
H167	H	-0.818420	0.409484	0.852131
H168	H	-0.318420	0.909484	1.352131
O169	O	-0.347673	0.690755	0.545634
O170	O	0.152327	1.190755	1.045634
H171	H	-0.304839	0.732764	0.578759
H172	H	0.195161	1.232764	1.078759
