data_functionalizedCrystal
_audit_creation_method	'MofGen! by Chris Wilmer'
_symmetry_space_group_name_H-M	'P1'
_symmetry_Int_Tables_number	1
_symmetry_cell_setting	triclinic
loop_
_symmetry_equiv_pos_as_xyz
  x,y,z
_cell_length_a	19.805407
_cell_length_b	13.897448
_cell_length_c	19.805399
_cell_angle_alpha	89.977568
_cell_angle_beta	90.024201
_cell_angle_gamma	89.981184
loop_
_atom_site_label
_atom_site_type_symbol
_atom_site_fract_x
_atom_site_fract_y
_atom_site_fract_z
Zn1	Zn	1.034768	0.384057	0.382827
Zn2	Zn	1.034696	0.545363	0.269649
Zn3	Zn	0.921583	0.384081	0.269643
Zn4	Zn	0.921560	0.545309	0.382787
O5	O	0.978152	0.464702	0.326227
O6	O	1.129475	0.405466	0.367834
O7	O	1.019671	0.524001	0.174932
O8	O	0.936636	0.249096	0.284671
O9	O	1.129422	0.523977	0.284682
O10	O	1.019793	0.249078	0.367827
O11	O	0.936567	0.405508	0.174927
O12	O	0.826863	0.405456	0.284632
O13	O	0.936597	0.523886	0.477509
O14	O	0.826846	0.523910	0.367759
O15	O	1.019771	0.405414	0.477539
O16	O	1.019649	0.680337	0.284643
O17	O	0.936528	0.680298	0.367765
C18	C	0.802296	0.464681	0.326191
C19	C	0.727064	0.464695	0.326191
C20	C	0.265281	0.526497	0.369486
C21	C	0.335970	0.526495	0.369472
C22	C	0.371302	0.464726	0.326253
C23	C	0.335942	0.402960	0.283041
C24	C	0.265254	0.402967	0.283053
C25	C	0.621015	0.402931	0.282994
C26	C	0.691707	0.402926	0.282987
C27	C	0.691730	0.526459	0.369413
C28	C	0.621043	0.526466	0.369424
C29	C	0.585689	0.464705	0.326210
C30	C	0.509041	0.464708	0.326225
C31	C	0.447949	0.464716	0.326241
C32	C	0.978096	0.715317	0.326215
C33	C	0.978135	0.822531	0.326233
C34	C	0.978201	1.018826	0.326281
C35	C	0.978162	0.909593	0.326256
C36	C	1.154694	0.464725	0.326263
C37	C	1.229926	0.464734	0.326279
C38	C	0.978190	0.464642	0.502769
C39	C	0.978206	0.464616	0.578001
C40	C	0.978220	1.213109	0.326261
C41	C	0.978234	1.105895	0.326296
C42	C	0.978153	0.464693	0.150371
C43	C	0.978268	0.464447	0.075139
C44	C	1.021515	0.402924	0.613362
C45	C	1.021522	0.402896	0.684051
C46	C	0.978223	0.464565	0.719377
C47	C	0.934908	0.526259	0.684011
C48	C	0.934898	0.526282	0.613324
C49	C	0.934946	0.526169	0.969085
C50	C	0.934961	0.526144	1.039777
C51	C	1.021570	0.402784	1.039811
C52	C	1.021560	0.402807	0.969124
C53	C	0.978244	0.464496	0.933765
C54	C	0.978236	0.464525	0.857116
C55	C	0.978233	0.464543	0.796024
H56	H	0.364715	0.352670	0.247849
N57	N	1.068283	0.336227	1.077945
H58	H	1.116637	0.351220	1.065656
H59	H	1.061663	0.345589	1.128074
H60	H	0.899685	0.576415	0.940304
N61	N	1.068221	0.336339	0.722191
H62	H	1.095648	0.297275	0.689085
H63	H	1.099539	0.375581	0.751532
H64	H	0.899650	0.576468	0.712780
N65	N	0.227122	0.336357	0.236444
H66	H	0.197775	0.375514	0.205037
H67	H	0.260275	0.297244	0.209110
N68	N	0.729859	0.593087	0.416018
H69	H	0.759216	0.553946	0.447426
H70	H	0.759121	0.637725	0.388406
N71	N	1.068222	0.336416	0.575262
H72	H	1.095658	0.297330	0.608392
H73	H	1.040681	0.291782	0.545930
H74	H	1.056822	0.352593	0.940365
N75	N	0.227176	0.593118	0.416103
H76	H	0.260302	0.632246	0.443470
H77	H	0.197824	0.637708	0.388501
N78	N	0.374104	0.593116	0.416070
H79	H	0.340995	0.632244	0.443452
H80	H	0.403461	0.553909	0.447434
N81	N	0.888257	0.592661	1.077882
H82	H	0.860813	0.631744	1.044756
H83	H	0.856955	0.553379	1.107209
H84	H	0.899624	0.576507	0.584534
H85	H	0.592279	0.576762	0.404619
H86	H	0.720472	0.352622	0.247792
H87	H	0.592238	0.352645	0.247803
