data_functionalizedCrystal
_audit_creation_method	'MofGen! by Chris Wilmer'
_symmetry_space_group_name_H-M	'P1'
_symmetry_Int_Tables_number	1
_symmetry_cell_setting	triclinic
loop_
_symmetry_equiv_pos_as_xyz
  x,y,z
_cell_length_a	14.044191
_cell_length_b	14.044220
_cell_length_c	13.101039
_cell_angle_alpha	86.332523
_cell_angle_beta	93.662449
_cell_angle_gamma	93.190327
loop_
_atom_site_label
_atom_site_type_symbol
_atom_site_fract_x
_atom_site_fract_y
_atom_site_fract_z
O1	O	1.281976	0.225377	0.085169
O2	O	1.531976	0.475377	0.335169
O3	O	1.781976	0.725377	0.585169
O4	O	2.031976	0.975377	0.835169
O5	O	1.005305	0.217064	0.085182
O6	O	1.255305	0.467064	0.335182
O7	O	1.505305	0.717064	0.585182
O8	O	1.755305	0.967064	0.835182
O9	O	1.139487	0.082885	0.085166
O10	O	1.389487	0.332885	0.335166
O11	O	1.639487	0.582885	0.585166
O12	O	1.889487	0.832885	0.835166
O13	O	1.147794	0.359556	0.085186
O14	O	1.397794	0.609556	0.335186
O15	O	1.647794	0.859556	0.585186
O16	O	1.897794	1.109556	0.835186
O17	O	1.129861	0.092530	-0.085263
O18	O	1.379861	0.342530	0.164737
O19	O	1.629861	0.592530	0.414737
O20	O	1.879861	0.842530	0.664737
O21	O	0.995679	0.226708	-0.085247
O22	O	1.245679	0.476708	0.164753
O23	O	1.495679	0.726708	0.414753
O24	O	1.745679	0.976708	0.664753
O25	O	1.272350	0.235022	-0.085259
O26	O	1.522350	0.485022	0.164741
O27	O	1.772350	0.735022	0.414741
O28	O	2.022350	0.985022	0.664741
Zn29	Zn	1.132486	0.232396	-0.112312
Zn30	Zn	1.382486	0.482396	0.137688
Zn31	Zn	1.632486	0.732396	0.387688
Zn32	Zn	1.882486	0.982396	0.637688
Zn33	Zn	1.145169	0.219689	0.112235
Zn34	Zn	1.395169	0.469689	0.362235
Zn35	Zn	1.645169	0.719689	0.612235
Zn36	Zn	1.895169	0.969689	0.862235
O37	O	1.138168	0.369200	-0.085243
O38	O	1.388168	0.619200	0.164757
O39	O	1.638168	0.869200	0.414757
O40	O	1.888168	1.119200	0.664757
C41	C	0.964870	0.218250	-0.000031
C42	C	1.214870	0.468250	0.249969
C43	C	1.464870	0.718250	0.499969
C44	C	1.714870	0.968250	0.749969
C45	C	0.858727	0.207402	-0.000026
C46	C	1.108727	0.457402	0.249974
C47	C	1.358727	0.707402	0.499974
C48	C	1.608727	0.957402	0.749974
C49	C	1.131038	0.052086	-0.000049
C50	C	1.381038	0.302086	0.249951
C51	C	1.631038	0.552086	0.499951
C52	C	1.881038	0.802086	0.749951
C53	C	1.120194	-0.054057	-0.000050
C54	C	1.370194	0.195943	0.249950
C55	C	1.620194	0.445943	0.499950
C56	C	1.870194	0.695943	0.749950
C57	C	0.613268	0.264503	-0.000032
C58	C	0.863268	0.514503	0.249968
C59	C	1.113268	0.764503	0.499968
C60	C	1.363268	1.014503	0.749968
C61	C	0.664393	0.187587	-0.000036
C62	C	0.914393	0.437587	0.249964
C63	C	1.164393	0.687587	0.499964
C64	C	1.414393	0.937587	0.749964
C65	C	0.772531	0.198615	-0.000031
C66	C	1.022531	0.448615	0.249969
C67	C	1.272531	0.698615	0.499969
C68	C	1.522531	0.948615	0.749969
C69	C	0.505121	0.253476	-0.000038
C70	C	0.755121	0.503476	0.249962
C71	C	1.005121	0.753476	0.499962
C72	C	1.255121	1.003476	0.749962
C73	C	1.100368	-0.248396	-0.000034
C74	C	1.350368	0.001604	0.249966
C75	C	1.600368	0.251604	0.499966
C76	C	1.850368	0.501604	0.749966
C77	C	1.177283	-0.299524	-0.000034
C78	C	1.427283	-0.049524	0.249966
C79	C	1.677283	0.200476	0.499966
C80	C	1.927283	0.450476	0.749966
C81	C	1.166252	-0.407661	-0.000026
C82	C	1.416252	-0.157661	0.249974
C83	C	1.666252	0.092339	0.499974
C84	C	1.916252	0.342339	0.749974
C85	C	1.111398	-0.140250	-0.000043
C86	C	1.361398	0.109750	0.249957
C87	C	1.611398	0.359750	0.499957
C88	C	1.861398	0.609750	0.749957
C89	C	1.312785	0.233836	-0.000044
C90	C	1.562785	0.483836	0.249956
C91	C	1.812785	0.733836	0.499956
C92	C	2.062785	0.983836	0.749956
C93	C	1.418929	0.244683	-0.000042
C94	C	1.668929	0.494683	0.249958
C95	C	1.918929	0.744683	0.499958
C96	C	2.168929	0.994683	0.749958
C97	C	1.146617	0.400000	-0.000026
C98	C	1.396617	0.650000	0.249974
C99	C	1.646617	0.900000	0.499974
C100	C	1.896617	1.150000	0.749974
C101	C	1.157462	0.506143	-0.000019
C102	C	1.407462	0.756143	0.249981
C103	C	1.657462	1.006143	0.499981
C104	C	1.907462	1.256143	0.749981
N105	N	1.123838	0.241069	-0.265560
N106	N	1.373838	0.491069	-0.015560
N107	N	1.623838	0.741069	0.234440
N108	N	1.873838	0.991069	0.484440
C109	C	1.112072	0.252876	-0.474601
C110	C	1.362072	0.502876	-0.224601
C111	C	1.612072	0.752876	0.025399
C112	C	1.862072	1.002876	0.275399
C113	C	1.165588	0.199205	-0.525483
C114	C	1.415588	0.449205	-0.275483
C115	C	1.665588	0.699205	-0.025483
C116	C	1.915588	0.949205	0.224517
C117	C	1.159041	0.205775	-0.641801
C118	C	1.409041	0.455775	-0.391801
C119	C	1.659041	0.705775	-0.141801
C120	C	1.909041	0.955775	0.108199
C121	C	1.118617	0.246308	-0.358273
C122	C	1.368617	0.496308	-0.108273
C123	C	1.618617	0.746308	0.141727
C124	C	1.868617	0.996308	0.391727
N125	N	1.153824	0.211010	0.265482
N126	N	1.403824	0.461010	0.515482
N127	N	1.653824	0.711010	0.765482
N128	N	1.903824	0.961010	1.015482
H129	H	0.626954	0.113451	0.000031
H130	H	0.876954	0.363451	0.250031
H131	H	1.126954	0.613451	0.500031
H132	H	1.376954	0.863451	0.750031
H133	H	1.061342	0.303757	-0.518392
H134	H	1.311342	0.553757	-0.268392
H135	H	1.561342	0.803757	-0.018392
H136	H	1.811342	1.053757	0.231608
H137	H	1.026241	-0.285836	-0.000028
H138	H	1.276241	-0.035836	0.249972
H139	H	1.526241	0.214164	0.499972
H140	H	1.776241	0.464164	0.749972
H141	H	1.216322	0.148323	-0.481687
H142	H	1.466322	0.398323	-0.231687
H143	H	1.716322	0.648323	0.018313
H144	H	1.966322	0.898323	0.268313
H145	H	0.650710	0.338629	-0.000024
H146	H	0.900710	0.588629	0.249976
H147	H	1.150710	0.838629	0.499976
H148	H	1.400710	1.088629	0.749976
H149	H	1.251420	-0.262087	0.000031
H150	H	1.501420	-0.012087	0.250031
H151	H	1.751420	0.237913	0.500031
H152	H	2.001420	0.487913	0.750031
