data_functionalizedCrystal
_audit_creation_method	'MofGen! by Chris Wilmer'
_symmetry_space_group_name_H-M	'P1'
_symmetry_Int_Tables_number	1
_symmetry_cell_setting	triclinic
loop_
_symmetry_equiv_pos_as_xyz
  x,y,z
_cell_length_a	10.654562
_cell_length_b	17.699104
_cell_length_c	9.730223
_cell_angle_alpha	89.997740
_cell_angle_beta	89.996961
_cell_angle_gamma	83.890810
loop_
_atom_site_label
_atom_site_type_symbol
_atom_site_fract_x
_atom_site_fract_y
_atom_site_fract_z
O1	O	1.665976	0.106344	-0.114383
O2	O	1.300324	0.116462	-0.114367
O3	O	1.493467	0.001281	-0.114363
O4	O	1.472833	0.221525	-0.114387
O5	O	1.493465	0.001284	0.114217
O6	O	1.300322	0.116465	0.114213
O7	O	1.665974	0.106347	0.114196
Zn8	Zn	1.483148	0.111406	0.150497
Zn9	Zn	1.483151	0.111402	-0.150667
O10	O	1.472831	0.221528	0.114193
C11	C	1.253538	0.115718	-0.000074
C12	C	1.114134	0.113490	-0.000068
C13	C	1.048621	0.112452	0.124521
C14	C	0.917635	0.110364	0.124498
C15	C	0.917687	0.110355	-0.124712
C16	C	1.048672	0.112437	-0.124688
C17	C	1.048588	0.112460	0.268401
C18	C	0.917602	0.110372	0.268378
C19	C	1.492722	-0.026919	-0.000073
C20	C	1.490491	-0.110951	-0.000072
C21	C	1.591278	-0.635178	-0.000116
C22	C	1.593367	-0.556221	-0.000104
C23	C	1.479984	-0.508328	-0.000096
C24	C	1.364505	-0.539395	-0.000085
C25	C	1.362417	-0.618350	-0.000088
C26	C	1.372923	-0.220975	-0.000074
C27	C	1.375019	-0.142014	-0.000076
C28	C	1.603872	-0.158846	-0.000090
C29	C	1.601784	-0.237801	-0.000093
C30	C	1.486306	-0.268862	-0.000075
C31	C	1.484042	-0.354476	-0.000086
C32	C	1.482247	-0.422715	-0.000095
C33	C	1.712760	0.107090	-0.000099
C34	C	1.852164	0.109319	-0.000115
C35	C	1.473576	0.249728	-0.000100
C36	C	1.475807	0.333760	-0.000110
N37	N	1.483155	0.111408	0.356033
N38	N	1.483153	0.111394	-0.356203
C39	C	1.568700	0.060424	0.427961
C40	C	1.568697	0.060414	0.571844
C41	C	1.397599	0.162381	0.571859
C42	C	1.397597	0.162386	0.427979
C43	C	1.667486	0.001556	0.427953
C44	C	1.667483	0.001547	0.571836
H45	H	1.077203	0.167658	0.313038
H46	H	1.758349	0.019992	0.383321
H47	H	1.327929	0.203896	0.369416
C48	C	1.250284	-0.089332	-0.000060
N49	N	1.156338	-0.049652	-0.000048
H50	H	1.763769	0.014517	0.610881
C51	C	1.627537	-0.072714	0.632127
N52	N	1.597442	-0.128644	0.677540
H53	H	1.095757	0.060157	0.323659
H54	H	0.888973	0.055176	0.313030
H55	H	1.683607	-0.674169	-0.000134
H56	H	1.278894	-0.246254	-0.000077
C57	C	1.303489	0.218453	0.651012
N58	N	1.232603	0.260687	0.710629
H59	H	1.272188	-0.500393	-0.000071
H60	H	1.102011	0.113271	-0.226140
H61	H	1.647054	-0.056617	0.388907
H62	H	0.864372	0.109498	-0.226174
C63	C	0.853814	0.181144	0.342642
N64	N	0.805761	0.234487	0.398451
H65	H	1.268390	-0.643639	-0.000071
H66	H	1.687394	-0.530935	-0.000107
H67	H	1.694112	-0.276793	-0.000106
H68	H	1.697900	-0.133547	-0.000123
