data_functionalizedCrystal
_audit_creation_method	'MofGen! by Chris Wilmer'
_symmetry_space_group_name_H-M	'P1'
_symmetry_Int_Tables_number	1
_symmetry_cell_setting	triclinic
loop_
_symmetry_equiv_pos_as_xyz
  x,y,z
_cell_length_a	19.805407
_cell_length_b	21.295417
_cell_length_c	19.805399
_cell_angle_alpha	89.967749
_cell_angle_beta	89.983114
_cell_angle_gamma	90.030507
loop_
_atom_site_label
_atom_site_type_symbol
_atom_site_fract_x
_atom_site_fract_y
_atom_site_fract_z
Zn1	Zn	1.034698	-0.250615	-0.382704
Zn2	Zn	1.534698	0.249385	0.117296
Zn3	Zn	1.034611	-0.355886	-0.269510
Zn4	Zn	1.534611	0.144114	0.230490
Zn5	Zn	0.921518	-0.250635	-0.269529
Zn6	Zn	1.421518	0.249365	0.230471
Zn7	Zn	0.921469	-0.355850	-0.382656
Zn8	Zn	1.421469	0.144150	0.117344
O9	O	0.978074	-0.303247	-0.326100
O10	O	1.478074	0.196753	0.173900
O11	O	1.129403	-0.264586	-0.367701
O12	O	1.629403	0.235414	0.132299
O13	O	1.019593	-0.341948	-0.174796
O14	O	1.519593	0.158052	0.325204
O15	O	0.936590	-0.162543	-0.284570
O16	O	1.436590	0.337457	0.215430
O17	O	1.129339	-0.341929	-0.284537
O18	O	1.629339	0.158071	0.215463
O19	O	1.019743	-0.162528	-0.367719
O20	O	1.519743	0.337472	0.132281
O21	O	0.936504	-0.264620	-0.174810
O22	O	1.436504	0.235380	0.325190
O23	O	0.826795	-0.264585	-0.284523
O24	O	1.326795	0.235415	0.215477
O25	O	0.936505	-0.341867	-0.477379
O26	O	1.436505	0.158133	0.022621
O27	O	0.826759	-0.341887	-0.367638
O28	O	1.326759	0.158113	0.132362
O29	O	1.019694	-0.264551	-0.477415
O30	O	1.519694	0.235449	0.022585
O31	O	1.019544	-0.443971	-0.284491
O32	O	1.519544	0.056029	0.215509
O33	O	0.936419	-0.443945	-0.367619
O34	O	1.436419	0.056055	0.132381
C35	C	0.802218	-0.303235	-0.326078
C36	C	1.302218	0.196765	0.173922
C37	C	0.726986	-0.303245	-0.326085
C38	C	1.226986	0.196755	0.173915
C39	C	0.691640	-0.343556	-0.369292
C40	C	1.191640	0.156444	0.130708
C41	C	0.620952	-0.343557	-0.369302
C42	C	1.120952	0.156443	0.130698
C43	C	0.585610	-0.303250	-0.326100
C44	C	1.085610	0.196750	0.173900
C45	C	0.620961	-0.262934	-0.282890
C46	C	1.120961	0.237066	0.217110
C47	C	0.691648	-0.262930	-0.282885
C48	C	1.191648	0.237070	0.217115
C49	C	0.335888	-0.262948	-0.282913
C50	C	0.835888	0.237052	0.217087
C51	C	0.265195	-0.262956	-0.282920
C52	C	0.765195	0.237044	0.217080
C53	C	0.265192	-0.343575	-0.369330
C54	C	0.765192	0.156425	0.130670
C55	C	0.335879	-0.343571	-0.369324
C56	C	0.835879	0.156429	0.130676
C57	C	0.371223	-0.303253	-0.326117
C58	C	0.871223	0.196747	0.173883
C59	C	0.447871	-0.303252	-0.326109
C60	C	0.947871	0.196748	0.173891
C61	C	0.508963	-0.303254	-0.326105
C62	C	1.008963	0.196746	0.173895
C63	C	0.977985	-0.466798	-0.326062
C64	C	1.477985	0.033202	0.173938
C65	C	0.978009	-0.536766	-0.326069
C66	C	1.478009	-0.036766	0.173931
C67	C	1.021331	-0.569626	-0.282828
C68	C	1.521331	-0.069626	0.217172
C69	C	1.021363	-0.635368	-0.282844
C70	C	1.521363	-0.135368	0.217156
C71	C	0.978061	-0.668249	-0.326092
C72	C	1.478061	-0.168249	0.173908
C73	C	0.934736	-0.635381	-0.369341
C74	C	1.434736	-0.135381	0.130659
C75	C	0.934710	-0.569640	-0.369330
C76	C	1.434710	-0.069640	0.130670
N77	N	0.918850	-0.771515	-0.331245
N78	N	1.418850	-0.271515	0.168755
N79	N	0.918876	-0.833966	-0.331252
N80	N	1.418876	-0.333966	0.168748
C81	C	0.978136	-0.866324	-0.326131
C82	C	1.478136	-0.366324	0.173869
N83	N	1.037371	-0.833870	-0.320989
N84	N	1.537371	-0.333870	0.179011
N85	N	1.037343	-0.771413	-0.320979
N86	N	1.537343	-0.271413	0.179021
C87	C	0.978084	-0.739534	-0.326110
C88	C	1.478084	-0.239534	0.173890
C89	C	1.021496	-0.970469	-0.282905
C90	C	1.521496	-0.470469	0.217095
C91	C	1.021529	-1.036212	-0.282925
C92	C	1.521529	-0.536212	0.217075
C93	C	0.934896	-1.036224	-0.369419
C94	C	1.434896	-0.536224	0.130581
C95	C	0.934869	-0.970482	-0.369402
C96	C	1.434869	-0.470482	0.130598
C97	C	0.978168	-0.937608	-0.326142
C98	C	1.478168	-0.437608	0.173858
C99	C	1.154617	-0.303259	-0.326122
C100	C	1.654617	0.196741	0.173878
C101	C	1.229849	-0.303265	-0.326132
C102	C	1.729849	0.196735	0.173868
C103	C	0.978104	-0.303203	-0.502643
C104	C	1.478104	0.196797	-0.002643
C105	C	0.978116	-0.303184	-0.577875
C106	C	1.478116	0.196816	-0.077875
C107	C	0.978181	-0.139056	-0.326152
C108	C	1.478181	0.360944	0.173848
C109	C	0.978227	-0.069088	-0.326175
C110	C	1.478227	0.430912	0.173825
C111	C	0.934865	-0.262916	-0.613226
C112	C	1.434865	0.237084	-0.113226
C113	C	0.934874	-0.262904	-0.683914
C114	C	1.434874	0.237096	-0.183914
C115	C	0.978139	-0.303157	-0.719250
C116	C	1.478139	0.196843	-0.219250
C117	C	1.021393	-0.343430	-0.683894
C118	C	1.521393	0.156570	-0.183894
C119	C	1.021379	-0.343445	-0.613207
C120	C	1.521379	0.156555	-0.113207
C121	C	1.021446	-0.343371	-0.968968
C122	C	1.521446	0.156629	-0.468968
C123	C	1.021458	-0.343352	-1.039660
C124	C	1.521458	0.156648	-0.539660
C125	C	0.934941	-0.262830	-1.039675
C126	C	1.434941	0.237170	-0.539675
C127	C	0.934928	-0.262845	-0.968988
C128	C	1.434928	0.237155	-0.468988
C129	C	0.978178	-0.303120	-0.933638
C130	C	1.478178	0.196880	-0.433638
C131	C	0.978167	-0.303133	-0.856989
C132	C	1.478167	0.196867	-0.356989
C133	C	0.978154	-0.303141	-0.795897
C134	C	1.478154	0.196859	-0.295897
C135	C	0.978083	-0.303245	-0.150244
C136	C	1.478083	0.196755	0.349756
C137	C	0.978202	-0.303086	-0.075012
C138	C	1.478202	0.196914	0.424988
H139	H	0.364656	-0.230123	-0.247726
H140	H	0.864656	0.269877	0.252274
C141	C	0.684556	-0.183249	-0.197460
C142	C	1.184556	0.316751	0.302540
C143	C	0.730503	-0.218624	-0.235383
C144	C	1.230503	0.281376	0.264617
H145	H	0.708545	-0.155898	-0.168132
H146	H	1.208545	0.344102	0.331868
H147	H	0.657012	-0.159205	-0.226999
H148	H	1.157012	0.340795	0.273001
H149	H	0.656960	-0.210654	-0.171522
H150	H	1.156960	0.289346	0.328478
H151	H	0.758096	-0.191219	-0.261326
H152	H	1.258096	0.308781	0.238674
H153	H	0.758058	-0.242669	-0.205841
H154	H	1.258058	0.257331	0.294159
H155	H	1.056616	-0.376208	-0.712671
H156	H	1.556616	0.123792	-0.212671
H157	H	1.056811	-1.062965	-0.247714
H158	H	1.556811	-0.562965	0.252286
C159	C	0.185734	-0.352435	-0.460374
C160	C	0.685734	0.147565	0.039626
C161	C	0.226338	-0.387887	-0.416832
C162	C	0.726338	0.112113	0.083168
H163	H	0.161753	-0.379792	-0.489701
H164	H	0.661753	0.120208	0.010299
H165	H	0.154573	-0.328436	-0.434647
H166	H	0.654573	0.171564	0.065353
H167	H	0.213344	-0.325041	-0.486314
H168	H	0.713344	0.174959	0.013686
H169	H	0.198729	-0.415278	-0.390890
H170	H	0.698729	0.084722	0.109110
H171	H	0.257503	-0.411897	-0.442563
H172	H	0.757503	0.088103	0.057437
H173	H	0.899590	-0.943726	-0.404610
H174	H	1.399590	-0.443726	0.095390
H175	H	0.899642	-1.062995	-0.404636
H176	H	1.399642	-0.562995	0.095364
C177	C	1.106902	-0.423038	-0.620288
C178	C	1.606902	0.076962	-0.120288
C179	C	1.068923	-0.387710	-0.574347
C180	C	1.568923	0.112290	-0.074347
H181	H	1.136254	-0.450365	-0.596296
H182	H	1.636254	0.049635	-0.096296
H183	H	1.077401	-0.447104	-0.647847
H184	H	1.577401	0.052896	-0.147847
H185	H	1.132818	-0.395601	-0.647870
H186	H	1.632818	0.104399	-0.147870
H187	H	1.043003	-0.415146	-0.546767
H188	H	1.543003	0.084854	-0.046767
H189	H	1.098428	-0.363641	-0.546776
H190	H	1.598428	0.136359	-0.046776
C191	C	1.106970	-0.576223	-0.197339
C192	C	1.606970	-0.076223	0.302661
C193	C	1.068934	-0.533492	-0.235286
C194	C	1.568934	-0.033492	0.264714
H195	H	1.136362	-0.553913	-0.167994
H196	H	1.636362	-0.053913	0.332006
H197	H	1.077506	-0.601902	-0.171423
H198	H	1.577506	-0.101902	0.328577
H199	H	1.132845	-0.601827	-0.226866
H200	H	1.632845	-0.101827	0.273134
H201	H	1.043055	-0.507891	-0.205759
H202	H	1.543055	-0.007891	0.294241
H203	H	1.098401	-0.507802	-0.261204
H204	H	1.598401	-0.007802	0.238796
H205	H	0.899637	-0.230133	-0.584460
H206	H	1.399637	0.269867	-0.084460
H207	H	0.236422	-0.230129	-0.247740
H208	H	0.736422	0.269871	0.252260
C209	C	1.059834	-0.736144	-0.244430
C210	C	1.559834	-0.236144	0.255570
C211	C	1.068965	-0.671499	-0.235291
C212	C	1.568965	-0.171499	0.264709
H213	H	1.089220	-0.758447	-0.215070
H214	H	1.589220	-0.258447	0.284930
H215	H	1.014365	-0.746947	-0.234504
H216	H	1.514365	-0.246947	0.265496
H217	H	1.069737	-0.746881	-0.289914
H218	H	1.569737	-0.246881	0.210086
H219	H	1.059057	-0.660761	-0.189808
H220	H	1.559057	-0.160761	0.310192
H221	H	1.114444	-0.660691	-0.245212
H222	H	1.614444	-0.160691	0.254788
H223	H	0.720411	-0.376381	-0.404470
H224	H	1.220411	0.123619	0.095530
H225	H	0.592180	-0.230112	-0.247718
H226	H	1.092180	0.269888	0.252282
H227	H	0.899651	-0.230116	-0.712694
H228	H	1.399651	0.269884	-0.212694
H229	H	0.899699	-0.230064	-0.940220
H230	H	1.399699	0.269936	-0.440220
H231	H	0.899722	-0.230038	-1.068465
H232	H	1.399722	0.269962	-0.568465
H233	H	0.592177	-0.376383	-0.404485
H234	H	1.092177	0.123617	0.095515
C235	C	1.106970	-0.422964	-1.032549
C236	C	1.606970	0.077036	-0.532549
C237	C	1.069013	-0.387607	-1.078503
C238	C	1.569013	0.112393	-0.578503
H239	H	1.136323	-0.450285	-1.056531
H240	H	1.636323	0.049715	-0.556531
H241	H	1.132877	-0.395550	-1.004992
H242	H	1.632877	0.104450	-0.504992
H243	H	1.077449	-0.447044	-1.004966
H244	H	1.577449	0.052956	-0.504966
H245	H	1.098533	-0.363523	-1.106083
H246	H	1.598533	0.136477	-0.606083
H247	H	1.043104	-0.415024	-1.106072
H248	H	1.543104	0.084976	-0.606072
C249	C	0.896303	-0.736164	-0.407755
C250	C	1.396303	-0.236164	0.092245
C251	C	0.887135	-0.671521	-0.416879
C252	C	1.387135	-0.171521	0.083121
H253	H	0.866913	-0.758474	-0.437104
H254	H	1.366913	-0.258474	0.062896
H255	H	0.941772	-0.746892	-0.417707
H256	H	1.441772	-0.246892	0.082293
H257	H	0.886429	-0.746969	-0.362269
H258	H	1.386429	-0.246969	0.137731
H259	H	0.897014	-0.660716	-0.462365
H260	H	1.397014	-0.160716	0.037635
H261	H	0.841656	-0.660790	-0.406933
H262	H	1.341656	-0.160790	0.093067
H263	H	1.056656	-0.376172	-0.940194
H264	H	1.556656	0.123828	-0.440194
C265	C	0.849082	-0.576257	-0.454826
C266	C	1.349082	-0.076257	0.045174
C267	C	0.887083	-0.533517	-0.416859
C268	C	1.387083	-0.033517	0.083141
H269	H	0.819676	-0.553953	-0.484165
H270	H	1.319676	-0.053953	0.015835
H271	H	0.878566	-0.601852	-0.480749
H272	H	1.378566	-0.101852	0.019251
H273	H	0.823222	-0.601943	-0.425311
H274	H	1.323222	-0.101943	0.074689
H275	H	0.912947	-0.507833	-0.446374
H276	H	1.412947	-0.007833	0.053626
H277	H	0.857596	-0.507911	-0.390934
H278	H	1.357596	-0.007911	0.109066
H279	H	0.364650	-0.376396	-0.404501
H280	H	0.864650	0.123604	0.095499
H281	H	1.056755	-0.943702	-0.247681
H282	H	1.556755	-0.443702	0.252319
