data_functionalizedCrystal
_audit_creation_method	'MofGen! by Chris Wilmer'
_symmetry_space_group_name_H-M	'P1'
_symmetry_Int_Tables_number	1
_symmetry_cell_setting	triclinic
loop_
_symmetry_equiv_pos_as_xyz
  x,y,z
_cell_length_a	10.686154
_cell_length_b	10.685741
_cell_length_c	10.685314
_cell_angle_alpha	99.024712
_cell_angle_beta	81.644047
_cell_angle_gamma	90.321389
loop_
_atom_site_label
_atom_site_type_symbol
_atom_site_fract_x
_atom_site_fract_y
_atom_site_fract_z
Zn1	Zn	-1.914134	-0.401137	-0.597679
Zn2	Zn	-1.944099	-0.594673	-0.399250
Zn3	Zn	-1.718152	-0.401231	-0.401715
Zn4	Zn	-1.718180	-0.629610	-0.630172
O5	O	-1.823641	-0.506663	-0.507204
O6	O	-2.094677	-0.412149	-0.556728
O7	O	-1.926655	-0.554431	-0.220924
O8	O	-1.731597	-0.224645	-0.415143
O9	O	-2.116692	-0.554340	-0.410943
O10	O	-1.875585	-0.224576	-0.559117
O11	O	-1.760653	-0.412310	-0.222734
O12	O	-1.541588	-0.446186	-0.446650
O13	O	-1.731645	-0.613884	-0.804515
O14	O	-1.541609	-0.613975	-0.614497
O15	O	-1.875612	-0.446026	-0.780643
O16	O	-1.926682	-0.775881	-0.442450
O17	O	-1.760700	-0.801548	-0.612107
C18	C	-1.495816	-0.533883	-0.534367
C19	C	-1.355571	-0.545560	-0.546020
C20	C	-1.846978	-0.834497	-0.530562
C21	C	-1.857074	-0.974740	-0.540587
C22	C	-1.800289	-0.533841	-0.840197
C23	C	-1.790338	-0.545423	-0.982099
C24	C	-1.152746	-0.479324	-0.479927
C25	C	-1.292990	-0.467641	-0.468279
C26	C	-1.800246	-0.177547	-0.483781
C27	C	-1.790276	-0.037298	-0.473799
C28	C	-1.846969	-0.479493	-0.175494
C29	C	-1.857139	-0.467535	-0.033547
H30	H	-1.346703	-0.391998	-0.392805
C31	C	-1.702791	-0.647493	-1.069243
H32	H	-1.662211	-0.694796	-1.017938
H33	H	-1.751360	-0.702662	-1.121165
H34	H	-1.640774	-0.607981	-1.122375
H35	H	-1.921897	-0.028476	-0.605398
C36	C	-1.283013	-0.647759	-0.647983
H37	H	-1.195108	-0.642465	-0.642710
H38	H	-1.311912	-0.729200	-0.633434
H39	H	-1.297239	-0.634640	-0.730719
C40	C	-1.702704	0.035288	-0.386230
H41	H	-1.662142	-0.022763	-0.345663
H42	H	-1.640691	0.078152	-0.436003
H43	H	-1.751267	0.095246	-0.322981
H44	H	-1.921931	-0.391980	-0.969035
