data_functionalizedCrystal
_audit_creation_method	'MofGen! by Chris Wilmer'
_symmetry_space_group_name_H-M	'P1'
_symmetry_Int_Tables_number	1
_symmetry_cell_setting	triclinic
loop_
_symmetry_equiv_pos_as_xyz
  x,y,z
_cell_length_a	10.968094
_cell_length_b	10.489741
_cell_length_c	9.482900
_cell_angle_alpha	80.566376
_cell_angle_beta	92.548310
_cell_angle_gamma	95.374755
loop_
_atom_site_label
_atom_site_type_symbol
_atom_site_fract_x
_atom_site_fract_y
_atom_site_fract_z
O1	O	1.612127	-0.225214	0.282958
O2	O	1.262943	-0.228020	0.195485
O3	O	1.445481	-0.041339	0.241209
O4	O	1.429589	-0.411895	0.237235
O5	O	1.408405	-0.079418	0.473714
O6	O	1.225867	-0.266099	0.427990
O7	O	1.575051	-0.263293	0.515464
Cu8	Cu	1.397074	-0.268173	0.492957
Cu9	Cu	1.440921	-0.223140	0.217992
O10	O	1.392513	-0.449974	0.469740
C11	C	1.199692	-0.243980	0.300537
C12	C	1.066461	-0.234788	0.267161
C13	C	0.850150	-0.240901	0.338221
C14	C	0.987848	-0.250412	0.372731
C15	C	1.412251	-0.478514	0.353789
C16	C	1.415842	-0.620289	0.354690
C17	C	1.531987	-0.693113	0.383774
C18	C	1.458841	-0.801795	0.484666
C19	C	1.495368	-0.764229	0.255428
C20	C	1.342633	-0.727119	0.455665
C21	C	1.379193	-0.689528	0.226327
C22	C	1.305959	-0.798184	0.327226
C23	C	1.638303	-0.247332	0.410409
C24	C	1.771535	-0.256523	0.443776
C25	C	1.425744	-0.012798	0.357157
C26	C	1.422155	0.128978	0.356246
N27	N	1.366243	-0.299846	0.686354
N28	N	1.471761	-0.191457	0.024597
C29	C	1.431819	-0.232475	0.774979
C30	C	1.406176	-0.258838	0.935973
H31	H	1.022479	-0.270824	0.488656
H32	H	1.331040	-0.336034	0.979277
C33	C	0.803364	-0.213315	0.181618
N34	N	0.768127	-0.192537	0.063660
H35	H	1.546888	-0.114251	0.981291
H36	H	1.627462	-0.647335	0.407810
C37	C	1.019684	-0.207206	0.110548
N38	N	0.984449	-0.186434	-0.007411
H39	H	1.506941	-0.155274	0.731668
H40	H	1.278058	-0.710195	0.540388
C41	C	0.818319	-0.284126	0.600379
N42	N	0.853553	-0.304927	0.718335
C43	C	1.504347	-0.867803	0.632234
N44	N	1.538627	-0.917512	0.743382
C45	C	1.176829	-0.859777	0.294973
N46	N	1.079569	-0.906177	0.270691
H47	H	1.345547	-0.640631	0.117105
C48	C	1.582662	-0.787316	0.141134
N49	N	1.648418	-0.804699	0.055054
C50	C	1.264745	-0.404132	0.744860
N51	N	1.188293	-0.482682	0.788924
