data_functionalizedCrystal
_audit_creation_method	'MofGen! by Chris Wilmer'
_symmetry_space_group_name_H-M	'P1'
_symmetry_Int_Tables_number	1
_symmetry_cell_setting	triclinic
loop_
_symmetry_equiv_pos_as_xyz
  x,y,z
_cell_length_a	13.033293
_cell_length_b	14.908178
_cell_length_c	13.032268
_cell_angle_alpha	86.549870
_cell_angle_beta	90.920818
_cell_angle_gamma	100.025217
loop_
_atom_site_label
_atom_site_type_symbol
_atom_site_fract_x
_atom_site_fract_y
_atom_site_fract_z
Zn1	Zn	1.482374	-0.280179	0.760689
Zn2	Zn	1.496685	-0.409596	0.579111
Zn3	Zn	1.332507	-0.275423	0.567217
Zn4	Zn	1.300780	-0.447137	0.726365
O5	O	1.403087	-0.353084	0.658345
O6	O	1.628979	-0.283625	0.755944
O7	O	1.494174	-0.374096	0.434938
O8	O	1.359676	-0.150030	0.602269
O9	O	1.639493	-0.378707	0.622540
O10	O	1.469782	-0.153524	0.744411
O11	O	1.373553	-0.275520	0.426200
O12	O	1.183592	-0.311922	0.568986
O13	O	1.305602	-0.442691	0.873512
O14	O	1.160282	-0.438080	0.685911
O15	O	1.439018	-0.320028	0.898730
O16	O	1.463409	-0.540600	0.589257
O17	O	1.319479	-0.568181	0.697444
C18	C	1.134416	-0.378560	0.622434
C19	C	1.019473	-0.389483	0.607094
C20	C	0.963008	-0.347405	0.666350
C21	C	0.844208	-0.358694	0.650496
C22	C	1.389579	-0.587067	0.640942
C23	C	1.383891	-0.687162	0.633544
C24	C	1.487737	-0.878765	0.767781
C25	C	1.482395	-0.972813	0.760834
C26	C	1.367861	-0.969308	0.612707
C27	C	1.373203	-0.875260	0.619654
C28	C	1.433144	-0.829992	0.697193
C29	C	1.438491	-0.735941	0.704135
C30	C	1.323951	-0.732439	0.556014
C31	C	1.318610	-0.826487	0.549066
C32	C	1.672806	-0.327509	0.694397
C33	C	1.787744	-0.316611	0.709761
C34	C	1.367174	-0.386078	0.924128
C35	C	1.351871	-0.400138	1.037389
C36	C	1.416671	-0.118186	0.675842
C37	C	1.422461	-0.018087	0.683298
C38	C	1.438922	-0.320147	0.393609
C39	C	1.454441	-0.305815	0.280394
C40	C	1.411059	-0.345715	1.100362
C41	C	1.395244	-0.360245	1.217423
H42	H	1.002617	-0.303020	0.728815
C43	C	1.448510	-0.208453	0.991457
C44	C	1.495279	-0.268294	1.056156
H45	H	1.500509	-0.160660	0.964164
H46	H	1.399893	-0.183390	1.029531
H47	H	1.413424	-0.240725	0.936787
H48	H	1.530359	-0.236023	1.110831
H49	H	1.543914	-0.293358	1.018081
C50	C	1.600409	-0.891673	0.913503
C51	C	1.553617	-0.829001	0.853011
H52	H	1.641074	-0.860950	0.966126
H53	H	1.643918	-0.919071	0.871725
H54	H	1.547965	-0.937493	0.943698
H55	H	1.606062	-0.783184	0.822810
H56	H	1.510106	-0.801588	0.894796
H57	H	1.332851	-0.417595	1.250169
H58	H	1.269805	-0.863358	0.485939
H59	H	0.804604	-0.403077	0.588021
H60	H	1.279501	-0.692716	0.498533
C61	C	1.440218	-0.645775	0.850930
C62	C	1.504371	-0.686176	0.789365
H63	H	1.480892	-0.615050	0.903545
H64	H	1.387792	-0.691596	0.881126
H65	H	1.408477	-0.603268	0.809871
H66	H	1.536107	-0.728688	0.830422
H67	H	1.556816	-0.640349	0.759168
C68	C	1.525060	-1.118536	0.815958
C69	C	1.542406	-1.026426	0.838425
H70	H	1.562104	-1.151634	0.863867
H71	H	1.548631	-1.124019	0.748407
H72	H	1.452679	-1.142426	0.820381
H73	H	1.614786	-1.002534	0.833995
H74	H	1.518840	-1.020939	0.905993
H75	H	1.319055	-1.006183	0.549583
H76	H	0.827348	-0.272220	0.772229
H77	H	1.516822	-0.248455	1.247649
C78	C	1.314433	-0.537409	1.146277
C79	C	1.267656	-0.477568	1.081585
H80	H	1.262441	-0.585216	1.173553
H81	H	1.349504	-0.505148	1.200950
H82	H	1.363067	-0.562460	1.108194
H83	H	1.219028	-0.452512	1.119670
H84	H	1.232569	-0.509834	1.026905
C85	C	0.858673	-0.448991	0.523384
C86	C	0.966013	-0.449403	0.522763
H87	H	0.825673	-0.485989	0.471324
H88	H	0.846512	-0.388297	0.510739
H89	H	0.831036	-0.472422	0.588507
H90	H	0.993652	-0.425965	0.457642
H91	H	0.978182	-0.510109	0.535401
