data_functionalizedCrystal
_audit_creation_method	'MofGen! by Chris Wilmer'
_symmetry_space_group_name_H-M	'P1'
_symmetry_Int_Tables_number	1
_symmetry_cell_setting	triclinic
loop_
_symmetry_equiv_pos_as_xyz
  x,y,z
_cell_length_a	11.792241
_cell_length_b	22.010155
_cell_length_c	11.792241
_cell_angle_alpha	90.004567
_cell_angle_beta	84.193416
_cell_angle_gamma	90.011508
loop_
_atom_site_label
_atom_site_type_symbol
_atom_site_fract_x
_atom_site_fract_y
_atom_site_fract_z
O1	O	1.506927	0.050466	0.155565
O2	O	2.006927	0.550466	0.655565
O3	O	1.176586	0.050481	0.171598
O4	O	1.676586	0.550481	0.671598
O5	O	1.349773	0.050469	-0.001589
O6	O	1.849773	0.550469	0.498411
O7	O	1.333740	0.050478	0.328752
O8	O	1.833740	0.550478	0.828752
O9	O	1.349721	-0.050581	-0.001589
O10	O	1.849721	0.449419	0.498411
O11	O	1.176534	-0.050570	0.171598
O12	O	1.676534	0.449430	0.671598
O13	O	1.506875	-0.050584	0.155565
O14	O	2.006875	0.449416	0.655565
Cu15	Cu	1.341700	-0.059804	0.163581
Cu16	Cu	1.841700	0.440196	0.663581
Cu17	Cu	1.341762	0.059700	0.163582
Cu18	Cu	1.841762	0.559700	0.663582
O19	O	1.333688	-0.050572	0.328752
O20	O	1.833688	0.449428	0.828752
C21	C	1.134269	-0.000043	0.170591
C22	C	1.634269	0.499957	0.670591
C23	C	1.008255	-0.000038	0.167576
C24	C	1.508255	0.499962	0.667576
N25	N	1.341664	-0.143856	0.163580
N26	N	1.841664	0.356144	0.663580
C27	C	0.777543	-0.000055	0.162034
C28	C	1.277543	0.499945	0.662034
C29	C	0.905928	-0.000045	0.165113
C30	C	1.405928	0.499955	0.665113
C31	C	1.411023	-0.563637	0.232873
C32	C	1.911023	-0.063637	0.732873
C33	C	1.411037	-0.627244	0.232870
C34	C	1.911037	-0.127244	0.732870
O35	O	1.469968	-0.660137	0.291778
O36	O	1.969968	-0.160137	0.791778
N37	N	1.341784	-0.659063	0.163569
N38	N	1.841784	-0.159063	0.663569
C39	C	1.272522	-0.627271	0.094257
C40	C	1.772522	-0.127271	0.594257
O41	O	1.213619	-0.660176	0.035310
O42	O	1.713619	-0.160176	0.535310
C43	C	1.272515	-0.563665	0.094255
C44	C	1.772515	-0.063665	0.594255
C45	C	1.341764	-0.531849	0.163569
C46	C	1.841764	-0.031849	0.663569
C47	C	1.480268	-0.531821	0.302181
C48	C	1.980268	-0.031821	0.802181
C49	C	1.480252	-0.468218	0.302185
C50	C	1.980252	0.031782	0.802185
C51	C	1.410993	-0.436430	0.232881
C52	C	1.910993	0.063570	0.732881
C53	C	1.341749	-0.468246	0.163573
C54	C	1.841749	0.031754	0.663573
C55	C	1.203260	-0.531874	0.024938
C56	C	1.703260	-0.031874	0.524938
C57	C	1.203260	-0.468263	0.024941
C58	C	1.703260	0.031737	0.524941
C59	C	1.272509	-0.436448	0.094255
C60	C	1.772509	0.063552	0.594255
C61	C	1.272474	-0.372855	0.094274
C62	C	1.772474	0.127145	0.594274
N63	N	1.341727	-0.341036	0.163575
N64	N	1.841727	0.158964	0.663575
C65	C	1.410986	-0.372824	0.232878
C66	C	1.910986	0.127176	0.732878
C67	C	1.272542	-0.760849	0.094267
C68	C	1.772542	-0.260849	0.594267
C69	C	1.272542	-0.824454	0.094274
C70	C	1.772542	-0.324454	0.594274
C71	C	1.411059	-0.824423	0.232886
C72	C	1.911059	-0.324423	0.732886
C73	C	1.411052	-0.760816	0.232883
C74	C	1.911052	-0.260816	0.732883
C75	C	1.341795	-0.729030	0.163568
C76	C	1.841795	-0.229030	0.663568
C77	C	1.410949	-0.239252	0.232882
C78	C	1.910949	0.260748	0.732882
C79	C	1.410924	-0.175644	0.232884
C80	C	1.910924	0.324356	0.732884
C81	C	1.272412	-0.175680	0.094268
C82	C	1.772412	0.324320	0.594268
C83	C	1.272432	-0.239284	0.094271
C84	C	1.772432	0.260716	0.594271
C85	C	1.341709	-0.271068	0.163581
C86	C	1.841709	0.228932	0.663581
O87	O	1.213577	-0.339922	0.035393
O88	O	1.713577	0.160078	0.535393
O89	O	1.469891	-0.339911	0.291805
O90	O	1.969891	0.160089	0.791805
C91	C	1.549192	-0.000059	0.156572
C92	C	2.049192	0.499941	0.656572
C93	C	1.675206	-0.000061	0.159587
C94	C	2.175206	0.499939	0.659587
C95	C	1.348740	-0.000056	-0.043880
C96	C	1.848740	0.499944	0.456120
C97	C	1.345726	-0.000055	-0.169894
C98	C	1.845726	0.499945	0.330106
N99	N	1.341806	0.143753	0.163574
N100	N	1.841806	0.643753	0.663574
C101	C	1.340183	-0.000045	-0.400606
C102	C	1.840183	0.499955	0.099394
C103	C	1.343262	-0.000051	-0.272221
C104	C	1.843262	0.499949	0.227779
C105	C	1.334721	-0.000046	0.371043
C106	C	1.834721	0.499954	0.871043
C107	C	1.337736	-0.000043	0.497057
C108	C	1.837736	0.499957	0.997057
H109	H	1.467314	-0.149742	0.289333
H110	H	1.967314	0.350258	0.789333
H111	H	1.467452	-0.850316	0.289318
H112	H	1.967452	-0.350316	0.789318
H113	H	1.216029	-0.265189	0.037844
H114	H	1.716029	0.234811	0.537844
H115	H	1.467361	-0.265124	0.289321
H116	H	1.967361	0.234876	0.789321
H117	H	1.216139	-0.850353	0.037845
H118	H	1.716139	-0.350353	0.537845
H119	H	1.216019	-0.149788	0.037846
H120	H	1.716019	0.350212	0.537846
O121	O	1.135872	-0.437481	-0.042423
O122	O	1.635872	0.062519	0.457577
C123	C	0.998545	-0.444231	-0.179966
C124	C	1.498545	0.055769	0.320034
C125	C	1.074787	-0.479165	-0.103717
C126	C	1.574787	0.020835	0.396283
H127	H	0.949156	-0.477917	-0.229560
H128	H	1.449156	0.022083	0.270440
H129	H	0.936116	-0.414478	-0.124620
H130	H	1.436116	0.085522	0.375380
H131	H	1.053993	-0.414428	-0.242229
H132	H	1.553993	0.085572	0.257771
H133	H	1.019431	-0.509001	-0.041443
H134	H	1.519431	-0.009001	0.458557
H135	H	1.137223	-0.508880	-0.159135
H136	H	1.637223	-0.008880	0.340865
H137	H	1.146871	-0.557767	-0.031507
H138	H	1.646871	-0.057767	0.468493
O139	O	1.547638	-0.437411	0.369537
O140	O	2.047638	0.062589	0.869537
C141	C	1.684989	-0.444117	0.507057
C142	C	2.184989	0.055883	1.007057
C143	C	1.608741	-0.479075	0.430817
C144	C	2.108741	0.020925	0.930817
H145	H	1.734393	-0.477787	0.556639
H146	H	2.234393	0.022213	1.056639
H147	H	1.747406	-0.414350	0.451705
H148	H	2.247406	0.085650	0.951705
H149	H	1.629545	-0.414325	0.569330
H150	H	2.129545	0.085675	1.069330
H151	H	1.664093	-0.508900	0.368532
H152	H	2.164093	-0.008900	0.868532
H153	H	1.546317	-0.508803	0.486239
H154	H	2.046317	-0.008803	0.986239
O155	O	1.205074	-0.730004	0.027072
O156	O	1.705074	-0.230004	0.527072
C157	C	1.013776	-0.710623	-0.018573
C158	C	1.513776	-0.210623	0.481427
C159	C	1.090048	-0.745576	0.057619
C160	C	1.590048	-0.245576	0.557619
H161	H	0.920765	-0.723211	0.006080
H162	H	1.420765	-0.223211	0.506080
H163	H	1.025550	-0.659688	-0.006675
H164	H	1.525550	-0.159688	0.493325
H165	H	1.038568	-0.723128	-0.111597
H166	H	1.538568	-0.223128	0.388403
H167	H	1.065305	-0.733122	0.150671
H168	H	1.565305	-0.233122	0.650671
H169	H	1.078265	-0.796504	0.045623
H170	H	1.578265	-0.296504	0.545623
O171	O	1.547681	-0.562720	0.369341
O172	O	2.047681	-0.062720	0.869341
C173	C	1.700947	-0.634525	0.376976
C174	C	2.200947	-0.134525	0.876976
C175	C	1.624700	-0.599567	0.300768
C176	C	2.124700	-0.099567	0.800768
H177	H	1.763219	-0.664334	0.321568
H178	H	2.263219	-0.164334	0.821568
H179	H	1.750513	-0.600876	0.426477
H180	H	2.250513	-0.100876	0.926477
H181	H	1.645491	-0.664279	0.439320
H182	H	2.145491	-0.164279	0.939320
H183	H	1.680071	-0.569812	0.238360
H184	H	2.180071	-0.069812	0.738360
H185	H	1.575126	-0.633249	0.251347
H186	H	2.075126	-0.133249	0.751347
H187	H	1.467440	-0.734916	0.289326
H188	H	1.967440	-0.234916	0.789326
