data_functionalizedCrystal
_audit_creation_method	'MofGen! by Chris Wilmer'
_symmetry_space_group_name_H-M	'P1'
_symmetry_Int_Tables_number	1
_symmetry_cell_setting	triclinic
loop_
_symmetry_equiv_pos_as_xyz
  x,y,z
_cell_length_a	15.944551
_cell_length_b	17.038272
_cell_length_c	15.021413
_cell_angle_alpha	90.004029
_cell_angle_beta	89.997174
_cell_angle_gamma	87.305147
loop_
_atom_site_label
_atom_site_type_symbol
_atom_site_fract_x
_atom_site_fract_y
_atom_site_fract_z
O1	O	1.121728	0.100827	-0.073940
O2	O	1.455061	0.434161	0.259394
O3	O	1.788394	0.767494	0.592727
O4	O	0.878066	0.113259	-0.073962
O5	O	1.211399	0.446593	0.259372
O6	O	1.544732	0.779926	0.592705
O7	O	0.998449	-0.006773	-0.073944
O8	O	1.331782	0.326561	0.259390
O9	O	1.665115	0.659894	0.592723
O10	O	1.001345	0.220859	-0.073958
O11	O	1.334678	0.554192	0.259376
O12	O	1.668012	0.887526	0.592709
O13	O	0.998429	-0.006755	0.074120
O14	O	1.331763	0.326578	0.407454
O15	O	1.665096	0.659911	0.740787
O16	O	0.878046	0.113277	0.074102
O17	O	1.211380	0.446610	0.407436
O18	O	1.544713	0.779943	0.740769
O19	O	1.121708	0.100844	0.074125
O20	O	1.455042	0.434178	0.407458
O21	O	1.788375	0.767511	0.740791
Zn22	Zn	0.999874	0.107063	0.097622
Zn23	Zn	1.333208	0.440396	0.430955
Zn24	Zn	1.666541	0.773730	0.764289
Zn25	Zn	0.999900	0.107041	-0.097459
Zn26	Zn	1.333233	0.440374	0.235874
Zn27	Zn	1.666566	0.773707	0.569208
O28	O	1.001326	0.220876	0.074107
O29	O	1.334659	0.554210	0.407440
O30	O	1.667992	0.887543	0.740773
C31	C	0.846725	0.112752	0.000067
C32	C	1.180059	0.446085	0.333401
C33	C	1.513392	0.779419	0.666734
C34	C	0.753369	0.111205	0.000059
C35	C	1.086702	0.444538	0.333393
C36	C	1.420035	0.777871	0.666726
C37	C	0.532936	0.033105	0.000081
C38	C	0.866269	0.366438	0.333415
C39	C	1.199602	0.699771	0.666748
C40	C	0.474515	0.069363	-0.072924
C41	C	0.807848	0.402697	0.260409
C42	C	1.141181	0.736030	0.593742
C43	C	0.582443	0.108405	0.000070
C44	C	0.915776	0.441739	0.333403
C45	C	1.249110	0.775072	0.666737
C46	C	0.474519	0.069398	0.073055
C47	C	0.807852	0.402731	0.406389
C48	C	1.141186	0.736065	0.739722
C49	C	0.417337	0.105696	0.000084
C50	C	0.750670	0.439029	0.333417
C51	C	1.084004	0.772363	0.666751
C52	C	0.525252	0.144684	-0.072996
C53	C	0.858585	0.478018	0.260337
C54	C	1.191918	0.811351	0.593671
C55	C	0.525262	0.144709	0.073049
C56	C	0.858595	0.478042	0.406383
C57	C	1.191928	0.811375	0.739716
C58	C	0.466862	0.181022	0.000026
C59	C	0.800195	0.514355	0.333359
C60	C	1.133529	0.847689	0.666692
C61	C	0.677557	0.109964	0.000061
C62	C	1.010890	0.443297	0.333394
C63	C	1.344223	0.776631	0.666728
C64	C	0.322225	0.104143	0.000087
C65	C	0.655558	0.437476	0.333420
C66	C	0.988892	0.770810	0.666753
C67	C	0.995805	-0.035893	0.000088
C68	C	1.329138	0.297440	0.333421
C69	C	1.662471	0.630774	0.666755
C70	C	0.987945	-0.122688	0.000087
C71	C	1.321279	0.210645	0.333420
C72	C	1.654612	0.543978	0.666754
C73	C	1.060103	-0.172781	0.000094
C74	C	1.393436	0.160552	0.333428
C75	C	1.726770	0.493886	0.666761
C76	C	1.052713	-0.254334	0.000085
C77	C	1.386047	0.079000	0.333419
C78	C	1.719380	0.412333	0.666752
C79	C	0.973165	-0.285792	0.000075
C80	C	1.306499	0.047541	0.333408
C81	C	1.639832	0.380875	0.666742
C82	C	0.901002	-0.235693	0.000065
C83	C	1.234336	0.097640	0.333398
C84	C	1.567669	0.430974	0.666732
C85	C	0.908393	-0.154142	0.000068
C86	C	1.241726	0.179192	0.333401
C87	C	1.575059	0.512525	0.666734
C88	C	0.947056	-0.531558	0.000061
C89	C	1.280390	-0.198224	0.333394
C90	C	1.613723	0.135109	0.666727
C91	C	0.939671	-0.613115	0.000060
C92	C	1.273005	-0.279782	0.333394
C93	C	1.606338	0.053551	0.666727
C94	C	1.091383	-0.631751	0.000079
C95	C	1.424716	-0.298417	0.333413
C96	C	1.758050	0.034916	0.666746
C97	C	1.098766	-0.550197	0.000087
C98	C	1.432100	-0.216864	0.333421
C99	C	1.765433	0.116470	0.666754
C100	C	1.026603	-0.500105	0.000072
C101	C	1.359937	-0.166772	0.333406
C102	C	1.693270	0.166562	0.666739
C103	C	0.965610	-0.369152	0.000069
C104	C	1.298943	-0.035819	0.333402
C105	C	1.632277	0.297515	0.666735
C106	C	1.034159	-0.416747	0.000073
C107	C	1.367493	-0.083413	0.333406
C108	C	1.700826	0.249920	0.666739
C109	C	1.153049	0.101352	0.000093
C110	C	1.486382	0.434685	0.333427
C111	C	1.819716	0.768019	0.666760
C112	C	1.246405	0.102899	0.000096
C113	C	1.579739	0.436232	0.333429
C114	C	1.913072	0.769566	0.666762
C115	C	1.003969	0.249997	0.000073
C116	C	1.337303	0.583330	0.333406
C117	C	1.670636	0.916663	0.666740
C118	C	1.011829	0.336792	0.000068
C119	C	1.345162	0.670125	0.333401
C120	C	1.678495	1.003459	0.666735
N121	N	0.999863	0.107078	0.230759
N122	N	1.333196	0.440411	0.564093
N123	N	1.666530	0.773745	0.897426
N124	N	0.999917	0.107019	-0.230597
N125	N	1.333251	0.440353	0.102737
N126	N	1.666584	0.773686	0.436070
C127	C	0.944187	0.162555	0.470434
C128	C	1.277520	0.495888	0.803768
C129	C	1.610854	0.829221	1.137101
C130	C	1.021171	0.177734	0.529775
C131	C	1.354505	0.511067	0.863108
C132	C	1.687838	0.844400	1.196441
C133	C	0.999883	0.107059	0.412366
C134	C	1.333217	0.440392	0.745700
C135	C	1.666550	0.773725	1.079033
C136	C	0.922921	0.091897	0.529768
C137	C	1.256254	0.425230	0.863101
C138	C	1.589588	0.758564	1.196434
C139	C	0.999896	0.107041	0.587790
C140	C	1.333229	0.440375	0.921124
C141	C	1.666563	0.773708	1.254457
C142	C	1.076908	0.122273	0.470400
C143	C	1.410241	0.455606	0.803734
C144	C	1.743575	0.788939	1.137067
C145	C	0.978606	0.036405	0.470388
C146	C	1.311939	0.369739	0.803721
C147	C	1.645272	0.703072	1.137055
C148	C	1.055643	0.051554	0.529702
C149	C	1.388976	0.384888	0.863035
C150	C	1.722309	0.718221	1.196368
C151	C	0.999875	0.107070	0.311309
C152	C	1.333208	0.440404	0.644642
C153	C	1.666541	0.773737	0.977976
C154	C	0.999913	0.107029	0.688846
C155	C	1.333246	0.440362	1.022179
C156	C	1.666580	0.773696	1.355512
H157	H	0.452150	0.037542	0.134774
H158	H	0.785483	0.370875	0.468107
H159	H	1.118817	0.704209	0.801440
F160	F	1.168178	-0.685067	0.000094
F161	F	1.501512	-0.351734	0.333427
F162	F	1.834845	-0.018400	0.666760
F163	F	1.044710	0.255820	0.563871
F164	F	1.378044	0.589153	0.897204
F165	F	1.711377	0.922487	1.230538
F166	F	1.144769	-0.139309	0.000114
F167	F	1.478103	0.194025	0.333447
F168	F	1.811436	0.527358	0.666781
F169	F	0.855002	-0.646593	0.000054
F170	F	1.188335	-0.313260	0.333387
F171	F	1.521668	0.020074	0.666721
F172	F	0.570638	-0.048591	-0.000006
F173	F	0.903972	0.284743	0.333328
F174	F	1.237305	0.618076	0.666661
H175	H	1.111472	-0.295117	0.000093
H176	H	1.444805	0.038217	0.333427
H177	H	1.778139	0.371550	0.666760
F178	F	1.183432	-0.516723	0.000076
F179	F	1.516765	-0.183390	0.333409
F180	F	1.850099	0.149943	0.666742
F181	F	0.882694	0.223945	0.436416
F182	F	1.216027	0.557278	0.769750
F183	F	1.549361	0.890611	1.103083
H184	H	0.888296	-0.490782	0.000049
H185	H	1.221629	-0.157449	0.333382
H186	H	1.554962	0.175885	0.666715
H187	H	0.836233	-0.261313	0.000051
H188	H	1.169566	0.072021	0.333384
H189	H	1.502899	0.405354	0.666718
H190	H	0.849634	-0.113356	0.000061
H191	H	1.182968	0.219977	0.333395
H192	H	1.516301	0.553310	0.666728
F193	F	1.162014	0.139115	0.436462
F194	F	1.495347	0.472448	0.769795
F195	F	1.828680	0.805782	1.103128
H196	H	1.098927	-0.391130	0.000061
H197	H	1.432260	-0.057797	0.333395
H198	H	1.765594	0.275537	0.666728
H199	H	0.960575	-0.023318	0.444282
H200	H	1.293909	0.310016	0.777616
H201	H	1.627242	0.643349	1.110949
H202	H	0.900842	-0.394774	0.000062
H203	H	1.234175	-0.061441	0.333396
H204	H	1.567508	0.271892	0.666729
F205	F	1.117283	-0.009801	0.563507
F206	F	1.450616	0.323532	0.896840
F207	F	1.783950	0.656866	1.230174
H208	H	0.452139	0.037507	-0.134642
H209	H	0.785472	0.370840	0.198691
H210	H	1.118805	0.704174	0.532025
F211	F	0.554354	0.186273	-0.153758
F212	F	0.887687	0.519606	0.179575
F213	F	1.221021	0.852940	0.512908
H214	H	0.547657	0.176539	0.134769
H215	H	0.880990	0.509872	0.468103
H216	H	1.214324	0.843205	0.801436
F217	F	0.429356	0.262788	-0.000030
F218	F	0.762690	0.596121	0.333303
F219	F	1.096023	0.929455	0.666636
F220	F	0.837843	0.075144	0.563855
F221	F	1.171176	0.408477	0.897189
F222	F	1.504510	0.741811	1.230522
