data_functionalizedCrystal
_audit_creation_method	'MofGen! by Chris Wilmer'
_symmetry_space_group_name_H-M	'P1'
_symmetry_Int_Tables_number	1
_symmetry_cell_setting	triclinic
loop_
_symmetry_equiv_pos_as_xyz
  x,y,z
_cell_length_a	29.839135
_cell_length_b	18.215405
_cell_length_c	29.839111
_cell_angle_alpha	90.118719
_cell_angle_beta	90.064854
_cell_angle_gamma	90.026712
loop_
_atom_site_label
_atom_site_type_symbol
_atom_site_fract_x
_atom_site_fract_y
_atom_site_fract_z
Zn1	Zn	-0.686989	0.292315	-0.254052
Zn2	Zn	-0.186989	0.792315	0.245948
Zn3	Zn	-0.686879	0.415576	-0.178922
Zn4	Zn	-0.186879	0.915576	0.321078
Zn5	Zn	-0.611808	0.292532	-0.178930
Zn6	Zn	-0.111808	0.792532	0.321070
Zn7	Zn	-0.611841	0.415349	-0.254019
Zn8	Zn	-0.111841	0.915349	0.245981
O9	O	-0.649379	0.353943	-0.216481
O10	O	-0.149379	0.853943	0.283519
O11	O	-0.749842	0.308671	-0.244097
O12	O	-0.249842	0.808671	0.255903
O13	O	-0.676860	0.399440	-0.116056
O14	O	-0.176860	0.899440	0.383944
O15	O	-0.621813	0.189519	-0.188912
O16	O	-0.121813	0.689519	0.311088
O17	O	-0.749760	0.399230	-0.188899
O18	O	-0.249760	0.899230	0.311101
O19	O	-0.677048	0.189360	-0.244104
O20	O	-0.177048	0.689360	0.255896
O21	O	-0.621705	0.309040	-0.116061
O22	O	-0.121705	0.809040	0.383939
O23	O	-0.548945	0.308819	-0.188880
O24	O	-0.048945	0.808819	0.311120
O25	O	-0.621870	0.398842	-0.316891
O26	O	-0.121870	0.898842	0.183109
O27	O	-0.548970	0.399052	-0.244048
O28	O	-0.048970	0.899052	0.255952
O29	O	-0.677081	0.308450	-0.316915
O30	O	-0.177081	0.808450	0.183085
O31	O	-0.676893	0.518530	-0.188867
O32	O	-0.176893	1.018530	0.311133
O33	O	-0.621763	0.518363	-0.244041
O34	O	-0.121763	1.018363	0.255959
C35	C	-0.532657	0.353935	-0.216461
C36	C	-0.032657	0.853935	0.283539
C37	C	-0.482722	0.353949	-0.216463
C38	C	0.017278	0.853949	0.283537
C39	C	-0.173118	0.306851	-0.245262
C40	C	0.326882	0.806851	0.254738
C41	C	0.014555	0.306852	-0.245274
C42	C	0.514555	0.806852	0.254726
O43	O	0.038786	0.266795	-0.269740
O44	O	0.538786	0.766795	0.230260
N45	N	0.038063	0.353930	-0.216494
N46	N	0.538063	0.853930	0.283506
C47	C	0.014650	0.401008	-0.187707
C48	C	0.514650	0.901008	0.312293
O49	O	0.038951	0.441045	-0.163225
O50	O	0.538951	0.941045	0.336775
C51	C	-0.173022	0.401002	-0.187693
C52	C	0.326978	0.901002	0.312307
C53	C	-0.196528	0.353926	-0.216478
C54	C	0.303472	0.853926	0.283522
C55	C	-0.196624	0.259778	-0.274045
C56	C	0.303376	0.759778	0.225955
C57	C	-0.243539	0.259781	-0.274043
C58	C	0.256461	0.759781	0.225957
C59	C	-0.266949	0.306857	-0.245259
C60	C	0.233051	0.806857	0.254741
C61	C	-0.243443	0.353929	-0.216477
C62	C	0.256557	0.853929	0.283523
C63	C	-0.196435	0.448076	-0.158904
C64	C	0.303565	0.948076	0.341096
C65	C	-0.243356	0.448069	-0.158902
C66	C	0.256644	0.948069	0.341098
C67	C	-0.266861	0.400993	-0.187687
C68	C	0.233139	0.900993	0.312313
C69	C	-0.313769	0.401008	-0.187691
C70	C	0.186231	0.901008	0.312309
N71	N	-0.337277	0.353930	-0.216471
N72	N	0.162723	0.853930	0.283529
C73	C	-0.313867	0.306854	-0.245255
C74	C	0.186133	0.806854	0.254745
C75	C	0.113180	0.401008	-0.187717
C76	C	0.613180	0.901008	0.312283
C77	C	0.160098	0.401011	-0.187721
C78	C	0.660098	0.901011	0.312279
C79	C	0.160000	0.306854	-0.245288
C80	C	0.660000	0.806854	0.254712
C81	C	0.113081	0.306855	-0.245286
C82	C	0.613081	0.806855	0.254714
C83	C	0.089672	0.353930	-0.216497
C84	C	0.589672	0.853930	0.283503
C85	C	-0.412393	0.306864	-0.245250
C86	C	0.087607	0.806864	0.254750
C87	C	-0.459312	0.306874	-0.245247
C88	C	0.040688	0.806874	0.254753
C89	C	-0.459210	0.401028	-0.187679
C90	C	0.040790	0.901028	0.312321
C91	C	-0.412295	0.401021	-0.187683
C92	C	0.087705	0.901021	0.312317
C93	C	-0.388887	0.353934	-0.216470
C94	C	0.111113	0.853934	0.283530
O95	O	-0.338029	0.441038	-0.163235
O96	O	0.161971	0.941038	0.336765
O97	O	-0.338176	0.266811	-0.269727
O98	O	0.161824	0.766811	0.230273
C99	C	-0.126203	0.306848	-0.245264
C100	C	0.373797	0.806848	0.254736
C101	C	-0.102697	0.353920	-0.216481
C102	C	0.397303	0.853920	0.283519
C103	C	-0.126107	0.400996	-0.187697
C104	C	0.373893	0.900996	0.312303
C105	C	-0.055779	0.353923	-0.216485
C106	C	0.444221	0.853923	0.283515
C107	C	-0.032369	0.306847	-0.245269
C108	C	0.467631	0.806847	0.254731
C109	C	-0.055877	0.259769	-0.274050
C110	C	0.444123	0.759769	0.225950
C111	C	-0.102793	0.259772	-0.274048
C112	C	0.397207	0.759772	0.225952
C113	C	-0.102599	0.448074	-0.158917
C114	C	0.397401	0.948074	0.341083
C115	C	-0.055683	0.448068	-0.158921
C116	C	0.444317	0.948068	0.341079
C117	C	-0.032274	0.400992	-0.187706
C118	C	0.467726	0.900992	0.312294
C119	C	-0.649332	0.545149	-0.216459
C120	C	-0.149332	1.045149	0.283541
C121	C	-0.649353	0.626948	-0.216465
C122	C	-0.149353	1.126948	0.283535
C123	C	-0.649492	0.353597	-0.333660
C124	C	-0.149492	0.853597	0.166340
C125	C	-0.649540	0.353449	-0.383594
C126	C	-0.149540	0.853449	0.116406
C127	C	0.233442	0.353946	-0.216500
C128	C	0.733442	0.853946	0.283500
C129	C	0.183508	0.353935	-0.216505
C130	C	0.683508	0.853935	0.283495
C131	C	-0.649439	0.161990	-0.216512
C132	C	-0.149439	0.661990	0.283488
C133	C	-0.649465	0.080191	-0.216526
C134	C	-0.149465	0.580191	0.283474
C135	C	-0.678126	0.815205	-0.187789
C136	C	-0.178126	1.315205	0.312211
C137	C	-0.678146	0.892063	-0.187800
C138	C	-0.178146	1.392063	0.312200
C139	C	-0.620690	0.891929	-0.245205
C140	C	-0.120690	1.391929	0.254795
C141	C	-0.620672	0.815072	-0.245196
C142	C	-0.120672	1.315072	0.254804
C143	C	-0.649390	0.776712	-0.216486
C144	C	-0.149390	1.276712	0.283514
C145	C	-0.649427	0.930428	-0.216505
C146	C	-0.149427	1.430428	0.283495
C147	C	-0.649449	1.013761	-0.216517
C148	C	-0.149449	1.513761	0.283483
C149	C	-0.649369	0.693373	-0.216474
C150	C	-0.149369	1.193373	0.283526
C151	C	-0.649293	0.354235	-0.099758
C152	C	-0.149293	0.854235	0.400242
C153	C	-0.649332	0.354175	-0.049824
C154	C	-0.149332	0.854175	0.450176
C155	C	-0.677977	0.306370	0.306634
C156	C	-0.177977	0.806370	0.806634
C157	C	-0.677919	0.306579	0.118961
C158	C	-0.177919	0.806579	0.618961
O159	O	-0.702166	0.266273	0.094586
O160	O	-0.202166	0.766273	0.594586
N161	N	-0.649376	0.354008	0.095621
N162	N	-0.149376	0.854008	0.595621
C163	C	-0.620843	0.401385	0.119203
C164	C	-0.120843	0.901385	0.619203
O165	O	-0.596561	0.441726	0.095045
O166	O	-0.096561	0.941726	0.595045
C167	C	-0.620899	0.401171	0.306875
C168	C	-0.120899	0.901171	0.806875
C169	C	-0.649448	0.353744	0.330212
C170	C	-0.149448	0.853744	0.830212
C171	C	-0.706523	0.258946	0.329971
C172	C	-0.206523	0.758946	0.829971
C173	C	-0.706539	0.258897	0.376886
C174	C	-0.206539	0.758897	0.876886
C175	C	-0.678009	0.306271	0.400464
C176	C	-0.178009	0.806271	0.900464
C177	C	-0.649464	0.353695	0.377127
C178	C	-0.149464	0.853695	0.877127
C179	C	-0.592365	0.448543	0.330456
C180	C	-0.092365	0.948543	0.830456
C181	C	-0.592381	0.448484	0.377377
C182	C	-0.092381	0.948484	0.877377
C183	C	-0.620929	0.401057	0.400714
C184	C	-0.120929	0.901057	0.900714
C185	C	-0.620950	0.401020	0.447621
C186	C	-0.120950	0.901020	0.947621
N187	N	-0.649493	0.353591	0.470960
N188	N	-0.149493	0.853591	0.970960
C189	C	-0.678023	0.306217	0.447382
C190	C	-0.178023	0.806217	0.947382
C191	C	-0.620816	0.401495	0.020672
C192	C	-0.120816	0.901495	0.520672
C193	C	-0.620802	0.401549	-0.026245
C194	C	-0.120802	0.901549	0.473755
C195	C	-0.677878	0.306743	-0.026484
C196	C	-0.177878	0.806743	0.473516
C197	C	-0.677893	0.306692	0.020434
C198	C	-0.177893	0.806692	0.520434
C199	C	-0.649359	0.354066	0.044012
C200	C	-0.149359	0.854066	0.544012
C201	C	-0.678055	0.306118	0.545908
C202	C	-0.178055	0.806118	1.045908
C203	C	-0.678069	0.306075	0.592827
C204	C	-0.178069	0.806075	1.092827
C205	C	-0.620993	0.400878	0.593062
C206	C	-0.120993	0.900878	1.093062
C207	C	-0.620979	0.400924	0.546147
C208	C	-0.120979	0.900924	1.046147
C209	C	-0.649512	0.353538	0.522571
C210	C	-0.149512	0.853538	1.022571
O211	O	-0.596712	0.441299	0.472025
O212	O	-0.096712	0.941299	0.972025
O213	O	-0.702294	0.265871	0.471548
O214	O	-0.202294	0.765871	0.971548
C215	C	-0.677961	0.306419	0.259718
C216	C	-0.177961	0.806419	0.759718
C217	C	-0.649415	0.353842	0.236381
C218	C	-0.149415	0.853842	0.736381
C219	C	-0.620886	0.401217	0.259959
C220	C	-0.120886	0.901217	0.759959
C221	C	-0.649402	0.353897	0.189463
C222	C	-0.149402	0.853897	0.689463
C223	C	-0.677931	0.306522	0.165885
C224	C	-0.177931	0.806522	0.665885
C225	C	-0.706474	0.259093	0.189224
C226	C	-0.206474	0.759093	0.689224
C227	C	-0.706490	0.259044	0.236140
C228	C	-0.206490	0.759044	0.736140
C229	C	-0.592343	0.448646	0.236620
C230	C	-0.092343	0.948646	0.736620
C231	C	-0.592329	0.448692	0.189705
C232	C	-0.092329	0.948692	0.689705
C233	C	-0.620859	0.401317	0.166126
C234	C	-0.120859	0.901317	0.666126
H235	H	-0.177568	0.221439	-0.297485
H236	H	0.322432	0.721439	0.202515
H237	H	-0.569083	0.487319	0.170708
H238	H	-0.069083	0.987319	0.670708
H239	H	-0.597309	0.923172	-0.268579
H240	H	-0.097309	1.423172	0.231421
H241	H	-0.478449	0.268538	-0.268689
H242	H	0.021551	0.768538	0.231311
H243	H	-0.597580	0.440077	0.039865
H244	H	-0.097580	0.940077	0.539865
H245	H	-0.597737	0.439550	0.527145
H246	H	-0.097737	0.939550	1.027145
H247	H	-0.597272	0.783729	-0.268566
H248	H	-0.097272	1.283729	0.231434
Cl249	Cl	-0.714229	0.766983	-0.151697
Cl250	Cl	-0.214229	1.266983	0.348303
H251	H	-0.393340	0.268519	-0.268690
H252	H	0.106660	0.768519	0.231310
H253	H	-0.729706	0.220522	0.170019
H254	H	-0.229706	0.720522	0.670019
H255	H	-0.393155	0.439363	-0.164249
H256	H	0.106845	0.939363	0.335751
Cl257	Cl	-0.742381	0.199417	0.265471
Cl258	Cl	-0.242381	0.699417	0.765471
Cl259	Cl	-0.272781	0.507254	-0.122709
Cl260	Cl	0.227219	1.007254	0.377291
H261	H	0.094125	0.439345	-0.164272
H262	H	0.594125	0.939345	0.335728
H263	H	-0.597766	0.439452	0.612268
H264	H	-0.097766	0.939452	1.112268
Cl265	Cl	-0.714274	0.940451	-0.151724
Cl266	Cl	-0.214274	1.440451	0.348276
Cl267	Cl	-0.166896	0.507246	-0.122705
Cl268	Cl	0.333104	1.007246	0.377295
Cl269	Cl	-0.273082	0.200593	-0.310231
Cl270	Cl	0.226918	0.700593	0.189769
H271	H	-0.121927	0.221437	-0.297488
H272	H	0.378073	0.721437	0.202512
H273	H	-0.478279	0.439357	-0.164245
H274	H	0.021721	0.939357	0.335755
Cl275	Cl	-0.742427	0.199266	0.406217
Cl276	Cl	-0.242427	0.699266	0.906217
H277	H	-0.701318	0.267454	0.611826
H278	H	-0.201318	0.767454	1.111826
Cl279	Cl	-0.556473	0.508208	0.266254
Cl280	Cl	-0.056473	1.008208	0.766254
H281	H	0.179068	0.268523	-0.268725
H282	H	0.679068	0.768523	0.231275
Cl283	Cl	0.083536	0.247670	-0.281473
Cl284	Cl	0.583536	0.747670	0.218527
H285	H	-0.701287	0.267529	0.526718
H286	H	-0.201287	0.767529	1.026718
Cl287	Cl	-0.026439	0.200591	-0.310236
Cl288	Cl	0.473561	0.700591	0.189764
H289	H	-0.729755	0.220364	0.310778
H290	H	-0.229755	0.720364	0.810778
H291	H	-0.569118	0.487163	0.311463
H292	H	-0.069118	0.987163	0.811463
H293	H	-0.701139	0.268072	0.039432
H294	H	-0.201139	0.768072	0.539432
H295	H	0.179233	0.439353	-0.164286
H296	H	0.679233	0.939353	0.335714
Cl297	Cl	-0.713742	0.247185	-0.056134
Cl298	Cl	-0.213742	0.747185	0.443866
H299	H	-0.036549	0.486410	-0.135482
H300	H	0.463451	0.986410	0.364518
Cl301	Cl	-0.584919	0.461186	-0.055578
Cl302	Cl	-0.084919	0.961186	0.444422
Cl303	Cl	-0.556506	0.508043	0.407014
Cl304	Cl	-0.056506	1.008043	0.907014
Cl305	Cl	-0.132021	0.507254	-0.122723
Cl306	Cl	0.367979	1.007254	0.377277
