data_functionalizedCrystal
_audit_creation_method	'MofGen! by Chris Wilmer'
_symmetry_space_group_name_H-M	'P1'
_symmetry_Int_Tables_number	1
_symmetry_cell_setting	triclinic
loop_
_symmetry_equiv_pos_as_xyz
  x,y,z
_cell_length_a	27.732064
_cell_length_b	27.732048
_cell_length_c	12.376457
_cell_angle_alpha	101.176348
_cell_angle_beta	78.808732
_cell_angle_gamma	82.646040
loop_
_atom_site_label
_atom_site_type_symbol
_atom_site_fract_x
_atom_site_fract_y
_atom_site_fract_z
O1	O	0.650242	0.048240	-0.093810
O2	O	0.509454	0.056973	-0.093859
O3	O	0.584219	-0.017788	-0.093812
O4	O	0.575478	0.123001	-0.093858
O5	O	0.565534	0.000877	0.094189
O6	O	0.490770	0.075638	0.094142
O7	O	0.631558	0.066905	0.094190
Zn8	Zn	0.558197	0.074235	0.124015
Zn9	Zn	0.582815	0.049643	-0.123684
O10	O	0.556794	0.141666	0.094143
C11	C	0.482106	0.066120	0.000136
C12	C	0.428453	0.065562	0.000118
C13	C	0.051373	0.017603	0.000198
C14	C	0.253036	0.019646	0.000168
O15	O	0.284283	-0.017569	0.000223
N16	N	0.272165	0.063979	0.000149
C17	C	0.240875	0.107804	0.000144
O18	O	0.261772	0.145559	0.000138
C19	C	0.039212	0.105761	0.000182
C20	C	0.020086	0.061425	0.000190
C21	C	0.032247	-0.026730	0.000208
C22	C	-0.018165	-0.027241	0.000209
C23	C	-0.049452	0.016581	0.000201
C24	C	-0.030326	0.060914	0.000192
C25	C	0.007921	0.149587	0.000186
C26	C	-0.042498	0.149072	0.000198
C27	C	-0.061623	0.104736	0.000206
C28	C	-0.112024	0.104224	0.000185
N29	N	-0.131154	0.059892	0.000205
C30	C	-0.099868	0.016070	0.000213
C31	C	0.346751	0.108873	0.000122
C32	C	0.397167	0.109384	0.000110
C33	C	0.409325	0.021226	0.000136
C34	C	0.358909	0.020715	0.000140
C35	C	0.327622	0.064541	0.000141
C36	C	-0.205737	0.015001	0.000214
C37	C	-0.256154	0.014493	0.000211
C38	C	-0.268308	0.102651	0.000191
C39	C	-0.217895	0.103158	0.000188
C40	C	-0.186611	0.059330	0.000204
O41	O	-0.143301	0.141421	0.000143
O42	O	-0.120776	-0.021677	0.000243
C43	C	0.101785	0.018114	0.000197
C44	C	0.120911	0.062447	0.000188
C45	C	0.089625	0.106268	0.000180
C46	C	0.171327	0.062957	0.000176
C47	C	0.202613	0.019136	0.000184
C48	C	0.183483	-0.025197	0.000204
C49	C	0.133071	-0.025708	0.000205
C50	C	0.108754	0.150601	0.000160
C51	C	0.159167	0.151108	0.000157
C52	C	0.190453	0.107286	0.000165
C53	C	0.574693	-0.026462	0.000192
C54	C	0.574139	-0.080116	0.000201
C55	C	0.614847	-0.418933	0.000157
C56	C	0.612797	-0.620594	0.000140
O57	O	0.650021	-0.651851	0.000103
N58	N	0.568464	-0.639722	0.000126
C59	C	0.524640	-0.608432	0.000109
O60	O	0.486886	-0.629329	0.000085
C61	C	0.526691	-0.406772	0.000117
C62	C	0.571026	-0.387646	0.000143
C63	C	0.659178	-0.399807	0.000181
C64	C	0.659690	-0.349394	0.000191
C65	C	0.615869	-0.318107	0.000177
C66	C	0.571538	-0.337233	0.000153
C67	C	0.482869	-0.375484	0.000092
C68	C	0.483386	-0.325066	0.000091
C69	C	0.527721	-0.305940	0.000116
C70	C	0.528228	-0.255534	0.000149
N71	N	0.572562	-0.236406	0.000163
C72	C	0.616382	-0.267692	0.000177
C73	C	0.523567	-0.714306	0.000107
C74	C	0.523054	-0.764720	0.000106
C75	C	0.611211	-0.776880	0.000136
C76	C	0.611723	-0.726464	0.000144
C77	C	0.567900	-0.695178	0.000121
C78	C	0.617452	-0.161821	0.000200
C79	C	0.617959	-0.111402	0.000215
C80	C	0.529803	-0.099248	0.000179
C81	C	0.529295	-0.149662	0.000170
C82	C	0.573124	-0.180948	0.000177
O83	O	0.491026	-0.224249	0.000173
O84	O	0.654133	-0.246788	0.000176
C85	C	0.614335	-0.469346	0.000146
C86	C	0.570004	-0.488472	0.000122
C87	C	0.526183	-0.457186	0.000108
C88	C	0.569491	-0.538887	0.000122
C89	C	0.613311	-0.570173	0.000136
C90	C	0.657645	-0.551045	0.000150
C91	C	0.658156	-0.500632	0.000160
C92	C	0.481850	-0.476313	0.000094
C93	C	0.481342	-0.526727	0.000085
C94	C	0.525163	-0.558013	0.000099
C95	C	0.658906	0.057758	0.000193
C96	C	0.712560	0.058315	0.000203
C97	C	0.566320	0.150340	0.000137
C98	C	0.566874	0.203993	0.000120
N99	N	0.541400	0.091018	0.293063
N100	N	0.599616	0.032857	-0.292731
C101	C	0.638607	-0.006111	0.648109
C102	C	0.650361	-0.017858	0.529776
C103	C	0.623122	0.009360	0.470592
C104	C	0.584127	0.048326	0.529752
C105	C	0.572375	0.060076	0.648096
C106	C	0.556889	0.075548	0.470579
C107	C	0.517894	0.114514	0.529739
C108	C	0.506144	0.126262	0.648071
C109	C	0.533383	0.099044	0.707256
C110	C	0.568641	0.063798	0.352235
C111	C	0.502409	0.129985	0.352222
C112	C	0.490655	0.141732	0.470555
H113	H	0.023484	0.185690	0.000174
F114	F	0.520872	0.111544	0.833201
F115	F	0.691860	-0.059326	0.466818
H116	H	0.458905	0.173459	0.518737
F117	F	0.475864	-0.785068	0.000099
H118	H	0.660785	-0.028266	0.696304
F119	F	0.657848	-0.810186	0.000149
F120	F	0.417518	0.156570	0.000080
F121	F	0.483168	-0.065942	0.000165
H122	H	0.474396	0.157994	0.696239
H123	H	0.174734	0.187214	0.000143
H124	H	0.480229	0.152150	0.304035
H125	H	0.343341	-0.015387	0.000147
F126	F	0.216790	-0.071835	0.000207
F127	F	-0.276504	-0.032698	0.000213
F128	F	0.704281	-0.584351	0.000171
H129	H	0.600391	0.032071	0.304078
H130	H	-0.180271	-0.020689	0.000227
H131	H	-0.033733	-0.063343	0.000220
H132	H	0.057715	-0.062416	0.000218
F133	F	0.476921	-0.681015	0.000081
H134	H	0.434807	-0.014456	0.000139
F135	F	0.435208	-0.443022	0.000075
F136	F	0.313460	0.155521	0.000117
H137	H	0.446767	-0.391047	0.000064
F138	F	0.658910	-0.706113	0.000171
H139	H	-0.067970	0.184762	0.000204
F140	F	0.665149	-0.091051	0.000241
F141	F	0.635631	-0.003143	0.344652
H142	H	0.493191	-0.165231	0.000181
F143	F	-0.197538	0.150344	0.000164
F144	F	-0.301613	0.149286	0.000176
H145	H	0.083285	0.186287	0.000155
F146	F	0.112724	-0.072897	0.000209
H147	H	0.695792	-0.333827	0.000207
F148	F	0.664100	-0.195111	0.000206
F149	F	0.436743	-0.291773	0.000063
F150	F	0.705823	-0.433098	0.000195
H151	H	0.694258	-0.485065	0.000181
H152	H	0.445235	-0.542293	0.000074
