data_functionalizedCrystal
_audit_creation_method	'MofGen! by Chris Wilmer'
_symmetry_space_group_name_H-M	'P1'
_symmetry_Int_Tables_number	1
_symmetry_cell_setting	triclinic
loop_
_symmetry_equiv_pos_as_xyz
  x,y,z
_cell_length_a	14.044220
_cell_length_b	14.044220
_cell_length_c	13.596369
_cell_angle_alpha	89.993157
_cell_angle_beta	89.999747
_cell_angle_gamma	93.188878
loop_
_atom_site_label
_atom_site_type_symbol
_atom_site_fract_x
_atom_site_fract_y
_atom_site_fract_z
O1	O	1.277169	0.230169	-0.081691
O2	O	1.000498	0.221864	-0.081715
O3	O	1.134680	0.087681	-0.081694
O4	O	1.142986	0.364352	-0.081712
O5	O	1.134665	0.087672	0.081889
O6	O	1.000482	0.221855	0.081867
O7	O	1.277154	0.230160	0.081892
Zn8	Zn	1.138816	0.226006	0.107852
Zn9	Zn	1.138836	0.226018	-0.107675
O10	O	1.142971	0.364343	0.081870
C11	C	0.964868	0.218223	0.000073
C12	C	0.858725	0.207379	0.000064
C13	C	1.131037	0.052054	0.000098
C14	C	1.120193	-0.054088	0.000098
C15	C	0.664388	0.187553	0.000085
C16	C	0.613258	0.264467	0.000084
C17	C	0.505122	0.253435	0.000095
C18	C	0.772534	0.198583	0.000073
C19	C	1.100366	-0.248426	0.000082
C20	C	1.177281	-0.299556	0.000086
C21	C	1.166249	-0.407692	0.000077
C22	C	1.111397	-0.140280	0.000091
C23	C	1.312783	0.233800	0.000102
C24	C	1.418926	0.244645	0.000104
C25	C	1.146614	0.399969	0.000077
C26	C	1.157459	0.506112	0.000070
N27	N	1.138809	0.225998	0.254944
N28	N	1.138849	0.226019	-0.254767
C29	C	1.138835	0.226019	0.656235
C30	C	1.138825	0.226016	0.544584
C31	C	1.138822	0.226009	0.455593
C32	C	1.138811	0.226005	0.343935
H33	H	0.626951	0.113425	0.000095
H34	H	1.026239	-0.285863	0.000073
O35	O	0.657952	0.352893	-0.000123
C36	C	0.715410	0.363821	-0.084848
H37	H	0.687555	0.311962	-0.144037
H38	H	0.713086	0.440010	-0.113316
H39	H	0.792052	0.348328	-0.065705
O40	O	1.265654	-0.254748	0.000147
C41	C	1.257142	-0.155189	0.000130
H42	H	1.184575	-0.138230	0.031087
H43	H	1.315885	-0.119778	0.047637
H44	H	1.264083	-0.127054	-0.078345
