data_functionalizedCrystal
_audit_creation_method	'MofGen! by Chris Wilmer'
_symmetry_space_group_name_H-M	'P1'
_symmetry_Int_Tables_number	1
_symmetry_cell_setting	triclinic
loop_
_symmetry_equiv_pos_as_xyz
  x,y,z
_cell_length_a	14.853567
_cell_length_b	19.188930
_cell_length_c	13.330367
_cell_angle_alpha	89.990231
_cell_angle_beta	89.995418
_cell_angle_gamma	83.389856
loop_
_atom_site_label
_atom_site_type_symbol
_atom_site_fract_x
_atom_site_fract_y
_atom_site_fract_z
O1	O	1.195862	0.091155	-0.083366
O2	O	0.933342	0.102014	-0.083385
O3	O	1.072178	-0.005046	-0.083355
O4	O	1.057026	0.198215	-0.083395
O5	O	1.072158	-0.005048	0.083492
O6	O	0.933322	0.102011	0.083462
O7	O	1.195842	0.091153	0.083481
Cu8	Cu	1.064580	0.096582	0.098706
Cu9	Cu	1.064604	0.096585	-0.098610
O10	O	1.057006	0.198212	0.083452
C11	C	0.899746	0.101521	0.000037
C12	C	0.799671	0.100046	0.000031
C13	C	0.387525	0.030218	0.000067
C14	C	0.365537	0.157407	0.000041
C15	C	0.459563	0.158794	0.000037
C16	C	0.517574	0.095891	0.000047
C17	C	0.481560	0.031602	0.000060
C18	C	0.495585	0.223081	0.000014
C19	C	0.589616	0.224470	0.000009
C20	C	0.647629	0.161567	0.000026
C21	C	0.611610	0.097276	0.000041
C22	C	0.669621	0.034373	0.000050
C23	C	0.633603	-0.029919	0.000072
C24	C	0.539574	-0.031301	0.000077
C25	C	0.741659	0.162949	0.000021
C26	C	0.763656	0.035757	0.000044
C27	C	1.071677	-0.031060	0.000071
C28	C	1.070204	-0.108569	0.000080
C29	C	1.151668	-0.153221	0.000090
C30	C	1.150285	-0.226050	0.000074
C31	C	1.067432	-0.254223	0.000068
C32	C	0.985957	-0.209561	0.000051
C33	C	0.987343	-0.136734	0.000057
N34	N	1.004094	-0.362440	0.056844
N35	N	1.002783	-0.431623	0.056841
C36	C	1.063251	-0.473645	0.000047
N37	N	1.125093	-0.443873	-0.056730
N38	N	1.126407	-0.374684	-0.056722
C39	C	1.065920	-0.333190	0.000060
C40	C	1.143220	-0.597267	0.000039
C41	C	1.141833	-0.670096	0.000016
C42	C	0.977503	-0.653606	0.000003
C43	C	0.978893	-0.580778	0.000016
C44	C	1.061754	-0.552613	0.000038
C45	C	1.229438	0.091646	0.000057
C46	C	1.329513	0.093120	0.000057
C47	C	1.057507	0.224226	0.000023
C48	C	1.058980	0.301736	0.000008
N49	N	1.064570	0.096579	0.237488
N50	N	1.064621	0.096582	-0.237391
C51	C	1.003125	0.143972	0.710098
C52	C	1.126107	0.049192	0.710092
C53	C	1.126097	0.049190	0.605073
C54	C	1.064601	0.096580	0.552562
C55	C	1.003115	0.143973	0.605070
C56	C	1.187588	0.001803	0.552558
C57	C	1.187581	0.001799	0.447533
C58	C	1.126080	0.049187	0.395020
C59	C	1.064590	0.096581	0.447534
C60	C	1.003094	0.143971	0.395023
C61	C	0.941600	0.191363	0.447535
C62	C	0.941613	0.191361	0.552557
C63	C	1.126066	0.049189	0.289999
C64	C	1.003084	0.143972	0.289995
H65	H	0.810884	-0.015466	0.000056
H66	H	1.176138	0.010607	0.247248
H67	H	0.891548	0.229945	0.595318
H68	H	1.176180	0.010611	0.752849
C69	C	1.255224	-0.050327	0.610315
H70	H	1.291848	-0.078547	0.564002
H71	H	1.222909	-0.079436	0.651292
H72	H	1.292655	-0.025156	0.651275
C73	C	0.781276	0.233661	-0.000007
H74	H	0.733260	0.270924	-0.000010
H75	H	0.817505	0.236841	-0.058191
H76	H	0.817496	0.236847	0.058182
C77	C	0.886364	-0.684584	-0.000008
H78	H	0.838044	-0.647556	-0.000017
H79	H	0.882398	-0.712662	0.058170
H80	H	0.882418	-0.712639	-0.058204
C81	C	1.255213	-0.050334	0.389779
H82	H	1.291833	-0.078561	0.436096
H83	H	1.292634	-0.025169	0.348789
H84	H	1.222886	-0.079447	0.348832
C85	C	0.935489	0.196100	0.767854
H86	H	0.944302	0.189318	0.837923
H87	H	0.875354	0.188434	0.750653
H88	H	0.945099	0.242715	0.750629
C89	C	0.347910	-0.040498	0.000086
H90	H	0.283601	-0.032317	0.000084
H91	H	0.367842	-0.066403	0.058271
H92	H	0.367839	-0.066397	-0.058102
C93	C	1.239898	-0.275176	0.000093
H94	H	1.289445	-0.247972	0.000113
H95	H	1.242786	-0.303924	-0.058089
H96	H	1.242755	-0.303933	0.058285
H97	H	0.510239	-0.083644	0.000119
C98	C	0.697421	-0.099108	0.000083
H99	H	0.758578	-0.089070	0.000079
H100	H	0.686532	-0.125468	-0.058090
H101	H	0.686536	-0.125463	0.058284
H102	H	0.318299	0.208620	0.000024
H103	H	0.953003	0.182561	0.247247
C104	C	0.894819	-0.240544	0.000040
H105	H	0.846498	-0.203517	0.000026
H106	H	0.890851	-0.268620	0.058220
H107	H	0.890876	-0.268602	-0.058154
H108	H	0.448345	0.274293	-0.000005
H109	H	0.921003	-0.100377	0.000049
H110	H	0.618933	0.276821	-0.000009
C111	C	1.242812	-0.122244	0.000097
H112	H	1.291131	-0.159272	0.000091
H113	H	1.246766	-0.094182	0.058279
H114	H	1.246772	-0.094172	-0.058095
H115	H	1.208174	-0.706452	0.000019
C116	C	1.234359	-0.566279	0.000051
H117	H	1.223518	-0.516510	0.000066
H118	H	1.267898	-0.581590	-0.058132
H119	H	1.267883	-0.581612	0.058242
C120	C	0.889281	-0.531658	0.000021
H121	H	0.839737	-0.558865	0.000024
H122	H	0.886410	-0.502894	-0.058157
H123	H	0.886403	-0.502918	0.058216
C124	C	0.873960	0.243490	0.389766
H125	H	0.882764	0.236699	0.319699
H126	H	0.883559	0.290103	0.406964
H127	H	0.813822	0.235816	0.406982
