data_functionalizedCrystal
_audit_creation_method	'MofGen! by Chris Wilmer'
_symmetry_space_group_name_H-M	'P1'
_symmetry_Int_Tables_number	1
_symmetry_cell_setting	triclinic
loop_
_symmetry_equiv_pos_as_xyz
  x,y,z
_cell_length_a	10.654550
_cell_length_b	16.109301
_cell_length_c	9.730223
_cell_angle_alpha	90.006472
_cell_angle_beta	89.997197
_cell_angle_gamma	83.973206
loop_
_atom_site_label
_atom_site_type_symbol
_atom_site_fract_x
_atom_site_fract_y
_atom_site_fract_z
O1	O	1.666249	0.116775	0.114192
O2	O	2.166249	0.616775	0.614192
O3	O	1.300620	0.127900	0.114218
O4	O	1.800620	0.627900	0.614218
O5	O	1.493479	0.001366	0.114190
O6	O	1.993479	0.501366	0.614190
O7	O	1.473391	0.243309	0.114220
O8	O	1.973391	0.743309	0.614220
O9	O	1.493477	0.001361	-0.114390
O10	O	1.993477	0.501361	0.385610
O11	O	1.300618	0.127895	-0.114362
O12	O	1.800618	0.627895	0.385638
O13	O	1.666248	0.116769	-0.114388
O14	O	2.166248	0.616769	0.385612
Zn15	Zn	1.483433	0.122331	-0.150667
Zn16	Zn	1.983433	0.622331	0.349333
Zn17	Zn	1.483435	0.122339	0.150497
Zn18	Zn	1.983435	0.622339	0.650497
O19	O	1.473389	0.243303	-0.114360
O20	O	1.973389	0.743303	0.385640
C21	C	1.253832	0.127081	-0.000069
C22	C	1.753832	0.627081	0.499931
C23	C	1.114422	0.124637	-0.000060
C24	C	1.614422	0.624637	0.499940
C25	C	1.492664	-0.029616	-0.000100
C26	C	1.992664	0.470384	0.499900
C27	C	1.490225	-0.121926	-0.000102
C28	C	1.990225	0.378074	0.499898
C29	C	1.033926	0.199138	-0.000054
C30	C	1.533926	0.699138	0.499946
C31	C	0.902936	0.196836	-0.000079
C32	C	1.402936	0.696836	0.499921
C33	C	0.932952	0.045526	-0.000107
C34	C	1.432952	0.545526	0.499893
C35	C	1.063939	0.047828	-0.000093
C36	C	1.563939	0.547828	0.499907
C37	C	1.598991	-0.343552	-0.000088
C38	C	2.098991	0.156448	0.499912
C39	C	1.596689	-0.430286	-0.000076
C40	C	2.096689	0.069714	0.499924
C41	C	1.367868	-0.411772	-0.000066
C42	C	1.867868	0.088228	0.499934
C43	C	1.370172	-0.325039	-0.000067
C44	C	1.870172	0.174961	0.499933
C45	C	1.485737	-0.290932	-0.000085
C46	C	1.985737	0.209068	0.499915
C47	C	1.481131	-0.464398	-0.000072
C48	C	1.981131	0.035602	0.499928
C49	C	1.478634	-0.558439	-0.000060
C50	C	1.978634	-0.058439	0.499940
C51	C	1.488234	-0.196885	-0.000095
C52	C	1.988234	0.303115	0.499905
C53	C	1.713036	0.117589	-0.000098
C54	C	2.213036	0.617589	0.499902
C55	C	1.852446	0.120033	-0.000098
C56	C	2.352446	0.620033	0.499902
C57	C	1.474203	0.274286	-0.000067
C58	C	1.974203	0.774286	0.499933
C59	C	1.476643	0.366596	-0.000056
C60	C	1.976643	0.866596	0.499944
N61	N	1.483437	0.122338	0.356033
N62	N	1.983437	0.622338	0.856033
N63	N	1.483441	0.122325	-0.356203
N64	N	1.983441	0.622325	0.143797
C65	C	1.568994	0.066420	0.427947
C66	C	2.068994	0.566420	0.927947
C67	C	1.568999	0.066415	0.571830
C68	C	2.068999	0.566415	1.071830
C69	C	1.397880	0.178250	0.571873
C70	C	1.897880	0.678250	1.071873
C71	C	1.397882	0.178257	0.427993
C72	C	1.897882	0.678257	0.927993
H73	H	1.075024	0.261680	-0.000038
H74	H	1.575024	0.761680	0.499962
Br75	Br	0.793695	0.297950	-0.000079
Br76	Br	1.293695	0.797950	0.499921
Br77	Br	1.281770	0.254158	0.330384
Br78	Br	1.781770	0.754158	0.830384
H79	H	0.891833	-0.017009	-0.000143
H80	H	1.391833	0.482991	0.499857
H81	H	1.693091	-0.315784	-0.000100
H82	H	2.193091	0.184216	0.499900
Br83	Br	1.750398	-0.501696	-0.000072
Br84	Br	2.250398	-0.001696	0.499928
Br85	Br	1.211038	-0.458066	-0.000037
Br86	Br	1.711038	0.041934	0.499963
Br87	Br	1.173194	-0.053288	-0.000117
Br88	Br	1.673194	0.446712	0.499883
Br89	Br	1.216458	-0.253620	-0.000045
Br90	Br	1.716458	0.246380	0.499955
Br91	Br	1.685122	-0.009473	0.669425
Br92	Br	2.185122	0.490527	1.169425
H93	H	1.638661	0.020888	0.369361
H94	H	2.138661	0.520888	0.869361
H95	H	1.328220	0.223777	0.630476
H96	H	1.828220	0.723777	1.130476
