data_functionalizedCrystal
_audit_creation_method	'MofGen! by Chris Wilmer'
_symmetry_space_group_name_H-M	'P1'
_symmetry_Int_Tables_number	1
_symmetry_cell_setting	triclinic
loop_
_symmetry_equiv_pos_as_xyz
  x,y,z
_cell_length_a	10.654550
_cell_length_b	10.654551
_cell_length_c	9.130313
_cell_angle_alpha	89.997028
_cell_angle_beta	90.006582
_cell_angle_gamma	84.485132
loop_
_atom_site_label
_atom_site_type_symbol
_atom_site_fract_x
_atom_site_fract_y
_atom_site_fract_z
O1	O	1.667840	0.176390	0.121910
O2	O	1.302362	0.193196	0.121885
O3	O	1.493503	0.002054	0.121899
O4	O	1.476699	0.367532	0.121896
O5	O	1.493490	0.002065	-0.121700
O6	O	1.302349	0.193207	-0.121713
O7	O	1.667827	0.176401	-0.121689
Cu8	Cu	1.485087	0.184805	-0.143944
Cu9	Cu	1.485102	0.184792	0.144140
O10	O	1.476685	0.367543	-0.121703
C11	C	1.255557	0.191968	0.000083
C12	C	1.116114	0.188276	0.000074
C13	C	1.036629	0.300817	0.000095
C14	C	0.905608	0.297341	0.000120
C15	C	0.933570	0.068771	0.000110
C16	C	1.064589	0.072249	0.000074
C17	C	1.088154	0.416844	0.000094
C18	C	1.008667	0.529395	0.000116
C19	C	0.877647	0.525918	0.000142
C20	C	0.826112	0.409891	0.000145
C21	C	1.492263	-0.044739	0.000103
C22	C	1.488570	-0.184182	0.000112
C23	C	1.486845	-0.249700	0.132895
C24	C	1.483365	-0.380720	0.132888
C25	C	1.483340	-0.380693	-0.132696
C26	C	1.486811	-0.249674	-0.132688
C27	C	1.488604	-0.184207	0.265696
C28	C	1.486880	-0.249726	0.398490
C29	C	1.483400	-0.380746	0.398483
C30	C	1.481643	-0.446248	0.265682
C31	C	1.714632	0.177629	0.000117
C32	C	1.854075	0.181321	0.000135
C33	C	1.477926	0.414336	0.000097
C34	C	1.481619	0.553779	0.000097
N35	N	1.485085	0.184814	-0.346566
C36	C	1.561914	0.261689	-0.423228
C37	C	1.561933	0.261666	-0.576564
C38	C	1.408281	0.107890	-0.576565
C39	C	1.408270	0.107907	-0.423231
C40	C	1.638729	0.338596	-0.346563
C41	C	1.715564	0.415478	-0.423224
C42	C	1.715582	0.415455	-0.576561
C43	C	1.638766	0.338549	-0.653236
N44	N	1.485114	0.184773	0.346763
H45	H	0.719425	0.407069	0.000143
O46	O	0.800486	0.635277	0.000417
C47	C	0.824056	0.705650	0.126559
H48	H	0.868275	0.639726	0.214726
H49	H	0.891385	0.778927	0.098025
C50	C	0.644810	0.853556	0.075511
C51	C	0.699111	0.772586	0.183803
H52	H	0.567740	0.894851	0.110819
H53	H	0.628932	0.806148	-0.009477
H54	H	0.700930	0.914609	0.051742
H55	H	0.642998	0.711525	0.207557
H56	H	0.714976	0.819985	0.268796
O57	O	1.333519	0.033201	-0.348980
C58	C	1.265737	-0.034697	-0.449523
H59	H	1.258859	0.017211	-0.558839
H60	H	1.316624	-0.132800	-0.465797
C61	C	1.140694	-0.110216	-0.255433
C62	C	1.132237	-0.046456	-0.389693
H63	H	1.058347	-0.117476	-0.218526
H64	H	1.186362	-0.064476	-0.187694
H65	H	1.183105	-0.191963	-0.269013
H66	H	1.089841	0.035294	-0.376108
H67	H	1.086558	-0.092183	-0.457429
H68	H	1.194836	0.419687	0.000080
O69	O	1.790111	0.490355	-0.348910
C70	C	1.756397	0.617508	-0.386394
H71	H	1.707748	0.622428	-0.497739
H72	H	1.689414	0.663151	-0.300126
C73	C	1.935521	0.682060	-0.256711
C74	C	1.875779	0.688103	-0.393473
H75	H	2.009159	0.725609	-0.261071
H76	H	1.958233	0.596396	-0.231452
H77	H	1.879689	0.720095	-0.184835
H78	H	1.931605	0.650055	-0.465342
H79	H	1.853079	0.773763	-0.418744
O80	O	1.481469	-0.444435	-0.261598
C81	C	1.370868	-0.506918	-0.269569
H82	H	1.334158	-0.522131	-0.154279
H83	H	1.296170	-0.447121	-0.335099
C84	C	1.445637	-0.616715	-0.487097
C85	C	1.400554	-0.635408	-0.345494
H86	H	1.463945	-0.695971	-0.533937
H87	H	1.520149	-0.574615	-0.481731
H88	H	1.383380	-0.566879	-0.541686
H89	H	1.462816	-0.685229	-0.290902
H90	H	1.326052	-0.677519	-0.350853
O91	O	1.488656	-0.185915	-0.261585
C92	C	1.599252	-0.123424	-0.269558
H93	H	1.635988	-0.108224	-0.154269
H94	H	1.673938	-0.183210	-0.335092
C95	C	1.524428	-0.013604	-0.487082
C96	C	1.569542	0.005075	-0.345480
H97	H	1.506104	0.065658	-0.533919
H98	H	1.449919	-0.055708	-0.481714
H99	H	1.586674	-0.063429	-0.541674
H100	H	1.507291	0.054885	-0.290885
H101	H	1.644040	0.047191	-0.350840
H102	H	1.638720	0.338626	-0.221708
H103	H	1.778154	0.478046	-0.638974
H104	H	0.891600	-0.025693	0.000137
H105	H	1.050636	0.623860	0.000101
O106	O	1.141628	-0.037189	0.000132
C107	C	1.068059	-0.140343	0.000121
H108	H	0.970578	-0.109326	0.046261
H109	H	1.058394	-0.175851	-0.116741
C110	C	1.252164	-0.285052	0.038974
C111	C	1.132438	-0.246959	0.095655
H112	H	1.291877	-0.350821	0.097897
H113	H	1.301730	-0.215556	0.038976
H114	H	1.244093	-0.314633	-0.058410
H115	H	1.140512	-0.217363	0.193030
H116	H	1.082874	-0.316452	0.095672
H117	H	1.638799	0.338525	-0.778094
H118	H	1.491441	-0.077524	0.265716
H119	H	1.488298	-0.196384	0.506611
H120	H	1.481984	-0.434086	0.506609
H121	H	1.478791	-0.552931	0.265687
H122	H	1.345739	0.045279	-0.639007
