data_functionalizedCrystal
_audit_creation_method	'MofGen! by Chris Wilmer'
_symmetry_space_group_name_H-M	'P1'
_symmetry_Int_Tables_number	1
_symmetry_cell_setting	triclinic
loop_
_symmetry_equiv_pos_as_xyz
  x,y,z
_cell_length_a	11.026607
_cell_length_b	10.868271
_cell_length_c	11.026607
_cell_angle_alpha	89.997040
_cell_angle_beta	71.413983
_cell_angle_gamma	90.003487
loop_
_atom_site_label
_atom_site_type_symbol
_atom_site_fract_x
_atom_site_fract_y
_atom_site_fract_z
O1	O	1.726733	0.102319	-0.533624
O2	O	1.360153	0.102321	-0.472861
O3	O	1.513061	0.102316	-0.319952
O4	O	1.573825	0.102325	-0.686532
O5	O	1.513044	-0.102329	-0.319941
O6	O	1.360135	-0.102323	-0.472850
O7	O	1.726715	-0.102325	-0.533613
Zn8	Zn	1.543423	-0.134816	-0.503230
Zn9	Zn	1.543446	0.134812	-0.503244
O10	O	1.573807	-0.102320	-0.686521
C11	C	1.312485	-0.000001	-0.461645
C12	C	1.170471	-0.000000	-0.428228
N13	N	1.543416	-0.318830	-0.503221
C14	C	1.116821	0.000003	-0.520498
C15	C	0.970043	0.000004	-0.485962
C16	C	1.543439	-0.569836	-0.503240
C17	C	1.543423	-0.430159	-0.503232
C18	C	1.774384	-0.000001	-0.544828
C19	C	1.916398	0.000007	-0.578245
C20	C	1.501843	-0.000005	-0.272287
C21	C	1.468426	-0.000000	-0.130273
N22	N	1.543461	0.318826	-0.503245
C23	C	1.585026	0.000003	-0.734187
C24	C	1.618443	0.000007	-0.876200
C25	C	1.560695	0.000001	-0.076624
C26	C	1.526160	0.000006	0.070155
H27	H	1.179555	-0.000002	-0.625061
C28	C	1.759714	0.000005	0.039062
N29	N	1.866118	0.000001	-0.024763
C30	C	1.327162	-0.000001	-0.045529
N31	N	1.220759	-0.000006	0.018299
H32	H	1.107738	0.000029	-0.323666
H33	H	0.907314	0.000033	-0.381393
C34	C	1.701959	-0.000009	-0.161368
N35	N	1.808362	-0.000021	-0.225196
C36	C	1.001135	0.000011	-0.719517
N37	N	1.064960	0.000017	-0.825921
C38	C	1.384889	0.000005	0.154894
N39	N	1.278487	0.000000	0.218722
