data_functionalizedCrystal
_audit_creation_method	'MofGen! by Chris Wilmer'
_symmetry_space_group_name_H-M	'P1'
_symmetry_Int_Tables_number	1
_symmetry_cell_setting	triclinic
loop_
_symmetry_equiv_pos_as_xyz
  x,y,z
_cell_length_a	19.805407
_cell_length_b	19.805405
_cell_length_c	19.805399
_cell_angle_alpha	90.029301
_cell_angle_beta	89.979591
_cell_angle_gamma	89.971650
loop_
_atom_site_label
_atom_site_type_symbol
_atom_site_fract_x
_atom_site_fract_y
_atom_site_fract_z
Zn1	Zn	1.034736	0.269444	-0.382727
Zn2	Zn	1.368069	0.602777	-0.049393
Zn3	Zn	1.701402	0.936110	0.283940
Zn4	Zn	1.034651	0.382632	-0.269535
Zn5	Zn	1.367984	0.715966	0.063798
Zn6	Zn	1.701317	1.049299	0.397132
Zn7	Zn	0.921550	0.269466	-0.269550
Zn8	Zn	1.254884	0.602800	0.063784
Zn9	Zn	1.588217	0.936133	0.397117
Zn10	Zn	0.921514	0.382600	-0.382680
Zn11	Zn	1.254847	0.715933	-0.049347
Zn12	Zn	1.588181	1.049267	0.283987
O13	O	0.978113	0.326036	-0.326123
O14	O	1.311446	0.659369	0.007210
O15	O	1.644779	0.992702	0.340544
O16	O	1.129441	0.284463	-0.367725
O17	O	1.462774	0.617796	-0.034392
O18	O	1.796108	0.951129	0.298942
O19	O	1.019627	0.367643	-0.174820
O20	O	1.352961	0.700977	0.158513
O21	O	1.686294	1.034310	0.491846
O22	O	0.936616	0.174747	-0.284588
O23	O	1.269949	0.508080	0.048745
O24	O	1.603282	0.841413	0.382078
O25	O	1.129378	0.367622	-0.284564
O26	O	1.462712	0.700955	0.048770
O27	O	1.796045	1.034288	0.382103
O28	O	1.019772	0.174730	-0.367739
O29	O	1.353106	0.508064	-0.034406
O30	O	1.686439	0.841397	0.298928
O31	O	0.936533	0.284501	-0.174831
O32	O	1.269866	0.617834	0.158502
O33	O	1.603200	0.951168	0.491836
O34	O	0.826829	0.284470	-0.284543
O35	O	1.160162	0.617803	0.048790
O36	O	1.493496	0.951136	0.382123
O37	O	0.936553	0.367567	-0.477403
O38	O	1.269887	0.700900	-0.144070
O39	O	1.603220	1.034233	0.189264
O40	O	0.826802	0.367589	-0.367660
O41	O	1.160135	0.700922	-0.034326
O42	O	1.493469	1.034255	0.299007
O43	O	1.019737	0.284431	-0.477437
O44	O	1.353070	0.617765	-0.144104
O45	O	1.686404	0.951098	0.189230
O46	O	1.019592	0.477345	-0.284518
O47	O	1.352925	0.810678	0.048815
O48	O	1.686258	1.144011	0.382148
O49	O	0.936471	0.477321	-0.367646
O50	O	1.269804	0.810654	-0.034312
O51	O	1.603137	1.143988	0.299021
C52	C	0.802257	0.326029	-0.326098
C53	C	1.135590	0.659362	0.007235
C54	C	1.468923	0.992695	0.340568
C55	C	0.727025	0.326042	-0.326104
C56	C	1.060358	0.659375	0.007229
C57	C	1.393691	0.992709	0.340563
C58	C	0.265270	0.282816	-0.369517
C59	C	0.598603	0.616149	-0.036184
C60	C	0.931936	0.949482	0.297149
C61	C	0.335958	0.282817	-0.369513
C62	C	0.669291	0.616150	-0.036179
C63	C	1.002625	0.949484	0.297154
C64	C	0.371263	0.326046	-0.326145
C65	C	0.704596	0.659379	0.007189
C66	C	1.037930	0.992713	0.340522
C67	C	0.335876	0.369281	-0.282784
C68	C	0.669209	0.702615	0.050550
C69	C	1.002542	1.035948	0.383883
C70	C	0.265188	0.369283	-0.282793
C71	C	0.598522	0.702616	0.050541
C72	C	0.931855	1.035950	0.383874
C73	C	0.620949	0.369276	-0.282748
C74	C	0.954282	0.702609	0.050585
C75	C	1.287616	1.035943	0.383919
C76	C	0.691641	0.369270	-0.282741
C77	C	1.024974	0.702603	0.050592
C78	C	1.358308	1.035936	0.383926
C79	C	0.691719	0.282810	-0.369468
C80	C	1.025052	0.616143	-0.036135
C81	C	1.358385	0.949477	0.297199
C82	C	0.621031	0.282812	-0.369477
C83	C	0.954365	0.616145	-0.036143
C84	C	1.287698	0.949478	0.297190
C85	C	0.585650	0.326049	-0.326119
C86	C	0.918984	0.659383	0.007215
C87	C	1.252317	0.992716	0.340548
C88	C	0.509002	0.326048	-0.326125
C89	C	0.842335	0.659382	0.007208
C90	C	1.175668	0.992715	0.340541
C91	C	0.447910	0.326044	-0.326134
C92	C	0.781243	0.659377	0.007199
C93	C	1.114577	0.992711	0.340533
C94	C	0.978036	0.501892	-0.326090
C95	C	1.311370	0.835225	0.007243
C96	C	1.644703	1.168558	0.340577
C97	C	0.978066	0.577124	-0.326099
C98	C	1.311399	0.910457	0.007235
C99	C	1.644732	1.243790	0.340568
C100	C	0.978151	0.325993	-0.502666
C101	C	1.311484	0.659326	-0.169332
C102	C	1.644817	0.992660	0.164001
C103	C	0.978167	0.325975	-0.577898
C104	C	1.311500	0.659308	-0.244564
C105	C	1.644833	0.992641	0.088769
C106	C	1.154655	0.326043	-0.326148
C107	C	1.487989	0.659376	0.007186
C108	C	1.821322	0.992710	0.340519
C109	C	1.229887	0.326046	-0.326158
C110	C	1.563221	0.659380	0.007175
C111	C	1.896554	0.992713	0.340508
C112	C	0.978207	0.149493	-0.326171
C113	C	1.311541	0.482826	0.007163
C114	C	1.644874	0.816160	0.340496
C115	C	0.978248	0.074261	-0.326191
C116	C	1.311581	0.407594	0.007142
C117	C	1.644915	0.740927	0.340476
C118	C	1.021389	0.612458	-0.282860
C119	C	1.354722	0.945791	0.050474
C120	C	1.688056	1.279124	0.383807
C121	C	1.021418	0.683146	-0.282875
C122	C	1.354751	1.016479	0.050459
C123	C	1.688084	1.349813	0.383792
C124	C	0.978119	0.718499	-0.326126
C125	C	1.311453	1.051833	0.007208
C126	C	1.644786	1.385166	0.340541
C127	C	0.934794	0.683160	-0.369370
C128	C	1.268128	1.016494	-0.036036
C129	C	1.601461	1.349827	0.297297
C130	C	0.934769	0.612473	-0.369357
C131	C	1.268103	0.945806	-0.036024
C132	C	1.601436	1.279140	0.297309
C133	C	0.934894	0.968233	-0.369420
C134	C	1.268227	1.301567	-0.036086
C135	C	1.601561	1.634900	0.297247
C136	C	0.934921	1.038926	-0.369427
C137	C	1.268254	1.372259	-0.036094
C138	C	1.601588	1.705592	0.297240
C139	C	1.021542	1.038906	-0.282937
C140	C	1.354876	1.372240	0.050396
C141	C	1.688209	1.705573	0.383730
C142	C	1.021518	0.968219	-0.282925
C143	C	1.354851	1.301553	0.050408
C144	C	1.688184	1.634886	0.383742
C145	C	0.978195	0.932886	-0.326171
C146	C	1.311529	1.266220	0.007163
C147	C	1.644862	1.599553	0.340496
C148	C	0.978166	0.856238	-0.326155
C149	C	1.311499	1.189571	0.007178
C150	C	1.644832	1.522905	0.340512
C151	C	0.978145	0.795146	-0.326139
C152	C	1.311479	1.128480	0.007195
C153	C	1.644812	1.461813	0.340528
C154	C	1.021481	0.282684	-0.613261
C155	C	1.354815	0.616017	-0.279927
C156	C	1.688148	0.949351	0.053406
C157	C	1.021488	0.282664	-0.683949
C158	C	1.354822	0.615998	-0.350616
C159	C	1.688155	0.949331	-0.017283
C160	C	0.978184	0.325939	-0.719273
C161	C	1.311517	0.659273	-0.385940
C162	C	1.644850	0.992606	-0.052607
C163	C	0.934864	0.369232	-0.683905
C164	C	1.268197	0.702565	-0.350572
C165	C	1.601531	1.035899	-0.017239
C166	C	0.934854	0.369248	-0.613218
C167	C	1.268188	0.702581	-0.279885
C168	C	1.601521	1.035914	0.053449
C169	C	0.934902	0.369169	-0.968979
C170	C	1.268236	0.702502	-0.635645
C171	C	1.601569	1.035836	-0.302312
C172	C	0.934917	0.369151	-1.039671
C173	C	1.268250	0.702485	-0.706338
C174	C	1.601584	1.035818	-0.373004
C175	C	1.021536	0.282586	-1.039710
C176	C	1.354870	0.615919	-0.706377
C177	C	1.688203	0.949252	-0.373043
C178	C	1.021527	0.282601	-0.969023
C179	C	1.354860	0.615935	-0.635689
C180	C	1.688193	0.949268	-0.302356
C181	C	0.978205	0.325891	-0.933661
C182	C	1.311538	0.659224	-0.600327
C183	C	1.644872	0.992558	-0.266994
C184	C	0.978197	0.325911	-0.857012
C185	C	1.311530	0.659244	-0.523679
C186	C	1.644864	0.992578	-0.190346
C187	C	0.978194	0.325923	-0.795921
C188	C	1.311528	0.659257	-0.462587
C189	C	1.644861	0.992590	-0.129254
C190	C	0.978114	0.326029	-0.150267
C191	C	1.311447	0.659363	0.183066
C192	C	1.644780	0.992696	0.516400
C193	C	0.978229	0.325857	-0.075035
C194	C	1.311562	0.659190	0.258298
C195	C	1.644895	0.992523	0.591631
H196	H	0.364626	0.404482	-0.247475
H197	H	0.697960	0.737815	0.085858
H198	H	1.031293	1.071148	0.419191
C199	C	0.226265	0.416836	-0.235099
C200	C	0.559598	0.750169	0.098234
C201	C	0.892931	1.083502	0.431567
H202	H	0.179110	0.410651	-0.241320
H203	H	0.512443	0.743984	0.092013
H204	H	0.845777	1.077318	0.425346
H205	H	0.237830	0.406874	-0.189638
H206	H	0.571163	0.740208	0.143696
H207	H	0.904497	1.073541	0.477029
H208	H	0.237834	0.462327	-0.244928
H209	H	0.571168	0.795660	0.088405
H210	H	0.904501	1.128993	0.421738
C211	C	1.069019	0.573575	-0.235284
C212	C	1.402352	0.906909	0.098050
C213	C	1.735685	1.240242	0.431383
H214	H	1.094829	0.604746	-0.209540
H215	H	1.428162	0.938079	0.123794
H216	H	1.761496	1.271412	0.457127
H217	H	1.043138	0.546041	-0.205762
H218	H	1.376471	0.879374	0.127571
H219	H	1.709805	1.212708	0.460905
H220	H	1.098487	0.545959	-0.261204
H221	H	1.431821	0.879293	0.072129
H222	H	1.765154	1.212626	0.405462
C223	C	1.069070	0.722011	-0.235308
C224	C	1.402403	1.055344	0.098025
C225	C	1.735736	1.388677	0.431358
H226	H	1.094846	0.690832	-0.209542
H227	H	1.428180	1.024165	0.123791
H228	H	1.761513	1.357498	0.457125
H229	H	1.098558	0.749543	-0.261229
H230	H	1.431892	1.082876	0.072104
H231	H	1.765225	1.416210	0.405438
H232	H	1.043199	0.749627	-0.205797
H233	H	1.376532	1.082961	0.127536
H234	H	1.709866	1.416294	0.460870
C235	C	0.730639	0.235256	-0.417169
C236	C	1.063973	0.568590	-0.083836
C237	C	1.397306	0.901923	0.249497
H238	H	0.777795	0.241450	-0.410961
H239	H	1.111128	0.574783	-0.077628
H240	H	1.444461	0.908116	0.255705
H241	H	0.719073	0.189766	-0.407348
H242	H	1.052406	0.523100	-0.074015
H243	H	1.385739	0.856433	0.259319
H244	H	0.719068	0.245226	-0.462631
H245	H	1.052402	0.578560	-0.129298
H246	H	1.385735	0.911893	0.204035
C247	C	1.069202	1.077771	-0.235369
C248	C	1.402536	1.411104	0.097964
C249	C	1.735869	1.744438	0.431297
H250	H	1.094979	1.046591	-0.209604
H251	H	1.428312	1.379924	0.123729
H252	H	1.761646	1.713258	0.457062
H253	H	1.098691	1.105303	-0.261290
H254	H	1.432024	1.438637	0.072043
H255	H	1.765358	1.771970	0.405377
H256	H	1.043333	1.105387	-0.205857
H257	H	1.376666	1.438721	0.127477
H258	H	1.709999	1.772054	0.460810
H259	H	0.720384	0.404475	-0.247424
H260	H	1.053718	0.737808	0.085909
H261	H	1.387051	1.071142	0.419242
C262	C	1.069148	0.929334	-0.235351
C263	C	1.402481	1.262668	0.097982
C264	C	1.735814	1.596001	0.431316
H265	H	1.094959	0.960503	-0.209606
H266	H	1.428292	1.293836	0.123728
H267	H	1.761626	1.627169	0.457061
H268	H	1.043267	0.901799	-0.205830
H269	H	1.376600	1.235132	0.127503
H270	H	1.709933	1.568466	0.460836
H271	H	1.098615	0.901719	-0.261274
H272	H	1.431948	1.235053	0.072059
H273	H	1.765281	1.568386	0.405393
H274	H	0.899663	1.067708	-0.404652
H275	H	1.232996	1.401042	-0.071319
H276	H	1.566330	1.734375	0.262014
C277	C	0.887210	0.416867	-0.574316
C278	C	1.220543	0.750200	-0.240982
C279	C	1.553876	1.083533	0.092351
H280	H	0.893401	0.410673	-0.527158
H281	H	1.226734	0.744007	-0.193825
H282	H	1.560067	1.077340	0.139509
H283	H	0.897089	0.462343	-0.585887
H284	H	1.230422	0.795676	-0.252554
H285	H	1.563756	1.129009	0.080779
H286	H	0.841738	0.406949	-0.585895
H287	H	1.175071	0.740283	-0.252561
H288	H	1.508405	1.073616	0.080772
H289	H	0.592150	0.404481	-0.247441
H290	H	0.925483	0.737814	0.085892
H291	H	1.258817	1.071148	0.419226
H292	H	0.899618	0.939471	-0.404631
H293	H	1.232952	1.272804	-0.071297
H294	H	1.566285	1.606138	0.262036
C295	C	1.069186	0.234962	-1.078610
C296	C	1.402519	0.568296	-0.745276
C297	C	1.735852	0.901629	-0.411943
H298	H	1.062987	0.241143	-1.125768
H299	H	1.396320	0.574477	-0.792434
H300	H	1.729654	0.907810	-0.459101
H301	H	1.114655	0.244875	-1.067032
H302	H	1.447988	0.578208	-0.733698
H303	H	1.781321	0.911542	-0.400365
H304	H	1.059301	0.189485	-1.067034
H305	H	1.392634	0.522818	-0.733700
H306	H	1.725968	0.856151	-0.400367
H307	H	0.899492	0.583705	-0.404568
H308	H	1.232826	0.917038	-0.071235
H309	H	1.566159	1.250372	0.262099
C310	C	0.226440	0.235266	-0.417226
C311	C	0.559774	0.568599	-0.083892
C312	C	0.893107	0.901932	0.249441
H313	H	0.257640	0.209525	-0.443053
H314	H	0.590973	0.542858	-0.109720
H315	H	0.924306	0.876192	0.223614
H316	H	0.198865	0.205740	-0.391396
H317	H	0.532198	0.539073	-0.058062
H318	H	0.865531	0.872407	0.275271
H319	H	0.198870	0.261204	-0.446675
H320	H	0.532203	0.594537	-0.113342
H321	H	0.865537	0.927870	0.219992
C322	C	0.887166	0.722047	-0.416943
C323	C	1.220499	1.055380	-0.083610
C324	C	1.553832	1.388713	0.249723
H325	H	0.893379	0.769206	-0.410753
H326	H	1.226712	1.102540	-0.077420
H327	H	1.560046	1.435873	0.255914
H328	H	0.897037	0.710425	-0.462429
H329	H	1.230371	1.043758	-0.129095
H330	H	1.563704	1.377092	0.204238
H331	H	0.841689	0.710505	-0.406986
H332	H	1.175022	1.043838	-0.073653
H333	H	1.508355	1.377172	0.259681
C334	C	0.582200	0.235262	-0.417183
C335	C	0.915533	0.568596	-0.083850
C336	C	1.248866	0.901929	0.249483
H337	H	0.613397	0.209520	-0.443011
H338	H	0.946730	0.542853	-0.109678
H339	H	1.280063	0.876187	0.223655
H340	H	0.554624	0.205738	-0.391352
H341	H	0.887957	0.539071	-0.058019
H342	H	1.221290	0.872405	0.275315
H343	H	0.554629	0.261201	-0.446632
H344	H	0.887963	0.594535	-0.113299
H345	H	1.221296	0.927868	0.220035
H346	H	1.056747	0.247446	-0.584505
H347	H	1.390081	0.580780	-0.251172
H348	H	1.723414	0.914113	0.082162
C349	C	1.069138	0.235048	-0.722846
C350	C	1.402471	0.568381	-0.389512
C351	C	1.735804	0.901715	-0.056179
H352	H	1.094933	0.209284	-0.691684
H353	H	1.428267	0.542617	-0.358351
H354	H	1.761600	0.875951	-0.025017
H355	H	1.043270	0.205546	-0.750424
H356	H	1.376603	0.538880	-0.417090
H357	H	1.709936	0.872213	-0.083757
H358	H	1.098619	0.260941	-0.750419
H359	H	1.431953	0.594274	-0.417086
H360	H	1.765286	0.927608	-0.083753
C361	C	1.069159	0.234997	-0.930170
C362	C	1.402493	0.568330	-0.596836
C363	C	1.735826	0.901663	-0.263503
H364	H	1.094953	0.209206	-0.961355
H365	H	1.428286	0.542539	-0.628022
H366	H	1.761620	0.875873	-0.294689
H367	H	1.098633	0.260893	-0.902591
H368	H	1.431966	0.594226	-0.569258
H369	H	1.765299	0.927559	-0.235924
H370	H	1.043272	0.205509	-0.902600
H371	H	1.376605	0.538843	-0.569267
H372	H	1.709938	0.872176	-0.235934
H373	H	0.899602	0.404465	-0.712672
H374	H	1.232935	0.737798	-0.379339
H375	H	1.566269	1.071132	-0.046005
H376	H	0.899650	0.404392	-1.068430
H377	H	1.232983	0.737726	-0.735097
H378	H	1.566317	1.071059	-0.401763
C379	C	0.887237	0.416772	-0.930090
C380	C	1.220570	0.750105	-0.596756
C381	C	1.553904	1.083439	-0.263423
H382	H	0.861449	0.442541	-0.961253
H383	H	1.194782	0.775874	-0.627920
H384	H	1.528116	1.109208	-0.294587
H385	H	0.857760	0.390870	-0.902526
H386	H	1.191093	0.724203	-0.569192
H387	H	1.524427	1.057537	-0.235859
H388	H	0.913094	0.446280	-0.902502
H389	H	1.246427	0.779613	-0.569169
H390	H	1.579761	1.112947	-0.235836
H391	H	0.364763	0.247616	-0.404822
H392	H	0.698097	0.580950	-0.071489
H393	H	1.031430	0.914283	0.261845
