data_functionalizedCrystal
_audit_creation_method	'MofGen! by Chris Wilmer'
_symmetry_space_group_name_H-M	'P1'
_symmetry_Int_Tables_number	1
_symmetry_cell_setting	triclinic
loop_
_symmetry_equiv_pos_as_xyz
  x,y,z
_cell_length_a	12.594517
_cell_length_b	12.594516
_cell_length_c	12.759393
_cell_angle_alpha	89.970826
_cell_angle_beta	89.978044
_cell_angle_gamma	90.015853
loop_
_atom_site_label
_atom_site_type_symbol
_atom_site_fract_x
_atom_site_fract_y
_atom_site_fract_z
Zn1	Zn	1.627274	-0.423684	-0.594097
Zn2	Zn	1.627162	-0.601704	-0.418425
Zn3	Zn	1.449275	-0.423739	-0.418426
Zn4	Zn	1.449260	-0.601621	-0.594056
O5	O	1.538243	-0.512687	-0.506251
O6	O	1.776205	-0.447311	-0.570811
O7	O	1.603526	-0.578154	-0.271404
O8	O	1.472940	-0.274786	-0.441747
O9	O	1.776123	-0.578101	-0.441745
O10	O	1.603715	-0.274746	-0.570812
O11	O	1.472833	-0.447404	-0.271405
O12	O	1.300328	-0.447324	-0.441707
O13	O	1.472913	-0.577959	-0.741082
O14	O	1.300316	-0.578012	-0.570741
O15	O	1.603700	-0.447230	-0.741113
O16	O	1.603510	-0.750639	-0.441705
O17	O	1.472806	-0.750578	-0.570740
C18	C	1.261702	-0.512666	-0.506220
C19	C	1.143396	-0.512682	-0.506232
C20	C	1.074119	-0.441504	-0.436184
C21	C	1.003307	-0.538594	-0.410346
C22	C	1.003409	-0.415640	-0.532088
C23	C	1.074143	-0.609823	-0.480343
C24	C	1.074251	-0.486804	-0.602130
C25	C	1.003472	-0.583961	-0.576328
C26	C	1.538173	-0.789228	-0.506241
C27	C	1.538241	-0.907533	-0.506271
C28	C	1.467144	-0.976792	-0.576404
C29	C	1.441209	-1.047662	-0.480536
C30	C	1.564272	-1.047462	-0.602156
C31	C	1.512255	-0.976846	-0.410353
C32	C	1.635363	-0.976639	-0.532037
C33	C	1.609465	-1.047477	-0.436103
C34	C	1.815864	-0.512709	-0.506283
C35	C	1.934169	-0.512719	-0.506296
C36	C	1.538317	-0.512579	-0.780284
C37	C	1.538349	-0.512534	-0.897061
C38	C	1.538342	-0.235066	-0.506284
C39	C	1.538384	-0.116761	-0.506299
C40	C	1.470322	-0.444440	-0.951923
C41	C	1.470346	-0.444407	-1.061647
C42	C	1.606435	-0.580565	-1.061638
C43	C	1.606404	-0.580602	-0.951916
C44	C	1.538230	-0.512717	-0.233284
C45	C	1.538405	-0.512464	-0.116507
H46	H	0.972148	-0.560505	-0.329274
H47	H	0.972282	-0.333568	-0.553894
H48	H	1.717412	-0.945422	-0.553853
C49	C	1.395517	-0.369492	-1.121990
N50	N	1.339153	-0.313061	-1.167440
C51	C	1.690770	-1.089152	-0.355903
N52	N	1.752004	-1.120545	-0.295494
C53	C	1.115940	-0.720744	-0.450701
N54	N	1.147424	-0.804287	-0.428369
C55	C	1.681058	-0.655669	-1.121988
N56	N	1.737182	-0.712322	-1.167442
C57	C	1.593940	-1.089368	-0.711687
N58	N	1.616278	-1.120927	-0.794189
C59	C	1.385774	-0.934850	-0.656407
N60	N	1.324485	-0.903256	-0.716658
C61	C	1.681263	-0.655495	-0.891564
N62	N	1.737649	-0.711897	-0.846107
H63	H	0.972647	-0.644240	-0.635593
C64	C	1.116035	-0.360268	-0.356060
N65	N	1.147608	-0.299087	-0.295709
C66	C	1.116392	-0.457158	-0.711619
N67	N	1.148138	-0.434816	-0.794085
H68	H	1.359141	-1.078882	-0.458766
C69	C	1.482455	-0.935117	-0.300791
N70	N	1.460004	-0.903684	-0.218272
C71	C	1.395450	-0.369571	-0.891587
N72	N	1.339052	-0.313181	-0.846145
