data_functionalizedCrystal
_audit_creation_method	'MofGen! by Chris Wilmer'
_symmetry_space_group_name_H-M	'P1'
_symmetry_Int_Tables_number	1
_symmetry_cell_setting	triclinic
loop_
_symmetry_equiv_pos_as_xyz
  x,y,z
_cell_length_a	19.077212
_cell_length_b	29.839131
_cell_length_c	19.076919
_cell_angle_alpha	87.732541
_cell_angle_beta	90.114942
_cell_angle_gamma	92.333380
loop_
_atom_site_label
_atom_site_type_symbol
_atom_site_fract_x
_atom_site_fract_y
_atom_site_fract_z
Zn1	Zn	1.058217	-0.163090	0.440566
Zn2	Zn	1.391551	0.170243	0.773899
Zn3	Zn	1.724884	0.503577	1.107232
Zn4	Zn	1.062824	-0.235086	0.323051
Zn5	Zn	1.396158	0.098247	0.656385
Zn6	Zn	1.729491	0.431580	0.989718
Zn7	Zn	0.945433	-0.162853	0.318341
Zn8	Zn	1.278766	0.170480	0.651675
Zn9	Zn	1.612100	0.503813	0.985008
Zn10	Zn	0.940641	-0.241079	0.435784
Zn11	Zn	1.273974	0.092255	0.769117
Zn12	Zn	1.607307	0.425588	1.102450
O13	O	1.001779	-0.200527	0.379436
O14	O	1.335112	0.132806	0.712769
O15	O	1.668445	0.466140	1.046102
O16	O	1.157163	-0.170232	0.428950
O17	O	1.490497	0.163102	0.762283
O18	O	1.823830	0.496435	1.095616
O19	O	1.051186	-0.222898	0.224096
O20	O	1.384519	0.110436	0.557429
O21	O	1.717852	0.443769	0.890763
O22	O	0.960472	-0.100016	0.334585
O23	O	1.293805	0.233317	0.667918
O24	O	1.627138	0.566650	1.001252
O25	O	1.160548	-0.223127	0.342612
O26	O	1.493881	0.110206	0.675945
O27	O	1.827215	0.443540	1.009279
O28	O	1.043334	-0.100190	0.424383
O29	O	1.376667	0.233143	0.757716
O30	O	1.710000	0.566476	1.091049
O31	O	0.964939	-0.169828	0.220636
O32	O	1.298272	0.163505	0.553969
O33	O	1.631605	0.496838	0.887302
O34	O	0.846462	-0.175639	0.329948
O35	O	1.179796	0.157694	0.663281
O36	O	1.513129	0.491028	0.996615
O37	O	0.952304	-0.233340	0.534748
O38	O	1.285637	0.099993	0.868082
O39	O	1.618971	0.433326	1.201415
O40	O	0.842941	-0.233111	0.416232
O41	O	1.176275	0.100222	0.749566
O42	O	1.509608	0.433556	1.082899
O43	O	1.038687	-0.176042	0.538262
O44	O	1.372020	0.157291	0.871595
O45	O	1.705354	0.490624	1.204928
O46	O	1.046539	-0.298750	0.337975
O47	O	1.379872	0.034584	0.671309
O48	O	1.713205	0.367917	1.004642
O49	O	0.956771	-0.303152	0.420799
O50	O	1.290104	0.030181	0.754133
O51	O	1.623438	0.363514	1.087466
C52	C	0.819205	-0.205000	0.372061
C53	C	1.152538	0.128333	0.705394
C54	C	1.485871	0.461667	1.038727
C55	C	0.741098	-0.206925	0.368922
C56	C	1.074431	0.126409	0.702256
C57	C	1.407765	0.459742	1.035589
C58	C	0.301628	-0.220711	0.346446
C59	C	0.634962	0.112622	0.679779
C60	C	0.968295	0.445955	1.013113
C61	C	0.375018	-0.218900	0.349389
C62	C	0.708351	0.114433	0.682723
C63	C	1.041685	0.447767	1.016056
C64	C	0.409950	-0.190504	0.395886
C65	C	0.743283	0.142830	0.729219
C66	C	1.076616	0.476163	1.062552
C67	C	0.371488	-0.163913	0.439436
C68	C	0.704821	0.169420	0.772770
C69	C	1.038155	0.502753	1.106103
C70	C	0.298100	-0.165722	0.436489
C71	C	0.631433	0.167611	0.769822
C72	C	0.964766	0.500944	1.103156
C73	C	0.629248	-0.182143	0.409525
C74	C	0.962581	0.151190	0.742859
C75	C	1.295915	0.484523	1.076192
C76	C	0.702642	-0.180337	0.412471
C77	C	1.035975	0.152996	0.745804
C78	C	1.369308	0.486329	1.079138
C79	C	0.706167	-0.235324	0.322423
C80	C	1.039500	0.098010	0.655756
C81	C	1.372833	0.431343	0.989090
C82	C	0.632777	-0.237132	0.319483
C83	C	0.966110	0.096201	0.652816
C84	C	1.299443	0.429534	0.986149
C85	C	0.594321	-0.210540	0.363030
C86	C	0.927655	0.122793	0.696364
C87	C	1.260988	0.456127	1.029697
N88	N	0.484966	-0.188653	0.398897
N89	N	0.818299	0.144680	0.732230
N90	N	1.151632	0.478014	1.065564
N91	N	0.519307	-0.212389	0.360015
N92	N	0.852640	0.120944	0.693348
N93	N	1.185974	0.454278	1.026682
C94	C	1.001653	-0.317252	0.379396
C95	C	1.334987	0.016081	0.712729
C96	C	1.668320	0.349415	1.046062
C97	C	1.001663	-0.367186	0.379405
C98	C	1.334996	-0.033853	0.712738
C99	C	1.668330	0.299480	1.046071
C100	C	1.048600	-0.674522	0.336378
C101	C	1.381933	-0.341189	0.669711
C102	C	1.715267	-0.007855	1.003045
C103	C	1.048686	-0.862194	0.336409
C104	C	1.382019	-0.528860	0.669742
C105	C	1.715352	-0.195527	1.003075
O106	O	1.088493	-0.884498	0.299795
O107	O	1.421827	-0.551165	0.633128
O108	O	1.755160	-0.217832	0.966462
N109	N	1.001922	-0.887967	0.379494
N110	N	1.335256	-0.554634	0.712828
N111	N	1.668589	-0.221300	1.046161
C112	C	0.955138	-0.866820	0.422579
C113	C	1.288471	-0.533486	0.755912
C114	C	1.621804	-0.200153	1.089245
O115	O	0.915369	-0.893048	0.459232
O116	O	1.248703	-0.559714	0.792565
O117	O	1.582036	-0.226381	1.125899
C118	C	0.955056	-0.679149	0.422551
C119	C	1.288389	-0.345815	0.755885
C120	C	1.621723	-0.012482	1.089218
C121	C	1.001817	-0.653378	0.379458
C122	C	1.335151	-0.320045	0.712791
C123	C	1.668484	0.013289	1.046124
C124	C	1.095358	-0.648751	0.293288
C125	C	1.428691	-0.315418	0.626622
C126	C	1.762025	0.017915	0.959955
C127	C	1.095334	-0.601836	0.293278
C128	C	1.428667	-0.268503	0.626612
C129	C	1.762000	0.064830	0.959945
C130	C	1.048551	-0.580692	0.336358
C131	C	1.381884	-0.247359	0.669691
C132	C	1.715218	0.085975	1.003024
C133	C	1.001793	-0.606463	0.379447
C134	C	1.335126	-0.273129	0.712781
C135	C	1.668459	0.060204	1.046114
C136	C	0.908275	-0.658002	0.465639
C137	C	1.241608	-0.324669	0.798972
C138	C	1.574942	0.008664	1.132306
C139	C	0.908260	-0.611081	0.465629
C140	C	1.241593	-0.277748	0.798963
C141	C	1.574927	0.055585	1.132296
C142	C	0.955021	-0.585310	0.422536
C143	C	1.288355	-0.251977	0.755869
C144	C	1.621688	0.081356	1.089202
C145	C	0.954986	-0.538403	0.422517
C146	C	1.288319	-0.205070	0.755850
C147	C	1.621652	0.128263	1.089184
N148	N	1.001749	-0.512630	0.379431
N149	N	1.335082	-0.179297	0.712765
N150	N	1.668416	0.154036	1.046098
C151	C	1.048531	-0.533774	0.336352
C152	C	1.381865	-0.200441	0.669685
C153	C	1.715198	0.132892	1.003018
C154	C	0.955183	-0.965349	0.422589
C155	C	1.288516	-0.632016	0.755923
C156	C	1.621849	-0.298683	1.089256
C157	C	0.955202	-1.012267	0.422595
C158	C	1.288536	-0.678933	0.755929
C159	C	1.621869	-0.345600	1.089262
C160	C	1.048751	-1.007638	0.336426
C161	C	1.382085	-0.674304	0.669759
C162	C	1.715418	-0.340971	1.003093
C163	C	1.048728	-0.960719	0.336417
C164	C	1.382061	-0.627386	0.669750
C165	C	1.715395	-0.294053	1.003083
C166	C	1.001946	-0.939576	0.379504
C167	C	1.335279	-0.606243	0.712837
C168	C	1.668613	-0.272909	1.046170
C169	C	1.048476	-0.435250	0.336333
C170	C	1.381809	-0.101916	0.669667
C171	C	1.715143	0.231417	1.003000
C172	C	1.048446	-0.388331	0.336325
C173	C	1.381779	-0.054997	0.669658
C174	C	1.715112	0.278336	1.002992
C175	C	0.954899	-0.392964	0.422497
C176	C	1.288233	-0.059630	0.755830
C177	C	1.621566	0.273703	1.089163
C178	C	0.954927	-0.439879	0.422503
C179	C	1.288260	-0.106545	0.755836
C180	C	1.621594	0.226788	1.089169
C181	C	1.001721	-0.461020	0.379419
C182	C	1.335055	-0.127687	0.712752
C183	C	1.668388	0.205646	1.046086
O184	O	0.915204	-0.516069	0.459117
O185	O	1.248537	-0.182736	0.792451
O186	O	1.581871	0.150598	1.125784
O187	O	1.088304	-0.507539	0.299716
O188	O	1.421638	-0.174205	0.633049
O189	O	1.754971	0.159128	0.966382
C190	C	1.048624	-0.721437	0.336388
C191	C	1.381958	-0.388104	0.669721
C192	C	1.715291	-0.054771	1.003055
C193	C	1.001866	-0.747208	0.379478
C194	C	1.335200	-0.413875	0.712811
C195	C	1.668533	-0.080541	1.046144
C196	C	0.955084	-0.726064	0.422557
C197	C	1.288417	-0.392730	0.755891
C198	C	1.621750	-0.059397	1.089224
C199	C	1.001886	-0.794126	0.379484
C200	C	1.335219	-0.460792	0.712817
C201	C	1.668552	-0.127459	1.046150
C202	C	1.048668	-0.815270	0.336404
C203	C	1.382002	-0.481936	0.669738
C204	C	1.715335	-0.148603	1.003071
C205	C	1.095431	-0.789497	0.293319
C206	C	1.428765	-0.456163	0.626652
C207	C	1.762098	-0.122830	0.959985
C208	C	1.095407	-0.742581	0.293308
C209	C	1.428740	-0.409248	0.626642
C210	C	1.762074	-0.075915	0.959975
C211	C	0.908320	-0.751837	0.465643
C212	C	1.241654	-0.418504	0.798976
C213	C	1.574987	-0.085170	1.132310
C214	C	0.908348	-0.798752	0.465649
C215	C	1.241682	-0.465419	0.798982
C216	C	1.575015	-0.132085	1.132316
C217	C	0.955131	-0.819896	0.422569
C218	C	1.288464	-0.486563	0.755903
C219	C	1.621797	-0.153230	1.089236
C220	C	1.185066	-0.196037	0.386840
C221	C	1.518399	0.137296	0.720173
C222	C	1.851732	0.470630	1.053506
C223	C	1.263172	-0.194124	0.389995
C224	C	1.596505	0.139210	0.723328
C225	C	1.929838	0.472543	1.056662
C226	C	0.994447	-0.205386	0.562714
C227	C	1.327780	0.127947	0.896047
C228	C	1.661114	0.461281	1.229381
C229	C	0.991323	-0.207457	0.640816
C230	C	1.324656	0.125877	0.974150
C231	C	1.657989	0.459210	1.307483
C232	C	1.001923	-0.083346	0.379492
C233	C	1.335257	0.249987	0.712825
C234	C	1.668590	0.583320	1.046158
C235	C	1.001985	-0.033411	0.379516
C236	C	1.335318	0.299922	0.712849
C237	C	1.668652	0.633256	1.046182
C238	C	1.009123	-0.195654	0.196872
C239	C	1.342456	0.137680	0.530205
C240	C	1.675789	0.471013	0.863538
C241	C	1.012383	-0.193453	0.118775
C242	C	1.345716	0.139880	0.452109
C243	C	1.679050	0.473214	0.785442
C244	C	1.034827	-0.178599	0.679339
C245	C	1.368161	0.154735	1.012673
C246	C	1.701494	0.488068	1.346006
C247	C	1.031883	-0.180543	0.752724
C248	C	1.365216	0.152791	1.086058
C249	C	1.698550	0.486124	1.419391
C250	C	0.985437	-0.211347	0.787585
C251	C	1.318770	0.121986	1.120919
C252	C	1.652104	0.455319	1.454252
C253	C	0.941927	-0.240206	0.749057
C254	C	1.275261	0.093127	1.082390
C255	C	1.608594	0.426460	1.415724
C256	C	0.944869	-0.238260	0.675673
C257	C	1.278202	0.095073	1.009007
C258	C	1.611535	0.428407	1.342340
C259	C	0.971815	-0.220366	1.006863
C260	C	1.305148	0.112968	1.340197
C261	C	1.638481	0.446301	1.673530
C262	C	0.968878	-0.222311	1.080252
C263	C	1.302212	0.111022	1.413586
C264	C	1.635545	0.444356	1.746919
C265	C	1.058833	-0.162647	1.083915
C266	C	1.392167	0.170687	1.417248
C267	C	1.725500	0.504020	1.750581
C268	C	1.061773	-0.160705	1.010529
C269	C	1.395107	0.172629	1.343863
C270	C	1.728440	0.505962	1.677196
C271	C	1.018261	-0.189562	0.972007
C272	C	1.351595	0.143771	1.305341
C273	C	1.684928	0.477105	1.638674
N274	N	0.982428	-0.213336	0.862597
N275	N	1.315761	0.119997	1.195930
N276	N	1.649095	0.453331	1.529263
N277	N	1.021267	-0.187571	0.896997
N278	N	1.354601	0.145763	1.230330
N279	N	1.687934	0.479096	1.563664
H280	H	1.086524	-0.367349	0.301230
H281	H	1.419858	-0.034016	0.634564
H282	H	1.753191	0.299318	0.967897
C283	C	0.586957	-0.152894	0.457435
C284	C	0.920290	0.180439	0.790768
C285	C	1.253623	0.513772	1.124102
N286	N	0.555100	-0.130863	0.493524
N287	N	0.888433	0.202470	0.826858
N288	N	1.221767	0.535803	1.160191
C289	C	1.099948	-0.458498	0.288935
C290	C	1.433281	-0.125165	0.622268
C291	C	1.766615	0.208168	0.955601
N292	N	1.138713	-0.476009	0.253230
N293	N	1.472046	-0.142676	0.586563
N294	N	1.805380	0.190658	0.919896
H295	H	0.737485	-0.256973	0.286968
H296	H	1.070818	0.076360	0.620302
H297	H	1.404151	0.409693	0.953635
C298	C	1.146892	-0.812764	0.245930
C299	C	1.480225	-0.479431	0.579263
C300	C	1.813558	-0.146098	0.912597
N301	N	1.185652	-0.830292	0.210242
N302	N	1.518985	-0.496959	0.543575
N303	N	1.852318	-0.163625	0.876908
C304	C	1.100171	-0.932376	0.289013
C305	C	1.433504	-0.599042	0.622346
C306	C	1.766837	-0.265709	0.955680
N307	N	1.138921	-0.911029	0.253308
N308	N	1.472254	-0.577696	0.586641
N309	N	1.805587	-0.244363	0.919974
C310	C	0.917780	-0.256199	1.118598
C311	C	1.251113	0.077135	1.451931
C312	C	1.584446	0.410468	1.785264
N313	N	0.879294	-0.281721	1.147480
N314	N	1.212628	0.051612	1.480813
N315	N	1.545961	0.384945	1.814146
H316	H	1.067311	-0.157045	0.784087
H317	H	1.400644	0.176289	1.117420
H318	H	1.733978	0.509622	1.450753
H319	H	0.731081	-0.157210	0.450333
H320	H	1.064414	0.176123	0.783666
H321	H	1.397747	0.509456	1.117000
H322	H	0.916807	-0.375741	0.457570
H323	H	1.250141	-0.042407	0.790903
H324	H	1.583474	0.290926	1.124236
H325	H	1.133413	-0.580856	0.258190
H326	H	1.466746	-0.247523	0.591523
H327	H	1.800079	0.085811	0.924857
C328	C	1.106685	-0.130900	1.126294
C329	C	1.440018	0.202433	1.459627
C330	C	1.773352	0.535766	1.792961
N331	N	1.142725	-0.106985	1.158214
N332	N	1.476058	0.226348	1.491548
N333	N	1.809392	0.559681	1.824881
H334	H	1.072651	-0.153516	0.650961
H335	H	1.405984	0.179818	0.984294
H336	H	1.739318	0.513151	1.317628
H337	H	0.870263	-0.819731	0.500740
H338	H	1.203597	-0.486398	0.834073
H339	H	1.536930	-0.153064	1.167407
C340	C	0.856871	-0.728585	0.513056
C341	C	1.190204	-0.395252	0.846390
C342	C	1.523538	-0.061918	1.179723
N343	N	0.818121	-0.711074	0.548776
N344	N	1.151454	-0.377741	0.882109
N345	N	1.484787	-0.044407	1.215443
H346	H	0.399935	-0.140790	0.477292
H347	H	0.733269	0.192543	0.810625
H348	H	1.066602	0.525876	1.143958
H349	H	1.133485	-0.721602	0.258218
H350	H	1.466818	-0.388269	0.591551
H351	H	1.800151	-0.054935	0.924884
C352	C	1.100216	-1.030905	0.289042
C353	C	1.433550	-0.697572	0.622375
C354	C	1.766883	-0.364238	0.955709
N355	N	1.138982	-1.048432	0.253359
N356	N	1.472315	-0.715099	0.586692
N357	N	1.805648	-0.381766	0.920025
C358	C	1.112861	-0.126813	0.972187
C359	C	1.446194	0.206520	1.305521
C360	C	1.779527	0.539854	1.638854
N361	N	1.151340	-0.101285	0.943308
N362	N	1.484673	0.232049	1.276642
N363	N	1.818006	0.565382	1.609975
H364	H	0.266789	-0.144070	0.471949
H365	H	0.600123	0.189263	0.805282
H366	H	0.933456	0.522596	1.138615
C367	C	1.146824	-0.672002	0.245889
C368	C	1.480157	-0.338669	0.579222
C369	C	1.813490	-0.005336	0.912556
N370	N	1.185586	-0.689511	0.210180
N371	N	1.518920	-0.356178	0.543513
N372	N	1.852253	-0.022845	0.876847
C373	C	0.856795	-0.587827	0.513030
C374	C	1.190128	-0.254494	0.846363
C375	C	1.523462	0.078840	1.179697
N376	N	0.818030	-0.570313	0.548731
N377	N	1.151364	-0.236979	0.882064
N378	N	1.484697	0.096354	1.215398
H379	H	0.936394	-0.243870	0.975508
H380	H	1.269728	0.089463	1.308841
H381	H	1.603061	0.422797	1.642174
H382	H	0.917086	-0.948138	0.457677
H383	H	1.250419	-0.614805	0.791010
H384	H	1.583752	-0.281471	1.124343
C385	C	0.890829	-0.274088	0.787407
C386	C	1.224163	0.059246	1.120740
C387	C	1.557496	0.392579	1.454073
N388	N	0.852341	-0.299607	0.816291
N389	N	1.185674	0.033726	1.149624
N390	N	1.519007	0.367059	1.482957
C391	C	0.903485	-0.468228	0.469905
C392	C	1.236818	-0.134894	0.803238
C393	C	1.570152	0.198439	1.136572
N394	N	0.864743	-0.489577	0.505615
N395	N	1.198076	-0.156244	0.838949
N396	N	1.531410	0.177090	1.172282
C397	C	0.897011	-0.270007	0.633298
C398	C	1.230344	0.063327	0.966632
C399	C	1.563678	0.396660	1.299965
N400	N	0.860962	-0.293919	0.601382
N401	N	1.194295	0.039415	0.934716
N402	N	1.527628	0.372748	1.268049
H403	H	0.870194	-0.678977	0.500727
H404	H	1.203527	-0.345644	0.834060
H405	H	1.536860	-0.012311	1.167394
C406	C	0.263210	-0.251949	0.295295
C407	C	0.596544	0.081384	0.628628
C408	C	0.929877	0.414717	0.961962
N409	N	0.234276	-0.275477	0.256764
N410	N	0.567609	0.057856	0.590097
N411	N	0.900943	0.391190	0.923431
C412	C	0.594358	-0.268364	0.268323
C413	C	0.927691	0.064969	0.601657
C414	C	1.261024	0.398303	0.934990
N415	N	0.565421	-0.291887	0.229788
N416	N	0.898754	0.041446	0.563121
N417	N	1.232087	0.374779	0.896454
C418	C	0.417317	-0.248149	0.301482
C419	C	0.750650	0.085185	0.634815
C420	C	1.083984	0.418518	0.968149
N421	N	0.449176	-0.270180	0.265396
N422	N	0.782509	0.063153	0.598729
N423	N	1.115843	0.396487	0.932062
H424	H	0.917118	-1.033246	0.457680
H425	H	1.250451	-0.699912	0.791013
H426	H	1.583785	-0.366579	1.124346
