data_functionalizedCrystal
_audit_creation_method	'MofGen! by Chris Wilmer'
_symmetry_space_group_name_H-M	'P1'
_symmetry_Int_Tables_number	1
_symmetry_cell_setting	triclinic
loop_
_symmetry_equiv_pos_as_xyz
  x,y,z
_cell_length_a	16.120530
_cell_length_b	16.120507
_cell_length_c	16.120297
_cell_angle_alpha	95.611825
_cell_angle_beta	89.871860
_cell_angle_gamma	89.824460
loop_
_atom_site_label
_atom_site_type_symbol
_atom_site_fract_x
_atom_site_fract_y
_atom_site_fract_z
Zn1	Zn	1.224927	0.422262	0.554794
Zn2	Zn	1.474927	0.672262	0.804794
Zn3	Zn	1.724927	0.922262	1.054794
Zn4	Zn	1.974927	1.172262	1.304794
Zn5	Zn	1.224803	0.554945	0.422093
Zn6	Zn	1.474803	0.804945	0.672093
Zn7	Zn	1.724803	1.054945	0.922093
Zn8	Zn	1.974803	1.304945	1.172093
Zn9	Zn	1.093668	0.408178	0.408037
Zn10	Zn	1.343668	0.658178	0.658037
Zn11	Zn	1.593668	0.908178	0.908037
Zn12	Zn	1.843668	1.158178	1.158037
Zn13	Zn	1.078800	0.554178	0.554026
Zn14	Zn	1.328800	0.804178	0.804026
Zn15	Zn	1.578800	1.054178	1.054026
Zn16	Zn	1.828800	1.304178	1.304026
O17	O	1.155550	0.484891	0.484738
O18	O	1.405550	0.734891	0.734738
O19	O	1.655550	0.984891	0.984738
O20	O	1.905550	1.234891	1.234738
O21	O	1.340945	0.446078	0.543395
O22	O	1.590945	0.696078	0.793395
O23	O	1.840945	0.946078	1.043395
O24	O	2.090945	1.196078	1.293395
O25	O	1.213578	0.529903	0.303596
O26	O	1.463578	0.779903	0.553596
O27	O	1.713578	1.029903	0.803596
O28	O	1.963578	1.279903	1.053596
O29	O	1.117353	0.293416	0.421944
O30	O	1.367353	0.543416	0.671944
O31	O	1.617353	0.793416	0.921944
O32	O	1.867353	1.043416	1.171944
O33	O	1.340854	0.543560	0.445900
O34	O	1.590854	0.793560	0.695900
O35	O	1.840854	1.043560	0.945900
O36	O	2.090854	1.293560	1.195900
O37	O	1.213789	0.303764	0.529766
O38	O	1.463789	0.553764	0.779766
O39	O	1.713789	0.803764	1.029766
O40	O	1.963789	1.053764	1.279766
O41	O	1.117234	0.422074	0.293269
O42	O	1.367234	0.672074	0.543269
O43	O	1.617234	0.922074	0.793269
O44	O	1.867234	1.172074	1.043269
O45	O	0.975661	0.421330	0.421199
O46	O	1.225661	0.671330	0.671199
O47	O	1.475661	0.921330	0.921199
O48	O	1.725661	1.171330	1.171199
O49	O	1.092014	0.542252	0.670760
O50	O	1.342014	0.792252	0.920760
O51	O	1.592014	1.042252	1.170760
O52	O	1.842014	1.292252	1.420760
O53	O	0.964738	0.528595	0.528456
O54	O	1.214738	0.778595	0.778456
O55	O	1.464738	1.028595	1.028456
O56	O	1.714738	1.278595	1.278456
O57	O	1.199372	0.445334	0.671325
O58	O	1.449372	0.695334	0.921325
O59	O	1.699372	0.945334	1.171325
O60	O	1.949372	1.195334	1.421325
O61	O	1.199162	0.671474	0.445155
O62	O	1.449162	0.921474	0.695155
O63	O	1.699162	1.171474	0.945155
O64	O	1.949162	1.421474	1.195155
O65	O	1.091894	0.670910	0.542085
O66	O	1.341894	0.920910	0.792085
O67	O	1.591894	1.170910	1.042085
O68	O	1.841894	1.420910	1.292085
C69	C	0.940113	0.473351	0.473219
C70	C	1.190113	0.723351	0.723219
C71	C	1.440113	0.973351	0.973219
C72	C	1.690113	1.223351	1.223219
C73	C	0.847946	0.468436	0.468313
C74	C	1.097946	0.718436	0.718313
C75	C	1.347946	0.968436	0.968313
C76	C	1.597946	1.218436	1.218313
C77	C	0.679196	0.459442	0.459360
C78	C	0.929196	0.709442	0.709360
C79	C	1.179196	0.959442	0.959360
C80	C	1.429196	1.209442	1.209360
C81	C	0.632737	0.510404	0.510179
C82	C	0.882737	0.760404	0.760179
C83	C	1.132737	1.010404	1.010179
C84	C	1.382737	1.260404	1.260179
C85	C	0.538839	0.505400	0.505197
C86	C	0.788839	0.755400	0.755197
C87	C	1.038839	1.005400	1.005197
C88	C	1.288839	1.255400	1.255197
C89	C	0.773103	0.464445	0.464340
C90	C	1.023103	0.714445	0.714340
C91	C	1.273103	0.964445	0.964340
C92	C	1.523103	1.214445	1.214340
C93	C	1.143923	0.701435	0.495081
C94	C	1.393923	0.951435	0.745081
C95	C	1.643923	1.201435	0.995081
C96	C	1.893923	1.451435	1.245081
C97	C	1.139023	0.794078	0.499538
C98	C	1.389023	1.044078	0.749538
C99	C	1.639023	1.294078	0.999538
C100	C	1.889023	1.544078	1.249538
C101	C	1.181035	1.005235	0.461749
C102	C	1.431035	1.255235	0.711749
C103	C	1.681035	1.505235	0.961749
C104	C	1.931035	1.755235	1.211749
C105	C	1.130093	0.963695	0.507685
C106	C	1.380093	1.213695	0.757685
C107	C	1.630093	1.463695	1.007685
C108	C	1.880093	1.713695	1.257685
C109	C	1.135063	0.869312	0.503151
C110	C	1.385063	1.119312	0.753151
C111	C	1.635063	1.369312	1.003151
C112	C	1.885063	1.619312	1.253151
C113	C	1.176066	1.099627	0.466283
C114	C	1.426066	1.349627	0.716283
C115	C	1.676066	1.599627	0.966283
C116	C	1.926066	1.849627	1.216283
C117	C	1.371828	0.496476	0.496301
C118	C	1.621828	0.746476	0.746301
C119	C	1.871828	0.996476	0.996301
C120	C	2.121828	1.246476	1.246301
C121	C	1.463992	0.501413	0.501229
C122	C	1.713992	0.751413	0.751229
C123	C	1.963992	1.001413	1.001229
C124	C	2.213992	1.251413	1.251229
C125	C	1.144049	0.495278	0.702129
C126	C	1.394049	0.745278	0.952129
C127	C	1.644049	0.995278	1.202129
C128	C	1.894049	1.245278	1.452129
C129	C	1.139147	0.499705	0.794769
C130	C	1.389147	0.749705	1.044769
C131	C	1.639147	0.999705	1.294769
C132	C	1.889147	1.249705	1.544769
C133	C	1.167212	1.267501	0.474359
C134	C	1.417212	1.517501	0.724359
C135	C	1.667212	1.767501	0.974359
C136	C	1.917212	2.017501	1.224359
C137	C	1.172102	1.174857	0.469899
C138	C	1.422102	1.424857	0.719899
C139	C	1.672102	1.674857	0.969899
C140	C	1.922102	1.924857	1.219899
C141	C	1.167057	0.474486	0.268191
C142	C	1.417057	0.724486	0.518191
C143	C	1.667057	0.974486	0.768191
C144	C	1.917057	1.224486	1.018191
C145	C	1.172131	0.469833	0.175550
C146	C	1.422131	0.719833	0.425550
C147	C	1.672131	0.969833	0.675550
C148	C	1.922131	1.219833	0.925550
C149	C	1.130170	0.507767	0.964380
C150	C	1.380170	0.757767	1.214380
C151	C	1.630170	1.007767	1.464380
C152	C	1.880170	1.257767	1.714380
C153	C	1.181106	0.461774	1.005944
C154	C	1.431106	0.711774	1.255944
C155	C	1.681106	0.961774	1.505944
C156	C	1.931106	1.211774	1.755944
C157	C	1.176111	0.466259	1.100321
C158	C	1.426111	0.716259	1.350321
C159	C	1.676111	0.966259	1.600321
C160	C	1.926111	1.216259	1.850321
C161	C	1.135164	0.503282	0.869994
C162	C	1.385164	0.753282	1.119994
C163	C	1.635164	1.003282	1.369994
C164	C	1.885164	1.253282	1.619994
H165	H	0.663483	0.557791	0.557427
H166	H	0.913483	0.807791	0.807427
H167	H	1.163483	1.057791	1.057427
H168	H	1.413483	1.307791	1.307427
H169	H	0.648452	0.412058	0.412116
H170	H	0.898452	0.662058	0.662116
H171	H	1.148452	0.912058	0.912116
H172	H	1.398452	1.162058	1.162116
Br173	Br	1.051176	1.022562	0.578907
Br174	Br	1.301176	1.272562	0.828907
Br175	Br	1.551176	1.522562	1.078907
Br176	Br	1.801176	1.772562	1.328907
H177	H	1.228378	0.969917	0.419020
H178	H	1.478378	1.219917	0.669020
H179	H	1.728378	1.469917	0.919020
H180	H	1.978378	1.719917	1.169020
H181	H	1.228464	0.419028	0.970649
H182	H	1.478464	0.669028	1.220649
H183	H	1.728464	0.919028	1.470649
H184	H	1.978464	1.169028	1.720649
H185	H	1.082815	0.550509	0.999673
H186	H	1.332815	0.800509	1.249673
H187	H	1.582815	1.050509	1.499673
H188	H	1.832815	1.300509	1.749673
