data_functionalizedCrystal
_audit_creation_method	'MofGen! by Chris Wilmer'
_symmetry_space_group_name_H-M	'P1'
_symmetry_Int_Tables_number	1
_symmetry_cell_setting	triclinic
loop_
_symmetry_equiv_pos_as_xyz
  x,y,z
_cell_length_a	10.654550
_cell_length_b	14.519709
_cell_length_c	13.596369
_cell_angle_alpha	89.993066
_cell_angle_beta	89.991165
_cell_angle_gamma	84.082524
loop_
_atom_site_label
_atom_site_type_symbol
_atom_site_fract_x
_atom_site_fract_y
_atom_site_fract_z
O1	O	1.666597	0.129534	-0.081875
O2	O	1.301000	0.141875	-0.081859
O3	O	1.493492	0.001516	-0.081858
O4	O	1.474105	0.269892	-0.081875
O5	O	1.493473	0.001508	0.081725
O6	O	1.300981	0.141867	0.081724
O7	O	1.666578	0.129526	0.081708
Zn8	Zn	1.483776	0.135695	0.107688
Zn9	Zn	1.483802	0.135705	-0.107839
O10	O	1.474086	0.269885	0.081708
C11	C	1.254201	0.140965	-0.000066
C12	C	1.114784	0.138254	-0.000059
C13	C	1.492579	-0.032852	-0.000067
C14	C	1.489871	-0.135247	-0.000066
C15	C	1.034504	0.220895	-0.000079
C16	C	0.903507	0.218342	-0.000096
C17	C	0.933085	0.050500	-0.000078
C18	C	1.064078	0.053054	-0.000054
C19	C	1.017426	0.317797	-0.000094
C20	C	0.886430	0.315244	-0.000110
C21	C	1.479904	-0.510195	-0.000091
C22	C	1.482672	-0.405873	-0.000084
C23	C	1.484887	-0.322725	-0.000078
C24	C	1.487656	-0.218396	-0.000072
C25	C	1.713377	0.130436	-0.000087
C26	C	1.852794	0.133147	-0.000100
C27	C	1.474999	0.304253	-0.000086
C28	C	1.477707	0.406648	-0.000093
N29	N	1.483768	0.135688	0.254780
N30	N	1.483820	0.135706	-0.254931
C31	C	1.483800	0.135706	0.656071
C32	C	1.483787	0.135704	0.544420
C33	C	1.483785	0.135698	0.455429
C34	C	1.483771	0.135695	0.343771
H35	H	0.891784	-0.018867	-0.000088
H36	H	1.129439	-0.014241	-0.000024
N37	N	1.055787	0.367990	0.090590
H38	H	1.116018	0.325106	0.131069
H39	H	1.098565	0.423950	0.070337
H40	H	1.052793	0.348656	-0.070721
H41	H	0.840469	0.344526	0.070511
N42	N	0.830698	0.363599	-0.090807
H43	H	0.785940	0.318665	-0.131272
H44	H	0.768559	0.417515	-0.070569
