data_functionalizedCrystal
_audit_creation_method	'MofGen! by Chris Wilmer'
_symmetry_space_group_name_H-M	'P1'
_symmetry_Int_Tables_number	1
_symmetry_cell_setting	triclinic
loop_
_symmetry_equiv_pos_as_xyz
  x,y,z
_cell_length_a	12.759401
_cell_length_b	16.120484
_cell_length_c	12.759393
_cell_angle_alpha	92.864008
_cell_angle_beta	89.979062
_cell_angle_gamma	92.926992
loop_
_atom_site_label
_atom_site_type_symbol
_atom_site_fract_x
_atom_site_fract_y
_atom_site_fract_z
Zn1	Zn	1.584985	-0.331832	-0.615183
Zn2	Zn	1.575933	-0.471268	-0.448395
Zn3	Zn	1.409280	-0.331877	-0.439521
Zn4	Zn	1.400336	-0.471209	-0.624029
O5	O	1.492634	-0.401546	-0.531782
O6	O	1.730804	-0.350334	-0.593070
O7	O	1.553781	-0.452820	-0.300200
O8	O	1.440119	-0.215205	-0.455406
O9	O	1.724154	-0.452777	-0.470532
O10	O	1.569208	-0.215173	-0.584465
O11	O	1.431342	-0.350410	-0.293680
O12	O	1.261073	-0.350354	-0.463984
O13	O	1.424875	-0.452678	-0.769874
O14	O	1.254502	-0.452721	-0.599541
O15	O	1.560535	-0.350278	-0.763375
O16	O	1.545108	-0.587925	-0.479110
O17	O	1.416098	-0.587883	-0.608147
C18	C	1.219667	-0.401536	-0.531760
C19	C	1.102889	-0.401552	-0.531777
C20	C	1.044628	-0.454936	-0.602261
C21	C	0.934904	-0.454939	-0.602282
C22	C	0.941712	-0.348172	-0.461326
C23	C	1.051434	-0.348166	-0.461311
C24	C	1.478679	-0.618154	-0.545574
C25	C	1.472805	-0.710820	-0.551509
C26	C	1.462088	-0.880481	-0.562368
C27	C	1.523367	-0.921772	-0.501213
C28	C	1.517404	-1.016177	-0.507255
C29	C	1.468050	-0.786067	-0.556327
C30	C	1.766666	-0.401557	-0.531804
C31	C	1.883442	-0.401562	-0.531814
C32	C	1.492717	-0.401466	-0.805810
C33	C	1.492753	-0.401432	-0.922585
C34	C	1.506671	-0.184093	-0.517959
C35	C	1.512653	-0.091427	-0.512068
C36	C	1.563397	-0.348104	-0.974064
C37	C	1.563417	-0.348068	-1.083786
C38	C	1.422146	-0.454696	-1.090540
C39	C	1.422122	-0.454727	-0.980820
C40	C	1.492614	-0.401566	-0.258816
C41	C	1.492797	-0.401365	-0.142027
H42	H	0.887472	-0.498408	-0.659679
O43	O	1.353445	-0.506496	-1.146952
C44	C	1.213370	-0.612300	-1.142072
C45	C	1.291099	-0.553661	-1.078061
H46	H	1.162958	-0.650461	-1.086402
H47	H	1.160845	-0.574050	-1.190976
H48	H	1.258825	-0.655845	-1.196242
H49	H	1.245730	-0.510104	-1.023834
H50	H	1.343624	-0.591963	-1.029227
H51	H	1.086519	-0.498404	-0.659642
O52	O	1.394294	-0.922977	-0.630289
C53	C	1.373989	-1.021308	-0.778319
C54	C	1.450880	-0.973235	-0.701459
H55	H	1.419710	-1.061941	-0.835893
H56	H	1.316572	-1.062203	-0.732646
H57	H	1.328757	-0.975317	-0.823366
H58	H	1.496184	-1.019167	-0.656393
H59	H	1.508228	-0.932328	-0.747192
O60	O	1.353639	-0.506575	-0.930693
C61	C	1.332212	-0.619196	-0.814008
C62	C	1.409881	-0.560525	-0.870696
H63	H	1.377654	-0.662841	-0.765504
H64	H	1.279754	-0.580974	-0.760131
H65	H	1.281719	-0.657248	-0.874493
H66	H	1.460444	-0.522460	-0.810287
H67	H	1.462267	-0.598794	-0.924592
H68	H	0.899804	-0.304708	-0.403953
H69	H	1.098873	-0.304689	-0.403914
O70	O	1.631894	-0.296210	-0.917534
C71	C	1.692078	-0.154408	-0.875017
C72	C	1.614431	-0.213087	-0.939072
H73	H	1.678001	-0.087191	-0.892424
H74	H	1.679933	-0.163514	-0.787736
H75	H	1.775844	-0.169087	-0.897527
H76	H	1.530634	-0.198444	-0.916652
H77	H	1.626667	-0.203969	-1.026338
O78	O	1.591146	-0.879331	-0.433215
C79	C	1.611426	-0.780942	-0.285242
C80	C	1.534559	-0.828971	-0.362165
H81	H	1.565708	-0.740201	-0.227793
H82	H	1.656606	-0.826887	-0.240066
H83	H	1.668889	-0.740134	-0.330978
H84	H	1.477032	-0.869780	-0.316511
H85	H	1.489455	-0.782981	-0.407343
O86	O	1.631896	-0.296175	-1.133830
C87	C	1.653325	-0.183603	-1.250589
C88	C	1.575656	-0.242314	-1.193960
H89	H	1.607886	-0.140054	-1.299235
H90	H	1.703780	-0.145459	-1.190156
H91	H	1.705820	-0.221880	-1.304359
H92	H	1.523093	-0.204101	-1.140193
H93	H	1.525274	-0.280461	-1.254450
