data_functionalizedCrystal
_audit_creation_method	'MofGen! by Chris Wilmer'
_symmetry_space_group_name_H-M	'P1'
_symmetry_Int_Tables_number	1
_symmetry_cell_setting	triclinic
loop_
_symmetry_equiv_pos_as_xyz
  x,y,z
_cell_length_a	12.759395
_cell_length_b	16.120484
_cell_length_c	12.759387
_cell_angle_alpha	87.136424
_cell_angle_beta	90.020509
_cell_angle_gamma	92.926975
loop_
_atom_site_label
_atom_site_type_symbol
_atom_site_fract_x
_atom_site_fract_y
_atom_site_fract_z
Zn1	Zn	1.584987	-0.331828	0.615167
Zn2	Zn	1.575935	-0.471265	0.448379
Zn3	Zn	1.409282	-0.331874	0.439506
Zn4	Zn	1.400339	-0.471205	0.624015
O5	O	1.492636	-0.401543	0.531767
O6	O	1.730807	-0.350331	0.593052
O7	O	1.553783	-0.452818	0.300184
O8	O	1.440121	-0.215202	0.455392
O9	O	1.724157	-0.452774	0.470514
O10	O	1.569211	-0.215169	0.584449
O11	O	1.431344	-0.350408	0.293665
O12	O	1.261075	-0.350350	0.463971
O13	O	1.424878	-0.452673	0.769859
O14	O	1.254504	-0.452717	0.599529
O15	O	1.560539	-0.350273	0.763359
O16	O	1.545111	-0.587922	0.479094
O17	O	1.416101	-0.587879	0.608132
C18	C	1.219669	-0.401533	0.531748
C19	C	1.102891	-0.401549	0.531766
C20	C	1.478681	-0.618150	0.545559
C21	C	1.472808	-0.710816	0.551495
C22	C	1.096077	-0.508315	0.672716
C23	C	1.037808	-0.561705	0.743194
C24	C	0.928086	-0.561715	0.743207
C25	C	0.876630	-0.508328	0.672737
C26	C	0.934899	-0.454938	0.602259
C27	C	1.044623	-0.454935	0.602251
C28	C	0.941713	-0.348169	0.461316
C29	C	1.051436	-0.348161	0.461296
C30	C	0.890258	-0.294781	0.390846
C31	C	0.948526	-0.241394	0.320361
C32	C	1.058255	-0.241387	0.320350
C33	C	1.109704	-0.294771	0.390818
C34	C	1.462090	-0.880477	0.562353
C35	C	1.523370	-0.921768	0.501198
C36	C	1.517406	-1.016173	0.507239
C37	C	1.468052	-0.786063	0.556313
C38	C	1.766669	-0.401554	0.531786
C39	C	1.883445	-0.401558	0.531794
C40	C	1.492720	-0.401461	0.805795
C41	C	1.492756	-0.401426	0.922570
C42	C	1.506673	-0.184090	0.517944
C43	C	1.512655	-0.091424	0.512053
C44	C	1.492616	-0.401564	0.258801
C45	C	1.492798	-0.401364	0.142012
C46	C	1.634028	-0.294805	0.915821
C47	C	1.704680	-0.241481	0.967306
C48	C	1.704707	-0.241451	1.077026
C49	C	1.634074	-0.294748	1.135263
C50	C	1.563422	-0.348071	1.083777
C51	C	1.563404	-0.348098	0.974055
C52	C	1.422147	-0.454688	1.090526
C53	C	1.422123	-0.454723	0.980807
C54	C	1.351514	-0.507985	1.148763
C55	C	1.280866	-0.561313	1.097278
C56	C	1.280842	-0.561342	0.987551
C57	C	1.351472	-0.508047	0.929321
H58	H	1.079716	-0.605170	0.800571
N59	N	0.771915	-0.294797	0.390851
H60	H	0.749165	-0.237631	0.406651
H61	H	0.742894	-0.336761	0.446180
N62	N	0.893030	-0.183829	0.244349
H63	H	0.814681	-0.191938	0.255051
H64	H	0.911346	-0.196745	0.170112
H65	H	0.787289	-0.508334	0.672763
H66	H	1.199045	-0.294773	0.390812
H67	H	0.880644	-0.605185	0.800602
N68	N	1.204642	-0.618862	0.932027
H69	H	1.215341	-0.610799	0.853682
H70	H	1.130453	-0.605871	0.950368
H71	H	1.105691	-0.197905	0.262965
N72	N	1.598797	-0.874687	0.425832
H73	H	1.592419	-0.812943	0.432142
H74	H	1.581535	-0.889917	0.351741
N75	N	1.386664	-0.927558	0.637709
H76	H	1.393044	-0.989301	0.631390
H77	H	1.312575	-0.912457	0.620334
H78	H	1.762186	-0.198086	0.919878
N79	N	1.780908	-0.183944	1.132570
H80	H	1.740716	-0.145296	1.175634
H81	H	1.825633	-0.150239	1.078975
N82	N	1.634011	-0.294849	0.797482
H83	H	1.689477	-0.252999	0.768402
H84	H	1.562890	-0.279548	0.770145
H85	H	1.634094	-0.294711	1.224602
H86	H	1.351537	-0.507953	1.238102
H87	H	1.223356	-0.604699	1.144702
H88	H	1.351463	-0.508069	0.839981
H89	H	1.185418	-0.508318	0.672704
