data_functionalizedCrystal
_audit_creation_method	'MofGen! by Chris Wilmer'
_symmetry_space_group_name_H-M	'P1'
_symmetry_Int_Tables_number	1
_symmetry_cell_setting	triclinic
loop_
_symmetry_equiv_pos_as_xyz
  x,y,z
_cell_length_a	19.188933
_cell_length_b	14.971486
_cell_length_c	18.266242
_cell_angle_alpha	90.005330
_cell_angle_beta	89.992475
_cell_angle_gamma	96.620151
loop_
_atom_site_label
_atom_site_type_symbol
_atom_site_fract_x
_atom_site_fract_y
_atom_site_fract_z
O1	O	0.926508	-0.111677	-0.060857
O2	O	0.723245	-0.126707	-0.060864
O3	O	0.830324	0.011037	-0.060855
O4	O	0.819429	-0.249421	-0.060866
O5	O	0.830306	0.011041	0.060907
O6	O	0.723227	-0.126703	0.060898
O7	O	0.926490	-0.111673	0.060905
Zn8	Zn	0.824855	-0.119187	0.080234
Zn9	Zn	0.824879	-0.119193	-0.080193
O10	O	0.819410	-0.249417	0.060896
C11	C	0.697223	-0.126218	0.000016
C12	C	0.619714	-0.124756	0.000014
C13	C	0.066435	-0.114324	-0.066350
C14	C	0.139264	-0.115692	-0.066353
C15	C	0.175673	-0.116378	0.000019
C16	C	0.139250	-0.115673	0.066399
C17	C	0.066424	-0.114296	0.066400
N18	N	0.284857	-0.169437	0.049421
N19	N	0.354038	-0.170747	0.049415
C20	C	0.395095	-0.120526	0.000020
N21	N	0.364356	-0.068957	-0.049381
N22	N	0.295167	-0.067650	-0.049377
C23	C	0.254641	-0.117871	0.000025
C24	C	0.510479	-0.122709	-0.066359
C25	C	0.583310	-0.124072	-0.066359
C26	C	0.583294	-0.124062	0.066395
C27	C	0.510465	-0.122690	0.066393
C28	C	0.474062	-0.122018	0.000014
C29	C	0.829828	0.044361	0.000026
C30	C	0.828368	0.143650	0.000025
C31	C	0.952511	-0.112162	0.000023
C32	C	1.030020	-0.113624	0.000021
C33	C	0.819907	-0.282741	0.000014
C34	C	0.821367	-0.382030	0.000010
N35	N	0.824844	-0.119183	0.189721
C36	C	0.891274	0.201207	0.000028
C37	C	0.889898	0.294500	0.000020
C38	C	0.825615	0.330233	0.000016
C39	C	0.762704	0.272668	0.000011
C40	C	0.764081	0.179378	0.000013
C41	C	0.759838	0.467116	0.000008
C42	C	0.758461	0.560413	0.000007
C43	C	0.885655	0.582237	0.000015
C44	C	0.887032	0.488947	0.000018
C45	C	0.824121	0.431389	0.000014
N46	N	0.824896	-0.119189	-0.189680
C47	C	0.867227	-0.173304	0.228023
C48	C	0.867239	-0.173301	0.304668
C49	C	0.824854	-0.119189	0.343008
C50	C	0.782468	-0.065058	0.304697
C51	C	0.782463	-0.065055	0.228053
N52	N	0.763699	-0.116985	0.463358
N53	N	0.763706	-0.116992	0.536167
C54	C	0.824868	-0.119192	0.573930
N55	N	0.886024	-0.121401	0.536135
N56	N	0.886016	-0.121398	0.463321
C57	C	0.824855	-0.119185	0.426115
C58	C	0.867268	-0.173312	0.695339
C59	C	0.867281	-0.173303	0.771986
C60	C	0.782503	-0.065065	0.772013
C61	C	0.782497	-0.065069	0.695368
C62	C	0.824878	-0.119197	0.657036
H63	H	0.036775	-0.113729	0.120449
H64	H	0.712856	0.132515	0.000011
H65	H	0.480816	-0.122123	0.120440
H66	H	0.747959	-0.020998	0.335918
H67	H	0.939377	0.459856	0.000027
H68	H	0.747948	-0.020983	0.196868
H69	H	0.612938	-0.124617	0.120437
H70	H	0.901799	-0.217372	0.803170
H71	H	0.747981	-0.021002	0.664182
H72	H	0.901777	-0.217386	0.664127
H73	H	0.901740	-0.217376	0.196817
H74	H	0.943621	0.172121	0.000036
H75	H	0.747994	-0.021005	0.803229
H76	H	0.941122	0.341360	0.000024
H77	H	0.036801	-0.113773	-0.120401
H78	H	0.706116	0.589503	0.000015
H79	H	0.936880	0.629106	0.000016
H80	H	0.901753	-0.217375	0.335859
H81	H	0.710363	0.301770	0.000002
H82	H	0.708609	0.420254	0.000003
H83	H	0.168899	-0.116230	0.120440
H84	H	0.168918	-0.116267	-0.120402
H85	H	0.480839	-0.122159	-0.120409
H86	H	0.612958	-0.124635	-0.120409
