data_functionalizedCrystal
_audit_creation_method	'MofGen! by Chris Wilmer'
_symmetry_space_group_name_H-M	'P1'
_symmetry_Int_Tables_number	1
_symmetry_cell_setting	triclinic
loop_
_symmetry_equiv_pos_as_xyz
  x,y,z
_cell_length_a	8.597340
_cell_length_b	15.538191
_cell_length_c	7.088929
_cell_angle_alpha	86.254841
_cell_angle_beta	103.954719
_cell_angle_gamma	66.484156
loop_
_atom_site_label
_atom_site_type_symbol
_atom_site_fract_x
_atom_site_fract_y
_atom_site_fract_z
O1	O	2.026385	0.129433	0.174839
O2	O	1.552790	0.144818	0.096822
O3	O	1.881776	-0.000080	0.151008
O4	O	1.697399	0.274330	0.120653
O5	O	1.925767	-0.019488	0.476229
O6	O	1.596781	0.125410	0.422043
O7	O	2.070376	0.110025	0.500060
Cu8	Cu	1.837595	0.115945	0.490747
Cu9	Cu	1.785571	0.138897	0.106136
O10	O	1.741390	0.254922	0.445874
C11	C	1.515653	0.134543	0.249691
C12	C	1.339464	0.132830	0.220666
C13	C	1.923061	-0.044895	0.316790
C14	C	1.980519	-0.149515	0.326236
C15	C	1.409664	-0.436837	0.232238
C16	C	1.463698	-0.535147	0.241144
C17	C	1.767625	-0.557841	0.291210
C18	C	1.713615	-0.459530	0.282299
C19	C	1.534633	-0.399035	0.252815
C20	C	1.838584	-0.421728	0.302876
C21	C	1.784579	-0.323426	0.293976
C22	C	1.605605	-0.262926	0.264499
C23	C	1.480628	-0.300733	0.243915
C24	C	2.017567	-0.482225	0.332374
C25	C	2.142536	-0.444424	0.352950
C26	C	2.088530	-0.346119	0.344036
C27	C	1.909556	-0.285619	0.314560
C28	C	2.213507	-0.308312	0.364620
C29	C	2.159502	-0.210010	0.355720
C30	C	1.855551	-0.187317	0.305660
C31	C	2.107512	0.120300	0.347187
C32	C	2.283700	0.122014	0.376199
C33	C	1.700104	0.299737	0.280088
C34	C	1.642644	0.404358	0.270629
N35	N	1.874198	0.099801	0.761264
N36	N	1.748985	0.155033	-0.164378
H37	H	1.709804	-0.138057	0.281636
H38	H	2.003981	0.042568	0.864296
O39	O	1.235669	0.142455	0.035179
C40	C	1.196046	0.230885	-0.076824
H41	H	1.301306	0.256254	-0.010369
H42	H	1.194306	0.222271	-0.235690
H43	H	1.060491	0.285635	-0.074983
H44	H	2.359237	-0.357582	0.388646
O45	O	1.553094	-0.167448	0.256181
C46	C	1.474428	-0.138426	0.407878
H47	H	1.524160	-0.202297	0.531178
H48	H	1.511414	-0.080918	0.469242
H49	H	1.324102	-0.108594	0.345882
O50	O	1.387611	0.112353	0.561625
C51	C	1.427156	0.023947	0.673663
H52	H	1.413186	-0.027333	0.570006
H53	H	1.568892	-0.007172	0.775474
H54	H	1.331372	0.034857	0.766105
O55	O	1.306675	-0.242037	0.214988
C56	C	1.204645	-0.249084	0.033466
H57	H	1.279464	-0.320337	-0.009104
H58	H	1.072576	-0.244315	0.048733
H59	H	1.179390	-0.188299	-0.086011
H60	H	1.263917	-0.387577	0.208215
O61	O	1.342182	-0.571804	0.220782
C62	C	1.213724	-0.530815	0.034964
H63	H	1.271874	-0.503404	-0.070559
H64	H	1.172663	-0.586943	-0.027079
H65	H	1.092765	-0.468954	0.052272
H66	H	2.061530	-0.562268	0.339601
O67	O	1.941413	-0.616628	0.319495
C68	C	1.958947	-0.664140	0.157730
H69	H	1.840502	-0.621055	0.023121
H70	H	2.086321	-0.671919	0.123422
H71	H	1.964199	-0.737864	0.195838
O72	O	2.316310	-0.503320	0.381490
C73	C	2.337191	-0.598195	0.384990
H74	H	2.205630	-0.598198	0.303131
H75	H	2.441997	-0.637169	0.309933
H76	H	2.380833	-0.635934	0.544729
O77	O	2.280686	-0.173152	0.375410
C78	C	2.235767	-0.106937	0.203303
H79	H	2.088133	-0.079017	0.124086
H80	H	2.267219	-0.044868	0.245517
H81	H	2.315624	-0.143381	0.101139
H82	H	1.619218	0.212270	0.732602
