data_functionalizedCrystal
_audit_creation_method	'MofGen! by Chris Wilmer'
_symmetry_space_group_name_H-M	'P1'
_symmetry_Int_Tables_number	1
_symmetry_cell_setting	triclinic
loop_
_symmetry_equiv_pos_as_xyz
  x,y,z
_cell_length_a	12.837943
_cell_length_b	23.532407
_cell_length_c	11.892095
_cell_angle_alpha	93.859970
_cell_angle_beta	85.689438
_cell_angle_gamma	88.838809
loop_
_atom_site_label
_atom_site_type_symbol
_atom_site_fract_x
_atom_site_fract_y
_atom_site_fract_z
O1	O	1.380592	0.144688	-0.094007
O2	O	1.078862	0.137379	-0.094012
O3	O	1.238824	0.058625	-0.093989
O4	O	1.220630	0.223442	-0.094030
O5	O	1.225487	0.065180	0.094017
O6	O	1.065525	0.143934	0.093993
O7	O	1.367255	0.151243	0.093999
Zn8	Zn	1.214272	0.148629	0.123846
Zn9	Zn	1.231845	0.139993	-0.123859
O10	O	1.207293	0.229998	0.093975
C11	C	1.033599	0.138187	-0.000010
C12	C	0.918597	0.130823	-0.000011
C13	C	0.676728	0.219356	-0.000017
C14	C	0.568673	0.212439	-0.000017
C15	C	0.594431	0.110073	-0.000004
C16	C	0.702485	0.116990	-0.000003
C17	C	0.743630	0.171633	-0.000012
C18	C	0.851687	0.178549	-0.000020
C19	C	0.877442	0.076184	0.000002
C20	C	0.769387	0.069267	0.000002
C21	C	1.231692	0.040660	0.000017
C22	C	1.230298	-0.022637	0.000026
C23	C	1.316227	-0.416812	-0.000035
C24	C	1.314934	-0.476287	-0.000043
O25	O	1.394590	-0.508463	-0.000084
N26	N	1.219835	-0.504370	-0.000044
C27	C	1.126025	-0.472975	-0.000048
O28	O	1.045018	-0.502322	-0.000051
C29	C	1.127321	-0.413501	-0.000047
C30	C	1.222424	-0.385421	-0.000035
C31	C	1.411324	-0.388732	-0.000024
C32	C	1.412617	-0.329261	-0.000013
C33	C	1.318813	-0.297871	-0.000013
C34	C	1.223717	-0.325951	-0.000024
C35	C	1.033512	-0.382108	-0.000059
C36	C	1.034816	-0.322631	-0.000060
C37	C	1.129920	-0.294551	-0.000047
C38	C	1.131207	-0.235089	-0.000014
N39	N	1.226306	-0.207006	-0.000013
C40	C	1.320109	-0.238397	-0.000013
C41	C	1.123312	-0.597873	-0.000051
C42	C	1.122015	-0.657345	-0.000043
C43	C	1.310925	-0.660653	-0.000041
C44	C	1.312220	-0.601180	-0.000040
C45	C	1.218411	-0.569790	-0.000050
C46	C	1.322817	-0.113504	0.000011
C47	C	1.324101	-0.054028	0.000026
C48	C	1.135193	-0.050725	0.000018
C49	C	1.133908	-0.110196	0.000008
C50	C	1.227729	-0.141584	0.000001
O51	O	1.051594	-0.202877	0.000022
O52	O	1.401104	-0.209042	-0.000025
C53	C	1.412519	0.150435	-0.000006
C54	C	1.527521	0.157799	-0.000012
C55	C	1.214425	0.247962	-0.000033
C56	C	1.215820	0.311259	-0.000049
N57	N	1.202287	0.154524	0.292898
N58	N	1.243838	0.134094	-0.292912
C59	C	1.327236	0.093046	0.529565
C60	C	1.318866	0.097171	0.647905
C61	C	1.177173	0.166894	0.647922
C62	C	1.185543	0.162770	0.529582
C63	C	1.260578	0.125845	0.470407
C64	C	1.268952	0.121724	0.352064
C65	C	1.127255	0.191444	0.352084
C66	C	1.118885	0.195569	0.470424
H67	H	0.710228	0.263848	-0.000026
N68	N	1.096246	0.206710	0.711772
H69	H	1.132106	0.235779	0.760863
H70	H	1.055301	0.226827	0.656279
H71	H	0.735872	0.024778	0.000022
H72	H	0.514204	0.251300	-0.000019
H73	H	0.560905	0.065588	0.000097
N74	N	1.019432	-0.687621	-0.000045
H75	H	1.019620	-0.714645	-0.069741
H76	H	1.009790	-0.709765	0.069692
N77	N	1.037958	0.235390	0.534260
H78	H	1.073818	0.264461	0.583347
H79	H	0.997023	0.255503	0.478756
H80	H	1.046916	-0.572319	-0.000049
H81	H	1.373145	0.070462	0.696068
N82	N	1.055354	0.226817	0.288265
H83	H	0.980436	0.216968	0.308875
H84	H	1.065500	0.268571	0.308872
N85	N	0.896070	0.237482	-0.000039
H86	H	0.837287	0.266664	-0.000040
H87	H	0.935401	0.245010	0.069655
N88	N	0.949601	0.024706	-0.000004
H89	H	1.024298	0.037377	-0.000009
H90	H	0.931400	0.003572	0.069694
N91	N	1.034027	-0.016861	0.000002
H92	H	0.973579	-0.043671	-0.000009
H93	H	1.025502	0.010314	0.069697
H94	H	1.330052	0.091659	0.303885
N95	N	1.426681	-0.023741	0.000046
H96	H	1.485906	-0.052656	0.000041
H97	H	1.436281	-0.001559	-0.069645
H98	H	0.956069	-0.404960	-0.000076
H99	H	1.399215	-0.139054	0.000000
N100	N	1.408157	0.053213	0.465753
H101	H	1.372293	0.024139	0.416677
H102	H	1.457264	0.075787	0.416696
N103	N	1.515193	-0.298979	-0.000004
H104	H	1.574412	-0.327897	-0.000008
H105	H	1.524794	-0.276801	-0.069699
N106	N	1.512505	-0.422583	-0.000022
H107	H	1.572935	-0.395762	-0.000014
H108	H	1.511140	-0.444903	0.069678
H109	H	1.387304	-0.686223	-0.000045
N110	N	1.414798	-0.570899	-0.000031
H111	H	1.424499	-0.548722	-0.069723
H112	H	1.414536	-0.543903	0.069711
N113	N	0.933634	-0.288775	-0.000076
H114	H	0.873197	-0.315592	-0.000084
H115	H	0.925104	-0.261604	0.069623
N116	N	1.031335	-0.140486	0.000010
H117	H	0.972108	-0.111573	0.000016
H118	H	1.031629	-0.167509	-0.069695
