data_functionalizedCrystal
_audit_creation_method	'MofGen! by Chris Wilmer'
_symmetry_space_group_name_H-M	'P1'
_symmetry_Int_Tables_number	1
_symmetry_cell_setting	triclinic
loop_
_symmetry_equiv_pos_as_xyz
  x,y,z
_cell_length_a	12.759401
_cell_length_b	18.050589
_cell_length_c	12.759401
_cell_angle_alpha	90.006964
_cell_angle_beta	90.005677
_cell_angle_gamma	90.028647
loop_
_atom_site_label
_atom_site_type_symbol
_atom_site_fract_x
_atom_site_fract_y
_atom_site_fract_z
Zn1	Zn	1.606022	-0.295781	0.593991
Zn2	Zn	1.605915	-0.419940	0.418314
Zn3	Zn	1.430364	-0.295769	0.418330
Zn4	Zn	1.430272	-0.419934	0.593955
O5	O	1.518143	-0.357856	0.506148
O6	O	1.753029	-0.312258	0.570696
O7	O	1.582622	-0.403465	0.271295
O8	O	1.453749	-0.191846	0.441654
O9	O	1.752950	-0.403477	0.441627
O10	O	1.582805	-0.191854	0.570711
O11	O	1.453645	-0.312238	0.271307
O12	O	1.283331	-0.312232	0.441619
O13	O	1.453592	-0.403468	0.740981
O14	O	1.283263	-0.403456	0.570650
O15	O	1.582715	-0.312253	0.741007
O16	O	1.582532	-0.523863	0.441592
O17	O	1.453487	-0.523860	0.570634
C18	C	1.245176	-0.357843	0.506133
C19	C	1.128399	-0.357855	0.506151
C20	C	1.073579	-0.310444	0.573461
C21	C	0.963855	-0.310451	0.573468
C22	C	0.963781	-0.405289	0.438853
C23	C	1.073503	-0.405277	0.438841
C24	C	1.518016	-0.550808	0.506130
C25	C	1.518058	-0.633354	0.506158
C26	C	1.447953	-0.832829	0.576307
C27	C	1.422360	-0.882250	0.480439
C28	C	1.518162	-0.784484	0.506172
C29	C	1.543806	-0.882145	0.602051
C30	C	1.518259	-0.930469	0.506193
C31	C	1.492519	-0.832818	0.410253
C32	C	1.614008	-0.832708	0.531930
C33	C	1.588452	-0.882107	0.435995
C34	C	1.518103	-0.700386	0.506161
C35	C	1.518318	-1.014566	0.506194
C36	C	1.792177	-0.357869	0.506163
C37	C	1.908953	-0.357875	0.506170
C38	C	1.518155	-0.357861	0.780181
C39	C	1.518160	-0.357863	0.896958
C40	C	1.518299	-0.164150	0.506188
C41	C	1.518366	-0.081604	0.506206
C42	C	1.585386	-0.310375	0.951835
C43	C	1.585377	-0.310374	1.061559
C44	C	1.450913	-0.405355	1.061519
C45	C	1.450917	-0.405352	0.951797
C46	C	1.518131	-0.357867	1.233180
C47	C	1.518146	-0.357864	1.116404
H48	H	0.919071	-0.443898	0.384052
H49	H	1.341352	-0.904028	0.458672
H50	H	1.694999	-0.810933	0.553742
H51	H	1.640136	-0.271705	0.907188
H52	H	1.470774	-0.811240	0.329155
C53	C	1.668708	-0.911172	0.355795
C54	C	1.656942	-0.891525	0.238944
C55	C	1.737187	-0.920597	0.158740
C56	C	1.829200	-0.969317	0.195387
C57	C	1.840970	-0.988967	0.312243
C58	C	1.760725	-0.959895	0.392448
H59	H	1.588825	-0.855457	0.211810
H60	H	1.728473	-0.906050	0.072234
H61	H	1.888602	-0.990838	0.136015
H62	H	1.909087	-1.025035	0.339377
H63	H	1.769439	-0.974442	0.478953
H64	H	1.565457	-0.903812	0.683126
C65	C	1.659329	-0.258137	1.121924
C66	C	1.733287	-0.205902	1.061599
C67	C	1.807240	-0.153662	1.121964
C68	C	1.807235	-0.153656	1.242654
C69	C	1.733274	-0.205892	1.302986
C70	C	1.659321	-0.258133	1.242621
H71	H	1.733293	-0.205905	0.972251
H72	H	1.861991	-0.114993	1.077301
H73	H	1.861979	-0.114984	1.287339
H74	H	1.733267	-0.205890	1.392334
H75	H	1.604570	-0.296802	1.287283
H76	H	1.388492	-0.811191	0.635534
C77	C	1.376957	-0.457596	1.121844
C78	C	1.376952	-0.457605	1.242534
C79	C	1.302997	-0.509850	1.302857
C80	C	1.229047	-0.562085	1.242490
C81	C	1.229049	-0.562078	1.121794
C82	C	1.303004	-0.509833	1.061471
H83	H	1.431697	-0.418936	1.287228
H84	H	1.302996	-0.509855	1.392205
H85	H	1.174301	-0.600760	1.287145
H86	H	1.174304	-0.600747	1.077100
H87	H	1.303005	-0.509828	0.972123
C88	C	1.376960	-0.457593	0.891428
C89	C	1.257530	-0.451522	0.906504
C90	C	1.183571	-0.503758	0.846137
C91	C	1.229044	-0.562064	0.770693
C92	C	1.348480	-0.568136	0.755614
C93	C	1.422439	-0.515901	0.815981
H94	H	1.223863	-0.408359	0.962355
H95	H	1.095156	-0.499262	0.857300
H96	H	1.174295	-0.600731	0.726006
H97	H	1.382147	-0.611300	0.699763
H98	H	1.510854	-0.520397	0.804818
H99	H	1.118272	-0.271828	0.628266
H100	H	1.118139	-0.443886	0.384024
H101	H	0.919225	-0.271842	0.628277
