data_functionalizedCrystal
_audit_creation_method	'MofGen! by Chris Wilmer'
_symmetry_space_group_name_H-M	'P1'
_symmetry_Int_Tables_number	1
_symmetry_cell_setting	triclinic
loop_
_symmetry_equiv_pos_as_xyz
  x,y,z
_cell_length_a	13.897449
_cell_length_b	12.759400
_cell_length_c	12.759393
_cell_angle_alpha	89.973664
_cell_angle_beta	89.979261
_cell_angle_gamma	90.005443
loop_
_atom_site_label
_atom_site_type_symbol
_atom_site_fract_x
_atom_site_fract_y
_atom_site_fract_z
Zn1	Zn	1.474793	-0.418177	-0.594071
Zn2	Zn	1.474725	-0.593893	-0.418405
Zn3	Zn	1.313482	-0.418233	-0.418404
Zn4	Zn	1.313502	-0.593818	-0.594040
O5	O	1.394126	-0.506030	-0.506230
O6	O	1.609766	-0.441494	-0.570782
O7	O	1.453299	-0.570646	-0.271383
O8	O	1.334901	-0.271204	-0.441719
O9	O	1.609716	-0.570592	-0.441720
O10	O	1.453415	-0.271163	-0.570781
O11	O	1.334835	-0.441589	-0.271383
O12	O	1.178503	-0.441516	-0.441689
O13	O	1.334935	-0.570464	-0.741065
O14	O	1.178518	-0.570518	-0.570728
O15	O	1.453434	-0.441421	-0.741088
O16	O	1.453319	-0.740904	-0.441690
O17	O	1.334869	-0.740849	-0.570729
C18	C	1.143512	-0.506016	-0.506206
C19	C	1.036298	-0.506035	-0.506220
C20	C	1.394115	-0.778997	-0.506229
C21	C	1.394198	-0.895774	-0.506264
C22	C	1.394194	-0.505928	-0.780263
C23	C	1.394223	-0.505884	-0.897040
C24	C	0.840003	-0.506039	-0.506248
C25	C	0.949235	-0.506034	-0.506230
C26	C	1.645719	-0.506045	-0.506254
C27	C	1.752933	-0.506051	-0.506265
C28	C	1.394163	-0.231997	-0.506254
C29	C	1.394179	-0.115220	-0.506264
C30	C	1.455857	-0.060393	-0.439084
C31	C	1.455864	0.049331	-0.439081
C32	C	1.332514	0.049391	-0.573446
C33	C	1.332502	-0.060331	-0.573443
C34	C	1.517534	-0.115282	-0.371905
C35	C	1.579217	-0.060455	-0.304721
C36	C	1.579225	0.049269	-0.304718
C37	C	1.517549	0.104166	-0.371899
C38	C	1.332580	-0.438634	-1.061626
C39	C	1.332558	-0.438671	-0.951902
C40	C	1.455922	-0.573057	-0.951908
C41	C	1.455947	-0.573014	-1.061630
C42	C	1.270903	-0.371424	-1.116482
C43	C	1.209206	-0.304249	-1.061622
C44	C	1.209184	-0.304286	-0.951898
C45	C	1.270860	-0.371498	-0.897034
C46	C	1.394113	-0.506056	-0.233262
C47	C	1.394271	-0.505804	-0.116486
H48	H	1.517537	-0.204625	-0.371902
H49	H	1.282288	-0.104972	-0.628156
H50	H	1.270912	-0.371387	-1.205825
Cl51	Cl	1.533511	-0.657450	-1.130602
H52	H	1.629427	-0.105160	-0.250020
H53	H	1.158998	-0.249522	-1.106300
Cl54	Cl	1.131632	-0.219832	-0.882934
Cl55	Cl	1.656763	0.118192	-0.220255
H56	H	1.270843	-0.371517	-0.807689
H57	H	1.517548	0.193510	-0.371879
Cl58	Cl	1.254989	0.118405	-0.657901
Cl59	Cl	1.533448	-0.657548	-0.882935
