data_functionalizedCrystal
_audit_creation_method	'MofGen! by Chris Wilmer'
_symmetry_space_group_name_H-M	'P1'
_symmetry_Int_Tables_number	1
_symmetry_cell_setting	triclinic
loop_
_symmetry_equiv_pos_as_xyz
  x,y,z
_cell_length_a	19.288864
_cell_length_b	14.586319
_cell_length_c	16.109298
_cell_angle_alpha	90.001604
_cell_angle_beta	96.701782
_cell_angle_gamma	90.017348
loop_
_atom_site_label
_atom_site_type_symbol
_atom_site_fract_x
_atom_site_fract_y
_atom_site_fract_z
O1	O	0.921594	0.076524	-0.103714
O2	O	0.719367	0.076460	-0.117705
O3	O	0.826037	0.076500	0.010341
O4	O	0.814924	0.076483	-0.231760
O5	O	0.826029	-0.075981	0.010343
O6	O	0.719359	-0.076021	-0.117703
O7	O	0.921587	-0.075957	-0.103712
Cu8	Cu	0.820472	-0.089912	-0.110707
Cu9	Cu	0.820481	0.090414	-0.110710
O10	O	0.814916	-0.075998	-0.231758
C11	C	0.693485	0.000211	-0.117254
C12	C	0.616379	0.000187	-0.115902
N13	N	0.820471	-0.216744	-0.110705
C14	C	0.571861	0.000196	-0.191034
C15	C	0.499411	0.000207	-0.189764
C16	C	0.471482	0.000226	-0.113359
C17	C	0.516009	0.000212	-0.038218
C18	C	0.588458	0.000192	-0.039489
C19	C	0.363079	0.053682	-0.053296
C20	C	0.290632	0.053707	-0.052028
C21	C	0.248027	0.000282	-0.109433
C22	C	0.277876	-0.053156	-0.168121
C23	C	0.350325	-0.053176	-0.169393
C24	C	0.392924	0.000246	-0.111971
C25	C	0.124950	0.000301	-0.183193
C26	C	0.052499	0.000305	-0.181920
C27	C	0.069099	0.000319	-0.030372
C28	C	0.141548	0.000306	-0.031647
C29	C	0.169469	0.000301	-0.108060
C30	C	0.867720	-0.451732	-0.054025
C31	C	0.867722	-0.547714	-0.054023
C32	C	0.773233	-0.547759	-0.167387
C33	C	0.773229	-0.451779	-0.167385
C34	C	0.820476	-0.403768	-0.110705
C35	C	0.820483	-0.595729	-0.110705
C36	C	0.820485	-0.699796	-0.110704
C37	C	0.820473	-0.299695	-0.110705
C38	C	0.947468	0.000293	-0.104163
C39	C	1.024575	0.000323	-0.105514
C40	C	0.825583	0.000263	0.041315
C41	C	0.824235	0.000273	0.133606
N42	N	0.820488	0.217246	-0.110705
C43	C	0.815370	0.000241	-0.262732
C44	C	0.816718	0.000237	-0.355023
C45	C	0.819838	0.083370	0.432659
C46	C	0.821115	0.083377	0.345943
C47	C	0.821117	-0.082866	0.345931
C48	C	0.819845	-0.082872	0.432646
C49	C	0.819203	0.000249	0.476007
C50	C	0.821751	0.000262	0.302576
C51	C	0.823135	0.000268	0.208556
C52	C	0.817820	0.000242	0.570034
H53	H	0.594589	0.000194	-0.253255
C54	C	0.190520	0.000306	0.051005
N55	N	0.227405	0.000305	0.113262
C56	C	0.485286	0.000234	0.045829
N57	N	0.462145	0.000248	0.109135
H58	H	0.463158	0.000212	-0.250947
H59	H	0.734767	-0.586859	-0.213536
H60	H	0.821639	-0.150540	0.310615
C61	C	0.919689	-0.600469	0.008335
N62	N	0.958831	-0.640204	0.055309
H63	H	0.906191	-0.412644	-0.007872
C64	C	0.383158	-0.111966	-0.233941
N65	N	0.407888	-0.156253	-0.282556
H66	H	0.819330	-0.150563	0.467941
H67	H	0.266334	0.097223	-0.004244
C68	C	0.721285	-0.399016	-0.229777
N69	N	0.682173	-0.359275	-0.276782
C70	C	0.819146	0.174805	0.480355
N71	N	0.818631	0.243677	0.516279
H72	H	0.243188	-0.096661	-0.214866
H73	H	0.821634	0.151063	0.310653
C74	C	0.155665	0.000284	-0.267248
N75	N	0.178798	0.000269	-0.330559
C76	C	0.003528	0.000302	-0.264576
N77	N	-0.033357	0.000297	-0.326833
H78	H	0.624705	0.000185	0.021694
C79	C	0.038381	0.000340	0.053675
N80	N	0.015241	0.000353	0.116982
C81	C	0.409938	0.112462	0.009855
N82	N	0.445231	0.156735	0.057418
