data_functionalizedCrystal
_audit_creation_method	'MofGen! by Chris Wilmer'
_symmetry_space_group_name_H-M	'P1'
_symmetry_Int_Tables_number	1
_symmetry_cell_setting	triclinic
loop_
_symmetry_equiv_pos_as_xyz
  x,y,z
_cell_length_a	10.723024
_cell_length_b	8.559649
_cell_length_c	7.681481
_cell_angle_alpha	94.930900
_cell_angle_beta	84.221425
_cell_angle_gamma	77.123267
loop_
_atom_site_label
_atom_site_type_symbol
_atom_site_fract_x
_atom_site_fract_y
_atom_site_fract_z
O1	O	-1.621004	-0.238853	-0.146409
O2	O	-1.255654	-0.260282	-0.146414
O3	O	-1.470517	-0.017318	-0.146409
O4	O	-1.406141	-0.481817	-0.146413
O5	O	-1.496970	0.012655	0.146449
O6	O	-1.282107	-0.230309	0.146445
O7	O	-1.647457	-0.208880	0.146450
Zn8	Zn	-1.468982	-0.214836	0.192945
Zn9	Zn	-1.434129	-0.254327	-0.192909
O10	O	-1.432594	-0.451844	0.146445
C11	C	-1.222541	-0.243736	0.000015
C12	C	-1.084465	-0.239071	0.000012
C13	C	-1.488621	0.057144	0.000017
C14	C	-1.503142	0.234364	0.000007
C15	C	-1.680570	-0.225426	0.000017
C16	C	-1.818645	-0.230093	0.000008
C17	C	-0.995544	-0.375021	0.000010
C18	C	-0.852834	-0.370202	0.000008
C19	C	-1.414489	-0.526307	0.000015
C20	C	-1.399967	-0.703528	0.000013
N21	N	-1.492777	-0.187883	0.456280
N22	N	-1.410345	-0.281266	-0.456244
H23	H	-1.025068	-0.494979	0.000019
H24	H	-1.576935	-0.092573	0.531487
Br25	Br	-1.668904	0.371719	0.000041
H26	H	-0.776469	-0.486586	-0.000002
Br27	Br	-0.945909	-0.036095	-0.000010
H28	H	-1.054937	-0.119117	-0.000032
H29	H	-1.300525	0.214065	0.000017
H30	H	-1.326200	-0.376582	0.468558
