data_functionalizedCrystal
_audit_creation_method	'MofGen! by Chris Wilmer'
_symmetry_space_group_name_H-M	'P1'
_symmetry_Int_Tables_number	1
_symmetry_cell_setting	triclinic
loop_
_symmetry_equiv_pos_as_xyz
  x,y,z
_cell_length_a	17.038272
_cell_length_b	17.038272
_cell_length_c	9.130313
_cell_angle_alpha	89.995195
_cell_angle_beta	90.002161
_cell_angle_gamma	91.111556
loop_
_atom_site_label
_atom_site_type_symbol
_atom_site_fract_x
_atom_site_fract_y
_atom_site_fract_z
O1	O	1.048753	0.170537	-0.121617
O2	O	0.820942	0.167829	-0.121660
O3	O	0.933494	0.055277	-0.121628
O4	O	0.936202	0.283088	-0.121650
O5	O	0.933485	0.055273	0.121971
O6	O	0.820933	0.167825	0.121938
O7	O	1.048745	0.170533	0.121981
Cu8	Cu	0.934838	0.169178	0.144202
Cu9	Cu	0.934848	0.169183	-0.143881
O10	O	0.936193	0.283084	0.121949
C11	C	0.931027	0.025982	0.000171
C12	C	0.923679	-0.061301	0.000169
C13	C	0.791645	0.165364	0.000134
C14	C	0.704361	0.158016	0.000117
C15	C	0.991142	-0.106911	0.000184
C16	C	0.984233	-0.188923	0.000168
C17	C	0.909860	-0.225324	0.000149
C18	C	0.842391	-0.179708	0.000131
C19	C	0.849301	-0.097698	0.000136
C20	C	0.885449	-0.472712	0.000125
C21	C	0.878545	-0.554728	0.000124
C22	C	1.020387	-0.563937	0.000159
C23	C	1.027291	-0.481924	0.000173
C24	C	0.959822	-0.436316	0.000147
C25	C	0.902796	-0.309153	0.000139
C26	C	0.966886	-0.352488	0.000147
C27	C	0.658752	0.225479	0.000112
C28	C	0.576740	0.218570	0.000133
C29	C	0.540339	0.144197	0.000149
C30	C	0.585954	0.076728	0.000159
C31	C	0.667965	0.083638	0.000148
C32	C	0.292951	0.119787	0.000190
C33	C	0.210935	0.112882	0.000196
C34	C	0.201726	0.254725	0.000173
C35	C	0.283739	0.261628	0.000154
C36	C	0.329347	0.194159	0.000172
C37	C	0.456510	0.137133	0.000165
C38	C	0.413174	0.201224	0.000165
C39	C	1.078042	0.172997	0.000184
C40	C	1.165326	0.180346	0.000191
C41	C	0.938660	0.312379	0.000147
C42	C	0.946008	0.399663	0.000139
N43	N	0.934837	0.169175	0.346825
N44	N	0.934856	0.169181	-0.346504
C45	C	0.984694	0.119360	0.423491
C46	C	0.984702	0.119361	0.576828
C47	C	0.884993	0.218997	0.576819
C48	C	0.884982	0.218992	0.423485
H49	H	1.039170	-0.226054	0.000183
H50	H	1.025288	0.078795	0.361079
C51	C	0.200863	0.395621	0.000144
C52	C	0.151593	0.328884	0.000162
H53	H	0.169912	0.441405	0.000131
H54	H	0.233043	0.395365	0.085084
H55	H	0.233040	0.395359	-0.084813
H56	H	0.119420	0.329142	0.085125
H57	H	0.119399	0.329141	-0.084787
H58	H	1.025299	0.078797	0.639246
C59	C	0.752107	0.255981	0.624059
C60	C	0.830197	0.273755	0.661095
H61	H	0.718280	0.289785	0.676095
H62	H	0.744969	0.263112	0.521780
H63	H	0.740112	0.202993	0.649210
H64	H	0.842195	0.326742	0.635934
H65	H	0.837339	0.266631	0.763397
C66	C	0.668835	-0.057260	0.000147
C67	C	0.718102	0.009480	0.000141
H68	H	0.699788	-0.103042	0.000136
H69	H	0.636663	-0.057007	0.085094
H70	H	0.636649	-0.056997	-0.084803
H71	H	0.750284	0.009220	0.085097
H72	H	0.750287	0.009227	-0.084815
H73	H	1.051705	-0.077279	0.000208
H74	H	1.087853	-0.452293	0.000189
H75	H	0.781835	-0.209353	0.000106
C76	C	1.072780	-0.693741	0.000153
C77	C	1.094546	-0.614071	0.000168
H78	H	1.118566	-0.724690	0.000144
H79	H	1.042514	-0.705292	0.085092
H80	H	1.042509	-0.705275	-0.084805
H81	H	1.124812	-0.602536	0.085132
H82	H	1.124825	-0.602516	-0.084781
H83	H	0.330076	0.064848	0.000206
C84	C	0.847896	0.351855	0.376230
C85	C	0.830177	0.273755	0.339201
H86	H	0.814064	0.385659	0.324189
H87	H	0.840764	0.358985	0.478508
H88	H	0.900874	0.363891	0.351082
H89	H	0.777200	0.261718	0.364359
H90	H	0.837302	0.266622	0.236900
H91	H	0.817978	-0.584363	0.000133
C92	C	0.796913	0.032110	0.000117
C93	C	0.775144	-0.047560	0.000119
H94	H	0.751129	0.063060	0.000093
H95	H	0.827173	0.043650	0.085069
H96	H	0.827191	0.043651	-0.084828
H97	H	0.744871	-0.059103	0.085071
H98	H	0.744870	-0.059104	-0.084841
C99	C	0.763281	-0.291820	0.000110
C100	C	0.821045	-0.349167	0.000119
H101	H	0.712813	-0.316527	0.000084
H102	H	0.768918	-0.260034	0.085060
H103	H	0.768933	-0.260015	-0.084837
H104	H	0.815397	-0.380969	0.085072
H105	H	0.815406	-0.380966	-0.084840
H106	H	0.830511	-0.435587	0.000104
H107	H	0.688384	0.286042	0.000098
C108	C	0.228271	-0.026637	0.000234
C109	C	0.170921	0.031124	0.000217
H110	H	0.203565	-0.077106	0.000251
H111	H	0.260064	-0.020995	-0.084708
H112	H	0.260068	-0.020988	0.085189
H113	H	0.139127	0.025479	-0.084744
H114	H	0.139115	0.025480	0.085168
H115	H	1.027441	-0.322847	0.000130
C116	C	0.464329	0.003155	0.000171
C117	C	0.545944	-0.005025	0.000173
H118	H	0.439631	-0.047318	0.000168
H119	H	0.449004	0.031156	0.085112
H120	H	0.449001	0.031165	-0.084786
H121	H	0.561273	-0.033030	0.085136
H122	H	0.561276	-0.033038	-0.084776
H123	H	0.539608	0.273507	0.000127
H124	H	0.313370	0.322190	0.000124
C125	C	0.500045	0.291268	-0.125099
C126	C	0.453181	0.282975	0.000137
H127	H	0.524744	0.341740	-0.125123
H128	H	0.538940	0.252079	-0.125077
H129	H	0.468230	0.285620	-0.210030
H130	H	0.484998	0.288617	0.085069
H131	H	0.414282	0.322175	0.000129
H132	H	0.426863	0.076578	0.000220
