data_functionalizedCrystal
_audit_creation_method	'MofGen! by Chris Wilmer'
_symmetry_space_group_name_H-M	'P1'
_symmetry_Int_Tables_number	1
_symmetry_cell_setting	triclinic
loop_
_symmetry_equiv_pos_as_xyz
  x,y,z
_cell_length_a	11.169417
_cell_length_b	18.050589
_cell_length_c	11.169409
_cell_angle_alpha	89.967208
_cell_angle_beta	89.979436
_cell_angle_gamma	90.029099
loop_
_atom_site_label
_atom_site_type_symbol
_atom_site_fract_x
_atom_site_fract_y
_atom_site_fract_z
Zn1	Zn	1.834822	-0.295582	-0.678538
Zn2	Zn	2.334822	0.204418	-0.178538
Zn3	Zn	1.834646	-0.419797	-0.477854
Zn4	Zn	2.334646	0.080203	0.022146
Zn5	Zn	1.634105	-0.295627	-0.477873
Zn6	Zn	2.134105	0.204373	0.022127
Zn7	Zn	1.634053	-0.419737	-0.678498
Zn8	Zn	2.134053	0.080263	-0.178498
O9	O	1.734407	-0.357686	-0.578191
O10	O	2.234407	0.142314	-0.078191
O11	O	2.002748	-0.312066	-0.651926
O12	O	2.502748	0.187934	-0.151926
O13	O	1.807992	-0.403370	-0.309906
O14	O	2.307992	0.096630	0.190094
O15	O	1.660826	-0.191697	-0.504516
O16	O	2.160826	0.308303	-0.004516
O17	O	2.002619	-0.403326	-0.504483
O18	O	2.502619	0.096674	-0.004483
O19	O	1.808292	-0.191664	-0.651945
O20	O	2.308292	0.308336	-0.151945
O21	O	1.660656	-0.312143	-0.309920
O22	O	2.160656	0.187857	0.190080
O23	O	1.466149	-0.312085	-0.504478
O24	O	1.966149	0.187915	-0.004478
O25	O	1.660737	-0.403223	-0.846454
O26	O	2.160737	0.096777	-0.346454
O27	O	1.466110	-0.403267	-0.651876
O28	O	1.966110	0.096733	-0.151876
O29	O	1.808241	-0.312008	-0.846483
O30	O	2.308241	0.187992	-0.346483
O31	O	1.807941	-0.523714	-0.504445
O32	O	2.307941	-0.023714	-0.004445
O33	O	1.660566	-0.523670	-0.651858
O34	O	2.160566	-0.023670	-0.151858
C35	C	1.422582	-0.357675	-0.578175
C36	C	1.922582	0.142325	-0.078175
C37	C	1.289182	-0.357688	-0.578197
C38	C	1.789182	0.142312	-0.078197
C39	C	1.734262	-0.550638	-0.578171
C40	C	2.234262	-0.050638	-0.078171
C41	C	1.734309	-0.633184	-0.578202
C42	C	2.234309	-0.133184	-0.078202
C43	C	1.654246	-0.832637	-0.658338
C44	C	2.154246	-0.332637	-0.158338
C45	C	1.624981	-0.882089	-0.548822
C46	C	2.124981	-0.382089	-0.048822
C47	C	1.734427	-0.784314	-0.578218
C48	C	2.234427	-0.284314	-0.078218
C49	C	1.763751	-0.881944	-0.687746
C50	C	2.263751	-0.381944	-0.187746
C51	C	1.734539	-0.930299	-0.578243
C52	C	2.234539	-0.430299	-0.078243
C53	C	1.705105	-0.832679	-0.468645
C54	C	2.205105	-0.332679	0.031355
C55	C	1.843926	-0.832530	-0.607642
C56	C	2.343926	-0.332530	-0.107642
C57	C	1.814703	-0.881959	-0.498052
C58	C	2.314703	-0.381959	0.001948
C59	C	1.734360	-0.700216	-0.578205
C60	C	2.234360	-0.200216	-0.078205
C61	C	1.734607	-1.014396	-0.578243
C62	C	2.234607	-0.514396	-0.078243
C63	C	2.047449	-0.357698	-0.578207
C64	C	2.547449	0.142302	-0.078207
C65	C	2.180849	-0.357703	-0.578214
C66	C	2.680849	0.142297	-0.078214
C67	C	1.734503	-0.357604	-0.891233
C68	C	2.234503	0.142396	-0.391233
C69	C	1.734544	-0.357569	-1.024633
C70	C	2.234544	0.142431	-0.524633
C71	C	1.734585	-0.163980	-0.578237
C72	C	2.234585	0.336020	-0.078237
C73	C	1.734661	-0.081435	-0.578257
C74	C	2.234661	0.418565	-0.078257
C75	C	1.734380	-0.357714	-0.266366
C76	C	2.234380	0.142286	0.233634
C77	C	1.734571	-0.357540	-0.132967
C78	C	2.234571	0.142460	0.367033
H79	H	1.586339	-0.810980	-0.725996
H80	H	2.086339	-0.310980	-0.225996
H81	H	1.680241	-0.811127	-0.376003
H82	H	2.180241	-0.311127	0.123997
H83	H	1.532434	-0.903874	-0.523958
H84	H	2.032434	-0.403874	-0.023958
H85	H	1.882558	-0.903479	-0.430230
H86	H	2.382558	-0.403479	0.069770
H87	H	1.936452	-0.810747	-0.632559
H88	H	2.436452	-0.310747	-0.132559
H89	H	1.788509	-0.903585	-0.780363
H90	H	2.288509	-0.403585	-0.280363
