data_functionalizedCrystal
_audit_creation_method	'MofGen! by Chris Wilmer'
_symmetry_space_group_name_H-M	'P1'
_symmetry_Int_Tables_number	1
_symmetry_cell_setting	triclinic
loop_
_symmetry_equiv_pos_as_xyz
  x,y,z
_cell_length_a	13.339070
_cell_length_b	13.339071
_cell_length_c	7.088638
_cell_angle_alpha	82.099073
_cell_angle_beta	97.926118
_cell_angle_gamma	115.629273
loop_
_atom_site_label
_atom_site_type_symbol
_atom_site_fract_x
_atom_site_fract_y
_atom_site_fract_z
O1	O	-0.558665	-1.488688	-0.159242
O2	O	-0.486403	-1.173880	-0.159208
O3	O	-0.365126	-1.295158	-0.159161
O4	O	-0.679942	-1.367411	-0.159289
O5	O	-0.348864	-1.311354	0.158836
O6	O	-0.470141	-1.190077	0.158788
O7	O	-0.542403	-1.504885	0.158755
Cu8	Cu	-0.504787	-1.348960	0.187807
Cu9	Cu	-0.524019	-1.329805	-0.188260
O10	O	-0.663680	-1.383607	0.158707
C11	C	-0.466066	-1.140864	-0.000205
C12	C	-0.429682	-1.018350	-0.000189
C13	C	-0.315879	-1.291050	-0.000150
C14	C	-0.193363	-1.254669	-0.000112
C15	C	-0.316219	-0.945809	-0.000134
C16	C	-0.282031	-0.830701	-0.000128
C17	C	-0.361302	-0.788123	-0.000161
C18	C	-0.474766	-0.860666	-0.000202
C19	C	-0.508958	-0.975785	-0.000223
C20	C	-0.554040	-0.818099	-0.000250
C21	C	-0.667505	-0.890642	-0.000290
C22	C	-0.701691	-1.005749	-0.000310
C23	C	-0.622420	-1.048326	-0.000277
C24	C	-0.519848	-0.702980	-0.000229
C25	C	-0.712587	-0.732956	-0.000318
C26	C	-0.746775	-0.848065	-0.000324
C27	C	-0.120820	-1.141208	-0.000128
C28	C	-0.005712	-1.107020	-0.000153
C29	C	0.036862	-1.186287	-0.000175
C30	C	-0.035682	-1.299749	-0.000172
C31	C	-0.150800	-1.333942	-0.000133
C32	C	0.006881	-1.379021	-0.000180
C33	C	-0.065663	-1.492483	-0.000177
C34	C	-0.180769	-1.526670	-0.000139
C35	C	-0.223344	-1.447403	-0.000116
C36	C	0.121999	-1.344828	-0.000219
C37	C	0.092019	-1.537562	-0.000224
C38	C	-0.023089	-1.571751	-0.000200
C39	C	0.287074	-1.387716	-0.000278
C40	C	0.164562	-1.424101	-0.000240
C41	C	-0.562740	-0.537901	-0.000249
C42	C	-0.599125	-0.660415	-0.000263
N43	N	-0.537537	-1.316332	-0.452766
N44	N	-0.491263	-1.362440	0.452313
H45	H	-0.427465	-0.643927	-0.000197
H46	H	-0.650250	-1.142056	-0.000273
H47	H	-0.585475	-1.268559	-0.534475
F48	F	0.199194	-1.224077	-0.000222
F49	F	-0.324913	-0.665614	-0.000154
F50	F	-0.161282	-0.753502	-0.000122
H51	H	-0.443331	-1.410226	-0.465969
H52	H	-0.794082	-1.064810	-0.000372
F53	F	-0.231868	-0.991130	-0.000111
F54	F	-0.867530	-0.925282	-0.000372
H55	H	-0.239832	-1.619060	-0.000115
F56	F	-0.796959	-0.687649	-0.000360
H57	H	0.130588	-1.158443	-0.000200
F58	F	-0.166138	-1.056861	-0.000089
F59	F	-0.345856	-1.483784	-0.000108
F60	F	0.137323	-1.621931	-0.000242
H61	H	0.053345	-1.014639	-0.000164
H62	H	-0.082171	-1.664133	-0.000211
