data_functionalizedCrystal
_audit_creation_method	'MofGen! by Chris Wilmer'
_symmetry_space_group_name_H-M	'P1'
_symmetry_Int_Tables_number	1
_symmetry_cell_setting	triclinic
loop_
_symmetry_equiv_pos_as_xyz
  x,y,z
_cell_length_a	21.295418
_cell_length_b	12.759394
_cell_length_c	12.759387
_cell_angle_alpha	90.031660
_cell_angle_beta	89.957911
_cell_angle_gamma	89.969348
loop_
_atom_site_label
_atom_site_type_symbol
_atom_site_fract_x
_atom_site_fract_y
_atom_site_fract_z
Zn1	Zn	0.962414	0.417767	-0.594604
Zn2	Zn	0.962348	0.593484	-0.418922
Zn3	Zn	0.857140	0.417869	-0.418875
Zn4	Zn	0.857135	0.593454	-0.594495
O5	O	0.909760	0.505643	-0.506724
O6	O	1.050495	0.441047	-0.571365
O7	O	0.948367	0.570244	-0.271894
O8	O	0.871135	0.270834	-0.442212
O9	O	1.050446	0.570146	-0.442292
O10	O	0.948479	0.270760	-0.571319
O11	O	0.871071	0.441220	-0.271860
O12	O	0.769050	0.441190	-0.442106
O13	O	0.871126	0.570093	-0.741530
O14	O	0.769047	0.570191	-0.571133
O15	O	0.948474	0.441017	-0.741611
O16	O	0.948362	0.740501	-0.442186
O17	O	0.871063	0.740479	-0.571179
C18	C	0.909722	0.778611	-0.506698
C19	C	0.909763	0.895388	-0.506723
C20	C	0.746208	0.505699	-0.506603
C21	C	0.676240	0.505748	-0.506576
C22	C	0.909807	0.505540	-0.780757
C23	C	0.909827	0.505497	-0.897534
C24	C	0.643388	0.573008	-0.573660
C25	C	0.577645	0.572982	-0.573707
C26	C	0.544757	0.505707	-0.506652
C27	C	0.577617	0.438434	-0.439563
C28	C	0.643358	0.438454	-0.439525
N29	N	0.441482	0.497511	-0.414760
N30	N	0.379030	0.497498	-0.414798
C31	C	0.346683	0.505640	-0.506763
N32	N	0.379146	0.513817	-0.598689
N33	N	0.441603	0.513835	-0.598649
C34	C	0.473472	0.505677	-0.506686
C35	C	0.242545	0.572876	-0.573904
C36	C	0.176801	0.572842	-0.573953
C37	C	0.176775	0.438300	-0.439799
C38	C	0.242517	0.438327	-0.439760
C39	C	0.275398	0.505621	-0.506811
C40	C	1.073950	0.505589	-0.506846
C41	C	1.143918	0.505565	-0.506898
C42	C	0.909815	0.231610	-0.506772
C43	C	0.909838	0.114833	-0.506793
C44	C	0.990315	0.895358	-0.372503
C45	C	1.030608	0.950204	-0.305406
C46	C	1.030645	1.059925	-0.305435
C47	C	0.990386	1.114804	-0.372570
C48	C	0.950094	1.059958	-0.439667
C49	C	0.950060	0.950234	-0.439629
C50	C	0.869546	1.059987	-0.573890
C51	C	0.869504	0.950266	-0.573858
C52	C	0.829287	1.114866	-0.641026
C53	C	0.788990	1.060020	-0.708119
C54	C	0.788954	0.950291	-0.708087
C55	C	0.829212	0.895420	-0.640955
C56	C	0.990375	0.371099	-0.897638
C57	C	1.030658	0.303884	-0.952550
C58	C	1.030673	0.303846	-1.062272
C59	C	0.990400	0.371027	-1.117084
C60	C	0.950117	0.438242	-1.062171
C61	C	0.950108	0.438275	-0.952447
C62	C	0.869567	0.572633	-1.062068
C63	C	0.869554	0.572678	-0.952346
C64	C	0.829294	0.639814	-1.116879
C65	C	0.789014	0.707036	-1.061967
C66	C	0.789001	0.707072	-0.952238
C67	C	0.829272	0.639893	-0.897433
C68	C	0.909748	0.505670	-0.233756
C69	C	0.909850	0.505418	-0.116980
H70	H	0.670156	0.627802	-0.628260
H71	H	0.756146	0.905642	-0.762730
H72	H	0.829307	0.639774	-1.206221
H73	H	0.990411	0.370981	-1.206425
H74	H	0.269265	0.383562	-0.385127
O75	O	0.749956	0.772254	-1.115371
C76	C	0.714248	0.831700	-1.284364
C77	C	0.758523	0.757802	-1.224010
H78	H	0.721150	0.820025	-1.372209
H79	H	0.725281	0.916446	-1.262870
H80	H	0.663499	0.813282	-1.262683
H81	H	0.809288	0.776125	-1.245659
H82	H	0.747437	0.673077	-1.245509
O83	O	1.069654	0.896733	-0.240226
C84	C	1.105325	0.727687	-0.180730
C85	C	1.061063	0.788106	-0.254578
H86	H	1.098405	0.639852	-0.192324
H87	H	1.094298	0.749274	-0.095976
H88	H	1.156079	0.749217	-0.199272
H89	H	1.010294	0.766609	-0.236131
H90	H	1.072145	0.766514	-0.339311
O91	O	0.144957	0.638133	-0.639268
C92	C	0.124912	0.689319	-0.817901
C93	C	0.161025	0.615326	-0.744051
H94	H	0.137879	0.670891	-0.902635
H95	H	0.137800	0.774032	-0.799371
H96	H	0.072279	0.677764	-0.806364
H97	H	0.213666	0.626787	-0.755548
H98	H	0.148084	0.530639	-0.762599
O99	O	0.545821	0.638416	-0.638914
C100	C	0.552781	0.771816	-0.772018
C101	C	0.588897	0.697789	-0.698205
H102	H	0.587592	0.819823	-0.819990
H103	H	0.521962	0.826753	-0.723757
H104	H	0.522043	0.723612	-0.827007
H105	H	0.619668	0.745908	-0.643201
H106	H	0.619676	0.642849	-0.746531
O107	O	0.144738	0.373072	-0.374668
C108	C	0.043448	0.313423	-0.315260
C109	C	0.079654	0.387353	-0.389071
H110	H	-0.009178	0.324927	-0.326894
H111	H	0.056275	0.331815	-0.230493
H112	H	0.056450	0.228732	-0.333801
H113	H	0.066672	0.472068	-0.370624
H114	H	0.066825	0.368871	-0.473815
H115	H	1.063458	1.104581	-0.250803
O116	O	0.829381	1.221448	-0.641227
C117	C	0.845544	1.378789	-0.742045
C118	C	0.845477	1.258085	-0.741956
H119	H	0.858544	1.408446	-0.823481
H120	H	0.881277	1.408620	-0.682619
H121	H	0.796811	1.408660	-0.720109
H122	H	0.894184	1.228124	-0.763918
H123	H	0.809711	1.228324	-0.801361
O124	O	0.545646	0.373237	-0.374306
C125	C	0.471315	0.358921	-0.232558
C126	C	0.507492	0.432880	-0.306380
H127	H	0.440449	0.407111	-0.177636
H128	H	0.506065	0.310871	-0.184525
H129	H	0.440616	0.304011	-0.280922
H130	H	0.538191	0.487854	-0.258098
H131	H	0.472708	0.480856	-0.354417
O132	O	0.675177	0.373087	-0.374252
C133	C	0.668213	0.239594	-0.241241
C134	C	0.632099	0.313583	-0.315095
H135	H	0.633400	0.191451	-0.193409
H136	H	0.698914	0.287728	-0.186133
H137	H	0.699067	0.184774	-0.289568
H138	H	0.601211	0.368419	-0.266852
H139	H	0.601437	0.265384	-0.370206
H140	H	0.829183	0.806079	-0.640916
H141	H	0.269318	0.627665	-0.628506
H142	H	0.990281	0.806017	-0.372460
H143	H	0.990425	1.204145	-0.372596
H144	H	0.756218	1.104710	-0.762780
H145	H	0.990373	0.371133	-0.808296
H146	H	1.063446	0.249185	-0.907910
H147	H	1.063471	0.249107	-1.106982
O148	O	0.749854	0.772473	-0.899062
C149	C	0.669941	0.905741	-0.910553
C150	C	0.714250	0.831739	-0.970900
H151	H	0.641134	0.953661	-0.968608
H152	H	0.698796	0.960761	-0.859236
H153	H	0.637058	0.857524	-0.859128
H154	H	0.747142	0.879872	-1.022382
H155	H	0.685356	0.776717	-1.022151
H156	H	0.829268	0.639920	-0.808092
