data_functionalizedCrystal
_audit_creation_method	'MofGen! by Chris Wilmer'
_symmetry_space_group_name_H-M	'P1'
_symmetry_Int_Tables_number	1
_symmetry_cell_setting	triclinic
loop_
_symmetry_equiv_pos_as_xyz
  x,y,z
_cell_length_a	19.377369
_cell_length_b	12.477989
_cell_length_c	12.477989
_cell_angle_alpha	89.511470
_cell_angle_beta	53.504383
_cell_angle_gamma	75.973586
loop_
_atom_site_label
_atom_site_type_symbol
_atom_site_fract_x
_atom_site_fract_y
_atom_site_fract_z
Zr1	Zr	0.848690	0.041559	0.751216
O2	O	0.970961	-0.076556	0.565614
O3	O	0.708124	0.049258	0.836500
O4	O	0.839543	-0.125918	0.813326
O5	O	0.853138	0.269232	0.574776
O6	O	0.853138	-0.132426	0.976435
O7	O	0.839543	0.098620	0.588788
O8	O	0.618054	0.180932	1.017887
O9	O	1.088222	-0.044126	0.533323
O10	O	0.782863	0.082129	0.960301
O11	O	0.782863	0.214312	0.828119
O12	O	0.937591	0.008065	0.800835
O13	O	0.937591	0.140247	0.668652
Zr14	Zr	0.892056	0.303287	0.989007
Zr15	Zr	0.870373	0.031180	1.011354
Zr16	Zr	0.870373	0.313665	0.728868
Zr17	Zr	1.035707	0.093281	0.699715
Zr18	Zr	0.705039	0.251564	1.040508
O19	O	1.032622	0.295588	0.903723
O20	O	1.001792	-0.091313	0.935498
O21	O	1.001792	0.310345	0.533839
O22	O	0.769785	0.421402	1.174609
O23	O	0.738954	0.034501	1.206384
O24	O	0.738954	0.436159	0.804725
O25	O	0.887608	0.075613	1.165447
O26	O	0.901203	0.470764	0.926896
O27	O	0.887608	0.477271	0.763788
O28	O	0.901203	0.246226	1.151435
O29	O	1.105457	-0.052375	0.740098
O30	O	0.635289	0.397221	1.000124
O31	O	0.652524	0.388971	1.206900
O32	O	0.635289	0.172683	1.224663
O33	O	1.105457	0.172163	0.515560
O34	O	1.122692	0.163913	0.722335
O35	O	0.803155	0.336781	0.939388
O36	O	0.803155	0.204599	1.071570
O37	O	0.957883	0.130534	0.912104
O38	O	0.957883	0.262716	0.779921
C39	C	0.636443	0.107726	0.934531
C40	C	0.557049	0.085768	0.956395
C41	C	0.843251	0.185405	0.544717
C42	C	0.834046	0.189811	0.434282
C43	C	0.897495	0.512787	0.842158
C44	C	0.906700	0.628303	0.832671
C45	C	0.295695	0.358881	0.683798
C46	C	0.221023	0.338332	0.704501
C47	C	0.221032	0.200344	0.842489
C48	C	0.295703	0.220885	0.821803
C49	C	0.333030	0.300154	0.742455
C50	C	0.333038	0.162158	0.880461
C51	C	0.407706	0.182693	0.859770
C52	C	0.445039	0.261956	0.780422
C53	C	0.407697	0.320689	0.721765
C54	C	0.295714	0.082884	0.959801
C55	C	0.333049	0.024157	1.018458
C56	C	0.407714	0.044697	0.997776
C57	C	0.445047	0.123960	0.918428
C58	C	0.445055	-0.014036	1.056434
C59	C	0.519723	0.006499	1.035743
C60	C	0.519714	0.144495	0.897738
C61	C	1.104303	0.237120	0.805691
C62	C	1.183697	0.259078	0.783828
C63	C	0.843251	-0.167941	0.898065
C64	C	0.834046	-0.283458	0.907552
C65	C	0.897495	0.159441	1.195505
C66	C	0.906700	0.155035	1.305941
C67	C	0.663565	0.094744	1.259925
C68	C	0.593376	0.068380	1.392225
C69	C	0.663565	0.448090	0.906578
C70	C	0.593376	0.541648	0.918955
C71	C	0.690687	0.435108	1.231972
C72	C	0.629703	0.524260	1.354784
C73	C	1.050059	-0.090262	0.508251
C74	C	1.111043	-0.179415	0.385438
C75	C	1.077181	0.250102	0.480297
C76	C	1.147370	0.276466	0.347998
C77	C	1.077181	-0.103244	0.833645
C78	C	1.147370	-0.196803	0.821268
C79	C	0.549822	-0.007940	1.396274
C80	C	0.483879	-0.032733	1.520572
C81	C	0.461488	0.018800	1.640821
C82	C	0.505050	0.095124	1.636768
C83	C	0.570996	0.119910	1.512470
C84	C	0.571008	0.649524	0.982847
C85	C	0.505069	0.737446	0.994468
C86	C	0.461495	0.717488	0.942204
C87	C	0.483869	0.609602	0.878303
C88	C	0.549811	0.521685	0.866674
C89	C	0.601065	0.497129	1.481467
C90	C	0.543775	0.580890	1.596870
C91	C	0.515118	0.691780	1.585589
C92	C	0.543762	0.718911	1.458892
C93	C	0.601057	0.635152	1.343491
C94	C	1.139690	-0.152281	0.258753
C95	C	1.197003	-0.236035	0.143343
C96	C	1.225664	-0.346924	0.154624
C97	C	1.197015	-0.374056	0.281322
C98	C	1.139708	-0.290302	0.396727
C99	C	1.190931	0.352776	0.343948
C100	C	1.256892	0.377546	0.219646
C101	C	1.279285	0.326009	0.099397
C102	C	1.235720	0.249689	0.103451
C103	C	1.169765	0.224915	0.227750
C104	C	1.190925	-0.176812	0.873548
C105	C	1.256868	-0.264713	0.861944
C106	C	1.279259	-0.372604	0.798052
C107	C	1.235697	-0.392594	0.745772
C108	C	1.169751	-0.304695	0.757385
H109	H	0.550107	0.209044	0.833125
H110	H	0.505841	0.278670	0.763572
Cl111	Cl	0.174093	0.412166	0.630745
Cl112	Cl	0.727128	0.240984	0.473493
H113	H	0.448381	0.593368	0.835752
H114	H	1.220358	-0.464352	0.290490
H115	H	0.606451	0.182062	1.509192
Cl116	Cl	1.233003	-0.201903	-0.015916
Cl117	Cl	0.577958	-0.072745	1.245120
Cl118	Cl	1.013612	0.103848	0.266733
Cl119	Cl	1.013618	0.648105	0.722490
Cl120	Cl	1.115011	-0.329844	0.691637
H121	H	0.190635	0.135800	0.907091
Cl122	Cl	1.362168	-0.483094	0.783459
Cl123	Cl	1.311643	0.473497	0.214582
H124	H	1.272327	-0.415112	0.060643
H125	H	1.172705	0.394755	0.441849
Cl126	Cl	0.429124	-0.128680	1.525637
Cl127	Cl	0.378580	-0.012370	1.797072
H128	H	0.624365	0.657258	1.240345
H129	H	0.486809	0.137076	1.734691
H130	H	0.606480	0.665795	1.025409
Cl131	Cl	0.476953	0.873060	1.074810
Cl132	Cl	1.362201	0.357169	-0.056856
H133	H	1.253938	-0.480450	0.693751
Cl134	Cl	0.443088	0.797064	1.730681
H135	H	0.520422	0.809208	1.449727
H136	H	0.438090	0.385238	0.657152
H137	H	1.116383	-0.312409	0.499878
H138	H	0.764802	0.703714	0.978919
Cl139	Cl	0.378595	0.828027	0.956837
H140	H	0.568013	0.433848	0.814652
H141	H	0.624389	0.406843	1.490679
Cl142	Cl	1.263878	0.184915	-0.047732
H143	H	1.134298	0.162780	0.231030
Cl144	Cl	1.103671	-0.012886	0.244537
Cl145	Cl	1.162790	-0.041187	0.953878
Cl146	Cl	1.311624	-0.239555	0.927665
H147	H	0.326088	0.423430	0.619185
H148	H	0.520459	0.558779	1.700022
H149	H	0.302651	-0.040387	1.083060
Cl150	Cl	0.201849	0.057066	0.985800
Cl151	Cl	0.398131	-0.113696	1.156164
Cl152	Cl	0.566662	-0.067331	1.109483
