data_functionalizedCrystal
_audit_creation_method	'MofGen! by Chris Wilmer'
_symmetry_space_group_name_H-M	'P1'
_symmetry_Int_Tables_number	1
_symmetry_cell_setting	triclinic
loop_
_symmetry_equiv_pos_as_xyz
  x,y,z
_cell_length_a	18.215407
_cell_length_b	16.959454
_cell_length_c	16.959447
_cell_angle_alpha	90.025781
_cell_angle_beta	89.987342
_cell_angle_gamma	89.979606
loop_
_atom_site_label
_atom_site_type_symbol
_atom_site_fract_x
_atom_site_fract_y
_atom_site_fract_z
Zn1	Zn	1.125051	0.314720	-0.446899
Zn2	Zn	1.458384	0.648053	-0.113565
Zn3	Zn	1.791718	0.981386	0.219768
Zn4	Zn	1.124973	0.446912	-0.314730
Zn5	Zn	1.458306	0.780245	0.018603
Zn6	Zn	1.791639	1.113579	0.351936
Zn7	Zn	1.001993	0.314746	-0.314740
Zn8	Zn	1.335326	0.648079	0.018593
Zn9	Zn	1.668659	0.981412	0.351927
Zn10	Zn	1.001954	0.446854	-0.446873
Zn11	Zn	1.335287	0.780187	-0.113540
Zn12	Zn	1.668620	1.113521	0.219794
O13	O	1.063493	0.380808	-0.380810
O14	O	1.396826	0.714141	-0.047477
O15	O	1.730159	1.047474	0.285856
O16	O	1.228025	0.332269	-0.429373
O17	O	1.561358	0.665602	-0.096040
O18	O	1.894692	0.998935	0.237294
O19	O	1.108643	0.429415	-0.204121
O20	O	1.441976	0.762748	0.129213
O21	O	1.775309	1.096082	0.462546
O22	O	1.018366	0.204131	-0.332286
O23	O	1.351699	0.537465	0.001048
O24	O	1.685032	0.870798	0.334381
O25	O	1.227967	0.429390	-0.332270
O26	O	1.561301	0.762723	0.001064
O27	O	1.894634	1.096056	0.334397
O28	O	1.108776	0.204112	-0.429382
O29	O	1.442110	0.537445	-0.096049
O30	O	1.775443	0.870779	0.237285
O31	O	1.018290	0.332313	-0.204128
O32	O	1.351623	0.665646	0.129206
O33	O	1.684957	0.998979	0.462539
O34	O	0.899003	0.332257	-0.332261
O35	O	1.232337	0.665590	0.001073
O36	O	1.565670	0.998923	0.334406
O37	O	1.018299	0.429291	-0.557487
O38	O	1.351633	0.762624	-0.224154
O39	O	1.684966	1.095958	0.109179
O40	O	0.898975	0.429316	-0.429338
O41	O	1.232308	0.762650	-0.096005
O42	O	1.565641	1.095983	0.237328
O43	O	1.108738	0.332212	-0.557506
O44	O	1.442072	0.665546	-0.224173
O45	O	1.775405	0.998879	0.109161
O46	O	1.108605	0.557515	-0.332245
O47	O	1.441938	0.890849	0.001089
O48	O	1.775272	1.224182	0.334422
O49	O	1.018223	0.557473	-0.429329
O50	O	1.351557	0.890806	-0.095996
O51	O	1.684890	1.224139	0.237337
C52	C	0.872286	0.380784	-0.380798
C53	C	1.205620	0.714117	-0.047465
C54	C	1.538953	1.047450	0.285868
C55	C	0.790487	0.380792	-0.380812
C56	C	1.123821	0.714126	-0.047478
C57	C	1.457154	1.047459	0.285855
C58	C	0.525434	0.431430	-0.431289
C59	C	0.858768	0.764763	-0.097956
C60	C	1.192101	1.098096	0.235377
C61	C	0.602293	0.431423	-0.431286
C62	C	0.935626	0.764756	-0.097952
C63	C	1.268960	1.098090	0.235381
C64	C	0.602292	0.330204	-0.330345
C65	C	0.935626	0.663537	0.002988
C66	C	1.268959	0.996870	0.336321
C67	C	0.525435	0.330215	-0.330346
C68	C	0.858768	0.663548	0.002988
C69	C	1.192102	0.996882	0.336321
C70	C	0.487008	0.380827	-0.380822
C71	C	0.820341	0.714160	-0.047489
C72	C	1.153675	1.047493	0.285844
C73	C	0.640724	0.380809	-0.380818
C74	C	0.974057	0.714142	-0.047485
C75	C	1.307391	1.047475	0.285849
C76	C	0.724058	0.380801	-0.380814
C77	C	1.057391	0.714134	-0.047480
C78	C	1.390724	1.047468	0.285853
C79	C	0.403669	0.380836	-0.380826
C80	C	0.737002	0.714169	-0.047493
C81	C	1.070336	1.047502	0.285841
C82	C	1.063421	0.586174	-0.380800
C83	C	1.396755	0.919507	-0.047467
C84	C	1.730088	1.252841	0.285866
C85	C	1.063458	0.674031	-0.380823
C86	C	1.396792	1.007364	-0.047489
C87	C	1.730125	1.340697	0.285844
C88	C	1.016468	1.045514	-0.431368
C89	C	1.349802	1.378847	-0.098035
C90	C	1.683135	1.712181	0.235299
C91	C	1.110660	1.045498	-0.330356
C92	C	1.443993	1.378832	0.002978
C93	C	1.777327	1.712165	0.336311
C94	C	1.110638	0.962953	-0.330347
C95	C	1.443972	1.296286	0.002986
C96	C	1.777305	1.629619	0.336320
C97	C	1.063530	0.921684	-0.380849
C98	C	1.396863	1.255017	-0.047515
C99	C	1.730197	1.588350	0.285818
C100	C	1.016443	0.962960	-0.431359
C101	C	1.349777	1.296294	-0.098026
C102	C	1.683110	1.629627	0.235307
C103	C	1.157719	0.921669	-0.279832
C104	C	1.491052	1.255003	0.053502
C105	C	1.824385	1.588336	0.386835
C106	C	1.157698	0.839118	-0.279820
C107	C	1.491031	1.172452	0.053513
C108	C	1.824365	1.505785	0.386846
C109	C	1.110593	0.797848	-0.330327
C110	C	1.443926	1.131181	0.003007
C111	C	1.777259	1.464515	0.336340
C112	C	1.063505	0.839130	-0.380840
C113	C	1.396838	1.172463	-0.047507
C114	C	1.730172	1.505797	0.285827
C115	C	1.016397	0.797861	-0.431342
C116	C	1.349730	1.131194	-0.098008
C117	C	1.683063	1.464528	0.235325
C118	C	0.969312	0.839142	-0.481860
C119	C	1.302645	1.172475	-0.148526
C120	C	1.635979	1.505808	0.184807
C121	C	0.969338	0.921690	-0.481866
C122	C	1.302672	1.255023	-0.148532
C123	C	1.636005	1.588357	0.184801
C124	C	1.110567	0.715300	-0.330321
C125	C	1.443900	1.048633	0.003013
C126	C	1.777233	1.381966	0.336346
C127	C	1.016372	0.715308	-0.431333
C128	C	1.349705	1.048641	-0.098000
C129	C	1.683038	1.381974	0.235334
C130	C	1.255445	0.380833	-0.380823
C131	C	1.588779	0.714166	-0.047490
C132	C	1.922112	1.047499	0.285844
C133	C	1.337244	0.380843	-0.380829
C134	C	1.670578	0.714177	-0.047495
C135	C	2.003911	1.047510	0.285838
C136	C	1.063523	0.380742	-0.586979
C137	C	1.396857	0.714076	-0.253645
C138	C	1.730190	1.047409	0.079688
C139	C	1.063536	0.380714	-0.674835
C140	C	1.396870	0.714048	-0.341502
C141	C	1.730203	1.047381	-0.008169
C142	C	1.063572	1.174640	-0.380842
C143	C	1.396906	1.507973	-0.047509
C144	C	1.730239	1.841306	0.285825
C145	C	1.063577	1.086783	-0.380866
C146	C	1.396910	1.420116	-0.047533
C147	C	1.730243	1.753450	0.285801
C148	C	1.016537	0.431175	-1.046304
C149	C	1.349870	0.764509	-0.712971
C150	C	1.683203	1.097842	-0.379637
C151	C	1.110712	0.330087	-1.046319
C152	C	1.444045	0.663420	-0.712985
C153	C	1.777378	0.996753	-0.379652
C154	C	1.110692	0.330103	-0.963773
C155	C	1.444026	0.663437	-0.630439
C156	C	1.777359	0.996770	-0.297106
C157	C	1.063595	0.380658	-0.922488
C158	C	1.396928	0.713991	-0.589155
C159	C	1.730262	1.047324	-0.255822
C160	C	1.016517	0.431195	-0.963750
C161	C	1.349851	0.764529	-0.630417
C162	C	1.683184	1.097862	-0.297084
C163	C	1.157774	0.279572	-0.922505
C164	C	1.491108	0.612906	-0.589171
C165	C	1.824441	0.946239	-0.255838
C166	C	1.157757	0.279588	-0.839954
C167	C	1.491090	0.612921	-0.506620
C168	C	1.824424	0.946254	-0.173287
C169	C	1.110656	0.330139	-0.798668
C170	C	1.443989	0.663472	-0.465335
C171	C	1.777322	0.996805	-0.132001
C172	C	1.063575	0.380678	-0.839935
C173	C	1.396909	0.714011	-0.506602
C174	C	1.730242	1.047344	-0.173268
C175	C	1.016478	0.431232	-0.798651
C176	C	1.349811	0.764565	-0.465317
C177	C	1.683145	1.097899	-0.131984
C178	C	0.969394	0.481768	-0.839916
C179	C	1.302727	0.815101	-0.506583
C180	C	1.636060	1.148434	-0.173249
C181	C	0.969416	0.481746	-0.922465
C182	C	1.302749	0.815080	-0.589131
C183	C	1.636082	1.148413	-0.255798
C184	C	1.110634	0.330160	-0.716120
C185	C	1.443967	0.663493	-0.382786
C186	C	1.777300	0.996827	-0.049453
C187	C	1.016459	0.431252	-0.716097
C188	C	1.349792	0.764585	-0.382764
C189	C	1.683125	1.097919	-0.049430
C190	C	1.063504	0.380816	-0.175444
C191	C	1.396838	0.714149	0.157889
C192	C	1.730171	1.047483	0.491222
C193	C	1.063634	0.380621	-0.087588
C194	C	1.396967	0.713954	0.245745
C195	C	1.730301	1.047288	0.579079
H196	H	0.978013	0.681711	-0.472461
H197	H	1.311346	1.015045	-0.139128
H198	H	1.644680	1.348378	0.194206
H199	H	0.494149	0.472641	-0.472390
H200	H	0.827483	0.805975	-0.139057
H201	H	1.160816	1.139308	0.194276
H202	H	1.196123	0.238419	-0.956124
H203	H	1.529456	0.571752	-0.622791
H204	H	1.862789	0.905085	-0.289458
H205	H	0.978099	0.472413	-0.682489
H206	H	1.311432	0.805746	-0.349156
H207	H	1.644766	1.139080	-0.015823
H208	H	0.633576	0.472630	-0.472380
H209	H	0.966910	0.805963	-0.139047
H210	H	1.300243	1.139296	0.194287
H211	H	1.148971	0.289017	-0.682525
H212	H	1.482304	0.622350	-0.349192
H213	H	1.815638	0.955684	-0.015858
F214	F	0.919174	0.795211	-0.535602
F215	F	1.252508	1.128544	-0.202269
F216	F	1.585841	1.461877	0.131065
F217	F	0.484536	0.276356	-0.276627
F218	F	0.817870	0.609689	0.056707
F219	F	1.151203	0.943022	0.390040
H220	H	0.633589	0.288996	-0.289250
H221	H	0.966922	0.622329	0.044083
H222	H	1.300256	0.955663	0.377416
F223	F	0.919231	0.965629	-0.535624
F224	F	1.252565	1.298962	-0.202291
F225	F	1.585898	1.632295	0.131042
F226	F	0.966363	1.089447	-0.485133
F227	F	1.299696	1.422780	-0.151800
F228	F	1.633030	1.756114	0.181533
F229	F	1.207854	0.965594	-0.226091
F230	F	1.541187	1.298928	0.107242
F231	F	1.874520	1.632261	0.440576
H232	H	1.196037	0.805513	-0.238687
H233	H	1.529370	1.138846	0.094646
H234	H	1.862704	1.472180	0.427979
H235	H	0.931084	0.522892	-0.956070
H236	H	1.264418	0.856226	-0.622737
H237	H	1.597751	1.189559	-0.289404
H238	H	1.196096	0.238438	-0.806362
H239	H	1.529429	0.571771	-0.473029
H240	H	1.862762	0.905105	-0.139696
F241	F	1.160667	0.671370	-0.276553
F242	F	1.494000	1.004703	0.056781
F243	F	1.827333	1.338036	0.390114
F244	F	1.160793	1.089422	-0.276611
F245	F	1.494126	1.422755	0.056723
F246	F	1.827459	1.756088	0.390056
H247	H	0.931050	0.522933	-0.806292
H248	H	1.264384	0.856266	-0.472958
H249	H	1.597717	1.189599	-0.139625
F250	F	0.966426	0.484954	-1.090221
F251	F	1.299760	0.818288	-0.756887
F252	F	1.633093	1.151621	-0.423554
H253	H	1.149060	0.288932	-1.079937
H254	H	1.482394	0.622265	-0.746604
H255	H	1.815727	0.955599	-0.413270
