data_functionalizedCrystal
_audit_creation_method	'MofGen! by Chris Wilmer'
_symmetry_space_group_name_H-M	'P1'
_symmetry_Int_Tables_number	1
_symmetry_cell_setting	triclinic
loop_
_symmetry_equiv_pos_as_xyz
  x,y,z
_cell_length_a	15.297475
_cell_length_b	25.639239
_cell_length_c	15.298259
_cell_angle_alpha	80.281399
_cell_angle_beta	88.370891
_cell_angle_gamma	80.340538
loop_
_atom_site_label
_atom_site_type_symbol
_atom_site_fract_x
_atom_site_fract_y
_atom_site_fract_z
Zn1	Zn	1.253385	-0.261141	-0.726620
Zn2	Zn	1.753385	0.238859	-0.226620
Zn3	Zn	1.278578	-0.365812	-0.580102
Zn4	Zn	1.778578	0.134188	-0.080102
Zn5	Zn	1.132236	-0.266227	-0.554843
Zn6	Zn	1.632236	0.233773	-0.054843
Zn7	Zn	1.106836	-0.336373	-0.701248
Zn8	Zn	1.606836	0.163627	-0.201248
O9	O	1.192759	-0.307388	-0.640703
O10	O	1.692759	0.192612	-0.140703
O11	O	1.379303	-0.285218	-0.728374
O12	O	1.879303	0.214782	-0.228374
O13	O	1.280339	-0.367050	-0.454162
O14	O	1.780339	0.132950	0.045838
O15	O	1.148393	-0.192391	-0.577678
O16	O	1.648393	0.307609	-0.077678
O17	O	1.397813	-0.362119	-0.620727
O18	O	1.897813	0.137881	-0.120727
O19	O	1.237401	-0.188655	-0.703882
O20	O	1.737401	0.311345	-0.203882
O21	O	1.172822	-0.293885	-0.435604
O22	O	1.672822	0.206115	0.064396
O23	O	1.006290	-0.265340	-0.553075
O24	O	1.506290	0.234660	-0.053075
O25	O	1.105102	-0.311945	-0.827203
O26	O	1.605102	0.188055	-0.327203
O27	O	0.987629	-0.316876	-0.660638
O28	O	1.487629	0.183124	-0.160638
O29	O	1.212772	-0.256673	-0.845844
O30	O	1.712772	0.243327	-0.345844
O31	O	1.255710	-0.435068	-0.596124
O32	O	1.755710	0.064932	-0.096124
O33	O	1.129531	-0.413439	-0.685130
O34	O	1.629531	0.086561	-0.185130
C35	C	0.965177	-0.288465	-0.601363
C36	C	1.465177	0.211535	-0.101363
C37	C	0.867812	-0.280380	-0.584553
C38	C	1.367812	0.219620	-0.084553
C39	C	0.554653	-0.365177	-0.760845
C40	C	1.054653	0.134823	-0.260845
C41	C	0.646132	-0.372778	-0.776635
C42	C	1.146132	0.127222	-0.276635
C43	C	0.701556	-0.349679	-0.728616
C44	C	1.201556	0.150321	-0.228616
C45	C	0.665493	-0.318978	-0.664803
C46	C	1.165493	0.181022	-0.164803
C47	C	0.574006	-0.311381	-0.649006
C48	C	1.074006	0.188619	-0.149006
C49	C	0.720909	-0.295882	-0.616778
C50	C	1.220909	0.204118	-0.116778
C51	C	0.684846	-0.265182	-0.552965
C52	C	1.184846	0.234818	-0.052965
C53	C	0.593368	-0.257585	-0.537171
C54	C	1.093368	0.242415	-0.037171
C55	C	0.537943	-0.280684	-0.585190
C56	C	1.037943	0.219316	-0.085190
C57	C	0.812397	-0.303480	-0.632575
C58	C	1.312397	0.196520	-0.132575
C59	C	0.831750	-0.249683	-0.520737
C60	C	1.331750	0.250317	-0.020737
C61	C	0.740271	-0.242083	-0.504946
C62	C	1.240271	0.257917	-0.004946
C63	C	1.192618	-0.443223	-0.640638
C64	C	1.692618	0.056777	-0.140638
C65	C	1.192633	-0.501337	-0.640653
C66	C	1.692633	-0.001337	-0.140653
C67	C	1.258590	-0.872958	-0.594479
C68	C	1.758590	-0.372958	-0.094479
C69	C	1.258622	-0.927564	-0.594496
C70	C	1.758622	-0.427564	-0.094496
O71	O	1.314555	-0.965365	-0.555167
O72	O	1.814555	-0.465365	-0.055167
N73	N	1.192903	-0.943633	-0.640788
N74	N	1.692903	-0.443633	-0.140788
C75	C	1.127153	-0.905093	-0.687072
C76	C	1.627153	-0.405093	-0.187072
O77	O	1.071257	-0.923775	-0.726449
O78	O	1.571257	-0.423775	-0.226449
C79	C	1.127125	-0.850488	-0.687059
C80	C	1.627125	-0.350488	-0.187059
C81	C	1.192843	-0.834423	-0.640757
C82	C	1.692843	-0.334423	-0.140757
C83	C	1.324303	-0.856892	-0.548182
C84	C	1.824303	-0.356892	-0.048182
C85	C	1.324270	-0.802290	-0.548163
C86	C	1.824270	-0.302290	-0.048163
C87	C	1.258523	-0.763754	-0.594441
C88	C	1.758523	-0.263754	-0.094441
C89	C	1.192810	-0.779821	-0.640739
C90	C	1.692810	-0.279821	-0.140739
C91	C	1.061380	-0.811949	-0.733348
C92	C	1.561380	-0.311949	-0.233348
C93	C	1.061358	-0.757341	-0.733332
C94	C	1.561358	-0.257341	-0.233332
C95	C	1.127076	-0.741276	-0.687030
C96	C	1.627076	-0.241276	-0.187030
C97	C	1.127031	-0.686683	-0.686998
C98	C	1.627031	-0.186683	-0.186998
N99	N	1.192750	-0.670614	-0.640707
N100	N	1.692750	-0.170614	-0.140707
C101	C	1.258496	-0.709149	-0.594428
C102	C	1.758496	-0.209149	-0.094428
C103	C	1.127216	-1.019767	-0.687097
C104	C	1.627216	-0.519767	-0.187097
C105	C	1.127240	-1.074371	-0.687105
C106	C	1.627240	-0.574371	-0.187105
C107	C	1.258710	-1.096838	-0.594531
C108	C	1.758710	-0.596838	-0.094531
C109	C	1.258682	-1.042234	-0.594518
C110	C	1.758682	-0.542234	-0.094518
C111	C	1.192935	-1.003698	-0.640806
C112	C	1.692935	-0.503698	-0.140806
C113	C	1.258421	-0.594480	-0.594392
C114	C	1.758421	-0.094480	-0.094392
C115	C	1.258380	-0.539873	-0.594374
C116	C	1.758380	-0.039873	-0.094374
C117	C	1.126913	-0.517410	-0.686952
C118	C	1.626913	-0.017410	-0.186952
C119	C	1.126951	-0.572013	-0.686967
C120	C	1.626951	-0.072013	-0.186967
C121	C	1.192712	-0.610548	-0.640685
C122	C	1.692712	-0.110548	-0.140685
O123	O	1.071128	-0.648852	-0.726311
O124	O	1.571128	-0.148852	-0.226311
O125	O	1.314389	-0.690458	-0.555068
O126	O	1.814389	-0.190458	-0.055068
C127	C	1.421229	-0.326385	-0.680198
C128	C	1.921229	0.173615	-0.180198
C129	C	1.518590	-0.334481	-0.697028
C130	C	2.018590	0.165519	-0.197028
C131	C	1.153293	-0.280458	-0.869198
C132	C	1.653293	0.219542	-0.369198
C133	C	1.136476	-0.268981	-0.966569
C134	C	1.636476	0.231019	-0.466569
C135	C	1.192920	-0.171022	-0.640792
C136	C	1.692920	0.328978	-0.140792
C137	C	1.192989	-0.112911	-0.640830
C138	C	1.692989	0.387089	-0.140830
C139	C	1.312987	-0.389009	-1.279682
C140	C	1.812987	0.110991	-0.779682
C141	C	1.328783	-0.399795	-1.188196
C142	C	1.828783	0.100205	-0.688196
C143	C	1.280708	-0.367092	-1.132785
C144	C	1.780708	0.132908	-0.632785
C145	C	1.216833	-0.323603	-1.168869
C146	C	1.716833	0.176397	-0.668869
C147	C	1.201030	-0.312819	-1.260362
C148	C	1.701030	0.187181	-0.760362
C149	C	1.168751	-0.290902	-1.113466
C150	C	1.668751	0.209098	-0.613466
C151	C	1.104876	-0.247412	-1.149549
C152	C	1.604876	0.252588	-0.649549
C153	C	1.089076	-0.236630	-1.241034
C154	C	1.589076	0.263370	-0.741034
C155	C	1.137152	-0.269333	-1.296445
C156	C	1.637152	0.230667	-0.796445
C157	C	1.184554	-0.301686	-1.021972
C158	C	1.684554	0.198314	-0.521972
C159	C	1.072597	-0.225495	-1.002652
C160	C	1.572597	0.274505	-0.502652
C161	C	1.056801	-0.214710	-1.094138
C162	C	1.556801	0.285290	-0.594138
C163	C	1.232121	-0.334180	-0.413106
C164	C	1.732121	0.165820	0.086894
C165	C	1.249109	-0.345523	-0.315765
C166	C	1.749109	0.154477	0.184235
H167	H	0.841750	-0.328476	-0.684533
H168	H	1.341750	0.171524	-0.184533
C169	C	1.254828	-0.349517	-0.982293
C170	C	1.754828	0.150483	-0.482293
N171	N	1.307767	-0.385544	-0.952409
N172	N	1.807767	0.114456	-0.452409
H173	H	1.311896	-0.526795	-0.556667
H174	H	1.811896	-0.026795	-0.056667
H175	H	0.776042	-0.355869	-0.741477
H176	H	1.276042	0.144131	-0.241477
H177	H	1.311972	-0.625850	-0.556707
H178	H	1.811972	-0.125850	-0.056707
H179	H	1.377846	-0.888263	-0.510496
H180	H	1.877846	-0.388263	-0.010496
C181	C	0.700590	-0.208315	-0.434750
C182	C	1.200590	0.291685	0.065250
N183	N	0.670701	-0.182882	-0.381878
N184	N	1.170701	0.317118	0.118122
H185	H	1.073381	-0.486026	-0.724629
H186	H	1.573381	0.013974	-0.224629
C187	C	0.437307	-0.272315	-0.567837
C188	C	0.937307	0.227685	-0.067837
N189	N	0.361506	-0.266010	-0.554772
N190	N	0.861506	0.233990	-0.054772
C191	C	0.685795	-0.406549	-0.846826
C192	C	1.185795	0.093451	-0.346826
N193	N	0.715669	-0.431987	-0.899697
N194	N	1.215669	0.068013	-0.399697
H195	H	0.876877	-0.230875	-0.481635
H196	H	1.376877	0.269125	0.018365
H197	H	1.073671	-0.988393	-0.724786
H198	H	1.573671	-0.488393	-0.224786
H199	H	1.377785	-0.789213	-0.510463
H200	H	1.877785	-0.289213	-0.010463
C201	C	1.330978	-1.024567	-0.543586
C202	C	1.830978	-0.524567	-0.043586
N203	N	1.385436	-1.011264	-0.505223
N204	N	1.885436	-0.511264	-0.005223
C205	C	0.989030	-0.714954	-0.784254
C206	C	1.489030	-0.214954	-0.284254
N207	N	0.934551	-0.683030	-0.822607
N208	N	1.434551	-0.183030	-0.322607
H209	H	1.004793	-0.179300	-1.123530
H210	H	1.504793	0.320700	-0.623530
H211	H	1.352116	-0.415634	-1.324804
H212	H	1.852116	0.084366	-0.824804
H213	H	1.293573	-0.375877	-1.058294
H214	H	1.793573	0.124123	-0.558294
H215	H	1.124296	-0.260552	-1.370941
H216	H	1.624296	0.239448	-0.870941
C217	C	1.054656	-0.589686	-0.737897
C218	C	1.554656	-0.089686	-0.237897
N219	N	1.000207	-0.602993	-0.776267
N220	N	1.500207	-0.102993	-0.276267
C221	C	1.331038	-1.139238	-0.543631
C222	C	1.831038	-0.639238	-0.043631
N223	N	1.385513	-1.171174	-0.505297
N224	N	1.885513	-0.671174	-0.005297
H225	H	0.509519	-0.383985	-0.799929
H226	H	1.009519	0.116015	-0.299929
C227	C	0.553702	-0.223815	-0.466974
C228	C	1.053702	0.276185	0.033026
N229	N	0.523826	-0.198377	-0.414103
N230	N	1.023826	0.301623	0.085897
H231	H	1.073719	-1.087446	-0.724799
H232	H	1.573719	-0.587446	-0.224799
C233	C	0.989086	-0.829607	-0.784288
C234	C	1.489086	-0.329607	-0.284288
N235	N	0.934630	-0.842906	-0.822661
N236	N	1.434630	-0.342906	-0.322661
C237	C	1.399082	-0.447612	-1.148518
C238	C	1.899082	0.052388	-0.648518
N239	N	1.452049	-0.483624	-1.118635
N240	N	1.952049	0.016376	-0.618635
H241	H	1.037057	-0.201222	-1.270408
H242	H	1.537057	0.298778	-0.770408
H243	H	1.033450	-0.198866	-0.957536
H244	H	1.533450	0.301134	-0.457536
