data_functionalizedCrystal
_audit_creation_method	'MofGen! by Chris Wilmer'
_symmetry_space_group_name_H-M	'P1'
_symmetry_Int_Tables_number	1
_symmetry_cell_setting	triclinic
loop_
_symmetry_equiv_pos_as_xyz
  x,y,z
_cell_length_a	11.026607
_cell_length_b	11.792241
_cell_length_c	10.065875
_cell_angle_alpha	98.849501
_cell_angle_beta	79.302338
_cell_angle_gamma	96.389716
loop_
_atom_site_label
_atom_site_type_symbol
_atom_site_fract_x
_atom_site_fract_y
_atom_site_fract_z
O1	O	1.630965	0.462836	-0.113504
O2	O	1.277303	0.408644	-0.113505
O3	O	1.462715	0.272275	-0.113495
O4	O	1.445553	0.599205	-0.113514
O5	O	1.427360	0.298412	0.113492
O6	O	1.241948	0.434781	0.113482
O7	O	1.595611	0.488973	0.113483
Zn8	Zn	1.413166	0.466027	0.149522
Zn9	Zn	1.459747	0.431590	-0.149543
O10	O	1.410198	0.625342	0.113473
C11	C	1.214349	0.411715	-0.000011
C12	C	1.079439	0.381912	-0.000011
C13	C	1.006175	0.464202	-0.000017
C14	C	0.866738	0.433401	-0.000017
C15	C	1.443960	0.242838	-0.000002
C16	C	1.440732	0.116183	-0.000003
C17	C	1.434802	-0.115710	-0.000026
C18	C	1.438097	0.013332	-0.000013
C19	C	1.658565	0.485901	-0.000014
C20	C	1.793477	0.515703	-0.000023
C21	C	1.428954	0.654778	-0.000023
C22	C	1.432183	0.781432	-0.000031
N23	N	1.381384	0.489530	0.353626
N24	N	1.491539	0.408079	-0.353647
C25	C	1.448682	0.439759	0.421408
C26	C	1.424231	0.457858	0.578574
H27	H	1.046680	0.557456	-0.000015
O28	O	1.539177	0.373042	0.352022
C29	C	1.756719	0.344210	0.308018
C30	C	1.654337	0.419848	0.386682
H31	H	1.849854	0.382037	0.335990
H32	H	1.735785	0.253165	0.336082
H33	H	1.760316	0.341473	0.193657
H34	H	1.650684	0.422680	0.501060
H35	H	1.675311	0.510853	0.358504
O36	O	1.333967	0.524831	0.647983
C37	C	1.257852	0.713156	0.692043
C38	C	1.360142	0.637436	0.613328
H39	H	1.278992	0.804218	0.664075
H40	H	1.164672	0.675533	0.664021
H41	H	1.254208	0.715784	0.806396
H42	H	1.363900	0.634778	0.498957
H43	H	1.453272	0.675087	0.641463
O44	O	0.818414	0.322130	-0.000254
C45	C	0.709379	0.160392	-0.117803
C46	C	0.764079	0.286396	-0.117719
H47	H	0.665413	0.131470	-0.212748
H48	H	0.786193	0.103158	-0.117888
H49	H	0.635957	0.153291	-0.022765
H50	H	0.837486	0.293608	-0.212740
H51	H	0.687196	0.343572	-0.117562
H52	H	1.305662	0.545537	0.411948
O53	O	1.581889	0.341177	0.577006
C54	C	1.742158	0.222731	0.591749
C55	C	1.639859	0.298444	0.670453
H56	H	1.789073	0.188180	0.667267
H57	H	1.699548	0.147601	0.524904
H58	H	1.813648	0.276434	0.524794
H59	H	1.568335	0.244838	0.737482
H60	H	1.682558	0.373579	0.737212
O61	O	0.841993	0.626896	-0.000112
C62	C	1.025189	0.758988	-0.000087
C63	C	0.970409	0.633018	-0.000002
H64	H	1.129016	0.763982	0.000032
H65	H	1.008407	0.792195	-0.095117
H66	H	0.978668	0.814062	0.094870
H67	H	1.016895	0.577854	-0.094894
H68	H	0.987176	0.599904	0.095092
O69	O	1.030937	0.270709	-0.000067
C70	C	0.847719	0.138636	0.000020
C71	C	0.902485	0.264618	0.000053
H72	H	0.743855	0.133672	0.000146
H73	H	0.894093	0.083525	-0.094995
H74	H	0.864664	0.105450	0.094993
H75	H	0.885556	0.297908	-0.094855
H76	H	0.856108	0.319650	0.095130
