data_functionalizedCrystal
_audit_creation_method	'MofGen! by Chris Wilmer'
_symmetry_space_group_name_H-M	'P1'
_symmetry_Int_Tables_number	1
_symmetry_cell_setting	triclinic
loop_
_symmetry_equiv_pos_as_xyz
  x,y,z
_cell_length_a	19.805407
_cell_length_b	18.050589
_cell_length_c	19.805398
_cell_angle_alpha	89.979370
_cell_angle_beta	89.984135
_cell_angle_gamma	90.028221
loop_
_atom_site_label
_atom_site_type_symbol
_atom_site_fract_x
_atom_site_fract_y
_atom_site_fract_z
Zn1	Zn	1.034702	-0.295689	-0.382745
Zn2	Zn	1.034621	-0.419877	-0.269567
Zn3	Zn	0.921524	-0.295706	-0.269569
Zn4	Zn	0.921477	-0.419842	-0.382713
O5	O	0.978081	-0.357778	-0.326148
O6	O	1.129408	-0.312171	-0.367743
O7	O	1.019604	-0.403428	-0.174850
O8	O	0.936592	-0.191779	-0.284596
O9	O	1.129348	-0.403411	-0.284592
O10	O	1.019743	-0.191766	-0.367746
O11	O	0.936513	-0.312199	-0.174852
O12	O	0.826802	-0.312165	-0.284566
O13	O	0.936511	-0.403350	-0.477434
O14	O	0.826767	-0.403367	-0.367693
O15	O	1.019697	-0.312136	-0.477457
O16	O	1.019558	-0.523797	-0.284562
O17	O	0.936432	-0.523771	-0.367690
C18	C	0.802225	-0.357764	-0.326127
C19	C	0.726993	-0.357776	-0.326133
C20	C	0.691649	-0.405336	-0.369347
C21	C	0.620960	-0.405338	-0.369357
C22	C	0.585618	-0.357782	-0.326148
C23	C	0.620967	-0.310216	-0.282933
C24	C	0.691654	-0.310212	-0.282927
C25	C	0.335894	-0.310233	-0.282955
C26	C	0.265202	-0.310242	-0.282962
C27	C	0.265200	-0.405359	-0.369385
C28	C	0.335887	-0.405354	-0.369379
C29	C	0.371230	-0.357786	-0.326166
C30	C	0.447879	-0.357784	-0.326157
C31	C	0.508970	-0.357787	-0.326153
C32	C	0.977999	-0.550731	-0.326137
C33	C	0.978026	-0.633276	-0.326155
C34	C	0.932867	-0.832740	-0.371344
C35	C	0.916372	-0.882176	-0.309581
C36	C	0.978093	-0.784407	-0.326164
C37	C	0.994621	-0.882051	-0.387934
C38	C	0.978156	-0.930392	-0.326178
C39	C	0.961566	-0.832756	-0.264368
C40	C	1.039843	-0.832627	-0.342762
C41	C	1.023372	-0.882042	-0.280957
C42	C	0.978055	-0.700308	-0.326157
C43	C	0.978194	-1.014488	-0.326178
C44	C	1.154624	-0.357793	-0.326171
C45	C	1.229856	-0.357800	-0.326180
C46	C	0.978108	-0.357737	-0.502691
C47	C	0.978119	-0.357720	-0.577923
C48	C	0.978182	-0.164073	-0.326175
C49	C	0.978224	-0.081527	-0.326186
C50	C	1.021516	-0.310093	-1.039727
C51	C	1.021505	-0.310116	-0.969039
C52	C	0.978188	-0.357616	-0.933685
C53	C	0.934884	-0.405103	-0.969023
C54	C	0.934899	-0.405083	-1.039711
C55	C	0.934826	-0.405183	-0.683950
C56	C	0.934813	-0.405198	-0.613258
C57	C	1.021432	-0.310216	-0.613278
C58	C	1.021446	-0.310196	-0.683966
C59	C	0.978145	-0.357685	-0.719298
C60	C	0.978158	-0.357661	-0.795946
C61	C	0.978172	-0.357637	-0.857038
C62	C	0.978094	-0.357766	-0.150292
C63	C	0.978214	-0.357574	-0.075061
H64	H	0.236415	-0.444088	-0.404574
C65	C	0.226950	-0.258521	-0.236026
C66	C	0.273031	-0.216846	-0.198194
C67	C	0.237818	-0.169191	-0.154958
H68	H	0.199352	-0.286804	-0.206431
H69	H	0.199410	-0.226169	-0.261960
H70	H	0.300559	-0.249195	-0.172262
H71	H	0.300631	-0.188548	-0.227770
H72	H	0.210278	-0.136838	-0.180892
H73	H	0.210221	-0.197480	-0.125368
H74	H	0.269078	-0.140904	-0.129288
C75	C	1.068399	-0.258648	-0.722471
C76	C	1.059129	-0.268778	-0.791939
C77	C	1.102364	-0.221297	-0.827429
H78	H	1.113897	-0.269472	-0.710973
H79	H	1.058507	-0.208736	-0.710929
H80	H	1.069026	-0.318678	-0.803476
H81	H	1.013640	-0.257948	-0.803457
H82	H	1.092472	-0.171386	-0.815887
H83	H	1.147860	-0.232126	-0.815926
H84	H	1.096076	-0.228159	-0.874567
C85	C	1.109441	-0.803541	-0.361363
C86	C	1.134834	-0.760921	-0.308046
C87	C	1.198949	-0.734123	-0.325160
H88	H	1.106258	-0.773774	-0.400794
H89	H	1.138896	-0.844047	-0.369698
H90	H	1.105386	-0.720421	-0.299719
H91	H	1.138033	-0.790672	-0.268610
H92	H	1.228405	-0.774629	-0.333495
H93	H	1.195760	-0.704360	-0.364592
H94	H	1.216189	-0.705208	-0.288986
C95	C	0.942855	-0.803865	-0.194757
C96	C	0.942995	-0.726304	-0.195574
C97	C	0.925750	-0.699662	-0.131465
H98	H	0.974774	-0.821061	-0.162584
H99	H	0.899131	-0.821203	-0.182892
H100	H	0.986712	-0.708973	-0.207430
H101	H	0.911074	-0.709088	-0.227733
H102	H	0.882026	-0.717000	-0.119601
H103	H	0.957672	-0.716863	-0.099298
H104	H	0.925837	-0.647035	-0.132013
C105	C	1.074316	-0.910692	-0.229856
C106	C	1.056732	-0.885595	-0.165324
C107	C	1.103638	-0.911983	-0.118231
H108	H	1.118054	-0.892993	-0.241178
H109	H	1.074315	-0.963322	-0.230357
H110	H	1.056741	-0.832976	-0.164825
H111	H	1.013003	-0.903293	-0.153981
H112	H	1.103636	-0.964613	-0.118732
H113	H	1.147373	-0.894282	-0.129559
H114	H	1.091710	-0.894965	-0.074440
C115	C	0.374343	-0.258713	-0.235993
C116	C	0.414907	-0.300691	-0.192551
C117	C	0.450344	-0.253254	-0.149283
H118	H	0.343243	-0.230380	-0.210197
H119	H	0.401978	-0.226398	-0.261911
H120	H	0.387274	-0.332993	-0.166636
H121	H	0.446019	-0.329022	-0.218328
H122	H	0.477979	-0.220938	-0.175201
H123	H	0.419239	-0.224923	-0.123492
H124	H	0.477875	-0.281728	-0.119807
H125	H	1.056768	-0.271454	-0.940274
C126	C	0.582720	-0.258502	-0.235993
C127	C	0.628805	-0.216835	-0.198160
C128	C	0.593598	-0.169182	-0.154917
H129	H	0.555121	-0.286787	-0.206400
H130	H	0.555180	-0.226144	-0.261922
H131	H	0.656333	-0.249189	-0.172233
H132	H	0.656405	-0.188535	-0.227735
H133	H	0.566058	-0.136824	-0.180845
H134	H	0.566001	-0.197473	-0.125328
H135	H	0.624862	-0.140901	-0.129246
C136	C	1.013139	-0.910823	-0.457639
C137	C	0.965597	-0.885826	-0.504723
C138	C	0.982633	-0.912304	-0.568943
H139	H	1.013421	-0.963443	-0.457136
H140	H	1.056662	-0.893106	-0.469771
H141	H	0.922085	-0.903546	-0.492594
H142	H	0.965308	-0.833209	-0.505246
H143	H	1.026156	-0.894587	-0.581076
H144	H	0.982915	-0.964923	-0.568434
H145	H	0.950383	-0.895342	-0.600898
H146	H	1.056692	-0.271550	-0.584502
C147	C	0.730119	-0.258697	-0.235967
C148	C	0.770683	-0.300680	-0.192529
C149	C	0.806133	-0.253247	-0.149269
H150	H	0.699027	-0.230358	-0.210168
H151	H	0.757755	-0.226388	-0.261890
H152	H	0.743050	-0.332977	-0.166609
H153	H	0.801788	-0.329018	-0.218310
H154	H	0.833769	-0.220938	-0.175192
H155	H	0.775036	-0.224910	-0.123474
H156	H	0.833664	-0.281725	-0.119795
C157	C	0.846831	-0.911244	-0.290732
C158	C	0.851596	-0.953892	-0.231863
C159	C	0.787546	-0.980670	-0.214479
H160	H	0.829801	-0.940988	-0.326436
H161	H	0.817182	-0.870730	-0.283155
H162	H	0.881235	-0.994400	-0.239443
H163	H	0.868615	-0.924163	-0.196147
H164	H	0.757897	-0.940156	-0.206903
H165	H	0.770521	-1.010411	-0.250187
H166	H	0.790770	-1.009604	-0.174533
C167	C	0.887969	-0.456720	-0.930548
C168	C	0.926267	-0.504314	-0.889951
C169	C	0.883072	-0.551866	-0.854491
H170	H	0.862165	-0.485072	-0.961634
H171	H	0.858499	-0.428335	-0.902934
H172	H	0.955726	-0.532696	-0.917563
H173	H	0.952070	-0.475982	-0.858853
H174	H	0.853601	-0.523481	-0.826877
H175	H	0.857269	-0.580213	-0.885581
H176	H	0.909050	-0.584159	-0.826937
H177	H	0.894564	-0.811091	-0.409498
H178	H	0.364659	-0.444082	-0.404562
H179	H	0.899566	-0.443851	-0.712709
C180	C	1.068507	-0.258398	-1.078021
C181	C	1.053816	-0.184924	-1.060818
C182	C	1.097099	-0.137283	-1.096072
H183	H	1.062359	-0.265082	-1.125192
H184	H	1.113988	-0.269230	-1.066424
H185	H	1.008346	-0.174095	-1.072420
H186	H	1.059969	-0.178216	-1.013654
H187	H	1.142579	-0.148115	-1.084474
H188	H	1.090947	-0.143974	-1.143240
H189	H	1.087141	-0.087426	-1.084399
C190	C	0.887763	-0.456864	-0.574994
C191	C	0.849860	-0.498466	-0.621065
C192	C	0.806522	-0.546073	-0.585841
H193	H	0.858218	-0.428549	-0.547416
H194	H	0.913626	-0.489264	-0.547433
H195	H	0.823999	-0.466070	-0.648614
H196	H	0.879388	-0.526796	-0.648645
H197	H	0.832385	-0.578474	-0.558280
H198	H	0.776981	-0.517753	-0.558264
H199	H	0.780804	-0.574311	-0.617095
C200	C	0.887922	-0.456755	-1.077989
C201	C	0.902610	-0.530238	-1.060773
C202	C	0.859344	-0.577861	-1.096013
H203	H	0.894092	-0.450043	-1.125161
H204	H	0.842436	-0.445931	-1.066388
H205	H	0.948085	-0.541057	-1.072378
H206	H	0.896436	-0.536972	-1.013607
H207	H	0.813858	-0.567037	-1.084413
H208	H	0.865518	-0.571143	-1.143183
H209	H	0.869299	-0.627724	-1.084333
C210	C	0.729982	-0.456877	-0.416375
C211	C	0.712830	-0.440790	-0.483369
C212	C	0.748134	-0.488247	-0.526713
H213	H	0.718403	-0.506789	-0.406484
H214	H	0.777150	-0.450059	-0.410229
H215	H	0.665673	-0.447615	-0.489512
H216	H	0.724411	-0.390887	-0.493281
H217	H	0.795301	-0.481428	-0.520567
H218	H	0.736552	-0.538156	-0.516816
H219	H	0.736506	-0.477334	-0.572173
H220	H	0.592186	-0.444067	-0.404545
