data_functionalizedCrystal
_audit_creation_method	'MofGen! by Chris Wilmer'
_symmetry_space_group_name_H-M	'P1'
_symmetry_Int_Tables_number	1
_symmetry_cell_setting	triclinic
loop_
_symmetry_equiv_pos_as_xyz
  x,y,z
_cell_length_a	10.654559
_cell_length_b	16.974813
_cell_length_c	16.053802
_cell_angle_alpha	88.912550
_cell_angle_beta	87.393561
_cell_angle_gamma	83.940827
loop_
_atom_site_label
_atom_site_type_symbol
_atom_site_fract_x
_atom_site_fract_y
_atom_site_fract_z
O1	O	1.671964	0.107445	-0.076692
O2	O	2.171964	0.607445	0.423308
O3	O	1.306377	0.117985	-0.077405
O4	O	1.806377	0.617985	0.422595
O5	O	1.498772	-0.001964	-0.069296
O6	O	1.998772	0.498036	0.430704
O7	O	1.479570	0.227394	-0.084800
O8	O	1.979570	0.727394	0.415200
O9	O	1.488182	0.004611	0.069118
O10	O	1.988182	0.504611	0.569118
O11	O	1.295787	0.124559	0.061010
O12	O	1.795787	0.624559	0.561010
O13	O	1.661374	0.114020	0.061723
O14	O	2.161374	0.614020	0.561723
Zn15	Zn	1.476900	0.120334	0.083342
Zn16	Zn	1.976900	0.620334	0.583342
Zn17	Zn	1.490852	0.111671	-0.099025
Zn18	Zn	1.990852	0.611671	0.400975
O19	O	1.468980	0.233969	0.053614
O20	O	1.968980	0.733969	0.553614
C21	C	1.254293	0.120497	-0.008145
C22	C	1.754293	0.620497	0.491855
C23	C	1.114874	0.118177	-0.007988
C24	C	1.614874	0.618177	0.492012
C25	C	1.064095	0.045373	-0.003065
C26	C	1.564095	0.545373	0.496935
C27	C	0.933096	0.043198	-0.002924
C28	C	1.433096	0.543198	0.497076
C29	C	0.903666	0.186637	-0.012627
C30	C	1.403666	0.686637	0.487373
C31	C	1.034663	0.188811	-0.012774
C32	C	1.534663	0.688811	0.487226
C33	C	1.081085	-0.037441	0.002541
C34	C	1.581085	0.462559	0.502541
C35	C	0.950086	-0.039616	0.002682
C36	C	1.450086	0.460384	0.502682
C37	C	1.492550	-0.028045	0.001895
C38	C	1.992550	0.471955	0.501895
C39	C	1.489772	-0.115554	0.007805
C40	C	1.989772	0.384446	0.507805
C41	C	1.494243	-0.160245	-0.064868
C42	C	1.994243	0.339755	0.435132
C43	C	1.491625	-0.242468	-0.059312
C44	C	1.991625	0.257532	0.440688
C45	C	1.484545	-0.279999	0.018918
C46	C	1.984545	0.220001	0.518918
C47	C	1.480070	-0.235301	0.091595
C48	C	1.980070	0.264699	0.591595
C49	C	1.482680	-0.153079	0.086039
C50	C	1.982680	0.346921	0.586039
C51	C	1.476115	-0.525522	0.043627
C52	C	1.976115	-0.025522	0.543627
C53	C	1.473510	-0.607751	0.049178
C54	C	1.973510	-0.107751	0.549178
C55	C	1.485062	-0.614911	-0.101730
C56	C	1.985062	-0.114911	0.398270
C57	C	1.487678	-0.532688	-0.107279
C58	C	1.987678	-0.032688	0.392721
C59	C	1.483196	-0.487997	-0.034602
C60	C	1.983196	0.012003	0.465398
N61	N	1.481873	-0.364044	0.024598
N62	N	1.981873	0.135956	0.524598
N63	N	1.485860	-0.403952	-0.040283
N64	N	1.985860	0.096048	0.459717
C65	C	1.713459	0.111508	-0.007539
C66	C	2.213459	0.611508	0.492461
C67	C	1.852878	0.113828	-0.007701
C68	C	2.352878	0.613828	0.492299
C69	C	1.475202	0.260050	-0.017579
C70	C	1.975202	0.760050	0.482421
C71	C	1.477980	0.347558	-0.023494
C72	C	1.977980	0.847558	0.476506
N73	N	1.467386	0.126245	0.207803
N74	N	1.967386	0.626245	0.707803
N75	N	1.500375	0.105753	-0.223485
N76	N	2.000375	0.605753	0.276515
C77	C	1.549280	0.075226	0.254946
C78	C	2.049280	0.575226	0.754946
C79	C	1.542637	0.079368	0.342073
C80	C	2.042637	0.579368	0.842073
C81	C	1.454106	0.134535	0.382055
C82	C	1.954106	0.634535	0.882055
C83	C	1.372203	0.185557	0.334906
C84	C	1.872203	0.685557	0.834906
C85	C	1.378841	0.181410	0.247781
C86	C	1.878841	0.681410	0.747781
C87	C	1.425111	0.152628	0.642241
C88	C	1.925111	0.652628	1.142241
C89	C	1.418481	0.156773	0.729372
C90	C	1.918481	0.656773	1.229372
C91	C	1.588915	0.050583	0.736534
C92	C	2.088915	0.550583	1.236534
C93	C	1.595550	0.046444	0.649407
C94	C	2.095550	0.546444	1.149407
C95	C	1.513643	0.097463	0.602265
C96	C	2.013643	0.597463	1.102265
N97	N	1.447316	0.138773	0.471112
N98	N	1.947316	0.638773	0.971112
N99	N	1.520428	0.093221	0.513210
N100	N	2.020428	0.593221	1.013210
H101	H	1.127590	-0.071401	-0.053272
H102	H	1.627590	0.428599	0.446728
Cl103	Cl	1.645590	0.015227	0.401340
Cl104	Cl	2.145590	0.515227	0.901340
H105	H	0.916623	-0.069247	0.062798
H106	H	1.416623	0.430753	0.562798
Cl107	Cl	0.802821	0.275430	-0.018645
Cl108	Cl	1.302821	0.775430	0.481355
H109	H	1.621378	0.030306	0.222399
H110	H	2.121378	0.530306	0.722399
Cl111	Cl	1.275878	0.245550	0.188516
Cl112	Cl	1.775878	0.745550	0.688516
H113	H	1.122415	-0.059621	0.063998
H114	H	1.622415	0.440379	0.563998
Cl115	Cl	1.098497	0.280339	-0.018983
Cl116	Cl	1.598497	0.780339	0.481017
H117	H	0.919304	-0.068832	-0.055300
H118	H	1.419304	0.431168	0.444700
Cl119	Cl	1.471155	-0.282482	0.189941
Cl120	Cl	1.971155	0.217518	0.689941
Cl121	Cl	1.322149	0.216768	0.582984
Cl122	Cl	1.822149	0.716768	1.082984
Cl123	Cl	1.503152	-0.113072	-0.163218
Cl124	Cl	2.003152	0.386928	0.336782
H125	H	1.495271	-0.278853	-0.118489
H126	H	1.995271	0.221147	0.381511
Cl127	Cl	1.477057	-0.096895	0.177403
Cl128	Cl	1.977057	0.403105	0.677403
Cl129	Cl	1.307175	0.226134	0.779629
Cl130	Cl	1.807175	0.726134	1.279629
H131	H	1.493444	-0.502136	-0.170982
H132	H	1.993444	-0.002136	0.329018
Cl133	Cl	1.464617	-0.654932	0.147531
Cl134	Cl	1.964617	-0.154932	0.647531
H135	H	1.488708	-0.651307	-0.160900
H136	H	1.988708	-0.151307	0.339100
H137	H	1.472491	-0.489146	0.102807
H138	H	1.972491	0.010854	0.602807
Cl139	Cl	1.706850	-0.022909	0.599143
Cl140	Cl	2.206850	0.477091	1.099143
H141	H	1.655599	0.009044	0.774924
H142	H	2.155599	0.509044	1.274924
Cl143	Cl	1.260898	0.254908	0.385167
Cl144	Cl	1.760898	0.754908	0.885167
