data_functionalizedCrystal
_audit_creation_method	'MofGen! by Chris Wilmer'
_symmetry_space_group_name_H-M	'P1'
_symmetry_Int_Tables_number	1
_symmetry_cell_setting	triclinic
loop_
_symmetry_equiv_pos_as_xyz
  x,y,z
_cell_length_a	15.944551
_cell_length_b	11.026607
_cell_length_c	10.065908
_cell_angle_alpha	79.301708
_cell_angle_beta	98.789482
_cell_angle_gamma	96.042377
loop_
_atom_site_label
_atom_site_type_symbol
_atom_site_fract_x
_atom_site_fract_y
_atom_site_fract_z
O1	O	0.342076	1.627950	-0.113512
O2	O	0.302023	1.274641	-0.113511
O3	O	0.201234	1.460942	-0.113499
O4	O	0.442865	1.441649	-0.113524
O5	O	0.220553	1.425415	0.113487
O6	O	0.321342	1.239114	0.113475
O7	O	0.361395	1.592423	0.113475
Zn8	Zn	0.344436	1.410128	0.149514
Zn9	Zn	0.318982	1.456936	-0.149550
O10	O	0.462184	1.406122	0.113463
C11	C	0.304294	1.211666	-0.000018
C12	C	0.282267	1.076950	-0.000017
C13	C	0.179479	1.442377	-0.000006
C14	C	0.085870	1.439975	-0.000005
C15	C	0.343086	1.003150	-0.000024
C16	C	0.320322	0.863914	-0.000024
C17	C	-0.147313	1.318759	-0.000024
C18	C	-0.190295	1.357532	0.111894
C19	C	-0.085514	1.435632	-0.000015
C20	C	-0.209322	1.392587	-0.111896
C21	C	-0.251063	1.431429	-0.000031
C22	C	-0.127255	1.474423	0.111995
C23	C	-0.146286	1.509477	-0.111896
C24	C	-0.189236	1.548331	0.000049
C25	C	0.009855	1.438050	-0.000005
C26	C	-0.346429	1.429019	-0.000032
C27	C	0.483939	1.424687	-0.000034
C28	C	0.577548	1.427090	-0.000043
C29	C	0.359124	1.655399	-0.000022
C30	C	0.381150	1.790116	-0.000031
N31	N	0.361808	1.378191	0.353617
C32	C	0.325023	1.445812	0.421401
C33	C	0.338401	1.421242	0.578566
N34	N	0.301610	1.488873	0.646346
H35	H	0.251392	0.824027	-0.000052
H36	H	0.260206	1.564957	0.588030
H37	H	0.450078	0.830005	-0.000029
N38	N	-0.212419	1.670117	0.000151
N39	N	-0.247909	1.690481	0.095404
H40	H	-0.264283	1.776490	0.095484
N41	N	0.195808	1.026889	0.000009
N42	N	0.177439	0.913852	0.000018
H43	H	0.116375	0.878496	0.000039
N44	N	-0.123921	1.197034	0.000120
N45	N	-0.138304	1.111283	0.096070
H46	H	-0.121783	1.025315	0.096177
N47	N	0.413731	1.282738	0.426789
N48	N	0.424522	1.262909	0.554357
H49	H	0.461193	1.195492	0.606035
N50	N	-0.121777	1.590013	-0.230608
N51	N	-0.151958	1.568354	-0.346731
H52	H	-0.134649	1.625226	-0.430582
N53	N	0.273004	1.541134	0.348186
N54	N	0.196426	1.536532	0.364052
H55	H	0.159656	1.603810	0.312315
H56	H	0.379797	1.345149	0.636882
H57	H	-0.209824	1.293289	0.206512
N58	N	0.429549	1.053206	-0.000018
N59	N	0.447919	1.166241	-0.000012
H60	H	0.508985	1.201592	-0.000006
N61	N	-0.082693	1.517767	0.230829
N62	N	-0.033635	1.450089	0.314171
H63	H	-0.002160	1.480694	0.398099
N64	N	-0.254003	1.349110	-0.230577
N65	N	-0.244413	1.243154	-0.250485
H66	H	-0.275968	1.212438	-0.334297
