data_functionalizedCrystal
_audit_creation_method	'MofGen! by Chris Wilmer'
_symmetry_space_group_name_H-M	'P1'
_symmetry_Int_Tables_number	1
_symmetry_cell_setting	triclinic
loop_
_symmetry_equiv_pos_as_xyz
  x,y,z
_cell_length_a	11.169417
_cell_length_b	12.645330
_cell_length_c	11.169409
_cell_angle_alpha	89.965645
_cell_angle_beta	89.979747
_cell_angle_gamma	90.013895
loop_
_atom_site_label
_atom_site_type_symbol
_atom_site_fract_x
_atom_site_fract_y
_atom_site_fract_z
Zn1	Zn	1.834952	-0.421919	-0.678515
Zn2	Zn	1.834831	-0.599229	-0.477825
Zn3	Zn	1.634235	-0.421984	-0.477851
Zn4	Zn	1.634237	-0.599144	-0.678471
O5	O	1.734564	-0.510569	-0.578166
O6	O	2.002885	-0.445448	-0.651901
O7	O	1.808170	-0.575781	-0.309879
O8	O	1.660911	-0.273628	-0.504499
O9	O	2.002796	-0.575717	-0.504455
O10	O	1.808376	-0.273580	-0.651926
O11	O	1.660793	-0.445559	-0.309898
O12	O	1.466286	-0.445477	-0.504456
O13	O	1.660914	-0.575572	-0.846427
O14	O	1.466287	-0.575636	-0.651851
O15	O	1.808378	-0.445365	-0.846459
O16	O	1.808171	-0.747565	-0.504412
O17	O	1.660796	-0.747503	-0.651826
C18	C	1.422739	-0.510555	-0.578152
C19	C	1.289339	-0.510574	-0.578174
C20	C	1.734504	-0.785999	-0.578137
C21	C	1.734588	-0.903829	-0.578165
C22	C	1.827152	-1.071388	-0.485239
C23	C	1.827454	-0.948828	-0.485467
C24	C	1.768895	-0.948196	-0.704674
C25	C	1.769629	-1.070794	-0.704181
C26	C	1.607680	-1.071163	-0.545830
C27	C	1.608288	-0.948558	-0.542993
C28	C	2.047606	-0.510584	-0.578180
C29	C	2.181006	-0.510591	-0.578186
C30	C	1.734660	-0.510452	-0.891208
C31	C	1.734701	-0.510402	-1.024608
C32	C	1.734657	-0.234064	-0.578220
C33	C	1.734696	-0.116234	-0.578244
C34	C	1.734537	-0.510610	-0.266341
C35	C	1.734728	-0.510361	-0.132941
H36	H	1.805989	-0.918836	-0.391662
H37	H	1.920725	-1.102114	-0.506438
H38	H	1.576483	-1.102183	-0.455187
N39	N	1.575850	-0.912198	-0.426196
N40	N	1.645425	-0.853557	-0.369007
H41	H	1.622521	-0.827874	-0.286517
H42	H	1.535684	-0.917938	-0.605766
H43	H	1.921531	-0.919416	-0.506906
H44	H	1.538792	-1.100164	-0.613569
H45	H	1.862472	-1.099302	-0.731638
N46	N	1.800562	-1.108491	-0.367223
N47	N	1.713165	-1.168423	-0.350277
H48	H	1.694382	-1.194635	-0.266925
H49	H	1.705238	-1.100455	-0.775863
N50	N	1.686981	-0.911625	-0.793925
N51	N	1.602203	-0.852311	-0.765221
H52	H	1.544347	-0.826481	-0.828253
H53	H	1.860689	-0.917403	-0.732589
