data_functionalizedCrystal
_audit_creation_method	'MofGen! by Chris Wilmer'
_symmetry_space_group_name_H-M	'P1'
_symmetry_Int_Tables_number	1
_symmetry_cell_setting	triclinic
loop_
_symmetry_equiv_pos_as_xyz
  x,y,z
_cell_length_a	12.759401
_cell_length_b	16.959453
_cell_length_c	12.759393
_cell_angle_alpha	89.964645
_cell_angle_beta	89.980268
_cell_angle_gamma	90.019935
loop_
_atom_site_label
_atom_site_type_symbol
_atom_site_fract_x
_atom_site_fract_y
_atom_site_fract_z
Zn1	Zn	1.606202	-0.314634	-0.594031
Zn2	Zn	1.606084	-0.446836	-0.418341
Zn3	Zn	1.430508	-0.314675	-0.418363
Zn4	Zn	1.430476	-0.446774	-0.593974
O5	O	1.518318	-0.380730	-0.506177
O6	O	1.753207	-0.332179	-0.570741
O7	O	1.582758	-0.429348	-0.271323
O8	O	1.453877	-0.204059	-0.441699
O9	O	1.753121	-0.429308	-0.441662
O10	O	1.582958	-0.204028	-0.570762
O11	O	1.453763	-0.332250	-0.271339
O12	O	1.283483	-0.332190	-0.441643
O13	O	1.453822	-0.429202	-0.741003
O14	O	1.283459	-0.429242	-0.570664
O15	O	1.582927	-0.332119	-0.741045
O16	O	1.582727	-0.557439	-0.441606
O17	O	1.453708	-0.557393	-0.570643
C18	C	1.245350	-0.380714	-0.506150
C19	C	1.128574	-0.380727	-0.506164
C20	C	0.963933	-0.431238	-0.438898
C21	C	1.073657	-0.431224	-0.438868
C22	C	1.073761	-0.330235	-0.573485
C23	C	0.964039	-0.330246	-0.573509
C24	C	0.963874	-0.489546	-0.361181
C25	C	1.073598	-0.489531	-0.361151
C26	C	1.518230	-0.586096	-0.506139
C27	C	1.518289	-0.673953	-0.506157
C28	C	1.585616	-1.045354	-0.573507
C29	C	1.451312	-1.045502	-0.439003
C30	C	1.451273	-0.962957	-0.438979
C31	C	1.518406	-0.921605	-0.506221
C32	C	1.585577	-0.962800	-0.573487
C33	C	1.384096	-0.921756	-0.371722
C34	C	1.384053	-0.839205	-0.371696
C35	C	1.451192	-0.797852	-0.438933
C36	C	1.518367	-0.839052	-0.506201
C37	C	1.585499	-0.797701	-0.573443
C38	C	1.652680	-0.838899	-0.640707
C39	C	1.652716	-0.921447	-0.640725
C40	C	1.451156	-0.715304	-0.438915
C41	C	1.585460	-0.715147	-0.573424
C42	C	1.792351	-0.380746	-0.506205
C43	C	1.909127	-0.380752	-0.506217
C44	C	1.518384	-0.380649	-0.780211
C45	C	1.518413	-0.380614	-0.896987
C46	C	1.518434	-0.174561	-0.506239
C47	C	1.518484	-0.086705	-0.506265
C48	C	1.451253	-0.431124	-1.061554
C49	C	1.451213	-0.431147	-0.951830
C50	C	1.585649	-0.330049	-0.951875
C51	C	1.585683	-0.330023	-1.061597
C52	C	1.373641	-0.489495	-1.061528
C53	C	1.373601	-0.489518	-0.951803
C54	C	1.518312	-0.380753	-0.233210
C55	C	1.518487	-0.380565	-0.116434
H56	H	1.103372	-0.550765	-0.382798
H57	H	1.107590	-0.467535	-0.283896
C58	C	1.263750	-0.467327	-1.101766
H59	H	1.218534	-0.458219	-1.043856
H60	H	1.236704	-0.509211	-1.143109
H61	H	1.268219	-0.420858	-1.143144
C62	C	0.903756	-0.274706	-0.647552
H63	H	0.952176	-0.244632	-0.687629
H64	H	0.860940	-0.240239	-0.607448
H65	H	0.860972	-0.304987	-0.693276
H66	H	0.934057	-0.473084	-0.279855
H67	H	0.929841	-0.547725	-0.390199
H68	H	1.640132	-0.681484	-0.628177
C69	C	1.726521	-0.793407	-0.714668
H70	H	1.716874	-0.738345	-0.705016
H71	H	1.711120	-0.806901	-0.785250
H72	H	1.797133	-0.806901	-0.699350
C73	C	1.403216	-0.572178	-0.911534
H74	H	1.415410	-0.606159	-0.969430
H75	H	1.347615	-0.592631	-0.870108
H76	H	1.464980	-0.568721	-0.870232
C77	C	1.726595	-0.966766	-0.714717
H78	H	1.716991	-1.021851	-0.705106
H79	H	1.797191	-0.953216	-0.699411
H80	H	1.711160	-0.953201	-0.785292
C81	C	1.377476	-1.090986	-0.365041
H82	H	1.387124	-1.146050	-0.374682
H83	H	1.306869	-1.077486	-0.380339
H84	H	1.392900	-1.077493	-0.294458
C85	C	1.134166	-0.274689	-0.647508
H86	H	1.207362	-0.281915	-0.637858
H87	H	1.116189	-0.221569	-0.632265
H88	H	1.116222	-0.286327	-0.718079
C89	C	1.659506	-1.090666	-0.647495
H90	H	1.649915	-1.145752	-0.637884
H91	H	1.730098	-1.077106	-0.632184
H92	H	1.644073	-1.077104	-0.718071
C93	C	1.412976	-0.568041	-1.107481
H94	H	1.430464	-0.603040	-1.052019
H95	H	1.473250	-0.558644	-1.149394
H96	H	1.359467	-0.590906	-1.149370
C97	C	1.310264	-0.967241	-0.297756
H98	H	1.319922	-1.022304	-0.307392
H99	H	1.239655	-0.953749	-0.313057
H100	H	1.325685	-0.953743	-0.227175
H101	H	1.329352	-0.805666	-0.316926
H102	H	1.396454	-0.681764	-0.384155
H103	H	1.296302	-0.467598	-0.917780
C104	C	1.659633	-0.274403	-1.121961
H105	H	1.699652	-0.244313	-1.073585
H106	H	1.619473	-0.239954	-1.164777
H107	H	1.705415	-0.304634	-1.164751
H108	H	1.640357	-0.288899	-0.907213
