data_functionalizedCrystal
_audit_creation_method	'MofGen! by Chris Wilmer'
_symmetry_space_group_name_H-M	'P1'
_symmetry_Int_Tables_number	1
_symmetry_cell_setting	triclinic
loop_
_symmetry_equiv_pos_as_xyz
  x,y,z
_cell_length_a	15.995350
_cell_length_b	15.995350
_cell_length_c	15.072220
_cell_angle_alpha	89.998899
_cell_angle_beta	89.991149
_cell_angle_gamma	96.507625
loop_
_atom_site_label
_atom_site_type_symbol
_atom_site_fract_x
_atom_site_fract_y
_atom_site_fract_z
O1	O	1.110996	-0.107921	-0.073703
O2	O	0.867221	-0.121249	-0.073721
O3	O	0.995772	0.007303	-0.073710
O4	O	0.982444	-0.236472	-0.073713
O5	O	0.995740	0.007296	0.073855
O6	O	0.867189	-0.121256	0.073844
O7	O	1.110964	-0.107928	0.073862
Zn8	Zn	0.989071	-0.114593	0.097283
Zn9	Zn	0.989113	-0.114584	-0.097141
O10	O	0.982413	-0.236480	0.073852
C11	C	0.836010	-0.120701	0.000060
C12	C	0.743060	-0.119049	0.000053
C13	C	0.405312	-0.113117	0.000071
C14	C	0.452746	-0.021565	0.000401
C15	C	0.549436	-0.023217	0.000063
C16	C	0.572873	-0.116060	0.000063
C17	C	0.531804	-0.161212	-0.084201
C18	C	0.435168	-0.158912	-0.084266
C19	C	0.434793	-0.160812	0.083543
C20	C	0.531738	-0.160790	0.084651
C21	C	0.667570	-0.117727	0.000055
C22	C	0.310614	-0.111452	0.000073
C23	C	0.995205	0.038494	0.000070
C24	C	0.993553	0.131444	0.000065
C25	C	1.142175	-0.108476	0.000080
C26	C	1.235125	-0.110127	0.000081
C27	C	0.982980	-0.267671	0.000069
C28	C	0.984631	-0.360621	0.000069
N29	N	0.989049	-0.114599	0.229971
C30	C	0.987621	0.469192	0.000068
C31	C	0.896069	0.421758	-0.000270
C32	C	0.897721	0.325068	0.000063
C33	C	0.990564	0.301631	0.000066
C34	C	1.035702	0.342705	0.084335
C35	C	1.033402	0.439341	0.084405
C36	C	1.035330	0.439707	-0.083404
C37	C	1.035308	0.342761	-0.084518
C38	C	0.992231	0.206934	0.000068
C39	C	0.985956	0.563890	0.000072
N40	N	0.989142	-0.114571	-0.229830
C41	C	0.989112	-0.114580	0.589173
C42	C	0.920095	-0.183135	0.551560
C43	C	0.920254	-0.183385	0.448735
C44	C	0.989080	-0.114590	0.410969
C45	C	1.076445	-0.133671	0.448266
C46	C	1.076058	-0.134159	0.551124
C47	C	0.971542	-0.026741	0.551272
C48	C	0.969537	-0.027327	0.448409
C49	C	0.989067	-0.114593	0.310255
C50	C	0.989130	-0.114579	0.689886
H51	H	0.559041	-0.127829	0.146989
C52	C	0.993313	0.304370	0.169053
C53	C	0.990326	0.209262	0.186768
C54	C	0.947931	0.170929	0.271484
C55	C	0.908524	0.227704	0.338484
C56	C	0.911510	0.322818	0.320770
C57	C	0.953905	0.361151	0.236055
H58	H	1.019499	0.167229	0.137170
H59	H	0.945721	0.100520	0.284596
H60	H	0.877140	0.199328	0.401195
H61	H	0.882337	0.364851	0.370369
H62	H	0.956115	0.431560	0.222942
C63	C	0.994914	0.467454	-0.169692
C64	C	0.918065	0.517251	-0.165458
C65	C	0.877639	0.544997	-0.251741
C66	C	0.914061	0.522947	-0.342256
C67	C	0.990914	0.473148	-0.346493
C68	C	1.031340	0.445401	-0.260211
H69	H	0.891100	0.533576	-0.098450
H70	H	0.820748	0.581863	-0.248604
H71	H	0.884136	0.543487	-0.406128
H72	H	1.017879	0.456823	-0.413502
H73	H	1.088231	0.408536	-0.263348
H74	H	0.403031	-0.228312	0.084113
C75	C	0.882719	-0.007756	0.415480
C76	C	0.829794	-0.070689	0.354879
C77	C	0.742975	-0.051121	0.321943
C78	C	0.709082	0.031382	0.349608
C79	C	0.762008	0.094322	0.410212
C80	C	0.848827	0.074753	0.443148
H81	H	0.854883	-0.131768	0.334397
H82	H	0.703796	-0.097713	0.277080
H83	H	0.644814	0.045868	0.325227
H84	H	0.736920	0.155400	0.430694
H85	H	0.888006	0.121345	0.488011
C86	C	0.832524	-0.168039	0.414658
C87	C	0.781771	-0.234449	0.356091
C88	C	0.694037	-0.219107	0.322017
C89	C	0.657056	-0.137355	0.346510
C90	C	0.707809	-0.070941	0.405080
C91	C	0.795543	-0.086283	0.439154
H92	H	0.809146	-0.294971	0.337957
H93	H	0.656467	-0.268272	0.278660
H94	H	0.592110	-0.125998	0.321287
H95	H	0.680434	-0.010418	0.423214
H96	H	0.833114	-0.037117	0.482511
H97	H	0.433165	0.014865	-0.059694
C98	C	1.147886	-0.069548	0.584470
C99	C	1.218281	-0.098600	0.642639
C100	C	1.290287	-0.034126	0.675849
C101	C	1.291897	0.059400	0.650890
C102	C	1.221500	0.088457	0.592717
C103	C	1.149494	0.023983	0.559507
H104	H	1.217092	-0.167838	0.661119
H105	H	1.342400	-0.055636	0.718913
H106	H	1.345200	0.107128	0.675474
H107	H	1.222689	0.157695	0.574238
H108	H	1.097381	0.045493	0.516444
H109	H	1.016540	0.026078	0.422704
C110	C	1.096968	-0.220700	0.583531
C111	C	1.033443	-0.276075	0.641323
C112	C	1.054352	-0.362618	0.673725
C113	C	1.138784	-0.393787	0.648336
C114	C	1.202314	-0.338411	0.590541
C115	C	1.181406	-0.251868	0.558139
H116	H	0.970936	-0.253002	0.660120
H117	H	1.007323	-0.403611	0.716508
H118	H	1.154262	-0.457852	0.672322
H119	H	1.264821	-0.361484	0.571744
H120	H	1.228435	-0.210875	0.515356
H121	H	1.092297	-0.197002	0.422498
H122	H	1.103910	0.328579	0.087471
C123	C	1.124199	0.482916	0.089588
C124	C	1.151216	0.541594	0.167964
C125	C	1.242010	0.585167	0.173153
C126	C	1.305787	0.570062	0.099967
C127	C	1.278772	0.511381	0.021585
C128	C	1.187978	0.467808	0.016396
H129	H	1.104003	0.552778	0.222146
H130	H	1.262008	0.628606	0.231177
H131	H	1.372998	0.602317	0.103808
H132	H	1.325985	0.500197	-0.032597
H133	H	1.167980	0.424369	-0.041628
H134	H	0.547102	-0.228494	0.089741
C135	C	0.849770	0.286666	-0.081530
C136	C	0.809704	0.343972	-0.147449
C137	C	0.761741	0.305574	-0.229039
C138	C	0.753844	0.209869	-0.244711
C139	C	0.793911	0.152557	-0.178790
C140	C	0.841874	0.190955	-0.097200
H141	H	0.815548	0.414824	-0.135850
H142	H	0.732080	0.348001	-0.277838
H143	H	0.718339	0.181445	-0.305109
H144	H	0.788067	0.081705	-0.190390
H145	H	0.871535	0.148528	-0.048401
H146	H	1.002306	0.315516	-0.146857
H147	H	1.129029	-0.085068	0.423801
C148	C	0.935409	-0.271444	0.415474
C149	C	0.947411	-0.341755	0.482505
C150	C	0.962569	-0.429817	0.449245
C151	C	0.965724	-0.447568	0.348954
C152	C	0.953722	-0.377255	0.281916
C153	C	0.938564	-0.289192	0.315176
H154	H	0.945075	-0.328617	0.556753
H155	H	0.971453	-0.481868	0.498871
H156	H	0.976945	-0.512757	0.324332
H157	H	0.956058	-0.390393	0.207669
H158	H	0.929680	-0.237142	0.265550
C159	C	0.887330	-0.001965	0.586340
C160	C	0.885584	0.079252	0.640838
C161	C	0.801367	0.104016	0.675905
C162	C	0.718897	0.047564	0.656474
C163	C	0.720641	-0.033658	0.601973
C164	C	0.804857	-0.058422	0.566906
H165	H	0.946636	0.121046	0.655224
H166	H	0.800077	0.164143	0.716250
H167	H	0.656555	0.065896	0.682433
H168	H	0.659589	-0.075452	0.587587
H169	H	0.806147	-0.118549	0.526561
C170	C	0.407043	-0.120381	0.169831
C171	C	0.357247	-0.043532	0.165597
C172	C	0.329498	-0.003091	0.251879
C173	C	0.351544	-0.039497	0.342395
C174	C	0.401342	-0.116350	0.346633
C175	C	0.429092	-0.156791	0.260351
H176	H	0.340925	-0.016578	0.098589
H177	H	0.292634	0.053801	0.248742
H178	H	0.331002	-0.009560	0.406266
H179	H	0.417665	-0.143304	0.413642
H180	H	0.465956	-0.213683	0.263489
H181	H	1.103014	0.327400	-0.089603
C182	C	0.427705	0.027880	0.082031
C183	C	0.386482	0.109547	0.069633
C184	C	0.361435	0.158996	0.151264
C185	C	0.377611	0.126777	0.245293
C186	C	0.418836	0.045105	0.257695
C187	C	0.443883	-0.004344	0.176064
H188	H	0.374506	0.133402	0.000023
H189	H	0.330918	0.219455	0.142082
H190	H	0.359070	0.163381	0.305721
H191	H	0.430812	0.021250	0.327305
H192	H	0.474400	-0.064803	0.185246
C193	C	1.126520	0.482608	-0.084170
C194	C	1.157582	0.544091	-0.009462
C195	C	1.248770	0.586993	-0.010217
C196	C	1.308895	0.568411	-0.085679
C197	C	1.277834	0.506925	-0.160393
C198	C	1.186647	0.464023	-0.159638
H199	H	1.113073	0.557849	0.046405
H200	H	1.271763	0.632509	0.045091
H201	H	1.376398	0.600169	-0.086238
H202	H	1.322344	0.493167	-0.216260
H203	H	1.163654	0.418506	-0.214946
C204	C	0.832067	-0.167985	0.584928
C205	C	0.821771	-0.093186	0.646746
C206	C	0.733735	-0.078008	0.680082
C207	C	0.655995	-0.137629	0.651599
C208	C	0.666289	-0.212433	0.589777
C209	C	0.754325	-0.227611	0.556442
H210	H	0.879321	-0.049046	0.667834
H211	H	0.726115	-0.022632	0.725846
H212	H	0.590825	-0.126393	0.676276
H213	H	0.608738	-0.256573	0.568689
H214	H	0.761944	-0.282987	0.510677
H215	H	1.000460	0.457639	0.147395
C216	C	1.039525	0.042184	0.584137
C217	C	1.110636	0.018932	0.645057
C218	C	1.178620	0.087849	0.677928
C219	C	1.175493	0.180018	0.649879
C220	C	1.104379	0.203274	0.588956
C221	C	1.036395	0.134357	0.556085
H222	H	1.112953	-0.049300	0.665823
H223	H	1.231263	0.070633	0.723027
H224	H	1.225818	0.231034	0.674212
H225	H	1.102062	0.271506	0.568189
H226	H	0.983752	0.151573	0.510985
H227	H	0.931160	-0.247952	0.577399
C228	C	0.846831	0.448217	0.080906
C229	C	0.889389	0.512648	0.147406
C230	C	0.840154	0.539110	0.228582
C231	C	0.748360	0.501139	0.243257
C232	C	0.705797	0.436703	0.176755
C233	C	0.755033	0.410242	0.095579
H234	H	0.957345	0.540760	0.136544
H235	H	0.871662	0.586809	0.277811
H236	H	0.711913	0.520727	0.303348
H237	H	0.637841	0.408592	0.187617
H238	H	0.723524	0.362542	0.046350
C239	C	0.587834	0.024746	0.081652
C240	C	0.530524	0.064822	0.147573
C241	C	0.568917	0.112796	0.229160
C242	C	0.664621	0.120695	0.244826
C243	C	0.721937	0.080618	0.178903
C244	C	0.683543	0.032643	0.097316
H245	H	0.459673	0.058976	0.135978
H246	H	0.526488	0.142464	0.277961
H247	H	0.693042	0.156208	0.305222
H248	H	0.792788	0.086463	0.190498
H249	H	0.725973	0.002976	0.048515
C250	C	0.846651	0.446801	-0.081908
C251	C	0.764984	0.488032	-0.069529
C252	C	0.715569	0.513083	-0.151172
C253	C	0.747821	0.496902	-0.245193
C254	C	0.829493	0.455669	-0.257576
C255	C	0.878908	0.430618	-0.175933
H256	H	0.741105	0.500011	0.000075
H257	H	0.655110	0.543606	-0.142004
H258	H	0.711241	0.515446	-0.305630
H259	H	0.853372	0.443689	-0.327180
H260	H	0.939367	0.400094	-0.185100
H261	H	0.577307	0.012521	-0.060446
C262	C	0.410447	-0.114417	-0.169355
C263	C	0.447055	-0.022837	-0.187793
C264	C	0.422339	0.021660	-0.272884
C265	C	0.361016	-0.025421	-0.339536
C266	C	0.324404	-0.117006	-0.321099
C267	C	0.349120	-0.161504	-0.236009
H268	H	0.492453	0.012020	-0.138452
H269	H	0.449442	0.089458	-0.286531
H270	H	0.342720	0.007519	-0.402525
H271	H	0.279006	-0.151863	-0.370441
H272	H	0.322017	-0.229301	-0.222361
H273	H	0.560191	-0.129845	-0.146912
C274	C	0.550884	-0.253358	-0.088444
C275	C	0.604106	-0.288761	-0.015268
C276	C	0.623187	-0.380907	-0.019508
C277	C	0.589046	-0.437650	-0.096924
C278	C	0.535821	-0.402247	-0.170106
C279	C	0.516740	-0.310101	-0.165866
H280	H	0.629382	-0.246756	0.042046
H281	H	0.662588	-0.407114	0.034667
H282	H	0.603171	-0.505862	-0.100063
H283	H	0.510545	-0.444252	-0.227419
H284	H	0.477339	-0.283894	-0.220041
H285	H	0.402920	-0.226128	-0.088090
H286	H	0.861974	0.297200	0.060568
