data_functionalizedCrystal
_audit_creation_method	'MofGen! by Chris Wilmer'
_symmetry_space_group_name_H-M	'P1'
_symmetry_Int_Tables_number	1
_symmetry_cell_setting	triclinic
loop_
_symmetry_equiv_pos_as_xyz
  x,y,z
_cell_length_a	18.050590
_cell_length_b	18.050589
_cell_length_c	17.077396
_cell_angle_alpha	89.975358
_cell_angle_beta	90.001070
_cell_angle_gamma	89.984959
loop_
_atom_site_label
_atom_site_type_symbol
_atom_site_fract_x
_atom_site_fract_y
_atom_site_fract_z
Zn1	Zn	-1.135327	-0.295921	-0.443477
Zn2	Zn	-0.801993	0.037413	-0.110144
Zn3	Zn	-0.468660	0.370746	0.223189
Zn4	Zn	-1.135227	-0.420118	-0.312220
Zn5	Zn	-0.801894	-0.086785	0.021113
Zn6	Zn	-0.468561	0.246549	0.354446
Zn7	Zn	-1.011136	-0.295918	-0.312268
Zn8	Zn	-0.677802	0.037416	0.021066
Zn9	Zn	-0.344469	0.370749	0.354399
Zn10	Zn	-1.011094	-0.420045	-0.443486
Zn11	Zn	-0.677761	-0.086712	-0.110153
Zn12	Zn	-0.344427	0.246622	0.223181
O13	O	-1.073196	-0.358000	-0.377863
O14	O	-0.739863	-0.024667	-0.044530
O15	O	-0.406529	0.308666	0.288804
O16	O	-1.239238	-0.312428	-0.426043
O17	O	-0.905905	0.020906	-0.092709
O18	O	-0.572571	0.354239	0.240624
O19	O	-1.118742	-0.403672	-0.202380
O20	O	-0.785409	-0.070339	0.130954
O21	O	-0.452076	0.262995	0.464287
O22	O	-1.027669	-0.191994	-0.329689
O23	O	-0.694336	0.141340	0.003644
O24	O	-0.361002	0.474673	0.336978
O25	O	-1.239165	-0.403675	-0.329608
O26	O	-0.905832	-0.070341	0.003725
O27	O	-0.572498	0.262992	0.337058
O28	O	-1.118912	-0.191996	-0.426088
O29	O	-0.785578	0.141338	-0.092755
O30	O	-0.452245	0.474671	0.240578
O31	O	-1.027573	-0.312423	-0.202414
O32	O	-0.694239	0.020911	0.130919
O33	O	-0.360906	0.354244	0.464252
O34	O	-0.907206	-0.312352	-0.329698
O35	O	-0.573872	0.020982	0.003636
O36	O	-0.240539	0.354315	0.336969
O37	O	-1.027598	-0.403550	-0.553332
O38	O	-0.694264	-0.070217	-0.219999
O39	O	-0.360931	0.263116	0.113335
O40	O	-0.907175	-0.403547	-0.426103
O41	O	-0.573842	-0.070214	-0.092770
O42	O	-0.240508	0.263119	0.240564
O43	O	-1.118871	-0.312357	-0.553326
O44	O	-0.785538	0.020977	-0.219992
O45	O	-0.452204	0.354310	0.113341
O46	O	-1.118702	-0.524033	-0.329617
O47	O	-0.785368	-0.190700	0.003717
O48	O	-0.452035	0.142634	0.337050
O49	O	-1.027501	-0.523979	-0.426057
O50	O	-0.694168	-0.190646	-0.092724
O51	O	-0.360835	0.142688	0.240609
C52	C	-0.880244	-0.357942	-0.377907
C53	C	-0.546911	-0.024608	-0.044574
C54	C	-0.213577	0.308725	0.288760
C55	C	-0.797698	-0.357935	-0.377944
C56	C	-0.464365	-0.024601	-0.044611
C57	C	-0.131031	0.308732	0.288722
C58	C	-0.598252	-0.407661	-0.430256
C59	C	-0.264919	-0.074327	-0.096922
C60	C	0.068414	0.259006	0.236411
C61	C	-0.548861	-0.339942	-0.449569
C62	C	-0.215527	-0.006608	-0.116236
C63	C	0.117806	0.326725	0.217097
C64	C	-0.646568	-0.357970	-0.377914
C65	C	-0.313234	-0.024636	-0.044581
C66	C	0.020099	0.308697	0.288753
C67	C	-0.548878	-0.425722	-0.358607
C68	C	-0.215544	-0.092388	-0.025274
C69	C	0.117789	0.240945	0.308060
C70	C	-0.500583	-0.358010	-0.377886
C71	C	-0.167249	-0.024677	-0.044553
C72	C	0.166084	0.308657	0.288781
C73	C	-0.598263	-0.290215	-0.397265
C74	C	-0.264930	0.043119	-0.063932
C75	C	0.068403	0.376452	0.269402
C76	C	-0.598285	-0.376041	-0.306269
C77	C	-0.264951	-0.042707	0.027064
C78	C	0.068382	0.290626	0.360397
C79	C	-0.548915	-0.308275	-0.325556
C80	C	-0.215582	0.025059	0.007777
C81	C	0.117751	0.358392	0.341111
C82	C	-0.730666	-0.357948	-0.377932
C83	C	-0.397333	-0.024614	-0.044599
C84	C	-0.063999	0.308719	0.288735
C85	C	-0.416486	-0.358024	-0.377868
C86	C	-0.083153	-0.024691	-0.044534
C87	C	0.250181	0.308642	0.288799
C88	C	-1.073106	-0.550953	-0.377850
C89	C	-0.739773	-0.217619	-0.044517
C90	C	-0.406440	0.115714	0.288817
C91	C	-1.073136	-0.633498	-0.377871
C92	C	-0.739803	-0.300165	-0.044537
C93	C	-0.406469	0.033168	0.288796
C94	C	-0.266902	-0.358049	-0.377832
C95	C	0.066432	-0.024716	-0.044499
C96	C	0.399765	0.308617	0.288834
C97	C	-0.349447	-0.358044	-0.377853
C98	C	-0.016114	-0.024711	-0.044520
C99	C	0.317219	0.308623	0.288813
C100	C	-1.023590	-0.832947	-0.430297
C101	C	-0.690257	-0.499613	-0.096963
C102	C	-0.356923	-0.166280	0.236370
C103	C	-1.005487	-0.882384	-0.358674
C104	C	-0.672153	-0.549051	-0.025340
C105	C	-0.338820	-0.215717	0.307993
C106	C	-1.073209	-0.784629	-0.377881
C107	C	-0.739876	-0.451295	-0.044547
C108	C	-0.406542	-0.117962	0.288786
C109	C	-1.091349	-0.882273	-0.449512
C110	C	-0.758015	-0.548940	-0.116179
C111	C	-0.424682	-0.215606	0.217155
C112	C	-1.073278	-0.930614	-0.377897
C113	C	-0.739945	-0.597280	-0.044564
C114	C	-0.406611	-0.263947	0.288770
C115	C	-1.055070	-0.832979	-0.306220
C116	C	-0.721737	-0.499645	0.027113
C117	C	-0.388403	-0.166312	0.360447
C118	C	-1.140963	-0.832863	-0.397107
C119	C	-0.807630	-0.499530	-0.063773
C120	C	-0.474297	-0.166197	0.269560
C121	C	-1.122886	-0.882278	-0.325434
C122	C	-0.789553	-0.548945	0.007899
C123	C	-0.456219	-0.215612	0.341232
C124	C	-1.073167	-0.700530	-0.377872
C125	C	-0.739834	-0.367197	-0.044539
C126	C	-0.406501	-0.033864	0.288794
C127	C	-1.073320	-1.014710	-0.377897
C128	C	-0.739986	-0.681377	-0.044564
C129	C	-0.406653	-0.348044	0.288770
C130	C	-1.073306	-0.164295	-0.377893
C131	C	-0.739973	0.169039	-0.044560
C132	C	-0.406640	0.502372	0.288774
C133	C	-1.073353	-0.081749	-0.377906
C134	C	-0.740020	0.251584	-0.044573
C135	C	-0.406686	0.584918	0.288761
C136	C	-1.073241	-0.357946	-0.582607
C137	C	-0.739908	-0.024612	-0.249274
C138	C	-0.406574	0.308721	0.084059
C139	C	-1.073260	-0.357922	-0.669857
C140	C	-0.739927	-0.024589	-0.336524
C141	C	-0.406593	0.308744	-0.003190
C142	C	-1.120788	-0.310434	-0.710845
C143	C	-0.787454	0.022899	-0.377512
C144	C	-0.454121	0.356233	-0.044179
C145	C	-1.120797	-0.310409	-0.792826
C146	C	-0.787463	0.022924	-0.459492
C147	C	-0.454130	0.356257	-0.126159
C148	C	-1.073281	-0.357877	-0.833817
C149	C	-0.739948	-0.024544	-0.500483
C150	C	-0.406614	0.308789	-0.167150
C151	C	-1.025748	-0.405368	-0.792823
C152	C	-0.692415	-0.072034	-0.459489
C153	C	-0.359081	0.261299	-0.126156
C154	C	-1.025736	-0.405388	-0.710844
C155	C	-0.692403	-0.072055	-0.377510
C156	C	-0.359069	0.261279	-0.044177
C157	C	-1.025778	-0.405323	-0.963693
C158	C	-0.692445	-0.071990	-0.630360
C159	C	-0.359111	0.261344	-0.297026
C160	C	-1.025791	-0.405304	-1.045678
C161	C	-0.692458	-0.071970	-0.712344
C162	C	-0.359124	0.261363	-0.379011
C163	C	-1.120839	-0.310344	-1.045675
C164	C	-0.787505	0.022989	-0.712342
C165	C	-0.454172	0.356323	-0.379008
C166	C	-1.120827	-0.310365	-0.963696
C167	C	-0.787493	0.022969	-0.630363
C168	C	-0.454160	0.356302	-0.297029
C169	C	-1.073294	-0.357856	-0.922708
C170	C	-0.739961	-0.024523	-0.589374
C171	C	-0.406628	0.308810	-0.256041
C172	C	-1.073194	-0.358001	-0.173915
C173	C	-0.739861	-0.024668	0.159418
C174	C	-0.406527	0.308665	0.492752
C175	C	-1.073319	-0.357815	-0.086666
C176	C	-0.739985	-0.024482	0.246668
C177	C	-0.406652	0.308851	0.580001
H178	H	-0.527389	-0.266222	-0.281281
H179	H	-0.194056	0.067112	0.052053
H180	H	0.139278	0.400445	0.385386
H181	H	-0.948221	-0.904153	-0.342427
H182	H	-0.614888	-0.570819	-0.009094
H183	H	-0.281554	-0.237486	0.324240
H184	H	-0.527181	-0.483001	-0.342291
H185	H	-0.193848	-0.149668	-0.008958
H186	H	0.139486	0.183665	0.324376
H187	H	-1.039688	-0.811415	-0.245632
H188	H	-0.706355	-0.478082	0.087701
H189	H	-0.373022	-0.144749	0.421035
Cl190	Cl	-0.631611	-0.201752	-0.422567
Cl191	Cl	-0.298277	0.131581	-0.089233
Cl192	Cl	0.035056	0.464914	0.244100
Cl193	Cl	-1.180566	-0.250694	-0.912165
Cl194	Cl	-0.847233	0.082639	-0.578832
Cl195	Cl	-0.513899	0.415973	-0.245499
H196	H	-1.198216	-0.811097	-0.413387
H197	H	-0.864883	-0.477763	-0.080054
H198	H	-0.531549	-0.144430	0.253279
Cl199	Cl	-0.631804	-0.399637	-0.212755
Cl200	Cl	-0.298471	-0.066304	0.120578
Cl201	Cl	0.034863	0.267029	0.453911
Cl202	Cl	-0.966021	-0.465027	-0.912166
Cl203	Cl	-0.632688	-0.131694	-0.578833
Cl204	Cl	-0.299355	0.201640	-0.245499
H205	H	-1.159540	-0.271674	-1.079051
H206	H	-0.826207	0.061660	-0.745718
H207	H	-0.492873	0.394993	-0.412385
Cl208	Cl	-0.958714	-0.799500	-0.498637
Cl209	Cl	-0.625381	-0.466167	-0.165304
Cl210	Cl	-0.292047	-0.132833	0.168030
Cl211	Cl	-0.631702	-0.472432	-0.498662
Cl212	Cl	-0.298369	-0.139099	-0.165329
Cl213	Cl	0.034964	0.194235	0.168004
H214	H	-1.164877	-0.903802	-0.281064
H215	H	-0.831543	-0.570469	0.052270
H216	H	-0.498210	-0.237136	0.385603
Cl217	Cl	-1.114994	-0.915707	-0.543027
Cl218	Cl	-0.781661	-0.582373	-0.209694
Cl219	Cl	-0.448327	-0.249040	0.123639
H220	H	-1.159483	-0.271782	-0.677476
H221	H	-0.826150	0.061551	-0.344143
H222	H	-0.492816	0.394884	-0.010810
H223	H	-0.987027	-0.444051	-0.677472
H224	H	-0.653693	-0.110717	-0.344139
H225	H	-0.320360	0.222616	-0.010806
Cl226	Cl	-0.966048	-0.464970	-1.097208
Cl227	Cl	-0.632715	-0.131637	-0.763875
Cl228	Cl	-0.299381	0.201696	-0.430541
Cl229	Cl	-1.180582	-0.250740	-0.844350
Cl230	Cl	-0.847248	0.082594	-0.511017
Cl231	Cl	-0.513915	0.415927	-0.177684
Cl232	Cl	-0.966011	-0.465039	-0.844354
Cl233	Cl	-0.632678	-0.131706	-0.511021
Cl234	Cl	-0.299344	0.201627	-0.177688
Cl235	Cl	-0.515341	-0.316361	-0.543093
Cl236	Cl	-0.182008	0.016972	-0.209760
Cl237	Cl	0.151325	0.350306	0.123574
