data_functionalizedCrystal
_audit_creation_method	'MofGen! by Chris Wilmer'
_symmetry_space_group_name_H-M	'P1'
_symmetry_Int_Tables_number	1
_symmetry_cell_setting	triclinic
loop_
_symmetry_equiv_pos_as_xyz
  x,y,z
_cell_length_a	16.625547
_cell_length_b	16.625546
_cell_length_c	16.625539
_cell_angle_alpha	90.030397
_cell_angle_beta	90.024822
_cell_angle_gamma	90.022405
loop_
_atom_site_label
_atom_site_type_symbol
_atom_site_fract_x
_atom_site_fract_y
_atom_site_fract_z
Zn1	Zn	1.232681	-0.321001	0.455989
Zn2	Zn	1.482681	-0.071001	0.705989
Zn3	Zn	1.732681	0.178999	0.955989
Zn4	Zn	1.982681	0.428999	1.205989
Zn5	Zn	1.232584	-0.455845	0.321151
Zn6	Zn	1.482584	-0.205845	0.571151
Zn7	Zn	1.732584	0.044155	0.821151
Zn8	Zn	1.982584	0.294155	1.071151
Zn9	Zn	1.097842	-0.321030	0.321160
Zn10	Zn	1.347842	-0.071030	0.571160
Zn11	Zn	1.597842	0.178970	0.821160
Zn12	Zn	1.847842	0.428970	1.071160
Zn13	Zn	1.097813	-0.455796	0.455931
Zn14	Zn	1.347813	-0.205796	0.705931
Zn15	Zn	1.597813	0.044204	0.955931
Zn16	Zn	1.847813	0.294204	1.205931
O17	O	1.165230	-0.388418	0.388558
O18	O	1.415230	-0.138418	0.638558
O19	O	1.665230	0.111582	0.888558
O20	O	1.915230	0.361582	1.138558
O21	O	1.345500	-0.338897	0.438123
O22	O	1.595500	-0.088897	0.688123
O23	O	1.845500	0.161103	0.938123
O24	O	2.095500	0.411103	1.188123
O25	O	1.214682	-0.437993	0.208320
O26	O	1.464682	-0.187993	0.458320
O27	O	1.714682	0.062007	0.708320
O28	O	1.964682	0.312007	0.958320
O29	O	1.115782	-0.208193	0.339073
O30	O	1.365782	0.041807	0.589073
O31	O	1.615782	0.291807	0.839073
O32	O	1.865782	0.541807	1.089073
O33	O	1.345429	-0.437966	0.339059
O34	O	1.595429	-0.187966	0.589059
O35	O	1.845429	0.062034	0.839059
O36	O	2.095429	0.312034	1.089059
O37	O	1.214847	-0.208173	0.438131
O38	O	1.464847	0.041827	0.688131
O39	O	1.714847	0.291827	0.938131
O40	O	1.964847	0.541827	1.188131
O41	O	1.115688	-0.338945	0.208326
O42	O	1.365688	-0.088945	0.458326
O43	O	1.615688	0.161055	0.708326
O44	O	1.865688	0.411055	0.958326
O45	O	0.985006	-0.338898	0.339017
O46	O	1.235006	-0.088898	0.589017
O47	O	1.485006	0.161102	0.839017
O48	O	1.735006	0.411102	1.089017
O49	O	1.115731	-0.437883	0.568771
O50	O	1.365731	-0.187883	0.818771
O51	O	1.615731	0.062117	1.068771
O52	O	1.865731	0.312117	1.318771
O53	O	0.984984	-0.437910	0.438033
O54	O	1.234984	-0.187910	0.688033
O55	O	1.484984	0.062090	0.938033
O56	O	1.734984	0.312090	1.188033
O57	O	1.214818	-0.338850	0.568814
O58	O	1.464818	-0.088850	0.818814
O59	O	1.714818	0.161150	1.068814
O60	O	1.964818	0.411150	1.318814
O61	O	1.214653	-0.568671	0.339003
O62	O	1.464653	-0.318671	0.589003
O63	O	1.714653	-0.068671	0.839003
O64	O	1.964653	0.181329	1.089003
O65	O	1.115638	-0.568635	0.438025
O66	O	1.365638	-0.318635	0.688025
O67	O	1.615638	-0.068635	0.938025
O68	O	1.865638	0.181365	1.188025
C69	C	0.955739	-0.388402	0.388520
C70	C	1.205739	-0.138402	0.638520
C71	C	1.455739	0.111598	0.888520
C72	C	1.705739	0.361598	1.138520
C73	C	0.866118	-0.388415	0.388523
C74	C	1.116118	-0.138415	0.638523
C75	C	1.366118	0.111585	0.888523
C76	C	1.616118	0.361585	1.138523
C77	C	1.165154	-0.597909	0.388524
C78	C	1.415154	-0.347909	0.638524
C79	C	1.665154	-0.097909	0.888524
C80	C	1.915154	0.152091	1.138524
C81	C	1.165195	-0.687530	0.388537
C82	C	1.415195	-0.437530	0.638537
C83	C	1.665195	-0.187530	0.888537
C84	C	1.915195	0.062470	1.138537
C85	C	0.793335	-0.388416	0.388533
C86	C	1.043335	-0.138416	0.638533
C87	C	1.293335	0.111584	0.888533
C88	C	1.543335	0.361584	1.138533
C89	C	0.702027	-0.388421	0.388553
C90	C	0.952027	-0.138421	0.638553
C91	C	1.202027	0.111579	0.888553
C92	C	1.452027	0.361579	1.138553
C93	C	0.629251	-0.388428	0.388573
C94	C	0.879251	-0.138428	0.638573
C95	C	1.129251	0.111572	0.888573
C96	C	1.379251	0.361572	1.138573
C97	C	0.537936	-0.388434	0.388593
C98	C	0.787936	-0.138434	0.638593
C99	C	1.037936	0.111566	0.888593
C100	C	1.287936	0.361566	1.138593
C101	C	1.165335	-1.015705	0.388621
C102	C	1.415335	-0.765705	0.638621
C103	C	1.665335	-0.515705	0.888621
C104	C	1.915335	-0.265705	1.138621
C105	C	1.165294	-0.924397	0.388599
C106	C	1.415294	-0.674397	0.638599
C107	C	1.665294	-0.424397	0.888599
C108	C	1.915294	-0.174397	1.138599
C109	C	1.165264	-0.851620	0.388578
C110	C	1.415264	-0.601620	0.638578
C111	C	1.665264	-0.351620	0.888578
C112	C	1.915264	-0.101620	1.138578
C113	C	1.165224	-0.760306	0.388558
C114	C	1.415224	-0.510306	0.638558
C115	C	1.665224	-0.260306	0.888558
C116	C	1.915224	-0.010306	1.138558
C117	C	1.375539	-0.388434	0.388597
C118	C	1.625539	-0.138434	0.638597
C119	C	1.875539	0.111566	0.888597
C120	C	2.125539	0.361566	1.138597
C121	C	1.465160	-0.388441	0.388613
C122	C	1.715160	-0.138441	0.638613
C123	C	1.965160	0.111559	0.888613
C124	C	2.215160	0.361559	1.138613
C125	C	1.165282	-0.388358	0.598867
C126	C	1.415282	-0.138358	0.848867
C127	C	1.665282	0.111642	1.098867
C128	C	1.915282	0.361642	1.348867
C129	C	1.165305	-0.388332	0.688488
C130	C	1.415305	-0.138332	0.938488
C131	C	1.665305	0.111668	1.188488
C132	C	1.915305	0.361668	1.438488
C133	C	1.165328	-0.178109	0.388609
C134	C	1.415328	0.071891	0.638609
C135	C	1.665328	0.321891	0.888609
C136	C	1.915328	0.571891	1.138609
C137	C	1.165370	-0.088488	0.388631
C138	C	1.415370	0.161512	0.638631
C139	C	1.665370	0.411512	0.888631
C140	C	1.915370	0.661512	1.138631
C141	C	1.165224	-0.388419	0.179067
C142	C	1.415224	-0.138419	0.429067
C143	C	1.665224	0.111581	0.679067
C144	C	1.915224	0.361581	0.929067
C145	C	1.165358	-0.388218	0.089446
C146	C	1.415358	-0.138218	0.339446
C147	C	1.665358	0.111782	0.589446
C148	C	1.915358	0.361782	0.839446
C149	C	1.165342	-0.388242	1.016664
C150	C	1.415342	-0.138242	1.266664
C151	C	1.665342	0.111758	1.516664
C152	C	1.915342	0.361758	1.766664
C153	C	1.165329	-0.388270	0.925355
C154	C	1.415329	-0.138270	1.175355
C155	C	1.665329	0.111730	1.425355
C156	C	1.915329	0.361730	1.675355
C157	C	1.165324	-0.388288	0.852579
C158	C	1.415324	-0.138288	1.102579
C159	C	1.665324	0.111712	1.352579
C160	C	1.915324	0.361712	1.602579
C161	C	1.165310	-0.388314	0.761265
C162	C	1.415310	-0.138314	1.011265
C163	C	1.665310	0.111686	1.261265
C164	C	1.915310	0.361686	1.511265
