data_functionalizedCrystal
_audit_creation_method	'MofGen! by Chris Wilmer'
_symmetry_space_group_name_H-M	'P1'
_symmetry_Int_Tables_number	1
_symmetry_cell_setting	triclinic
loop_
_symmetry_equiv_pos_as_xyz
  x,y,z
_cell_length_a	16.120530
_cell_length_b	16.120484
_cell_length_c	12.759393
_cell_angle_alpha	92.863987
_cell_angle_beta	87.081261
_cell_angle_gamma	90.167327
loop_
_atom_site_label
_atom_site_type_symbol
_atom_site_fract_x
_atom_site_fract_y
_atom_site_fract_z
Zn1	Zn	1.254492	-0.395558	-0.699366
Zn2	Zn	1.247331	-0.534629	-0.532099
Zn3	Zn	1.115427	-0.388538	-0.514372
Zn4	Zn	1.108345	-0.527511	-0.698405
O5	O	1.181399	-0.461559	-0.611061
O6	O	1.369908	-0.419923	-0.684999
O7	O	1.229801	-0.515291	-0.382726
O8	O	1.139835	-0.273106	-0.531896
O9	O	1.364647	-0.522098	-0.562108
O10	O	1.242006	-0.278264	-0.667810
O11	O	1.132891	-0.407958	-0.369703
O12	O	0.998122	-0.401056	-0.530964
O13	O	1.127764	-0.509966	-0.845553
O14	O	0.992918	-0.503159	-0.666172
O15	O	1.235139	-0.413020	-0.846260
O16	O	1.222933	-0.650048	-0.561176
O17	O	1.120820	-0.644818	-0.683360
C18	C	0.965348	-0.450574	-0.596541
C19	C	0.872919	-0.445894	-0.590355
C20	C	0.703692	-0.437332	-0.579070
C21	C	0.659943	-0.485847	-0.643132
C22	C	0.565779	-0.481083	-0.636852
C23	C	0.797864	-0.442095	-0.585348
C24	C	1.170354	-0.677605	-0.624112
C25	C	1.165705	-0.770035	-0.629735
C26	C	1.157222	-0.939265	-0.640024
C27	C	1.205725	-0.983020	-0.582124
C28	C	1.201005	-1.077185	-0.587849
C29	C	1.161941	-0.845091	-0.634301
C30	C	1.398293	-0.472587	-0.625638
C31	C	1.490721	-0.477287	-0.631850
C32	C	1.181460	-0.461482	-0.885093
C33	C	1.181486	-0.461449	-1.001869
C34	C	1.192510	-0.244670	-0.597983
C35	C	1.197244	-0.152245	-0.592410
C36	C	1.231951	-0.517317	-1.063509
C37	C	1.231978	-0.517283	-1.173233
C38	C	1.131069	-0.405510	-1.159667
C39	C	1.131047	-0.405541	-1.049945
C40	C	1.290207	-0.581851	-1.071342
C41	C	1.290234	-0.581817	-1.181066
C42	C	1.181388	-0.461578	-0.338094
C43	C	1.181535	-0.461384	-0.221315
H44	H	0.670428	-0.392222	-0.519514
C45	C	1.075546	-0.344079	-0.982145
H46	H	1.045506	-0.310784	-1.026495
H47	H	1.109209	-0.309483	-0.939299
H48	H	1.037667	-0.374054	-0.938823
C49	C	1.266587	-0.938092	-0.509320
H50	H	1.261802	-0.879777	-0.514955
H51	H	1.321767	-0.955041	-0.529317
H52	H	1.253718	-0.951727	-0.438755
H53	H	1.112155	-0.972524	-0.693888
H54	H	1.090004	-0.359991	-1.198824
H55	H	0.693209	-0.530960	-0.702693
C56	C	1.378390	-0.562982	-1.035555
H57	H	1.414671	-0.555192	-1.095293
H58	H	1.397523	-0.608155	-0.998290
H59	H	1.377378	-0.513940	-0.991013
C60	C	1.254793	-0.662914	-1.028245
H61	H	1.239043	-0.698994	-1.084980
H62	H	1.207599	-0.650610	-0.982540
H63	H	1.295896	-0.689155	-0.990640
C64	C	1.374487	-0.554855	-1.230725
H65	H	1.411991	-0.542877	-1.176914
H66	H	1.367064	-0.506649	-1.269089
H67	H	1.396392	-0.598418	-1.276799
H68	H	1.269689	-0.645333	-1.213568
