data_functionalizedCrystal
_audit_creation_method	'MofGen! by Chris Wilmer'
_symmetry_space_group_name_H-M	'P1'
_symmetry_Int_Tables_number	1
_symmetry_cell_setting	triclinic
loop_
_symmetry_equiv_pos_as_xyz
  x,y,z
_cell_length_a	19.805407
_cell_length_b	13.031981
_cell_length_c	19.805399
_cell_angle_alpha	82.790122
_cell_angle_beta	89.982197
_cell_angle_gamma	97.189020
loop_
_atom_site_label
_atom_site_type_symbol
_atom_site_fract_x
_atom_site_fract_y
_atom_site_fract_z
Zn1	Zn	1.000564	-0.416206	-0.348436
Zn2	Zn	0.986129	-0.590993	-0.220863
Zn3	Zn	0.887377	-0.416227	-0.235262
Zn4	Zn	0.872998	-0.590929	-0.334019
O5	O	0.936767	-0.503589	-0.284645
O6	O	1.093365	-0.439410	-0.331520
O7	O	0.973006	-0.567845	-0.128054
O8	O	0.914451	-0.269962	-0.262334
O9	O	1.082759	-0.567825	-0.237794
O10	O	0.997609	-0.269947	-0.345482
O11	O	0.900454	-0.439445	-0.138632
O12	O	0.790755	-0.439384	-0.248355
O13	O	0.889943	-0.567716	-0.430651
O14	O	0.780190	-0.567736	-0.320911
O15	O	0.983666	-0.439348	-0.441243
O16	O	0.959063	-0.737246	-0.223814
O17	O	0.875945	-0.737200	-0.306949
C18	C	0.760914	-0.503556	-0.284631
C19	C	0.685681	-0.503567	-0.284639
C20	C	0.914395	-0.775147	-0.262269
C21	C	0.904887	-0.891321	-0.252720
C22	C	0.655850	-0.436820	-0.333499
C23	C	0.585161	-0.436825	-0.333501
C24	C	0.544304	-0.503584	-0.284646
C25	C	0.574139	-0.570335	-0.235781
C26	C	0.644828	-0.570323	-0.235777
C27	C	0.289062	-0.570382	-0.235798
C28	C	0.218369	-0.570390	-0.235808
C29	C	0.229396	-0.436884	-0.333523
C30	C	0.300084	-0.436872	-0.333518
C31	C	0.329914	-0.503618	-0.284651
C32	C	0.406563	-0.503610	-0.284649
C33	C	0.467656	-0.503598	-0.284651
C34	C	0.941766	-0.943024	-0.289642
C35	C	0.931939	-1.063096	-0.279773
C36	C	1.113307	-0.503622	-0.284659
C37	C	1.188538	-0.503637	-0.284665
C38	C	0.936810	-0.503523	-0.461193
C39	C	0.936829	-0.503495	-0.536427
C40	C	0.959244	-0.230970	-0.307123
C41	C	0.968823	-0.114796	-0.316701
C42	C	0.985632	-0.436650	-0.577288
C43	C	0.985641	-0.436620	-0.647979
C44	C	0.936850	-0.503440	-0.677808
C45	C	0.888042	-0.570288	-0.636942
C46	C	0.888031	-0.570312	-0.566252
C47	C	0.888089	-0.570190	-0.922023
C48	C	0.888106	-0.570163	-0.992717
C49	C	0.985699	-0.436498	-1.003750
C50	C	0.985687	-0.436523	-0.933061
C51	C	0.936878	-0.503366	-0.892201
C52	C	0.936867	-0.503396	-0.815550
C53	C	0.936863	-0.503416	-0.754457
C54	C	0.936769	-0.503579	-0.108790
C55	C	0.936906	-0.503313	-0.033580
H56	H	0.689111	-0.382460	-0.373284
H57	H	0.848284	-0.624733	-0.532985
H58	H	0.980612	-0.898399	-0.328563
O59	O	0.200526	-0.372004	-0.381056
C60	C	0.218930	-0.239541	-0.477957
C61	C	0.251709	-0.312973	-0.424175
H62	H	0.260297	-0.191780	-0.512824
H63	H	0.181915	-0.287555	-0.509389
H64	H	0.190306	-0.184870	-0.451439
H65	H	0.280368	-0.367658	-0.450637
H66	H	0.288686	-0.264895	-0.392747
O67	O	0.556291	-0.371954	-0.381030
C68	C	0.574691	-0.239486	-0.477929
C69	C	0.607472	-0.312922	-0.424150
H70	H	0.616057	-0.191723	-0.512797
H71	H	0.537675	-0.287497	-0.509360
H72	H	0.546069	-0.184817	-0.451408
H73	H	0.636130	-0.367605	-0.450616
H74	H	0.644451	-0.264846	-0.392723
H75	H	1.025440	-0.382068	-1.037027
H76	H	0.893084	-1.107719	-0.240856
O77	O	0.840638	-0.635105	-1.021587
C78	C	0.743851	-0.767723	-1.003185
C79	C	0.797555	-0.694218	-0.970404
H80	H	0.709013	-0.815551	-0.961818
H81	H	0.712380	-0.719761	-1.040212
H82	H	0.770439	-0.822328	-1.031799
H83	H	0.771022	-0.639599	-0.941755
H84	H	0.829023	-0.742244	-0.933414
H85	H	1.007672	-1.070174	-0.355624
H86	H	0.313341	-0.624731	-0.196009
O87	O	0.178781	-0.635272	-0.188278
C88	C	0.175297	-0.767730	-0.091372
C89	C	0.220211	-0.694292	-0.145146
H90	H	0.208773	-0.815483	-0.056495
H91	H	0.146157	-0.719721	-0.059951
H92	H	0.137698	-0.822408	-0.117898
H93	H	0.257847	-0.639600	-0.118676
H94	H	0.249303	-0.742366	-0.176564
O95	O	0.858588	-0.944713	-0.206300
C96	C	0.806528	-1.113066	-0.154191
C97	C	0.858998	-1.052734	-0.206774
H98	H	0.806832	-1.200412	-0.154567
H99	H	0.820176	-1.091784	-0.101345
H100	H	0.753692	-1.091655	-0.167769
H101	H	0.911853	-1.074113	-0.193260
H102	H	0.845293	-1.074021	-0.259605
H103	H	0.333347	-0.382514	-0.373303
H104	H	1.025365	-0.382241	-0.553007
O105	O	1.033117	-0.371658	-0.687569
C106	C	1.129899	-0.239044	-0.691055
C107	C	1.076180	-0.312581	-0.646139
H108	H	1.164721	-0.191246	-0.657579
H109	H	1.161386	-0.286979	-0.720185
H110	H	1.103325	-0.184414	-0.728666
H111	H	1.102698	-0.367226	-0.608490
H112	H	1.044697	-0.264582	-0.617057
O113	O	0.534351	-0.635150	-0.188389
C114	C	0.420571	-0.694299	-0.145064
C115	C	0.465548	-0.620855	-0.198784
H116	H	0.364936	-0.682751	-0.153441
H117	H	0.427485	-0.778622	-0.149911
H118	H	0.436007	-0.675841	-0.092033
H119	H	0.450141	-0.639219	-0.251838
H120	H	0.458629	-0.536553	-0.193876
H121	H	0.669114	-0.624675	-0.195990
H122	H	1.025420	-0.382114	-0.908778
H123	H	0.848314	-0.624690	-0.661234
H124	H	0.848354	-0.624633	-0.888762
