data_functionalizedCrystal
_audit_creation_method	'MofGen! by Chris Wilmer'
_symmetry_space_group_name_H-M	'P1'
_symmetry_Int_Tables_number	1
_symmetry_cell_setting	triclinic
loop_
_symmetry_equiv_pos_as_xyz
  x,y,z
_cell_length_a	15.944551
_cell_length_b	15.944564
_cell_length_c	13.101039
_cell_angle_alpha	93.361539
_cell_angle_beta	86.646591
_cell_angle_gamma	83.501336
loop_
_atom_site_label
_atom_site_type_symbol
_atom_site_fract_x
_atom_site_fract_y
_atom_site_fract_z
O1	O	-1.119144	-0.103701	0.085110
O2	O	-0.874596	-0.117056	0.085136
O3	O	-1.003542	0.011895	0.085112
O4	O	-0.990198	-0.232652	0.085133
O5	O	-0.994290	0.002627	-0.085316
O6	O	-0.865344	-0.126324	-0.085292
O7	O	-1.109892	-0.112969	-0.085318
Zn8	Zn	-0.986149	-0.121118	-0.112364
Zn9	Zn	-0.998339	-0.108907	0.112182
O10	O	-0.980946	-0.241920	-0.085295
C11	C	-0.838676	-0.121135	-0.000075
C12	C	-0.745431	-0.119472	-0.000066
C13	C	-0.998360	0.038555	-0.000102
C14	C	-0.996694	0.131800	-0.000103
C15	C	-1.145812	-0.108890	-0.000105
C16	C	-1.239058	-0.110552	-0.000108
C17	C	-0.530569	-0.035570	-0.000093
C18	C	-0.474112	-0.069963	0.083941
C19	C	-0.574704	-0.116466	-0.000078
C20	C	-0.465013	-0.079119	-0.084088
C21	C	-0.409790	-0.113556	-0.000094
C22	C	-0.519480	-0.150877	0.084025
C23	C	-0.510383	-0.160026	-0.084079
C24	C	-0.453945	-0.194476	-0.000025
C25	C	-0.669707	-0.118140	-0.000068
C26	C	-0.314789	-0.111888	-0.000097
N27	N	-0.977836	-0.129450	-0.265611
C28	C	-0.912781	0.346657	-0.000081
C29	C	-0.947178	0.403104	-0.084117
C30	C	-0.993679	0.302526	-0.000096
C31	C	-0.956319	0.412225	0.083912
C32	C	-0.990761	0.467438	-0.000084
C33	C	-1.028095	0.357741	-0.084201
C34	C	-1.037228	0.366859	0.083904
C35	C	-1.071684	0.423288	-0.000153
C36	C	-0.995357	0.207523	-0.000103
C37	C	-0.989089	0.562438	-0.000084
C38	C	-0.986117	0.731419	-0.000079
C39	C	-0.987749	0.638169	-0.000075
C40	C	-0.966526	-0.140795	-0.474652
C41	C	-1.017966	-0.089226	-0.525537
C42	C	-1.011673	-0.095539	-0.641854
C43	C	-0.972818	-0.134484	-0.358324
N44	N	-1.006658	-0.100568	0.265429
H45	H	-0.563904	0.031573	0.000005
C46	C	-1.068633	0.325839	-0.178916
C47	C	-1.140254	0.287679	-0.149048
C48	C	-1.177608	0.258270	-0.236271
H49	H	-1.084773	0.371973	-0.219062
H50	H	-1.029247	0.285626	-0.218191
H51	H	-1.179632	0.327889	-0.109790
H52	H	-1.124137	0.241535	-0.108915
H53	H	-1.138222	0.218056	-0.275546
H54	H	-1.193743	0.304408	-0.276410
H55	H	-1.226202	0.232368	-0.216018
C56	C	-1.083023	-0.023957	-0.467338
C57	C	-1.129235	0.022391	-0.537148
C58	C	-1.189165	0.082527	-0.483568
H59	H	-1.120352	-0.051801	-0.425478
H60	H	-1.054995	0.013253	-0.425506
H61	H	-1.157262	-0.014813	-0.578962
H62	H	-1.091929	0.050254	-0.579010
H63	H	-1.161136	0.119737	-0.441737
H64	H	-1.226488	0.054675	-0.441711
H65	H	-1.220521	0.113986	-0.530926
H66	H	-0.457857	-0.031884	0.154979
H67	H	-1.138887	0.456443	-0.000207
C68	C	-0.551177	-0.191202	0.178989
C69	C	-0.532389	-0.144217	0.266660
C70	C	-0.561568	-0.181341	0.354158
H71	H	-0.610635	-0.191997	0.178575
H72	H	-0.524240	-0.247463	0.179294
H73	H	-0.559328	-0.087970	0.266355
H74	H	-0.472936	-0.143418	0.267107
H75	H	-0.534631	-0.237602	0.354463
H76	H	-0.621025	-0.182134	0.353734
H77	H	-0.548818	-0.149472	0.413652
H78	H	-1.075273	0.350592	0.154946
C79	C	-0.915960	0.444295	0.178679
C80	C	-0.974437	0.502970	0.236800
C81	C	-0.937279	0.532535	0.324093
H82	H	-0.899381	0.398156	0.218625
H83	H	-0.867669	0.470706	0.158516
H84	H	-1.022713	0.476559	0.256964
H85	H	-0.991021	0.549123	0.196884
H86	H	-0.888988	0.558946	0.303930
H87	H	-0.920701	0.486391	0.364030
H88	H	-0.976947	0.572355	0.363534
H89	H	-0.845630	0.313345	-0.000158
H90	H	-0.917765	-0.189682	-0.518440
H91	H	-0.441069	-0.048751	-0.155129
C92	C	-0.409786	-0.284088	0.000251
C93	C	-0.437556	-0.321247	0.088392
C94	C	-0.396887	-0.403790	0.088694
H95	H	-0.422776	-0.316350	-0.058804
H96	H	-0.350364	-0.282608	-0.000261
H97	H	-0.496965	-0.322732	0.088895
H98	H	-0.424566	-0.289009	0.147461
H99	H	-0.337465	-0.402310	0.088181
H100	H	-0.409880	-0.436045	0.029635
H101	H	-0.415717	-0.429011	0.148501
H102	H	-0.909105	0.419350	-0.155155
H103	H	-0.526659	-0.198076	-0.155121
