data_functionalizedCrystal
_audit_creation_method	'MofGen! by Chris Wilmer'
_symmetry_space_group_name_H-M	'P1'
_symmetry_Int_Tables_number	1
_symmetry_cell_setting	triclinic
loop_
_symmetry_equiv_pos_as_xyz
  x,y,z
_cell_length_a	16.120484
_cell_length_b	12.759401
_cell_length_c	12.759393
_cell_angle_alpha	90.017380
_cell_angle_beta	92.862621
_cell_angle_gamma	87.074440
loop_
_atom_site_label
_atom_site_type_symbol
_atom_site_fract_x
_atom_site_fract_y
_atom_site_fract_z
Zn1	Zn	-0.331851	-1.584960	-0.615146
Zn2	Zn	0.168149	-1.084960	-0.115146
Zn3	Zn	-0.471289	-1.575915	-0.448359
Zn4	Zn	0.028711	-1.075915	0.051641
Zn5	Zn	-0.331895	-1.409262	-0.439488
Zn6	Zn	0.168105	-0.909262	0.060512
Zn7	Zn	-0.471225	-1.400312	-0.623996
Zn8	Zn	0.028775	-0.900312	-0.123996
O9	O	-0.401565	-1.492612	-0.531747
O10	O	0.098435	-0.992612	-0.031747
O11	O	-0.350357	-1.730780	-0.593029
O12	O	0.149643	-1.230780	-0.093029
O13	O	-0.452844	-1.553768	-0.300164
O14	O	0.047156	-1.053768	0.199836
O15	O	-0.215224	-1.440101	-0.455373
O16	O	0.284776	-0.940101	0.044627
O17	O	-0.452801	-1.724135	-0.470492
O18	O	0.047199	-1.224135	0.029508
O19	O	-0.215192	-1.569185	-0.584428
O20	O	0.284808	-1.069185	-0.084428
O21	O	-0.350432	-1.431330	-0.293646
O22	O	0.149568	-0.931330	0.206354
O23	O	-0.350369	-1.261055	-0.463955
O24	O	0.149631	-0.761055	0.036045
O25	O	-0.452691	-1.424845	-0.769840
O26	O	0.047309	-0.924845	-0.269840
O27	O	-0.452734	-1.254478	-0.599512
O28	O	0.047266	-0.754478	-0.099512
O29	O	-0.350294	-1.560505	-0.763338
O30	O	0.149706	-1.060505	-0.263338
O31	O	-0.587946	-1.545089	-0.479074
O32	O	-0.087946	-1.045089	0.020926
O33	O	-0.587899	-1.416074	-0.608114
O34	O	-0.087899	-0.916074	-0.108114
C35	C	-0.401550	-1.219646	-0.531732
C36	C	0.098450	-0.719646	-0.031732
C37	C	-0.401563	-1.102868	-0.531751
C38	C	0.098437	-0.602868	-0.031751
C39	C	-0.618172	-1.478657	-0.545539
C40	C	-0.118172	-0.978657	-0.045539
C41	C	-0.710838	-1.472783	-0.551475
C42	C	-0.210838	-0.972783	-0.051475
C43	C	-0.401480	-1.492686	-0.805775
C44	C	0.098520	-0.992686	-0.305775
C45	C	-0.401444	-1.492717	-0.922549
C46	C	0.098556	-0.992717	-0.422549
C47	C	-0.880498	-1.462065	-0.562333
C48	C	-0.380498	-0.962065	-0.062333
C49	C	-0.921791	-1.523347	-0.501178
C50	C	-0.421791	-1.023347	-0.001178
C51	C	-1.016197	-1.517384	-0.507219
C52	C	-0.516197	-1.017384	-0.007219
C53	C	-0.786085	-1.468028	-0.556293
C54	C	-0.286085	-0.968028	-0.056293
C55	C	-0.184112	-1.506650	-0.517924
C56	C	0.315888	-1.006650	-0.017924
C57	C	-0.091447	-1.512632	-0.512033
C58	C	0.408553	-1.012632	-0.012033
C59	C	-0.401581	-1.766644	-0.531763
C60	C	0.098419	-1.266644	-0.031763
C61	C	-0.401588	-1.883421	-0.531770
C62	C	0.098412	-1.383421	-0.031770
C63	C	-0.454950	-1.044604	-0.602230
C64	C	0.045050	-0.544604	-0.102230
C65	C	-0.454961	-0.934879	-0.602242
C66	C	0.045039	-0.434879	-0.102242
C67	C	-0.348196	-0.941693	-0.461287
C68	C	0.151804	-0.441693	0.038713
C69	C	-0.348181	-1.051416	-0.461281
C70	C	0.151819	-0.551416	0.038719
C71	C	-0.508332	-1.096056	-0.672701
C72	C	-0.008332	-0.596056	-0.172701
C73	C	-0.561724	-1.037792	-0.743185
C74	C	-0.061724	-0.537792	-0.243185
C75	C	-0.561734	-0.928067	-0.743197
C76	C	-0.061734	-0.428067	-0.243197
C77	C	-0.508353	-0.876607	-0.672725
C78	C	-0.008353	-0.376607	-0.172725
C79	C	-0.348108	-1.428993	-0.974023
C80	C	0.151892	-0.928993	-0.474023
C81	C	-0.348083	-1.429026	-1.083746
C82	C	0.151917	-0.929026	-0.583746
C83	C	-0.454733	-1.556517	-1.090511
C84	C	0.045267	-1.056517	-0.590511
C85	C	-0.454761	-1.556478	-0.980791
C86	C	0.045239	-1.056478	-0.480791
C87	C	-0.294791	-1.365232	-0.915782
C88	C	0.205209	-0.865232	-0.415782
C89	C	-0.241450	-1.301503	-0.967256
C90	C	0.258550	-0.801503	-0.467256
C91	C	-0.241426	-1.301536	-1.076978
C92	C	0.258574	-0.801536	-0.576978
C93	C	-0.294742	-1.365299	-1.135227
C94	C	0.205258	-0.865299	-0.635227
C95	C	-0.401590	-1.492603	-0.258781
C96	C	0.098410	-0.992603	0.241219
C97	C	-0.401391	-1.492790	-0.141992
C98	C	0.098609	-0.992790	0.358008
H99	H	-0.886243	-1.580290	-0.444282
H100	H	-0.386243	-1.080290	0.055718
H101	H	-0.498138	-1.608432	-1.137946
H102	H	0.001862	-1.108432	-0.637946
N103	N	-0.294717	-1.365326	-1.253571
N104	N	0.205283	-0.865326	-0.753571
H105	H	-0.279393	-1.438394	-1.279033
H106	H	0.220607	-0.938394	-0.779033
H107	H	-0.351914	-1.342282	-1.283541
H108	H	0.148086	-0.842282	-0.783541
N109	N	-0.927580	-1.386627	-0.637678
N110	N	-0.427580	-0.886627	-0.137678
H111	H	-0.886871	-1.346551	-0.677651
H112	H	-0.386871	-0.846551	-0.177651
H113	H	-0.963650	-1.427125	-0.688600
H114	H	-0.463650	-0.927125	-0.188600
N115	N	-0.619293	-1.093287	-0.819195
N116	N	-0.119293	-0.593287	-0.319195
H117	H	-0.611188	-1.171638	-0.808492
H118	H	-0.111188	-0.671638	-0.308492
H119	H	-0.678820	-1.070271	-0.806506
H120	H	-0.178820	-0.570271	-0.306506
N121	N	-0.508326	-1.214400	-0.672680
N122	N	-0.008326	-0.714400	-0.172680
H123	H	-0.550244	-1.238156	-0.728014
H124	H	-0.050244	-0.738156	-0.228014
H125	H	-0.451124	-1.244438	-0.688438
H126	H	0.048876	-0.744438	-0.188438
H127	H	-0.605202	-0.880631	-0.800595
H128	H	-0.105202	-0.380631	-0.300595
H129	H	-0.508359	-0.787262	-0.672749
H130	H	-0.008359	-0.287262	-0.172749
N131	N	-0.512291	-1.625205	-0.925268
N132	N	-0.012291	-1.125205	-0.425268
H133	H	-0.546056	-1.665606	-0.978815
H134	H	-0.046056	-1.165606	-0.478815
H135	H	-0.478373	-1.676001	-0.877586
H136	H	0.021627	-1.176001	-0.377586
N137	N	-0.290639	-0.886194	-0.385265
N138	N	0.209361	-0.386194	0.114735
H139	H	-0.298755	-0.807843	-0.395956
H140	H	0.201245	-0.307843	0.104044
H141	H	-0.303557	-0.904527	-0.311032
H142	H	0.196443	-0.404527	0.188968
H143	H	-0.294804	-1.365200	-0.826440
H144	H	0.205196	-0.865200	-0.326440
N145	N	-0.290600	-1.114268	-0.385269
N146	N	0.209400	-0.614268	0.114731
H147	H	-0.256789	-1.065025	-0.340622
H148	H	0.243211	-0.565025	0.159378
H149	H	-0.324485	-1.157599	-0.338735
H150	H	0.175515	-0.657599	0.161265
H151	H	-0.197998	-1.249638	-1.118885
H152	H	0.302002	-0.749638	-0.618885
N153	N	-0.183955	-1.232724	-0.904439
N154	N	0.316045	-0.732724	-0.404439
H155	H	-0.192062	-1.242372	-0.827120
H156	H	0.307938	-0.742372	-0.327120
H157	H	-0.124410	-1.252927	-0.919841
H158	H	0.375590	-0.752927	-0.419841
