data_functionalizedCrystal
_audit_creation_method	'MofGen! by Chris Wilmer'
_symmetry_space_group_name_H-M	'P1'
_symmetry_Int_Tables_number	1
_symmetry_cell_setting	triclinic
loop_
_symmetry_equiv_pos_as_xyz
  x,y,z
_cell_length_a	6.817900
_cell_length_b	11.102183
_cell_length_c	10.992410
_cell_angle_alpha	91.891880
_cell_angle_beta	108.764651
_cell_angle_gamma	108.603876
loop_
_atom_site_label
_atom_site_type_symbol
_atom_site_fract_x
_atom_site_fract_y
_atom_site_fract_z
V1	V	-4.113408	-0.175839	-0.400591
O2	O	-4.072416	0.008450	-0.392968
O3	O	-4.090162	-0.348658	-0.397849
O4	O	-4.091013	-0.173134	-0.575303
O5	O	-4.071559	-0.168290	-0.214285
V6	V	-4.590407	-0.153796	-0.378307
O7	O	-4.388978	-0.224192	-0.449471
O8	O	-4.765035	-0.105442	-0.329427
O9	O	-4.390447	0.019024	-0.381049
O10	O	-4.748796	-0.338084	-0.385931
O11	O	-4.749654	-0.161344	-0.564614
O12	O	-4.389596	-0.156500	-0.203595
C13	C	-3.940440	-0.390788	-0.391529
C14	C	-4.002894	-0.532070	-0.390452
C15	C	-3.881428	-0.495793	-0.155125
C16	C	-3.850033	-0.544028	-0.036960
C17	C	-3.908721	-0.676776	-0.035955
C18	C	-3.998819	-0.761294	-0.153127
C19	C	-4.030214	-0.713059	-0.271292
C20	C	-3.971512	-0.580306	-0.272285
C21	C	-4.151693	-0.749336	-0.506616
C22	C	-4.092991	-0.616588	-0.507624
C23	C	-4.241790	-0.833854	-0.623789
C24	C	-4.273172	-0.785619	-0.741956
C25	C	-4.214475	-0.652862	-0.742956
C26	C	-4.124386	-0.568353	-0.625789
C27	C	-3.941525	-0.166887	-0.617888
C28	C	-4.004665	-0.165820	-0.760716
C29	C	-3.871834	-0.156089	-0.955840
C30	C	-3.806276	-0.157727	-0.807357
C31	C	-4.202082	-0.291130	-0.837819
C32	C	-4.266401	-0.290022	-0.986385
C33	C	-4.145326	-0.047376	-0.948357
C34	C	-4.074620	-0.046781	-0.799344
C35	C	-4.203511	0.061147	-0.387366
C36	C	-4.120298	0.202428	-0.388452
C37	C	-4.202426	-0.162751	-0.161004
C38	C	-4.118523	-0.163812	-0.018174
H39	H	-4.240073	-0.613600	-0.839181
H40	H	-3.748691	-0.242549	-0.782541
C41	C	-4.059825	-0.422334	-0.626890
H42	H	-4.091412	-0.405706	-0.714043
H43	H	-4.141842	-0.389740	-0.587749
H44	H	-3.906364	-0.381470	-0.579569
C45	C	-3.750920	-0.451059	0.091920
H46	H	-3.720440	-0.365088	0.074404
H47	H	-3.853307	-0.469495	0.136341
H48	H	-3.617833	-0.461228	0.144517
C49	C	-4.006901	0.081176	-0.975847
H50	H	-3.931458	0.065034	-1.030167
H51	H	-4.101464	0.125744	-1.018114
H52	H	-3.902331	0.132046	-0.896210
H53	H	-4.216740	-0.045310	-0.766832
H54	H	-4.046626	-0.869384	-0.152299
H55	H	-4.324288	-0.051930	-0.989197
C56	C	-4.244808	-0.409114	-1.048904
H57	H	-4.283859	-0.409492	-1.140072
H58	H	-4.096597	-0.406595	-1.012953
H59	H	-4.340687	-0.484737	-1.032268
C60	C	-3.881701	0.078450	-0.728625
H61	H	-3.759031	0.058289	-0.675770
H62	H	-3.840848	0.128522	-0.790793
H63	H	-3.926199	0.125790	-0.675654
H64	H	-3.883162	-0.716048	0.060265
C65	C	-3.816909	-0.349775	-0.156227
H66	H	-3.758782	-0.306349	-0.069526
H67	H	-3.708341	-0.322285	-0.195821
H68	H	-3.943840	-0.330604	-0.203999
H69	H	-3.658251	-0.067623	-0.754017
C70	C	-4.512199	-0.304759	-1.043987
H71	H	-4.572342	-0.311404	-0.976571
H72	H	-4.525807	-0.231863	-1.084018
H73	H	-4.590100	-0.380136	-1.106894
C74	C	-4.372273	-0.878580	-0.870830
H75	H	-4.382571	-0.830845	-0.941351
H76	H	-4.279973	-0.926992	-0.871234
H77	H	-4.515447	-0.935247	-0.879423
C78	C	-3.714064	-0.033531	-0.981264
H79	H	-3.566027	-0.030683	-0.942851
H80	H	-3.749171	-0.034222	-1.072269
H81	H	-3.729639	0.039936	-0.944329
C82	C	-4.405158	-0.305258	-0.798906
H83	H	-4.371264	-0.234694	-0.735134
H84	H	-4.525692	-0.306659	-0.873251
H85	H	-4.443776	-0.383136	-0.764298
H86	H	-4.289587	-0.941944	-0.622962
H87	H	-3.846497	-0.239750	-1.003831
H88	H	-4.155898	-0.379510	-0.812212
