data_functionalizedCrystal
_audit_creation_method	'MofGen! by Chris Wilmer'
_symmetry_space_group_name_H-M	'P1'
_symmetry_Int_Tables_number	1
_symmetry_cell_setting	triclinic
loop_
_symmetry_equiv_pos_as_xyz
  x,y,z
_cell_length_a	17.699083
_cell_length_b	10.268362
_cell_length_c	17.699083
_cell_angle_alpha	90.006174
_cell_angle_beta	83.283015
_cell_angle_gamma	89.998556
loop_
_atom_site_label
_atom_site_type_symbol
_atom_site_fract_x
_atom_site_fract_y
_atom_site_fract_z
O1	O	1.004076	0.108120	0.095712
O2	O	1.254076	0.358120	0.345712
O3	O	1.504076	0.608120	0.595712
O4	O	1.754076	0.858120	0.845712
O5	O	0.783697	0.108163	0.108164
O6	O	1.033697	0.358163	0.358164
O7	O	1.283697	0.608163	0.608164
O8	O	1.533697	0.858163	0.858164
O9	O	0.900113	0.108129	-0.008251
O10	O	1.150113	0.358129	0.241749
O11	O	1.400113	0.608129	0.491749
O12	O	1.650113	0.858129	0.741749
O13	O	0.887660	0.108154	0.212127
O14	O	1.137660	0.358154	0.462127
O15	O	1.387660	0.608154	0.712127
O16	O	1.637660	0.858154	0.962127
O17	O	0.900103	-0.108472	-0.008256
O18	O	1.150103	0.141528	0.241744
O19	O	1.400103	0.391528	0.491744
O20	O	1.650103	0.641528	0.741744
O21	O	0.783687	-0.108437	0.108160
O22	O	1.033687	0.141563	0.358160
O23	O	1.283687	0.391563	0.608160
O24	O	1.533687	0.641563	0.858160
O25	O	1.004066	-0.108480	0.095707
O26	O	1.254066	0.141520	0.345707
O27	O	1.504066	0.391520	0.595707
O28	O	1.754066	0.641520	0.845707
Cu29	Cu	0.893876	-0.128236	0.101933
Cu30	Cu	1.143876	0.121764	0.351933
Cu31	Cu	1.393876	0.371764	0.601933
Cu32	Cu	1.643876	0.621764	0.851933
Cu33	Cu	0.893888	0.127919	0.101938
Cu34	Cu	1.143888	0.377919	0.351938
Cu35	Cu	1.393888	0.627919	0.601938
Cu36	Cu	1.643888	0.877919	0.851938
O37	O	0.887650	-0.108446	0.212122
O38	O	1.137650	0.141554	0.462122
O39	O	1.387650	0.391554	0.712122
O40	O	1.637650	0.641554	0.962122
C41	C	0.755495	-0.000132	0.107716
C42	C	1.005495	0.249868	0.357716
C43	C	1.255495	0.499868	0.607716
C44	C	1.505495	0.749868	0.857716
C45	C	0.671477	-0.000116	0.106377
C46	C	0.921477	0.249884	0.356377
C47	C	1.171477	0.499884	0.606377
C48	C	1.421477	0.749884	0.856377
N49	N	0.893873	-0.308402	0.101928
N50	N	1.143873	-0.058402	0.351928
N51	N	1.393873	0.191598	0.601928
N52	N	1.643873	0.441598	0.851928
C53	C	0.622856	-0.000108	0.174710
C54	C	0.872856	0.249892	0.424710
C55	C	1.122856	0.499892	0.674710
C56	C	1.372856	0.749892	0.924710
C57	C	0.543913	-0.000125	0.173448
C58	C	0.793913	0.249875	0.423448
C59	C	1.043913	0.499875	0.673448
C60	C	1.293913	0.749875	0.923448
C61	C	0.513592	-0.000140	0.103852
C62	C	0.763592	0.249860	0.353852
C63	C	1.013592	0.499860	0.603852
C64	C	1.263592	0.749860	0.853852
C65	C	0.562219	-0.000152	0.035513
C66	C	0.812219	0.249848	0.285513
C67	C	1.062219	0.499848	0.535513
C68	C	1.312219	0.749848	0.785513
C69	C	0.641161	-0.000144	0.036776
C70	C	0.891161	0.249856	0.286776
C71	C	1.141161	0.499856	0.536776
C72	C	1.391161	0.749856	0.786776
C73	C	0.243856	-0.000184	0.030418
C74	C	0.493856	0.249816	0.280418
C75	C	0.743856	0.499816	0.530418
C76	C	0.993856	0.749816	0.780418
C77	C	0.164908	-0.000188	0.029160
C78	C	0.414908	0.249812	0.279160
C79	C	0.664908	0.499812	0.529160
C80	C	0.914908	0.749812	0.779160
C81	C	0.146608	-0.000166	0.167090
C82	C	0.396608	0.249834	0.417090
C83	C	0.646608	0.499834	0.667090
C84	C	0.896608	0.749834	0.917090
C85	C	0.225550	-0.000158	0.168353
C86	C	0.475550	0.249842	0.418353
C87	C	0.725550	0.499842	0.668353
C88	C	0.975550	0.749842	0.918353
C89	C	0.274170	-0.000176	0.100015
C90	C	0.524170	0.249824	0.350015
C91	C	0.774170	0.499824	0.600015
C92	C	1.024170	0.749824	0.850015
C93	C	0.359769	-0.000160	0.101384
C94	C	0.609769	0.249840	0.351384
C95	C	0.859769	0.499840	0.601384
C96	C	1.109769	0.749840	0.851384
C97	C	0.427995	-0.000147	0.102481
C98	C	0.677995	0.249853	0.352481
C99	C	0.927995	0.499853	0.602481
C100	C	1.177995	0.749853	0.852481
C101	C	0.893884	-0.574073	0.101937
C102	C	1.143884	-0.324073	0.351937
C103	C	1.393884	-0.074073	0.601937
C104	C	1.643884	0.175927	0.851937
C105	C	0.893875	-0.426235	0.101934
C106	C	1.143875	-0.176235	0.351934
C107	C	1.393875	0.073765	0.601934
C108	C	1.643875	0.323765	0.851934
C109	C	1.032268	-0.000183	0.096156
C110	C	1.282268	0.249817	0.346156
C111	C	1.532268	0.499817	0.596156
C112	C	1.782268	0.749817	0.846156
C113	C	1.116286	-0.000190	0.097494
C114	C	1.366286	0.249810	0.347494
C115	C	1.616286	0.499810	0.597494
C116	C	1.866286	0.749810	0.847494
C117	C	0.899662	-0.000171	-0.036451
C118	C	1.149662	0.249829	0.213549
C119	C	1.399662	0.499829	0.463549
C120	C	1.649662	0.749829	0.713549
C121	C	0.898323	-0.000172	-0.120469
C122	C	1.148323	0.249828	0.129531
C123	C	1.398323	0.499828	0.379531
C124	C	1.648323	0.749828	0.629531
N125	N	0.893896	0.308085	0.101937
N126	N	1.143896	0.558085	0.351937
N127	N	1.393896	0.808085	0.601937
N128	N	1.643896	1.058085	0.851937
C129	C	0.966656	-0.000187	-0.169090
C130	C	1.216656	0.249813	0.080910
C131	C	1.466656	0.499813	0.330910
C132	C	1.716656	0.749813	0.580910
C133	C	0.965394	-0.000175	-0.248033
C134	C	1.215394	0.249825	0.001967
C135	C	1.465394	0.499825	0.251967
C136	C	1.715394	0.749825	0.501967
C137	C	0.895798	-0.000157	-0.278354
C138	C	1.145798	0.249843	-0.028354
C139	C	1.395798	0.499843	0.221646
C140	C	1.645798	0.749843	0.471646
C141	C	0.827459	-0.000138	-0.229727
C142	C	1.077459	0.249862	0.020273
C143	C	1.327459	0.499862	0.270273
C144	C	1.577459	0.749862	0.520273
C145	C	0.828722	-0.000141	-0.150785
C146	C	1.078722	0.249859	0.099215
C147	C	1.328722	0.499859	0.349215
C148	C	1.578722	0.749859	0.599215
C149	C	0.822364	-0.000127	-0.548090
C150	C	1.072364	0.249873	-0.298090
C151	C	1.322364	0.499873	-0.048090
C152	C	1.572364	0.749873	0.201910
C153	C	0.821106	-0.000128	-0.627038
C154	C	1.071106	0.249872	-0.377038
C155	C	1.321106	0.499872	-0.127038
C156	C	1.571106	0.749872	0.122962
C157	C	0.959036	-0.000161	-0.645338
C158	C	1.209036	0.249839	-0.395338
C159	C	1.459036	0.499839	-0.145338
C160	C	1.709036	0.749839	0.104662
C161	C	0.960299	-0.000163	-0.566396
C162	C	1.210299	0.249837	-0.316396
C163	C	1.460299	0.499837	-0.066396
C164	C	1.710299	0.749837	0.183604
C165	C	0.891961	-0.000138	-0.517776
C166	C	1.141961	0.249862	-0.267776
C167	C	1.391961	0.499862	-0.017776
C168	C	1.641961	0.749862	0.232224
C169	C	0.893330	-0.000148	-0.432177
C170	C	1.143330	0.249852	-0.182177
C171	C	1.393330	0.499852	0.067823
C172	C	1.643330	0.749852	0.317823
C173	C	0.894427	-0.000156	-0.363951
C174	C	1.144427	0.249844	-0.113951
C175	C	1.394427	0.499844	0.136049
C176	C	1.644427	0.749844	0.386049
C177	C	0.888102	-0.000143	0.240322
C178	C	1.138102	0.249857	0.490322
C179	C	1.388102	0.499857	0.740322
C180	C	1.638102	0.749857	0.990322
C181	C	0.889440	-0.000134	0.324340
C182	C	1.139440	0.249866	0.574340
C183	C	1.389440	0.499866	0.824340
C184	C	1.639440	0.749866	1.074340
H185	H	0.647537	-0.000095	0.231384
H186	H	0.897537	0.249905	0.481384
H187	H	1.147537	0.499905	0.731384
H188	H	1.397537	0.749905	0.981384
H189	H	0.504328	-0.000118	0.229092
H190	H	0.754328	0.249882	0.479092
H191	H	1.004328	0.499882	0.729092
H192	H	1.254328	0.749882	0.979092
H193	H	0.107012	-0.000158	0.222734
H194	H	0.357012	0.249842	0.472734
H195	H	0.607012	0.499842	0.722734
H196	H	0.857012	0.749842	0.972734
H197	H	0.764429	-0.000116	-0.651721
H198	H	1.014429	0.249884	-0.401721
H199	H	1.264429	0.499884	-0.151721
H200	H	1.514429	0.749884	0.098279
C201	C	0.747194	-0.000126	-0.494614
C202	C	0.997194	0.249874	-0.244614
C203	C	1.247194	0.499874	0.005386
C204	C	1.497194	0.749874	0.255386
C205	C	0.670641	-0.000129	-0.527969
C206	C	0.920641	0.249871	-0.277969
C207	C	1.170641	0.499871	-0.027969
C208	C	1.420641	0.749871	0.222031
C209	C	0.595467	-0.000138	-0.474489
C210	C	0.845467	0.249862	-0.224489
C211	C	1.095467	0.499862	0.025511
C212	C	1.345467	0.749862	0.275511
C213	C	0.596845	-0.000144	-0.387655
C214	C	0.846845	0.249856	-0.137655
C215	C	1.096845	0.499856	0.112345
C216	C	1.346845	0.749856	0.362345
C217	C	0.673401	-0.000142	-0.354296
C218	C	0.923401	0.249858	-0.104296
C219	C	1.173401	0.499858	0.145704
C220	C	1.423401	0.749858	0.395704
C221	C	0.748575	-0.000133	-0.407775
C222	C	0.998575	0.249867	-0.157775
C223	C	1.248575	0.499867	0.092225
C224	C	1.498575	0.749867	0.342225
H225	H	0.669618	-0.000124	-0.592253
H226	H	0.919618	0.249876	-0.342253
H227	H	1.169618	0.499876	-0.092253
H228	H	1.419618	0.749876	0.157747
H229	H	0.538796	-0.000139	-0.499184
H230	H	0.788796	0.249861	-0.249184
H231	H	1.038796	0.499861	0.000816
H232	H	1.288796	0.749861	0.250816
H233	H	0.541197	-0.000151	-0.348066
H234	H	0.791197	0.249849	-0.098066
H235	H	1.041197	0.499849	0.151934
H236	H	1.291197	0.749849	0.401934
H237	H	0.674423	-0.000147	-0.290012
H238	H	0.924423	0.249853	-0.040012
H239	H	1.174423	0.499853	0.209988
H240	H	1.424423	0.749853	0.459988
H241	H	0.805246	-0.000131	-0.383080
H242	H	1.055246	0.249869	-0.133080
H243	H	1.305246	0.499869	0.116920
H244	H	1.555246	0.749869	0.366920
H245	H	0.283434	-0.000200	-0.025228
H246	H	0.533434	0.249800	0.224772
H247	H	0.783434	0.499800	0.474772
H248	H	1.033434	0.749800	0.724772
H249	H	0.537526	-0.000183	-0.021154
H250	H	0.787526	0.249817	0.228846
H251	H	1.037526	0.499817	0.478846
H252	H	1.287526	0.749817	0.728846
C253	C	1.040562	-0.000207	-0.301516
C254	C	1.290562	0.249793	-0.051516
C255	C	1.540562	0.499793	0.198484
C256	C	1.790562	0.749793	0.448484
C257	C	1.039180	-0.000203	-0.388350
C258	C	1.289180	0.249797	-0.138350
C259	C	1.539180	0.499797	0.111650
C260	C	1.789180	0.749797	0.361650
C261	C	1.114351	-0.000238	-0.441833
C262	C	1.364351	0.249762	-0.191833
C263	C	1.614351	0.499762	0.058167
C264	C	1.864351	0.749762	0.308167
C265	C	1.190906	-0.000277	-0.408483
C266	C	1.440906	0.249723	-0.158483
C267	C	1.690906	0.499723	0.091517
C268	C	1.940906	0.749723	0.341517
C269	C	1.192292	-0.000282	-0.321645
C270	C	1.442292	0.249718	-0.071645
C271	C	1.692292	0.499718	0.178355
C272	C	1.942292	0.749718	0.428355
C273	C	1.117120	-0.000247	-0.268161
C274	C	1.367120	0.249753	-0.018161
C275	C	1.617120	0.499753	0.231839
C276	C	1.867120	0.749753	0.481839
H277	H	0.982507	-0.000173	-0.413042
H278	H	1.232507	0.249827	-0.163042
H279	H	1.482507	0.499827	0.086958
H280	H	1.732507	0.749827	0.336958
H281	H	1.113325	-0.000234	-0.506117
H282	H	1.363325	0.249766	-0.256117
H283	H	1.613325	0.499766	-0.006117
H284	H	1.863325	0.749766	0.243883
H285	H	1.246552	-0.000303	-0.448075
H286	H	1.496552	0.249697	-0.198075
H287	H	1.746552	0.499697	0.051925
H288	H	1.996552	0.749697	0.301925
H289	H	1.248964	-0.000311	-0.296953
H290	H	1.498964	0.249689	-0.046953
H291	H	1.748964	0.499689	0.203047
H292	H	1.998964	0.749689	0.453047
H293	H	1.118146	-0.000251	-0.203878
H294	H	1.368146	0.249749	0.046122
H295	H	1.618146	0.499749	0.296122
H296	H	1.868146	0.749749	0.546122
H297	H	0.250232	-0.000140	0.225025
H298	H	0.500232	0.249860	0.475025
H299	H	0.750232	0.499860	0.725025
H300	H	1.000232	0.749860	0.975025
H301	H	0.680748	-0.000149	-0.018868
H302	H	0.930748	0.249851	0.231132
H303	H	1.180748	0.499851	0.481132
H304	H	1.430748	0.749851	0.731132
H305	H	0.140225	-0.000202	-0.027517
H306	H	0.390225	0.249798	0.222483
H307	H	0.640225	0.499798	0.472483
H308	H	0.890225	0.749798	0.722483
H309	H	1.016971	-0.000184	-0.541714
H310	H	1.266971	0.249816	-0.291714
H311	H	1.516971	0.499816	-0.041714
H312	H	1.766971	0.749816	0.208286
H313	H	1.023330	-0.000209	-0.144409
H314	H	1.273330	0.249791	0.105591
H315	H	1.523330	0.499791	0.355591
H316	H	1.773330	0.749791	0.605591
H317	H	1.014680	-0.000175	-0.684934
H318	H	1.264680	0.249825	-0.434934
H319	H	1.514680	0.499825	-0.184934
H320	H	1.764680	0.749825	0.065066
H321	H	0.770792	-0.000116	-0.254420
H322	H	1.020792	0.249884	-0.004420
H323	H	1.270792	0.499884	0.245580
H324	H	1.520792	0.749884	0.495580
H325	H	0.773078	-0.000128	-0.111198
H326	H	1.023078	0.249872	0.138802
H327	H	1.273078	0.499872	0.388802
H328	H	1.523078	0.749872	0.638802
