data_functionalizedCrystal
_audit_creation_method	'MofGen! by Chris Wilmer'
_symmetry_space_group_name_H-M	'P1'
_symmetry_Int_Tables_number	1
_symmetry_cell_setting	triclinic
loop_
_symmetry_equiv_pos_as_xyz
  x,y,z
_cell_length_a	18.215407
_cell_length_b	10.686285
_cell_length_c	18.215399
_cell_angle_alpha	85.606976
_cell_angle_beta	89.985640
_cell_angle_gamma	85.629207
loop_
_atom_site_label
_atom_site_type_symbol
_atom_site_fract_x
_atom_site_fract_y
_atom_site_fract_z
Zn1	Zn	1.147622	-0.502418	-0.393651
Zn2	Zn	1.157017	-0.713445	-0.261170
Zn3	Zn	1.024563	-0.502457	-0.270602
Zn4	Zn	1.033997	-0.713354	-0.384204
O5	O	1.090800	-0.607919	-0.327407
O6	O	1.251853	-0.530433	-0.376083
O7	O	1.139431	-0.685511	-0.159434
O8	O	1.033006	-0.325876	-0.294826
O9	O	1.258756	-0.685473	-0.278750
O10	O	1.123417	-0.325847	-0.385230
O11	O	1.042117	-0.530499	-0.166364
O12	O	0.922829	-0.530412	-0.285665
O13	O	1.049086	-0.685319	-0.488444
O14	O	0.929760	-0.685357	-0.369128
O15	O	1.132565	-0.530345	-0.495385
O16	O	1.148579	-0.890009	-0.269589
O17	O	1.058196	-0.889943	-0.359982
C18	C	0.899592	-0.607880	-0.327396
C19	C	0.817793	-0.607894	-0.327407
C20	C	0.626012	-0.527331	-0.378155
C21	C	0.549153	-0.527341	-0.378157
C22	C	0.556341	-0.688542	-0.276669
C23	C	0.633198	-0.688524	-0.276665
C24	C	0.668031	-0.607920	-0.327412
C25	C	0.514316	-0.607949	-0.327418
C26	C	0.430983	-0.607961	-0.327420
C27	C	0.751369	-0.607906	-0.327409
C28	C	1.105450	-0.935760	-0.312753
C29	C	1.111786	-1.076012	-0.306508
C30	C	1.282754	-0.607959	-0.327418
C31	C	1.364554	-0.607976	-0.327423
C32	C	1.090830	-0.607818	-0.519364
C33	C	1.090843	-0.607775	-0.601165
C34	C	1.076111	-0.278797	-0.342134
C35	C	1.069852	-0.138545	-0.348410
C36	C	1.040209	-0.527006	-0.792971
C37	C	1.040220	-0.526981	-0.869831
C38	C	1.141558	-0.688393	-0.862604
C39	C	1.141542	-0.688424	-0.785745
C40	C	1.090868	-0.607723	-0.750931
C41	C	1.090896	-0.607667	-0.904650
C42	C	1.090909	-0.607640	-0.987985
C43	C	1.090854	-0.607752	-0.667591
C44	C	1.090808	-0.607928	-0.136200
C45	C	1.090921	-0.607616	-0.054416
H46	H	0.514944	-0.461715	-0.419477
O47	O	1.196193	-0.775472	-0.740394
H48	H	1.231442	-0.831565	-0.777514
H49	H	1.029106	-1.084787	-0.389062
H50	H	0.527971	-0.754168	-0.235353
H51	H	0.998967	-0.461254	-0.904057
H52	H	1.152530	-1.129778	-0.265849
H53	H	1.182815	-0.754096	-0.890959
H54	H	0.667411	-0.754151	-0.235339
O55	O	0.663585	-0.440381	-0.432877
H56	H	0.621450	-0.384333	-0.468156
H57	H	0.998947	-0.461295	-0.764628
