data_functionalizedCrystal
_audit_creation_method	'MofGen! by Chris Wilmer'
_symmetry_space_group_name_H-M	'P1'
_symmetry_Int_Tables_number	1
_symmetry_cell_setting	triclinic
loop_
_symmetry_equiv_pos_as_xyz
  x,y,z
_cell_length_a	23.096457
_cell_length_b	23.096457
_cell_length_c	20.016444
_cell_angle_alpha	59.999472
_cell_angle_beta	89.999764
_cell_angle_gamma	60.002514
loop_
_atom_site_label
_atom_site_type_symbol
_atom_site_fract_x
_atom_site_fract_y
_atom_site_fract_z
Zr1	Zr	0.557836	0.633698	-0.087663
O2	O	0.465392	0.754486	-0.194333
O3	O	0.586166	0.512914	-0.054966
O4	O	0.586172	0.633702	-0.194341
O5	O	0.465392	0.633694	0.054987
O6	O	0.681454	0.633699	-0.194343
O7	O	0.465387	0.633699	-0.054958
O8	O	0.681444	0.417633	0.054973
O9	O	0.465402	0.849761	-0.194329
O10	O	0.669367	0.562591	-0.041019
O11	O	0.598262	0.562589	0.041034
O12	O	0.598269	0.704801	-0.123062
O13	O	0.527165	0.704799	-0.041010
Zr14	Zr	0.709808	0.633687	0.087683
Zr15	Zr	0.709800	0.633694	-0.087666
Zr16	Zr	0.557844	0.633691	0.087687
Zr17	Zr	0.557851	0.785650	-0.087656
Zr18	Zr	0.709793	0.481735	0.087677
O19	O	0.681478	0.754471	0.054987
O20	O	0.681466	0.754481	-0.194338
O21	O	0.465404	0.754476	0.054992
O22	O	0.802251	0.512899	0.194354
O23	O	0.802240	0.512909	-0.054971
O24	O	0.586177	0.512904	0.194359
O25	O	0.802252	0.633691	-0.054966
O26	O	0.681472	0.633683	0.194361
O27	O	0.586189	0.633686	0.194364
O28	O	0.802257	0.633686	0.054979
O29	O	0.586193	0.849758	-0.194332
O30	O	0.681450	0.417627	0.194353
O31	O	0.802241	0.417624	0.194350
O32	O	0.802235	0.417630	0.054970
O33	O	0.465408	0.849755	-0.054949
O34	O	0.586200	0.849752	-0.054952
O35	O	0.669374	0.562584	0.123083
O36	O	0.740479	0.562586	0.041030
O37	O	0.669381	0.704796	-0.041013
O38	O	0.598277	0.704794	0.041040
C39	C	0.633803	0.443623	0.000003
C40	C	0.633796	0.379116	-0.000000
C41	C	0.686291	0.296327	0.060563
C42	C	0.686296	0.235705	0.060571
C43	C	0.633811	0.257877	0.000003
C44	C	0.581307	0.340681	-0.060566
C45	C	0.581299	0.401300	-0.060567
N46	N	0.617929	0.201771	-0.071823
N47	N	0.617941	0.144182	-0.071818
C48	C	0.633830	0.075238	0.000004
N49	N	0.649721	0.066051	0.071826
N50	N	0.649713	0.123644	0.071822
C51	C	0.633813	0.192152	-0.000002
C52	C	0.686333	-0.073287	0.060580
C53	C	0.686334	-0.133908	0.060589
C54	C	0.581347	-0.028930	-0.060554
C55	C	0.581344	0.031689	-0.060556
C56	C	0.633841	0.009504	0.000011
C57	C	0.443738	0.633697	0.000015
C58	C	0.379225	0.633699	0.000017
C59	C	0.348919	0.633707	-0.060557
C60	C	0.288307	0.633700	-0.060557
C61	C	0.257994	0.633700	0.000011
C62	C	0.288310	0.633687	0.060595
C63	C	0.348925	0.633686	0.060598
N64	N	0.139648	0.680053	0.018349
N65	N	0.082065	0.680055	0.018341
C66	C	0.075365	0.633701	0.000007
N67	N	0.128418	0.587354	-0.018336
N68	N	0.186004	0.587355	-0.018332
C69	C	0.192268	0.633700	0.000015
C70	C	-0.020663	0.633700	-0.060570
C71	C	-0.081274	0.633687	-0.060565
C72	C	-0.081274	0.633683	0.060584
C73	C	-0.020660	0.633687	0.060581
C74	C	0.009640	0.633700	0.000000
C75	C	0.823906	0.633688	0.000006
C76	C	0.888419	0.633686	0.000004
C77	C	0.633812	0.633702	-0.219325
C78	C	0.633808	0.633705	-0.293766
C79	C	0.633841	0.823762	0.000018
C80	C	0.633847	0.888269	0.000021
C81	C	0.596708	0.707927	-0.507848
C82	C	0.596714	0.707924	-0.577789
C83	C	0.670940	0.559452	-0.492123
C84	C	0.670938	0.559456	-0.422184
C85	C	0.633818	0.633696	-0.430049
C86	C	0.633826	0.633689	-0.569930
C87	C	0.633832	0.633684	-0.645763
C88	C	0.633812	0.633701	-0.354212
C89	C	0.633832	0.633683	0.219346
C90	C	0.633835	0.633680	0.293787
C91	C	0.823887	0.443619	-0.000002
C92	C	0.888393	0.379110	-0.000006
C93	C	0.633813	0.443614	0.219338
C94	C	0.633810	0.379104	0.293776
C95	C	0.823897	0.443610	0.219334
C96	C	0.888407	0.379098	0.293770
C97	C	0.443747	0.823775	-0.219313
C98	C	0.379237	0.888287	-0.293749
C99	C	0.443757	0.823766	0.000023
C100	C	0.379250	0.888275	0.000027
C101	C	0.633831	0.823771	-0.219318
C102	C	0.633834	0.888281	-0.293756
C103	C	0.881566	0.348818	-0.042844
C104	C	0.942171	0.288213	-0.042865
C105	C	1.009602	0.257897	-0.000042
C106	C	1.016427	0.288195	0.042798
C107	C	0.955823	0.348802	0.042813
C108	C	0.670928	0.348806	0.371569
C109	C	0.670922	0.288200	0.441518
C110	C	0.633802	0.257888	0.433673
C111	C	0.596679	0.288192	0.355872
C112	C	0.596681	0.348801	0.285924
C113	C	0.955823	0.348803	0.285896
C114	C	1.016443	0.288195	0.355830
C115	C	1.009644	0.257879	0.433638
C116	C	0.942221	0.288180	0.441511
C117	C	0.881603	0.348791	0.371577
C118	C	0.311820	0.918590	-0.285875
C119	C	0.251201	0.979216	-0.355809
C120	C	0.257999	1.009535	-0.433617
C121	C	0.325423	0.979231	-0.441490
C122	C	0.386041	0.918609	-0.371557
C123	C	0.386077	0.918573	0.042858
C124	C	0.325472	0.979195	0.042859
C125	C	0.258041	1.009513	0.000033
C126	C	0.251216	0.979213	-0.042803
C127	C	0.311820	0.918596	-0.042808
C128	C	0.670961	0.918574	-0.285884
C129	C	0.670978	0.979181	-0.355819
C130	C	0.633863	1.009498	-0.433626
C131	C	0.596734	0.979199	-0.441497
C132	C	0.596722	0.918590	-0.371562
H133	H	0.729038	0.278257	0.109882
Cl134	Cl	0.964389	0.386907	0.188088
H135	H	0.440977	0.893892	0.077737
Cl136	Cl	1.101203	0.250070	0.096633
H137	H	0.701160	0.499008	-0.485729
Cl138	Cl	0.550019	0.250075	0.346022
H139	H	0.196306	1.003907	-0.077670
H140	H	0.331044	1.003855	0.077744
H141	H	0.538600	0.099101	-0.109877
H142	H	0.208699	1.058871	0.000044
H143	H	-0.105952	0.633679	0.109902
H144	H	0.208634	1.058897	-0.490555
Cl145	Cl	0.796852	0.386863	0.381491
H146	H	0.633806	0.208536	0.490635
H147	H	0.566486	0.893932	-0.377983
Cl148	Cl	0.752297	0.131614	0.136711
H149	H	0.306252	0.893930	-0.077684
Cl150	Cl	0.717627	0.880472	-0.188078
Cl151	Cl	0.717652	1.017262	-0.345906
Cl152	Cl	0.550061	0.801247	-0.675593
Cl153	Cl	0.964418	0.386870	0.096679
Cl154	Cl	0.933686	0.250058	0.539333
H155	H	0.373589	0.633714	-0.109884
Cl156	Cl	0.633882	1.085697	-0.521537
Cl157	Cl	0.550071	1.017329	-0.539317
H158	H	0.263628	0.633706	-0.109885
Cl159	Cl	0.717598	0.250114	0.539315
H160	H	0.306271	0.893907	-0.222526
Cl161	Cl	0.717592	0.466129	-0.324372
H162	H	0.936600	0.263552	-0.077749
H163	H	0.826666	0.373501	-0.077726
Cl164	Cl	0.166448	1.017298	-0.345893
Cl165	Cl	0.387025	0.633677	0.136753
Cl166	Cl	0.515323	0.368556	-0.136705
Cl167	Cl	0.333958	1.017352	-0.539312
Cl168	Cl	1.101195	0.250112	0.345914
Cl169	Cl	0.717601	0.386897	0.381454
Cl170	Cl	0.515300	0.505385	-0.136710
Cl171	Cl	0.752326	-0.101171	0.136722
H172	H	0.440933	0.893938	-0.377978
H173	H	0.566458	0.373461	0.222584
H174	H	1.059009	0.208526	0.490575
Cl175	Cl	-0.119371	0.633691	-0.136717
Cl176	Cl	0.752329	-0.237993	0.136738
H177	H	0.004010	0.633706	-0.109897
H178	H	0.263627	0.633685	0.109911
Cl179	Cl	0.515361	-0.001049	-0.136694
H180	H	0.004014	0.633685	0.109903
H181	H	0.566483	0.768379	-0.514257
H182	H	1.058944	0.208545	-0.000060
