data_functionalizedCrystal
_audit_creation_method	'MofGen! by Chris Wilmer'
_symmetry_space_group_name_H-M	'P1'
_symmetry_Int_Tables_number	1
_symmetry_cell_setting	triclinic
loop_
_symmetry_equiv_pos_as_xyz
  x,y,z
_cell_length_a	10.654549
_cell_length_b	10.489741
_cell_length_c	9.130313
_cell_angle_alpha	89.995761
_cell_angle_beta	89.997498
_cell_angle_gamma	84.511976
loop_
_atom_site_label
_atom_site_type_symbol
_atom_site_fract_x
_atom_site_fract_y
_atom_site_fract_z
O1	O	1.667924	0.179160	-0.121765
O2	O	1.302453	0.196230	-0.121775
O3	O	1.493504	0.002093	-0.121761
O4	O	1.476872	0.373297	-0.121779
O5	O	1.493491	0.002087	0.121838
O6	O	1.302440	0.196224	0.121824
O7	O	1.667910	0.179154	0.121834
Cu8	Cu	1.485174	0.187689	0.144071
Cu9	Cu	1.485190	0.187695	-0.144012
O10	O	1.476859	0.373291	0.121820
C11	C	1.255648	0.194974	0.000023
C12	C	1.116203	0.191224	0.000019
C13	C	0.905740	0.301996	0.000020
C14	C	1.036762	0.305529	0.000011
C15	C	1.064615	0.073379	0.000022
C16	C	0.933595	0.069847	0.000020
C17	C	1.492242	-0.045441	0.000038
C18	C	1.488483	-0.187069	0.000035
C19	C	1.366923	-0.255150	0.000021
C20	C	1.424340	-0.347303	0.120129
C21	C	1.424382	-0.347272	-0.120040
C22	C	1.545951	-0.277356	0.120242
C23	C	1.545976	-0.277316	-0.120035
C24	C	1.603482	-0.369442	0.000103
C25	C	1.714716	0.180410	0.000033
C26	C	1.854161	0.184160	0.000027
C27	C	1.478122	0.420825	0.000018
C28	C	1.481880	0.562452	0.000011
N29	N	1.485172	0.187683	0.346694
N30	N	1.485201	0.187691	-0.346635
C31	C	1.569799	0.101756	0.423352
C32	C	1.569811	0.101756	0.576689
C33	C	1.400566	0.273622	0.576696
C34	C	1.400549	0.273615	0.423362
H35	H	1.078751	0.401482	0.000004
H36	H	1.638702	0.031783	0.360933
H37	H	0.891600	-0.026115	0.000021
Cl38	Cl	1.164484	-0.070320	0.000029
Cl39	Cl	1.344924	-0.395150	0.276900
Cl40	Cl	1.212616	-0.178417	0.000193
H41	H	1.638719	0.031785	0.639100
H42	H	1.597336	-0.246552	0.221899
H43	H	1.703518	-0.418914	0.000173
Cl44	Cl	1.294191	0.381651	0.673085
H45	H	1.597373	-0.246294	-0.221580
Cl46	Cl	1.344947	-0.395069	-0.276805
H47	H	1.331630	0.343587	0.360943
H48	H	0.841067	0.395077	0.000024
