data_functionalizedCrystal
_audit_creation_method	'MofGen! by Chris Wilmer'
_symmetry_space_group_name_H-M	'P1'
_symmetry_Int_Tables_number	1
_symmetry_cell_setting	triclinic
loop_
_symmetry_equiv_pos_as_xyz
  x,y,z
_cell_length_a	12.645330
_cell_length_b	12.645331
_cell_length_c	10.686551
_cell_angle_alpha	85.609591
_cell_angle_beta	85.594718
_cell_angle_gamma	90.011620
loop_
_atom_site_label
_atom_site_type_symbol
_atom_site_fract_x
_atom_site_fract_y
_atom_site_fract_z
Zn1	Zn	-0.376010	1.666761	-0.713289
Zn2	Zn	-0.566918	1.653054	-0.502291
Zn3	Zn	-0.389664	1.475873	-0.502325
Zn4	Zn	-0.553231	1.489471	-0.713259
O5	O	-0.471456	1.571290	-0.607791
O6	O	-0.401348	1.813290	-0.685298
O7	O	-0.554847	1.618124	-0.325716
O8	O	-0.239504	1.501240	-0.530336
O9	O	-0.541607	1.803220	-0.530279
O10	O	-0.229472	1.641484	-0.685331
O11	O	-0.424620	1.487949	-0.325740
O12	O	-0.411348	1.329330	-0.530307
O13	O	-0.518280	1.524416	-0.889843
O14	O	-0.531521	1.339320	-0.685279
O15	O	-0.388077	1.654670	-0.889865
O16	O	-0.713451	1.631310	-0.530250
O17	O	-0.703396	1.511126	-0.685247
C18	C	-0.471432	1.295860	-0.607794
C19	C	-0.471445	1.178032	-0.607825
C20	C	-0.547527	1.016756	-0.704810
C21	C	-0.547235	1.139342	-0.705216
C22	C	-0.357445	1.135886	-0.644157
C23	C	-0.357903	1.013332	-0.644840
C24	C	-0.508484	1.002174	-0.474201
C25	C	-0.510879	1.124826	-0.474922
C26	C	-0.746887	1.571237	-0.607769
C27	C	-0.864715	1.571313	-0.607801
C28	C	-0.915873	1.647020	-0.510377
C29	C	-1.038455	1.646809	-0.510029
C30	C	-1.035026	1.457294	-0.572084
C31	C	-0.912476	1.457667	-0.571341
C32	C	-0.901181	1.608782	-0.741262
C33	C	-1.023829	1.611256	-0.740585
C34	C	-0.194947	1.571374	-0.607841
C35	C	-0.077116	1.571410	-0.607862
C36	C	-0.450129	1.592589	-0.936919
C37	C	-0.441040	1.601665	-1.077174
C38	C	-0.471481	1.847795	-0.607788
C39	C	-0.471492	1.965625	-0.607787
C40	C	-0.492624	1.550135	-0.279943
C41	C	-0.501413	1.541264	-0.139689
H42	H	-0.594809	1.152150	-0.447520
H43	H	-1.072037	1.426257	-0.475626
H44	H	-0.560057	1.482610	-1.085911
H45	H	-0.382400	1.660330	-1.130958
O46	O	-0.883031	1.417009	-0.442129
H47	H	-0.956283	1.397270	-0.380759
H48	H	-1.067029	1.731149	-0.532375
O49	O	-0.857097	1.717601	-0.784429
H50	H	-0.806637	1.713207	-0.873547
H51	H	-0.298879	1.160599	-0.575698
H52	H	-0.631503	1.167954	-0.682445
H53	H	-0.522643	0.992308	-0.803217
O54	O	-0.659495	0.975775	-0.675006
H55	H	-0.662153	0.918520	-0.590728
H56	H	-0.522071	1.175071	-0.804198
H57	H	-0.891482	1.621789	-0.412053
O58	O	-0.316701	1.184856	-0.772091
H59	H	-0.377448	1.239205	-0.810007
H60	H	-0.298740	0.979298	-0.577414
O61	O	-0.617306	0.958388	-0.430438
H62	H	-0.672699	1.024953	-0.414513
O63	O	-0.317681	0.983806	-0.774194
H64	H	-0.370168	1.018725	-0.844867
O65	O	-0.443754	1.158855	-0.374017
H66	H	-0.380952	1.214462	-0.417212
H67	H	-1.049503	1.560877	-0.817052
O68	O	-0.435272	0.957555	-0.378432
H69	H	-0.372843	0.909575	-0.425665
O70	O	-0.874826	1.759022	-0.539581
H71	H	-0.817521	1.761931	-0.623843
H72	H	-1.074244	1.621333	-0.411158
H73	H	-0.878415	1.398862	-0.639235
H74	H	-1.059719	1.399003	-0.640880
O75	O	-1.060730	1.722168	-0.776873
H76	H	-1.116692	1.748860	-0.700643
O77	O	-0.856529	1.535903	-0.837423
H78	H	-0.808592	1.473300	-0.790472
