data_functionalizedCrystal
_audit_creation_method	'MofGen! by Chris Wilmer'
_symmetry_space_group_name_H-M	'P1'
_symmetry_Int_Tables_number	1
_symmetry_cell_setting	triclinic
loop_
_symmetry_equiv_pos_as_xyz
  x,y,z
_cell_length_a	19.805407
_cell_length_b	12.594516
_cell_length_c	19.805399
_cell_angle_alpha	89.978854
_cell_angle_beta	90.019573
_cell_angle_gamma	89.973268
loop_
_atom_site_label
_atom_site_type_symbol
_atom_site_fract_x
_atom_site_fract_y
_atom_site_fract_z
Zn1	Zn	1.034734	0.423767	0.382750
Zn2	Zn	1.534734	0.923767	0.882750
Zn3	Zn	1.034648	0.601760	0.269574
Zn4	Zn	1.534648	1.101760	0.769574
Zn5	Zn	0.921549	0.423796	0.269575
Zn6	Zn	1.421549	0.923796	0.769575
Zn7	Zn	0.921512	0.601704	0.382721
Zn8	Zn	1.421512	1.101704	0.882721
O9	O	0.978111	0.512757	0.326155
O10	O	1.478111	1.012757	0.826155
O11	O	1.129439	0.447389	0.367749
O12	O	1.629439	0.947389	0.867749
O13	O	1.019625	0.578189	0.174858
O14	O	1.519625	1.078189	0.674858
O15	O	0.936615	0.274846	0.284600
O16	O	1.436615	0.774846	0.784600
O17	O	1.129376	0.578160	0.284599
O18	O	1.629376	1.078160	0.784599
O19	O	1.019771	0.274825	0.367749
O20	O	1.519771	0.774825	0.867749
O21	O	0.936531	0.447439	0.174858
O22	O	1.436531	0.947439	0.674858
O23	O	0.826827	0.447385	0.284572
O24	O	1.326827	0.947385	0.784572
O25	O	0.936551	0.578064	0.477442
O26	O	1.436551	1.078064	0.977442
O27	O	0.826800	0.578092	0.367700
O28	O	1.326800	1.078092	0.867700
O29	O	1.019735	0.447335	0.477463
O30	O	1.519735	0.947335	0.977463
O31	O	1.019589	0.750699	0.284571
O32	O	1.519589	1.250699	0.784571
O33	O	0.936468	0.750657	0.367700
O34	O	1.436468	1.250657	0.867700
C35	C	0.802255	0.512736	0.326133
C36	C	1.302255	1.012736	0.826133
C37	C	0.727023	0.512753	0.326140
C38	C	1.227023	1.012753	0.826140
C39	C	0.691682	0.580915	0.369355
C40	C	1.191682	1.080915	0.869355
C41	C	0.620994	0.580917	0.369364
C42	C	1.120994	1.080917	0.869364
C43	C	0.585647	0.512762	0.326155
C44	C	1.085647	1.012762	0.826155
C45	C	0.620993	0.444592	0.282938
C46	C	1.120993	0.944592	0.782938
C47	C	0.691680	0.444586	0.282933
C48	C	1.191680	0.944586	0.782933
C49	C	0.335919	0.444616	0.282961
C50	C	0.835919	0.944616	0.782961
C51	C	0.265227	0.444629	0.282968
C52	C	0.765227	0.944629	0.782968
C53	C	0.265233	0.580947	0.369392
C54	C	0.765233	1.080947	0.869392
C55	C	0.335920	0.580941	0.369387
C56	C	0.835920	1.080941	0.869387
C57	C	0.371260	0.512768	0.326173
C58	C	0.871260	1.012768	0.826173
C59	C	0.447908	0.512765	0.326164
C60	C	0.947908	1.012765	0.826164
C61	C	0.509000	0.512769	0.326160
C62	C	1.009000	1.012769	0.826160
C63	C	0.978034	0.789298	0.326147
C64	C	1.478034	1.289298	0.826147
C65	C	0.978063	0.907603	0.326167
C66	C	1.478063	1.407603	0.826167
C67	C	0.932840	0.976872	0.371348
C68	C	1.432840	1.476872	0.871348
C69	C	0.916343	1.047729	0.309586
C70	C	1.416343	1.547729	0.809586
C71	C	0.994596	1.047546	0.387939
C72	C	1.494596	1.547546	0.887939
C73	C	0.961533	0.976901	0.264372
C74	C	1.461533	1.476901	0.764372
C75	C	1.039815	0.976712	0.342766
C76	C	1.539815	1.476712	0.842766
C77	C	1.023341	1.047537	0.280961
C78	C	1.523341	1.547537	0.780961
C79	C	1.154653	0.512778	0.326177
C80	C	1.654653	1.012778	0.826177
C81	C	1.229885	0.512787	0.326187
C82	C	1.729885	1.012787	0.826187
C83	C	0.978177	1.235136	0.326177
C84	C	1.478177	1.735136	0.826177
C85	C	0.978129	1.116830	0.326183
C86	C	1.478129	1.616830	0.826183
C87	C	0.978149	0.512690	0.502698
C88	C	1.478149	1.012690	1.002698
C89	C	0.978165	0.512661	0.577930
C90	C	1.478165	1.012661	1.077930
C91	C	0.978112	0.512747	0.150299
C92	C	1.478112	1.012747	0.650299
C93	C	0.978227	0.512475	0.075067
C94	C	1.478227	1.012475	0.575067
C95	C	1.021480	0.444587	0.613286
C96	C	1.521480	0.944587	1.113286
C97	C	1.021487	0.444556	0.683975
C98	C	1.521487	0.944556	1.183975
C99	C	0.978182	0.512606	0.719305
C100	C	1.478182	1.012606	1.219305
C101	C	0.934862	0.580683	0.683944
C102	C	1.434862	1.080683	1.183944
C103	C	0.934852	0.580707	0.613257
C104	C	1.434852	1.080707	1.113257
C105	C	0.934900	0.580584	0.969018
C106	C	1.434900	1.080584	1.469018
C107	C	0.934915	0.580556	1.039710
C108	C	1.434915	1.080556	1.539710
C109	C	1.021535	0.444432	1.039735
C110	C	1.521535	0.944432	1.539735
C111	C	1.021525	0.444457	0.969048
C112	C	1.521525	0.944457	1.469048
C113	C	0.978203	0.512530	0.933693
C114	C	1.478203	1.012530	1.433693
C115	C	0.978195	0.512561	0.857044
C116	C	1.478195	1.012561	1.357044
C117	C	0.978193	0.512580	0.795953
C118	C	1.478193	1.012580	1.295953
H119	H	0.592222	0.636423	0.404553
H120	H	1.092222	1.136423	0.904553
O121	O	0.374018	0.371096	0.236339
O122	O	0.874018	0.871096	0.736339
H123	H	0.406246	0.316982	0.266678
H124	H	0.906246	0.816982	0.766678
H125	H	0.947515	0.945998	0.212124
H126	H	1.447515	1.445998	0.712124
O127	O	0.888123	0.654119	0.575123
O128	O	1.388123	1.154119	1.075123
H129	H	0.899698	0.737658	0.588676
H130	H	1.399698	1.237658	1.088676
H131	H	0.899648	0.635972	1.068474
H132	H	1.399648	1.135972	1.568474
O133	O	0.888143	0.653947	0.930888
O134	O	1.388143	1.153947	1.430888
H135	H	0.858025	0.701245	0.967334
H136	H	1.358025	1.201245	1.467334
O137	O	0.729796	0.654420	0.415970
O138	O	1.229796	1.154420	0.915970
H139	H	0.762026	0.606837	0.450450
H140	H	1.262026	1.106837	0.950450
O141	O	0.227096	0.371127	0.236357
O142	O	0.727096	0.871127	0.736357
H143	H	0.194907	0.317055	0.266711
H144	H	0.694907	0.817055	0.766711
H145	H	1.008554	1.078578	0.440172
H146	H	1.508554	1.578578	0.940172
O147	O	1.074039	1.088388	0.230308
O148	O	1.574039	1.588388	0.730308
H149	H	1.060184	1.059941	0.179111
H150	H	1.560184	1.559941	0.679111
O151	O	1.068209	0.371140	0.722112
O152	O	1.568209	0.871140	1.222112
H153	H	1.098327	0.323837	0.685668
H154	H	1.598327	0.823837	1.185668
H155	H	0.592208	0.389094	0.247759
H156	H	1.092208	0.889094	0.747759
O157	O	1.109010	0.935595	0.361304
O158	O	1.609010	1.435595	0.861304
H159	H	1.122623	0.963924	0.412592
H160	H	1.622623	1.463924	0.912592
O161	O	0.888148	0.654076	0.722046
O162	O	1.388148	1.154076	1.222046
H163	H	0.895435	0.642629	0.777140
H164	H	1.395435	1.142629	1.277140
H165	H	1.056746	0.389176	0.584525
H166	H	1.556746	0.889176	1.084525
H167	H	0.364696	0.636444	0.404570
H168	H	0.864696	1.136444	0.904570
O169	O	0.882112	0.935760	0.421887
O170	O	1.382112	1.435760	0.921887
H171	H	0.882873	0.847639	0.421770
H172	H	1.382873	1.347639	0.921770
H173	H	1.056807	0.389000	1.068530
H174	H	1.556807	0.889000	1.568530
O175	O	0.227119	0.654469	0.416013
O176	O	0.727119	1.154469	0.916013
H177	H	0.172027	0.643018	0.408767
H178	H	0.672027	1.143018	0.908767
H179	H	0.864152	1.078946	0.295560
H180	H	1.364152	1.578946	0.795560
O181	O	0.729803	0.371081	0.236315
O182	O	1.229803	0.871081	0.736315
H183	H	0.693350	0.323699	0.206263
H184	H	1.193350	0.823699	0.706263
O185	O	1.068233	0.371063	0.930939
O186	O	1.568233	0.871063	1.430939
H187	H	1.098350	0.323714	0.967401
H188	H	1.598350	0.823714	1.467401
