data_functionalizedCrystal
_audit_creation_method	'MofGen! by Chris Wilmer'
_symmetry_space_group_name_H-M	'P1'
_symmetry_Int_Tables_number	1
_symmetry_cell_setting	triclinic
loop_
_symmetry_equiv_pos_as_xyz
  x,y,z
_cell_length_a	27.732048
_cell_length_b	27.732048
_cell_length_c	26.809956
_cell_angle_alpha	89.999364
_cell_angle_beta	89.996742
_cell_angle_gamma	82.642655
loop_
_atom_site_label
_atom_site_type_symbol
_atom_site_fract_x
_atom_site_fract_y
_atom_site_fract_z
O1	O	0.640931	0.057510	-0.041421
O2	O	0.890931	0.307510	0.208579
O3	O	1.140931	0.557510	0.458579
O4	O	1.390931	0.807510	0.708579
O5	O	0.500138	0.066256	-0.041436
O6	O	0.750138	0.316256	0.208564
O7	O	1.000138	0.566256	0.458564
O8	O	1.250138	0.816256	0.708564
O9	O	0.574907	-0.008514	-0.041419
O10	O	0.824907	0.241486	0.208581
O11	O	1.074907	0.491486	0.458581
O12	O	1.324907	0.741486	0.708581
O13	O	0.566162	0.132280	-0.041439
O14	O	0.816162	0.382280	0.208561
O15	O	1.066162	0.632280	0.458561
O16	O	1.316162	0.882280	0.708561
O17	O	0.574893	-0.008502	0.041541
O18	O	0.824893	0.241498	0.291541
O19	O	1.074893	0.491498	0.541541
O20	O	1.324893	0.741498	0.791541
O21	O	0.500123	0.066267	0.041523
O22	O	0.750123	0.316267	0.291523
O23	O	1.000123	0.566267	0.541523
O24	O	1.250123	0.816267	0.791523
O25	O	0.640917	0.057522	0.041539
O26	O	0.890917	0.307522	0.291539
O27	O	1.140917	0.557522	0.541539
O28	O	1.390917	0.807522	0.791539
Zn29	Zn	0.570518	0.061896	0.054702
Zn30	Zn	0.820518	0.311896	0.304702
Zn31	Zn	1.070518	0.561896	0.554702
Zn32	Zn	1.320518	0.811896	0.804702
Zn33	Zn	0.570536	0.061881	-0.054600
Zn34	Zn	0.820536	0.311881	0.195400
Zn35	Zn	1.070536	0.561881	0.445400
Zn36	Zn	1.320536	0.811881	0.695400
O37	O	0.566147	0.132291	0.041521
O38	O	0.816147	0.382291	0.291521
O39	O	1.066147	0.632291	0.541521
O40	O	1.316147	0.882291	0.791521
C41	C	0.482124	0.066078	0.000041
C42	C	0.732124	0.316078	0.250041
C43	C	0.982124	0.566078	0.500041
C44	C	1.232124	0.816078	0.750041
C45	C	0.428469	0.065525	0.000036
C46	C	0.678469	0.315525	0.250036
C47	C	0.928469	0.565525	0.500036
C48	C	1.178469	0.815525	0.750036
C49	C	0.089654	0.106229	0.000051
C50	C	0.339654	0.356229	0.250051
C51	C	0.589654	0.606229	0.500051
C52	C	0.839654	0.856229	0.750051
C53	C	-0.112006	0.104178	0.000056
C54	C	0.137994	0.354178	0.250056
C55	C	0.387994	0.604178	0.500056
C56	C	0.637994	0.854178	0.750056
O57	O	-0.143262	0.141398	0.000073
O58	O	0.106738	0.391398	0.250073
O59	O	0.356738	0.641398	0.500073
O60	O	0.606738	0.891398	0.750073
N61	N	-0.131130	0.059843	0.000062
N62	N	0.118870	0.309843	0.250062
N63	N	0.368870	0.559843	0.500062
N64	N	0.618870	0.809843	0.750062
C65	C	-0.099835	0.016017	0.000069
C66	C	0.150165	0.266017	0.250069
C67	C	0.400165	0.516017	0.500069
C68	C	0.650165	0.766017	0.750069
O69	O	-0.120728	-0.021740	0.000079
O70	O	0.129272	0.228260	0.250079
O71	O	0.379272	0.478260	0.500079
O72	O	0.629272	0.728260	0.750079
C73	C	0.101824	0.018068	0.000068
C74	C	0.351824	0.268068	0.250068
C75	C	0.601824	0.518068	0.500068
C76	C	0.851824	0.768068	0.750068
C77	C	0.120944	0.062407	0.000057
C78	C	0.370944	0.312407	0.250057
C79	C	0.620944	0.562407	0.500057
C80	C	0.870944	0.812407	0.750057
C81	C	0.108775	0.150563	0.000042
C82	C	0.358775	0.400563	0.250042
C83	C	0.608775	0.650563	0.500042
C84	C	0.858775	0.900563	0.750042
C85	C	0.159187	0.151076	0.000038
C86	C	0.409187	0.401076	0.250038
C87	C	0.659187	0.651076	0.500038
C88	C	0.909187	0.901076	0.750038
C89	C	0.190477	0.107253	0.000044
C90	C	0.440477	0.357253	0.250044
C91	C	0.690477	0.607253	0.500044
C92	C	0.940477	0.857253	0.750044
C93	C	0.171356	0.062919	0.000054
C94	C	0.421356	0.312919	0.250054
C95	C	0.671356	0.562919	0.500054
C96	C	0.921356	0.812919	0.750054
C97	C	0.133117	-0.025757	0.000079
C98	C	0.383117	0.224243	0.250079
C99	C	0.633117	0.474243	0.500079
C100	C	0.883117	0.724243	0.750079
C101	C	0.183535	-0.025240	0.000080
C102	C	0.433535	0.224760	0.250080
C103	C	0.683535	0.474760	0.500080
C104	C	0.933535	0.724760	0.750080
C105	C	0.202655	0.019098	0.000069
C106	C	0.452655	0.269098	0.250069
C107	C	0.702655	0.519098	0.500069
C108	C	0.952655	0.769098	0.750069
C109	C	0.253059	0.019609	0.000056
C110	C	0.503059	0.269609	0.250056
C111	C	0.753059	0.519609	0.500056
C112	C	1.003059	0.769609	0.750056
N113	N	0.272183	0.063944	0.000050
N114	N	0.522183	0.313944	0.250050
N115	N	0.772183	0.563944	0.500050
N116	N	1.022183	0.813944	0.750050
C117	C	0.240892	0.107766	0.000044
C118	C	0.490892	0.357766	0.250044
C119	C	0.740892	0.607766	0.500044
C120	C	0.990892	0.857766	0.750044
C121	C	-0.205709	0.014943	0.000069
C122	C	0.044291	0.264943	0.250069
C123	C	0.294291	0.514943	0.500069
C124	C	0.544291	0.764943	0.750069
C125	C	-0.256124	0.014430	0.000068
C126	C	-0.006124	0.264430	0.250068
C127	C	0.243876	0.514430	0.500068
C128	C	0.493876	0.764430	0.750068
C129	C	-0.268291	0.102591	0.000056
C130	C	-0.018291	0.352591	0.250056
C131	C	0.231709	0.602591	0.500056
C132	C	0.481709	0.852591	0.750056
C133	C	-0.217876	0.103104	0.000053
C134	C	0.032124	0.353104	0.250053
C135	C	0.282124	0.603104	0.500053
C136	C	0.532124	0.853104	0.750053
C137	C	-0.186585	0.059278	0.000063
C138	C	0.063415	0.309278	0.250063
C139	C	0.313415	0.559278	0.500063
C140	C	0.563415	0.809278	0.750063
C141	C	0.346761	0.108839	0.000036
C142	C	0.596761	0.358839	0.250036
C143	C	0.846761	0.608839	0.500036
C144	C	1.096761	0.858839	0.750036
C145	C	0.397178	0.109347	0.000030
C146	C	0.647178	0.359347	0.250030
C147	C	0.897178	0.609347	0.500030
C148	C	1.147178	0.859347	0.750030
C149	C	0.409341	0.021186	0.000044
C150	C	0.659341	0.271186	0.250044
C151	C	0.909341	0.521186	0.500044
C152	C	1.159341	0.771186	0.750044
C153	C	0.358929	0.020678	0.000048
C154	C	0.608929	0.270678	0.250048
C155	C	0.858929	0.520678	0.500048
C156	C	1.108929	0.770678	0.750048
C157	C	0.327639	0.064508	0.000045
C158	C	0.577639	0.314508	0.250045
C159	C	0.827639	0.564508	0.500045
C160	C	1.077639	0.814508	0.750045
O161	O	0.284343	-0.017592	0.000045
O162	O	0.534343	0.232408	0.250045
O163	O	0.784343	0.482408	0.500045
O164	O	1.034343	0.732408	0.750045
O165	O	0.261794	0.145518	0.000045
O166	O	0.511794	0.395518	0.250045
O167	O	0.761794	0.645518	0.500045
O168	O	1.011794	0.895518	0.750045
C169	C	0.039242	0.105716	0.000055
C170	C	0.289242	0.355716	0.250055
C171	C	0.539242	0.605716	0.500055
C172	C	0.789242	0.855716	0.750055
C173	C	0.020120	0.061382	0.000065
C174	C	0.270120	0.311382	0.250065
C175	C	0.520120	0.561382	0.500065
C176	C	0.770120	0.811382	0.750065
C177	C	0.051411	0.017560	0.000071
C178	C	0.301411	0.267560	0.250071
C179	C	0.551411	0.517560	0.500071
C180	C	0.801411	0.767560	0.750071
C181	C	-0.030294	0.060869	0.000065
C182	C	0.219706	0.310869	0.250065
C183	C	0.469706	0.560869	0.500065
C184	C	0.719706	0.810869	0.750065
C185	C	-0.061585	0.104691	0.000059
C186	C	0.188415	0.354691	0.250059
C187	C	0.438415	0.604691	0.500059
C188	C	0.688415	0.854691	0.750059
C189	C	-0.042461	0.149026	0.000053
C190	C	0.207539	0.399026	0.250053
C191	C	0.457539	0.649026	0.500053
C192	C	0.707539	0.899026	0.750053
C193	C	0.007951	0.149539	0.000049
C194	C	0.257951	0.399539	0.250049
C195	C	0.507951	0.649539	0.500049
C196	C	0.757951	0.899539	0.750049
C197	C	0.032287	-0.026775	0.000077
C198	C	0.282287	0.223225	0.250077
C199	C	0.532287	0.473225	0.500077
C200	C	0.782287	0.723225	0.750077
C201	C	-0.018125	-0.027284	0.000080
C202	C	0.231875	0.222716	0.250080
C203	C	0.481875	0.472716	0.500080
C204	C	0.731875	0.722716	0.750080
C205	C	-0.049416	0.016538	0.000074
C206	C	0.200584	0.266538	0.250074
C207	C	0.450584	0.516538	0.500074
C208	C	0.700584	0.766538	0.750074
C209	C	0.574716	-0.026515	0.000062
C210	C	0.824716	0.223485	0.250062
C211	C	1.074716	0.473485	0.500062
C212	C	1.324716	0.723485	0.750062
C213	C	0.574164	-0.080170	0.000066
C214	C	0.824164	0.169830	0.250066
C215	C	1.074164	0.419830	0.500066
C216	C	1.324164	0.669830	0.750066
C217	C	0.614867	-0.418985	0.000045
C218	C	0.864867	-0.168985	0.250045
C219	C	1.114867	0.081015	0.500045
C220	C	1.364867	0.331015	0.750045
C221	C	0.612816	-0.620645	0.000038
C222	C	0.862816	-0.370645	0.250038
C223	C	1.112816	-0.120645	0.500038
C224	C	1.362816	0.129355	0.750038
O225	O	0.650037	-0.651900	0.000021
O226	O	0.900037	-0.401900	0.250021
O227	O	1.150037	-0.151900	0.500021
O228	O	1.400037	0.098100	0.750021
N229	N	0.568481	-0.639768	0.000034
N230	N	0.818481	-0.389768	0.250034
N231	N	1.068481	-0.139768	0.500034
N232	N	1.318481	0.110232	0.750034
C233	C	0.524656	-0.608474	0.000028
C234	C	0.774656	-0.358474	0.250028
C235	C	1.024656	-0.108474	0.500028
C236	C	1.274656	0.141526	0.750028
O237	O	0.486899	-0.629367	0.000019
O238	O	0.736899	-0.379367	0.250019
O239	O	0.986899	-0.129367	0.500019
O240	O	1.236899	0.120633	0.750019
C241	C	0.526707	-0.406815	0.000031
C242	C	0.776707	-0.156815	0.250031
C243	C	1.026707	0.093185	0.500031
C244	C	1.276707	0.343185	0.750031
C245	C	0.571045	-0.387694	0.000041
C246	C	0.821045	-0.137694	0.250041
C247	C	1.071045	0.112306	0.500041
C248	C	1.321045	0.362306	0.750041
C249	C	0.659202	-0.399864	0.000054
C250	C	0.909202	-0.149864	0.250054
C251	C	1.159202	0.100136	0.500054
C252	C	1.409202	0.350136	0.750054
C253	C	0.659714	-0.349452	0.000059
C254	C	0.909714	-0.099452	0.250059
C255	C	1.159714	0.150548	0.500059
C256	C	1.409714	0.400548	0.750059
C257	C	0.615892	-0.318161	0.000054
C258	C	0.865892	-0.068161	0.250054
C259	C	1.115892	0.181839	0.500054
C260	C	1.365892	0.431839	0.750054
C261	C	0.571557	-0.337282	0.000045
C262	C	0.821557	-0.087282	0.250045
C263	C	1.071557	0.162718	0.500045
C264	C	1.321557	0.412718	0.750045
C265	C	0.482882	-0.375521	0.000022
C266	C	0.732882	-0.125521	0.250022
C267	C	0.982882	0.124479	0.500022
C268	C	1.232882	0.374479	0.750022
C269	C	0.483399	-0.325104	0.000021
C270	C	0.733399	-0.075104	0.250021
C271	C	0.983399	0.174896	0.500021
C272	C	1.233399	0.424896	0.750021
C273	C	0.527737	-0.305983	0.000031
C274	C	0.777737	-0.055983	0.250031
C275	C	1.027737	0.194017	0.500031
C276	C	1.277737	0.444017	0.750031
C277	C	0.528247	-0.255580	0.000045
C278	C	0.778247	-0.005580	0.250045
C279	C	1.028247	0.244420	0.500045
C280	C	1.278247	0.494420	0.750045
N281	N	0.572583	-0.236456	0.000050
N282	N	0.822583	0.013544	0.250050
N283	N	1.072583	0.263544	0.500050
N284	N	1.322583	0.513544	0.750050
C285	C	0.616405	-0.267747	0.000054
C286	C	0.866405	-0.017747	0.250054
C287	C	1.116405	0.232253	0.500054
C288	C	1.366405	0.482253	0.750054
C289	C	0.523582	-0.714348	0.000027
C290	C	0.773582	-0.464348	0.250027
C291	C	1.023582	-0.214348	0.500027
C292	C	1.273582	0.035652	0.750027
C293	C	0.523069	-0.764762	0.000027
C294	C	0.773069	-0.514762	0.250027
C295	C	1.023069	-0.264762	0.500027
C296	C	1.273069	-0.014762	0.750027
C297	C	0.611230	-0.776930	0.000036
C298	C	0.861230	-0.526930	0.250036
C299	C	1.111230	-0.276930	0.500036
C300	C	1.361230	-0.026930	0.750036
C301	C	0.611742	-0.726514	0.000040
C302	C	0.861742	-0.476514	0.250040
C303	C	1.111742	-0.226514	0.500040
C304	C	1.361742	0.023486	0.750040
C305	C	0.567917	-0.695224	0.000031
C306	C	0.817917	-0.445224	0.250031
C307	C	1.067917	-0.195224	0.500031
C308	C	1.317917	0.054776	0.750031
C309	C	0.617477	-0.161878	0.000064
C310	C	0.867477	0.088122	0.250064
C311	C	1.117477	0.338122	0.500064
C312	C	1.367477	0.588122	0.750064
C313	C	0.617986	-0.111461	0.000071
C314	C	0.867986	0.138539	0.250071
C315	C	1.117986	0.388539	0.500071
C316	C	1.367986	0.638539	0.750071
C317	C	0.529825	-0.099298	0.000059
C318	C	0.779825	0.150702	0.250059
C319	C	1.029825	0.400702	0.500059
C320	C	1.279825	0.650702	0.750059
C321	C	0.529316	-0.149710	0.000055
C322	C	0.779316	0.100290	0.250055
C323	C	1.029316	0.350290	0.500055
C324	C	1.279316	0.600290	0.750055
C325	C	0.573147	-0.180999	0.000056
C326	C	0.823147	0.069001	0.250056
C327	C	1.073147	0.319001	0.500056
C328	C	1.323147	0.569001	0.750056
O329	O	0.491047	-0.224296	0.000057
O330	O	0.741047	0.025704	0.250057
O331	O	0.991047	0.275704	0.500057
O332	O	1.241047	0.525704	0.750057
O333	O	0.654156	-0.246844	0.000053
O334	O	0.904156	0.003156	0.250053
O335	O	1.154156	0.253156	0.500053
O336	O	1.404156	0.503156	0.750053
C337	C	0.614355	-0.469397	0.000041
C338	C	0.864355	-0.219397	0.250041
C339	C	1.114355	0.030603	0.500041
C340	C	1.364355	0.280603	0.750041
C341	C	0.570021	-0.488518	0.000032
C342	C	0.820021	-0.238518	0.250032
C343	C	1.070021	0.011482	0.500032
C344	C	1.320021	0.261482	0.750032
C345	C	0.526198	-0.457228	0.000027
C346	C	0.776198	-0.207228	0.250027
C347	C	1.026198	0.042772	0.500027
C348	C	1.276198	0.292772	0.750027
C349	C	0.569508	-0.538933	0.000032
C350	C	0.819508	-0.288933	0.250032
C351	C	1.069508	-0.038933	0.500032
C352	C	1.319508	0.211067	0.750032
C353	C	0.613330	-0.570223	0.000036
C354	C	0.863330	-0.320223	0.250036
C355	C	1.113330	-0.070223	0.500036
C356	C	1.363330	0.179777	0.750036
C357	C	0.657665	-0.551100	0.000041
C358	C	0.907665	-0.301100	0.250041
C359	C	1.157665	-0.051100	0.500041
C360	C	1.407665	0.198900	0.750041
C361	C	0.658177	-0.500688	0.000045
C362	C	0.908177	-0.250688	0.250045
C363	C	1.158177	-0.000688	0.500045
C364	C	1.408177	0.249312	0.750045
C365	C	0.481863	-0.476351	0.000023
C366	C	0.731863	-0.226351	0.250023
C367	C	0.981863	0.023649	0.500023
C368	C	1.231863	0.273649	0.750023
C369	C	0.481355	-0.526764	0.000019
C370	C	0.731355	-0.276764	0.250019
C371	C	0.981355	-0.026764	0.500019
C372	C	1.231355	0.223236	0.750019
C373	C	0.525177	-0.558054	0.000023
C374	C	0.775177	-0.308054	0.250023
C375	C	1.025177	-0.058054	0.500023
C376	C	1.275177	0.191946	0.750023
C377	C	0.658931	0.057699	0.000060
C378	C	0.908931	0.307699	0.250060
C379	C	1.158931	0.557699	0.500060
C380	C	1.408931	0.807699	0.750060
C381	C	0.712586	0.058252	0.000062
C382	C	0.962586	0.308252	0.250062
C383	C	1.212586	0.558252	0.500062
C384	C	1.462586	0.808252	0.750062
C385	C	0.566338	0.150292	0.000039
C386	C	0.816338	0.400292	0.250039
C387	C	1.066338	0.650292	0.500039
C388	C	1.316338	0.900292	0.750039
C389	C	0.566891	0.203947	0.000031
C390	C	0.816891	0.453947	0.250031
C391	C	1.066891	0.703947	0.500031
C392	C	1.316891	0.953947	0.750031
N393	N	0.570509	0.061906	0.129298
N394	N	0.820509	0.311906	0.379298
N395	N	1.070509	0.561906	0.629298
N396	N	1.320509	0.811906	0.879298
N397	N	0.570549	0.061867	-0.129196
N398	N	0.820549	0.311867	0.120804
N399	N	1.070549	0.561867	0.370804
N400	N	1.320549	0.811867	0.620804
C401	C	0.603640	0.028781	0.473932
C402	C	0.853640	0.278781	0.723932
C403	C	1.103640	0.528781	0.973932
C404	C	1.353640	0.778781	1.223932
C405	C	0.603652	0.028774	0.682810
C406	C	0.853652	0.278774	0.932810
C407	C	1.103652	0.528774	1.182810
C408	C	1.353652	0.778774	1.432810
O409	O	0.631801	0.000613	0.709820
O410	O	0.881801	0.250613	0.959820
O411	O	1.131801	0.500613	1.209820
O412	O	1.381801	0.750613	1.459820
N413	N	0.570539	0.061870	0.708925
N414	N	0.820539	0.311870	0.958925
N415	N	1.070539	0.561870	1.208925
N416	N	1.320539	0.811870	1.458925
C417	C	0.537419	0.094969	0.682818
C418	C	0.787419	0.344969	0.932818
C419	C	1.037419	0.594969	1.182818
C420	C	1.287419	0.844969	1.432818
O421	O	0.509252	0.123116	0.709824
O422	O	0.759252	0.373116	0.959824
O423	O	1.009252	0.623116	1.209824
O424	O	1.259252	0.873116	1.459824
C425	C	0.537406	0.094974	0.473941
C426	C	0.787406	0.344974	0.723941
C427	C	1.037406	0.594974	0.973941
C428	C	1.287406	0.844974	1.223941
C429	C	0.570524	0.061878	0.447829
C430	C	0.820524	0.311878	0.697829
C431	C	1.070524	0.561878	0.947829
C432	C	1.320524	0.811878	1.197829
C433	C	0.636755	-0.004312	0.447819
C434	C	0.886755	0.245688	0.697819
C435	C	1.136755	0.495688	0.947819
C436	C	1.386755	0.745688	1.197819
C437	C	0.636754	-0.004308	0.395603
C438	C	0.886754	0.245692	0.645603
C439	C	1.136754	0.495692	0.895603
C440	C	1.386754	0.745692	1.145603
C441	C	0.603637	0.028789	0.369500
C442	C	0.853637	0.278789	0.619500
C443	C	1.103637	0.528789	0.869500
C444	C	1.353637	0.778789	1.119500
C445	C	0.570522	0.061882	0.395612
C446	C	0.820522	0.311882	0.645612
C447	C	1.070522	0.561882	0.895612
C448	C	1.320522	0.811882	1.145612
C449	C	0.504284	0.128070	0.447835
C450	C	0.754284	0.378070	0.697835
C451	C	1.004284	0.628070	0.947835
C452	C	1.254284	0.878070	1.197835
C453	C	0.504283	0.128067	0.395613
C454	C	0.754283	0.378067	0.645613
C455	C	1.004283	0.628067	0.895613
C456	C	1.254283	0.878067	1.145613
C457	C	0.537401	0.094972	0.369500
C458	C	0.787401	0.344972	0.619500
C459	C	1.037401	0.594972	0.869500
C460	C	1.287401	0.844972	1.119500
C461	C	0.537405	0.094983	0.317293
C462	C	0.787405	0.344983	0.567293
C463	C	1.037405	0.594983	0.817293
C464	C	1.287405	0.844983	1.067293
N465	N	0.570517	0.061887	0.291177
N466	N	0.820517	0.311887	0.541177
N467	N	1.070517	0.561887	0.791177
N468	N	1.320517	0.811887	1.041177
C469	C	0.603633	0.028790	0.317281
C470	C	0.853633	0.278790	0.567281
C471	C	1.103633	0.528790	0.817281
C472	C	1.353633	0.778790	1.067281
C473	C	0.537429	0.094965	0.792481
C474	C	0.787429	0.344965	1.042481
C475	C	1.037429	0.594965	1.292481
C476	C	1.287429	0.844965	1.542481
C477	C	0.537433	0.094964	0.844700
C478	C	0.787433	0.344964	1.094700
C479	C	1.037433	0.594964	1.344700
C480	C	1.287433	0.844964	1.594700
C481	C	0.603665	0.028768	0.844689
C482	C	0.853665	0.278768	1.094689
C483	C	1.103665	0.528768	1.344689
C484	C	1.353665	0.778768	1.594689
C485	C	0.603663	0.028772	0.792469
C486	C	0.853663	0.278772	1.042469
C487	C	1.103663	0.528772	1.292469
C488	C	1.353663	0.778772	1.542469
C489	C	0.570542	0.061868	0.766366
C490	C	0.820542	0.311868	1.016366
C491	C	1.070542	0.561868	1.266366
C492	C	1.320542	0.811868	1.516366
C493	C	0.603628	0.028801	0.207623
C494	C	0.853628	0.278801	0.457623
C495	C	1.103628	0.528801	0.707623
C496	C	1.353628	0.778801	0.957623
C497	C	0.603625	0.028809	0.155402
C498	C	0.853625	0.278809	0.405402
C499	C	1.103625	0.528809	0.655402
C500	C	1.353625	0.778809	0.905402
C501	C	0.537392	0.095003	0.155418
C502	C	0.787392	0.345003	0.405418
C503	C	1.037392	0.595003	0.655418
C504	C	1.287392	0.845003	0.905418
C505	C	0.537396	0.094997	0.207635
C506	C	0.787396	0.344997	0.457635
C507	C	1.037396	0.594997	0.707635
C508	C	1.287396	0.844997	0.957635
C509	C	0.570516	0.061892	0.233735
C510	C	0.820516	0.311892	0.483735
C511	C	1.070516	0.561892	0.733735
C512	C	1.320516	0.811892	0.983735
O513	O	0.509266	0.123126	0.290250
O514	O	0.759266	0.373126	0.540250
O515	O	1.009266	0.623126	0.790250
O516	O	1.259266	0.873126	1.040250
O517	O	0.631789	0.000640	0.290266
O518	O	0.881789	0.250640	0.540266
O519	O	1.131789	0.500640	0.790266
O520	O	1.381789	0.750640	1.040266
C521	C	0.603642	0.028777	0.526149
C522	C	0.853642	0.278777	0.776149
C523	C	1.103642	0.528777	1.026149
C524	C	1.353642	0.778777	1.276149
C525	C	0.570527	0.061870	0.552261
C526	C	0.820527	0.311870	0.802261
C527	C	1.070527	0.561870	1.052261
C528	C	1.320527	0.811870	1.302261
C529	C	0.537410	0.094968	0.526158
C530	C	0.787410	0.344968	0.776158
C531	C	1.037410	0.594968	1.026158
C532	C	1.287410	0.844968	1.276158
C533	C	0.570531	0.061870	0.604480
C534	C	0.820531	0.311870	0.854480
C535	C	1.070531	0.561870	1.104480
C536	C	1.320531	0.811870	1.354480
C537	C	0.603647	0.028773	0.630584
C538	C	0.853647	0.278773	0.880584
C539	C	1.103647	0.528773	1.130584
C540	C	1.353647	0.778773	1.380584
C541	C	0.636759	-0.004324	0.604468
C542	C	0.886759	0.245676	0.854468
C543	C	1.136759	0.495676	1.104468
C544	C	1.386759	0.745676	1.354468
C545	C	0.636758	-0.004320	0.552252
C546	C	0.886758	0.245680	0.802252
C547	C	1.136758	0.495680	1.052252
C548	C	1.386758	0.745680	1.302252
C549	C	0.504298	0.128064	0.552273
C550	C	0.754298	0.378064	0.802273
C551	C	1.004298	0.628064	1.052273
C552	C	1.254298	0.878064	1.302273
C553	C	0.504303	0.128058	0.604489
C554	C	0.754303	0.378058	0.854489
C555	C	1.004303	0.628058	1.104489
C556	C	1.254303	0.878058	1.354489
C557	C	0.537419	0.094961	0.630593
C558	C	0.787419	0.344961	0.880593
C559	C	1.037419	0.594961	1.130593
C560	C	1.287419	0.844961	1.380593
H561	H	-0.067947	0.184708	0.000046
H562	H	0.182053	0.434708	0.250046
H563	H	0.432053	0.684708	0.500046
H564	H	0.682053	0.934708	0.750046
F565	F	0.638911	-0.006453	0.764682
F566	F	0.888911	0.243547	1.014682
F567	F	1.138911	0.493547	1.264682
F568	F	1.388911	0.743547	1.514682
F569	F	0.436752	-0.291805	0.000011
F570	F	0.686752	-0.041805	0.250011
F571	F	0.936752	0.208195	0.500011
F572	F	1.186752	0.458195	0.750011
H573	H	0.493213	-0.165279	0.000061
H574	H	0.743213	0.084721	0.250061
H575	H	0.993213	0.334721	0.500061
H576	H	1.243213	0.584721	0.750061
H577	H	0.663722	-0.031266	0.469068
H578	H	0.913722	0.218734	0.719068
H579	H	1.163722	0.468734	0.969068
H580	H	1.413722	0.718734	1.219068
F581	F	0.502176	0.130194	0.764706
F582	F	0.752176	0.380194	1.014706
F583	F	1.002176	0.630194	1.264706
F584	F	1.252176	0.880194	1.514706
H585	H	0.343360	-0.015426	0.000049
H586	H	0.593360	0.234574	0.250049
H587	H	0.843360	0.484574	0.500049
H588	H	1.093360	0.734574	0.750049
H589	H	0.663725	-0.031269	0.530995
H590	H	0.913725	0.218731	0.780995
H591	H	1.163725	0.468731	1.030995
H592	H	1.413725	0.718731	1.280995
F593	F	0.075480	0.197209	0.000035
F594	F	0.325480	0.447209	0.250035
F595	F	0.575480	0.697209	0.500035
F596	F	0.825480	0.947209	0.750035
H597	H	0.434827	-0.014492	0.000047
H598	H	0.684827	0.235508	0.250047
H599	H	0.934827	0.485508	0.500047
H600	H	1.184827	0.735508	0.750047
H601	H	0.023514	0.185643	0.000042
H602	H	0.273514	0.435643	0.250042
H603	H	0.523514	0.685643	0.500042
H604	H	0.773514	0.935643	0.750042
F605	F	0.638878	-0.006434	0.235394
F606	F	0.888878	0.243566	0.485394
F607	F	1.138878	0.493566	0.735394
F608	F	1.388878	0.743566	0.985394
H609	H	-0.033688	-0.063392	0.000085
H610	H	0.216312	0.186608	0.250085
H611	H	0.466312	0.436608	0.500085
H612	H	0.716312	0.686608	0.750085
H613	H	0.654093	-0.095896	0.000080
H614	H	0.904093	0.154104	0.250080
H615	H	1.154093	0.404104	0.500080
H616	H	1.404093	0.654104	0.750080
F617	F	0.469050	0.163292	0.524498
F618	F	0.719050	0.413292	0.774498
F619	F	0.969050	0.663292	1.024498
F620	F	1.219050	0.913292	1.274498
H621	H	0.694282	-0.485125	0.000053
H622	H	0.944282	-0.235125	0.250053
H623	H	1.194282	0.014875	0.500053
H624	H	1.444282	0.264875	0.750053
H625	H	0.510430	0.121952	0.134157
H626	H	0.760430	0.371952	0.384157
H627	H	1.010430	0.621952	0.634157
H628	H	1.260430	0.871952	0.884157
F629	F	0.704304	-0.584410	0.000048
F630	F	0.954304	-0.334410	0.250048
F631	F	1.204304	-0.084410	0.500048
F632	F	1.454304	0.165590	0.750048
H633	H	0.486964	-0.780325	0.000028
H634	H	0.736964	-0.530325	0.250028
H635	H	0.986964	-0.280325	0.500028
H636	H	1.236964	-0.030325	0.750028
F637	F	0.705848	-0.433159	0.000059
F638	F	0.955848	-0.183159	0.250059
F639	F	1.205848	0.066841	0.500059
F640	F	1.455848	0.316841	0.750059
F641	F	0.313468	0.155488	0.000033
F642	F	0.563468	0.405488	0.250033
F643	F	0.813468	0.655488	0.500033
F644	F	1.063468	0.905488	0.750033
H645	H	0.630595	0.001859	0.134142
H646	H	0.880595	0.251859	0.384142
H647	H	1.130595	0.501859	0.634142
H648	H	1.380595	0.751859	0.884142
F649	F	0.664126	-0.195171	0.000065
F650	F	0.914126	0.054829	0.250065
F651	F	1.164126	0.304829	0.500065
F652	F	1.414126	0.554829	0.750065
H653	H	0.057760	-0.062462	0.000083
H654	H	0.307760	0.187538	0.250083
H655	H	0.557760	0.437538	0.500083
H656	H	0.807760	0.687538	0.750083
H657	H	0.446177	-0.450879	0.000018
H658	H	0.696177	-0.200879	0.250018
H659	H	0.946177	0.049121	0.500018
H660	H	1.196177	0.299121	0.750018
F661	F	0.706905	-0.329109	0.000058
F662	F	0.956905	-0.079109	0.250058
F663	F	1.206905	0.170891	0.500058
F664	F	1.456905	0.420891	0.750058
H665	H	-0.202311	0.139207	0.000047
H666	H	0.047689	0.389207	0.250047
H667	H	0.297689	0.639207	0.500047
H668	H	0.547689	0.889207	0.750047
F669	F	0.671999	-0.039534	0.367817
F670	F	0.921999	0.210466	0.617817
F671	F	1.171999	0.460466	0.867817
F672	F	1.421999	0.710466	1.117817
H673	H	0.477317	0.155019	0.469089
H674	H	0.727317	0.405019	0.719089
H675	H	0.977317	0.655019	0.969089
H676	H	1.227317	0.905019	1.219089
H677	H	0.663726	-0.031271	0.625730
H678	H	0.913726	0.218729	0.875730
H679	H	1.163726	0.468729	1.125730
H680	H	1.413726	0.718729	1.375730
F681	F	0.434160	-0.547107	0.000012
F682	F	0.684160	-0.297107	0.250012
F683	F	0.934160	-0.047107	0.500012
F684	F	1.184160	0.202893	0.750012
F685	F	0.638910	-0.006456	0.872479
F686	F	0.888910	0.243544	1.122479
F687	F	1.138910	0.493544	1.372479
F688	F	1.388910	0.743544	1.622479
F689	F	-0.301601	0.149230	0.000050
F690	F	-0.051601	0.399230	0.250050
F691	F	0.198399	0.649230	0.500050
F692	F	0.448399	0.899230	0.750050
H693	H	0.646911	-0.802415	0.000040
H694	H	0.896911	-0.552415	0.250040
H695	H	1.146911	-0.302415	0.500040
H696	H	1.396911	-0.052415	0.750040
F697	F	0.216833	-0.071886	0.000092
F698	F	0.466833	0.178114	0.250092
F699	F	0.716833	0.428114	0.500092
F700	F	0.966833	0.678114	0.750092
H701	H	0.510471	0.121919	0.865958
H702	H	0.760471	0.371919	1.115958
H703	H	1.010471	0.621919	1.365958
H704	H	1.260471	0.871919	1.615958
F705	F	0.469029	0.163294	0.367836
F706	F	0.719029	0.413294	0.617836
F707	F	0.969029	0.663294	0.867836
F708	F	1.219029	0.913294	1.117836
F709	F	0.658932	-0.706169	0.000050
F710	F	0.908932	-0.456169	0.250050
F711	F	1.158932	-0.206169	0.500050
F712	F	1.408932	0.043831	0.750050
H713	H	-0.271687	-0.021674	0.000069
H714	H	-0.021687	0.228326	0.250069
H715	H	0.228313	0.478326	0.500069
H716	H	0.478313	0.728326	0.750069
H717	H	0.487892	-0.688875	0.000020
H718	H	0.737892	-0.438875	0.250020
H719	H	0.987892	-0.188875	0.500020
H720	H	1.237892	0.061125	0.750020
F721	F	0.502153	0.130226	0.235425
F722	F	0.752153	0.380226	0.485425
F723	F	1.002153	0.630226	0.735425
F724	F	1.252153	0.880226	0.985425
F725	F	0.179530	0.198267	0.000029
F726	F	0.429530	0.448267	0.250029
F727	F	0.679530	0.698267	0.500029
F728	F	0.929530	0.948267	0.750029
F729	F	0.112779	-0.072948	0.000083
F730	F	0.362779	0.177052	0.250083
F731	F	0.612779	0.427052	0.500083
F732	F	0.862779	0.677052	0.750083
H733	H	-0.180236	-0.020747	0.000077
H734	H	0.069764	0.229253	0.250077
H735	H	0.319764	0.479253	0.500077
H736	H	0.569764	0.729253	0.750077
H737	H	0.446777	-0.391080	0.000011
H738	H	0.696777	-0.141080	0.250011
H739	H	0.946777	0.108920	0.500011
H740	H	1.196777	0.358920	0.750011
F741	F	0.483189	-0.065987	0.000054
F742	F	0.733189	0.184013	0.250054
F743	F	0.983189	0.434013	0.500054
F744	F	1.233189	0.684013	0.750054
H745	H	0.412743	0.145454	0.000021
H746	H	0.662743	0.395454	0.250021
H747	H	0.912743	0.645454	0.500021
H748	H	1.162743	0.895454	0.750021
F749	F	0.469054	0.163287	0.632276
F750	F	0.719054	0.413287	0.882276
F751	F	0.969054	0.663287	1.132276
F752	F	1.219054	0.913287	1.382276
