data_functionalizedCrystal
_audit_creation_method	'MofGen! by Chris Wilmer'
_symmetry_space_group_name_H-M	'P1'
_symmetry_Int_Tables_number	1
_symmetry_cell_setting	triclinic
loop_
_symmetry_equiv_pos_as_xyz
  x,y,z
_cell_length_a	21.395362
_cell_length_b	19.805405
_cell_length_c	21.395356
_cell_angle_alpha	89.972988
_cell_angle_beta	89.964230
_cell_angle_gamma	90.042288
loop_
_atom_site_label
_atom_site_type_symbol
_atom_site_fract_x
_atom_site_fract_y
_atom_site_fract_z
Zn1	Zn	0.957828	-0.269207	-0.354580
Zn2	Zn	1.207828	-0.019207	-0.104580
Zn3	Zn	1.457828	0.230793	0.145420
Zn4	Zn	1.707828	0.480793	0.395420
Zn5	Zn	0.957753	-0.382391	-0.249799
Zn6	Zn	1.207753	-0.132391	0.000201
Zn7	Zn	1.457753	0.117609	0.250201
Zn8	Zn	1.707753	0.367609	0.500201
Zn9	Zn	0.853058	-0.269253	-0.249781
Zn10	Zn	1.103058	-0.019253	0.000219
Zn11	Zn	1.353058	0.230747	0.250219
Zn12	Zn	1.603058	0.480747	0.500219
Zn13	Zn	0.853020	-0.382391	-0.354504
Zn14	Zn	1.103020	-0.132391	-0.104504
Zn15	Zn	1.353020	0.117609	0.145496
Zn16	Zn	1.603020	0.367609	0.395496
O17	O	0.905414	-0.325811	-0.302166
O18	O	1.155414	-0.075811	-0.052166
O19	O	1.405414	0.174189	0.197834
O20	O	1.655414	0.424189	0.447834
O21	O	1.045496	-0.284202	-0.340720
O22	O	1.295496	-0.034202	-0.090720
O23	O	1.545496	0.215798	0.159280
O24	O	1.795496	0.465798	0.409280
O25	O	0.943849	-0.367402	-0.162119
O26	O	1.193849	-0.117402	0.087881
O27	O	1.443849	0.132598	0.337881
O28	O	1.693849	0.382598	0.587881
O29	O	0.867003	-0.174530	-0.263706
O30	O	1.117003	0.075470	-0.013706
O31	O	1.367003	0.325470	0.236294
O32	O	1.617003	0.575470	0.486294
O33	O	1.045441	-0.367358	-0.263738
O34	O	1.295441	-0.117358	-0.013738
O35	O	1.545441	0.132642	0.236262
O36	O	1.795441	0.382642	0.486262
O37	O	0.943977	-0.174497	-0.340701
O38	O	1.193977	0.075503	-0.090701
O39	O	1.443977	0.325503	0.159299
O40	O	1.693977	0.575503	0.409299
O41	O	0.866930	-0.284280	-0.162105
O42	O	1.116930	-0.034280	0.087895
O43	O	1.366930	0.215720	0.337895
O44	O	1.616930	0.465720	0.587895
O45	O	0.765375	-0.284280	-0.263633
O46	O	1.015375	-0.034280	-0.013633
O47	O	1.265375	0.215720	0.236367
O48	O	1.515375	0.465720	0.486367
O49	O	0.866938	-0.367358	-0.442192
O50	O	1.116938	-0.117358	-0.192192
O51	O	1.366938	0.132642	0.057808
O52	O	1.616938	0.382642	0.307808
O53	O	0.765347	-0.367402	-0.340573
O54	O	1.015347	-0.117402	-0.090573
O55	O	1.265347	0.132598	0.159427
O56	O	1.515347	0.382598	0.409427
O57	O	0.943940	-0.284202	-0.442247
O58	O	1.193940	-0.034202	-0.192247
O59	O	1.443940	0.215798	0.057753
O60	O	1.693940	0.465798	0.307753
O61	O	0.943813	-0.477108	-0.263665
O62	O	1.193813	-0.227108	-0.013665
O63	O	1.443813	0.022892	0.236335
O64	O	1.693813	0.272892	0.486335
O65	O	0.866866	-0.477108	-0.340591
O66	O	1.116866	-0.227108	-0.090591
O67	O	1.366866	0.022892	0.159409
O68	O	1.616866	0.272892	0.409409
C69	C	0.742627	-0.325846	-0.302093
C70	C	0.992627	-0.075846	-0.052093
C71	C	1.242627	0.174154	0.197907
C72	C	1.492627	0.424154	0.447907
C73	C	0.672985	-0.325878	-0.302077
C74	C	0.922985	-0.075878	-0.052077
C75	C	1.172985	0.174122	0.197923
C76	C	1.422985	0.424122	0.447923
C77	C	0.905344	-0.501667	-0.302136
C78	C	1.155344	-0.251667	-0.052136
C79	C	1.405344	-0.001667	0.197864
C80	C	1.655344	0.248333	0.447864
C81	C	0.905371	-0.576899	-0.302144
C82	C	1.155371	-0.326899	-0.052144
C83	C	1.405371	-0.076899	0.197856
C84	C	1.655371	0.173101	0.447856
C85	C	0.640274	-0.369217	-0.342080
C86	C	0.890274	-0.119217	-0.092080
C87	C	1.140274	0.130783	0.157920
C88	C	1.390274	0.380783	0.407920
C89	C	0.574839	-0.369200	-0.342108
C90	C	0.824839	-0.119200	-0.092108
C91	C	1.074839	0.130800	0.157892
C92	C	1.324839	0.380800	0.407892
C93	C	0.542117	-0.325852	-0.302122
C94	C	0.792117	-0.075852	-0.052122
C95	C	1.042117	0.174148	0.197878
C96	C	1.292117	0.424148	0.447878
C97	C	0.574836	-0.282504	-0.262116
C98	C	0.824836	-0.032504	-0.012116
C99	C	1.074836	0.217496	0.237884
C100	C	1.324836	0.467496	0.487884
C101	C	0.640270	-0.282517	-0.262094
C102	C	0.890270	-0.032517	-0.012094
C103	C	1.140270	0.217483	0.237906
C104	C	1.390270	0.467483	0.487906
C105	C	0.438400	-0.320407	-0.245717
C106	C	0.688400	-0.070407	0.004283
C107	C	0.938400	0.179593	0.254283
C108	C	1.188400	0.429593	0.504283
C109	C	0.372967	-0.320398	-0.245738
C110	C	0.622967	-0.070398	0.004262
C111	C	0.872967	0.179602	0.254262
C112	C	1.122967	0.429602	0.504262
C113	C	0.340297	-0.325808	-0.302191
C114	C	0.590297	-0.075808	-0.052191
C115	C	0.840297	0.174192	0.197809
C116	C	1.090297	0.424192	0.447809
C117	C	0.373067	-0.331240	-0.358624
C118	C	0.623067	-0.081240	-0.108624
C119	C	0.873067	0.168760	0.141376
C120	C	1.123067	0.418760	0.391376
C121	C	0.438501	-0.331253	-0.358602
C122	C	0.688501	-0.081253	-0.108602
C123	C	0.938501	0.168747	0.141398
C124	C	1.188501	0.418747	0.391398
C125	C	0.471165	-0.325833	-0.302142
C126	C	0.721165	-0.075833	-0.052142
C127	C	0.971165	0.174167	0.197858
C128	C	1.221165	0.424167	0.447858
C129	C	0.236633	-0.369131	-0.342227
C130	C	0.486633	-0.119131	-0.092227
C131	C	0.736633	0.130869	0.157773
C132	C	0.986633	0.380869	0.407773
C133	C	0.171196	-0.369110	-0.342256
C134	C	0.421196	-0.119110	-0.092256
C135	C	0.671196	0.130890	0.157744
C136	C	0.921196	0.380890	0.407744
C137	C	0.171195	-0.282417	-0.262259
C138	C	0.421195	-0.032417	-0.012259
C139	C	0.671195	0.217583	0.237741
C140	C	0.921195	0.467583	0.487741
C141	C	0.236630	-0.282435	-0.262236
C142	C	0.486630	-0.032435	-0.012236
C143	C	0.736630	0.217565	0.237764
C144	C	0.986630	0.467565	0.487764
C145	C	0.269345	-0.325796	-0.302219
C146	C	0.519345	-0.075796	-0.052219
C147	C	0.769345	0.174204	0.197781
C148	C	1.019345	0.424204	0.447781
C149	C	0.945476	-0.612220	-0.262130
C150	C	1.195476	-0.362220	-0.012130
C151	C	1.445476	-0.112220	0.237870
C152	C	1.695476	0.137780	0.487870
C153	C	0.945503	-0.682909	-0.262144
C154	C	1.195503	-0.432909	-0.012144
C155	C	1.445503	-0.182909	0.237856
C156	C	1.695503	0.067091	0.487856
C157	C	0.905421	-0.718274	-0.302169
C158	C	1.155421	-0.468274	-0.052169
C159	C	1.405421	-0.218274	0.197831
C160	C	1.655421	0.031726	0.447831
C161	C	0.865314	-0.682947	-0.342187
C162	C	1.115314	-0.432947	-0.092187
C163	C	1.365314	-0.182947	0.157813
C164	C	1.615314	0.067053	0.407813
C165	C	0.865291	-0.612260	-0.342175
C166	C	1.115291	-0.362260	-0.092175
C167	C	1.365291	-0.112260	0.157825
C168	C	1.615291	0.137740	0.407825
C169	C	0.865406	-0.968021	-0.342233
C170	C	1.115406	-0.718021	-0.092233
C171	C	1.365406	-0.468021	0.157767
C172	C	1.615406	-0.218021	0.407767
C173	C	0.865431	-1.038713	-0.342240
C174	C	1.115431	-0.788713	-0.092240
C175	C	1.365431	-0.538713	0.157760
C176	C	1.615431	-0.288713	0.407760
C177	C	0.945618	-1.038669	-0.262202
C178	C	1.195618	-0.788669	-0.012202
C179	C	1.445618	-0.538669	0.237798
C180	C	1.695618	-0.288669	0.487798
C181	C	0.945595	-0.967982	-0.262191
C182	C	1.195595	-0.717982	-0.012191
C183	C	1.445595	-0.467982	0.237809
C184	C	1.695595	-0.217982	0.487809
C185	C	0.905491	-0.932661	-0.302210
C186	C	1.155491	-0.682661	-0.052210
C187	C	1.405491	-0.432661	0.197790
C188	C	1.655491	-0.182661	0.447790
C189	C	0.905463	-0.856013	-0.302196
C190	C	1.155463	-0.606013	-0.052196
C191	C	1.405463	-0.356013	0.197804
C192	C	1.655463	-0.106013	0.447804
C193	C	0.905445	-0.794921	-0.302181
C194	C	1.155445	-0.544921	-0.052181
C195	C	1.405445	-0.294921	0.197819
C196	C	1.655445	-0.044921	0.447819
C197	C	1.068838	-0.325775	-0.302239
C198	C	1.318838	-0.075775	-0.052239
C199	C	1.568838	0.174225	0.197761
C200	C	1.818838	0.424225	0.447761
C201	C	1.138479	-0.325760	-0.302271
C202	C	1.388479	-0.075760	-0.052271
C203	C	1.638479	0.174240	0.197729
C204	C	1.888479	0.424240	0.447729
C205	C	0.905443	-0.325775	-0.465589
C206	C	1.155443	-0.075775	-0.215589
C207	C	1.405443	0.174225	0.034411
C208	C	1.655443	0.424225	0.284411
C209	C	0.905455	-0.325760	-0.535231
C210	C	1.155455	-0.075760	-0.285231
C211	C	1.405455	0.174240	-0.035231
C212	C	1.655455	0.424240	0.214769
C213	C	0.905502	-0.149268	-0.302210
C214	C	1.155502	0.100732	-0.052210
C215	C	1.405502	0.350732	0.197790
C216	C	1.655502	0.600732	0.447790
C217	C	0.905540	-0.074036	-0.302229
C218	C	1.155540	0.175964	-0.052229
C219	C	1.405540	0.425964	0.197771
C220	C	1.655540	0.675964	0.447771
C221	C	0.945578	-0.368900	-1.037035
C222	C	1.195578	-0.118900	-0.787035
C223	C	1.445578	0.131100	-0.537035
C224	C	1.695578	0.381100	-0.287035
C225	C	0.945566	-0.368921	-0.971599
C226	C	1.195566	-0.118921	-0.721599
C227	C	1.445566	0.131079	-0.471599
C228	C	1.695566	0.381079	-0.221599
C229	C	0.905515	-0.325652	-0.938869
C230	C	1.155515	-0.075652	-0.688869
C231	C	1.405515	0.174348	-0.438869
C232	C	1.655515	0.424348	-0.188869
C233	C	0.865461	-0.282371	-0.971580
C234	C	1.115461	-0.032371	-0.721580
C235	C	1.365461	0.217629	-0.471580
C236	C	1.615461	0.467629	-0.221580
C237	C	0.865469	-0.282356	-1.037014
C238	C	1.115469	-0.032356	-0.787014
C239	C	1.365469	0.217644	-0.537014
C240	C	1.615469	0.467644	-0.287014
C241	C	0.900585	-0.264697	-0.835214
C242	C	1.150585	-0.014697	-0.585214
C243	C	1.400585	0.235303	-0.335214
C244	C	1.650585	0.485303	-0.085214
C245	C	0.900582	-0.264711	-0.769781
C246	C	1.150582	-0.014711	-0.519781
C247	C	1.400582	0.235289	-0.269781
C248	C	1.650582	0.485289	-0.019781
C249	C	0.905487	-0.325700	-0.737048
C250	C	1.155487	-0.075700	-0.487048
C251	C	1.405487	0.174300	-0.237048
C252	C	1.655487	0.424300	0.012952
C253	C	0.910409	-0.386677	-0.769757
C254	C	1.160409	-0.136677	-0.519757
C255	C	1.410409	0.113323	-0.269757
C256	C	1.660409	0.363323	-0.019757
C257	C	0.910417	-0.386662	-0.835191
C258	C	1.160417	-0.136662	-0.585191
C259	C	1.410417	0.113338	-0.335191
C260	C	1.660417	0.363338	-0.085191
C261	C	0.905502	-0.325665	-0.867917
C262	C	1.155502	-0.075665	-0.617917
C263	C	1.405502	0.174335	-0.367917
C264	C	1.655502	0.424335	-0.117917
C265	C	0.945523	-0.369005	-0.633393
C266	C	1.195523	-0.119005	-0.383393
C267	C	1.445523	0.130995	-0.133393
C268	C	1.695523	0.380995	0.116607
C269	C	0.945508	-0.369028	-0.567956
C270	C	1.195508	-0.119028	-0.317956
C271	C	1.445508	0.130972	-0.067956
C272	C	1.695508	0.380972	0.182044
C273	C	0.865406	-0.282472	-0.567938
C274	C	1.115406	-0.032472	-0.317938
C275	C	1.365406	0.217528	-0.067938
C276	C	1.615406	0.467528	0.182062
C277	C	0.865418	-0.282456	-0.633374
C278	C	1.115418	-0.032456	-0.383374
C279	C	1.365418	0.217544	-0.133374
C280	C	1.615418	0.467544	0.116626
C281	C	0.905480	-0.325721	-0.666097
C282	C	1.155480	-0.075721	-0.416097
C283	C	1.405480	0.174279	-0.166097
C284	C	1.655480	0.424279	0.083903
C285	C	0.905422	-0.325797	-0.139378
C286	C	1.155422	-0.075797	0.110622
C287	C	1.405422	0.174203	0.360622
C288	C	1.655422	0.424203	0.610622
C289	C	0.905531	-0.325622	-0.069738
C290	C	1.155531	-0.075622	0.180262
C291	C	1.405531	0.174378	0.430262
C292	C	1.655531	0.424378	0.680262
H293	H	0.548200	-0.404492	-0.374685
H294	H	0.798200	-0.154492	-0.124685
H295	H	1.048200	0.095508	0.125315
H296	H	1.298200	0.345508	0.375315
N297	N	0.988829	-0.929836	-0.219025
N298	N	1.238829	-0.679836	0.030975
N299	N	1.488829	-0.429836	0.280975
N300	N	1.738829	-0.179836	0.530975
H301	H	0.979136	-0.942178	-0.174247
H302	H	1.229136	-0.692178	0.075753
H303	H	1.479136	-0.442178	0.325753
H304	H	1.729136	-0.192178	0.575753
H305	H	1.033575	-0.942095	-0.228873
H306	H	1.283575	-0.692095	0.021127
H307	H	1.533575	-0.442095	0.271127
H308	H	1.783575	-0.192095	0.521127
N309	N	0.895291	-0.198912	-0.870515
N310	N	1.145291	0.051088	-0.620515
N311	N	1.395291	0.301088	-0.370515
N312	N	1.645291	0.551088	-0.120515
H313	H	0.892177	-0.160288	-0.839867
H314	H	1.142177	0.089712	-0.589867
H315	H	1.392177	0.339712	-0.339867
H316	H	1.642177	0.589712	-0.089867
H317	H	0.933472	-0.192611	-0.897685
H318	H	1.183472	0.057389	-0.647685
H319	H	1.433472	0.307389	-0.397685
H320	H	1.683472	0.557389	-0.147685
N321	N	0.988756	-0.721007	-0.218984
N322	N	1.238756	-0.471007	0.031016
N323	N	1.488756	-0.221007	0.281016
N324	N	1.738756	0.028993	0.531016
H325	H	1.017788	-0.750280	-0.244486
H326	H	1.267788	-0.500280	0.005514
H327	H	1.517788	-0.250280	0.255514
H328	H	1.767788	-0.000280	0.505514
H329	H	1.014099	-0.687834	-0.193633
H330	H	1.264099	-0.437834	0.056367
H331	H	1.514099	-0.187834	0.306367
H332	H	1.764099	0.062166	0.556367
H333	H	0.832681	-0.711748	-0.374778
H334	H	1.082681	-0.461748	-0.124778
H335	H	1.332681	-0.211748	0.125222
H336	H	1.582681	0.038252	0.375222
N337	N	0.915703	-0.452465	-0.734464
N338	N	1.165703	-0.202465	-0.484464
N339	N	1.415703	0.047535	-0.234464
N340	N	1.665703	0.297535	0.015536
H341	H	0.914949	-0.443225	-0.688048
H342	H	1.164949	-0.193225	-0.438048
H343	H	1.414949	0.056775	-0.188048
H344	H	1.664949	0.306775	0.061952
H345	H	0.879459	-0.482732	-0.745879
H346	H	1.129459	-0.232732	-0.495879
H347	H	1.379459	0.017268	-0.245879
H348	H	1.629459	0.267268	0.004121
N349	N	0.473843	-0.337108	-0.419466
N350	N	0.723843	-0.087108	-0.169466
N351	N	0.973843	0.162892	0.080534
N352	N	1.223843	0.412892	0.330534
H353	H	0.462517	-0.298008	-0.447575
H354	H	0.712517	-0.048008	-0.197575
H355	H	0.962517	0.201992	0.052425
H356	H	1.212517	0.451992	0.302425
H357	H	0.520240	-0.336316	-0.410831
H358	H	0.770240	-0.086316	-0.160831
H359	H	1.020240	0.163684	0.089169
H360	H	1.270240	0.413684	0.339169
H361	H	0.832792	-1.067505	-0.374837
H362	H	1.082792	-0.817505	-0.124837
H363	H	1.332792	-0.567505	0.125163
H364	H	1.582792	-0.317505	0.375163
H365	H	0.832751	-0.939268	-0.374817
H366	H	1.082751	-0.689268	-0.124817
H367	H	1.332751	-0.439268	0.125183
H368	H	1.582751	-0.189268	0.375183
N369	N	0.988874	-1.076764	-0.219034
N370	N	1.238874	-0.826764	0.030966
N371	N	1.488874	-0.576764	0.280966
N372	N	1.738874	-0.326764	0.530966
H373	H	0.982810	-1.126911	-0.225112
H374	H	1.232810	-0.876911	0.024888
H375	H	1.482810	-0.626911	0.274888
H376	H	1.732810	-0.376911	0.524888
H377	H	1.033613	-1.064349	-0.228834
H378	H	1.283613	-0.814349	0.021166
H379	H	1.533613	-0.564349	0.271166
H380	H	1.783613	-0.314349	0.521166
N381	N	0.988761	-0.415603	-0.936319
N382	N	1.238761	-0.165603	-0.686319
N383	N	1.488761	0.084397	-0.436319
N384	N	1.738761	0.334397	-0.186319
H385	H	1.014139	-0.443008	-0.966981
H386	H	1.264139	-0.193008	-0.716981
H387	H	1.514139	0.056992	-0.466981
H388	H	1.764139	0.306992	-0.216981
H389	H	1.017763	-0.388046	-0.909192
H390	H	1.267763	-0.138046	-0.659192
H391	H	1.517763	0.111954	-0.409192
H392	H	1.767763	0.361954	-0.159192
N393	N	0.895272	-0.198952	-0.734499
N394	N	1.145272	0.051048	-0.484499
N395	N	1.395272	0.301048	-0.234499
N396	N	1.645272	0.551048	0.015501
H397	H	0.933441	-0.192599	-0.707373
H398	H	1.183441	0.057401	-0.457373
H399	H	1.433441	0.307401	-0.207373
H400	H	1.683441	0.557401	0.042627
H401	H	0.892137	-0.160350	-0.765196
H402	H	1.142137	0.089650	-0.515196
H403	H	1.392137	0.339650	-0.265196
H404	H	1.642137	0.589650	-0.015196
N405	N	0.271924	-0.415893	-0.385351
N406	N	0.521924	-0.165893	-0.135351
N407	N	0.771924	0.084107	0.114649
N408	N	1.021924	0.334107	0.364649
H409	H	0.241270	-0.443343	-0.410701
H410	H	0.491270	-0.193343	-0.160701
H411	H	0.741270	0.056657	0.089299
H412	H	0.991270	0.306657	0.339299
H413	H	0.299128	-0.388390	-0.414381
H414	H	0.549128	-0.138390	-0.164381
H415	H	0.799128	0.111610	0.085619
H416	H	1.049128	0.361610	0.335619
N417	N	0.988778	-0.415573	-1.072327
N418	N	1.238778	-0.165573	-0.822327
N419	N	1.488778	0.084427	-0.572327
N420	N	1.738778	0.334427	-0.322327
H421	H	0.982708	-0.408998	-1.118743
H422	H	1.232708	-0.158998	-0.868743
H423	H	1.482708	0.091002	-0.618743
H424	H	1.732708	0.341002	-0.368743
H425	H	1.033529	-0.405028	-1.060915
H426	H	1.283529	-0.155028	-0.810915
H427	H	1.533529	0.094972	-0.560915
H428	H	1.783529	0.344972	-0.310915
H429	H	0.832634	-0.583502	-0.374759
H430	H	1.082634	-0.333502	-0.124759
H431	H	1.332634	-0.083502	0.125241
H432	H	1.582634	0.166498	0.375241
N433	N	0.915722	-0.452423	-0.870471
N434	N	1.165722	-0.202423	-0.620471
N435	N	1.415722	0.047577	-0.370471
N436	N	1.665722	0.297577	-0.120471
H437	H	0.918828	-0.491065	-0.839811
H438	H	1.168828	-0.241065	-0.589811
H439	H	1.418828	0.008935	-0.339811
H440	H	1.668828	0.258935	-0.089811
H441	H	0.877546	-0.458708	-0.897599
H442	H	1.127546	-0.208708	-0.647599
H443	H	1.377546	0.041292	-0.397599
H444	H	1.627546	0.291292	-0.147599
N445	N	0.988729	-0.415669	-0.668693
N446	N	1.238729	-0.165669	-0.418693
N447	N	1.488729	0.084331	-0.168693
N448	N	1.738729	0.334331	0.081307
H449	H	1.014094	-0.443094	-0.638044
H450	H	1.264094	-0.193094	-0.388044
H451	H	1.514094	0.056906	-0.138044
H452	H	1.764094	0.306906	0.111956
H453	H	0.963215	-0.446991	-0.695825
H454	H	1.213215	-0.196991	-0.445825
H455	H	1.463215	0.053009	-0.195825
H456	H	1.713215	0.303009	0.054175
H457	H	0.978115	-0.404277	-0.541331
H458	H	1.228115	-0.154277	-0.291331
H459	H	1.478115	0.095723	-0.041331
H460	H	1.728115	0.345723	0.208669
H461	H	0.832794	-0.247244	-0.541290
H462	H	1.082794	0.002756	-0.291290
H463	H	1.332794	0.252756	-0.041290
H464	H	1.582794	0.502756	0.208710
N465	N	0.822226	-0.235775	-0.668651
N466	N	1.072226	0.014225	-0.418651
N467	N	1.322226	0.264225	-0.168651
N468	N	1.572226	0.514225	0.081349
H469	H	0.796851	-0.208367	-0.637989
H470	H	1.046851	0.041633	-0.387989
H471	H	1.296851	0.291633	-0.137989
H472	H	1.546851	0.541633	0.112011
H473	H	0.847748	-0.204439	-0.695820
H474	H	1.097748	0.045561	-0.445820
H475	H	1.347748	0.295561	-0.195820
H476	H	1.597748	0.545561	0.054180
H477	H	0.832850	-0.247143	-0.944927
H478	H	1.082850	0.002857	-0.694927
H479	H	1.332850	0.252857	-0.444927
H480	H	1.582850	0.502857	-0.194927
N481	N	0.822274	-0.235673	-1.072288
N482	N	1.072274	0.014327	-0.822288
N483	N	1.322274	0.264327	-0.572288
N484	N	1.572274	0.514327	-0.322288
H485	H	0.847753	-0.204293	-1.099456
H486	H	1.097753	0.045707	-0.849456
H487	H	1.347753	0.295707	-0.599456
H488	H	1.597753	0.545707	-0.349456
H489	H	0.793240	-0.263232	-1.099380
H490	H	1.043240	-0.013232	-0.849380
H491	H	1.293240	0.236768	-0.599380
H492	H	1.543240	0.486768	-0.349380
H493	H	0.666907	-0.404524	-0.374638
H494	H	0.916907	-0.154524	-0.124638
H495	H	1.166907	0.095476	0.125362
H496	H	1.416907	0.345476	0.375362
H497	H	0.144564	-0.404400	-0.374835
H498	H	0.394564	-0.154400	-0.124835
H499	H	0.644564	0.095600	0.125165
H500	H	0.894564	0.345600	0.375165
N501	N	0.337840	-0.337078	-0.419519
N502	N	0.587840	-0.087078	-0.169519
N503	N	0.837840	0.162922	0.080481
N504	N	1.087840	0.412922	0.330481
H505	H	0.291416	-0.336243	-0.410973
H506	H	0.541416	-0.086243	-0.160973
H507	H	0.791416	0.163757	0.089027
H508	H	1.041416	0.413757	0.339027
H509	H	0.349342	-0.297981	-0.447592
H510	H	0.599342	-0.047981	-0.197592
H511	H	0.849342	0.202019	0.052408
H512	H	1.099342	0.452019	0.302408
H513	H	0.263264	-0.247147	-0.229658
H514	H	0.513264	0.002853	0.020342
H515	H	0.763264	0.252853	0.270342
H516	H	1.013264	0.502853	0.520342
N517	N	0.135912	-0.235656	-0.219135
N518	N	0.385912	0.014344	0.030865
N519	N	0.635912	0.264344	0.280865
N520	N	0.885912	0.514344	0.530865
H521	H	0.089495	-0.242222	-0.225220
H522	H	0.339495	0.007778	0.024780
H523	H	0.589495	0.257778	0.274780
H524	H	0.839495	0.507778	0.524780
H525	H	0.147296	-0.246127	-0.174365
H526	H	0.397296	0.003873	0.075635
H527	H	0.647296	0.253873	0.325635
H528	H	0.897296	0.503873	0.575635
H529	H	0.346291	-0.315980	-0.199786
H530	H	0.596291	-0.065980	0.050214
H531	H	0.846291	0.184020	0.300214
H532	H	1.096291	0.434020	0.550214
N533	N	0.473632	-0.314569	-0.184823
N534	N	0.723632	-0.064569	0.065177
N535	N	0.973632	0.185431	0.315177
N536	N	1.223632	0.435431	0.565177
H537	H	0.462185	-0.353665	-0.156723
H538	H	0.712185	-0.103665	0.093277
H539	H	0.962185	0.146335	0.343277
H540	H	1.212185	0.396335	0.593277
H541	H	0.520045	-0.315379	-0.193425
H542	H	0.770045	-0.065379	0.056575
H543	H	1.020045	0.184621	0.306575
H544	H	1.270045	0.434621	0.556575
N545	N	0.539548	-0.235757	-0.218980
N546	N	0.789548	0.014243	0.031020
N547	N	1.039548	0.264243	0.281020
N548	N	1.289548	0.514243	0.531020
H549	H	0.493132	-0.242330	-0.225059
H550	H	0.743132	0.007670	0.024941
H551	H	0.993132	0.257670	0.274941
H552	H	1.243132	0.507670	0.524941
H553	H	0.550941	-0.246239	-0.174215
H554	H	0.800941	0.003761	0.075785
H555	H	1.050941	0.253761	0.325785
H556	H	1.300941	0.503761	0.575785
H557	H	0.666904	-0.247223	-0.229519
H558	H	0.916904	0.002777	0.020481
H559	H	1.166904	0.252777	0.270481
H560	H	1.416904	0.502777	0.520481
H561	H	0.978113	-0.583430	-0.229535
H562	H	1.228113	-0.333430	0.020465
H563	H	1.478113	-0.083430	0.270465
H564	H	1.728113	0.166570	0.520465
