data_functionalizedCrystal
_audit_creation_method	'MofGen! by Chris Wilmer'
_symmetry_space_group_name_H-M	'P1'
_symmetry_Int_Tables_number	1
_symmetry_cell_setting	triclinic
loop_
_symmetry_equiv_pos_as_xyz
  x,y,z
_cell_length_a	10.654545
_cell_length_b	15.995292
_cell_length_c	9.730223
_cell_angle_alpha	89.998793
_cell_angle_beta	89.997167
_cell_angle_gamma	83.975848
loop_
_atom_site_label
_atom_site_type_symbol
_atom_site_fract_x
_atom_site_fract_y
_atom_site_fract_z
O1	O	1.666269	0.117587	-0.114265
O2	O	1.300640	0.128796	-0.114270
O3	O	1.493488	0.001359	-0.114270
O4	O	1.473422	0.245024	-0.114266
O5	O	1.493475	0.001355	0.114310
O6	O	1.300628	0.128792	0.114310
O7	O	1.666257	0.117584	0.114314
Zn8	Zn	1.483441	0.123188	0.150604
Zn9	Zn	1.483457	0.123192	-0.150560
O10	O	1.473410	0.245021	0.114314
C11	C	1.253847	0.127972	0.000019
C12	C	1.114436	0.125512	0.000017
C13	C	1.048941	0.124352	0.124616
C14	C	0.917952	0.122027	0.124616
C15	C	0.917966	0.122025	-0.124594
C16	C	1.048954	0.124344	-0.124593
C17	C	1.492665	-0.029843	0.000017
C18	C	1.490216	-0.122810	0.000006
C19	C	1.481216	-0.460601	0.000019
C20	C	1.620408	-0.436482	0.000531
C21	C	1.623053	-0.339791	0.000011
C22	C	1.485682	-0.293019	0.000013
C23	C	1.416100	-0.322522	-0.130514
C24	C	1.414424	-0.419322	-0.130618
C25	C	1.411567	-0.419199	0.129320
C26	C	1.416725	-0.322677	0.131040
C27	C	1.488199	-0.198308	0.000006
C28	C	1.478695	-0.555311	0.000017
C29	C	1.713050	0.118408	0.000022
C30	C	1.852461	0.120868	0.000015
C31	C	1.474233	0.276223	0.000025
C32	C	1.476681	0.369190	0.000026
N33	N	1.483439	0.123184	0.356140
N34	N	1.483469	0.123189	-0.356096
C35	C	1.568860	0.066779	0.428067
C36	C	1.568873	0.066779	0.571950
C37	C	1.398038	0.179597	0.571968
C38	C	1.398020	0.179592	0.428087
H39	H	1.677549	-0.320451	0.093576
H40	H	1.102253	0.125303	0.226081
O41	O	1.295586	-0.285065	-0.136382
C42	C	1.160267	-0.154758	-0.148671
C43	C	1.296808	-0.197072	-0.142067
H44	H	1.161210	-0.083609	-0.153239
H45	H	1.111822	-0.177143	-0.244322
H46	H	1.106677	-0.172203	-0.053231
H47	H	1.350503	-0.179647	-0.237438
H48	H	1.345157	-0.174686	-0.046355
O49	O	0.854516	0.120944	0.245776
C50	C	0.868344	0.121144	0.492958
C51	C	0.940335	0.122395	0.355839
H52	H	0.937700	0.122299	0.581980
H53	H	0.795528	0.178566	0.499279
H54	H	0.818504	0.061575	0.499119
H55	H	0.990250	0.181926	0.349586
H56	H	1.013079	0.064934	0.349576
H57	H	1.673766	-0.465189	-0.092549
H58	H	1.102282	0.125287	-0.226063
H59	H	1.312367	-0.434463	-0.136530
O60	O	1.314990	0.234469	0.358422
C61	C	1.145495	0.346335	0.373611
C62	C	1.239476	0.284253	0.452678
H63	H	1.084399	0.386589	0.449782
H64	H	1.199620	0.388555	0.306267
H65	H	1.082830	0.309772	0.306233
H66	H	1.302164	0.320747	0.520131
H67	H	1.185273	0.242032	0.519935
O68	O	1.684428	-0.469656	0.112092
C69	C	1.759913	-0.595443	0.235900
C70	C	1.687411	-0.557978	0.109476
H71	H	1.762326	-0.666854	0.233842
H72	H	1.860492	-0.577185	0.234002
H73	H	1.710513	-0.570010	0.333513
H74	H	1.736704	-0.583391	0.011797
H75	H	1.586832	-0.576230	0.111496
O76	O	1.688441	-0.317586	-0.111908
C77	C	1.804958	-0.364861	-0.314628
C78	C	1.730910	-0.390121	-0.187944
H79	H	1.839338	-0.423493	-0.376122
H80	H	1.740954	-0.320243	-0.381820
H81	H	1.889484	-0.332142	-0.279666
H82	H	1.646383	-0.422874	-0.222782
H83	H	1.795001	-0.434701	-0.120780
H84	H	1.462624	-0.445857	-0.228191
O85	O	1.651802	0.011874	0.641666
C86	C	1.725413	-0.133266	0.685749
C87	C	1.631442	-0.071175	0.606686
H88	H	1.708966	-0.200425	0.657519
H89	H	1.826009	-0.121798	0.657412
H90	H	1.710772	-0.123535	0.800936
H91	H	1.645967	-0.080869	0.491481
H92	H	1.530879	-0.082659	0.635137
O93	O	1.473570	-0.298294	-0.246543
C94	C	1.475289	-0.297851	-0.494183
C95	C	1.410057	-0.325320	-0.362897
H96	H	1.423981	-0.319705	-0.588288
H97	H	1.472697	-0.226424	-0.495921
H98	H	1.577551	-0.327139	-0.495524
H99	H	1.307770	-0.296091	-0.361469
H100	H	1.412750	-0.396751	-0.361210
H101	H	1.455397	-0.447035	0.228259
O102	O	1.297026	-0.284179	0.140497
C103	C	1.075232	-0.301533	0.149405
C104	C	1.210733	-0.345241	0.138739
H105	H	1.005425	-0.350881	0.147959
H106	H	1.064290	-0.264345	0.249408
H107	H	1.055666	-0.257002	0.058639
H108	H	1.230389	-0.389813	0.229433
H109	H	1.221607	-0.382376	0.038682
H110	H	0.864634	0.121075	-0.226046
H111	H	1.467392	-0.303819	0.227603
O112	O	1.289360	-0.436637	0.130624
C113	C	1.127637	-0.500812	0.252783
C114	C	1.266047	-0.481095	0.251515
H115	H	1.108752	-0.536774	0.350499
H116	H	1.062450	-0.439588	0.249431
H117	H	1.109265	-0.540722	0.159292
H118	H	1.284539	-0.441210	0.344991
H119	H	1.331161	-0.542351	0.254797
H120	H	1.638411	0.020847	0.369491
H121	H	1.328494	0.225525	0.630561
