data_functionalizedCrystal
_audit_creation_method	'MofGen! by Chris Wilmer'
_symmetry_space_group_name_H-M	'P1'
_symmetry_Int_Tables_number	1
_symmetry_cell_setting	triclinic
loop_
_symmetry_equiv_pos_as_xyz
  x,y,z
_cell_length_a	25.639242
_cell_length_b	25.639239
_cell_length_c	12.759387
_cell_angle_alpha	89.963582
_cell_angle_beta	89.968335
_cell_angle_gamma	90.034213
loop_
_atom_site_label
_atom_site_type_symbol
_atom_site_fract_x
_atom_site_fract_y
_atom_site_fract_z
Zn1	Zn	0.799274	-0.208186	-0.594277
Zn2	Zn	1.299274	0.291814	-0.094277
Zn3	Zn	0.799183	-0.295631	-0.418580
Zn4	Zn	1.299183	0.204369	0.081420
Zn5	Zn	0.711836	-0.208205	-0.418579
Zn6	Zn	1.211836	0.291795	0.081421
Zn7	Zn	0.711796	-0.295585	-0.594185
Zn8	Zn	1.211796	0.204415	-0.094185
O9	O	0.755522	-0.251902	-0.506405
O10	O	1.255522	0.248098	-0.006405
O11	O	0.872427	-0.219797	-0.571009
O12	O	1.372427	0.280203	-0.071009
O13	O	0.787575	-0.284061	-0.271559
O14	O	1.287575	0.215939	0.228441
O15	O	0.723490	-0.135037	-0.441924
O16	O	1.223490	0.364963	0.058076
O17	O	0.872360	-0.284043	-0.441925
O18	O	1.372360	0.215957	0.058075
O19	O	0.787730	-0.135023	-0.571008
O20	O	1.287730	0.364977	-0.071008
O21	O	0.723402	-0.219830	-0.271558
O22	O	1.223402	0.280170	0.228442
O23	O	0.638665	-0.219785	-0.441835
O24	O	1.138665	0.280215	0.058165
O25	O	0.723421	-0.283964	-0.741218
O26	O	1.223421	0.216036	-0.241218
O27	O	0.638636	-0.283983	-0.570852
O28	O	1.138636	0.216017	-0.070852
O29	O	0.787691	-0.219752	-0.741286
O30	O	1.287691	0.280248	-0.241286
O31	O	0.787536	-0.368790	-0.441836
O32	O	1.287536	0.131210	0.058164
O33	O	0.723333	-0.368756	-0.570852
O34	O	1.223333	0.131244	-0.070852
C35	C	0.619680	-0.251881	-0.506334
C36	C	1.119680	0.248119	-0.006334
C37	C	0.561566	-0.251885	-0.506328
C38	C	1.061566	0.248115	-0.006328
C39	C	0.201196	-0.285385	-0.573520
C40	C	0.701196	0.214615	-0.073520
C41	C	0.146592	-0.285389	-0.573537
C42	C	0.646592	0.214611	-0.073537
O43	O	0.118349	-0.313846	-0.630606
O44	O	0.618349	0.186154	-0.130606
N45	N	0.119283	-0.251916	-0.506474
N46	N	0.619283	0.248084	-0.006474
C47	C	0.146582	-0.218434	-0.439397
C48	C	0.646582	0.281566	0.060603
O49	O	0.118340	-0.189963	-0.382357
O50	O	0.618340	0.310037	0.117643
C51	C	0.201185	-0.218429	-0.439386
C52	C	0.701185	0.281571	0.060614
C53	C	0.228491	-0.251907	-0.506447
C54	C	0.728491	0.248093	-0.006447
C55	C	0.228502	-0.318861	-0.640576
C56	C	0.728502	0.181139	-0.140576
C57	C	0.283102	-0.318858	-0.640558
C58	C	0.783102	0.181142	-0.140558
C59	C	0.310397	-0.285380	-0.573484
C60	C	0.810397	0.214620	-0.073484
C61	C	0.283091	-0.251905	-0.506428
C62	C	0.783091	0.248095	-0.006428
C63	C	0.228483	-0.184945	-0.372316
C64	C	0.728483	0.315055	0.127684
C65	C	0.283090	-0.184942	-0.372312
C66	C	0.783090	0.315058	0.127688
C67	C	0.310395	-0.218421	-0.439372
C68	C	0.810395	0.281579	0.060628
C69	C	0.364987	-0.218424	-0.439336
C70	C	0.864987	0.281576	0.060664
N71	N	0.392295	-0.251897	-0.506400
N72	N	0.892295	0.248103	-0.006400
C73	C	0.365000	-0.285375	-0.573473
C74	C	0.865000	0.214625	-0.073473
C75	C	0.031911	-0.218448	-0.439425
C76	C	0.531911	0.281552	0.060575
C77	C	-0.022691	-0.218455	-0.439430
C78	C	0.477309	0.281545	0.060570
C79	C	-0.022678	-0.285409	-0.573571
C80	C	0.477322	0.214591	-0.073571
C81	C	0.031926	-0.285404	-0.573561
C82	C	0.531926	0.214596	-0.073561
C83	C	0.059220	-0.251920	-0.506489
C84	C	0.559220	0.248080	-0.006489
C85	C	0.479665	-0.285367	-0.573429
C86	C	0.979665	0.214633	-0.073429
C87	C	0.534271	-0.285363	-0.573402
C88	C	1.034271	0.214637	-0.073402
C89	C	0.534252	-0.218408	-0.439265
C90	C	1.034252	0.281592	0.060735
C91	C	0.479652	-0.218413	-0.439288
C92	C	0.979652	0.281587	0.060712
C93	C	0.452360	-0.251895	-0.506379
C94	C	0.952360	0.248105	-0.006379
O95	O	0.393264	-0.189980	-0.382300
O96	O	0.893264	0.310020	0.117700
O97	O	0.393249	-0.313836	-0.630514
O98	O	0.893249	0.186164	-0.130514
C99	C	0.755434	-0.387744	-0.506357
C100	C	1.255434	0.112256	-0.006357
C101	C	0.755444	-0.445858	-0.506372
C102	C	1.255444	0.054142	-0.006372
C103	C	0.789040	-0.806226	-0.439341
C104	C	1.289040	-0.306226	0.060659
C105	C	0.789060	-0.860831	-0.439355
C106	C	1.289060	-0.360831	0.060645
O107	O	0.817533	-0.889072	-0.382310
O108	O	1.317533	-0.389072	0.117690
N109	N	0.755614	-0.888141	-0.506475
N110	N	1.255614	-0.388141	-0.006475
C111	C	0.722149	-0.860843	-0.573592
C112	C	1.222149	-0.360843	-0.073592
O113	O	0.693703	-0.889087	-0.630685
O114	O	1.193703	-0.389087	-0.130685
C115	C	0.722132	-0.806240	-0.573583
C116	C	1.222132	-0.306240	-0.073583
C117	C	0.755577	-0.778933	-0.506451
C118	C	1.255577	-0.278933	-0.006451
C119	C	0.822482	-0.778919	-0.372216
C120	C	1.322482	-0.278919	0.127784
C121	C	0.822461	-0.724319	-0.372200
C122	C	1.322461	-0.224319	0.127800
C123	C	0.788998	-0.697025	-0.439311
C124	C	1.288998	-0.197025	0.060689
C125	C	0.755555	-0.724333	-0.506436
C126	C	1.255555	-0.224333	-0.006436
C127	C	0.688670	-0.778944	-0.640705
C128	C	1.188670	-0.278944	-0.140705
C129	C	0.688656	-0.724337	-0.640690
C130	C	1.188656	-0.224337	-0.140690
C131	C	0.722101	-0.697030	-0.573559
C132	C	1.222101	-0.197030	-0.073559
C133	C	0.722071	-0.642439	-0.573531
C134	C	1.222071	-0.142439	-0.073531
N135	N	0.755517	-0.615129	-0.506411
N136	N	1.255517	-0.115129	-0.006411
C137	C	0.788981	-0.642422	-0.439301
C138	C	1.288981	-0.142422	0.060699
C139	C	0.722189	-0.975514	-0.573609
C140	C	1.222189	-0.475514	-0.073609
C141	C	0.722203	-1.030116	-0.573614
C142	C	1.222203	-0.530116	-0.073614
C143	C	0.789115	-1.030100	-0.439377
C144	C	1.289115	-0.530100	0.060623
C145	C	0.789098	-0.975497	-0.439368
C146	C	1.289098	-0.475497	0.060632
C147	C	0.755635	-0.948204	-0.506489
C148	C	1.255635	-0.448204	-0.006489
C149	C	0.788934	-0.527757	-0.439274
C150	C	1.288934	-0.027757	0.060726
C151	C	0.788908	-0.473152	-0.439261
C152	C	1.288908	0.026848	0.060739
C153	C	0.721998	-0.473173	-0.573501
C154	C	1.221998	0.026827	-0.073501
C155	C	0.722021	-0.527774	-0.573510
C156	C	1.222021	-0.027774	-0.073510
C157	C	0.755493	-0.555064	-0.506393
C158	C	1.255493	-0.055064	-0.006393
O159	O	0.693614	-0.614163	-0.630550
O160	O	1.193614	-0.114163	-0.130550
O161	O	0.817427	-0.614172	-0.382228
O162	O	1.317427	-0.114172	0.117772
C163	C	0.891895	-0.251923	-0.506477
C164	C	1.391895	0.248077	-0.006477
C165	C	0.950009	-0.251932	-0.506508
C166	C	1.450009	0.248068	-0.006508
C167	C	0.755562	-0.251850	-0.780439
C168	C	1.255562	0.248150	-0.280439
C169	C	0.755579	-0.251829	-0.897216
C170	C	1.255579	0.248171	-0.397216
C171	C	0.755625	-0.115529	-0.506476
C172	C	1.255625	0.384471	-0.006476
C173	C	0.755668	-0.057415	-0.506507
C174	C	1.255668	0.442585	-0.006507
C175	C	0.822508	-0.184969	-0.897306
C176	C	1.322508	0.315031	-0.397306
C177	C	0.855979	-0.151531	-0.952212
C178	C	1.355979	0.348469	-0.452212
C179	C	0.855992	-0.151512	-1.061933
C180	C	1.355992	0.348488	-0.561933
C181	C	0.822528	-0.184933	-1.116752
C182	C	1.322528	0.315067	-0.616752
C183	C	0.789056	-0.218371	-1.061846
C184	C	1.289056	0.281629	-0.561846
C185	C	0.789048	-0.218388	-0.952121
C186	C	1.289048	0.281612	-0.452121
C187	C	0.722126	-0.285227	-1.061756
C188	C	1.222126	0.214773	-0.561756
C189	C	0.722115	-0.285250	-0.952034
C190	C	1.222115	0.214750	-0.452034
C191	C	0.688662	-0.318648	-1.116574
C192	C	1.188662	0.181352	-0.616574
C193	C	0.655192	-0.352089	-1.061668
C194	C	1.155192	0.147911	-0.561668
C195	C	0.655181	-0.352107	-0.951940
C196	C	1.155181	0.147893	-0.451940
C197	C	0.688643	-0.318687	-0.897128
C198	C	1.188643	0.181313	-0.397128
C199	C	0.755513	-0.251915	-0.233438
C200	C	1.255513	0.248085	0.266562
C201	C	0.755597	-0.251790	-0.116661
C202	C	1.255597	0.248210	0.383339
H203	H	-0.044911	-0.312667	-0.628190
H204	H	0.455089	0.187333	-0.128190
Br205	Br	0.571325	-0.330803	-0.664414
Br206	Br	1.071325	0.169197	-0.164414
H207	H	0.816191	-0.549971	-0.384623
H208	H	1.316191	-0.049971	0.115377
H209	H	0.457418	-0.191154	-0.384680
H210	H	0.957418	0.308846	0.115320
Br211	Br	0.834299	-0.436095	-0.348146
Br212	Br	1.334299	0.063905	0.151854
Br213	Br	0.676588	-0.436121	-0.664579
Br214	Br	1.176588	0.063879	-0.164579
Br215	Br	0.901408	-0.106123	-1.136453
Br216	Br	1.401408	0.393877	-0.636453
H217	H	0.849696	-0.702088	-0.317539
H218	H	1.349696	-0.202088	0.182461
Br219	Br	0.901377	-0.106161	-0.877812
Br220	Br	1.401377	0.393839	-0.377812
H221	H	0.305330	-0.346118	-0.695167
H222	H	0.805330	0.153882	-0.195167
H223	H	0.627918	-0.379331	-0.907242
H224	H	1.127918	0.120669	-0.407242
Br225	Br	0.643241	-0.687300	-0.731793
Br226	Br	1.143241	-0.187300	-0.231793
Br227	Br	0.676619	-0.564835	-0.664592
Br228	Br	1.176619	-0.064835	-0.164592
Br229	Br	0.867905	-0.815950	-0.281127
Br230	Br	1.367905	-0.315950	0.218873
Br231	Br	0.609777	-0.397437	-1.136068
Br232	Br	1.109777	0.102563	-0.636068
H233	H	0.661433	-0.801168	-0.695366
H234	H	1.161433	-0.301168	-0.195366
H235	H	0.694935	-0.953295	-0.628264
H236	H	1.194935	-0.453295	-0.128264
H237	H	0.206260	-0.157685	-0.317705
H238	H	0.706260	0.342315	0.182295
H239	H	0.822537	-0.184910	-1.206093
H240	H	1.322537	0.315090	-0.706093
Br241	Br	0.834488	-0.938443	-0.348257
Br242	Br	1.334488	-0.438443	0.151743
Br243	Br	0.688677	-0.318622	-1.265483
Br244	Br	1.188677	0.181378	-0.765483
H245	H	0.457451	-0.312629	-0.628063
H246	H	0.957451	0.187371	-0.128063
Br247	Br	0.191469	-0.364301	-0.731618
Br248	Br	0.691469	0.135699	-0.231618
H249	H	0.816364	-1.052332	-0.384736
H250	H	1.316364	-0.552332	0.115264
Br251	Br	0.688634	-0.318713	-0.748219
Br252	Br	1.188634	0.181287	-0.248219
H253	H	0.822505	-0.184986	-0.807964
H254	H	1.322505	0.315014	-0.307964
H255	H	0.054154	-0.312664	-0.628169
H256	H	0.554154	0.187336	-0.128169
Br257	Br	-0.059742	-0.173027	-0.348399
Br258	Br	0.440258	0.326973	0.151601
Br259	Br	0.068947	-0.173005	-0.348384
Br260	Br	0.568947	0.326995	0.151616
H261	H	0.305310	-0.157672	-0.317698
H262	H	0.805310	0.342328	0.182302
Br263	Br	0.676804	-1.067169	-0.664709
Br264	Br	1.176804	-0.567169	-0.164709
H265	H	0.556486	-0.191152	-0.384652
H266	H	1.056486	0.308848	0.115348
