data_functionalizedCrystal
_audit_creation_method	'MofGen! by Chris Wilmer'
_symmetry_space_group_name_H-M	'P1'
_symmetry_Int_Tables_number	1
_symmetry_cell_setting	triclinic
loop_
_symmetry_equiv_pos_as_xyz
  x,y,z
_cell_length_a	11.792254
_cell_length_b	15.500227
_cell_length_c	11.792240
_cell_angle_alpha	92.838258
_cell_angle_beta	95.803993
_cell_angle_gamma	92.863989
loop_
_atom_site_label
_atom_site_type_symbol
_atom_site_fract_x
_atom_site_fract_y
_atom_site_fract_z
O1	O	1.512149	0.071962	-0.150399
O2	O	2.012149	0.571962	0.349601
O3	O	1.181810	0.071966	-0.166416
O4	O	1.681810	0.571966	0.333584
O5	O	1.354994	0.071938	0.006761
O6	O	1.854994	0.571938	0.506761
O7	O	1.338965	0.071990	-0.323576
O8	O	1.838965	0.571990	0.176424
O9	O	1.344484	-0.071949	-0.003706
O10	O	1.844484	0.428051	0.496294
O11	O	1.171300	-0.071921	-0.176884
O12	O	1.671300	0.428079	0.323116
O13	O	1.501639	-0.071925	-0.160866
O14	O	2.001639	0.428075	0.339134
Cu15	Cu	1.335510	-0.085061	-0.169830
Cu16	Cu	1.835510	0.414939	0.330170
Cu17	Cu	1.347939	0.085102	-0.157452
Cu18	Cu	1.847939	0.585102	0.342548
O19	O	1.328455	-0.071897	-0.334043
O20	O	1.828455	0.428103	0.165957
C21	C	1.134264	0.000023	-0.170641
C22	C	1.634264	0.500023	0.329359
C23	C	1.008251	0.000023	-0.167621
C24	C	1.508251	0.500023	0.332379
N25	N	1.326777	-0.204744	-0.178536
N26	N	1.826777	0.295256	0.321464
C27	C	0.905915	0.000026	-0.165167
C28	C	1.405915	0.500026	0.334833
C29	C	0.777528	0.000026	-0.162098
C30	C	1.277528	0.500026	0.337902
C31	C	1.400187	-0.250033	-0.105183
C32	C	1.900187	0.249967	0.394817
C33	C	1.393592	-0.340605	-0.111777
C34	C	1.893592	0.159395	0.388223
C35	C	1.313593	-0.385886	-0.191732
C36	C	1.813593	0.114114	0.308268
C37	C	1.240175	-0.340591	-0.265089
C38	C	1.740175	0.159409	0.234911
C39	C	1.246765	-0.250021	-0.258488
C40	C	1.746765	0.249979	0.241512
C41	C	1.289853	-0.659349	-0.215493
C42	C	1.789853	-0.159349	0.284507
C43	C	1.283271	-0.749926	-0.222091
C44	C	1.783271	-0.249926	0.277909
C45	C	1.436688	-0.749933	-0.068777
C46	C	1.936688	-0.249933	0.431223
C47	C	1.443275	-0.659361	-0.062187
C48	C	1.943275	-0.159361	0.437813
C49	C	1.369854	-0.614074	-0.135540
C50	C	1.869854	-0.114074	0.364460
C51	C	1.306853	-0.478465	-0.198477
C52	C	1.806853	0.021535	0.301523
C53	C	1.376589	-0.521497	-0.128789
C54	C	1.876589	-0.021497	0.371211
C55	C	1.549185	0.000020	-0.156641
C56	C	2.049185	0.500020	0.343359
C57	C	1.675198	0.000026	-0.159661
C58	C	2.175198	0.500026	0.340339
C59	C	1.348732	-0.000011	0.043818
C60	C	1.848732	0.499989	0.543818
C61	C	1.345716	-0.000025	0.169831
C62	C	1.845716	0.499975	0.669831
N63	N	1.356681	0.204786	-0.148737
N64	N	1.856681	0.704786	0.351263
C65	C	1.340172	-0.000039	0.400542
C66	C	1.840172	0.499961	0.900542
C67	C	1.343253	-0.000031	0.272157
C68	C	1.843253	0.499969	0.772157
C69	C	1.334715	0.000023	0.628898
C70	C	1.834715	0.500023	1.128898
C71	C	1.337725	-0.000049	0.502879
C72	C	1.837725	0.499951	1.002879
H73	H	1.465335	-0.213171	-0.040080
H74	H	1.965335	0.286829	0.459920
H75	H	1.508417	-0.622495	0.002918
H76	H	2.008417	-0.122495	0.502918
H77	H	1.441721	-0.484626	-0.063685
H78	H	1.941721	0.015374	0.436315
H79	H	1.241717	-0.515341	-0.263580
H80	H	1.741717	-0.015341	0.236420
H81	H	1.453368	-0.377478	-0.052046
H82	H	1.953368	0.122522	0.447954
H83	H	1.218123	-0.786790	-0.287204
H84	H	1.718123	-0.286790	0.212796
H85	H	1.496463	-0.786814	-0.009055
H86	H	1.996463	-0.286814	0.490945
H87	H	1.230072	-0.622484	-0.275222
H88	H	1.730072	-0.122484	0.224778
H89	H	1.175032	-0.377465	-0.330186
H90	H	1.675032	0.122535	0.169814
H91	H	1.186985	-0.213148	-0.318219
H92	H	1.686985	0.286852	0.181781
