data_functionalizedCrystal
_audit_creation_method	'MofGen! by Chris Wilmer'
_symmetry_space_group_name_H-M	'P1'
_symmetry_Int_Tables_number	1
_symmetry_cell_setting	triclinic
loop_
_symmetry_equiv_pos_as_xyz
  x,y,z
_cell_length_a	15.995300
_cell_length_b	23.532357
_cell_length_c	14.472311
_cell_angle_alpha	90.001980
_cell_angle_beta	90.007636
_cell_angle_gamma	83.150049
loop_
_atom_site_label
_atom_site_type_symbol
_atom_site_fract_x
_atom_site_fract_y
_atom_site_fract_z
O1	O	1.110386	0.073266	0.076886
O2	O	0.866527	0.082361	0.076882
O3	O	0.995832	-0.005093	0.076865
O4	O	0.981081	0.160720	0.076903
O5	O	0.995815	-0.005081	-0.076817
O6	O	0.866510	0.082372	-0.076800
O7	O	1.110369	0.073277	-0.076796
Cu8	Cu	0.988438	0.077826	-0.090830
Cu9	Cu	0.988458	0.077812	0.090917
O10	O	0.981064	0.160731	-0.076779
C11	C	0.835326	0.081996	0.000040
C12	C	0.742383	0.080884	0.000038
C13	C	0.572218	0.078830	0.000044
C14	C	0.524217	0.141099	0.000056
C15	C	0.427539	0.139963	0.000407
C16	C	0.404678	0.076808	0.000050
C17	C	0.446086	0.045908	0.087630
C18	C	0.542706	0.047484	0.087701
C19	C	0.542973	0.046575	-0.087070
C20	C	0.446029	0.046581	-0.088219
C21	C	0.309993	0.075663	0.000056
C22	C	0.666903	0.079974	0.000045
C23	C	0.995454	-0.026305	0.000021
C24	C	0.994345	-0.089528	0.000013
C25	C	0.987390	-0.481571	0.083835
C26	C	0.986336	-0.540975	0.083840
O27	O	0.985770	-0.571698	0.155085
N28	N	0.985804	-0.570682	0.000069
C29	C	0.986317	-0.540981	-0.083713
O30	O	0.985767	-0.571704	-0.154966
C31	C	0.987366	-0.481578	-0.083717
C32	C	0.987907	-0.451875	0.000059
C33	C	0.987930	-0.451868	0.167604
C34	C	0.988986	-0.392469	0.167598
C35	C	0.989502	-0.362773	0.083823
C36	C	0.988963	-0.392476	0.000054
C37	C	0.987873	-0.451879	-0.167498
C38	C	0.988921	-0.392472	-0.167495
C39	C	0.989462	-0.362769	-0.083718
C40	C	0.990535	-0.303381	-0.083727
N41	N	0.991067	-0.273674	0.000044
C42	C	0.990551	-0.303370	0.083819
C43	C	0.984114	-0.665731	-0.083697
C44	C	0.983071	-0.725133	-0.083694
C45	C	0.983089	-0.725123	0.083859
C46	C	0.984137	-0.665720	0.083855
C47	C	0.984646	-0.636024	0.000074
C48	C	0.992769	-0.178628	0.083801
C49	C	0.993829	-0.119224	0.083788
C50	C	0.993807	-0.119239	-0.083764
C51	C	0.992752	-0.178639	-0.083752
C52	C	0.992230	-0.208331	0.000038
O53	O	0.991098	-0.272619	-0.154936
O54	O	0.991090	-0.272639	0.155060
C55	C	1.141570	0.073642	0.000048
C56	C	1.234513	0.074755	0.000057
C57	C	0.981442	0.181943	0.000067
C58	C	0.982551	0.245166	0.000082
N59	N	0.988429	0.077835	-0.218661
C60	C	0.988444	0.077822	-0.407161
C61	C	0.919245	0.124600	-0.446383
C62	C	0.919010	0.124473	-0.553471
C63	C	0.988458	0.077811	-0.592752
C64	C	0.970244	0.018317	-0.553876
C65	C	0.969739	0.018598	-0.446755
C66	C	1.076074	0.090002	-0.446615
C67	C	1.075483	0.091345	-0.553744
C68	C	0.988468	0.077801	-0.697641
C69	C	0.988433	0.077829	-0.302273
N70	N	0.988473	0.077799	0.218747
H71	H	0.398861	0.164242	-0.062359
H72	H	0.431085	0.000537	-0.093777
H73	H	0.905857	0.007900	-0.421790
C74	C	0.548900	0.174916	-0.084765
H75	H	0.588704	0.151365	-0.120945
H76	H	0.500199	0.186441	-0.120833
H77	H	0.573047	0.207803	-0.064841
H78	H	0.994231	-0.095051	-0.151972
H79	H	0.575148	0.000665	-0.087923
H80	H	0.929773	0.168968	-0.420623
C81	C	0.989577	-0.359800	0.259751
H82	H	0.990284	-0.320168	0.247762
H83	H	0.940575	-0.365185	0.294172
H84	H	1.038250	-0.373891	0.294168
C85	C	0.933493	0.184204	-0.588986
H86	H	0.939568	0.208767	-0.537945
H87	H	0.983134	0.181197	-0.625560
H88	H	0.886696	0.199505	-0.625349
H89	H	0.982666	-0.749311	0.152073
C90	C	1.100003	0.147375	-0.410123
H91	H	1.153075	0.153906	-0.434758
H92	H	1.058454	0.177496	-0.428493
H93	H	1.103252	0.146117	-0.344597
H94	H	0.418488	0.069146	-0.153012
C95	C	0.831863	0.114205	-0.410061
H96	H	0.837370	0.081481	-0.371100
H97	H	0.808082	0.146675	-0.375988
H98	H	0.796233	0.108035	-0.460695
H99	H	0.982644	-0.749314	-0.151913
C100	C	0.427574	-0.016778	0.091694
H101	H	0.394344	-0.024680	0.039893
H102	H	0.479084	-0.041466	0.090735
H103	H	0.397854	-0.022859	0.146960
H104	H	1.018269	-0.017268	-0.420808
C105	C	0.570408	0.074279	-0.176775
H106	H	0.599956	0.105779	-0.161935
H107	H	0.606111	0.046879	-0.211204
H108	H	0.522070	0.087284	-0.212519
H109	H	0.853969	0.116664	-0.579118
C110	C	0.987371	-0.484525	0.259765
H111	H	0.987850	-0.458320	0.309646
H112	H	0.938132	-0.503351	0.263267
H113	H	1.035808	-0.512046	0.263249
H114	H	1.089317	0.135117	-0.579137
C115	C	1.036597	-0.029856	-0.588200
H116	H	1.024400	-0.065445	-0.563861
H117	H	1.035478	-0.031249	-0.653783
H118	H	1.090862	-0.022595	-0.568104
C119	C	0.586843	-0.014282	0.092738
H120	H	0.646137	-0.013739	0.092810
H121	H	0.570439	-0.031952	0.147778
H122	H	0.571189	-0.035259	0.040720
C123	C	0.984724	-0.633051	0.176007
H124	H	0.984262	-0.659249	0.225897
H125	H	1.033966	-0.614226	0.179494
H126	H	0.936290	-0.605529	0.179491
H127	H	1.129331	0.059498	-0.580482
C128	C	0.550417	0.174395	0.084790
H129	H	0.590479	0.150512	0.120161
H130	H	0.574651	0.207226	0.064800
H131	H	0.502279	0.185977	0.121698
C132	C	0.389639	0.172624	0.085709
H133	H	0.433338	0.186633	0.120289
H134	H	0.350383	0.203827	0.066294
H135	H	0.361824	0.147562	0.123177
C136	C	0.984690	-0.633072	-0.175862
H137	H	0.984230	-0.659277	-0.225747
H138	H	0.936266	-0.605547	-0.179358
H139	H	1.033942	-0.614254	-0.179347
C140	C	0.987270	-0.484538	-0.259653
H141	H	0.987716	-0.458336	-0.309539
H142	H	1.035690	-0.512066	-0.263153
H143	H	0.938015	-0.503354	-0.263132
H144	H	1.127561	0.055893	-0.421244
H145	H	0.417526	0.067083	0.153062
H146	H	0.994271	-0.095042	0.152012
C147	C	0.989482	-0.359807	-0.259654
H148	H	0.990180	-0.320174	-0.247665
H149	H	1.038137	-0.373898	-0.294079
H150	H	0.940461	-0.365192	-0.294067
H151	H	0.907106	0.007357	-0.580732
H152	H	0.992320	-0.202825	-0.151970
H153	H	0.560841	0.069744	0.153427
C154	C	0.992219	-0.211283	0.175968
H155	H	0.992704	-0.185080	0.225850
H156	H	0.942980	-0.230109	0.179476
H157	H	1.040655	-0.238804	0.179442
