data_functionalizedCrystal
_audit_creation_method	'MofGen! by Chris Wilmer'
_symmetry_space_group_name_H-M	'P1'
_symmetry_Int_Tables_number	1
_symmetry_cell_setting	triclinic
loop_
_symmetry_equiv_pos_as_xyz
  x,y,z
_cell_length_a	16.109301
_cell_length_b	10.654546
_cell_length_c	15.186229
_cell_angle_alpha	89.998817
_cell_angle_beta	89.999362
_cell_angle_gamma	96.027498
loop_
_atom_site_label
_atom_site_type_symbol
_atom_site_fract_x
_atom_site_fract_y
_atom_site_fract_z
O1	O	1.104089	-0.161419	-0.073163
O2	O	0.862146	-0.181508	-0.073176
O3	O	0.988682	0.011352	-0.073174
O4	O	0.977553	-0.354278	-0.073165
O5	O	0.988673	0.011354	0.073283
O6	O	0.862138	-0.181505	0.073281
O7	O	1.104081	-0.161416	0.073294
Zn8	Zn	0.983108	-0.171460	0.096541
Zn9	Zn	0.983119	-0.171464	-0.096423
O10	O	0.977545	-0.354276	0.073293
C11	C	0.831162	-0.180692	0.000051
C12	C	0.738853	-0.178253	0.000046
C13	C	0.987861	0.058140	0.000051
C14	C	0.985418	0.197550	0.000041
C15	C	0.517226	-0.287019	0.000059
C16	C	0.430492	-0.284717	0.000064
C17	C	0.449008	-0.055896	0.000054
C18	C	0.535740	-0.058200	0.000055
C19	C	0.569847	-0.173765	0.000053
C20	C	0.396380	-0.169159	0.000058
C21	C	0.302339	-0.166662	0.000064
C22	C	0.663893	-0.176262	0.000048
C23	C	1.059920	0.278047	0.000044
C24	C	1.057620	0.409037	0.000032
C25	C	0.906309	0.379020	0.000017
C26	C	0.908610	0.248033	0.000023
C27	C	1.136728	0.227564	0.000063
C28	C	1.211236	0.308062	0.000067
C29	C	1.208936	0.439052	0.000054
C30	C	1.132127	0.489544	0.000038
C31	C	1.135064	-0.162231	0.000065
C32	C	1.227374	-0.164671	0.000065
N33	N	0.983106	-0.171457	0.228234
C34	C	0.978368	0.598936	0.000054
C35	C	0.980817	0.459527	0.000023
N36	N	0.983127	-0.171457	-0.228115
C37	C	1.039156	-0.086088	0.453957
C38	C	1.039158	-0.086085	0.546147
C39	C	0.927072	-0.256830	0.546155
C40	C	0.927066	-0.256826	0.453967
C41	C	0.983112	-0.171456	0.407870
C42	C	0.983121	-0.171458	0.592248
C43	C	0.983123	-0.171455	0.692204
C44	C	0.983109	-0.171457	0.307908
H45	H	0.387651	-0.376940	0.000071
C46	C	0.554745	-0.414136	0.000064
C47	C	0.611827	-0.447178	0.076116
C48	C	0.649344	-0.574298	0.076124
C49	C	0.629779	-0.668377	0.000080
C50	C	0.572694	-0.635338	-0.075977
C51	C	0.535178	-0.508217	-0.075985
H52	H	0.626313	-0.377533	0.132413
H53	H	0.691602	-0.598756	0.132427
H54	H	0.657552	-0.762479	0.000086
H55	H	0.558209	-0.704982	-0.132274
H56	H	0.492920	-0.483760	-0.132288
H57	H	1.084792	-0.016568	0.583668
H58	H	0.421227	0.038193	0.000062
H59	H	0.578586	0.034032	0.000053
C60	C	1.295721	0.252526	0.000081
C61	C	1.318105	0.166616	0.076143
C62	C	1.402592	0.111083	0.076156
C63	C	1.464695	0.141460	0.000107
C64	C	1.442313	0.227375	-0.075961
C65	C	1.357826	0.282907	-0.075974
H66	H	1.272131	0.144125	0.132444
H67	H	1.419160	0.047483	0.132467
H68	H	1.527238	0.100351	0.000117
H69	H	1.488287	0.249866	-0.132262
H70	H	1.341258	0.346507	-0.132285
C71	C	0.865429	-0.350744	0.596861
C72	C	0.865477	-0.350828	0.698264
C73	C	0.803834	-0.444748	0.748967
C74	C	0.742143	-0.538584	0.698267
C75	C	0.742092	-0.538504	0.596858
C76	C	0.803735	-0.444584	0.546155
H77	H	0.911146	-0.281362	0.735800
H78	H	0.803871	-0.444808	0.824037
H79	H	0.696511	-0.608110	0.735801
H80	H	0.696423	-0.607970	0.559322
H81	H	0.803698	-0.444525	0.471086
H82	H	1.138610	0.120907	0.000075
H83	H	1.269603	0.504590	0.000049
H84	H	1.130260	0.596206	0.000019
C85	C	0.826660	0.159474	0.000020
C86	C	0.763938	0.165095	-0.076038
C87	C	0.681987	0.076533	-0.076048
C88	C	0.662758	-0.017650	0.000002
C89	C	0.725483	-0.023275	0.076066
C90	C	0.807434	0.065287	0.076075
H91	H	0.778170	0.234819	-0.132340
H92	H	0.635554	0.080698	-0.132356
H93	H	0.602093	-0.083208	-0.000005
H94	H	0.711250	-0.092998	0.132368
H95	H	0.853866	0.061122	0.132383
H96	H	0.843775	0.420142	0.000005
H97	H	1.084791	-0.016573	0.416428
H98	H	0.881425	-0.326344	0.416440
