data_functionalizedCrystal
_audit_creation_method	'MofGen! by Chris Wilmer'
_symmetry_space_group_name_H-M	'P1'
_symmetry_Int_Tables_number	1
_symmetry_cell_setting	triclinic
loop_
_symmetry_equiv_pos_as_xyz
  x,y,z
_cell_length_a	19.805407
_cell_length_b	18.101395
_cell_length_c	19.805399
_cell_angle_alpha	89.974882
_cell_angle_beta	89.980427
_cell_angle_gamma	90.031104
loop_
_atom_site_label
_atom_site_type_symbol
_atom_site_fract_x
_atom_site_fract_y
_atom_site_fract_z
Zn1	Zn	1.034714	-0.294847	-0.382731
Zn2	Zn	1.368047	0.038487	-0.049398
Zn3	Zn	1.701380	0.371820	0.283935
Zn4	Zn	1.034619	-0.418690	-0.269548
Zn5	Zn	1.367952	-0.085357	0.063786
Zn6	Zn	1.701286	0.247976	0.397119
Zn7	Zn	0.921528	-0.294867	-0.269556
Zn8	Zn	1.254862	0.038466	0.063778
Zn9	Zn	1.588195	0.371799	0.397111
Zn10	Zn	0.921482	-0.418651	-0.382695
Zn11	Zn	1.254816	-0.085318	-0.049361
Zn12	Zn	1.588149	0.248016	0.283972
O13	O	0.978086	-0.356764	-0.326132
O14	O	1.311419	-0.023430	0.007201
O15	O	1.644753	0.309903	0.340534
O16	O	1.129418	-0.311283	-0.367729
O17	O	1.462751	0.022051	-0.034396
O18	O	1.796084	0.355384	0.298937
O19	O	1.019597	-0.402290	-0.174832
O20	O	1.352930	-0.068957	0.158501
O21	O	1.686264	0.264377	0.491834
O22	O	0.936601	-0.191232	-0.284587
O23	O	1.269935	0.142102	0.048746
O24	O	1.603268	0.475435	0.382079
O25	O	1.129348	-0.402270	-0.284574
O26	O	1.462682	-0.068937	0.048759
O27	O	1.796015	0.264397	0.382093
O28	O	1.019758	-0.191217	-0.367737
O29	O	1.353091	0.142117	-0.034404
O30	O	1.686425	0.475450	0.298930
O31	O	0.936510	-0.311318	-0.174838
O32	O	1.269843	0.022016	0.158495
O33	O	1.603176	0.355349	0.491829
O34	O	0.826806	-0.311279	-0.284552
O35	O	1.160139	0.022054	0.048781
O36	O	1.493472	0.355387	0.382115
O37	O	0.936523	-0.402203	-0.477416
O38	O	1.269857	-0.068870	-0.144083
O39	O	1.603190	0.264464	0.189251
O40	O	0.826772	-0.402223	-0.367674
O41	O	1.160105	-0.068890	-0.034341
O42	O	1.493439	0.264444	0.298992
O43	O	1.019714	-0.311245	-0.477443
O44	O	1.353047	0.022089	-0.144110
O45	O	1.686380	0.355422	0.189224
O46	O	1.019553	-0.522318	-0.284538
O47	O	1.352886	-0.188985	0.048795
O48	O	1.686219	0.144349	0.382128
O49	O	0.936432	-0.522289	-0.367667
O50	O	1.269765	-0.188956	-0.034333
O51	O	1.603098	0.144378	0.299000
C52	C	0.802230	-0.356750	-0.326110
C53	C	1.135563	-0.023416	0.007223
C54	C	1.468897	0.309917	0.340556
C55	C	0.726998	-0.356761	-0.326117
C56	C	1.060331	-0.023428	0.007216
C57	C	1.393665	0.309905	0.340549
C58	C	0.977995	-0.549174	-0.326112
C59	C	1.311329	-0.215841	0.007221
C60	C	1.644662	0.117492	0.340554
C61	C	0.978018	-0.631489	-0.326127
C62	C	1.311352	-0.298155	0.007207
C63	C	1.644685	0.035178	0.340540
C64	C	0.691654	-0.404187	-0.369329
C65	C	1.024987	-0.070854	-0.035996
C66	C	1.358321	0.262480	0.297338
C67	C	0.620965	-0.404188	-0.369339
C68	C	0.954299	-0.070855	-0.036005
C69	C	1.287632	0.262478	0.297328
C70	C	0.585622	-0.356767	-0.326132
C71	C	0.918956	-0.023434	0.007201
C72	C	1.252289	0.309899	0.340534
C73	C	0.620971	-0.309336	-0.282919
C74	C	0.954305	0.023997	0.050415
C75	C	1.287638	0.357330	0.383748
C76	C	0.691658	-0.309332	-0.282913
C77	C	1.024992	0.024001	0.050420
C78	C	1.358325	0.357335	0.383754
C79	C	0.335898	-0.309353	-0.282941
C80	C	0.669231	0.023981	0.050392
C81	C	1.002565	0.357314	0.383726
C82	C	0.265206	-0.309363	-0.282948
C83	C	0.598539	0.023971	0.050385
C84	C	0.931872	0.357304	0.383718
C85	C	0.265205	-0.404209	-0.369367
C86	C	0.598538	-0.070876	-0.036033
C87	C	0.931872	0.262458	0.297300
C88	C	0.335892	-0.404205	-0.369361
C89	C	0.669226	-0.070871	-0.036028
C90	C	1.002559	0.262462	0.297306
C91	C	0.371235	-0.356771	-0.326150
C92	C	0.704568	-0.023438	0.007183
C93	C	1.037902	0.309895	0.340517
C94	C	0.447883	-0.356770	-0.326141
C95	C	0.781217	-0.023436	0.007192
C96	C	1.114550	0.309897	0.340526
C97	C	0.508975	-0.356772	-0.326137
C98	C	0.842308	-0.023439	0.007196
C99	C	1.175642	0.309894	0.340529
C100	C	0.978167	-0.930579	-0.326163
C101	C	1.311500	-0.597246	0.007170
C102	C	1.644834	-0.263913	0.340504
C103	C	0.925991	-0.899267	-0.378595
C104	C	1.259324	-0.565934	-0.045262
C105	C	1.592657	-0.232600	0.288072
C106	C	0.925743	-0.813649	-0.378431
C107	C	1.259076	-0.480316	-0.045098
C108	C	1.592410	-0.146982	0.288236
C109	C	0.978093	-0.782197	-0.326146
C110	C	1.311427	-0.448864	0.007188
C111	C	1.644760	-0.115530	0.340521
C112	C	0.958782	-0.813345	-0.254811
C113	C	1.292116	-0.480012	0.078522
C114	C	1.625449	-0.146679	0.411856
C115	C	0.958446	-0.898990	-0.255125
C116	C	1.291779	-0.565657	0.078209
C117	C	1.625113	-0.232324	0.411542
C118	C	1.049768	-0.898924	-0.344438
C119	C	1.383102	-0.565591	-0.011104
C120	C	1.716435	-0.232257	0.322229
C121	C	1.049347	-0.813273	-0.346002
C122	C	1.382681	-0.479940	-0.012669
C123	C	1.716014	-0.146606	0.320665
C124	C	0.978053	-0.698337	-0.326131
C125	C	1.311386	-0.365004	0.007202
C126	C	1.644719	-0.031671	0.340535
C127	C	0.978206	-1.014439	-0.326173
C128	C	1.311539	-0.681105	0.007161
C129	C	1.644873	-0.347772	0.340494
C130	C	1.154629	-0.356779	-0.326155
C131	C	1.487962	-0.023445	0.007179
C132	C	1.821295	0.309888	0.340512
C133	C	1.229861	-0.356785	-0.326164
C134	C	1.563194	-0.023452	0.007169
C135	C	1.896527	0.309882	0.340502
C136	C	0.978124	-0.356717	-0.502675
C137	C	1.311457	-0.023384	-0.169342
C138	C	1.644791	0.309949	0.163992
C139	C	0.978140	-0.356697	-0.577907
C140	C	1.311473	-0.023364	-0.244574
C141	C	1.644807	0.309969	0.088759
C142	C	0.978195	-0.163602	-0.326167
C143	C	1.311529	0.169731	0.007166
C144	C	1.644862	0.503065	0.340500
C145	C	0.978242	-0.081288	-0.326182
C146	C	1.311575	0.252046	0.007151
C147	C	1.644908	0.585379	0.340485
C148	C	1.021458	-0.309333	-0.613266
C149	C	1.354792	0.024000	-0.279933
C150	C	1.688125	0.357334	0.053400
C151	C	1.021465	-0.309311	-0.683955
C152	C	1.354799	0.024022	-0.350622
C153	C	1.688132	0.357355	-0.017288
C154	C	0.978157	-0.356659	-0.719283
C155	C	1.311490	-0.023325	-0.385950
C156	C	1.644824	0.310008	-0.052616
C157	C	0.934834	-0.404025	-0.683919
C158	C	1.268167	-0.070692	-0.350585
C159	C	1.601501	0.262642	-0.017252
C160	C	0.934824	-0.404042	-0.613231
C161	C	1.268157	-0.070709	-0.279898
C162	C	1.601491	0.262624	0.053435
C163	C	0.934872	-0.403956	-0.968992
C164	C	1.268205	-0.070623	-0.635659
C165	C	1.601539	0.262711	-0.302325
C166	C	0.934887	-0.403937	-1.039684
C167	C	1.268220	-0.070603	-0.706351
C168	C	1.601553	0.262730	-0.373018
C169	C	1.021513	-0.309225	-1.039716
C170	C	1.354847	0.024108	-0.706382
C171	C	1.688180	0.357441	-0.373049
C172	C	1.021503	-0.309242	-0.969028
C173	C	1.354837	0.024091	-0.635695
C174	C	1.688170	0.357424	-0.302362
C175	C	0.978178	-0.356606	-0.933670
C176	C	1.311512	-0.023272	-0.600337
C177	C	1.644845	0.310061	-0.267004
C178	C	0.978170	-0.356628	-0.857022
C179	C	1.311504	-0.023294	-0.523689
C180	C	1.644837	0.310039	-0.190355
C181	C	0.978168	-0.356641	-0.795930
C182	C	1.311501	-0.023308	-0.462597
C183	C	1.644834	0.310025	-0.129263
C184	C	0.978087	-0.356757	-0.150276
C185	C	1.311420	-0.023424	0.183057
C186	C	1.644754	0.309910	0.516390
C187	C	0.978202	-0.356568	-0.075045
C188	C	1.311535	-0.023235	0.258289
C189	C	1.644869	0.310099	0.591622
H190	H	0.592192	-0.442808	-0.404525
H191	H	0.925525	-0.109474	-0.071192
H192	H	1.258858	0.223859	0.262141
H193	H	0.592189	-0.270722	-0.247742
H194	H	0.925522	0.062611	0.085591
H195	H	1.258856	0.395944	0.418924
H196	H	0.236420	-0.442829	-0.404554
H197	H	0.569754	-0.109495	-0.071220
H198	H	0.903087	0.223838	0.262113
O199	O	0.888091	-0.455120	-0.575094
O200	O	1.221425	-0.121787	-0.241761
O201	O	1.554758	0.211547	0.091573
H202	H	0.899662	-0.513244	-0.588643
H203	H	1.232995	-0.179911	-0.255310
H204	H	1.566329	0.153422	0.078023
O205	O	0.374000	-0.258200	-0.236322
O206	O	0.707334	0.075134	0.097011
O207	O	1.040667	0.408467	0.430344
H208	H	0.406230	-0.220548	-0.266664
H209	H	0.739564	0.112785	0.066669
H210	H	1.072897	0.446118	0.400003
O211	O	0.888116	-0.455090	-0.722017
O212	O	1.221450	-0.121757	-0.388684
O213	O	1.554783	0.211576	-0.055350
H214	H	0.895403	-0.447126	-0.777111
H215	H	1.228737	-0.113793	-0.443778
H216	H	1.562070	0.219541	-0.110445
H217	H	0.364665	-0.442822	-0.404542
H218	H	0.697998	-0.109489	-0.071208
H219	H	1.031332	0.223844	0.262125
H220	H	1.067374	-0.920474	-0.395569
H221	H	1.400708	-0.587141	-0.062235
H222	H	1.734041	-0.253807	0.271098
O223	O	0.856114	-0.927853	-0.362769
O224	O	1.189447	-0.594520	-0.029436
O225	O	1.522780	-0.261187	0.303898
H226	H	0.821982	-0.880578	-0.352417
H227	H	1.155315	-0.547245	-0.019084
H228	H	1.488649	-0.213912	0.314249
H229	H	0.720435	-0.270709	-0.247729
H230	H	1.053768	0.062624	0.085604
H231	H	1.387101	0.395957	0.418938
O232	O	1.068219	-0.258179	-0.930926
O233	O	1.401552	0.075155	-0.597593
O234	O	1.734886	0.408488	-0.264259
H235	H	1.037943	-0.220510	-0.898717
H236	H	1.371276	0.112823	-0.565384
H237	H	1.704610	0.446157	-0.232050
H238	H	0.899617	-0.442494	-1.068446
H239	H	1.232950	-0.109161	-0.735113
H240	H	1.566284	0.224173	-0.401780
H241	H	0.937825	-0.792587	-0.431325
H242	H	1.271158	-0.459254	-0.097992
H243	H	1.604491	-0.125920	0.235342
O244	O	0.729774	-0.455331	-0.415933
O245	O	1.063107	-0.121998	-0.082600
O246	O	1.396440	0.211335	0.250734
H247	H	0.693318	-0.488303	-0.445988
H248	H	1.026651	-0.154969	-0.112655
H249	H	1.359985	0.178364	0.220679
O250	O	1.101330	-0.925738	-0.293922
O251	O	1.434663	-0.592404	0.039411
O252	O	1.767996	-0.259071	0.372745
H253	H	1.140959	-0.957837	-0.320538
H254	H	1.474292	-0.624503	0.012796
H255	H	1.807626	-0.291170	0.346129
H256	H	0.872670	-0.793225	-0.366326
H257	H	1.206004	-0.459892	-0.032992
H258	H	1.539337	-0.126559	0.300341
O259	O	1.068226	-0.258116	-1.077850
O260	O	1.401560	0.075218	-0.744517
O261	O	1.734893	0.408551	-0.411184
H262	H	1.060950	-0.266043	-1.132939
H263	H	1.394283	0.067290	-0.799605
H264	H	1.727617	0.400623	-0.466272
H265	H	0.236431	-0.270742	-0.247765
H266	H	0.569765	0.062591	0.085569
H267	H	0.903098	0.395925	0.418902
O268	O	0.889117	-0.925549	-0.234626
O269	O	1.222450	-0.592215	0.098708
O270	O	1.555783	-0.258882	0.432041
H271	H	0.856144	-0.877220	-0.224586
H272	H	1.189478	-0.543887	0.108748
H273	H	1.522811	-0.210553	0.442081
O274	O	0.888111	-0.455000	-0.930859
O275	O	1.221444	-0.121667	-0.597526
O276	O	1.554778	0.211666	-0.264192
H277	H	0.857991	-0.487910	-0.967303
H278	H	1.191324	-0.154576	-0.633969
H279	H	1.524657	0.178757	-0.300636
O280	O	0.941584	-0.926842	-0.448827
O281	O	1.274918	-0.593509	-0.115494
O282	O	1.608251	-0.260176	0.217840
H283	H	0.986720	-0.963114	-0.447125
H284	H	1.320054	-0.629781	-0.113792
H285	H	1.653387	-0.296448	0.219541
H286	H	0.994801	-0.919706	-0.214727
H287	H	1.328134	-0.586373	0.118607
H288	H	1.661467	-0.253039	0.451940
H289	H	0.995590	-0.792973	-0.214680
H290	H	1.328923	-0.459640	0.118654
H291	H	1.662256	-0.126307	0.451987
H292	H	0.906997	-0.791960	-0.239053
H293	H	1.240330	-0.458626	0.094280
H294	H	1.573663	-0.125293	0.427614
H295	H	1.063910	-0.792912	-0.398501
H296	H	1.397243	-0.459579	-0.065167
H297	H	1.730576	-0.126245	0.268166
O298	O	1.103566	-0.784943	-0.299088
O299	O	1.436900	-0.451609	0.034246
O300	O	1.770233	-0.118276	0.367579
H301	H	1.080471	-0.748107	-0.260714
H302	H	1.413804	-0.414773	0.072620
H303	H	1.747138	-0.081440	0.405953
H304	H	1.056741	-0.270744	-0.712741
H305	H	1.390074	0.062589	-0.379408
H306	H	1.723408	0.395922	-0.046075
H307	H	1.056727	-0.270779	-0.584508
H308	H	1.390060	0.062554	-0.251174
H309	H	1.723394	0.395887	0.082159
