data_functionalizedCrystal
_audit_creation_method	'MofGen! by Chris Wilmer'
_symmetry_space_group_name_H-M	'P1'
_symmetry_Int_Tables_number	1
_symmetry_cell_setting	triclinic
loop_
_symmetry_equiv_pos_as_xyz
  x,y,z
_cell_length_a	14.044220
_cell_length_b	14.044220
_cell_length_c	8.140239
_cell_angle_alpha	89.995422
_cell_angle_beta	90.002157
_cell_angle_gamma	93.188878
loop_
_atom_site_label
_atom_site_type_symbol
_atom_site_fract_x
_atom_site_fract_y
_atom_site_fract_z
O1	O	1.277166	0.230166	-0.136445
O2	O	1.777166	0.730166	0.363555
O3	O	1.000494	0.221860	-0.136487
O4	O	1.500494	0.721860	0.363513
O5	O	1.134677	0.087677	-0.136450
O6	O	1.634677	0.587677	0.363550
O7	O	1.142983	0.364349	-0.136482
O8	O	1.642983	0.864349	0.363518
O9	O	1.134669	0.087675	0.136777
O10	O	1.634669	0.587675	0.636777
O11	O	1.000486	0.221858	0.136740
O12	O	1.500486	0.721858	0.636740
O13	O	1.277157	0.230164	0.136782
O14	O	1.777157	0.730164	0.636782
Zn15	Zn	1.138820	0.226010	0.180142
Zn16	Zn	1.638820	0.726010	0.680142
Zn17	Zn	1.138831	0.226013	-0.179847
Zn18	Zn	1.638831	0.726013	0.320153
O19	O	1.142974	0.364346	0.136746
O20	O	1.642974	0.864346	0.636746
C21	C	0.964868	0.218223	0.000122
C22	C	1.464868	0.718223	0.500122
C23	C	0.858725	0.207379	0.000106
C24	C	1.358725	0.707379	0.500106
C25	C	0.664388	0.187553	0.000141
C26	C	1.164388	0.687553	0.500141
C27	C	0.613258	0.264467	0.000140
C28	C	1.113258	0.764467	0.500140
C29	C	0.505122	0.253435	0.000159
C30	C	1.005122	0.753435	0.500159
C31	C	0.772534	0.198583	0.000122
C32	C	1.272534	0.698583	0.500122
C33	C	1.131037	0.052054	0.000163
C34	C	1.631037	0.552054	0.500163
C35	C	1.120193	-0.054088	0.000164
C36	C	1.620193	0.445912	0.500164
C37	C	1.100366	-0.248426	0.000137
C38	C	1.600366	0.251574	0.500137
C39	C	1.177281	-0.299556	0.000144
C40	C	1.677281	0.200444	0.500144
C41	C	1.166249	-0.407692	0.000129
C42	C	1.666249	0.092308	0.500129
C43	C	1.111397	-0.140280	0.000152
C44	C	1.611397	0.359720	0.500152
C45	C	1.312783	0.233800	0.000170
C46	C	1.812783	0.733800	0.500170
C47	C	1.418926	0.244645	0.000174
C48	C	1.918926	0.744645	0.500174
C49	C	1.146614	0.399969	0.000128
C50	C	1.646614	0.899969	0.500128
C51	C	1.157459	0.506112	0.000117
C52	C	1.657459	1.006112	0.500117
N53	N	1.138820	0.226008	0.425824
N54	N	1.638820	0.726008	0.925824
N55	N	1.138839	0.226009	-0.425529
N56	N	1.638839	0.726009	0.074471
H57	H	0.650697	0.338600	0.000123
H58	H	1.150697	0.838600	0.500123
H59	H	0.626951	0.113425	0.000159
H60	H	1.126951	0.613425	0.500159
H61	H	1.251414	-0.262117	0.000044
H62	H	1.751414	0.237883	0.500044
O63	O	1.012000	-0.293233	0.000204
O64	O	1.512000	0.206767	0.500204
C65	C	1.020521	-0.392791	0.000156
C66	C	1.520521	0.107209	0.500156
H67	H	1.093085	-0.409754	0.051878
H68	H	1.593085	0.090246	0.551878
H69	H	1.013594	-0.420902	-0.130927
H70	H	1.513594	0.079098	0.369073
C71	C	0.852039	-0.419821	0.043780
C72	C	1.352039	0.080179	0.543780
C73	C	0.941161	-0.440655	0.107319
C74	C	1.441161	0.059345	0.607319
H75	H	0.803085	-0.449348	0.109877
H76	H	1.303085	0.050652	0.609877
H77	H	0.846297	-0.352747	0.043806
H78	H	1.346297	0.147253	0.543806
H79	H	0.846280	-0.443247	-0.065455
H80	H	1.346280	0.056753	0.434545
H81	H	0.946924	-0.417218	0.216543
H82	H	1.446924	0.082782	0.716543
H83	H	0.946903	-0.507726	0.107314
H84	H	1.446903	-0.007726	0.607314
