data_functionalizedCrystal
_audit_creation_method	'MofGen! by Chris Wilmer'
_symmetry_space_group_name_H-M	'P1'
_symmetry_Int_Tables_number	1
_symmetry_cell_setting	triclinic
loop_
_symmetry_equiv_pos_as_xyz
  x,y,z
_cell_length_a	15.995300
_cell_length_b	14.519709
_cell_length_c	12.996460
_cell_angle_alpha	90.007090
_cell_angle_beta	89.992829
_cell_angle_gamma	96.424024
loop_
_atom_site_label
_atom_site_type_symbol
_atom_site_fract_x
_atom_site_fract_y
_atom_site_fract_z
O1	O	1.111191	-0.118654	-0.085607
O2	O	1.444524	0.214680	0.247727
O3	O	1.777857	0.548013	0.581060
O4	O	0.867432	-0.133382	-0.085601
O5	O	1.200765	0.199952	0.247732
O6	O	1.534098	0.533285	0.581066
O7	O	0.995774	0.008234	-0.085595
O8	O	1.329107	0.341567	0.247739
O9	O	1.662441	0.674900	0.581072
O10	O	0.982848	-0.260269	-0.085613
O11	O	1.316182	0.073064	0.247720
O12	O	1.649515	0.406398	0.581054
O13	O	0.995761	0.008242	0.085539
O14	O	1.329094	0.341575	0.418872
O15	O	1.662427	0.674908	0.752206
O16	O	0.867418	-0.133374	0.085533
O17	O	1.200752	0.199960	0.418866
O18	O	1.534085	0.533293	0.752200
O19	O	1.111177	-0.118646	0.085527
O20	O	1.444511	0.214687	0.418860
O21	O	1.777844	0.548021	0.752194
Cu22	Cu	0.989296	-0.126009	0.101156
Cu23	Cu	1.322630	0.207324	0.434489
Cu24	Cu	1.655963	0.540658	0.767823
Cu25	Cu	0.989312	-0.126018	-0.101230
Cu26	Cu	1.322646	0.207315	0.232104
Cu27	Cu	1.655979	0.540648	0.565437
O28	O	0.982835	-0.260261	0.085521
O29	O	1.316168	0.073072	0.418854
O30	O	1.649501	0.406405	0.752188
C31	C	0.836229	-0.132777	-0.000033
C32	C	1.169562	0.200556	0.333300
C33	C	1.502895	0.533890	0.666634
C34	C	0.743273	-0.130976	-0.000031
C35	C	1.076607	0.202357	0.333303
C36	C	1.409940	0.535691	0.666636
C37	C	0.573085	-0.127650	-0.000038
C38	C	0.906419	0.205683	0.333295
C39	C	1.239752	0.539016	0.666628
C40	C	0.525770	-0.228484	-0.000043
C41	C	0.859104	0.104850	0.333291
C42	C	1.192437	0.438183	0.666624
C43	C	0.429080	-0.226644	-0.000434
C44	C	0.762413	0.106689	0.332900
C45	C	1.095746	0.440023	0.666233
C46	C	0.405524	-0.124377	-0.000045
C47	C	0.738857	0.208956	0.333289
C48	C	1.072190	0.542290	0.666622
C49	C	0.446589	-0.074355	-0.097574
C50	C	0.779922	0.258979	0.235759
C51	C	1.113256	0.592312	0.569092
C52	C	0.543226	-0.076906	-0.097654
C53	C	0.876560	0.256427	0.235680
C54	C	1.209893	0.589760	0.569013
C55	C	0.543488	-0.075404	0.096964
C56	C	0.876821	0.257929	0.430298
C57	C	1.210155	0.591262	0.763631
C58	C	0.446544	-0.075414	0.098244
C59	C	0.779877	0.257920	0.431577
C60	C	1.113210	0.591253	0.764910
C61	C	0.310826	-0.122522	-0.000052
C62	C	0.644159	0.210811	0.333282
C63	C	0.977492	0.544145	0.666615
C64	C	0.667784	-0.129503	-0.000038
C65	C	1.001117	0.203831	0.333295
C66	C	1.334450	0.537164	0.666629
C67	C	0.995165	0.042596	-0.000028
C68	C	1.328498	0.375930	0.333306
C69	C	1.661832	0.709263	0.666639
C70	C	0.993360	0.144974	-0.000027
C71	C	1.326693	0.478307	0.333306
C72	C	1.660026	0.811641	0.666640
C73	C	1.142380	-0.119251	-0.000043
C74	C	1.475714	0.214083	0.333290
C75	C	1.809047	0.547416	0.666624
C76	C	1.235336	-0.121051	-0.000052
C77	C	1.568669	0.212282	0.333281
C78	C	1.902002	0.545615	0.666614
C79	C	0.983444	-0.294624	-0.000048
C80	C	1.316777	0.038710	0.333285
C81	C	1.650111	0.372043	0.666618
C82	C	0.985249	-0.397001	-0.000056
C83	C	1.318582	-0.063668	0.333277
C84	C	1.651916	0.269665	0.666611
N85	N	0.989291	-0.126002	0.243503
N86	N	1.322625	0.207331	0.576836
N87	N	1.655958	0.540665	0.910170
C88	C	0.986714	0.519856	-0.000054
C89	C	1.320048	0.853190	0.333280
C90	C	1.653381	1.186523	0.666613
C91	C	0.988560	0.415552	-0.000046
C92	C	1.321893	0.748885	0.333287
C93	C	1.655226	1.082219	0.666621
C94	C	0.990037	0.332418	-0.000039
C95	C	1.323370	0.665752	0.333294
C96	C	1.656703	0.999085	0.666627
C97	C	0.991883	0.228108	-0.000034
C98	C	1.325216	0.561441	0.333300
C99	C	1.658549	0.894774	0.666633
N100	N	0.989324	-0.126018	-0.243577
N101	N	1.322657	0.207315	0.089757
N102	N	1.655991	0.540649	0.423090
C103	C	0.989311	-0.126019	0.663317
C104	C	1.322644	0.207314	0.996651
C105	C	1.655978	0.540647	1.329984
C106	C	0.989303	-0.126018	0.546512
C107	C	1.322637	0.207316	0.879845
C108	C	1.655970	0.540649	1.213179
C109	C	0.989302	-0.126011	0.453414
C110	C	1.322635	0.207322	0.786747
C111	C	1.655968	0.540655	1.120081
C112	C	0.989293	-0.126008	0.336601
C113	C	1.322626	0.207325	0.669935
C114	C	1.655960	0.540658	1.003268
H115	H	0.431093	-0.000853	0.104426
H116	H	0.764427	0.332480	0.437760
H117	H	1.097760	0.665813	0.771093
H118	H	0.544317	-0.269002	0.069885
H119	H	0.877650	0.064331	0.403218
H120	H	1.210983	0.397664	0.736551
Cl121	Cl	0.575205	-0.126653	0.211132
Cl122	Cl	0.908538	0.206680	0.544466
Cl123	Cl	1.241871	0.540014	0.877799
H124	H	0.561605	-0.112964	-0.170840
H125	H	0.894938	0.220369	0.162494
H126	H	1.228272	0.553703	0.495827
H127	H	0.418261	-0.108655	-0.170434
H128	H	0.751594	0.224678	0.162899
H129	H	1.084927	0.558011	0.496233
H130	H	0.419253	-0.111943	0.170397
H131	H	0.752586	0.221391	0.503731
H132	H	1.085920	0.554724	0.837064
Cl133	Cl	0.556139	-0.290123	-0.107870
Cl134	Cl	0.889473	0.043211	0.225463
Cl135	Cl	1.222806	0.376544	0.558797
Cl136	Cl	0.386178	-0.287074	-0.109014
Cl137	Cl	0.719511	0.046259	0.224319
Cl138	Cl	1.052845	0.379592	0.557652
H139	H	0.575158	-0.001062	0.097907
H140	H	0.908491	0.332272	0.431241
H141	H	1.241824	0.665605	0.764574
Cl142	Cl	0.592887	0.037406	-0.104075
Cl143	Cl	0.926220	0.370739	0.229258
Cl144	Cl	1.259553	0.704073	0.562591
H145	H	0.400670	-0.265950	0.069463
H146	H	0.734003	0.067384	0.402797
H147	H	1.067336	0.400717	0.736130
H148	H	0.432377	0.000788	-0.100922
H149	H	0.765711	0.334122	0.232411
H150	H	1.099044	0.667455	0.565744
