data_functionalizedCrystal
_audit_creation_method	'MofGen! by Chris Wilmer'
_symmetry_space_group_name_H-M	'P1'
_symmetry_Int_Tables_number	1
_symmetry_cell_setting	triclinic
loop_
_symmetry_equiv_pos_as_xyz
  x,y,z
_cell_length_a	16.109301
_cell_length_b	15.186229
_cell_length_c	16.109301
_cell_angle_alpha	90.005167
_cell_angle_beta	83.461532
_cell_angle_gamma	90.000994
loop_
_atom_site_label
_atom_site_type_symbol
_atom_site_fract_x
_atom_site_fract_y
_atom_site_fract_z
O1	O	1.103130	0.073183	0.106867
O2	O	1.436464	0.406516	0.440200
O3	O	1.769797	0.739850	0.773534
O4	O	0.861069	0.073196	0.120166
O5	O	1.194402	0.406529	0.453499
O6	O	1.527735	0.739862	0.786833
O7	O	0.988749	0.073180	-0.007514
O8	O	1.322083	0.406513	0.325819
O9	O	1.655416	0.739847	0.659152
O10	O	0.975450	0.073199	0.234548
O11	O	1.308783	0.406532	0.567881
O12	O	1.642117	0.739865	0.901214
O13	O	0.988741	-0.073277	-0.007516
O14	O	1.322074	0.260056	0.325817
O15	O	1.655407	0.593389	0.659150
O16	O	0.861060	-0.073262	0.120164
O17	O	1.194393	0.260072	0.453498
O18	O	1.527727	0.593405	0.786831
O19	O	1.103122	-0.073274	0.106865
O20	O	1.436455	0.260059	0.440199
O21	O	1.769789	0.593392	0.773532
Zn22	Zn	0.982090	-0.096521	0.113515
Zn23	Zn	1.315423	0.236812	0.446848
Zn24	Zn	1.648756	0.570146	0.780181
Zn25	Zn	0.982101	0.096443	0.113517
Zn26	Zn	1.315434	0.429776	0.446850
Zn27	Zn	1.648768	0.763109	0.780184
O28	O	0.975441	-0.073259	0.234546
O29	O	1.308775	0.260075	0.567879
O30	O	1.642108	0.593408	0.901212
C31	C	0.830089	-0.000031	0.119627
C32	C	1.163423	0.333302	0.452960
C33	C	1.496756	0.666635	0.786293
C34	C	0.737794	-0.000027	0.118011
C35	C	1.071127	0.333307	0.451345
C36	C	1.404461	0.666640	0.784678
N37	N	0.982088	-0.228214	0.113512
N38	N	1.315421	0.105120	0.446846
N39	N	1.648755	0.438453	0.780179
C40	C	0.428796	-0.000037	0.188494
C41	C	0.762129	0.333297	0.521828
C42	C	1.095463	0.666630	0.855161
C43	C	0.515516	-0.000032	0.190020
C44	C	0.848849	0.333302	0.523353
C45	C	1.182183	0.666635	0.856686
C46	C	0.535389	-0.000031	0.038531
C47	C	0.868723	0.333302	0.371864
C48	C	1.202056	0.666635	0.705198
C49	C	0.448671	-0.000030	0.037007
C50	C	0.782004	0.333303	0.370340
C51	C	1.115337	0.666636	0.703673
C52	C	0.395376	-0.000037	0.111991
C53	C	0.728709	0.333296	0.445324
C54	C	1.062042	0.666629	0.778657
C55	C	0.568815	-0.000033	0.115041
C56	C	0.902148	0.333300	0.448374
C57	C	1.235481	0.666633	0.781707
C58	C	0.662841	-0.000028	0.116694
C59	C	0.996174	0.333306	0.450027
C60	C	1.329507	0.666639	0.783361
C61	C	0.301344	-0.000041	0.110338
C62	C	0.634677	0.333292	0.443671
C63	C	0.968010	0.666625	0.777004
C64	C	1.038644	-0.453944	0.056994
C65	C	1.371978	-0.120610	0.390328
C66	C	1.705311	0.212723	0.723661
C67	C	1.038647	-0.546133	0.056992
C68	C	1.371980	-0.212800	0.390326
C69	C	1.705314	0.120533	0.723659
C70	C	0.925547	-0.546128	0.170033
C71	C	1.258880	-0.212795	0.503366
C72	C	1.592213	0.120538	0.836700
C73	C	0.925541	-0.453940	0.170030
C74	C	1.258874	-0.120607	0.503364
C75	C	1.592208	0.212726	0.836697
C76	C	0.982094	-0.407850	0.113512
C77	C	1.315428	-0.074517	0.446845
C78	C	1.648761	0.258816	0.780179
C79	C	0.982103	-0.592228	0.113513
C80	C	1.315436	-0.258895	0.446846
C81	C	1.648769	0.074439	0.780179
C82	C	0.982105	-0.692184	0.113511
C83	C	1.315439	-0.358851	0.446844
C84	C	1.648772	-0.025518	0.780178
C85	C	0.982091	-0.307888	0.113512
C86	C	1.315424	0.025445	0.446846
C87	C	1.648758	0.358779	0.780179
C88	C	1.134101	-0.000045	0.107405
C89	C	1.467434	0.333288	0.440738
C90	C	1.800768	0.666621	0.774072
C91	C	1.226396	-0.000044	0.109020
C92	C	1.559730	0.333289	0.442353
C93	C	1.893063	0.666623	0.775687
C94	C	0.988206	-0.000049	-0.038490
C95	C	1.321540	0.333284	0.294843
C96	C	1.654873	0.666618	0.628177
C97	C	0.986591	-0.000050	-0.130785
C98	C	1.319924	0.333283	0.202548
C99	C	1.653258	0.666616	0.535881
N100	N	0.982109	0.228135	0.113512
N101	N	1.315442	0.561469	0.446846
N102	N	1.648776	0.894802	0.780179
C103	C	1.058599	-0.000040	-0.353058
C104	C	1.391932	0.333293	-0.019724
C105	C	1.725265	0.666627	0.313609
C106	C	1.057075	-0.000033	-0.439778
C107	C	1.390408	0.333301	-0.106445
C108	C	1.723741	0.666634	0.226888
C109	C	0.905586	-0.000028	-0.419904
C110	C	1.238919	0.333305	-0.086571
C111	C	1.572253	0.666639	0.246763
C112	C	0.907111	-0.000029	-0.333185
C113	C	1.240444	0.333304	0.000148
C114	C	1.573778	0.666637	0.333481
C115	C	0.983620	-0.000040	-0.299765
C116	C	1.316953	0.333294	0.033569
C117	C	1.650286	0.666627	0.366902
C118	C	0.980571	-0.000031	-0.473204
C119	C	1.313904	0.333302	-0.139871
C120	C	1.647237	0.666635	0.193463
C121	C	0.978918	-0.000023	-0.567230
C122	C	1.312251	0.333310	-0.233897
C123	C	1.645584	0.666643	0.099437
C124	C	0.985273	-0.000046	-0.205733
C125	C	1.318607	0.333287	0.127601
C126	C	1.651940	0.666621	0.460934
C127	C	0.975984	-0.000028	0.265522
C128	C	1.309318	0.333306	0.598855
C129	C	1.642651	0.666639	0.932188
C130	C	0.977599	-0.000021	0.357817
C131	C	1.310933	0.333313	0.691150
C132	C	1.644266	0.666646	1.024484
H133	H	0.385405	-0.000042	0.249551
H134	H	0.718738	0.333291	0.582885
H135	H	1.052072	0.666625	0.916218
F136	F	0.413101	-0.000022	-0.044423
F137	F	0.746434	0.333312	0.288910
F138	F	1.079768	0.666645	0.622243
H139	H	1.118130	-0.000031	-0.483167
H140	H	1.451464	0.333302	-0.149833
H141	H	1.784797	0.666636	0.183500
F142	F	0.551080	-0.000027	0.271445
F143	F	0.884413	0.333306	0.604779
F144	F	1.217746	0.666639	0.938112
F145	F	0.865346	-0.404881	0.230184
F146	F	1.198680	-0.071548	0.563517
F147	F	1.532013	0.261786	0.896850
H148	H	1.084692	-0.416419	0.010973
H149	H	1.418026	-0.083086	0.344306
H150	H	1.751359	0.250247	0.677639
F151	F	0.824164	-0.000017	-0.455480
F152	F	1.157498	0.333317	-0.122147
F153	F	1.490831	0.666650	0.211186
F154	F	0.592116	-0.000030	-0.041268
F155	F	0.925449	0.333303	0.292066
F156	F	1.258783	0.666636	0.625399
H157	H	0.846050	-0.000026	-0.289791
H158	H	1.179383	0.333307	0.043542
H159	H	1.512717	0.666640	0.376875
H160	H	1.084694	-0.583660	0.010970
H161	H	1.418027	-0.250327	0.344303
H162	H	1.751361	0.083007	0.677637
H163	H	1.120897	-0.000047	-0.325850
H164	H	1.454230	0.333287	0.007483
H165	H	1.787564	0.666620	0.340817
H166	H	0.879503	-0.583664	0.216050
H167	H	1.212837	-0.250331	0.549384
H168	H	1.546170	0.083003	0.882717
