data_functionalizedCrystal
_audit_creation_method	'MofGen! by Chris Wilmer'
_symmetry_space_group_name_H-M	'P1'
_symmetry_Int_Tables_number	1
_symmetry_cell_setting	triclinic
loop_
_symmetry_equiv_pos_as_xyz
  x,y,z
_cell_length_a	19.288840
_cell_length_b	11.026607
_cell_length_c	17.766277
_cell_angle_alpha	89.996915
_cell_angle_beta	89.983415
_cell_angle_gamma	95.856016
loop_
_atom_site_label
_atom_site_type_symbol
_atom_site_fract_x
_atom_site_fract_y
_atom_site_fract_z
O1	O	0.940532	0.151132	-0.062721
O2	O	0.740861	0.171570	-0.062695
O3	O	0.824148	-0.015209	-0.062703
O4	O	0.857245	0.337911	-0.062712
O5	O	0.824128	-0.015218	0.062486
O6	O	0.740841	0.171561	0.062494
O7	O	0.940512	0.151122	0.062468
Cu8	Cu	0.840675	0.161341	0.073912
Cu9	Cu	0.840698	0.161352	-0.074138
O10	O	0.857225	0.337902	0.062476
C11	C	0.714892	0.170913	-0.000097
C12	C	0.637539	0.168954	-0.000087
C13	C	0.601227	0.168018	-0.068329
C14	C	0.528545	0.166164	-0.068338
C15	C	0.492176	0.165221	-0.000101
C16	C	0.528497	0.166164	0.068150
C17	C	0.601179	0.168031	0.068157
C18	C	0.373457	0.091232	0.052169
C19	C	0.300776	0.089358	0.052159
C20	C	0.268003	0.159470	-0.000121
C21	C	0.307918	0.231441	-0.052403
C22	C	0.380600	0.233307	-0.052396
C23	C	0.413366	0.163198	-0.000102
C24	C	0.152881	0.156526	-0.068378
C25	C	0.080198	0.154679	-0.068384
C26	C	0.080151	0.154667	0.068106
C27	C	0.152834	0.156526	0.068110
C28	C	0.189194	0.157449	-0.000133
C29	C	0.818032	-0.060390	-0.000108
C30	C	0.799831	-0.195002	-0.000109
C31	C	0.850089	-0.269090	-0.000116
C32	C	0.831277	-0.408219	-0.000117
C33	C	0.966482	0.151780	-0.000131
C34	C	1.043835	0.153738	-0.000146
C35	C	0.863341	0.383083	-0.000120
C36	C	0.881543	0.517694	-0.000124
N37	N	0.840663	0.161332	0.178042
N38	N	0.840714	0.161351	-0.178269
C39	C	0.877563	0.078667	0.217425
C40	C	0.877566	0.078661	0.296227
C41	C	0.840679	0.161342	0.335643
C42	C	0.803771	0.244013	0.296250
C43	C	0.803763	0.244009	0.217449
C44	C	0.845394	0.271834	0.460478
C45	C	0.845407	0.271841	0.539277
C46	C	0.840700	0.161356	0.578689
C47	C	0.835993	0.050861	0.539292
C48	C	0.835985	0.050856	0.460492
C49	C	0.840683	0.161356	0.421088
C50	C	0.877605	0.078678	0.703518
C51	C	0.877603	0.078671	0.782321
C52	C	0.803812	0.244034	0.782343
C53	C	0.803810	0.244030	0.703541
C54	C	0.840709	0.161354	0.664133
H55	H	0.630743	0.168794	0.123730
O56	O	0.405175	0.022998	0.102985
C57	C	0.354363	-0.040912	0.149132
H58	H	0.302134	-0.050808	0.118568
H59	H	0.349250	0.011543	0.203813
C60	C	0.440466	-0.156059	0.204499
C61	C	0.376319	-0.168223	0.166958
H62	H	0.454010	-0.234589	0.215499
H63	H	0.474700	-0.112999	0.173411
H64	H	0.436197	-0.112342	0.250062
H65	H	0.380591	-0.211926	0.121392
H66	H	0.342086	-0.211294	0.198039
H67	H	0.907616	0.011342	0.328299
H68	H	0.182399	0.157280	0.123681
O69	O	0.276183	0.299725	-0.103173
C70	C	0.300115	0.423838	-0.093302
H71	H	0.353203	0.431810	-0.064531
H72	H	0.261518	0.469279	-0.056890
C73	C	0.241476	0.477466	-0.205910
C74	C	0.306683	0.487258	-0.170578
H75	H	0.245525	0.516590	-0.253577
H76	H	0.225350	0.393849	-0.212559
H77	H	0.209319	0.515333	-0.175559
H78	H	0.338837	0.449379	-0.200925
H79	H	0.322815	0.570870	-0.163936
H80	H	0.050541	0.153907	0.123666
O81	O	0.731858	-0.242054	-0.000002
C82	C	0.698626	-0.202258	0.064848
H83	H	0.728444	-0.114584	0.086465
H84	H	0.697562	-0.275498	0.110247
C85	C	0.586863	-0.285964	0.018613
C86	C	0.623482	-0.178277	0.045159
H87	H	0.540509	-0.271176	0.006469
H88	H	0.609251	-0.312780	-0.025077
H89	H	0.585983	-0.346987	0.056449
H90	H	0.624368	-0.117261	0.007319
H91	H	0.601091	-0.151450	0.088842
O92	O	0.918010	-0.221748	-0.000225
C93	C	0.931540	-0.149468	-0.065072
H94	H	0.880743	-0.117783	-0.086682
H95	H	0.955316	-0.205452	-0.110476
C96	C	1.045211	-0.076605	-0.018842
C97	C	0.982822	-0.037681	-0.045380
H98	H	1.076847	-0.007652	-0.006697
H99	H	1.036098	-0.125305	0.024845
H100	H	1.065015	-0.123259	-0.056683
H101	H	0.963015	0.008959	-0.007535
H102	H	0.991934	0.011030	-0.089061
O103	O	0.831372	-0.056581	0.422339
C104	C	0.827237	-0.154103	0.474014
H105	H	0.806742	-0.122775	0.530195
H106	H	0.881243	-0.185395	0.482369
C107	C	0.802624	-0.299158	0.374279
C108	C	0.777446	-0.260683	0.443281
H109	H	0.771914	-0.364904	0.355321
H110	H	0.805413	-0.233457	0.339464
H111	H	0.847630	-0.325226	0.381251
H112	H	0.732446	-0.234601	0.436306
H113	H	0.774649	-0.326383	0.478094
O114	O	0.949470	-0.434976	-0.000233
C115	C	0.963003	-0.362698	-0.065080
H116	H	0.912208	-0.331004	-0.086690
H117	H	0.986775	-0.418686	-0.110484
C118	C	1.076677	-0.289853	-0.018850
C119	C	1.014291	-0.250918	-0.045388
H120	H	1.108316	-0.220905	-0.006705
H121	H	1.067561	-0.338552	0.024837
H122	H	1.096478	-0.336511	-0.056691
H123	H	0.994486	-0.204274	-0.007543
H124	H	1.023405	-0.202209	-0.089069
O125	O	0.913412	-0.001769	0.179263
C126	C	0.945995	-0.074714	0.230928
H127	H	0.917371	-0.075945	0.287113
H128	H	1.002485	-0.035573	0.239281
C129	C	0.979104	-0.204093	0.131180
C130	C	0.943943	-0.205613	0.200184
H131	H	0.977842	-0.284836	0.112215
H132	H	0.957155	-0.154946	0.096371
H133	H	1.026175	-0.171469	0.138150
H134	H	0.896871	-0.238222	0.193212
H135	H	0.965885	-0.254769	0.234991
H136	H	0.773775	0.311349	0.814434
H137	H	0.774320	-0.447784	-0.000114
O138	O	0.850095	0.379141	0.577580
C139	C	0.910235	0.388661	0.623152
H140	H	0.949413	0.328008	0.599389
H141	H	0.895443	0.358312	0.682879
C142	C	0.894869	0.596483	0.653534
C143	C	0.942990	0.521996	0.624345
H144	H	0.915073	0.678731	0.654274
H145	H	0.854350	0.590069	0.622835
H146	H	0.882547	0.571178	0.703305
H147	H	0.955305	0.547292	0.574573
H148	H	0.983513	0.528418	0.655037
H149	H	0.832160	-0.039107	0.571380
H150	H	0.907648	0.011354	0.671431
O151	O	0.261970	0.019296	0.102841
C152	C	0.215700	-0.066460	0.064294
H153	H	0.236829	-0.081801	0.005502
H154	H	0.162478	-0.030614	0.059665
C155	C	0.182556	-0.168991	0.180069
C156	C	0.208511	-0.187842	0.107862
H157	H	0.178118	-0.243864	0.206944
H158	H	0.213727	-0.111214	0.206040
H159	H	0.138208	-0.139117	0.176201
H160	H	0.252862	-0.217701	0.111731
H161	H	0.177346	-0.245627	0.081893
H162	H	0.773714	0.311326	0.185383
H163	H	0.907648	0.011348	0.814388
O164	O	0.767960	0.324460	0.665396
C165	C	0.735387	0.397416	0.717080
H166	H	0.764023	0.398658	0.773239
H167	H	0.678899	0.358279	0.725485
C168	C	0.702260	0.526776	0.617342
C169	C	0.737435	0.528310	0.686316
H170	H	0.703520	0.607516	0.598365
H171	H	0.724202	0.477622	0.582521
H172	H	0.655190	0.494156	0.624356
H173	H	0.784506	0.560915	0.679300
H174	H	0.715500	0.577473	0.721136
O175	O	0.850059	0.379091	0.422111
C176	C	0.910211	0.388601	0.376519
H177	H	0.926076	0.293633	0.364718
H178	H	0.954458	0.445157	0.406865
C179	C	0.875227	0.567517	0.316161
C180	C	0.894711	0.450875	0.301661
H181	H	0.865668	0.605935	0.269986
H182	H	0.834703	0.561114	0.346879
H183	H	0.912104	0.614632	0.341451
H184	H	0.857831	0.403757	0.276380
H185	H	0.935229	0.457272	0.270937
O186	O	0.767891	0.324164	0.334618
C187	C	0.716943	0.259417	0.380213
H188	H	0.732732	0.164398	0.392015
H189	H	0.664606	0.251409	0.349869
C190	C	0.691272	0.444564	0.440569
C191	C	0.710666	0.327864	0.455070
H192	H	0.687397	0.486787	0.486743
H193	H	0.725594	0.488187	0.409850
H194	H	0.647659	0.437874	0.415281
H195	H	0.754282	0.334556	0.480349
H196	H	0.676351	0.284244	0.485796
H197	H	0.498974	0.165404	-0.123911
O198	O	0.636441	0.168974	-0.134686
C199	C	0.588798	0.167717	-0.194921
H200	H	0.538901	0.204770	-0.174921
H201	H	0.576211	0.070252	-0.215898
C202	C	0.682444	0.202442	-0.283963
C203	C	0.621162	0.247962	-0.259400
H204	H	0.702408	0.251936	-0.323739
H205	H	0.714543	0.203284	-0.243383
H206	H	0.671946	0.121222	-0.301439
H207	H	0.631662	0.329174	-0.241916
H208	H	0.589066	0.247135	-0.299980
O209	O	0.419454	0.303300	-0.103072
C210	C	0.465703	0.389080	-0.064517
H211	H	0.474821	0.354488	-0.005232
H212	H	0.442262	0.479743	-0.061137
C213	C	0.524372	0.449525	-0.179865
C214	C	0.535575	0.407033	-0.107052
H215	H	0.567471	0.460604	-0.206104
H216	H	0.493211	0.391737	-0.205842
H217	H	0.504835	0.525073	-0.177038
H218	H	0.555103	0.331479	-0.109880
H219	H	0.566741	0.464809	-0.081077
H220	H	0.182488	0.157290	-0.123946
H221	H	0.498882	0.165400	0.123709
O222	O	0.045027	0.153718	-0.134746
C223	C	0.092710	0.154961	-0.194973
H224	H	0.142592	0.117906	-0.174958
H225	H	0.105314	0.252423	-0.215965
C226	C	-0.000878	0.120231	-0.284025
C227	C	0.060386	0.074710	-0.259444
H228	H	-0.020817	0.070733	-0.323795
H229	H	-0.033003	0.119398	-0.243449
H230	H	0.009634	0.201448	-0.301513
H231	H	0.049873	-0.006500	-0.241948
H232	H	0.092510	0.075527	-0.300018
