data_functionalizedCrystal
_audit_creation_method	'MofGen! by Chris Wilmer'
_symmetry_space_group_name_H-M	'P1'
_symmetry_Int_Tables_number	1
_symmetry_cell_setting	triclinic
loop_
_symmetry_equiv_pos_as_xyz
  x,y,z
_cell_length_a	16.704494
_cell_length_b	23.196402
_cell_length_c	23.196401
_cell_angle_alpha	60.008822
_cell_angle_beta	90.013666
_cell_angle_gamma	56.632774
loop_
_atom_site_label
_atom_site_type_symbol
_atom_site_fract_x
_atom_site_fract_y
_atom_site_fract_z
Zr1	Zr	0.815205	0.570728	-0.045488
O2	O	0.680059	0.700986	-0.142531
O3	O	0.856632	0.447399	-0.015743
O4	O	0.856594	0.567669	-0.136010
O5	O	0.680130	0.580713	0.072608
O6	O	0.995852	0.557373	-0.130861
O7	O	0.680096	0.580717	-0.022265
O8	O	0.995919	0.342233	0.084274
O9	O	0.680063	0.795853	-0.142527
O10	O	0.978230	0.487876	0.000789
O11	O	0.874329	0.495557	0.067750
O12	O	0.874285	0.637159	-0.073849
O13	O	0.770383	0.644840	-0.006889
Zr14	Zr	1.037359	0.554301	0.114034
Zr15	Zr	1.037306	0.554307	-0.037277
Zr16	Zr	0.815259	0.570722	0.105822
Zr17	Zr	0.815212	0.722030	-0.045482
Zr18	Zr	1.037353	0.402999	0.114027
O19	O	0.995933	0.677629	0.084289
O20	O	0.995857	0.677638	-0.130856
O21	O	0.680135	0.700977	0.072613
O22	O	1.172506	0.424042	0.211077
O23	O	1.172430	0.424051	-0.004068
O24	O	0.856707	0.447390	0.199401
O25	O	1.172435	0.544316	-0.004063
O26	O	0.995970	0.557360	0.204555
O27	O	0.856712	0.567655	0.199407
O28	O	1.172468	0.544312	0.090810
O29	O	0.856603	0.782801	-0.136000
O30	O	0.995962	0.342228	0.204546
O31	O	1.172502	0.329175	0.211073
O32	O	1.172460	0.329180	0.090801
O33	O	0.680105	0.795848	-0.022255
O34	O	0.856645	0.782796	-0.015728
O35	O	0.978280	0.487870	0.142394
O36	O	1.082182	0.480189	0.075434
O37	O	0.978236	0.629472	0.000796
O38	O	0.874334	0.637153	0.067756
C39	C	0.926275	0.373259	0.034264
C40	C	0.926272	0.309027	0.034261
C41	C	0.980501	0.274848	-0.000694
C42	C	0.980511	0.214486	-0.000688
C43	C	0.926272	0.188319	0.034263
C44	C	0.872041	0.222502	0.069227
C45	C	0.872041	0.282856	0.069226
C46	C	0.835402	0.133008	0.025629
C47	C	0.835399	0.072659	0.025625
C48	C	0.926273	0.002164	0.034270
C49	C	1.017149	-0.007967	0.042906
C50	C	1.017150	0.052387	0.042905
C51	C	0.926266	0.122875	0.034269
C52	C	0.980517	-0.097467	-0.000680
C53	C	0.980530	-0.157834	-0.000669
C54	C	0.872051	-0.149810	0.069241
C55	C	0.872048	-0.089451	0.069235
C56	C	0.926279	-0.063281	0.034270
C57	C	0.648468	0.583054	0.024002
C58	C	0.554181	0.590025	0.020516
C59	C	0.485532	0.447259	0.091905
C60	C	0.396944	0.453805	0.088632
C61	C	0.288414	0.609662	0.010700
C62	C	0.377003	0.603116	0.013973
C63	C	0.475561	0.521912	0.054576
C64	C	0.564151	0.515367	0.057845
C65	C	0.455620	0.671223	-0.020082
C66	C	0.367031	0.677769	-0.023355
C67	C	1.204096	0.541975	0.044544
C68	C	1.298384	0.535004	0.048030
C69	C	0.926216	0.562522	-0.154994
C70	C	0.926193	0.562525	-0.219230
C71	C	0.926290	0.751770	0.034281
C72	C	0.926293	0.816002	0.034284
C73	C	0.871940	0.640446	-0.288363
C74	C	0.871966	0.640446	-0.348717
C75	C	0.926232	0.562520	-0.339934
C76	C	0.980497	0.484588	-0.270789
C77	C	0.980478	0.484590	-0.210436
C78	C	0.918524	0.506462	-0.407539
C79	C	0.918535	0.506463	-0.467892
C80	C	0.926297	0.562509	-0.526080
C81	C	0.934027	0.618569	-0.523914
C82	C	0.934007	0.618571	-0.463562
C83	C	0.926259	0.562509	-0.405372
C84	C	0.872070	0.640435	-0.660659
C85	C	0.872103	0.640430	-0.721012
C86	C	0.980628	0.484571	-0.643082
C87	C	0.980601	0.484577	-0.582730
C88	C	0.926316	0.562512	-0.591524
C89	C	0.926349	0.562507	0.223540
C90	C	0.926371	0.562504	0.287775
C91	C	1.204088	0.352719	0.044535
C92	C	1.298373	0.281516	0.048018
C93	C	0.926341	0.373251	0.223531
C94	C	0.926361	0.309017	0.287764
C95	C	1.204155	0.352711	0.233802
C96	C	1.298462	0.281506	0.301521
C97	C	0.648410	0.772318	-0.165257
C98	C	0.554102	0.843523	-0.232975
C99	C	0.648476	0.772310	0.024010
C100	C	0.554191	0.843513	0.020527
C101	C	0.926223	0.751778	-0.154986
C102	C	0.926203	0.816012	-0.219218
C103	C	1.288389	0.252091	0.010684
C104	C	1.376971	0.185198	0.013942
C105	C	1.475537	0.147726	0.054539
C106	C	1.485519	0.177158	0.091875
C107	C	1.396938	0.244054	0.088612
C108	C	0.980632	0.274839	0.356898
C109	C	0.980647	0.214493	0.417257
C110	C	0.926396	0.188321	0.408480
C111	C	0.872118	0.222505	0.339339
C112	C	0.872098	0.282854	0.278981
C113	C	1.396995	0.244057	0.298370
C114	C	1.485615	0.177160	0.361993
C115	C	1.475701	0.147709	0.428766
C116	C	1.377158	0.185164	0.431915
C117	C	1.288540	0.252064	0.368293
C118	C	0.455569	0.880979	-0.229824
C119	C	0.366949	0.947895	-0.293448
C120	C	0.376864	0.977350	-0.360221
C121	C	0.475407	0.939890	-0.363370
C122	C	0.564025	0.872980	-0.299748
C123	C	0.564176	0.872944	0.057855
C124	C	0.475594	0.939854	0.054580
C125	C	0.377028	0.977328	0.013981
C126	C	0.367045	0.947893	-0.023352
C127	C	0.455627	0.880989	-0.020081
C128	C	0.980465	0.842165	-0.210419
C129	C	0.980466	0.902510	-0.270765
C130	C	0.926200	0.936707	-0.339912
C131	C	0.871937	0.910549	-0.348710
C132	C	0.871942	0.850200	-0.288364
H133	H	1.024662	0.296152	-0.029162
H134	H	1.024810	0.296141	0.364058
C135	C	1.040323	0.398851	-0.633417
N136	N	1.085289	0.334285	-0.626138
C137	C	0.486296	0.972293	-0.436828
N138	N	0.494494	0.996695	-0.492159
C139	C	0.672409	0.831775	-0.303226
N140	N	0.754043	0.800741	-0.305851
H141	H	1.024655	0.814330	-0.154122
H142	H	1.024672	0.186652	-0.029153
C143	C	1.572969	0.074133	0.058127
N144	N	1.646352	0.018700	0.060829
C145	C	1.593951	0.135924	0.136535
N146	N	1.675625	0.104859	0.170178
H147	H	0.286781	0.978414	-0.056407
H148	H	1.405082	0.268003	0.119019
C149	C	0.812394	0.726157	-0.797065
N150	N	0.767409	0.790728	-0.854350
H151	H	1.024652	0.923801	-0.263588
C152	C	1.573194	0.074109	0.498747
N153	N	1.646630	0.018671	0.551454
C154	C	0.812368	0.726163	-0.670329
N155	N	0.767401	0.790734	-0.677615
C156	C	1.040273	0.398857	-0.506679
N157	N	1.085221	0.334288	-0.449396
C158	C	0.593948	0.357935	0.136565
N159	N	0.675607	0.290654	0.170204
C160	C	1.040371	0.176893	0.493307
N161	N	1.085358	0.148572	0.550586
C162	C	0.812405	0.320434	0.202934
N163	N	0.767443	0.348734	0.145657
C164	C	0.486598	0.972212	0.095658
N165	N	0.494889	0.996581	0.126599
H166	H	0.926421	0.139180	0.457633
C167	C	0.258562	0.989087	-0.289968
N168	N	0.176927	1.020111	-0.287344
C169	C	1.366269	0.152751	0.505374
N170	N	1.358070	0.128330	0.560704
H171	H	0.827949	0.201186	0.332203
H172	H	1.208313	0.282547	0.370868
H173	H	0.940342	0.664210	-0.571294
C174	C	1.407927	0.276445	0.224925
N175	N	1.416169	0.300839	0.169609
H176	H	0.304908	1.031805	0.011323
H177	H	0.447477	0.857002	-0.175460
H178	H	0.827885	-0.061619	0.097696
H179	H	0.304697	1.031833	-0.412021
C180	C	0.444626	0.848612	-0.061138
N181	N	0.436333	0.824229	-0.092064
C182	C	0.812290	0.948141	-0.424776
N183	N	0.767376	0.976450	-0.482070
H184	H	0.926204	0.985846	-0.389043
H185	H	1.091145	0.044134	0.049938
C186	C	1.040184	-0.068687	-0.039132
N187	N	1.085128	-0.047012	-0.068093
H188	H	0.644425	0.842438	0.090920
C189	C	1.040176	-0.195422	-0.039134
N190	N	1.085096	-0.223728	-0.068112
C191	C	0.942524	0.680227	-0.461177
N192	N	0.948945	0.726664	-0.459380
C193	C	1.594003	0.135963	0.358513
N194	N	1.675638	0.104934	0.355889
C195	C	0.910027	0.444800	-0.470270
N196	N	0.903619	0.398353	-0.472058
H197	H	1.091151	-0.065372	0.049954
H198	H	0.827889	-0.171115	0.097699
H199	H	1.368823	0.161243	-0.016461
C200	C	0.735437	0.083804	0.016134
N201	N	0.660145	0.092197	0.008990
C202	C	0.812376	0.193719	0.107672
N203	N	0.767437	0.172037	0.136631
C204	C	0.735428	0.210551	0.016120
N205	N	0.660129	0.268954	0.008958
C206	C	0.258611	0.767089	-0.068021
N207	N	0.176948	0.834366	-0.101667
H208	H	0.827751	0.828914	-0.295539
H209	H	0.644398	0.449246	0.090911
C210	C	0.812280	0.726169	-0.424775
N211	N	0.767324	0.790736	-0.482061
H212	H	0.827879	0.310686	0.097691
H213	H	0.405071	0.393015	0.119029
H214	H	0.208156	0.675774	-0.022347
H215	H	0.827741	0.703907	-0.295529
C216	C	1.040187	0.398870	-0.261129
N217	N	1.085148	0.334304	-0.253852
C218	C	0.909981	0.444805	-0.343536
N219	N	0.903545	0.398367	-0.295330
H220	H	0.447506	0.732011	-0.050480
H221	H	1.208140	0.282599	-0.022383
C222	C	1.040157	0.398867	-0.134384
N223	N	1.085104	0.334299	-0.077100
