data_functionalizedCrystal
_audit_creation_method	'MofGen! by Chris Wilmer'
_symmetry_space_group_name_H-M	'P1'
_symmetry_Int_Tables_number	1
_symmetry_cell_setting	triclinic
loop_
_symmetry_equiv_pos_as_xyz
  x,y,z
_cell_length_a	12.594516
_cell_length_b	12.759395
_cell_length_c	12.759387
_cell_angle_alpha	90.018994
_cell_angle_beta	89.971765
_cell_angle_gamma	89.983384
loop_
_atom_site_label
_atom_site_type_symbol
_atom_site_fract_x
_atom_site_fract_y
_atom_site_fract_z
Zn1	Zn	-0.423673	-1.606225	-0.594071
Zn2	Zn	-0.601689	-1.606121	-0.418399
Zn3	Zn	-0.423727	-1.430533	-0.418403
Zn4	Zn	-0.601611	-1.430511	-0.594033
O5	O	-0.512675	-1.518348	-0.506226
O6	O	-0.447297	-1.753232	-0.570783
O7	O	-0.578137	-1.582795	-0.271378
O8	O	-0.274774	-1.453891	-0.441724
O9	O	-0.578085	-1.753156	-0.441717
O10	O	-0.274734	-1.582971	-0.570786
O11	O	-0.447389	-1.453791	-0.271381
O12	O	-0.447314	-1.283509	-0.441686
O13	O	-0.577952	-1.453854	-0.741059
O14	O	-0.578005	-1.283493	-0.570720
O15	O	-0.447221	-1.582950	-0.741087
O16	O	-0.750625	-1.582774	-0.441679
O17	O	-0.750567	-1.453754	-0.570717
C18	C	-0.512657	-1.245380	-0.506200
C19	C	-0.512675	-1.128603	-0.506214
C20	C	-0.789216	-1.518279	-0.506216
C21	C	-0.907521	-1.518345	-0.506247
C22	C	-0.648984	-1.128625	-0.640360
C23	C	-0.717146	-1.073775	-0.707434
C24	C	-0.717157	-0.964054	-0.707444
C25	C	-0.648997	-0.909180	-0.640374
C26	C	-0.580835	-0.964029	-0.573299
C27	C	-0.580833	-1.073754	-0.573295
C28	C	-0.444522	-0.964008	-0.439160
C29	C	-0.444515	-1.073729	-0.439144
C30	C	-0.376362	-0.909133	-0.372090
C31	C	-0.308204	-0.963983	-0.305009
C32	C	-0.308197	-1.073711	-0.305001
C33	C	-0.376353	-1.128579	-0.372069
C34	C	-0.976782	-1.448165	-0.576381
C35	C	-1.047651	-1.422569	-0.480513
C36	C	-1.047451	-1.544037	-0.602131
C37	C	-0.976832	-1.492699	-0.410328
C38	C	-0.976626	-1.614212	-0.532011
C39	C	-1.047463	-1.588652	-0.436077
C40	C	-0.235054	-1.518445	-0.506260
C41	C	-0.116749	-1.518487	-0.506274
C42	C	-0.512572	-1.518411	-0.780260
C43	C	-0.512528	-1.518438	-0.897037
C44	C	-0.512689	-0.792381	-0.506246
C45	C	-0.512684	-0.909158	-0.506234
C46	C	-0.648602	-1.652844	-1.116459
C47	C	-0.716698	-1.719990	-1.061586
C48	C	-0.716738	-1.719955	-0.951865
C49	C	-0.648678	-1.652765	-0.897013
C50	C	-0.580583	-1.585619	-0.951886
C51	C	-0.580547	-1.585663	-1.061610
C52	C	-0.444433	-1.451292	-0.951910
C53	C	-0.444385	-1.451331	-1.061631
C54	C	-0.376372	-1.384102	-0.897058
C55	C	-0.308270	-1.316960	-0.951931
C56	C	-0.308231	-1.316998	-1.061659
C57	C	-0.376289	-1.384185	-1.116504
C58	C	-0.512701	-1.518345	-0.233259
C59	C	-0.512445	-1.518521	-0.116483
H60	H	-0.648990	-1.217966	-0.640351
C61	C	-0.791814	-1.793645	-1.121930
N62	N	-0.848484	-1.849029	-1.167379
C63	C	-0.934842	-1.367844	-0.656385
N64	N	-0.903250	-1.307344	-0.716637
C65	C	-0.376366	-0.788436	-0.372113
N66	N	-0.376367	-0.697526	-0.372129
C67	C	-0.792138	-0.903717	-0.781227
N68	N	-0.848616	-0.858272	-0.836800
H69	H	-0.648566	-1.652889	-1.205800
C70	C	-0.376359	-1.249276	-0.372061
N71	N	-0.376365	-1.340186	-0.372058
H72	H	-1.078872	-1.341562	-0.458744
C73	C	-0.233234	-0.903615	-0.231243
N74	N	-0.176766	-0.858141	-0.175680
H75	H	-1.078472	-1.565710	-0.683208
C76	C	-0.934430	-1.723614	-0.561492
N77	N	-0.902639	-1.806014	-0.583712
H78	H	-0.945940	-1.470932	-0.329229
C79	C	-0.233212	-1.134038	-0.231213
N80	N	-0.176732	-1.179471	-0.175632
H81	H	-0.772639	-1.118466	-0.762043
H82	H	-0.772182	-1.774637	-0.907187
C83	C	-0.648996	-0.788483	-0.640405
N84	N	-0.648992	-0.697572	-0.640430
C85	C	-1.089136	-1.668910	-0.355876
N86	N	-1.120527	-1.729354	-0.295466
H87	H	-0.648727	-1.652734	-0.807672
C88	C	-0.376405	-1.384080	-0.776361
N89	N	-0.376419	-1.384071	-0.685451
H90	H	-0.252866	-1.262255	-0.907262
H91	H	-0.252782	-1.262318	-1.106330
H92	H	-0.376260	-1.384227	-1.205845
