data_functionalizedCrystal
_audit_creation_method	'MofGen! by Chris Wilmer'
_symmetry_space_group_name_H-M	'P1'
_symmetry_Int_Tables_number	1
_symmetry_cell_setting	triclinic
loop_
_symmetry_equiv_pos_as_xyz
  x,y,z
_cell_length_a	23.096457
_cell_length_b	23.096457
_cell_length_c	23.096457
_cell_angle_alpha	60.008701
_cell_angle_beta	90.011518
_cell_angle_gamma	60.000185
loop_
_atom_site_label
_atom_site_type_symbol
_atom_site_fract_x
_atom_site_fract_y
_atom_site_fract_z
Zr1	Zr	0.557763	0.633740	-0.075976
O2	O	0.465295	0.754526	-0.168417
O3	O	0.586107	0.512954	-0.047641
O4	O	0.586081	0.633742	-0.168427
O5	O	0.465344	0.633736	0.047651
O6	O	0.681361	0.633743	-0.168430
O7	O	0.465321	0.633738	-0.047631
O8	O	0.681407	0.417676	0.047634
O9	O	0.465298	0.849804	-0.168413
O10	O	0.669304	0.562636	-0.035555
O11	O	0.598215	0.562634	0.035556
O12	O	0.598184	0.704846	-0.106654
O13	O	0.527095	0.704844	-0.035543
Zr14	Zr	0.709760	0.633740	0.075983
Zr15	Zr	0.709724	0.633742	-0.075981
Zr16	Zr	0.557799	0.633737	0.075988
Zr17	Zr	0.557767	0.785697	-0.075969
Zr18	Zr	0.709756	0.481782	0.075976
O19	O	0.681416	0.754526	0.047648
O20	O	0.681365	0.754529	-0.168425
O21	O	0.465347	0.754522	0.047656
O22	O	0.802227	0.512954	0.168424
O23	O	0.802176	0.512958	-0.047649
O24	O	0.586158	0.512950	0.168432
O25	O	0.802179	0.633743	-0.047644
O26	O	0.681442	0.633738	0.168434
O27	O	0.586161	0.633736	0.168437
O28	O	0.802202	0.633742	0.047638
O29	O	0.586087	0.849806	-0.168418
O30	O	0.681436	0.417674	0.168425
O31	O	0.802225	0.417676	0.168420
O32	O	0.802196	0.417678	0.047629
O33	O	0.465326	0.849802	-0.047622
O34	O	0.586115	0.849804	-0.047627
O35	O	0.669338	0.562634	0.106661
O36	O	0.740428	0.562636	0.035551
O37	O	0.669308	0.704846	-0.035549
O38	O	0.598218	0.704844	0.035562
C39	C	0.633757	0.443664	-0.000004
C40	C	0.633755	0.379154	-0.000007
C41	C	0.443681	0.633737	0.000011
C42	C	0.379170	0.633736	0.000013
C43	C	0.670858	0.348855	-0.037129
C44	C	0.670865	0.288232	-0.037123
C45	C	0.633755	0.257924	-0.000005
C46	C	0.596650	0.288228	0.037124
C47	C	0.596650	0.348843	0.037123
N48	N	0.573349	0.195527	-0.005150
N49	N	0.573351	0.137946	-0.005153
C50	C	0.633754	0.075292	0.000001
N51	N	0.694155	0.072401	0.005145
N52	N	0.694152	0.129989	0.005144
C53	C	0.633751	0.192196	0.000000
C54	C	0.670868	-0.020742	-0.037116
C55	C	0.670877	-0.081369	-0.037105
C56	C	0.596655	-0.081367	0.037138
C57	C	0.596653	-0.020747	0.037132
C58	C	0.633758	0.009564	0.000001
C59	C	0.385988	0.559506	0.037119
C60	C	0.325372	0.559505	0.037122
C61	C	0.257939	0.633737	0.000005
C62	C	0.251123	0.707977	-0.037103
C63	C	0.311739	0.707976	-0.037099
N64	N	0.135130	0.688994	-0.060404
N65	N	0.077551	0.688989	-0.060406
C66	C	0.075306	0.633745	-0.000007
N67	N	0.132823	0.578492	0.060393
N68	N	0.190408	0.578494	0.060394
C69	C	0.192208	0.633747	-0.000003
C70	C	0.016401	0.559509	0.037106
C71	C	-0.044217	0.559511	0.037111
C72	C	-0.118466	0.707985	-0.037121
C73	C	-0.057848	0.707981	-0.037119
C74	C	0.009583	0.633741	-0.000008
C75	C	0.823842	0.633743	-0.000003
C76	C	0.888353	0.633744	-0.000006
C77	C	0.633716	0.633743	-0.190080
C78	C	0.633701	0.633744	-0.254593
C79	C	0.633766	0.823815	0.000012
C80	C	0.633768	0.888325	0.000014
C81	C	0.596581	0.707974	-0.322009
C82	C	0.596599	0.707975	-0.382626
C83	C	0.633727	0.633742	-0.375821
C84	C	0.670856	0.559503	-0.308392
C85	C	0.670843	0.559504	-0.247778
N86	N	0.628604	0.578486	-0.443379
N87	N	0.628613	0.578490	-0.500963
C88	C	0.633771	0.633735	-0.558447
N89	N	0.638907	0.688988	-0.556178
N90	N	0.638894	0.688986	-0.498590
C91	C	0.633746	0.633733	-0.441543
C92	C	0.596668	0.707971	-0.691593
C93	C	0.596692	0.707969	-0.752209
C94	C	0.670944	0.559495	-0.677974
C95	C	0.670926	0.559499	-0.617360
C96	C	0.633784	0.633739	-0.624174
C97	C	0.633806	0.633737	0.190087
C98	C	0.633822	0.633736	0.254600
C99	C	0.823837	0.443668	-0.000011
C100	C	0.888347	0.379159	-0.000017
C101	C	0.633802	0.443661	0.190079
C102	C	0.633815	0.379150	0.254589
C103	C	0.823882	0.443664	0.190072
C104	C	0.888407	0.379154	0.254580
C105	C	0.443641	0.823815	-0.190065
C106	C	0.379115	0.888325	-0.254573
C107	C	0.443686	0.823812	0.000019
C108	C	0.379176	0.888321	0.000024
C109	C	0.633721	0.823819	-0.190072
C110	C	0.633707	0.888329	-0.254582
C111	C	0.881515	0.348865	-0.037141
C112	C	0.942124	0.288260	-0.037160
C113	C	1.009562	0.257947	-0.000050
C114	C	1.016392	0.288247	0.037076
C115	C	0.955785	0.348854	0.037091
C116	C	0.670948	0.348855	0.322006
C117	C	0.670958	0.288249	0.382626
C118	C	0.633839	0.257934	0.375827
C119	C	0.596703	0.288235	0.308403
C120	C	0.596689	0.348845	0.247784
C121	C	0.955823	0.348861	0.247754
C122	C	1.016458	0.288256	0.308360
C123	C	1.009674	0.257941	0.375791
C124	C	0.942250	0.288240	0.382615
C125	C	0.881618	0.348848	0.322010
C126	C	0.311699	0.918626	-0.247747
C127	C	0.251065	0.979250	-0.308353
C128	C	0.257849	1.009568	-0.375784
C129	C	0.325272	0.979265	-0.382608
C130	C	0.385905	0.918646	-0.322003
C131	C	0.386007	0.918621	0.037142
C132	C	0.325399	0.979242	0.037145
C133	C	0.257960	1.009558	0.000032
C134	C	0.251131	0.979255	-0.037091
C135	C	0.311738	0.918639	-0.037097
C136	C	0.670833	0.918625	-0.247760
C137	C	0.670834	0.979232	-0.308368
C138	C	0.633705	1.009546	-0.375797
C139	C	0.596578	0.979245	-0.382618
C140	C	0.596582	0.918635	-0.322010
H141	H	0.701073	0.373531	-0.067361
Cl142	Cl	0.964370	0.386965	0.162991
Cl143	Cl	0.717535	0.466181	-0.299837
H144	H	0.566346	0.893975	-0.327574
H145	H	0.826727	0.373505	0.327577
Cl146	Cl	-0.066420	0.801304	-0.083774
H147	H	1.059051	0.208589	0.425134
H148	H	0.330787	1.003958	-0.437517
Cl149	Cl	0.717517	0.880526	-0.162999
H150	H	0.566482	0.263544	0.302877
Cl151	Cl	0.717506	1.017317	-0.299778
Cl152	Cl	0.933734	0.250119	0.467390
Cl153	Cl	0.550008	0.386918	0.163034
H154	H	0.208616	1.058915	0.000042
H155	H	0.701080	0.263558	-0.067353
Cl156	Cl	0.933521	0.250178	-0.083833
H157	H	0.566340	0.768426	-0.327564
Cl158	Cl	1.101209	0.250174	0.299765
Cl159	Cl	0.303152	0.880524	-0.162984
Cl160	Cl	0.717618	0.386950	0.330572
H161	H	0.196172	1.003913	-0.302783
H162	H	0.701150	0.499053	-0.562465
Cl163	Cl	0.181617	1.085775	-0.451967
Cl164	Cl	-0.203235	0.801308	-0.083778
Cl165	Cl	0.717651	0.250166	0.467379
Cl166	Cl	0.470654	0.880556	-0.330596
H167	H	0.440914	0.893943	0.067369
Cl168	Cl	0.549897	1.017371	-0.467391
Cl169	Cl	0.334002	1.017321	0.083821
H170	H	0.071307	0.499058	0.067339
H171	H	0.196214	1.003948	-0.067308
Cl172	Cl	0.303138	0.880549	-0.083760
H173	H	0.633707	1.058899	-0.425142
H174	H	-0.038659	0.499061	0.067332
H175	H	0.566435	0.263546	0.067347
Cl176	Cl	0.717507	0.466178	-0.163020
Cl177	Cl	0.550002	0.386936	0.083794
H178	H	0.701084	0.003936	-0.067347
H179	H	1.058907	0.208596	-0.000067
Cl180	Cl	0.717523	-0.119458	-0.083780
Cl181	Cl	0.549930	0.801300	-0.467390
H182	H	0.826609	0.373545	-0.067370
H183	H	0.566426	0.768422	-0.697143
Cl184	Cl	1.101178	0.250126	0.083730
H185	H	0.330924	0.499056	0.067339
Cl186	Cl	0.550001	-0.119463	0.083800
Cl187	Cl	0.964385	0.386925	0.083773
Cl188	Cl	0.166351	0.801298	-0.083760
H189	H	0.440889	0.499053	0.067334
Cl190	Cl	0.550004	0.017348	0.083800
H191	H	0.306181	0.768425	-0.067314
Cl192	Cl	0.717630	0.466172	-0.669413
Cl193	Cl	0.550025	0.801296	-0.836967
H194	H	0.633856	0.208582	0.425192
