data_functionalizedCrystal
_audit_creation_method	'MofGen! by Chris Wilmer'
_symmetry_space_group_name_H-M	'P1'
_symmetry_Int_Tables_number	1
_symmetry_cell_setting	triclinic
loop_
_symmetry_equiv_pos_as_xyz
  x,y,z
_cell_length_a	14.908571
_cell_length_b	15.299816
_cell_length_c	14.908662
_cell_angle_alpha	102.321327
_cell_angle_beta	83.592432
_cell_angle_gamma	77.679493
loop_
_atom_site_label
_atom_site_type_symbol
_atom_site_fract_x
_atom_site_fract_y
_atom_site_fract_z
Zn1	Zn	1.502413	-0.485123	-0.680686
Zn2	Zn	1.520140	-0.629782	-0.555913
Zn3	Zn	1.338853	-0.466273	-0.517156
Zn4	Zn	1.377560	-0.629713	-0.698499
O5	O	1.434742	-0.552723	-0.613063
O6	O	1.632885	-0.512230	-0.672900
O7	O	1.487313	-0.600232	-0.422661
O8	O	1.336932	-0.339833	-0.515174
O9	O	1.645909	-0.618510	-0.581229
O10	O	1.457098	-0.353682	-0.635320
O11	O	1.354122	-0.480103	-0.394186
O12	O	1.215867	-0.480036	-0.532446
O13	O	1.402901	-0.618393	-0.824247
O14	O	1.244305	-0.600115	-0.665678
O15	O	1.494630	-0.512163	-0.811160
O16	O	1.524845	-0.758713	-0.598501
O17	O	1.420091	-0.758662	-0.703259
C18	C	1.196866	-0.538023	-0.596790
C19	C	1.095107	-0.531758	-0.589854
C20	C	0.933575	-0.645196	-0.715431
C21	C	0.837964	-0.639313	-0.708918
C22	C	0.808273	-0.514104	-0.570319
C23	C	0.903884	-0.519987	-0.576832
C24	C	0.966532	-0.585537	-0.649390
C25	C	1.062145	-0.591424	-0.655899
C26	C	1.032452	-0.466211	-0.517304
C27	C	0.936841	-0.460328	-0.510791
C28	C	1.478618	-0.792123	-0.657040
C29	C	1.497474	-0.894547	-0.675890
C30	C	1.300594	-1.154725	-0.478694
C31	C	1.282873	-1.058493	-0.460985
C32	C	1.336522	-1.017501	-0.514710
C33	C	1.407895	-1.072752	-0.586146
C34	C	1.425613	-1.168993	-0.603861
C35	C	1.461541	-1.031770	-0.639877
C36	C	1.532913	-1.087020	-0.711313
C37	C	1.550628	-1.183252	-0.729024
C38	C	1.496980	-1.224244	-0.675300
C39	C	1.443823	-0.935528	-0.622162
C40	C	1.568841	-0.949797	-0.747329
C41	C	1.586562	-1.046029	-0.765037
C42	C	1.673546	-0.567481	-0.629401
C43	C	1.775311	-0.573770	-0.636363
C44	C	1.451106	-0.567373	-0.851850
C45	C	1.458079	-0.573616	-0.953606
C46	C	1.390720	-0.312390	-0.568937
C47	C	1.371961	-0.209975	-0.550133
C48	C	1.537241	-0.644952	-1.111854
C49	C	1.530696	-0.639092	-1.016246
C50	C	1.392001	-0.513998	-0.986581
C51	C	1.398545	-0.519859	-1.082189
C52	C	1.471169	-0.585337	-1.144822
C53	C	1.477716	-0.591193	-1.240431
C54	C	1.339017	-0.466104	-1.210765
C55	C	1.332473	-0.460243	-1.115157
C56	C	1.418481	-0.538066	-0.375197
C57	C	1.411638	-0.531575	-0.273406
H58	H	0.885820	-0.406957	-0.451718
H59	H	1.273343	-0.406935	-1.064149
O60	O	1.620881	-0.910033	-0.799653
C61	C	1.670476	-0.892815	-0.953013
C62	C	1.611494	-0.937899	-0.893867
H63	H	1.662922	-0.915343	-1.029200
H64	H	1.645556	-0.814536	-0.928157
H65	H	1.746678	-0.915241	-0.945470
H66	H	1.535279	-0.915546	-0.901383
H67	H	1.636492	-1.016171	-0.918738
O68	O	1.548294	-0.654876	-1.301152
C69	C	1.685197	-0.778301	-1.320476
C70	C	1.605304	-0.706233	-1.251613
H71	H	1.731323	-0.819830	-1.280449
H72	H	1.655105	-0.826689	-1.371196
H73	H	1.728349	-0.741687	-1.360766
H74	H	1.562123	-0.742770	-1.211259
H75	H	1.635457	-0.657850	-1.200954
O76	O	1.594895	-0.696869	-0.984099
C77	C	1.713431	-0.710294	-0.886945
C78	C	1.640743	-0.644752	-0.923260
H79	H	1.750533	-0.668184	-0.837765
H80	H	1.677201	-0.753117	-0.848092
H81	H	1.766419	-0.758116	-0.948156
H82	H	1.587735	-0.596873	-0.862103
H83	H	1.677038	-0.601993	-0.962141
H84	H	1.322090	-0.939144	-0.500286
H85	H	1.256917	-1.188109	-0.434963
O86	O	1.321540	-0.450426	-0.925602
C87	C	1.249961	-0.386010	-0.765167
C88	C	1.329816	-0.458034	-0.834121
H89	H	1.256613	-0.392150	-0.691192
H90	H	1.253707	-0.313831	-0.771340
H91	H	1.180397	-0.398774	-0.781936
H92	H	1.399418	-0.445357	-0.817398
H93	H	1.325987	-0.530189	-0.827934
O94	O	1.274876	-0.408295	-1.242951
C95	C	1.223509	-0.361858	-1.377089
C96	C	1.296197	-0.427391	-1.340766
H97	H	1.240732	-0.377261	-1.456174
H98	H	1.151350	-0.372340	-1.356272
H99	H	1.224667	-0.287404	-1.345694
H100	H	1.295124	-0.501871	-1.372142
H101	H	1.368323	-0.416829	-1.361571
O102	O	1.064312	-0.408207	-0.453047
C103	C	1.024765	-0.283356	-0.314923
C104	C	0.988558	-0.348999	-0.387616
H105	H	0.963534	-0.235457	-0.262015
H106	H	1.073936	-0.325351	-0.277720
H107	H	1.063633	-0.240622	-0.351264
H108	H	0.949647	-0.391748	-0.351348
H109	H	0.939434	-0.306950	-0.424815
H110	H	1.385710	-0.890552	-0.563998
H111	H	1.511407	-1.302603	-0.689711
H112	H	0.811135	-0.687892	-0.762697
O113	O	1.213545	-1.004961	-0.391530
C114	C	1.091386	-1.000970	-0.269280
C115	C	1.169887	-1.061705	-0.347903
H116	H	1.056054	-1.046822	-0.233998
H117	H	1.121843	-0.955582	-0.215968
H118	H	1.038102	-0.955534	-0.299716
H119	H	1.223199	-1.107196	-0.317550
H120	H	1.139363	-1.107032	-0.401202
O121	O	0.994485	-0.708962	-0.785796
C122	C	1.126122	-0.840737	-0.828116
C123	C	1.057191	-0.768588	-0.748339
H124	H	1.176851	-0.888951	-0.797861
H125	H	1.086194	-0.882440	-0.874196
H126	H	1.166394	-0.804183	-0.871359
H127	H	1.016902	-0.805067	-0.705027
H128	H	1.097173	-0.726889	-0.702326
O129	O	0.747446	-0.450296	-0.499921
C130	C	0.686473	-0.288971	-0.424920
C131	C	0.755378	-0.361143	-0.504700
H132	H	0.692876	-0.216876	-0.428745
H133	H	0.612444	-0.294914	-0.431587
H134	H	0.703135	-0.301706	-0.355316
H135	H	0.738801	-0.348455	-0.574340
H136	H	0.829386	-0.355183	-0.497950
O137	O	1.607897	-0.708507	-1.172600
C138	C	1.773831	-0.764604	-1.220773
C139	C	1.693902	-0.692588	-1.151906
H140	H	1.843384	-0.751746	-1.204079
H141	H	1.770160	-0.836777	-1.214512
H142	H	1.767112	-0.758563	-1.294764
H143	H	1.700569	-0.698543	-1.077885
H144	H	1.697598	-0.620444	-1.158248
H145	H	1.113152	-0.644799	-0.714978
O146	O	1.620021	-1.236789	-0.798424
C147	C	1.742129	-1.240782	-0.920726
C148	C	1.663582	-1.180047	-0.842150
H149	H	1.777357	-1.194931	-0.956114
H150	H	1.795502	-1.286171	-0.890332
H151	H	1.711628	-1.286218	-0.973949
H152	H	1.693999	-1.134555	-0.788901
H153	H	1.610221	-1.134719	-0.872612
H154	H	1.644674	-1.091028	-0.823202
