data_functionalizedCrystal
_audit_creation_method	'MofGen! by Chris Wilmer'
_symmetry_space_group_name_H-M	'P1'
_symmetry_Int_Tables_number	1
_symmetry_cell_setting	triclinic
loop_
_symmetry_equiv_pos_as_xyz
  x,y,z
_cell_length_a	19.902436
_cell_length_b	18.760492
_cell_length_c	19.902436
_cell_angle_alpha	120.007872
_cell_angle_beta	90.002400
_cell_angle_gamma	59.995679
loop_
_atom_site_label
_atom_site_type_symbol
_atom_site_fract_x
_atom_site_fract_y
_atom_site_fract_z
Zr1	Zr	0.647294	0.780185	0.088156
O2	O	0.539996	0.928926	0.195463
O3	O	0.680190	0.631463	0.055257
O4	O	0.680184	0.780196	0.195446
O5	O	0.540002	0.780177	-0.055306
O6	O	0.790763	0.780182	0.195437
O7	O	0.540002	0.780193	0.055273
O8	O	0.790773	0.514126	-0.055336
O9	O	0.539992	1.046233	0.195467
O10	O	0.776739	0.692617	0.041223
O11	O	0.694216	0.692615	-0.041294
O12	O	0.694209	0.867729	0.123761
O13	O	0.611686	0.867727	0.041243
Zr14	Zr	0.823655	0.780137	-0.088221
Zr15	Zr	0.823654	0.780163	0.088141
Zr16	Zr	0.647295	0.780159	-0.088206
Zr17	Zr	0.647288	0.967276	0.088162
Zr18	Zr	0.823661	0.593046	-0.088227
O19	O	0.790759	0.928858	-0.055322
O20	O	0.790758	0.928895	0.195442
O21	O	0.539997	0.928890	-0.055301
O22	O	0.930953	0.631396	-0.195528
O23	O	0.930952	0.631432	0.055236
O24	O	0.680191	0.631427	-0.195507
O25	O	0.930947	0.780144	0.055242
O26	O	0.790765	0.780126	-0.195511
O27	O	0.680186	0.780140	-0.195502
O28	O	0.930947	0.780128	-0.055338
O29	O	0.680175	1.046216	0.195456
O30	O	0.790774	0.514106	-0.195520
O31	O	0.930957	0.514089	-0.195532
O32	O	0.930956	0.514109	-0.055348
O33	O	0.539993	1.046213	0.055283
O34	O	0.680176	1.046195	0.055271
O35	O	0.776740	0.692593	-0.123826
O36	O	0.859263	0.692594	-0.041308
O37	O	0.776733	0.867707	0.041229
O38	O	0.694210	0.867705	-0.041288
C39	C	0.735482	0.546138	-0.000041
C40	C	0.735485	0.466713	-0.000043
C41	C	0.692387	0.130918	-0.043099
C42	C	0.778543	0.130924	0.043052
C43	C	0.778549	0.205539	0.043047
C44	C	0.735473	0.242849	-0.000030
C45	C	0.692390	0.205542	-0.043103
C46	C	0.821624	0.242859	0.086125
C47	C	0.821632	0.317479	0.086123
C48	C	0.778560	0.354785	0.043040
C49	C	0.735476	0.317473	-0.000035
C50	C	0.692399	0.354782	-0.043112
C51	C	0.649320	0.317467	-0.086192
C52	C	0.649318	0.242848	-0.086185
C53	C	0.778561	0.429404	0.043034
C54	C	0.692402	0.429407	-0.043116
C55	C	0.514874	0.780188	-0.000015
C56	C	0.440005	0.780198	-0.000008
C57	C	0.168003	0.780148	-0.000040
C58	C	0.144432	0.890612	0.051776
C59	C	0.222270	0.890682	0.052064
C60	C	0.302946	0.780173	-0.000025
C61	C	0.300536	0.725324	0.037936
C62	C	0.222309	0.726030	0.038319
C63	C	0.223297	0.723743	-0.089841
C64	C	0.300218	0.725819	-0.089703
C65	C	0.379213	0.780182	-0.000016
C66	C	0.091738	0.780137	-0.000046
C67	C	0.956074	0.780133	-0.000050
C68	C	1.030944	0.780124	-0.000056
C69	C	0.735474	0.780193	0.220570
C70	C	0.735473	0.780203	0.295440
C71	C	0.735467	1.014183	-0.000024
C72	C	0.735464	1.093609	-0.000022
C73	C	0.735469	0.780192	0.432505
C74	C	0.683411	0.890649	0.513084
C75	C	0.683130	0.890697	0.590977
C76	C	0.735464	0.780182	0.567455
C77	C	0.697775	0.725017	0.513173
C78	C	0.697384	0.725743	0.435620
C79	C	0.825245	0.724101	0.434771
C80	C	0.825107	0.726161	0.513642
C81	C	0.735463	0.780171	0.643721
C82	C	0.735468	0.780200	0.356238
C83	C	0.735471	0.780142	0.779372
C84	C	0.735460	0.780171	0.704520
C85	C	0.956082	0.546111	-0.000059
C86	C	1.030955	0.466676	-0.000067
C87	C	0.735483	0.546106	-0.220643
C88	C	0.735486	0.466670	-0.295516
C89	C	0.956083	0.546079	-0.220661
C90	C	1.030956	0.466634	-0.295540
C91	C	0.514866	1.014243	0.220596
C92	C	0.439993	1.093688	0.295475
C93	C	0.514867	1.014211	-0.000006
C94	C	0.439994	1.093645	0.000002
C95	C	0.735466	1.014215	0.220578
C96	C	0.735463	1.093651	0.295451
C97	C	1.023039	0.429385	0.043016
C98	C	1.093382	0.354758	0.043024
C99	C	1.171641	0.317419	-0.000056
C100	C	1.179556	0.354718	-0.043141
C101	C	1.109213	0.429348	-0.043144
C102	C	0.778564	0.429355	-0.373765
C103	C	0.778564	0.354727	-0.444123
C104	C	0.735490	0.317411	-0.436230
C105	C	0.692406	0.354734	-0.357973
C106	C	0.692402	0.429365	-0.287616
C107	C	1.109200	0.429326	-0.287630
C108	C	1.179558	0.354689	-0.357981
C109	C	1.171669	0.317356	-0.436239
C110	C	1.093416	0.354671	-0.444147
C111	C	1.023060	0.429312	-0.373798
C112	C	0.361748	1.131005	0.287565
C113	C	0.291391	1.205665	0.357916
C114	C	0.299280	1.243002	0.436174
C115	C	0.377533	1.205682	0.444082
C116	C	0.447889	1.131029	0.373733
C117	C	0.447910	1.130945	-0.043074
C118	C	0.377566	1.205592	-0.043063
C119	C	0.299308	1.242934	0.000021
C120	C	0.291393	1.205631	0.043102
C121	C	0.361736	1.130990	0.043095
C122	C	0.778545	1.130944	0.287532
C123	C	0.778559	1.205572	0.357876
C124	C	0.735484	1.242912	0.436139
C125	C	0.692400	1.205612	0.444057
C126	C	0.692392	1.130980	0.373713
H127	H	0.614246	0.212458	-0.121259
H128	H	0.384026	1.235952	-0.078148
H129	H	0.104519	0.933762	0.117620
H130	H	0.511626	1.100547	-0.078163
H131	H	0.657306	1.100624	0.380172
Cl132	Cl	0.638247	0.476261	-0.189249
Cl133	Cl	1.277923	0.307790	-0.348020
Cl134	Cl	0.254066	0.598104	-0.149727
Cl135	Cl	1.260125	0.223519	-0.524672
H136	H	0.657337	0.324340	-0.351558
Cl137	Cl	1.119140	0.476250	-0.189256
H138	H	0.185764	0.765021	0.104400
H139	H	0.657316	0.100529	-0.078176
Cl140	Cl	0.387437	1.252627	0.542471
Cl141	Cl	1.083512	0.307725	-0.542536
Cl142	Cl	0.351809	1.084082	0.189191
Cl143	Cl	0.832686	0.084028	0.097210
H144	H	0.227681	1.236038	0.351461
H145	H	0.856691	0.212484	0.121202
Cl146	Cl	0.832720	1.252454	0.347904
Cl147	Cl	0.832734	0.307819	-0.542493
Cl148	Cl	0.924698	0.476197	-0.383755
H149	H	0.241985	1.303789	0.493451
H150	H	0.511597	1.100646	0.380183
Cl151	Cl	0.210883	1.336767	0.000019
H152	H	0.813640	0.459730	-0.380207
H153	H	1.243283	0.324306	-0.078216
H154	H	0.227666	1.236046	0.078180
H155	H	0.657330	1.236026	0.507788
Cl156	Cl	0.832709	0.476317	0.097192
Cl157	Cl	0.832704	1.084017	0.189152
H158	H	0.220990	0.933936	0.026800
H159	H	0.856762	0.759689	0.431900
H160	H	1.115669	0.459702	-0.078233
H161	H	0.355279	1.100623	0.078171
H162	H	0.657325	0.459777	-0.078196
Cl163	Cl	0.595163	0.364385	-0.140338
Cl164	Cl	0.753568	0.599517	0.482538
Cl165	Cl	0.875789	0.364382	0.140278
Cl166	Cl	0.083954	0.957550	0.012671
Cl167	Cl	0.735499	1.336740	0.524564
Cl168	Cl	0.219525	0.957561	0.154337
H169	H	1.228912	0.256649	-0.000048
H170	H	0.357353	0.644071	0.002010
Cl171	Cl	0.252179	0.600907	-0.016170
Cl172	Cl	0.302926	0.784155	0.138991
H173	H	0.735500	0.256641	-0.493525
Cl174	Cl	0.167230	0.778298	-0.138805
Cl175	Cl	0.388921	0.601328	-0.154323
Cl176	Cl	0.299655	0.787546	-0.133498
H177	H	0.708535	0.934237	0.514907
Cl178	Cl	0.722110	0.957507	0.651993
H179	H	0.617579	0.933572	0.513745
Cl180	Cl	0.580882	0.957209	0.651109
H181	H	0.631330	0.764495	0.435721
Cl182	Cl	1.083414	0.307879	0.097188
H183	H	0.732865	0.644688	0.378550
Cl184	Cl	0.596769	0.783468	0.570844
H185	H	0.853266	0.766387	0.551088
H186	H	0.867137	0.645558	0.495107
Cl187	Cl	0.885403	0.598474	0.347083
H188	H	0.959323	0.459785	0.078108
