data_functionalizedCrystal
_audit_creation_method	'MofGen! by Chris Wilmer'
_symmetry_space_group_name_H-M	'P1'
_symmetry_Int_Tables_number	1
_symmetry_cell_setting	triclinic
loop_
_symmetry_equiv_pos_as_xyz
  x,y,z
_cell_length_a	15.995350
_cell_length_b	10.967926
_cell_length_c	10.065875
_cell_angle_alpha	93.120479
_cell_angle_beta	81.206584
_cell_angle_gamma	95.885491
loop_
_atom_site_label
_atom_site_type_symbol
_atom_site_fract_x
_atom_site_fract_y
_atom_site_fract_z
O1	O	-0.146012	1.612887	0.265865
O2	O	-0.148403	1.262843	0.183534
O3	O	-0.025618	1.447435	0.226945
O4	O	-0.268797	1.428296	0.222454
O5	O	-0.049130	1.412236	0.445656
O6	O	-0.171915	1.227644	0.402245
O7	O	-0.169524	1.577688	0.484576
Zn8	Zn	-0.174452	1.397078	0.478135
Zn9	Zn	-0.143475	1.443454	0.189974
O10	O	-0.292308	1.393097	0.441165
C11	C	-0.158208	1.200450	0.282354
C12	C	-0.152386	1.066980	0.250961
C13	C	-0.161970	0.989241	0.350264
C14	C	-0.155953	0.851292	0.317820
C15	C	-0.311772	1.411487	0.331997
C16	C	-0.404797	1.413859	0.332558
C17	C	-0.742809	1.422380	0.334541
C18	C	-0.699429	1.553921	0.364973
C19	C	-0.602719	1.551468	0.364915
C20	C	-0.575117	1.418153	0.333557
C21	C	-0.627600	1.333212	0.443196
C22	C	-0.724349	1.336499	0.444070
C23	C	-0.697875	1.373811	0.194716
C24	C	-0.600753	1.374107	0.193080
C25	C	-0.480346	1.415757	0.333003
C26	C	-0.837581	1.424771	0.335103
C27	C	-0.006154	1.429045	0.336110
C28	C	0.086872	1.426675	0.335540
C29	C	-0.159718	1.640082	0.385753
C30	C	-0.165539	1.773553	0.417137
N31	N	-0.195593	1.365436	0.674800
N32	N	-0.122327	1.475105	-0.006688
C33	C	-0.150825	1.432437	0.758335
C34	C	-0.167102	1.408094	0.909778
H35	H	-0.566261	1.616852	0.287384
H36	H	-0.143291	0.815726	0.208778
H37	H	-0.581538	1.278105	0.162667
H38	H	-0.709959	1.620875	0.287755
H39	H	-0.174626	1.024813	0.459299
H40	H	-0.217482	1.332700	0.950368
Cl41	Cl	-0.185075	0.828454	0.585495
H42	H	-0.726505	1.277011	0.171087
Cl43	Cl	-0.132833	1.012073	0.082613
H44	H	-0.100442	1.507818	0.717739
H45	H	-0.245969	1.290047	0.715396
H46	H	-0.730305	1.591959	0.466264
H47	H	-0.586103	1.588343	0.466668
H48	H	-0.754168	1.368759	0.548551
H49	H	-0.071941	1.550490	0.952720
H50	H	-0.754192	1.239069	0.427046
Cl51	Cl	-0.601398	1.379655	0.603057
Cl52	Cl	-0.601841	1.180839	0.414804
H53	H	-0.709581	1.432023	0.110162
H54	H	-0.564997	1.436323	0.111823
