data_functionalizedCrystal
_audit_creation_method	'MofGen! by Chris Wilmer'
_symmetry_space_group_name_H-M	'P1'
_symmetry_Int_Tables_number	1
_symmetry_cell_setting	triclinic
loop_
_symmetry_equiv_pos_as_xyz
  x,y,z
_cell_length_a	14.853569
_cell_length_b	13.330367
_cell_length_c	9.065218
_cell_angle_alpha	89.997251
_cell_angle_beta	95.674275
_cell_angle_gamma	90.005581
loop_
_atom_site_label
_atom_site_type_symbol
_atom_site_fract_x
_atom_site_fract_y
_atom_site_fract_z
O1	O	1.197793	0.083373	-0.192626
O2	O	0.935504	0.083385	-0.215569
O3	O	1.072070	0.083377	0.010652
O4	O	1.061227	0.083381	-0.418847
O5	O	1.072050	-0.083470	0.010657
O6	O	0.935484	-0.083462	-0.215564
O7	O	1.197773	-0.083474	-0.192621
Cu8	Cu	1.066627	-0.098702	-0.204092
Cu9	Cu	1.066651	0.098614	-0.204098
O10	O	1.061207	-0.083466	-0.418842
C11	C	0.901897	-0.000037	-0.214526
C12	C	0.801791	-0.000032	-0.211410
C13	C	0.764409	-0.000030	-0.075567
C14	C	0.745108	-0.000039	-0.344325
C15	C	0.651053	-0.000040	-0.341401
C16	C	0.613671	-0.000038	-0.205559
C17	C	0.670345	-0.000035	-0.072640
C18	C	0.594372	-0.000053	-0.474318
C19	C	0.500310	-0.000056	-0.471399
C20	C	0.462926	-0.000046	-0.335555
C21	C	0.519606	-0.000042	-0.202631
C22	C	0.482225	-0.000040	-0.066789
C23	C	0.538903	-0.000028	0.066137
C24	C	0.632961	-0.000025	0.063205
C25	C	0.368868	-0.000050	-0.332622
C26	C	0.388160	-0.000044	-0.063861
N27	N	1.066617	-0.237484	-0.204087
C28	C	1.006176	-0.710103	-0.304229
C29	C	1.127149	-0.710078	-0.103955
C30	C	1.127139	-0.605060	-0.103950
C31	C	1.066647	-0.552558	-0.204088
C32	C	1.006166	-0.605075	-0.304231
C33	C	1.187626	-0.552535	-0.003820
C34	C	1.187618	-0.447511	-0.003812
C35	C	1.127122	-0.395007	-0.103944
C36	C	1.066637	-0.447530	-0.204090
C37	C	1.006145	-0.395029	-0.304228
C38	C	0.945656	-0.447550	-0.404367
C39	C	0.945669	-0.552572	-0.404363
C40	C	1.127108	-0.289986	-0.103949
C41	C	1.006135	-0.290001	-0.304229
C42	C	1.231380	-0.000049	-0.193663
C43	C	1.331486	-0.000047	-0.196780
C44	C	1.071018	-0.000045	0.065621
C45	C	1.067902	-0.000040	0.229402
N46	N	1.066668	0.237395	-0.204091
C47	C	1.062259	-0.000042	-0.473811
C48	C	1.065375	-0.000040	-0.637592
H49	H	0.810561	-0.000017	0.032657
H50	H	0.775551	-0.000047	-0.454921
Cl51	Cl	1.263675	-0.618535	0.122053
Cl52	Cl	0.429066	-0.000062	-0.638503
H53	H	0.624815	-0.000062	-0.584913
Cl54	Cl	1.263657	-0.381491	0.122078
Cl55	Cl	1.203152	-0.223966	0.021922
H56	H	1.176404	-0.752828	-0.022433
H57	H	0.357732	-0.000037	0.046760
Cl58	Cl	0.930079	-0.224007	-0.430117
H59	H	0.508455	-0.000020	0.176741
Cl60	Cl	0.930132	-0.776124	-0.430108
Cl61	Cl	0.869634	-0.618600	-0.530247
Cl62	Cl	0.297620	-0.000076	-0.499714
H63	H	0.679117	-0.000018	0.171425
H64	H	0.896407	-0.404791	-0.485907
