data_functionalizedCrystal
_audit_creation_method	'MofGen! by Chris Wilmer'
_symmetry_space_group_name_H-M	'P1'
_symmetry_Int_Tables_number	1
_symmetry_cell_setting	triclinic
loop_
_symmetry_equiv_pos_as_xyz
  x,y,z
_cell_length_a	15.944551
_cell_length_b	19.188930
_cell_length_c	14.421503
_cell_angle_alpha	89.999163
_cell_angle_beta	89.996859
_cell_angle_gamma	83.321760
loop_
_atom_site_label
_atom_site_type_symbol
_atom_site_fract_x
_atom_site_fract_y
_atom_site_fract_z
O1	O	1.114192	0.090038	-0.077026
O2	O	0.869601	0.101140	-0.077050
O3	O	0.998955	-0.006048	-0.077019
O4	O	0.984838	0.197227	-0.077057
O5	O	0.998934	-0.006032	0.077204
O6	O	0.869580	0.101156	0.077173
O7	O	1.114171	0.090054	0.077198
Cu8	Cu	0.991873	0.095607	0.091267
Cu9	Cu	0.991899	0.095588	-0.091120
O10	O	0.984817	0.197243	0.077167
C11	C	0.838298	0.100687	0.000059
C12	C	0.745057	0.099306	0.000050
C13	C	0.530462	0.029563	0.000081
C14	C	0.469331	0.061941	-0.075965
C15	C	0.574341	0.096806	0.000062
C16	C	0.469332	0.061973	0.076087
C17	C	0.409437	0.094386	0.000077
C18	C	0.514438	0.129203	-0.076047
C19	C	0.514446	0.129225	0.076073
C20	C	0.453332	0.161652	0.000008
C21	C	0.669338	0.098198	0.000052
C22	C	0.314441	0.093000	0.000080
C23	C	0.998487	-0.032052	0.000095
C24	C	0.997115	-0.109560	0.000103
C25	C	1.073016	-0.154288	0.000115
C26	C	1.071726	-0.227115	0.000100
C27	C	0.994532	-0.255211	0.000092
C28	C	0.918622	-0.210474	0.000075
C29	C	0.919913	-0.137648	0.000080
N30	N	0.935519	-0.363364	0.052571
N31	N	0.934298	-0.432545	0.052568
C32	C	0.990637	-0.474630	0.000073
N33	N	1.048256	-0.444921	-0.052407
N34	N	1.049480	-0.375733	-0.052400
C35	C	0.993123	-0.334178	0.000085
C36	C	1.065145	-0.598326	0.000067
C37	C	1.063852	-0.671154	0.000046
C38	C	0.910745	-0.654511	0.000030
C39	C	0.912040	-0.581685	0.000041
C40	C	0.989242	-0.553597	0.000064
C41	C	1.145474	0.090507	0.000087
C42	C	1.238715	0.091889	0.000089
C43	C	0.985285	0.223247	0.000050
C44	C	0.986657	0.300755	0.000036
N45	N	0.991862	0.095619	0.219549
N46	N	0.991917	0.095569	-0.219401
C47	C	0.932038	0.145161	0.469188
C48	C	1.007887	0.158716	0.530995
C49	C	0.991882	0.095603	0.408710
C50	C	0.916052	0.082064	0.530997
C51	C	0.991895	0.095588	0.591431
C52	C	1.067770	0.109189	0.469157
C53	C	0.975885	0.032510	0.469153
C54	C	1.051789	0.046038	0.530932
C55	C	0.991874	0.095613	0.303449
C56	C	0.991913	0.095578	0.696690
H57	H	0.534329	0.157616	-0.140409
H58	H	1.102458	0.004119	0.557872
H59	H	0.419965	0.217516	-0.000045
N60	N	0.540934	0.166896	0.161221
H61	H	0.524711	0.141462	0.218638
H62	H	0.604108	0.167955	0.160198
H63	H	1.021430	0.212066	0.558159
H64	H	0.851919	0.070620	0.558163
H65	H	0.449336	0.033493	-0.140247
N66	N	0.838050	-0.089396	0.000074
H67	H	0.804364	-0.098424	-0.057102
H68	H	0.804416	-0.098457	0.057277
H69	H	0.850233	-0.545266	0.000037
H70	H	1.128007	-0.575456	0.000081
H71	H	1.131917	0.120698	0.442107
H72	H	0.847892	-0.677386	0.000019
N73	N	0.865077	0.200716	0.433260
H74	H	0.822964	0.177894	0.394716
H75	H	0.835119	0.226200	0.487288
N76	N	0.957923	-0.038138	0.433141
H77	H	0.900593	-0.048317	0.455596
H78	H	0.958651	-0.037695	0.363117
H79	H	0.449343	0.033526	0.140376
H80	H	1.135880	-0.131424	0.000131
N81	N	1.153599	-0.275362	0.000125
H82	H	1.156457	-0.305947	0.057297
H83	H	1.156445	-0.305905	-0.057082
H84	H	0.564003	-0.026244	-0.000003
N85	N	0.835361	-0.240772	0.000061
H86	H	0.846059	-0.293694	0.000062
H87	H	0.802148	-0.224410	0.057229
H88	H	1.125662	-0.707571	0.000051
