data_functionalizedCrystal
_audit_creation_method	'MofGen! by Chris Wilmer'
_symmetry_space_group_name_H-M	'P1'
_symmetry_Int_Tables_number	1
_symmetry_cell_setting	triclinic
loop_
_symmetry_equiv_pos_as_xyz
  x,y,z
_cell_length_a	15.995300
_cell_length_b	14.472311
_cell_length_c	14.519709
_cell_angle_alpha	89.989393
_cell_angle_beta	96.424024
_cell_angle_gamma	90.005718
loop_
_atom_site_label
_atom_site_type_symbol
_atom_site_fract_x
_atom_site_fract_y
_atom_site_fract_z
O1	O	1.111188	0.076877	-0.118659
O2	O	0.867429	0.076871	-0.133387
O3	O	0.995772	0.076866	0.008229
O4	O	0.982846	0.076882	-0.260274
O5	O	0.995763	-0.076816	0.008247
O6	O	0.867420	-0.076811	-0.133369
O7	O	1.111179	-0.076805	-0.118641
Cu8	Cu	0.989299	-0.090840	-0.126003
Cu9	Cu	0.989310	0.090907	-0.126024
O10	O	0.982837	-0.076800	-0.260256
C11	C	0.836229	0.000030	-0.132777
C12	C	0.743273	0.000027	-0.130976
N13	N	0.989298	-0.218671	-0.125988
C14	C	0.573085	0.000034	-0.127650
C15	C	0.525770	0.000038	-0.228484
C16	C	0.429080	0.000389	-0.226644
C17	C	0.405524	0.000040	-0.124377
C18	C	0.446587	0.087624	-0.074360
C19	C	0.543224	0.087695	-0.076912
C20	C	0.543490	-0.087076	-0.075399
C21	C	0.446546	-0.088225	-0.075408
C22	C	0.310826	0.000046	-0.122522
C23	C	0.667784	0.000034	-0.129503
C24	C	0.989310	-0.592762	-0.126017
C25	C	1.058207	-0.553571	-0.050495
C26	C	1.058027	-0.446483	-0.050217
C27	C	0.989305	-0.407171	-0.126003
C28	C	0.901914	-0.446066	-0.105004
C29	C	0.902322	-0.553187	-0.104470
C30	C	1.007017	-0.553261	-0.222762
C31	C	1.008999	-0.446132	-0.222113
C32	C	0.989296	-0.302283	-0.125996
C33	C	0.989313	-0.697651	-0.126022
C34	C	1.142380	0.000039	-0.119251
C35	C	1.235336	0.000047	-0.121051
C36	C	0.995165	0.000025	0.042596
C37	C	0.993360	0.000024	0.144974
N38	N	0.989318	0.218737	-0.126032
C39	C	0.983444	0.000044	-0.294624
C40	C	0.985249	0.000050	-0.397001
C41	C	0.986714	0.000048	0.519856
C42	C	0.988560	0.000041	0.415552
C43	C	0.990037	0.000035	0.332418
C44	C	0.991883	0.000030	0.228108
H45	H	0.400672	-0.062380	-0.265946
H46	H	0.544319	-0.062758	-0.268998
C47	C	0.830971	-0.411670	-0.177326
H48	H	0.778694	-0.436008	-0.163321
H49	H	0.828955	-0.346089	-0.176022
H50	H	0.841491	-0.431711	-0.237256
H51	H	1.123382	-0.579323	-0.062794
C52	C	0.880349	-0.409853	-0.010775
H53	H	0.924483	-0.371043	0.015889
H54	H	0.829394	-0.375643	-0.019476
H55	H	0.873883	-0.460541	0.029405
C56	C	1.091274	-0.589739	-0.250034
H57	H	1.116443	-0.629404	-0.202667
H58	H	1.081575	-0.623095	-0.306560
H59	H	1.127793	-0.539218	-0.257677
H60	H	1.073288	-0.420711	-0.238048
C61	C	0.552332	0.084768	-0.282420
H62	H	0.592129	0.120142	-0.243754
H63	H	0.576928	0.064773	-0.335580
H64	H	0.504320	0.121674	-0.301184
C65	C	1.042714	-0.411876	0.046767
H66	H	1.036571	-0.463286	0.086146
H67	H	1.089169	-0.375424	0.071833
H68	H	0.992938	-0.375577	0.042154
C69	C	0.391534	0.085686	-0.279554
H70	H	0.435386	0.120265	-0.302246
H71	H	0.352623	0.066267	-0.330076
H72	H	0.363441	0.123158	-0.238979
H73	H	0.564037	-0.153481	-0.108588
C74	C	0.408360	0.176019	-0.120732
H75	H	0.433614	0.228651	-0.089970
H76	H	0.418407	0.177021	-0.183978
H77	H	0.349472	0.176923	-0.116843
C78	C	0.586276	-0.088228	0.025028
H79	H	0.622007	-0.035911	0.035102
H80	H	0.544561	-0.086440	0.066702
H81	H	0.618672	-0.143037	0.035227
C82	C	0.945610	-0.409996	-0.301591
H83	H	0.906125	-0.370504	-0.277089
H84	H	0.974723	-0.376528	-0.344397
H85	H	0.916857	-0.460673	-0.332309
H86	H	0.561600	0.153418	-0.112974
C87	C	0.586677	0.092757	0.023107
H88	H	0.545245	0.094767	0.065117
H89	H	0.621157	0.039797	0.035660
H90	H	0.620424	0.146854	0.030250
H91	H	0.886738	-0.578187	-0.033916
C92	C	0.939152	-0.587503	-0.298687
H93	H	0.900212	-0.625689	-0.271611
H94	H	0.910403	-0.535997	-0.327811
H95	H	0.964977	-0.621971	-0.343469
C96	C	0.830973	-0.588222	-0.175945
H97	H	0.830741	-0.653867	-0.176106
H98	H	0.778531	-0.566170	-0.160027
H99	H	0.839639	-0.566252	-0.235802
H100	H	0.432375	0.090630	0.000783
H101	H	0.419257	-0.153021	-0.111933
H102	H	0.431096	-0.093777	-0.000847
H103	H	1.047044	-0.580506	0.020893
C104	C	1.145778	-0.410951	-0.067093
H105	H	1.181859	-0.461986	-0.074178
H106	H	1.141261	-0.374348	-0.121737
H107	H	1.168362	-0.374614	-0.015757
