data_functionalizedCrystal
_audit_creation_method	'MofGen! by Chris Wilmer'
_symmetry_space_group_name_H-M	'P1'
_symmetry_Int_Tables_number	1
_symmetry_cell_setting	triclinic
loop_
_symmetry_equiv_pos_as_xyz
  x,y,z
_cell_length_a	19.805407
_cell_length_b	18.101395
_cell_length_c	19.805399
_cell_angle_alpha	89.974882
_cell_angle_beta	89.980427
_cell_angle_gamma	90.031104
loop_
_atom_site_label
_atom_site_type_symbol
_atom_site_fract_x
_atom_site_fract_y
_atom_site_fract_z
Zn1	Zn	1.034714	-0.294847	-0.382731
Zn2	Zn	1.034619	-0.418690	-0.269548
Zn3	Zn	0.921528	-0.294867	-0.269556
Zn4	Zn	0.921482	-0.418651	-0.382695
O5	O	0.978086	-0.356764	-0.326132
O6	O	1.129418	-0.311283	-0.367729
O7	O	1.019597	-0.402290	-0.174832
O8	O	0.936601	-0.191232	-0.284587
O9	O	1.129348	-0.402270	-0.284574
O10	O	1.019758	-0.191217	-0.367737
O11	O	0.936510	-0.311318	-0.174838
O12	O	0.826806	-0.311279	-0.284552
O13	O	0.936523	-0.402203	-0.477416
O14	O	0.826772	-0.402223	-0.367674
O15	O	1.019714	-0.311245	-0.477443
O16	O	1.019553	-0.522318	-0.284538
O17	O	0.936432	-0.522289	-0.367667
C18	C	0.802230	-0.356750	-0.326110
C19	C	0.726998	-0.356761	-0.326117
C20	C	0.977995	-0.549174	-0.326112
C21	C	0.978018	-0.631489	-0.326127
C22	C	0.691654	-0.404187	-0.369329
C23	C	0.620965	-0.404188	-0.369339
C24	C	0.585622	-0.356767	-0.326132
C25	C	0.620971	-0.309336	-0.282919
C26	C	0.691658	-0.309332	-0.282913
C27	C	0.335898	-0.309353	-0.282941
C28	C	0.265206	-0.309363	-0.282948
C29	C	0.265205	-0.404209	-0.369367
C30	C	0.335892	-0.404205	-0.369361
C31	C	0.371235	-0.356771	-0.326150
C32	C	0.447883	-0.356770	-0.326141
C33	C	0.508975	-0.356772	-0.326137
C34	C	0.978167	-0.930579	-0.326163
C35	C	0.925991	-0.899267	-0.378595
C36	C	0.925743	-0.813649	-0.378431
C37	C	0.978093	-0.782197	-0.326146
C38	C	0.958782	-0.813345	-0.254811
C39	C	0.958446	-0.898990	-0.255125
C40	C	1.049768	-0.898924	-0.344438
C41	C	1.049347	-0.813273	-0.346002
C42	C	0.978053	-0.698337	-0.326131
C43	C	0.978206	-1.014439	-0.326173
C44	C	1.154629	-0.356779	-0.326155
C45	C	1.229861	-0.356785	-0.326164
C46	C	0.978124	-0.356717	-0.502675
C47	C	0.978140	-0.356697	-0.577907
C48	C	0.978195	-0.163602	-0.326167
C49	C	0.978242	-0.081288	-0.326182
C50	C	1.021458	-0.309333	-0.613266
C51	C	1.021465	-0.309311	-0.683955
C52	C	0.978157	-0.356659	-0.719283
C53	C	0.934834	-0.404025	-0.683919
C54	C	0.934824	-0.404042	-0.613231
C55	C	0.934872	-0.403956	-0.968992
C56	C	0.934887	-0.403937	-1.039684
C57	C	1.021513	-0.309225	-1.039716
C58	C	1.021503	-0.309242	-0.969028
C59	C	0.978178	-0.356606	-0.933670
C60	C	0.978170	-0.356628	-0.857022
C61	C	0.978168	-0.356641	-0.795930
C62	C	0.978087	-0.356757	-0.150276
C63	C	0.978202	-0.356568	-0.075045
H64	H	0.720425	-0.442805	-0.404510
H65	H	0.364665	-0.270735	-0.247751
C66	C	0.582479	-0.257926	-0.236037
C67	C	0.513009	-0.268093	-0.245277
C68	C	0.477530	-0.220752	-0.202095
H69	H	0.594009	-0.208152	-0.245982
H70	H	0.594000	-0.268702	-0.190526
H71	H	0.501492	-0.257312	-0.290778
H72	H	0.501459	-0.317857	-0.235327
H73	H	0.489051	-0.231528	-0.156584
H74	H	0.489066	-0.170981	-0.212044
H75	H	0.430391	-0.227649	-0.208354
H76	H	0.899604	-0.442533	-0.940212
H77	H	0.899543	-0.442604	-0.584443
H78	H	1.067374	-0.920474	-0.395569
C79	C	1.068549	-0.257754	-0.930795
C80	C	1.106475	-0.216254	-0.976892
C81	C	1.149813	-0.168806	-0.941697
H82	H	1.098081	-0.286009	-0.903217
H83	H	1.042684	-0.225453	-0.903237
H84	H	1.132338	-0.248551	-1.004439
H85	H	1.076962	-0.187984	-1.004472
H86	H	1.123948	-0.136504	-0.914139
H87	H	1.179339	-0.197066	-0.914120
H88	H	1.175546	-0.140637	-0.972968
C89	C	1.006931	-0.926765	-0.201334
C90	C	1.007017	-1.004114	-0.201229
C91	C	1.051686	-1.029721	-0.151700
H92	H	0.992973	-0.909254	-0.158335
H93	H	1.051138	-0.909186	-0.210816
H94	H	0.962820	-1.021685	-0.191742
H95	H	1.020982	-1.021644	-0.244215
H96	H	1.095893	-1.012143	-0.161182
H97	H	1.037724	-1.012205	-0.108706
H98	H	1.051756	-1.082204	-0.151627
H99	H	0.899569	-0.442573	-0.712688
C100	C	0.854960	-0.786368	-0.362424
C101	C	0.831156	-0.743457	-0.416209
C102	C	0.765948	-0.718324	-0.401488
H103	H	0.855984	-0.757318	-0.322507
H104	H	0.825845	-0.827484	-0.355881
H105	H	0.860264	-0.702348	-0.422743
H106	H	0.830116	-0.772492	-0.456131
H107	H	0.736832	-0.759440	-0.394946
H108	H	0.766978	-0.689277	-0.361570
H109	H	0.749786	-0.689212	-0.437981
H110	H	1.056788	-0.270657	-1.068513
C111	C	1.068561	-0.258047	-0.574877
C112	C	1.111928	-0.299989	-0.534307
C113	C	1.155332	-0.252767	-0.498941
H114	H	1.042760	-0.225771	-0.547248
H115	H	1.094399	-0.229846	-0.606039
H116	H	1.086093	-0.328177	-0.503148
H117	H	1.137744	-0.332263	-0.561918
H118	H	1.181170	-0.224566	-0.530104
H119	H	1.129525	-0.220493	-0.471317
H120	H	1.184765	-0.281217	-0.471415
H121	H	0.899617	-0.442494	-1.068446
C122	C	0.729913	-0.257817	-0.235918
C123	C	0.683833	-0.216304	-0.198066
C124	C	0.719047	-0.168846	-0.154761
H125	H	0.757516	-0.225519	-0.261782
H126	H	0.757447	-0.286089	-0.206344
H127	H	0.656310	-0.188035	-0.227636
H128	H	0.656228	-0.248583	-0.172188
H129	H	0.746581	-0.197118	-0.125186
H130	H	0.746649	-0.136553	-0.180630
H131	H	0.687787	-0.140679	-0.129068
H132	H	0.236420	-0.442829	-0.404554
H133	H	1.056741	-0.270744	-0.712741
C134	C	0.582561	-0.455562	-0.416337
C135	C	0.542031	-0.413703	-0.459810
C136	C	0.506652	-0.461005	-0.503123
H137	H	0.554904	-0.487808	-0.390475
H138	H	0.613716	-0.483792	-0.442103
H139	H	0.510879	-0.385486	-0.434047
H140	H	0.569670	-0.381459	-0.485687
H141	H	0.537808	-0.489235	-0.528888
H142	H	0.479000	-0.493249	-0.477255
H143	H	0.479154	-0.432611	-0.532628
H144	H	0.937825	-0.792587	-0.431325
H145	H	0.364665	-0.442822	-0.404542
C146	C	0.942020	-0.926781	-0.449298
C147	C	0.999068	-0.972363	-0.447049
C148	C	1.013848	-0.997737	-0.512168
H149	H	0.950687	-0.885843	-0.478050
H150	H	0.904682	-0.954026	-0.466241
H151	H	1.036398	-0.945118	-0.430116
H152	H	0.990417	-1.013312	-0.418310
H153	H	0.976510	-1.024982	-0.529110
H154	H	1.022512	-0.956795	-0.540914
H155	H	1.052552	-1.028672	-0.510649
H156	H	0.906997	-0.791960	-0.239053
H157	H	0.236431	-0.270742	-0.247765
H158	H	0.906106	-0.919033	-0.239644
C159	C	0.855661	-0.928144	-0.362774
C160	C	0.831327	-0.968280	-0.418075
C161	C	0.766547	-0.994904	-0.403519
H162	H	0.826339	-0.887781	-0.353921
H163	H	0.857548	-0.959355	-0.324242
H164	H	0.829435	-0.937071	-0.456594
H165	H	0.860630	-1.008653	-0.426935
H166	H	0.768435	-1.026115	-0.364988
H167	H	0.737232	-0.954537	-0.394666
H168	H	0.750032	-1.022145	-0.441035
C169	C	1.007906	-0.786074	-0.201388
C170	C	1.056532	-0.740689	-0.231667
C171	C	1.101791	-0.715544	-0.182475
H172	H	1.029496	-0.827120	-0.180741
H173	H	0.984030	-0.758742	-0.168129
H174	H	1.080406	-0.768020	-0.264914
H175	H	1.034963	-0.699632	-0.252310
H176	H	1.077915	-0.688213	-0.149216
H177	H	1.123375	-0.756595	-0.161831
H178	H	1.134785	-0.684743	-0.203011
C179	C	1.068861	-0.786266	-0.416022
C180	C	1.132446	-0.814370	-0.433152
C181	C	1.150430	-0.789528	-0.497661
H182	H	1.070416	-0.733817	-0.416285
H183	H	1.036376	-0.802813	-0.447904
H184	H	1.164924	-0.797819	-0.401279
H185	H	1.130908	-0.866816	-0.432905
H186	H	1.117944	-0.806076	-0.529542
H187	H	1.151981	-0.737080	-0.497917
H188	H	1.193571	-0.808599	-0.509294
C189	C	1.101603	-0.926070	-0.293587
C190	C	1.103836	-1.003366	-0.294865
C191	C	1.151580	-1.028404	-0.248037
H192	H	1.089301	-0.909893	-0.249656
H193	H	1.144784	-0.906807	-0.304894
H194	H	1.060665	-1.022622	-0.283553
H195	H	1.116147	-1.019563	-0.338785
H196	H	1.194760	-1.009141	-0.259344
H197	H	1.139273	-1.012222	-0.204109
H198	H	1.153106	-1.080851	-0.248902
H199	H	1.090278	-0.791859	-0.310597
