data_functionalizedCrystal
_audit_creation_method	'MofGen! by Chris Wilmer'
_symmetry_space_group_name_H-M	'P1'
_symmetry_Int_Tables_number	1
_symmetry_cell_setting	triclinic
loop_
_symmetry_equiv_pos_as_xyz
  x,y,z
_cell_length_a	13.635800
_cell_length_b	10.943574
_cell_length_c	10.943624
_cell_angle_alpha	88.227607
_cell_angle_beta	71.161201
_cell_angle_gamma	108.837846
loop_
_atom_site_label
_atom_site_type_symbol
_atom_site_fract_x
_atom_site_fract_y
_atom_site_fract_z
V1	V	-2.057746	-0.178596	0.402524
O2	O	-2.036602	0.008617	0.394890
O3	O	-2.046719	-0.354160	0.399743
O4	O	-2.046727	-0.175834	0.578091
O5	O	-2.036594	-0.170944	0.215308
V6	V	-2.296145	-0.156205	0.380134
O7	O	-2.195751	-0.227713	0.451636
O8	O	-2.383238	-0.107089	0.331022
O9	O	-2.195568	0.019358	0.382915
O10	O	-2.375987	-0.343419	0.387769
O11	O	-2.375995	-0.163858	0.567350
O12	O	-2.195560	-0.158968	0.204568
V13	V	-1.557746	-0.178596	0.402524
O14	O	-1.536602	0.008617	0.394890
O15	O	-1.546719	-0.354160	0.399743
O16	O	-1.546727	-0.175834	0.578091
O17	O	-1.536594	-0.170944	0.215308
V18	V	-1.796145	-0.156205	0.380134
O19	O	-1.695751	-0.227713	0.451636
O20	O	-1.883238	-0.107089	0.331022
O21	O	-1.695568	0.019358	0.382915
O22	O	-1.875987	-0.343419	0.387769
O23	O	-1.875995	-0.163858	0.567350
O24	O	-1.695560	-0.158968	0.204568
C25	C	-1.971998	-0.396959	0.393386
C26	C	-2.003714	-0.540485	0.392284
C27	C	-1.945129	-0.703489	0.384276
C28	C	-2.001817	-0.637681	0.495234
C29	C	-1.946592	-0.604393	0.281389
C30	C	-2.116995	-0.730421	0.501411
C31	C	-2.061732	-0.697124	0.287470
C32	C	-2.118506	-0.631364	0.398458
C33	C	-1.972007	-0.169485	0.620884
C34	C	-2.003727	-0.168388	0.764411
C35	C	-2.101961	0.062151	0.389268
C36	C	-2.059865	0.205675	0.390379
C37	C	-2.101951	-0.165321	0.161767
C38	C	-2.059850	-0.166411	0.018239
C39	C	-1.471998	-0.396959	0.393386
C40	C	-1.503714	-0.540485	0.392284
C41	C	-1.445129	-0.703489	0.384276
C42	C	-1.501817	-0.637681	0.495234
C43	C	-1.446592	-0.604393	0.281389
C44	C	-1.616995	-0.730421	0.501411
C45	C	-1.561732	-0.697124	0.287470
C46	C	-1.618506	-0.631364	0.398458
C47	C	-1.926142	-0.161001	0.841560
C48	C	-2.020820	-0.270645	0.947533
C49	C	-1.965582	-0.056802	0.914179
C50	C	-2.098011	-0.278135	0.868507
C51	C	-2.042732	-0.064194	0.835130
C52	C	-2.137478	-0.173870	0.941074
C53	C	-1.472007	-0.169485	0.620884
C54	C	-1.503727	-0.168388	0.764411
C55	C	-1.601961	0.062151	0.389268
C56	C	-1.559865	0.205675	0.390379
C57	C	-1.601951	-0.165321	0.161767
C58	C	-1.559850	-0.166411	0.018239
C59	C	-1.426142	-0.161001	0.841560
C60	C	-1.520820	-0.270645	0.947533
C61	C	-1.465582	-0.056802	0.914179
C62	C	-1.598011	-0.278135	0.868507
C63	C	-1.542732	-0.064194	0.835130
C64	C	-1.637478	-0.173870	0.941074
H65	H	-1.872193	-0.735399	0.378404
N66	N	-1.891842	0.067118	0.941636
H67	H	-1.914435	0.067362	1.039054
H68	H	-1.812363	0.071789	0.905189
N69	N	-1.391840	0.067108	0.941650
H70	H	-1.312337	0.071848	0.905281
H71	H	-1.399428	0.145070	0.899003
H72	H	-1.653701	-0.371779	0.847949
H73	H	-1.874226	-0.549682	0.188433
N74	N	-1.348521	-0.745766	0.376485
H75	H	-1.326303	-0.724531	0.455048
H76	H	-1.370653	-0.842967	0.374930
N77	N	-2.171782	-0.402185	0.841294
H78	H	-2.251369	-0.407375	0.878454
H79	H	-2.149635	-0.402123	0.743861
H80	H	-1.587327	-0.723695	0.199608
H81	H	-1.976196	-0.611143	0.583092
N82	N	-2.256236	-0.181107	0.998358
H83	H	-2.300560	-0.261519	1.066451
H84	H	-2.259068	-0.100698	1.040109
H85	H	-1.551621	0.023090	0.786160
N86	N	-1.508983	-0.386245	1.012363
H87	H	-1.531350	-0.385102	1.109641
H88	H	-1.558229	-0.469699	0.994810
N89	N	-1.807461	-0.153996	0.783999
H90	H	-1.786495	-0.153975	0.686643
H91	H	-1.757380	-0.071236	0.801596
N92	N	-2.054515	0.051415	0.770260
H93	H	-2.004150	0.134947	0.786260
H94	H	-2.033553	0.049182	0.673226
N95	N	-1.467875	-0.602520	0.611605
H96	H	-1.389050	-0.539120	0.580565
H97	H	-1.518526	-0.560840	0.668936
H98	H	-1.374226	-0.549682	0.188433
H99	H	-2.011888	-0.357925	0.996468
H100	H	-1.336542	-0.155707	0.798112
N101	N	-1.756233	-0.181095	0.998355
H102	H	-1.806352	-0.264681	0.982122
H103	H	-1.776865	-0.179480	1.095459
N104	N	-1.712755	-0.802660	0.624704
H105	H	-1.690471	-0.780639	0.703090
H106	H	-1.778175	-0.775892	0.630273
H107	H	-2.191602	-0.599718	0.404497
N108	N	-2.212751	-0.802659	0.624708
H109	H	-2.233723	-0.899811	0.623239
H110	H	-2.190388	-0.780533	0.703020
N111	N	-2.095637	-0.732321	0.171088
H112	H	-2.045954	-0.775619	0.114653
H113	H	-2.174946	-0.794346	0.202257
N114	N	-1.715319	-0.589431	0.406445
H115	H	-1.779326	-0.635997	0.489553
H116	H	-1.692918	-0.491976	0.406319
