data_functionalizedCrystal
_audit_creation_method	'MofGen! by Chris Wilmer'
_symmetry_space_group_name_H-M	'P1'
_symmetry_Int_Tables_number	1
_symmetry_cell_setting	triclinic
loop_
_symmetry_equiv_pos_as_xyz
  x,y,z
_cell_length_a	14.853569
_cell_length_b	15.944545
_cell_length_c	13.330367
_cell_angle_alpha	89.993254
_cell_angle_beta	89.994419
_cell_angle_gamma	83.565869
loop_
_atom_site_label
_atom_site_type_symbol
_atom_site_fract_x
_atom_site_fract_y
_atom_site_fract_z
O1	O	1.196225	0.109671	-0.083382
O2	O	1.696225	0.609671	0.416618
O3	O	0.933748	0.122733	-0.083395
O4	O	1.433748	0.622733	0.416605
O5	O	1.072157	-0.006065	-0.083376
O6	O	1.572157	0.493935	0.416624
O7	O	1.057816	0.238469	-0.083401
O8	O	1.557816	0.738469	0.416599
O9	O	1.072137	-0.006068	0.083471
O10	O	1.572137	0.493932	0.583471
O11	O	0.933728	0.122731	0.083452
O12	O	1.433728	0.622731	0.583452
O13	O	1.196204	0.109668	0.083465
O14	O	1.696204	0.609668	0.583465
Cu15	Cu	1.064964	0.116199	0.098693
Cu16	Cu	1.564964	0.616199	0.598693
Cu17	Cu	1.064988	0.116202	-0.098623
Cu18	Cu	1.564988	0.616202	0.401377
O19	O	1.057796	0.238467	0.083446
O20	O	1.557796	0.738467	0.583446
C21	C	0.900150	0.122140	0.000027
C22	C	1.400150	0.622140	0.500027
C23	C	0.800069	0.120366	0.000023
C24	C	1.300069	0.620366	0.500023
C25	C	0.763793	0.043024	0.000027
C26	C	1.263793	0.543024	0.500027
C27	C	0.742304	0.196040	0.000023
C28	C	1.242304	0.696040	0.500023
C29	C	0.648272	0.194376	0.000024
C30	C	1.148272	0.694376	0.500024
C31	C	0.611996	0.117034	0.000028
C32	C	1.111996	0.617034	0.500028
C33	C	0.669753	0.041357	0.000031
C34	C	1.169753	0.541357	0.500031
C35	C	0.590508	0.270051	0.000031
C36	C	1.090508	0.770051	0.500031
C37	C	0.496470	0.268390	0.000034
C38	C	0.996470	0.768390	0.500034
C39	C	0.460193	0.191047	0.000031
C40	C	0.960193	0.691047	0.500031
C41	C	0.517956	0.115367	0.000033
C42	C	1.017956	0.615367	0.500033
C43	C	0.481681	0.038026	0.000037
C44	C	0.981681	0.538026	0.500037
C45	C	0.539442	-0.037655	0.000031
C46	C	1.039442	0.462345	0.500031
C47	C	0.633476	-0.035985	0.000028
C48	C	1.133476	0.464015	0.500028
C49	C	0.366159	0.189377	0.000034
C50	C	0.866159	0.689377	0.500034
C51	C	0.387640	0.036359	0.000041
C52	C	0.887640	0.536359	0.500041
C53	C	1.071553	-0.037361	0.000048
C54	C	1.571553	0.462639	0.500048
C55	C	1.069771	-0.130609	0.000051
C56	C	1.569771	0.369391	0.500051
C57	C	0.978654	-0.401344	0.000026
C58	C	1.478654	0.098656	0.500026
C59	C	1.022593	-0.350708	-0.082237
C60	C	1.522593	0.149292	0.417763
C61	C	1.063416	-0.466260	0.000022
C62	C	1.563416	0.033740	0.500022
C63	C	1.022596	-0.350738	0.082262
C64	C	1.522596	0.149262	0.582262
C65	C	1.066534	-0.301343	0.000038
C66	C	1.566534	0.198657	0.500038
C67	C	1.107332	-0.416852	-0.082309
C68	C	1.607332	0.083148	0.417691
C69	C	1.107323	-0.416886	0.082263
C70	C	1.607323	0.083114	0.582263
C71	C	1.151324	-0.366283	-0.000019
C72	C	1.651324	0.133717	0.499981
C73	C	1.061618	-0.561264	0.000012
C74	C	1.561618	-0.061264	0.500012
C75	C	1.068339	-0.206342	0.000041
C76	C	1.568339	0.293658	0.500041
C77	C	1.229802	0.110262	0.000040
C78	C	1.729802	0.610262	0.500040
C79	C	1.329884	0.112036	0.000038
C80	C	1.829884	0.612036	0.500038
C81	C	1.058400	0.269763	0.000019
C82	C	1.558400	0.769763	0.500019
C83	C	1.060182	0.363011	0.000010
C84	C	1.560182	0.863011	0.500010
N85	N	1.064954	0.116196	0.237474
N86	N	1.564954	0.616196	0.737474
N87	N	1.065005	0.116199	-0.237405
N88	N	1.565005	0.616199	0.262595
C89	C	1.003698	0.173212	0.710089
C90	C	1.503698	0.673212	1.210089
C91	C	1.126302	0.059186	0.710073
C92	C	1.626302	0.559186	1.210073
C93	C	1.126292	0.059184	0.605055
C94	C	1.626292	0.559184	1.105055
C95	C	1.064985	0.116197	0.552549
C96	C	1.564985	0.616197	1.052549
C97	C	1.003688	0.173213	0.605061
C98	C	1.503688	0.673213	1.105061
C99	C	1.187594	0.002175	0.552535
C100	C	1.687594	0.502175	1.052535
C101	C	1.187587	0.002171	0.447510
C102	C	1.687587	0.502171	0.947510
C103	C	1.126275	0.059180	0.395002
C104	C	1.626275	0.559180	0.895002
C105	C	1.064975	0.116198	0.447521
C106	C	1.564975	0.616198	0.947521
C107	C	1.003667	0.173211	0.395014
C108	C	1.503667	0.673211	0.895014
C109	C	0.942362	0.230225	0.447531
C110	C	1.442362	0.730225	0.947531
C111	C	0.942375	0.230223	0.552553
C112	C	1.442375	0.730223	1.052553
C113	C	1.126262	0.059183	0.289981
C114	C	1.626262	0.559183	0.789981
C115	C	1.003657	0.173212	0.289986
C116	C	1.503657	0.673212	0.789986
H117	H	0.358113	-0.026623	0.000039
H118	H	0.858113	0.473377	0.500039
C119	C	0.874941	0.292928	0.610329
C120	C	1.374941	0.792928	1.110329
N121	N	0.824149	0.340157	0.653850
N122	N	1.324149	0.840157	1.153850
C123	C	0.880040	-0.422607	-0.000088
C124	C	1.380040	0.077393	0.499912
N125	N	0.805765	-0.438625	-0.000179
N126	N	1.305765	0.061375	0.499821
H127	H	0.986804	-0.321812	-0.151787
H128	H	1.486804	0.178188	0.348213
C129	C	0.499527	-0.122728	0.000039
C130	C	0.999527	0.377272	0.500039
N131	N	0.469458	-0.186804	0.000044
N132	N	0.969458	0.313196	0.500044
C133	C	1.193694	-0.003528	0.232217
C134	C	1.693694	0.496472	0.732217
N135	N	1.244486	-0.050767	0.188711
N136	N	1.744486	0.449233	0.688711
C137	C	0.874927	0.292938	0.389761
C138	C	1.374927	0.792938	0.889761
N139	N	0.824136	0.340172	0.346244
N140	N	1.324136	0.840172	0.846244
C141	C	0.827330	-0.040221	0.000028
C142	C	1.327330	0.459779	0.500028
N143	N	0.875187	-0.102922	0.000033
N144	N	1.375187	0.397078	0.500033
H145	H	0.771845	0.259008	0.000026
H146	H	1.271845	0.759008	0.500026
C147	C	1.155663	-0.455709	-0.176372
C148	C	1.655663	0.044291	0.323628
N149	N	1.192061	-0.484977	-0.247221
N150	N	1.692061	0.015023	0.252779
H151	H	0.953782	0.219630	0.752851
H152	H	1.453782	0.719630	1.252851
H153	H	1.176222	0.012772	0.752827
H154	H	1.676222	0.512772	1.252827
H155	H	1.237514	-0.044240	0.595289
H156	H	1.737514	0.455760	1.095289
C157	C	0.936236	0.235954	0.232238
C158	C	1.436236	0.735954	0.732238
N159	N	0.885462	0.283220	0.188742
N160	N	1.385462	0.783220	0.688742
H161	H	1.237504	-0.044254	0.404758
H162	H	1.737504	0.455746	0.904758
H163	H	1.224379	-0.350710	-0.000062
H164	H	1.724379	0.149290	0.499938
H165	H	0.680513	-0.097600	0.000026
H166	H	1.180513	0.402400	0.500026
C167	C	0.630417	0.355121	0.000035
C168	C	1.130417	0.855121	0.500035
N169	N	0.660481	0.419199	0.000038
N170	N	1.160481	0.919199	0.500038
C171	C	0.432941	0.351640	0.000042
C172	C	0.932941	0.851640	0.500042
N173	N	0.385091	0.414345	0.000047
N174	N	0.885091	0.914345	0.500047
H175	H	1.143080	-0.445797	0.151817
H176	H	1.643080	0.054203	0.651817
C177	C	0.302627	0.272621	0.000039
C178	C	0.802627	0.772621	0.500039
N179	N	0.254775	0.335325	0.000039
N180	N	0.754775	0.835325	0.500039
H181	H	0.986776	-0.321865	0.151806
H182	H	1.486776	0.178135	0.651806
