data_functionalizedCrystal
_audit_creation_method	'MofGen! by Chris Wilmer'
_symmetry_space_group_name_H-M	'P1'
_symmetry_Int_Tables_number	1
_symmetry_cell_setting	triclinic
loop_
_symmetry_equiv_pos_as_xyz
  x,y,z
_cell_length_a	10.686220
_cell_length_b	25.639240
_cell_length_c	10.686551
_cell_angle_alpha	85.582913
_cell_angle_beta	90.308082
_cell_angle_gamma	94.415314
loop_
_atom_site_label
_atom_site_type_symbol
_atom_site_fract_x
_atom_site_fract_y
_atom_site_fract_z
Zn1	Zn	1.972187	-0.127473	-0.562325
Zn2	Zn	1.955884	-0.222110	-0.352521
Zn3	Zn	1.746295	-0.140848	-0.368636
Zn4	Zn	1.762315	-0.221050	-0.578299
O5	O	1.859170	-0.177870	-0.465445
O6	O	2.145571	-0.134872	-0.521065
O7	O	1.914554	-0.217371	-0.179110
O8	O	1.776379	-0.065903	-0.394388
O9	O	2.133592	-0.204402	-0.366922
O10	O	1.942341	-0.056076	-0.536691
O11	O	1.760570	-0.157669	-0.190950
O12	O	1.572874	-0.156641	-0.409878
O13	O	1.803682	-0.202596	-0.751729
O14	O	1.584644	-0.215565	-0.563916
O15	O	1.957875	-0.133845	-0.739992
O16	O	1.930087	-0.295140	-0.382412
O17	O	1.787873	-0.294362	-0.548290
C18	C	1.533242	-0.187440	-0.490380
C19	C	1.393811	-0.191546	-0.501077
C20	C	1.858985	-0.313721	-0.465361
C21	C	1.859024	-0.371834	-0.465357
C22	C	1.945638	-0.727028	-0.539684
C23	C	1.945677	-0.781631	-0.539706
O24	O	2.019100	-0.805482	-0.602817
N25	N	1.859354	-0.814100	-0.465553
C26	C	1.772978	-0.791964	-0.391382
O27	O	1.699556	-0.824596	-0.328312
C28	C	1.772934	-0.737363	-0.391367
C29	C	1.859271	-0.704896	-0.465516
C30	C	2.031966	-0.694562	-0.613827
C31	C	2.031929	-0.639964	-0.613803
C32	C	1.945562	-0.617831	-0.539634
C33	C	1.859233	-0.650298	-0.465491
C34	C	1.686553	-0.715228	-0.317204
C35	C	1.686516	-0.660623	-0.317196
C36	C	1.772853	-0.628156	-0.391344
C37	C	1.772829	-0.573567	-0.391298
N38	N	1.859152	-0.541098	-0.465451
C39	C	1.945518	-0.563230	-0.539619
C40	C	1.773075	-0.906631	-0.391421
C41	C	1.773124	-0.961231	-0.391428
C42	C	1.945821	-0.950894	-0.539755
C43	C	1.945777	-0.896292	-0.539740
C44	C	1.859398	-0.874161	-0.465574
C45	C	1.945433	-0.448569	-0.539561
C46	C	1.945391	-0.393966	-0.539526
C47	C	1.772690	-0.404309	-0.391205
C48	C	1.772736	-0.458907	-0.391234
C49	C	1.859112	-0.481035	-0.465422
O50	O	1.699440	-0.549678	-0.328224
O51	O	2.018917	-0.530593	-0.602691
C52	C	2.186371	-0.168263	-0.440414
C53	C	2.325805	-0.164169	-0.429747
C54	C	1.884384	-0.166610	-0.792651
C55	C	1.895128	-0.161812	-0.932086
C56	C	1.859392	-0.041487	-0.465555
C57	C	1.859487	0.016632	-0.465602
C58	C	1.834127	-0.189047	-0.139507
C59	C	1.823626	-0.193690	-0.000054
H60	H	1.374251	-0.137591	-0.360494
O61	O	1.731614	-0.234698	-0.935855
H62	H	1.754953	-0.274256	-0.959241
O63	O	1.679914	-0.882762	-0.311409
H64	H	1.731181	-0.858420	-0.243330
H65	H	1.702374	-0.386280	-0.330814
H66	H	1.964575	-0.130848	-0.980575
O67	O	1.329648	-0.226757	-0.592820
H68	H	1.226529	-0.224564	-0.587115
O69	O	1.679622	-0.493930	-0.311260
H70	H	1.619557	-0.469364	-0.259687
H71	H	2.015701	-0.367533	-0.599906
O72	O	2.038593	-0.472435	-0.619572
H73	H	2.135402	-0.459770	-0.590585
O74	O	2.125066	-0.604948	-0.693757
H75	H	2.185122	-0.629519	-0.745325
O76	O	1.593347	-0.636756	-0.237194
H77	H	1.607809	-0.593334	-0.249635
H78	H	2.016144	-0.968923	-0.600149
O79	O	1.680020	-0.996249	-0.311440
H80	H	1.583191	-0.987958	-0.340410
O81	O	2.125131	-0.718429	-0.693824
H82	H	2.185149	-0.686672	-0.745363
H83	H	1.616249	-0.741654	-0.256823
O84	O	2.038900	-0.861275	-0.619707
H85	H	2.098958	-0.885844	-0.671279
