data_functionalizedCrystal
_audit_creation_method	'MofGen! by Chris Wilmer'
_symmetry_space_group_name_H-M	'P1'
_symmetry_Int_Tables_number	1
_symmetry_cell_setting	triclinic
loop_
_symmetry_equiv_pos_as_xyz
  x,y,z
_cell_length_a	16.625546
_cell_length_b	19.805407
_cell_length_c	19.805399
_cell_angle_alpha	89.982197
_cell_angle_beta	89.972133
_cell_angle_gamma	90.019784
loop_
_atom_site_label
_atom_site_type_symbol
_atom_site_fract_x
_atom_site_fract_y
_atom_site_fract_z
Zn1	Zn	-0.321078	1.034754	-0.382686
Zn2	Zn	0.012255	1.368088	-0.049353
Zn3	Zn	0.345589	1.701421	0.283980
Zn4	Zn	-0.455915	1.034677	-0.269498
Zn5	Zn	-0.122582	1.368010	0.063836
Zn6	Zn	0.210751	1.701343	0.397169
Zn7	Zn	-0.321094	0.921569	-0.269514
Zn8	Zn	0.012239	1.254902	0.063819
Zn9	Zn	0.345573	1.588236	0.397152
Zn10	Zn	-0.455866	0.921540	-0.382648
Zn11	Zn	-0.122533	1.254873	-0.049314
Zn12	Zn	0.210801	1.588207	0.284019
O13	O	-0.388488	0.978135	-0.326086
O14	O	-0.055155	1.311468	0.007247
O15	O	0.278178	1.644802	0.340580
O16	O	-0.338978	1.129460	-0.367681
O17	O	-0.005645	1.462794	-0.034347
O18	O	0.327688	1.796127	0.298986
O19	O	-0.438058	1.019652	-0.174783
O20	O	-0.104725	1.352986	0.158550
O21	O	0.228609	1.686319	0.491884
O22	O	-0.208259	0.936628	-0.284550
O23	O	0.125074	1.269961	0.048783
O24	O	0.458407	1.603294	0.382117
O25	O	-0.438043	1.129404	-0.284521
O26	O	-0.104709	1.462737	0.048812
O27	O	0.228624	1.796070	0.382145
O28	O	-0.208248	1.019784	-0.367697
O29	O	0.125086	1.353118	-0.034364
O30	O	0.458419	1.686451	0.298970
O31	O	-0.339006	0.936552	-0.174796
O32	O	-0.005672	1.269886	0.158538
O33	O	0.327661	1.603219	0.491871
O34	O	-0.338958	0.826848	-0.284513
O35	O	-0.005625	1.160182	0.048821
O36	O	0.327709	1.493515	0.382154
O37	O	-0.437959	0.936579	-0.477369
O38	O	-0.104626	1.269912	-0.144036
O39	O	0.228708	1.603245	0.189297
O40	O	-0.437974	0.826827	-0.367631
O41	O	-0.104641	1.160161	-0.034298
O42	O	0.228692	1.493494	0.299035
O43	O	-0.338931	1.019756	-0.477398
O44	O	-0.005597	1.353090	-0.144064
O45	O	0.327736	1.686423	0.189269
O46	O	-0.568741	1.019625	-0.284484
O47	O	-0.235408	1.352958	0.048849
O48	O	0.097926	1.686291	0.382183
O49	O	-0.568705	0.936504	-0.367615
O50	O	-0.235372	1.269837	-0.034282
O51	O	0.097962	1.603170	0.299052
C52	C	-0.388463	0.802279	-0.326070
C53	C	-0.055130	1.135612	0.007263
C54	C	0.278204	1.468946	0.340597
C55	C	-0.388472	0.727047	-0.326079
C56	C	-0.055138	1.060380	0.007254
C57	C	0.278195	1.393714	0.340588
C58	C	-0.336980	0.691733	-0.369446
C59	C	-0.003647	1.025066	-0.036113
C60	C	0.329687	1.358400	0.297221
C61	C	-0.336984	0.621045	-0.369449
C62	C	-0.003651	0.954378	-0.036115
C63	C	0.329682	1.287711	0.297218
C64	C	-0.388485	0.585671	-0.326087
C65	C	-0.055151	0.919005	0.007246
C66	C	0.278182	1.252338	0.340579
C67	C	-0.439979	0.620990	-0.282716
C68	C	-0.106645	0.954324	0.050618
C69	C	0.226688	1.287657	0.383951
C70	C	-0.439970	0.691677	-0.282710
C71	C	-0.106636	1.025011	0.050623
C72	C	0.226697	1.358344	0.383957
C73	C	-0.440015	0.335917	-0.282736
C74	C	-0.106682	0.669250	0.050597
C75	C	0.226652	1.002584	0.383930
C76	C	-0.440022	0.265225	-0.282747
C77	C	-0.106688	0.598558	0.050587
C78	C	0.226645	0.931892	0.383920
C79	C	-0.337030	0.265284	-0.369475
C80	C	-0.003696	0.598618	-0.036142
C81	C	0.329637	0.931951	0.297192
C82	C	-0.337021	0.335971	-0.369469
C83	C	-0.003687	0.669305	-0.036136
C84	C	0.329646	1.002638	0.297197
C85	C	-0.388511	0.371284	-0.326095
C86	C	-0.055178	0.704617	0.007238
C87	C	0.278156	1.037951	0.340571
C88	C	-0.388505	0.447932	-0.326092
C89	C	-0.055171	0.781266	0.007241
C90	C	0.278162	1.114599	0.340574
C91	C	-0.388496	0.509024	-0.326093
C92	C	-0.055162	0.842358	0.007240
C93	C	0.278171	1.175691	0.340573
C94	C	-0.597979	0.978071	-0.326058
C95	C	-0.264646	1.311404	0.007275
C96	C	0.068687	1.644738	0.340609
C97	C	-0.687600	0.978105	-0.326069
C98	C	-0.354267	1.311439	0.007265
C99	C	-0.020934	1.644772	0.340598
C100	C	-1.015776	0.978224	-0.326139
C101	C	-0.682443	1.311557	0.007194
C102	C	-0.349109	1.644890	0.340527
C103	C	-0.924467	0.978189	-0.326121
C104	C	-0.591134	1.311522	0.007212
C105	C	-0.257801	1.644855	0.340545
C106	C	-0.851691	0.978164	-0.326104
C107	C	-0.518358	1.311497	0.007230
C108	C	-0.185024	1.644831	0.340563
C109	C	-0.760377	0.978130	-0.326087
C110	C	-0.427043	1.311463	0.007247
C111	C	-0.093710	1.644797	0.340580
C112	C	-0.178179	0.978218	-0.326130
C113	C	0.155154	1.311551	0.007204
C114	C	0.488487	1.644884	0.340537
C115	C	-0.088558	0.978253	-0.326148
C116	C	0.244775	1.311586	0.007185
C117	C	0.578108	1.644920	0.340518
C118	C	-0.388438	0.978173	-0.502629
C119	C	-0.055104	1.311506	-0.169296
C120	C	0.278229	1.644840	0.164037
C121	C	-0.388416	0.978189	-0.577861
C122	C	-0.055083	1.311522	-0.244528
C123	C	0.278251	1.644856	0.088805
C124	C	-0.388514	1.154678	-0.326103
C125	C	-0.055181	1.488011	0.007230
C126	C	0.278152	1.821344	0.340563
C127	C	-0.388525	1.229910	-0.326111
C128	C	-0.055192	1.563243	0.007223
C129	C	0.278141	1.896576	0.340556
C130	C	-0.336849	1.021501	-0.613221
C131	C	-0.003516	1.354834	-0.279888
C132	C	0.329817	1.688167	0.053445
C133	C	-0.336826	1.021508	-0.683910
C134	C	-0.003493	1.354841	-0.350576
C135	C	0.329841	1.688174	-0.017243
C136	C	-0.388374	0.978206	-0.719237
C137	C	-0.055040	1.311539	-0.385904
C138	C	0.278293	1.644873	-0.052570
C139	C	-0.439943	0.934889	-0.683872
C140	C	-0.106609	1.268223	-0.350539
C141	C	0.226724	1.601556	-0.017205
C142	C	-0.439961	0.934880	-0.613185
C143	C	-0.106628	1.268213	-0.279852
C144	C	0.226705	1.601546	0.053482
C145	C	-0.439867	0.934928	-0.968945
C146	C	-0.106534	1.268261	-0.635612
C147	C	0.226799	1.601594	-0.302279
C148	C	-0.439846	0.934942	-1.039638
C149	C	-0.106513	1.268276	-0.706304
C150	C	0.226820	1.601609	-0.372971
C151	C	-0.336732	1.021556	-1.039670
C152	C	-0.003399	1.354889	-0.706337
C153	C	0.329935	1.688222	-0.373004
C154	C	-0.336751	1.021546	-0.968983
C155	C	-0.003417	1.354879	-0.635650
C156	C	0.329916	1.688213	-0.302317
C157	C	-0.388316	0.978227	-0.933624
C158	C	-0.054983	1.311561	-0.600291
C159	C	0.278350	1.644894	-0.266958
C160	C	-0.388340	0.978219	-0.856976
C161	C	-0.055007	1.311553	-0.523643
C162	C	0.278327	1.644886	-0.190309
C163	C	-0.388355	0.978217	-0.795884
C164	C	-0.055021	1.311550	-0.462551
C165	C	0.278312	1.644883	-0.129217
C166	C	-0.388481	0.978136	-0.150231
C167	C	-0.055147	1.311469	0.183103
C168	C	0.278186	1.644803	0.516436
C169	C	-0.388275	0.978251	-0.074999
C170	C	-0.054942	1.311584	0.258334
C171	C	0.278391	1.644918	0.591668
H172	H	-0.295056	0.592295	-0.404764
H173	H	0.038277	0.925629	-0.071430
H174	H	0.371610	1.258962	0.261903
Cl175	Cl	-0.272295	0.220887	-0.424001
Cl176	Cl	0.061038	0.554220	-0.090668
Cl177	Cl	0.394372	0.887553	0.242666
Cl178	Cl	-0.271948	1.075987	-0.924576
Cl179	Cl	0.061386	1.409320	-0.591242
Cl180	Cl	0.394719	1.742653	-0.257909
Cl181	Cl	-0.272032	1.075989	-0.728359
Cl182	Cl	0.061301	1.409323	-0.395026
Cl183	Cl	0.394635	1.742656	-0.061693
H184	H	-0.294742	1.056826	-1.068468
H185	H	0.038591	1.390159	-0.735135
H186	H	0.371925	1.723492	-0.401801
H187	H	-0.481961	0.236426	-0.247434
H188	H	-0.148628	0.569759	0.085899
H189	H	0.184705	0.903093	0.419233
H190	H	-0.481899	0.720429	-0.247396
H191	H	-0.148566	1.053762	0.085938
H192	H	0.184768	1.387096	0.419271
H193	H	-0.481824	0.899678	-1.068399
H194	H	-0.148491	1.233011	-0.735066
H195	H	0.184842	1.566344	-0.401732
H196	H	-0.295086	0.364769	-0.404781
H197	H	0.038247	0.698102	-0.071448
H198	H	0.371580	1.031435	0.261886
H199	H	-0.481942	0.364660	-0.247419
H200	H	-0.148609	0.697993	0.085914
H201	H	0.184724	1.031327	0.419247
H202	H	-0.481907	0.592184	-0.247407
H203	H	-0.148574	0.925517	0.085927
H204	H	0.184759	1.258850	0.419260
H205	H	-0.481911	0.899630	-0.712641
H206	H	-0.148577	1.232963	-0.379308
H207	H	0.184756	1.566297	-0.045974
H208	H	-0.481944	0.899604	-0.584396
H209	H	-0.148611	1.232937	-0.251062
H210	H	0.184723	1.566271	0.082271
H211	H	-0.481867	0.899665	-0.940165
H212	H	-0.148534	1.232998	-0.606832
H213	H	0.184800	1.566332	-0.273498
H214	H	-0.295045	0.720529	-0.404758
H215	H	0.038289	1.053862	-0.071424
H216	H	0.371622	1.387196	0.261909
H217	H	-0.294876	1.056764	-0.584463
H218	H	0.038458	1.390098	-0.251130
H219	H	0.371791	1.723431	0.082204
