data_functionalizedCrystal
_audit_creation_method	'MofGen! by Chris Wilmer'
_symmetry_space_group_name_H-M	'P1'
_symmetry_Int_Tables_number	1
_symmetry_cell_setting	triclinic
loop_
_symmetry_equiv_pos_as_xyz
  x,y,z
_cell_length_a	19.188930
_cell_length_b	14.044220
_cell_length_c	13.101039
_cell_angle_alpha	93.659868
_cell_angle_beta	93.345801
_cell_angle_gamma	91.833170
loop_
_atom_site_label
_atom_site_type_symbol
_atom_site_fract_x
_atom_site_fract_y
_atom_site_fract_z
O1	O	0.164759	-1.262233	-0.085127
O2	O	0.664759	-0.762233	0.414873
O3	O	0.158685	-0.986290	-0.085152
O4	O	0.658685	-0.486290	0.414848
O5	O	0.060581	-1.132223	-0.085119
O6	O	0.560581	-0.632223	0.414881
O7	O	0.262863	-1.116300	-0.085160
O8	O	0.762863	-0.616300	0.414840
O9	O	0.067633	-1.121753	0.085309
O10	O	0.567633	-0.621753	0.585309
O11	O	0.165737	-0.975820	0.085275
O12	O	0.665737	-0.475820	0.585275
O13	O	0.171810	-1.251762	0.085300
O14	O	0.671810	-0.751762	0.585300
Zn15	Zn	0.169893	-1.112128	0.112347
Zn16	Zn	0.669893	-0.612128	0.612347
Zn17	Zn	0.160602	-1.125924	-0.112199
Zn18	Zn	0.660602	-0.625924	0.387801
O19	O	0.269914	-1.105829	0.085267
O20	O	0.769914	-0.605829	0.585267
C21	C	0.159553	-0.945752	0.000059
C22	C	0.659553	-0.445752	0.500059
C23	C	0.151623	-0.840559	0.000050
C24	C	0.651623	-0.340559	0.500050
C25	C	0.038063	-1.126472	0.000098
C26	C	0.538063	-0.626472	0.500098
C27	C	-0.039541	-1.124923	0.000106
C28	C	0.460459	-0.624923	0.500106
N29	N	0.176234	-1.102720	0.265593
N30	N	0.676234	-0.602720	0.765593
C31	C	-0.078939	-1.210553	0.000119
C32	C	0.421061	-0.710553	0.500119
C33	C	-0.151857	-1.209099	0.000103
C34	C	0.348143	-0.709099	0.500103
C35	C	-0.185374	-1.122010	0.000094
C36	C	0.314626	-0.622010	0.500094
C37	C	-0.145968	-1.036370	0.000075
C38	C	0.354032	-0.536370	0.500075
C39	C	-0.073051	-1.037827	0.000082
C40	C	0.426949	-0.537827	0.500082
N41	N	-0.295275	-1.051878	0.058088
N42	N	0.204725	-0.551878	0.558088
N43	N	-0.364543	-1.050500	0.058084
N44	N	0.135457	-0.550500	0.558084
C45	C	-0.405067	-1.117617	0.000073
C46	C	0.094933	-0.617617	0.500073
N47	N	-0.373707	-1.186177	-0.057921
N48	N	0.126293	-0.686177	0.442079
N49	N	-0.304433	-1.187558	-0.057913
N50	N	0.195567	-0.687558	0.442087
C51	C	-0.264440	-1.120421	0.000086
C52	C	0.235560	-0.620421	0.500086
C53	C	-0.523532	-1.201676	0.000066
C54	C	-0.023532	-0.701676	0.500066
C55	C	-0.596452	-1.200219	0.000043
C56	C	-0.096452	-0.700219	0.500043
C57	C	-0.590560	-1.027487	0.000026
C58	C	-0.090560	-0.527487	0.500026
C59	C	-0.517642	-1.028947	0.000039
C60	C	-0.017642	-0.528947	0.500039
C61	C	-0.484132	-1.116043	0.000064
C62	C	0.015868	-0.616043	0.500064
C63	C	0.292433	-1.111580	0.000048
C64	C	0.792433	-0.611580	0.500048
C65	C	0.370037	-1.113129	0.000033
C66	C	0.870037	-0.613129	0.500033
C67	C	0.170943	-1.292301	0.000087
C68	C	0.670943	-0.792301	0.500087
C69	C	0.178872	-1.397494	0.000089
C70	C	0.678872	-0.897494	0.500089
C71	C	0.137129	-0.647957	0.000073
C72	C	0.637129	-0.147957	0.500073
C73	C	0.193363	-0.590091	0.000066
C74	C	0.693363	-0.090091	0.500066
C75	C	0.185298	-0.482920	0.000079
C76	C	0.685298	0.017080	0.500079
C77	C	0.145193	-0.755137	0.000060
C78	C	0.645193	-0.255137	0.500060
N79	N	0.154257	-1.135340	-0.265445
N80	N	0.654257	-0.635340	0.234555
C81	C	0.184867	-1.089920	0.474633
C82	C	0.684867	-0.589920	0.974633
C83	C	0.145626	-1.148137	0.525522
C84	C	0.645626	-0.648137	1.025522
C85	C	0.150429	-1.141014	0.641839
C86	C	0.650429	-0.641014	1.141839
C87	C	0.180064	-1.097041	0.358306
C88	C	0.680064	-0.597041	0.858306
H89	H	-0.051660	-1.281474	0.000136
H90	H	0.448340	-0.781474	0.500136
Cl91	Cl	-0.481401	-1.311166	0.000103
Cl92	Cl	0.018599	-0.811166	0.500103
Cl93	Cl	0.088476	-1.233706	0.457920
Cl94	Cl	0.588476	-0.733706	0.957920
Cl95	Cl	0.053452	-0.600179	0.000092
Cl96	Cl	0.553452	-0.100179	0.500092
H97	H	0.222068	-1.034735	0.518417
H98	H	0.722068	-0.534735	1.018417
H99	H	-0.628529	-1.269952	0.000048
H100	H	-0.128529	-0.769952	0.500048
Cl101	Cl	0.277046	-0.637866	0.000042
Cl102	Cl	0.777046	-0.137866	0.500042
Cl103	Cl	-0.632689	-0.918003	0.000009
Cl104	Cl	-0.132689	-0.418003	0.500009
H105	H	-0.183941	-1.278831	0.000109
H106	H	0.316059	-0.778831	0.500109
H107	H	-0.040974	-0.968095	0.000072
H108	H	0.459026	-0.468095	0.500072
Cl109	Cl	-0.188102	-0.926887	0.000056
Cl110	Cl	0.311898	-0.426887	0.500056
H111	H	-0.485564	-0.959218	0.000034
H112	H	0.014436	-0.459218	0.500034
