data_functionalizedCrystal
_audit_creation_method	'MofGen! by Chris Wilmer'
_symmetry_space_group_name_H-M	'P1'
_symmetry_Int_Tables_number	1
_symmetry_cell_setting	triclinic
loop_
_symmetry_equiv_pos_as_xyz
  x,y,z
_cell_length_a	17.077402
_cell_length_b	16.959455
_cell_length_c	17.077396
_cell_angle_alpha	90.019870
_cell_angle_beta	89.972472
_cell_angle_gamma	89.977893
loop_
_atom_site_label
_atom_site_type_symbol
_atom_site_fract_x
_atom_site_fract_y
_atom_site_fract_z
Zn1	Zn	-0.312537	-1.208397	-0.443856
Zn2	Zn	0.187463	-0.708397	0.056144
Zn3	Zn	-0.443812	-1.208302	-0.312592
Zn4	Zn	0.056188	-0.708302	0.187408
Zn5	Zn	-0.312561	-1.076216	-0.312603
Zn6	Zn	0.187439	-0.576216	0.187397
Zn7	Zn	-0.443762	-1.076183	-0.443815
Zn8	Zn	0.056238	-0.576183	0.056185
O9	O	-0.378168	-1.142275	-0.378216
O10	O	0.121832	-0.642275	0.121784
O11	O	-0.329962	-1.318996	-0.426456
O12	O	0.170038	-0.818996	0.073544
O13	O	-0.426432	-1.190755	-0.202746
O14	O	0.073568	-0.690755	0.297254
O15	O	-0.202711	-1.093804	-0.330035
O16	O	0.297289	-0.593804	0.169965
O17	O	-0.426409	-1.318926	-0.330017
O18	O	0.073591	-0.818926	0.169983
O19	O	-0.202693	-1.190917	-0.426466
O20	O	0.297307	-0.690917	0.073534
O21	O	-0.330003	-1.093712	-0.202754
O22	O	0.169997	-0.593712	0.297246
O23	O	-0.329954	-0.965601	-0.329996
O24	O	0.170046	-0.465601	0.170004
O25	O	-0.426323	-1.093747	-0.553667
O26	O	0.073677	-0.593747	-0.053667
O27	O	-0.426347	-0.965576	-0.426396
O28	O	0.073653	-0.465576	0.073604
O29	O	-0.329913	-1.190884	-0.553697
O30	O	0.170087	-0.690884	-0.053697
O31	O	-0.553652	-1.190723	-0.329977
O32	O	-0.053652	-0.690723	0.170023
O33	O	-0.553615	-1.093655	-0.426386
O34	O	-0.053615	-0.593655	0.073614
C35	C	-0.378148	-0.936908	-0.378193
C36	C	0.121852	-0.436908	0.121807
C37	C	-0.378158	-0.849052	-0.378202
C38	C	0.121842	-0.349052	0.121798
C39	C	-0.428302	-0.807740	-0.327919
C40	C	0.071698	-0.307740	0.172081
C41	C	-0.328020	-0.807810	-0.428490
C42	C	0.171980	-0.307810	0.071510
C43	C	-0.328025	-0.725265	-0.428498
C44	C	0.171975	-0.225265	0.071502
C45	C	-0.378168	-0.683952	-0.378215
C46	C	0.121832	-0.183952	0.121785
C47	C	-0.428307	-0.725186	-0.327923
C48	C	0.071693	-0.225186	0.172077
C49	C	-0.277882	-0.684025	-0.478783
C50	C	0.222118	-0.184025	0.021217
C51	C	-0.277884	-0.601474	-0.478792
C52	C	0.222116	-0.101474	0.021208
C53	C	-0.328032	-0.560160	-0.428512
C54	C	0.171968	-0.060160	0.071488
C55	C	-0.378173	-0.601399	-0.378219
C56	C	0.121827	-0.101399	0.121781
C57	C	-0.428317	-0.560087	-0.327936
C58	C	0.071683	-0.060087	0.172064
C59	C	-0.478462	-0.601324	-0.277646
C60	C	0.021538	-0.101324	0.222354
C61	C	-0.478455	-0.683872	-0.277643
C62	C	0.021545	-0.183872	0.222357
C63	C	-0.328040	-0.477612	-0.428516
C64	C	0.171960	0.022388	0.071484
C65	C	-0.428322	-0.477533	-0.327941
C66	C	0.071678	0.022467	0.172059
C67	C	-0.582116	-1.142196	-0.378193
C68	C	-0.082116	-0.642196	0.121807
C69	C	-0.669366	-1.142235	-0.378209
C70	C	-0.169366	-0.642235	0.121791
C71	C	-0.710279	-1.192774	-0.428461
C72	C	-0.210279	-0.692774	0.071539
C73	C	-0.792260	-1.192807	-0.428478
C74	C	-0.292260	-0.692807	0.071522
C75	C	-0.833325	-1.142305	-0.378238
C76	C	-0.333325	-0.642305	0.121762
C77	C	-0.792406	-1.091760	-0.327984
C78	C	-0.292406	-0.591760	0.172016
C79	C	-0.710427	-1.091723	-0.327972
C80	C	-0.210427	-0.591723	0.172028
C81	C	-0.963276	-1.091841	-0.328011
C82	C	-0.463276	-0.591841	0.171989
C83	C	-1.045260	-1.091879	-0.328022
C84	C	-0.545260	-0.591879	0.171978
C85	C	-1.045109	-1.192925	-0.428517
C86	C	-0.545109	-0.692925	0.071483
C87	C	-0.963130	-1.192888	-0.428505
C88	C	-0.463130	-0.692888	0.071495
C89	C	-0.922216	-1.142345	-0.378250
C90	C	-0.422216	-0.642345	0.121750
C91	C	-0.173424	-1.142375	-0.378257
C92	C	0.326576	-0.642375	0.121743
C93	C	-0.086174	-1.142418	-0.378274
C94	C	0.413826	-0.642418	0.121726
C95	C	-0.378110	-1.142322	-0.582961
C96	C	0.121890	-0.642322	-0.082961
C97	C	-0.378086	-1.142343	-0.670210
C98	C	0.121914	-0.642343	-0.170210
C99	C	-0.378185	-0.348443	-0.378235
C100	C	0.121815	0.151557	0.121765
C101	C	-0.378183	-0.436299	-0.378232
C102	C	0.121817	0.063701	0.121768
C103	C	-0.327881	-1.192924	-0.711218
C104	C	0.172119	-0.692924	-0.211218
C105	C	-0.327854	-1.192934	-0.793198
C106	C	0.172146	-0.692934	-0.293198
C107	C	-0.378038	-1.142365	-0.834170
C108	C	0.121962	-0.642365	-0.334170
C109	C	-0.428245	-1.091778	-0.793157
C110	C	0.071755	-0.591778	-0.293157
C111	C	-0.428267	-1.091765	-0.711178
C112	C	0.071733	-0.591765	-0.211178
C113	C	-0.428198	-1.091810	-0.964027
C114	C	0.071802	-0.591810	-0.464027
C115	C	-0.428177	-1.091824	-1.046012
C116	C	0.071823	-0.591824	-0.546012
C117	C	-0.327786	-1.192979	-1.046047
C118	C	0.172214	-0.692979	-0.546047
C119	C	-0.327807	-1.192966	-0.964068
C120	C	0.172193	-0.692966	-0.464068
C121	C	-0.378016	-1.142379	-0.923061
C122	C	0.121984	-0.642379	-0.423061
C123	C	-0.378169	-1.142273	-0.174268
C124	C	0.121831	-0.642273	0.325732
C125	C	-0.377972	-1.142405	-0.087019
C126	C	0.122028	-0.642405	0.412981
H127	H	-0.237054	-0.567905	-0.519742
H128	H	0.262946	-0.067905	-0.019742
F129	F	-0.666581	-1.246531	-0.481930
F130	F	-0.166581	-0.746531	0.018070
H131	H	-0.237055	-0.717667	-0.519718
H132	H	0.262945	-0.217667	-0.019718
F133	F	-0.481651	-1.037956	-0.836764
F134	F	0.018349	-0.537956	-0.336764
F135	F	-0.919426	-1.246643	-0.481972
F136	F	-0.419426	-0.746643	0.018028
H137	H	-0.287206	-0.444040	-0.469455
H138	H	0.212794	0.055960	0.030545
F139	F	-0.531816	-0.727765	-0.224124
F140	F	-0.031816	-0.227765	0.275876
F141	F	-0.274350	-1.246817	-1.089691
F142	F	0.225650	-0.746817	-0.589691
H143	H	-0.469131	-0.841319	-0.286976
H144	H	0.030869	-0.341319	0.213024
F145	F	-1.088652	-1.246720	-0.482002
F146	F	-0.588652	-0.746720	0.017998
H147	H	-0.677116	-1.050568	-0.287052
H148	H	-0.177116	-0.550568	0.212948
F149	F	-0.835799	-1.246589	-0.481971
F150	F	-0.335799	-0.746589	0.018029
F151	F	-1.088964	-1.038129	-0.274551
F152	F	-0.588964	-0.538129	0.225449
H153	H	-0.469141	-1.050569	-0.677791
H154	H	0.030859	-0.550569	-0.177791
F155	F	-0.274654	-0.851780	-0.482000
F156	F	0.225346	-0.351780	0.018000
H157	H	-0.929967	-1.050680	-0.287090
H158	H	-0.429967	-0.550680	0.212910
H159	H	-0.825848	-1.050637	-0.287081
H160	H	-0.325848	-0.550637	0.212919
F161	F	-0.481582	-1.037997	-1.089616
F162	F	0.018418	-0.537997	-0.589616
F163	F	-0.274472	-1.246751	-0.667619
F164	F	0.225528	-0.746751	-0.167619
H165	H	-0.286974	-1.234124	-0.826582
H166	H	0.213026	-0.734124	-0.326582
H167	H	-0.286948	-1.234147	-0.930711
H168	H	0.213052	-0.734147	-0.430711
F169	F	-0.481634	-1.037969	-0.920386
F170	F	0.018366	-0.537969	-0.420386
H171	H	-0.469158	-0.443903	-0.286996
H172	H	0.030842	0.056097	0.213004
H173	H	-0.519286	-0.567677	-0.236703
H174	H	-0.019286	-0.067677	0.263297
