data_functionalizedCrystal
_audit_creation_method	'MofGen! by Chris Wilmer'
_symmetry_space_group_name_H-M	'P1'
_symmetry_Int_Tables_number	1
_symmetry_cell_setting	triclinic
loop_
_symmetry_equiv_pos_as_xyz
  x,y,z
_cell_length_a	16.992694
_cell_length_b	10.654550
_cell_length_c	9.130313
_cell_angle_alpha	90.004369
_cell_angle_beta	89.997845
_cell_angle_gamma	87.576577
loop_
_atom_site_label
_atom_site_type_symbol
_atom_site_fract_x
_atom_site_fract_y
_atom_site_fract_z
O1	O	-1.041839	-0.266431	-0.121615
O2	O	-0.813538	-0.263508	-0.121658
O3	O	-0.932938	-0.082684	-0.121627
O4	O	-0.922439	-0.447255	-0.121647
O5	O	-0.932929	-0.082678	0.121972
O6	O	-0.813530	-0.263502	0.121940
O7	O	-1.041831	-0.266425	0.121984
Cu8	Cu	-0.927679	-0.264963	0.144204
Cu9	Cu	-0.927689	-0.264970	-0.143879
O10	O	-0.922431	-0.447249	0.121952
C11	C	-0.784301	-0.259745	0.000136
C12	C	-0.697196	-0.248526	0.000119
C13	C	-0.932163	-0.035816	0.000172
C14	C	-0.929856	0.103826	0.000169
C15	C	-1.071068	-0.270188	0.000186
C16	C	-1.158173	-0.281408	0.000193
C17	C	-0.647544	-0.356776	0.000114
C18	C	-0.565700	-0.346227	0.000135
C19	C	-0.533509	-0.227426	0.000150
C20	C	-0.583167	-0.119167	0.000160
C21	C	-0.665010	-0.129718	0.000149
C22	C	-0.289674	-0.183699	0.000192
C23	C	-0.207825	-0.173157	0.000198
C24	C	-0.190363	-0.400218	0.000176
C25	C	-0.272208	-0.410758	0.000157
C26	C	-0.321859	-0.302499	0.000174
N27	N	-0.449852	-0.216640	0.000167
N28	N	-0.405515	-0.313286	0.000168
C29	C	-0.923206	-0.494117	0.000150
C30	C	-0.925512	-0.633759	0.000143
N31	N	-0.927678	-0.264957	0.346827
C32	C	-1.000157	0.177237	0.000182
C33	C	-0.997985	0.308445	0.000164
C34	C	-0.855206	0.292820	0.000126
C35	C	-0.857379	0.161614	0.000134
N36	N	-0.927697	-0.264966	-0.346502
C37	C	-0.980567	-0.184926	0.423493
C38	C	-0.980574	-0.184927	0.576830
C39	C	-0.874803	-0.345001	0.576821
C40	C	-0.874792	-0.344993	0.423487
H41	H	-0.673747	-0.453517	0.000101
Br42	Br	-0.803032	-0.453620	0.680865
Br43	Br	-1.098519	0.098813	0.000231
H44	H	-0.796197	0.339888	0.000100
Br45	Br	-1.093398	0.408070	0.000172
Br46	Br	-0.803004	-0.453604	0.319428
H47	H	-0.298411	-0.507498	0.000128
Br48	Br	-0.357047	-0.036775	0.000219
Br49	Br	-0.498317	-0.493146	0.000124
Br50	Br	-0.164138	-0.011916	0.000250
Br51	Br	-0.539481	0.042065	0.000195
H52	H	-0.149929	-0.488356	0.000165
Br53	Br	-0.732396	0.017200	0.000169
H54	H	-0.800128	0.101841	0.000119
H55	H	-1.023639	-0.119756	0.639247
H56	H	-1.023629	-0.119754	0.361080
