data_functionalizedCrystal
_audit_creation_method	'MofGen! by Chris Wilmer'
_symmetry_space_group_name_H-M	'P1'
_symmetry_Int_Tables_number	1
_symmetry_cell_setting	triclinic
loop_
_symmetry_equiv_pos_as_xyz
  x,y,z
_cell_length_a	16.992694
_cell_length_b	15.995350
_cell_length_c	15.455313
_cell_angle_alpha	92.667328
_cell_angle_beta	87.142206
_cell_angle_gamma	87.080299
loop_
_atom_site_label
_atom_site_type_symbol
_atom_site_fract_x
_atom_site_fract_y
_atom_site_fract_z
O1	O	1.043823	0.174116	-0.072015
O2	O	1.543823	0.674116	0.427985
O3	O	0.815539	0.172167	-0.072041
O4	O	1.315539	0.672167	0.427959
O5	O	0.935921	0.051671	-0.072026
O6	O	1.435921	0.551671	0.427974
O7	O	0.923440	0.294611	-0.072029
O8	O	1.423440	0.794611	0.427971
O9	O	0.929037	0.058531	0.072235
O10	O	1.429037	0.558531	0.572235
O11	O	0.808655	0.179027	0.072221
O12	O	1.308655	0.679027	0.572221
O13	O	1.036939	0.180976	0.072246
O14	O	1.536939	0.680976	0.572246
Cu15	Cu	0.922168	0.180628	0.085406
Cu16	Cu	1.422168	0.680628	0.585406
Cu17	Cu	0.930309	0.172515	-0.085200
Cu18	Cu	1.430309	0.672515	0.414800
O19	O	0.916556	0.301471	0.072232
O20	O	1.416556	0.801471	0.572232
C21	C	0.782884	0.173091	0.000087
C22	C	1.282884	0.673091	0.500087
C23	C	0.695840	0.165614	0.000077
C24	C	1.195840	0.665614	0.500077
C25	C	0.645600	0.237750	0.000077
C26	C	1.145600	0.737750	0.500077
C27	C	0.563813	0.230720	0.000089
C28	C	1.063813	0.730720	0.500089
C29	C	0.532268	0.151555	0.000095
C30	C	1.032268	0.651555	0.500095
C31	C	0.582515	0.079414	0.000098
C32	C	1.082515	0.579414	0.500098
C33	C	0.664300	0.086445	0.000092
C34	C	1.164300	0.586445	0.500092
C35	C	0.288669	0.122418	0.000118
C36	C	0.788669	0.622418	0.500118
C37	C	0.206878	0.115393	0.000122
C38	C	0.706878	0.615393	0.500122
C39	C	0.188181	0.266700	0.000114
C40	C	0.688181	0.766700	0.500114
C41	C	0.269969	0.273723	0.000103
C42	C	0.769969	0.773723	0.500103
C43	C	0.320208	0.201582	0.000111
C44	C	0.820208	0.701582	0.500111
N45	N	0.448669	0.144368	0.000104
N46	N	0.948669	0.644368	0.500104
N47	N	0.403806	0.208770	0.000107
N48	N	0.903806	0.708770	0.500107
C49	C	0.931963	0.023872	0.000103
C50	C	1.431963	0.523872	0.500103
C51	C	0.930416	-0.069182	0.000098
C52	C	1.430416	0.430818	0.500098
C53	C	0.924861	-0.407301	0.000100
C54	C	1.424861	0.092699	0.500100
C55	C	0.839142	-0.365620	-0.000233
C56	C	1.339142	0.134380	0.499767
C57	C	0.840674	-0.268811	0.000092
C58	C	1.340674	0.231189	0.500092
C59	C	0.927617	-0.239556	0.000098
C60	C	1.427617	0.260444	0.500098
C61	C	0.965973	-0.273887	0.082482
C62	C	1.465973	0.226113	0.582482
C63	C	0.963816	-0.370663	0.082550
C64	C	1.463816	0.129337	0.582550
C65	C	0.973415	-0.378704	-0.081501
C66	C	1.473415	0.121296	0.418499
C67	C	0.973447	-0.281812	-0.082590
C68	C	1.473447	0.218188	0.417410
C69	C	0.929178	-0.144754	0.000100
C70	C	1.429178	0.355246	0.500100
C71	C	0.923301	-0.502103	0.000104
C72	C	1.423301	-0.002103	0.500104
C73	C	1.069593	0.180052	0.000117
C74	C	1.569593	0.680052	0.500117
C75	C	1.156637	0.187528	0.000121
C76	C	1.656637	0.687528	0.500121
C77	C	0.920514	0.329271	0.000101
C78	C	1.420514	0.829271	0.500101
C79	C	0.922061	0.422324	0.000101
C80	C	1.422061	0.922324	0.500101
N81	N	0.916448	0.186334	0.205401
N82	N	1.416448	0.686334	0.705401
N83	N	0.936036	0.166802	-0.205195
N84	N	1.436036	0.666802	0.294805
C85	C	0.967608	0.135164	0.250801
C86	C	1.467608	0.635164	0.750801
C87	C	0.963289	0.139488	0.341608
C88	C	1.463289	0.639488	0.841608
C89	C	0.907813	0.194986	0.387014
C90	C	1.407813	0.694986	0.887014
C91	C	0.856647	0.246157	0.341607
C92	C	1.356647	0.746157	0.841607
C93	C	0.860963	0.241829	0.250801
C94	C	1.360963	0.741829	0.750801
C95	C	0.889185	0.213646	0.658593
C96	C	1.389185	0.713646	1.158593
C97	C	0.884875	0.217972	0.749405
C98	C	1.384875	0.717972	1.249405
C99	C	0.991517	0.111301	0.749400
C100	C	1.491517	0.611301	1.249400
C101	C	0.995831	0.106981	0.658592
C102	C	1.495831	0.606981	1.158592
C103	C	0.944662	0.158150	0.613194
C104	C	1.444662	0.658150	1.113194
N105	N	0.903399	0.199408	0.479833
N106	N	1.403399	0.699408	0.979833
N107	N	0.949073	0.153722	0.520376
N108	N	1.449073	0.653722	1.020376
H109	H	0.522910	0.289461	0.000087
H110	H	1.022910	0.789461	0.500087
H111	H	0.147268	0.325432	0.000110
H112	H	0.647268	0.825432	0.500110
H113	H	0.181198	0.050923	0.000126
H114	H	0.681198	0.550923	0.500126
N115	N	0.796817	0.306021	0.390578
N116	N	1.296817	0.806021	0.890578
H117	H	0.765062	0.337779	0.348036
H118	H	1.265062	0.837779	0.848036
H119	H	0.760366	0.273423	0.428266
H120	H	1.260366	0.773423	0.928266
N121	N	0.792621	-0.231130	0.078447
N122	N	1.292621	0.268870	0.578447
H123	H	0.747921	-0.193671	0.058945
H124	H	1.247921	0.306329	0.558945
H125	H	0.770416	-0.277465	0.112878
H126	H	1.270416	0.222535	0.612878
H127	H	0.847523	0.255311	0.621636
H128	H	1.347523	0.755311	1.121636
N129	N	1.027439	0.075308	0.201820
N130	N	1.527439	0.575308	0.701820
H131	H	1.082337	0.089457	0.217610
H132	H	1.582337	0.589457	0.717610
H133	H	1.017589	0.016048	0.217648
H134	H	1.517589	0.516048	0.717648
H135	H	0.671277	0.302214	0.000071
H136	H	1.171277	0.802214	0.500071
N137	N	1.057747	-0.256164	-0.089173
N138	N	1.557747	0.243836	0.410827
H139	H	1.094753	-0.307551	-0.088437
H140	H	1.594753	0.192449	0.411563
H141	H	1.067431	-0.227127	-0.145068
H142	H	1.567431	0.272873	0.354932
H143	H	1.004948	0.097821	0.378573
H144	H	1.504948	0.597821	0.878573
N145	N	0.303979	0.359114	0.000087
N146	N	0.803979	0.859114	0.500087
H147	H	0.283115	0.393513	0.053562
H148	H	0.783115	0.893513	0.553562
H149	H	0.363410	0.352558	0.000045
H150	H	0.863410	0.852558	0.500045
H151	H	0.556824	0.014957	0.000115
H152	H	1.056824	0.514957	0.500115
H153	H	0.329565	0.063675	0.000125
H154	H	0.829565	0.563675	0.500125
N155	N	0.718492	0.008643	0.000098
N156	N	1.218492	0.508643	0.500098
H157	H	0.686100	-0.042576	0.000103
H158	H	1.186100	0.457424	0.500103
H159	H	0.755379	0.005717	-0.053381
H160	H	1.255379	0.505717	0.446619
N161	N	0.800376	-0.237820	-0.078130
N162	N	1.300376	0.262180	0.421870
H163	H	0.781454	-0.287069	-0.113134
H164	H	1.281454	0.212931	0.386866
H165	H	0.753839	-0.198575	-0.058390
H166	H	1.253839	0.301425	0.441610
H167	H	1.036653	-0.406261	-0.082051
H168	H	1.536653	0.093739	0.417949
H169	H	0.807694	-0.389254	-0.059312
H170	H	1.307694	0.110746	0.440688
H171	H	1.026582	-0.398522	0.086293
H172	H	1.526582	0.101478	0.586293
N173	N	0.825030	0.277833	0.798369
N174	N	1.325030	0.777833	1.298369
H175	H	0.788530	0.245287	0.836057
H176	H	1.288530	0.745287	1.336057
H177	H	0.853256	0.318718	0.835981
H178	H	1.353256	0.818718	1.335981
H179	H	0.802224	-0.384703	0.058509
H180	H	1.302224	0.115297	0.558509
N181	N	1.055672	0.047126	0.609627
N182	N	1.555672	0.547126	1.109627
H183	H	1.092175	0.079681	0.571950
H184	H	1.592175	0.579681	1.071950
H185	H	1.087370	0.015385	0.652228
H186	H	1.587370	0.515385	1.152228
H187	H	1.033175	0.069641	0.786372
H188	H	1.533175	0.569641	1.286372
N189	N	0.805780	0.297013	0.201829
N190	N	1.305780	0.797013	0.701829
H191	H	0.769981	0.332829	0.244371
H192	H	1.269981	0.832829	0.744371
H193	H	0.837581	0.334262	0.164141
H194	H	1.337581	0.834262	0.664141
H195	H	1.029701	-0.255341	0.085550
H196	H	1.529701	0.244659	0.585550
N197	N	0.919079	-0.393769	0.164115
N198	N	1.419079	0.106231	0.664115
H199	H	0.900942	-0.341117	0.199686
H200	H	1.400942	0.158883	0.699686
H201	H	0.871719	-0.425705	0.148078
H202	H	1.371719	0.074295	0.648078
H203	H	0.933677	-0.244555	0.143784
H204	H	1.433677	0.255445	0.643784
N205	N	0.940240	-0.412328	-0.164216
N206	N	1.440240	0.087672	0.335784
H207	H	0.893395	-0.446445	-0.149626
H208	H	1.393395	0.053555	0.350374
H209	H	0.923058	-0.364036	-0.199965
H210	H	1.423058	0.135964	0.300035
H211	H	0.945437	-0.259530	-0.143535
H212	H	1.445437	0.240470	0.356465
