data_functionalizedCrystal
_audit_creation_method	'MofGen! by Chris Wilmer'
_symmetry_space_group_name_H-M	'P1'
_symmetry_Int_Tables_number	1
_symmetry_cell_setting	triclinic
loop_
_symmetry_equiv_pos_as_xyz
  x,y,z
_cell_length_a	16.120530
_cell_length_b	12.759400
_cell_length_c	12.759393
_cell_angle_alpha	90.031769
_cell_angle_beta	92.917895
_cell_angle_gamma	87.110362
loop_
_atom_site_label
_atom_site_type_symbol
_atom_site_fract_x
_atom_site_fract_y
_atom_site_fract_z
Zn1	Zn	1.274616	-0.499752	0.675425
Zn2	Zn	1.774616	0.000248	1.175425
Zn3	Zn	1.274534	-0.675466	0.499740
Zn4	Zn	1.774534	-0.175466	0.999740
Zn5	Zn	1.135195	-0.490887	0.490856
Zn6	Zn	1.635195	0.009113	0.990856
Zn7	Zn	1.135184	-0.666468	0.666477
Zn8	Zn	1.635184	-0.166468	1.166477
O9	O	1.204882	-0.583143	0.583125
O10	O	1.704882	-0.083143	1.083125
O11	O	1.391272	-0.530536	0.659583
O12	O	1.891272	-0.030536	1.159583
O13	O	1.256022	-0.651037	0.351539
O14	O	1.756022	-0.151037	0.851539
O15	O	1.153728	-0.345044	0.515366
O16	O	1.653728	0.154956	1.015366
O17	O	1.391212	-0.659633	0.530508
O18	O	1.891212	-0.159633	1.030508
O19	O	1.256160	-0.351557	0.650968
O20	O	1.756160	0.148443	1.150968
O21	O	1.153650	-0.515427	0.345012
O22	O	1.653650	-0.015427	0.845012
O23	O	1.018527	-0.506703	0.506690
O24	O	1.518527	-0.006703	1.006690
O25	O	1.153709	-0.644298	0.814687
O26	O	1.653709	-0.144298	1.314687
O27	O	1.018518	-0.635702	0.635718
O28	O	1.518518	-0.135702	1.135718
O29	O	1.256149	-0.521812	0.821261
O30	O	1.756149	-0.021812	1.321261
O31	O	1.256010	-0.821291	0.521832
O32	O	1.756010	-0.321291	1.021832
O33	O	1.153630	-0.814681	0.644333
O34	O	1.653630	-0.314681	1.144333
C35	C	1.204833	-0.856107	0.583100
C36	C	1.704833	-0.356107	1.083100
C37	C	1.204888	-0.972888	0.583129
C38	C	1.704888	-0.472888	1.083129
C39	C	0.988272	-0.569264	0.569270
C40	C	1.488272	-0.069264	1.069270
C41	C	0.895606	-0.563352	0.563367
C42	C	1.395606	-0.063352	1.063367
C43	C	1.258257	-1.031161	0.519421
C44	C	1.758257	-0.531161	1.019421
C45	C	1.258308	-1.140888	0.519456
C46	C	1.758308	-0.640888	1.019456
C47	C	1.151614	-1.134059	0.646911
C48	C	1.651614	-0.634059	1.146911
C49	C	1.151568	-1.024334	0.646880
C50	C	1.651568	-0.524334	1.146880
C51	C	1.311576	-0.979714	0.455669
C52	C	1.811576	-0.479714	0.955669
C53	C	1.364949	-1.037987	0.391955
C54	C	1.864949	-0.537987	0.891955
C55	C	1.365000	-1.147715	0.391990
C56	C	1.865000	-0.647715	0.891990
C57	C	1.311679	-1.199169	0.455741
C58	C	1.811679	-0.699169	0.955741
C59	C	0.725942	-0.552534	0.552601
C60	C	1.225942	-0.052534	1.052601
C61	C	0.684662	-0.613830	0.613726
C62	C	1.184662	-0.113830	1.113726
C63	C	0.590256	-0.607810	0.607735
C64	C	1.090256	-0.107810	1.107735
C65	C	0.820357	-0.558552	0.558590
C66	C	1.320357	-0.058552	1.058590
C67	C	1.422338	-0.597077	0.597034
C68	C	1.922338	-0.097077	1.097034
C69	C	1.515005	-0.603015	0.602962
C70	C	2.015005	-0.103015	1.102962
C71	C	1.204936	-0.583040	0.857162
C72	C	1.704936	-0.083040	1.357162
C73	C	1.204959	-0.582996	0.973940
C74	C	1.704959	-0.082996	1.473940
C75	C	1.204955	-0.309115	0.583174
C76	C	1.704955	0.190885	1.083174
C77	C	1.204985	-0.192340	0.583195
C78	C	1.704985	0.307660	1.083195
C79	C	1.204876	-0.583174	0.310157
C80	C	1.704876	-0.083174	0.810157
C81	C	1.205015	-0.582932	0.193390
C82	C	1.705015	-0.082932	0.693390
C83	C	1.151677	-0.512373	1.025411
C84	C	1.651677	-0.012373	1.525411
C85	C	1.151702	-0.512343	1.135136
C86	C	1.651702	-0.012343	1.635136
C87	C	1.258300	-0.653563	1.141911
C88	C	1.758300	-0.153563	1.641911
C89	C	1.258269	-0.653596	1.032187
C90	C	1.758269	-0.153596	1.532187
C91	C	1.098367	-0.441772	0.967163
C92	C	1.598367	0.058228	1.467163
C93	C	1.045081	-0.371143	1.018634
C94	C	1.545081	0.128857	1.518634
C95	C	1.045106	-0.371113	1.128360
C96	C	1.545106	0.128887	1.628360
C97	C	1.098417	-0.441713	1.186615
C98	C	1.598417	0.058287	1.686615
H99	H	1.311538	-0.890369	0.455630
H100	H	1.811538	-0.390369	0.955630
Cl101	Cl	0.671042	-0.464541	0.464862
Cl102	Cl	1.171042	0.035459	0.964862
Cl103	Cl	1.084476	-0.951071	0.726974
Cl104	Cl	1.584476	-0.451071	1.226974
Cl105	Cl	0.739562	-0.701824	0.701475
Cl106	Cl	1.239562	-0.201824	1.201475
Cl107	Cl	0.978103	-0.282343	1.193062
Cl108	Cl	1.478103	0.217657	1.693062
Cl109	Cl	1.098444	-0.441676	1.324557
Cl110	Cl	1.598444	0.058324	1.824557
H111	H	1.301705	-0.711039	1.189351
H112	H	1.801705	-0.211039	1.689351
Cl113	Cl	0.978063	-0.282397	0.945401
Cl114	Cl	1.478063	0.217603	1.445401
Cl115	Cl	1.325250	-0.742386	0.967475
Cl116	Cl	1.825250	-0.242386	1.467475
Cl117	Cl	1.098335	-0.441800	0.829223
Cl118	Cl	1.598335	0.058200	1.329223
H119	H	1.408464	-1.195158	0.340119
H120	H	1.908464	-0.695158	0.840119
H121	H	1.311731	-1.288517	0.455773
H122	H	1.811731	-0.788517	0.955773
Cl123	Cl	1.431985	-0.973305	0.311827
Cl124	Cl	1.931985	-0.473305	0.811827
H125	H	1.108202	-1.175962	0.698812
H126	H	1.608202	-0.675962	1.198812
