data_functionalizedCrystal
_audit_creation_method	'MofGen! by Chris Wilmer'
_symmetry_space_group_name_H-M	'P1'
_symmetry_Int_Tables_number	1
_symmetry_cell_setting	triclinic
loop_
_symmetry_equiv_pos_as_xyz
  x,y,z
_cell_length_a	19.188933
_cell_length_b	17.666332
_cell_length_c	9.065215
_cell_angle_alpha	90.004180
_cell_angle_beta	84.080133
_cell_angle_gamma	90.007838
loop_
_atom_site_label
_atom_site_type_symbol
_atom_site_fract_x
_atom_site_fract_y
_atom_site_fract_z
O1	O	0.927579	0.062922	0.184190
O2	O	0.724460	0.062928	0.208980
O3	O	0.830219	0.062922	-0.018203
O4	O	0.821820	0.062928	0.411373
O5	O	0.830200	-0.062975	-0.018210
O6	O	0.724441	-0.062968	0.208974
O7	O	0.927560	-0.062975	0.184183
Cu8	Cu	0.825999	-0.074467	0.196578
Cu9	Cu	0.826021	0.074420	0.196586
O10	O	0.821801	-0.062968	0.411367
C11	C	0.698433	-0.000019	0.208174
C12	C	0.620910	-0.000016	0.205762
C13	C	0.067532	0.068601	0.188556
C14	C	0.140373	0.068604	0.190813
C15	C	0.176789	-0.000022	0.191945
C16	C	0.140359	-0.068656	0.190781
C17	C	0.067519	-0.068657	0.188510
N18	N	0.286481	-0.051102	0.279455
N19	N	0.355675	-0.051096	0.281616
C20	C	0.396251	-0.000023	0.198786
N21	N	0.365017	0.051056	0.113731
N22	N	0.295816	0.051053	0.111576
C23	C	0.255771	-0.000028	0.194407
C24	C	0.511656	0.068610	0.202386
C25	C	0.584500	0.068610	0.204633
C26	C	0.584483	-0.068652	0.204617
C27	C	0.511641	-0.068650	0.202354
C28	C	0.475232	-0.000017	0.201246
N29	N	0.825988	-0.179187	0.196572
C30	C	0.868890	-0.218790	0.285833
C31	C	0.868901	-0.298038	0.285828
C32	C	0.825998	-0.337679	0.196580
C33	C	0.783093	-0.298066	0.107301
C34	C	0.783088	-0.218820	0.107297
N35	N	0.764821	-0.462116	0.192945
N36	N	0.764827	-0.537397	0.192957
C37	C	0.826010	-0.576443	0.196585
N38	N	0.887187	-0.537364	0.200229
N39	N	0.887180	-0.462077	0.200224
C40	C	0.825998	-0.423608	0.196574
C41	C	0.868928	-0.701975	0.285846
C42	C	0.868941	-0.781225	0.285831
C43	C	0.783126	-0.781251	0.107313
C44	C	0.783120	-0.702004	0.107319
C45	C	0.826020	-0.662371	0.196594
C46	C	0.953587	-0.000026	0.184990
C47	C	1.031110	-0.000024	0.187401
C48	C	0.829403	-0.000026	-0.073165
C49	C	0.826991	-0.000024	-0.236925
N50	N	0.826037	0.179140	0.196580
C51	C	0.822617	-0.000019	0.466329
C52	C	0.825029	-0.000017	0.630088
H53	H	0.170033	0.124489	0.191761
H54	H	0.614154	0.124495	0.205562
H55	H	0.903860	-0.669704	0.358538
H56	H	0.748151	-0.186575	0.034608
C57	C	0.180412	-0.144146	0.192029
C58	C	0.260532	-0.144148	0.194538
C59	C	0.300585	-0.219641	0.195778
C60	C	0.260517	-0.295132	0.194509
C61	C	0.180393	-0.295132	0.192000
C62	C	0.140340	-0.219639	0.190760
H63	H	0.290196	-0.088264	0.195478
H64	H	0.359899	-0.219641	0.197635
H65	H	0.290167	-0.351016	0.195427
H66	H	0.150729	-0.351017	0.191060
H67	H	0.081026	-0.219639	0.188903
C68	C	0.027486	0.144098	0.187325
C69	C	0.044631	0.200719	0.059578
C70	C	0.004585	0.276216	0.058346
C71	C	-0.052608	0.295092	0.184862
C72	C	-0.069756	0.238470	0.312618
C73	C	-0.029709	0.162973	0.313850
H74	H	0.086971	0.186746	-0.034085
H75	H	0.017279	0.318131	-0.036229
H76	H	-0.082252	0.350979	0.183950
H77	H	-0.112095	0.252442	0.406281
H78	H	-0.042404	0.121057	0.408425
C79	C	0.735917	-0.658434	0.009149
C80	C	0.688721	-0.702033	-0.089022
C81	C	0.641516	-0.658464	-0.187199
C82	C	0.641507	-0.571296	-0.187204
C83	C	0.688705	-0.527693	-0.089030
C84	C	0.735910	-0.571262	0.009147
H85	H	0.688725	-0.766564	-0.089021
H86	H	0.606577	-0.690743	-0.259874
H87	H	0.606563	-0.539044	-0.259880
H88	H	0.688700	-0.463162	-0.089031
H89	H	0.770849	-0.538983	0.081822
H90	H	0.748194	-0.813526	0.034643
C91	C	0.624525	-0.144147	0.205849
C92	C	0.667479	-0.163036	0.335471
C93	C	0.707522	-0.238535	0.336692
C94	C	0.704612	-0.295146	0.208291
C95	C	0.661656	-0.276258	0.078660
C96	C	0.621613	-0.200759	0.077439
H97	H	0.669635	-0.121128	0.430530
H98	H	0.739321	-0.252517	0.432655
H99	H	0.734255	-0.351035	0.209195
H100	H	0.659500	-0.318166	-0.016399
H101	H	0.589814	-0.186777	-0.018524
H102	H	0.037864	-0.124541	0.187575
C103	C	0.471573	-0.144141	0.201104
C104	C	0.414375	-0.163017	0.327612
C105	C	0.374308	-0.238513	0.326357
C106	C	0.391439	-0.295132	0.198594
C107	C	0.448639	-0.276257	0.072076
C108	C	0.488707	-0.200762	0.073331
H109	H	0.401691	-0.121103	0.422199
H110	H	0.331964	-0.252485	0.420015
H111	H	0.361778	-0.351018	0.197664
H112	H	0.461323	-0.318171	-0.022511
H113	H	0.531051	-0.186790	-0.020327
H114	H	0.903881	-0.813468	0.358514
C115	C	0.471600	0.144102	0.201141
C116	C	0.488737	0.200715	0.073377
C117	C	0.448682	0.276206	0.072128
C118	C	0.391490	0.295085	0.198643
C119	C	0.374350	0.238470	0.326417
C120	C	0.414405	0.162979	0.327665
H121	H	0.531076	0.186742	-0.020286
H122	H	0.461370	0.318116	-0.022459
H123	H	0.361839	0.350968	0.197719
H124	H	0.332011	0.252443	0.420079
H125	H	0.401717	0.121069	0.422252
C126	C	0.916082	-0.175195	0.384026
C127	C	0.963276	-0.218765	0.482212
C128	C	1.010468	-0.175167	0.580406
C129	C	1.010465	-0.088000	0.580414
C130	C	0.963270	-0.044425	0.482224
C131	C	0.916078	-0.088022	0.384030
H132	H	0.963279	-0.283296	0.482210
H133	H	1.045405	-0.207425	0.653093
H134	H	1.045399	-0.055726	0.653103
H135	H	0.963266	0.020106	0.482226
H136	H	0.881141	-0.055764	0.311344
C137	C	0.916088	-0.341619	0.384030
C138	C	0.996107	-0.330719	0.361905
C139	C	1.043291	-0.374300	0.460109
C140	C	1.010456	-0.428780	0.580437
C141	C	0.930433	-0.439682	0.602567
C142	C	0.883249	-0.396101	0.504364
H143	H	1.020417	-0.290388	0.272826
H144	H	1.102529	-0.366230	0.443726
H145	H	1.045384	-0.461041	0.653134
H146	H	0.906122	-0.480013	0.691646
H147	H	0.824010	-0.404172	0.520747
C148	C	0.735897	-0.341669	0.009131
C149	C	0.745122	-0.330787	-0.160302
C150	C	0.697926	-0.374389	-0.258481
C151	C	0.641507	-0.428874	-0.187226
C152	C	0.632279	-0.439758	-0.017783
C153	C	0.679474	-0.396156	0.080395
H154	H	0.786889	-0.290452	-0.213058
H155	H	0.704757	-0.366332	-0.383914
H156	H	0.606570	-0.461151	-0.259903
H157	H	0.590512	-0.480093	0.034972
H158	H	0.672644	-0.404213	0.205828
