data_functionalizedCrystal
_audit_creation_method	'MofGen! by Chris Wilmer'
_symmetry_space_group_name_H-M	'P1'
_symmetry_Int_Tables_number	1
_symmetry_cell_setting	triclinic
loop_
_symmetry_equiv_pos_as_xyz
  x,y,z
_cell_length_a	19.077115
_cell_length_b	21.295417
_cell_length_c	19.077174
_cell_angle_alpha	92.268346
_cell_angle_beta	85.484425
_cell_angle_gamma	87.726662
loop_
_atom_site_label
_atom_site_type_symbol
_atom_site_fract_x
_atom_site_fract_y
_atom_site_fract_z
Zn1	Zn	1.093668	-0.305856	-0.441801
Zn2	Zn	1.593668	0.194144	0.058199
Zn3	Zn	1.088841	-0.406716	-0.323903
Zn4	Zn	1.588841	0.093284	0.176097
Zn5	Zn	0.971054	-0.297057	-0.319200
Zn6	Zn	1.471054	0.202943	0.180800
Zn7	Zn	0.975735	-0.406675	-0.437022
Zn8	Zn	1.475735	0.093325	0.062978
O9	O	1.032324	-0.354076	-0.380482
O10	O	1.532324	0.145924	0.119518
O11	O	1.191677	-0.322935	-0.430129
O12	O	1.691677	0.177065	0.069871
O13	O	1.069237	-0.388504	-0.224630
O14	O	1.569237	0.111496	0.275370
O15	O	0.987380	-0.210138	-0.335495
O16	O	1.487380	0.289862	0.164505
O17	O	1.188130	-0.397037	-0.343510
O18	O	1.688130	0.102963	0.156490
O19	O	1.077464	-0.216603	-0.425569
O20	O	1.577464	0.283397	0.074431
O21	O	0.982700	-0.307938	-0.221175
O22	O	1.482700	0.192062	0.278825
O23	O	0.873025	-0.307898	-0.330862
O24	O	1.373025	0.192102	0.169138
O25	O	0.995358	-0.396966	-0.536305
O26	O	1.495358	0.103034	-0.036305
O27	O	0.876464	-0.388434	-0.417425
O28	O	1.376464	0.111566	0.082575
O29	O	1.082003	-0.322895	-0.539816
O30	O	1.582003	0.177105	-0.039816
O31	O	1.073776	-0.494797	-0.338877
O32	O	1.573776	0.005203	0.161123
O33	O	0.990677	-0.494766	-0.421985
O34	O	1.490677	0.005234	0.078015
C35	C	0.849166	-0.347207	-0.373115
C36	C	1.349166	0.152793	0.126885
C37	C	0.770811	-0.344284	-0.369980
C38	C	1.270811	0.155716	0.130020
C39	C	0.329560	-0.323295	-0.347505
C40	C	0.829560	0.176705	0.152495
C41	C	0.403183	-0.326045	-0.350454
C42	C	0.903183	0.173955	0.149546
C43	C	0.441798	-0.369414	-0.396924
C44	C	0.941798	0.130586	0.103076
C45	C	0.406787	-0.410032	-0.440453
C46	C	0.906787	0.089968	0.059547
C47	C	0.333165	-0.407278	-0.437507
C48	C	0.833165	0.092722	0.062493
C49	C	0.662178	-0.382149	-0.410563
C50	C	1.162178	0.117851	0.089437
C51	C	0.735804	-0.384900	-0.413504
C52	C	1.235804	0.115100	0.086496
C53	C	0.732196	-0.300912	-0.323506
C54	C	1.232196	0.199088	0.176494
C55	C	0.658573	-0.298165	-0.320561
C56	C	1.158573	0.201835	0.179439
C57	C	0.623568	-0.338781	-0.364093
C58	C	1.123568	0.161219	0.135907
N59	N	0.517053	-0.372227	-0.399938
N60	N	1.017053	0.127773	0.100062
N61	N	0.548314	-0.335964	-0.361082
N62	N	1.048314	0.164036	0.138918
C63	C	1.032230	-0.517623	-0.380439
C64	C	1.532230	-0.017623	0.119561
C65	C	1.032255	-0.587592	-0.380447
C66	C	1.532255	-0.087592	0.119553
C67	C	1.075567	-0.620457	-0.337220
C68	C	1.575567	-0.120457	0.162780
C69	C	1.075600	-0.686201	-0.337237
C70	C	1.575600	-0.186201	0.162763
C71	C	1.032310	-0.719077	-0.380473
C72	C	1.532310	-0.219077	0.119527
C73	C	0.988996	-0.686205	-0.423708
C74	C	1.488996	-0.186205	0.076292
C75	C	0.988969	-0.620462	-0.423695
C76	C	1.488969	-0.120462	0.076305
N77	N	0.970857	-0.820235	-0.383367
N78	N	1.470857	-0.320235	0.116633
N79	N	0.970884	-0.882688	-0.383376
N80	N	1.470884	-0.382688	0.116624
C81	C	1.032391	-0.917156	-0.380517
C82	C	1.532391	-0.417156	0.119483
N83	N	1.093869	-0.886812	-0.377635
N84	N	1.593869	-0.386812	0.122365
N85	N	1.093840	-0.824354	-0.377623
N86	N	1.593840	-0.324354	0.122377
C87	C	1.032335	-0.790364	-0.380493
C88	C	1.532335	-0.290364	0.119507
C89	C	1.075742	-1.021309	-0.337306
C90	C	1.575742	-0.521309	0.162694
C91	C	1.075777	-1.087054	-0.337329
C92	C	1.575777	-0.587054	0.162671
C93	C	0.989166	-1.087057	-0.423796
C94	C	1.489166	-0.587057	0.076204
C95	C	0.989137	-1.021313	-0.423778
C96	C	1.489137	-0.521313	0.076222
C97	C	1.032424	-0.988442	-0.380529
C98	C	1.532424	-0.488442	0.119471
C99	C	1.216198	-0.360972	-0.387877
C100	C	1.716198	0.139028	0.112123
C101	C	1.294553	-0.363911	-0.391029
C102	C	1.794553	0.136089	0.108971
C103	C	1.039741	-0.360908	-0.564355
C104	C	1.539741	0.139092	-0.064355
C105	C	1.042901	-0.363819	-0.642710
C106	C	1.542901	0.136181	-0.142710
C107	C	1.032438	-0.189892	-0.380541
C108	C	1.532438	0.310108	0.119459
C109	C	1.032487	-0.119926	-0.380566
C110	C	1.532487	0.380074	0.119434
C111	C	0.999333	-0.323241	-0.677723
C112	C	1.499333	0.176759	-0.177723
C113	C	1.002300	-0.325982	-0.751346
C114	C	1.502300	0.174018	-0.251346
C115	C	1.048839	-0.369298	-0.789956
C116	C	1.548839	0.130702	-0.289956
C117	C	1.092410	-0.409880	-0.754938
C118	C	1.592410	0.090120	-0.254938
C119	C	1.089439	-0.407142	-0.681316
C120	C	1.589439	0.092858	-0.181316
C121	C	1.062553	-0.381987	-1.010336
C122	C	1.562553	0.118013	-0.510336
C123	C	1.065522	-0.384721	-1.083963
C124	C	1.565522	0.115279	-0.583963
C125	C	0.975411	-0.300823	-1.080366
C126	C	1.475411	0.199177	-0.580366
C127	C	0.972447	-0.298086	-1.006742
C128	C	1.472447	0.201914	-0.506742
C129	C	1.016014	-0.338671	-0.971731
C130	C	1.516014	0.161329	-0.471731
N131	N	1.051875	-0.372099	-0.865211
N132	N	1.551875	0.127901	-0.365211
N133	N	1.012975	-0.335872	-0.896477
N134	N	1.512975	0.164128	-0.396477
C135	C	1.024977	-0.347227	-0.197325
C136	C	1.524977	0.152773	0.302675
C137	C	1.021953	-0.344143	-0.118976
C138	C	1.521953	0.155857	0.381024
H139	H	0.298125	-0.287979	-0.309663
H140	H	0.798125	0.212021	0.190337
H141	H	1.098021	-0.415041	-0.981838
H142	H	1.598021	0.084959	-0.481838
H143	H	1.130299	-0.445152	-0.786380
H144	H	1.630299	0.054848	-0.286380
H145	H	0.953750	-0.712977	-0.458913
H146	H	1.453750	-0.212977	0.041087
N147	N	1.119956	-0.987715	-0.293143
N148	N	1.619956	-0.487715	0.206857
N149	N	1.093364	-0.948470	-0.247198
N150	N	1.593364	-0.448470	0.252802
H151	H	1.124591	-0.924744	-0.216009
H152	H	1.624591	-0.424744	0.283991
H153	H	0.961439	-0.287965	-0.646292
H154	H	1.461439	0.212035	-0.146292
H155	H	0.760705	-0.267845	-0.288066
H156	H	1.260705	0.232155	0.211934
N157	N	1.119776	-0.586890	-0.293031
N158	N	1.619776	-0.086890	0.206969
N159	N	1.112520	-0.591684	-0.227795
N160	N	1.612520	-0.091684	0.272205
H161	H	1.143743	-0.567980	-0.196582
H162	H	1.643743	-0.067980	0.303418
H163	H	1.124922	-0.440181	-0.652810
H164	H	1.624922	0.059819	-0.152810
N165	N	0.930916	-0.259365	-1.116129
N166	N	1.430916	0.240635	-0.616129
N167	N	0.957404	-0.221709	-1.158222
N168	N	1.457404	0.278291	-0.658222
H169	H	0.925977	-0.192427	-1.183480
H170	H	1.425977	0.307573	-0.683480
H171	H	1.103423	-0.419995	-1.115398
H172	H	1.603423	0.080005	-0.615398
H173	H	0.953866	-0.994552	-0.458974
H174	H	1.453866	-0.494552	0.041026
N175	N	0.626411	-0.423632	-0.455016
N176	N	1.126411	0.076368	0.044984
N177	N	0.587162	-0.401689	-0.498342
N178	N	1.087162	0.098311	0.001658
H179	H	0.561896	-0.430990	-0.529736
H180	H	1.061896	0.069010	-0.029736
N181	N	0.944934	-1.120629	-0.467951
N182	N	1.444934	-0.620629	0.032049
N183	N	0.879695	-1.110731	-0.460601
N184	N	1.379695	-0.610731	0.039399
H185	H	0.848455	-1.134444	-0.491788
H186	H	1.348455	-0.634444	0.008212
H187	H	0.431682	-0.292974	-0.315009
H188	H	0.931682	0.207026	0.184991
N189	N	0.957811	-0.284515	-0.787106
N190	N	1.457811	0.215485	-0.287106
N191	N	0.984307	-0.246862	-0.829197
N192	N	1.484307	0.253138	-0.329197
H193	H	0.952886	-0.217571	-0.854451
H194	H	1.452886	0.282429	-0.354451
N195	N	0.619141	-0.253865	-0.273083
N196	N	1.119141	0.246135	0.226917
N197	N	0.650406	-0.217606	-0.234222
N198	N	1.150406	0.282394	0.265778
H199	H	0.622558	-0.186321	-0.200686
H200	H	1.122558	0.313679	0.299314
H201	H	0.767243	-0.420217	-0.451350
H202	H	1.267243	0.079783	0.048650
H203	H	0.304664	-0.440351	-0.472951
H204	H	0.804664	0.059649	0.027049
N205	N	0.446240	-0.454323	-0.487924
N206	N	0.946240	0.045677	0.012076
N207	N	0.511973	-0.456776	-0.490550
N208	N	1.011973	0.043224	0.009450
H209	H	0.539836	-0.488058	-0.524077
H210	H	1.039836	0.011942	-0.024077
H211	H	0.953699	-0.593703	-0.458896
H212	H	1.453699	-0.093703	0.041104
H213	H	1.110872	-0.712965	-0.302037
H214	H	1.610872	-0.212965	0.197963
N215	N	1.120034	-1.120618	-0.293176
N216	N	1.620034	-0.620618	0.206824
N217	N	1.158680	-1.091259	-0.254571
N218	N	1.658680	-0.591259	0.245429
H219	H	1.189939	-1.114963	-0.223388
H220	H	1.689939	-0.614963	0.276612
H221	H	0.934547	-0.262815	-0.975311
H222	H	1.434547	0.237185	-0.475311
