data_functionalizedCrystal
_audit_creation_method	'MofGen! by Chris Wilmer'
_symmetry_space_group_name_H-M	'P1'
_symmetry_Int_Tables_number	1
_symmetry_cell_setting	triclinic
loop_
_symmetry_equiv_pos_as_xyz
  x,y,z
_cell_length_a	12.827893
_cell_length_b	16.625545
_cell_length_c	12.827885
_cell_angle_alpha	89.967166
_cell_angle_beta	89.980728
_cell_angle_gamma	90.025528
loop_
_atom_site_label
_atom_site_type_symbol
_atom_site_fract_x
_atom_site_fract_y
_atom_site_fract_z
Zn1	Zn	1.597596	-0.320963	-0.590827
Zn2	Zn	1.597459	-0.455817	-0.416078
Zn3	Zn	1.422837	-0.321002	-0.416100
Zn4	Zn	1.422791	-0.455757	-0.590777
O5	O	1.510171	-0.388385	-0.503445
O6	O	1.743814	-0.338861	-0.567657
O7	O	1.574257	-0.437976	-0.269844
O8	O	1.446096	-0.208165	-0.439308
O9	O	1.743713	-0.437937	-0.439269
O10	O	1.574490	-0.208136	-0.567679
O11	O	1.445963	-0.338928	-0.269861
O12	O	1.276595	-0.338869	-0.439260
O13	O	1.446018	-0.437835	-0.737020
O14	O	1.276562	-0.437873	-0.567595
O15	O	1.574446	-0.338802	-0.737056
O16	O	1.574212	-0.568642	-0.439222
O17	O	1.445885	-0.568598	-0.567573
C18	C	1.238661	-0.388370	-0.503426
C19	C	1.122508	-0.388382	-0.503442
C20	C	1.070734	-0.437449	-0.566848
C21	C	0.950684	-0.437464	-0.566866
C22	C	1.510057	-0.597876	-0.503413
C23	C	1.510104	-0.687497	-0.503433
C24	C	1.510145	-0.760280	-0.503454
C25	C	1.510206	-0.851588	-0.503477
C26	C	1.510260	-0.924364	-0.503490
C27	C	1.510320	-1.015679	-0.503512
C28	C	1.782741	-0.388401	-0.503466
C29	C	1.898894	-0.388408	-0.503475
C30	C	1.510242	-0.388308	-0.776016
C31	C	1.510272	-0.388275	-0.892169
C32	C	1.510313	-0.178076	-0.503501
C33	C	1.510374	-0.088455	-0.503525
C34	C	1.573829	-0.339261	-0.943972
C35	C	1.573862	-0.339225	-1.064022
C36	C	1.510160	-0.388404	-0.231935
C37	C	1.510332	-0.388210	-0.115783
H38	H	1.115285	-0.479444	-0.621122
H39	H	0.906159	-0.479474	-0.621147
H40	H	1.077956	-0.346382	-0.449175
H41	H	0.943412	-0.346401	-0.449184
C42	C	1.647377	-0.282532	-1.124195
C43	C	1.638921	-0.190864	-1.109312
C44	C	1.712438	-0.134168	-1.169487
C45	C	1.794411	-0.169142	-1.244545
C46	C	1.802870	-0.260815	-1.259432
C47	C	1.729353	-0.317511	-1.199257
H48	H	1.578237	-0.164970	-1.053746
H49	H	1.706176	-0.066305	-1.158467
H50	H	1.848833	-0.127173	-1.289091
H51	H	1.863554	-0.286709	-1.314998
H52	H	1.735615	-0.385374	-1.210277
C53	C	1.436791	-0.444932	-0.952310
C54	C	1.317979	-0.438361	-0.937399
C55	C	1.244495	-0.495021	-0.997537
C56	C	1.289822	-0.558252	-1.072586
C57	C	1.408640	-0.564826	-1.087500
C58	C	1.482124	-0.508166	-1.027362
H59	H	1.284420	-0.391551	-0.881840
H60	H	1.156538	-0.490154	-0.986496
H61	H	1.235425	-0.600195	-1.117104
H62	H	1.442200	-0.611636	-1.143059
H63	H	1.570081	-0.513034	-1.038404
C64	C	1.647312	-0.282605	-0.883828
C65	C	1.601986	-0.219375	-0.808777
C66	C	1.675472	-0.162718	-0.748636
C67	C	1.794283	-0.169292	-0.763546
C68	C	1.839615	-0.232525	-0.838601
C69	C	1.766130	-0.289181	-0.898742
H70	H	1.514029	-0.214506	-0.797737
H71	H	1.641913	-0.115909	-0.693075
H72	H	1.848681	-0.127351	-0.719026
H73	H	1.927572	-0.237393	-0.849641
H74	H	1.799688	-0.335991	-0.954302
H75	H	1.455920	-0.430178	-1.071241
