data_functionalizedCrystal
_audit_creation_method	'MofGen! by Chris Wilmer'
_symmetry_space_group_name_H-M	'P1'
_symmetry_Int_Tables_number	1
_symmetry_cell_setting	triclinic
loop_
_symmetry_equiv_pos_as_xyz
  x,y,z
_cell_length_a	14.908783
_cell_length_b	18.050590
_cell_length_c	14.908308
_cell_angle_alpha	86.735264
_cell_angle_beta	90.211273
_cell_angle_gamma	93.309344
loop_
_atom_site_label
_atom_site_type_symbol
_atom_site_fract_x
_atom_site_fract_y
_atom_site_fract_z
Zn1	Zn	1.345325	-0.259750	0.587820
Zn2	Zn	1.845325	0.240250	1.087820
Zn3	Zn	1.353911	-0.376401	0.437456
Zn4	Zn	1.853911	0.123599	0.937456
Zn5	Zn	1.203639	-0.258946	0.428792
Zn6	Zn	1.703639	0.241054	0.928792
Zn7	Zn	1.194937	-0.390621	0.579078
Zn8	Zn	1.694937	0.109379	1.079078
O9	O	1.274453	-0.321430	0.508287
O10	O	1.774453	0.178570	1.008287
O11	O	1.472292	-0.269609	0.575159
O12	O	1.972292	0.230391	1.075159
O13	O	1.341212	-0.354532	0.310484
O14	O	1.841212	0.145468	0.810484
O15	O	1.222482	-0.155127	0.449920
O16	O	1.722482	0.344873	0.949920
O17	O	1.478600	-0.355312	0.464688
O18	O	1.978600	0.144688	0.964688
O19	O	1.326579	-0.155718	0.566758
O20	O	1.826579	0.344282	1.066758
O21	O	1.230807	-0.268239	0.304118
O22	O	1.730807	0.231761	0.804118
O23	O	1.076657	-0.282028	0.441442
O24	O	1.576657	0.217972	0.941442
O25	O	1.207652	-0.379549	0.706060
O26	O	1.707652	0.120451	1.206060
O27	O	1.070264	-0.378770	0.551857
O28	O	1.570264	0.121230	1.051857
O29	O	1.318141	-0.283398	0.712484
O30	O	1.818141	0.216602	1.212484
O31	O	1.332774	-0.482212	0.456210
O32	O	1.832774	0.017788	0.956210
O33	O	1.215977	-0.492660	0.560258
O34	O	1.715977	0.007340	1.060258
C35	C	1.040835	-0.331855	0.494761
C36	C	1.540835	0.168145	0.994761
C37	C	0.940890	-0.336335	0.488996
C38	C	1.440890	0.163665	0.988996
C39	C	0.746504	-0.255648	0.593373
C40	C	1.246504	0.244352	1.093373
C41	C	0.652598	-0.259854	0.587960
C42	C	1.152598	0.240146	1.087960
C43	C	0.659169	-0.348949	0.472751
C44	C	1.159169	0.151051	0.972751
C45	C	0.753076	-0.344742	0.478165
C46	C	1.253076	0.155258	0.978165
C47	C	0.796740	-0.298091	0.538479
C48	C	1.296740	0.201909	1.038479
C49	C	0.890648	-0.293890	0.543897
C50	C	1.390648	0.206110	1.043897
C51	C	0.897218	-0.382980	0.428684
C52	C	1.397218	0.117020	0.928684
C53	C	0.803311	-0.387186	0.423271
C54	C	1.303311	0.112814	0.923271
C55	C	1.274386	-0.514383	0.508247
C56	C	1.774386	-0.014383	1.008247
C57	C	1.274438	-0.596927	0.508264
C58	C	1.774438	-0.096927	1.008264
C59	C	1.338072	-0.790668	0.451774
C60	C	1.838072	-0.290668	0.951774
C61	C	1.355299	-0.843138	0.535104
C62	C	1.855299	-0.343138	1.035104
C63	C	1.274487	-0.748057	0.508303
C64	C	1.774487	-0.248057	1.008303
C65	C	1.257349	-0.842666	0.425015
C66	C	1.757349	-0.342666	0.925015
C67	C	1.274536	-0.894041	0.508334
C68	C	1.774536	-0.394041	1.008334
C69	C	1.291753	-0.799440	0.591679
C70	C	1.791753	-0.299440	1.091679
C71	C	1.193768	-0.798963	0.481532
C72	C	1.693768	-0.298963	0.981532
C73	C	1.210961	-0.851415	0.564918
C74	C	1.710961	-0.351415	1.064918
C75	C	1.274461	-0.663959	0.508285
C76	C	1.774461	-0.163959	1.008285
C77	C	1.274562	-0.978138	0.508361
C78	C	1.774562	-0.478138	1.008361
C79	C	1.508984	-0.310964	0.521865
C80	C	2.008984	0.189036	1.021865
C81	C	1.608927	-0.306504	0.527652
C82	C	2.108927	0.193496	1.027652
C83	C	1.260968	-0.333149	0.742809
C84	C	1.760968	0.166851	1.242809
C85	C	1.255222	-0.338144	0.842748
C86	C	1.755222	0.161856	1.342748
C87	C	1.274544	-0.127723	0.508348
C88	C	1.774544	0.372277	1.008348
C89	C	1.274582	-0.045176	0.508374
C90	C	1.774582	0.454824	1.008374
C91	C	1.287937	-0.309699	0.274680
C92	C	1.787937	0.190301	0.774680
C93	C	1.293858	-0.304488	0.174751
C94	C	1.793858	0.195512	0.674751
C95	C	1.359474	-0.247389	1.037235
C96	C	1.859474	0.252611	1.537235
C97	C	1.354077	-0.252079	1.131137
C98	C	1.854077	0.247921	1.631137
C99	C	1.239028	-0.352209	1.124456
C100	C	1.739028	0.147791	1.624456
C101	C	1.244425	-0.347519	1.030554
C102	C	1.744425	0.152481	1.530554
C103	C	1.304651	-0.295108	0.986947
C104	C	1.804651	0.204892	1.486947
C105	C	1.310051	-0.290423	0.893043
C106	C	1.810051	0.209577	1.393043
C107	C	1.194998	-0.390548	0.886363
C108	C	1.694998	0.109452	1.386363
C109	C	1.189602	-0.395238	0.980266
C110	C	1.689602	0.104762	1.480266
H111	H	0.926198	-0.255905	0.593008
H112	H	1.426198	0.244095	1.093008
N113	N	1.375015	-0.233903	0.846010
N114	N	1.875015	0.266097	1.346010
H115	H	1.370123	-0.238175	0.778892
H116	H	1.870123	0.261825	1.278892
H117	H	1.438279	-0.243423	0.866146
H118	H	1.938279	0.256577	1.366146
N119	N	1.413210	-0.200618	1.185385
N120	N	1.913210	0.299382	1.685385
H121	H	1.374441	-0.169782	1.222239
H122	H	1.874441	0.330218	1.722239
H123	H	1.452172	-0.166752	1.143455
H124	H	1.952172	0.333248	1.643455
N125	N	0.793606	-0.205344	0.658431
N126	N	1.293606	0.294656	1.158431
H127	H	0.747532	-0.179096	0.692390
H128	H	1.247532	0.320904	1.192390
H129	H	0.834670	-0.167358	0.624154
H130	H	1.334670	0.332642	1.124154
H131	H	1.408517	-0.204718	1.001730
H132	H	1.908517	0.295282	1.501730
H133	H	1.125507	-0.779453	0.458848
H134	H	1.625507	-0.279453	0.958848
N135	N	1.409309	-0.755579	0.388518
N136	N	1.909309	-0.255579	0.888518
H137	H	1.470279	-0.771583	0.408872
H138	H	1.970279	-0.271583	0.908872
H139	H	1.408327	-0.699682	0.388549
H140	H	1.908327	-0.199682	0.888549
N141	N	1.174039	-0.408705	1.171495
N142	N	1.674039	0.091295	1.671495
H143	H	1.178930	-0.404423	1.238611
H144	H	1.678930	0.095577	1.738611
H145	H	1.188923	-0.460313	1.155899
H146	H	1.688923	0.039687	1.655899
H147	H	1.140566	-0.437908	1.015783
H148	H	1.640566	0.062092	1.515783
N149	N	0.612053	-0.399256	0.407706
N150	N	1.112053	0.100744	0.907706
H151	H	0.627578	-0.452299	0.422496
H152	H	1.127578	0.047701	0.922496
H153	H	0.632090	-0.383640	0.344453
H154	H	1.132090	0.116360	0.844453
N155	N	1.135868	-0.442026	0.832125
N156	N	1.635868	0.057974	1.332125
H157	H	1.148425	-0.431106	0.766021
H158	H	1.648425	0.068894	1.266021
H159	H	1.070710	-0.434159	0.844822
H160	H	1.570710	0.065841	1.344822
H161	H	0.767747	-0.425165	0.374162
H162	H	1.267747	0.074835	0.874162
N163	N	0.951399	-0.428768	0.369478
N164	N	1.451399	0.071232	0.869478
H165	H	1.017515	-0.419029	0.382060
H166	H	1.517515	0.080971	0.882060
H167	H	0.938667	-0.414661	0.304338
H168	H	1.438667	0.085339	0.804338
N169	N	1.139754	-0.886313	0.628336
N170	N	1.639754	-0.386313	1.128336
H171	H	1.168788	-0.918683	0.676333
H172	H	1.668788	-0.418683	1.176333
H173	H	1.094883	-0.917613	0.593723
H174	H	1.594883	-0.417613	1.093723
N175	N	1.238102	-0.867956	0.331705
N176	N	1.738102	-0.367956	0.831705
H177	H	1.290030	-0.896062	0.310695
H178	H	1.790030	-0.396062	0.810695
H179	H	1.229907	-0.823208	0.289279
H180	H	1.729907	-0.323208	0.789279
N181	N	0.598414	-0.214069	0.647159
N182	N	1.098414	0.285931	1.147159
H183	H	0.640328	-0.183878	0.686184
H184	H	1.140328	0.316122	1.186184
H185	H	0.557061	-0.248167	0.686462
H186	H	1.057061	0.251833	1.186462
H187	H	1.306197	-0.780449	0.662184
H188	H	1.806197	-0.280449	1.162184
N189	N	1.445741	-0.868963	0.565127
N190	N	1.945741	-0.368963	1.065127
H191	H	1.493716	-0.846714	0.522377
H192	H	1.993716	-0.346714	1.022377
H193	H	1.444822	-0.924969	0.565487
H194	H	1.944822	-0.424969	1.065487
