data_functionalizedCrystal
_audit_creation_method	'MofGen! by Chris Wilmer'
_symmetry_space_group_name_H-M	'P1'
_symmetry_Int_Tables_number	1
_symmetry_cell_setting	triclinic
loop_
_symmetry_equiv_pos_as_xyz
  x,y,z
_cell_length_a	15.297476
_cell_length_b	15.299383
_cell_length_c	18.215399
_cell_angle_alpha	99.659102
_cell_angle_beta	99.685030
_cell_angle_gamma	107.337227
loop_
_atom_site_label
_atom_site_type_symbol
_atom_site_fract_x
_atom_site_fract_y
_atom_site_fract_z
Zn1	Zn	1.485789	0.616512	0.712668
Zn2	Zn	1.512554	0.771978	0.615352
Zn3	Zn	1.330269	0.589594	0.563892
Zn4	Zn	1.357092	0.744990	0.712653
O5	O	1.421426	0.680769	0.651141
O6	O	1.619486	0.659695	0.721302
O7	O	1.488349	0.747814	0.505543
O8	O	1.328472	0.463068	0.562098
O9	O	1.639150	0.773915	0.649804
O10	O	1.442732	0.482845	0.671403
O11	O	1.354425	0.613817	0.467735
O12	O	1.203680	0.587648	0.562083
O13	O	1.374189	0.727918	0.815638
O14	O	1.223387	0.701816	0.671377
O15	O	1.468741	0.633526	0.815650
O16	O	1.514358	0.898495	0.649789
O17	O	1.400141	0.878667	0.721275
C18	C	1.463090	0.922318	0.691135
C19	C	1.480999	1.025668	0.708283
C20	C	1.179788	0.638883	0.611145
C21	C	1.076419	0.620987	0.594055
C22	C	1.293763	1.276148	0.528915
C23	C	1.276931	1.179045	0.512805
C24	C	1.327947	1.140696	0.561673
C25	C	1.395796	1.199460	0.626654
C26	C	1.412624	1.296572	0.642770
C27	C	1.446809	1.161120	0.675527
C28	C	1.514658	1.219884	0.740509
C29	C	1.531483	1.316987	0.756621
C30	C	1.480468	1.355336	0.707753
C31	C	1.429981	1.064007	0.659412
C32	C	1.548843	1.084431	0.773266
C33	C	1.565674	1.181535	0.789377
C34	C	1.017555	0.553035	0.529177
C35	C	0.920434	0.536218	0.513119
C36	C	0.882166	0.587346	0.561939
C37	C	0.941029	0.655295	0.626821
C38	C	1.038160	0.672118	0.642878
C39	C	0.902771	0.706430	0.675640
C40	C	0.961634	0.774378	0.740522
C41	C	1.058756	0.791198	0.756576
C42	C	1.097024	0.740070	0.707756
C43	C	0.805639	0.689606	0.659583
C44	C	0.826244	0.808689	0.773284
C45	C	0.923366	0.825506	0.789342
C46	C	1.664007	0.722818	0.691295
C47	C	1.767381	0.740738	0.708406
C48	C	1.379573	1.438272	0.611009
C49	C	1.361606	1.334912	0.593898
C50	C	1.421471	0.680714	0.843093
C51	C	1.421491	0.680691	0.924892
C52	C	1.421422	0.680765	0.459934
C53	C	1.421538	0.680557	0.378123
C54	C	1.470736	0.631489	1.113087
C55	C	1.470743	0.631464	1.189943
C56	C	1.372286	0.729761	1.189921
C57	C	1.372275	0.729780	1.113065
C58	C	1.421505	0.680646	1.074651
C59	C	1.421523	0.680602	1.228363
C60	C	1.421530	0.680575	1.311694
C61	C	1.421498	0.680672	0.991314
H62	H	1.314240	1.061629	0.548551
O63	O	0.863136	0.470317	0.450090
C64	C	0.769206	0.466437	0.446383
H65	H	0.768351	0.535913	0.480127
H66	H	0.731188	0.453711	0.384100
H67	H	0.732124	0.406552	0.471921
H68	H	1.048724	0.511419	0.489432
O69	O	1.597450	1.374184	0.819666
C70	C	1.667286	1.440737	0.797064
H71	H	1.637054	1.449676	0.738275
H72	H	1.691553	1.511145	0.840429
H73	H	1.729722	1.415208	0.794212
O74	O	1.211030	1.122105	0.449632
C75	C	1.169597	1.176769	0.409964
H76	H	1.219681	1.252562	0.425229
H77	H	1.154871	1.147060	0.345693
H78	H	1.100738	1.174890	0.426890
H79	H	1.494171	1.434405	0.720864
O80	O	1.631447	1.238645	0.852564
C81	C	1.588193	1.285656	0.900598
H82	H	1.509882	1.243750	0.888127
H83	H	1.621967	1.292515	0.962988
H84	H	1.597753	1.358716	0.889521
O85	O	1.244185	1.313497	0.481564
C86	C	1.193808	1.359248	0.522803
H87	H	1.229078	1.379388	0.586418
H88	H	1.193208	1.425419	0.502104
H89	H	1.118404	1.309934	0.513233
H90	H	1.590382	1.053209	0.813060
H91	H	0.971305	0.880830	0.842170
H92	H	0.757721	0.634279	0.606757
O93	O	0.787818	0.570985	0.546481
C94	C	0.751326	0.541577	0.607747
H95	H	0.810079	0.567248	0.662013
H96	H	0.693576	0.572253	0.616982
H97	H	0.720813	0.461452	0.593789
O98	O	1.191384	0.756487	0.723244
C99	C	1.227880	0.785826	0.661958
H100	H	1.178876	0.816613	0.628930
H101	H	1.300558	0.841662	0.685287
H102	H	1.233717	0.722928	0.622100
O103	O	1.324437	0.777619	1.075847
C104	C	1.280975	0.820969	1.126227
H105	H	1.319630	0.830779	1.187855
H106	H	1.283681	0.892503	1.114495
H107	H	1.204472	0.774681	1.117072
H108	H	1.106682	0.846534	0.809402
O109	O	0.788923	0.858246	0.820652
C110	C	0.690577	0.828842	0.792559
H111	H	0.664914	0.754753	0.754471
H112	H	0.654800	0.828851	0.842638
H113	H	0.672492	0.879142	0.757855
H114	H	1.510830	0.591434	1.221234
O115	O	1.363968	1.007010	0.596324
C116	C	1.275385	1.014726	0.600966
H117	H	1.285654	1.084872	0.640631
H118	H	1.234308	1.010913	0.541496
H119	H	1.234562	0.954635	0.624522
O120	O	1.518564	0.583674	1.075873
C121	C	1.562035	0.540300	1.126288
H122	H	1.523393	0.530468	1.174233
H123	H	1.559320	0.468774	1.093605
H124	H	1.638541	0.586581	1.151791
H125	H	1.332207	0.769766	1.221208
