data_functionalizedCrystal
_audit_creation_method	'MofGen! by Chris Wilmer'
_symmetry_space_group_name_H-M	'P1'
_symmetry_Int_Tables_number	1
_symmetry_cell_setting	triclinic
loop_
_symmetry_equiv_pos_as_xyz
  x,y,z
_cell_length_a	10.489741
_cell_length_b	14.044220
_cell_length_c	13.101039
_cell_angle_alpha	86.332523
_cell_angle_beta	93.389339
_cell_angle_gamma	88.864026
loop_
_atom_site_label
_atom_site_type_symbol
_atom_site_fract_x
_atom_site_fract_y
_atom_site_fract_z
O1	O	-1.714050	-0.128652	-0.085154
O2	O	-1.344130	-0.141213	-0.085170
O3	O	-1.523536	0.003089	-0.085152
O4	O	-1.534643	-0.272954	-0.085172
O5	O	-1.510666	-0.007281	0.085277
O6	O	-1.331259	-0.151584	0.085259
O7	O	-1.701180	-0.139023	0.085275
Zn8	Zn	-1.514176	-0.146950	0.112326
Zn9	Zn	-1.531133	-0.133286	-0.112221
O10	O	-1.521773	-0.283325	0.085257
C11	C	-1.290067	-0.145450	0.000043
C12	C	-1.148150	-0.142611	0.000037
C13	C	-1.512240	0.033252	0.000063
C14	C	-1.497740	0.138576	0.000063
C15	C	-1.755243	-0.134786	0.000060
C16	C	-1.897160	-0.137625	0.000060
C17	C	-1.070696	-0.050795	0.000053
C18	C	-0.989314	-0.089055	-0.083978
C19	C	-0.976661	-0.099302	0.084051
C20	C	-1.068642	-0.180904	-0.084064
C21	C	-1.055992	-0.191143	0.084041
C22	C	-0.974646	-0.229468	-0.000011
C23	C	-1.533069	-0.313487	0.000040
C24	C	-1.547569	-0.418812	0.000033
N25	N	-1.502612	-0.156275	0.265573
C26	C	-1.471233	0.331420	0.000047
C27	C	-1.574071	0.388351	0.000049
C28	C	-1.559322	0.495655	0.000040
C29	C	-1.485980	0.224105	0.000056
N30	N	-1.542706	-0.123954	-0.265468
C31	C	-1.486881	-0.168970	0.474614
C32	C	-1.558434	-0.111261	0.525497
C33	C	-1.549680	-0.118325	0.641815
C34	C	-1.495633	-0.161908	0.358286
H35	H	-1.112738	0.024689	-0.000047
O36	O	-0.950093	-0.031875	-0.178071
H37	H	-0.988696	0.042269	-0.177894
O38	O	-1.705374	0.346181	0.000065
H39	H	-1.711741	0.297372	0.069539
H40	H	-1.372122	0.363266	0.000041
O41	O	-1.095242	-0.248278	0.178145
H42	H	-1.055096	-0.322049	0.178791
O43	O	-1.121815	-0.226558	-0.178291
H44	H	-1.175126	-0.291020	-0.154782
O45	O	-0.919339	-0.329552	-0.000058
H46	H	-0.956491	-0.363178	-0.069876
O47	O	-0.923305	-0.053561	0.178165
H48	H	-0.961968	0.020596	0.177985
O49	O	-1.648292	-0.038787	0.467499
H50	H	-1.641164	-0.044544	0.383915
O51	O	-1.397045	-0.241450	0.532613
H52	H	-1.404198	-0.235701	0.616194
