data_functionalizedCrystal
_audit_creation_method	'MofGen! by Chris Wilmer'
_symmetry_space_group_name_H-M	'P1'
_symmetry_Int_Tables_number	1
_symmetry_cell_setting	triclinic
loop_
_symmetry_equiv_pos_as_xyz
  x,y,z
_cell_length_a	21.606444
_cell_length_b	21.606444
_cell_length_c	21.606444
_cell_angle_alpha	59.999875
_cell_angle_beta	90.000833
_cell_angle_gamma	60.001331
loop_
_atom_site_label
_atom_site_type_symbol
_atom_site_fract_x
_atom_site_fract_y
_atom_site_fract_z
Zr1	Zr	-0.081222	0.677477	0.596210
O2	O	-0.180041	0.806595	0.497381
O3	O	-0.050932	0.548358	0.626507
O4	O	-0.180050	0.677482	0.626499
O5	O	0.050931	0.677467	0.497394
O6	O	-0.180054	0.677487	0.728349
O7	O	-0.050923	0.677471	0.497389
O8	O	0.050915	0.446508	0.728363
O9	O	-0.180038	0.908446	0.497380
O10	O	-0.038013	0.601470	0.715437
O11	O	0.038003	0.601463	0.639431
O12	O	-0.114018	0.753490	0.639422
O13	O	-0.038002	0.753484	0.563417
Zr14	Zr	0.081217	0.677477	0.758657
Zr15	Zr	-0.081228	0.677484	0.758648
Zr16	Zr	0.081223	0.677470	0.596218
Zr17	Zr	-0.081217	0.839917	0.596208
Zr18	Zr	0.081212	0.515036	0.758658
O19	O	0.050927	0.806595	0.728359
O20	O	-0.180050	0.806605	0.728348
O21	O	0.050935	0.806585	0.497393
O22	O	0.180036	0.548358	0.857486
O23	O	-0.050940	0.548368	0.857474
O24	O	0.180045	0.548348	0.626519
O25	O	-0.050936	0.677487	0.857473
O26	O	0.180045	0.677471	0.728367
O27	O	0.180049	0.677467	0.626518
O28	O	0.050918	0.677482	0.857478
O29	O	-0.180043	0.908451	0.626497
O30	O	0.180038	0.446502	0.728370
O31	O	0.180033	0.446508	0.857487
O32	O	0.050910	0.446513	0.857480
O33	O	-0.050916	0.908440	0.497386
O34	O	-0.050920	0.908446	0.626503
O35	O	0.114012	0.601463	0.715445
O36	O	0.037997	0.601470	0.791450
O37	O	-0.038008	0.753490	0.715435
O38	O	0.038008	0.753484	0.639430
C39	C	-0.000009	0.474289	0.677435
C40	C	-0.000011	0.405329	0.677436
C41	C	-0.039692	0.372934	0.717109
C42	C	-0.039687	0.308134	0.717111
C43	C	-0.000005	0.275734	0.677437
C44	C	0.039680	0.308131	0.637763
C45	C	0.039679	0.372925	0.637765
C46	C	0.039686	0.046822	0.637754
C47	C	0.039683	-0.017975	0.637753
C48	C	-0.039679	-0.017969	0.717100
C49	C	-0.039680	0.046825	0.717102
C50	C	0.000008	0.079213	0.677432
C51	C	0.000003	0.149475	0.677431
C52	C	-0.000004	0.205477	0.677433
C53	C	-0.203197	0.677485	0.677423
C54	C	-0.272160	0.677488	0.677419
C55	C	-0.344232	0.756841	0.637740
C56	C	-0.409027	0.756838	0.637747
C57	C	-0.401748	0.677483	0.677429
C58	C	-0.329668	0.598124	0.717113
C59	C	-0.264874	0.598127	0.717110
C60	C	-0.590971	0.598109	0.717125
C61	C	-0.655771	0.598112	0.717122
C62	C	-0.735123	0.756820	0.637761
C63	C	-0.670330	0.756823	0.637759
C64	C	-0.598256	0.677465	0.677446
C65	C	-0.527998	0.677469	0.677440
C66	C	-0.472004	0.677478	0.677431
C67	C	0.203192	0.677468	0.677444
C68	C	0.272154	0.677465	0.677447
C69	C	0.000005	0.677468	0.474247
C70	C	0.000007	0.677465	0.405288
C71	C	0.000004	0.880665	0.677431
C72	C	0.000006	0.949625	0.677430
C73	C	0.039678	0.598113	0.412568
C74	C	0.039679	0.598115	0.347770
C75	C	0.000004	0.677471	0.275694
C76	C	-0.039668	0.756829	0.268416
C77	C	-0.039664	0.756826	0.333212
C78	C	-0.039685	0.756844	0.007098
C79	C	-0.039688	0.756842	-0.057700
C80	C	0.039658	0.598134	0.021656
C81	C	0.039662	0.598130	0.086452
C82	C	-0.000007	0.677488	0.079169
C83	C	-0.000006	0.677485	0.149430
C84	C	-0.000002	0.677475	0.205434
C85	C	-0.000010	0.677485	0.880619
C86	C	-0.000012	0.677488	0.949579
C87	C	-0.000017	0.474297	0.880621
C88	C	-0.000021	0.405340	0.949581
C89	C	0.203185	0.474280	0.677446
C90	C	0.272146	0.405317	0.677450
C91	C	0.203178	0.474289	0.880632
C92	C	0.272136	0.405329	0.949595
C93	C	-0.203183	0.880665	0.474235
C94	C	-0.272141	0.949625	0.405271
C95	C	0.000011	0.880656	0.474245
C96	C	0.000016	0.949613	0.405285
C97	C	-0.203191	0.880673	0.677421
C98	C	-0.272151	0.949637	0.677417
C99	C	-0.039707	0.372957	0.942288
C100	C	-0.039726	0.308174	1.007077
C101	C	-0.000056	0.275770	1.079159
C102	C	0.039631	0.308159	1.086451
C103	C	0.039646	0.372946	1.021663
C104	C	0.344213	0.372931	0.717130
C105	C	0.409015	0.308142	0.717131
C106	C	0.401747	0.275735	0.677456
C107	C	0.329672	0.308128	0.637771
C108	C	0.264872	0.372920	0.637766
C109	C	0.264840	0.372948	1.021662
C110	C	0.329627	0.308161	1.086467
C111	C	0.401709	0.275753	1.079203
C112	C	0.409003	0.308140	1.007129
C113	C	0.344217	0.372930	0.942326
C114	C	-0.264845	0.982014	0.333204
C115	C	-0.329632	1.046820	0.268399
C116	C	-0.401714	1.079232	0.275663
C117	C	-0.409008	1.046841	0.347738
C118	C	-0.344222	0.982040	0.412541
C119	C	0.039695	0.982003	0.412579
C120	C	0.039696	1.046804	0.347790
C121	C	0.000024	1.079211	0.275707
C122	C	-0.039660	1.046818	0.268415
C123	C	-0.039666	0.982022	0.333204
C124	C	-0.264859	0.982023	0.717099
C125	C	-0.329648	1.046812	0.717110
C126	C	-0.401728	1.079219	0.677433
C127	C	-0.409019	1.046827	0.637749
C128	C	-0.344230	0.982034	0.637744
H129	H	-0.071996	0.073206	0.749406
O130	O	0.082487	0.947065	0.490318
H131	H	0.075829	0.896559	0.534153
H132	H	-0.206158	0.955627	0.327276
H133	H	-0.467705	1.073239	0.353643
O134	O	0.082455	0.512529	0.355619
H135	H	0.110033	0.457348	0.416624
O136	O	-0.321757	1.081745	0.190667
H137	H	-0.349389	1.069323	0.159242
H138	H	0.206153	0.399325	1.027591
H139	H	-0.350172	0.955669	0.471219
H140	H	0.072014	1.073168	0.353742
O141	O	-0.082467	0.842392	0.325400
H142	H	-0.059562	0.880479	0.293942
O143	O	0.486755	0.273167	0.999308
H144	H	0.493370	0.327540	0.967854
O145	O	0.187169	0.407764	0.594984
H146	H	0.155695	0.479238	0.551092
O147	O	0.352061	0.407877	0.759925
H148	H	0.383515	0.437406	0.736987
H149	H	0.454456	0.222997	1.131977
H150	H	0.071967	0.533511	0.145137
O151	O	0.321751	0.273226	1.164199
H152	H	0.260743	0.306637	1.158356
H153	H	0.350168	0.399286	0.883648
H154	H	-0.206190	0.533511	0.749421
H155	H	-0.350178	0.955672	0.605426
O156	O	-0.471589	1.149134	0.205765
H157	H	-0.454398	1.166205	0.154435
H158	H	0.000034	1.131972	0.222959
O159	O	0.082468	0.512517	0.490304
H160	H	0.075800	0.525843	0.534140
O161	O	-0.082449	1.081773	0.190668
H162	H	-0.075768	1.132265	0.146849
O163	O	-0.082456	0.947081	0.325333
H164	H	-0.110032	0.980499	0.264324
H165	H	0.071967	0.399304	1.027612
O166	O	-0.082510	0.407908	0.864548
H167	H	-0.042459	0.395465	0.833125
O168	O	-0.187119	0.947066	0.759906
H169	H	-0.192945	0.980470	0.787507
O170	O	-0.321777	1.081746	0.759911
H171	H	-0.260769	1.048332	0.787486
H172	H	-0.454477	1.131978	0.677444
O173	O	-0.486764	1.081791	0.594947
H174	H	-0.530584	1.132295	0.601615
O175	O	-0.678180	0.842413	0.594955
H176	H	-0.709636	0.880466	0.617886
O177	O	-0.082491	0.407880	0.759901
H178	H	-0.110076	0.374458	0.787494
H179	H	-0.071998	0.821467	-0.116390
O180	O	-0.513242	0.512516	0.759913
H181	H	-0.469406	0.525843	0.753251
H182	H	-0.071997	0.281759	0.749416
O183	O	0.321854	0.273149	0.594996
H184	H	0.290405	0.327518	0.534006
O185	O	-0.082488	-0.052902	0.759890
H186	H	-0.042437	-0.124377	0.803753
O187	O	0.082467	-0.052909	0.594943
H188	H	0.110063	-0.019501	0.567356
O189	O	-0.082526	0.273239	0.999204
H190	H	-0.110094	0.306648	0.938195
O191	O	-0.082479	0.842444	-0.000777
H192	H	-0.059547	0.880489	-0.032253
O193	O	-0.812862	0.842419	0.594969
H194	H	-0.856697	0.829090	0.601644
H195	H	0.071994	0.281741	0.605464
O196	O	0.082481	0.081761	0.594960
H197	H	0.110064	0.048352	0.567364
H198	H	0.071989	0.399302	0.605458
H199	H	-0.350168	0.821462	0.605421
H200	H	-0.467709	0.821455	0.605437
O201	O	-0.647923	0.512518	0.759949
H202	H	-0.586920	0.457335	0.787560
H203	H	-0.323745	0.533511	0.749427
H204	H	0.071960	0.533516	0.027580
H205	H	-0.071968	0.821442	0.209726
H206	H	-0.000073	0.223015	1.131908
H207	H	0.071929	0.281766	1.145149
H208	H	0.454518	0.222977	0.677466
O209	O	0.486748	0.273197	0.759950
H210	H	0.480908	0.306606	0.787549
