data_functionalizedCrystal
_audit_creation_method	'MofGen! by Chris Wilmer'
_symmetry_space_group_name_H-M	'P1'
_symmetry_Int_Tables_number	1
_symmetry_cell_setting	triclinic
loop_
_symmetry_equiv_pos_as_xyz
  x,y,z
_cell_length_a	19.121063
_cell_length_b	12.594517
_cell_length_c	12.594509
_cell_angle_alpha	90.021327
_cell_angle_beta	92.405810
_cell_angle_gamma	87.531195
loop_
_atom_site_label
_atom_site_type_symbol
_atom_site_fract_x
_atom_site_fract_y
_atom_site_fract_z
Zn1	Zn	-0.279596	-1.609106	-0.619881
Zn2	Zn	0.220404	-1.109106	-0.119881
Zn3	Zn	-0.397059	-1.601367	-0.449473
Zn4	Zn	0.102941	-1.101367	0.050527
Zn5	Zn	-0.279626	-1.431108	-0.441911
Zn6	Zn	0.220374	-0.931108	0.058089
Zn7	Zn	-0.397010	-1.423466	-0.627400
Zn8	Zn	0.102990	-0.923466	-0.127400
O9	O	-0.338323	-1.516262	-0.534666
O10	O	0.161677	-1.016262	-0.034666
O11	O	-0.295185	-1.757025	-0.597293
O12	O	0.204815	-1.257025	-0.097293
O13	O	-0.381514	-1.578742	-0.299526
O14	O	0.118486	-1.078742	0.200474
O15	O	-0.181338	-1.461157	-0.459208
O16	O	0.318662	-0.961157	0.040792
O17	O	-0.381485	-1.751339	-0.472096
O18	O	0.118515	-1.251339	0.027904
O19	O	-0.181315	-1.591931	-0.589961
O20	O	0.318685	-1.091931	-0.089961
O21	O	-0.295237	-1.453653	-0.293971
O22	O	0.204763	-0.953653	0.206029
O23	O	-0.295189	-1.281149	-0.466499
O24	O	0.204811	-0.781149	0.033501
O25	O	-0.381402	-1.448132	-0.775346
O26	O	0.118598	-0.948132	-0.275346
O27	O	-0.381431	-1.275534	-0.602777
O28	O	0.118569	-0.775534	-0.102777
O29	O	-0.295138	-1.584521	-0.769822
O30	O	0.204862	-1.084521	-0.269822
O31	O	-0.495337	-1.571331	-0.479386
O32	O	0.004663	-1.071331	0.020614
O33	O	-0.495301	-1.440628	-0.610109
O34	O	0.004699	-0.940628	-0.110109
C35	C	-0.338309	-1.239722	-0.534634
C36	C	0.161691	-0.739722	-0.034634
C37	C	-0.338319	-1.121416	-0.534646
C38	C	0.161681	-0.621416	-0.034646
C39	C	-0.520803	-1.504339	-0.546407
C40	C	-0.020803	-1.004339	-0.046407
C41	C	-0.598868	-1.499336	-0.551466
C42	C	-0.098868	-0.999336	-0.051466
C43	C	-0.338261	-1.516337	-0.812283
C44	C	0.161739	-1.016337	-0.312283
C45	C	-0.338235	-1.516369	-0.930587
C46	C	0.161765	-1.016369	-0.430587
C47	C	-0.635539	-1.565089	-0.485838
C48	C	-0.135539	-1.065089	0.014162
C49	C	-0.708890	-1.560390	-0.490602
C50	C	-0.208890	-1.060390	0.009398
C51	C	-0.745569	-1.489932	-0.560988
C52	C	-0.245569	-0.989932	-0.060988
C53	C	-0.708893	-1.424176	-0.626623
C54	C	-0.208893	-0.924176	-0.126623
C55	C	-0.635544	-1.428881	-0.621864
C56	C	-0.135544	-0.928881	-0.121864
C57	C	-0.967038	-1.472323	-0.578765
C58	C	-0.467038	-0.972323	-0.078765
C59	C	-1.040393	-1.467620	-0.583517
C60	C	-0.540393	-0.967620	-0.083517
C61	C	-1.040385	-1.603835	-0.447497
C62	C	-0.540385	-1.103835	0.052503
C63	C	-0.967034	-1.608530	-0.442740
C64	C	-0.467034	-1.108530	0.057260
C65	C	-0.930365	-1.542779	-0.508378
C66	C	-0.430365	-1.042779	-0.008378
C67	C	-0.820546	-1.485124	-0.565857
C68	C	-0.320546	-0.985124	-0.065857
C69	C	-0.855389	-1.547592	-0.503514
C70	C	-0.355389	-1.047592	-0.003514
C71	C	-0.155130	-1.528260	-0.522903
C72	C	0.344870	-1.028260	-0.022903
C73	C	-0.077064	-1.533373	-0.517890
C74	C	0.422936	-1.033373	-0.017890
C75	C	-0.338337	-1.793882	-0.534699
C76	C	0.161663	-1.293882	-0.034699
C77	C	-0.338343	-1.912187	-0.534713
C78	C	0.161657	-1.412187	-0.034713
C79	C	-0.291349	-1.055190	-0.460657
C80	C	0.208651	-0.555190	0.039343
C81	C	-0.355414	-0.980217	-0.438606
C82	C	0.144586	-0.480217	0.061394
C83	C	-0.274285	-0.985587	-0.556717
C84	C	0.225715	-0.485587	-0.056717
C85	C	-0.402419	-1.047999	-0.512547
C86	C	0.097581	-0.547999	-0.012547
C87	C	-0.321246	-1.053378	-0.630701
C88	C	0.178754	-0.553378	-0.130701
C89	C	-0.385356	-0.978435	-0.608690
C90	C	0.114644	-0.478435	-0.108690
C91	C	-0.385127	-1.442211	-1.002843
C92	C	0.114873	-0.942211	-0.502843
C93	C	-0.402288	-1.538217	-1.074740
C94	C	0.097712	-1.038217	-0.574740
C95	C	-0.321032	-1.420442	-1.069487
C96	C	0.178968	-0.920442	-0.569487
C97	C	-0.355429	-1.612424	-1.000927
C98	C	0.144571	-1.112424	-0.500927
C99	C	-0.274143	-1.494585	-0.995667
C100	C	0.225857	-0.994585	-0.495667
C101	C	-0.291280	-1.590659	-1.067530
C102	C	0.208720	-1.090659	-0.567530
C103	C	-0.338333	-1.516251	-0.258126
C104	C	0.161667	-1.016251	0.241874
C105	C	-0.338162	-1.516438	-0.139810
C106	C	0.161838	-1.016438	0.360190
H107	H	-0.605680	-1.622458	-0.428518
H108	H	-0.105680	-1.122458	0.071482
H109	H	-0.456598	-1.075422	-0.493817
H110	H	0.043402	-0.575422	0.006183
Br111	Br	-0.379510	-0.926717	-0.303266
Br112	Br	0.120490	-0.426717	0.196734
H113	H	-0.456457	-1.556680	-1.109336
H114	H	0.043543	-1.056680	-0.609336
H115	H	-1.070249	-1.657368	-0.394060
H116	H	-0.570249	-1.157368	0.105940
Br117	Br	-0.451651	-0.922746	-0.713035
Br118	Br	0.048349	-0.422746	-0.213035
Br119	Br	-0.184013	-0.939650	-0.587783
Br120	Br	0.315987	-0.439650	-0.087783
H121	H	-0.937188	-1.418783	-0.632208
H122	H	-0.437188	-0.918783	-0.132208
H123	H	-0.306771	-1.085502	-0.711878
H124	H	0.193229	-0.585502	-0.211878
Br125	Br	-0.451320	-1.337755	-0.955340
Br126	Br	0.048680	-0.837755	-0.455340
Br127	Br	-0.379740	-1.747717	-0.950903
Br128	Br	0.120260	-1.247717	-0.450903
H129	H	-0.850418	-1.427755	-0.623164
H130	H	-0.350418	-0.927755	-0.123164
H131	H	-0.306512	-1.339288	-1.099641
H132	H	0.193488	-0.839288	-0.599641
H133	H	-0.738745	-1.613932	-0.437161
H134	H	-0.238745	-1.113932	0.062839
Br135	Br	-0.917260	-1.704169	-0.347226
Br136	Br	-0.417260	-1.204169	0.152774
Br137	Br	-0.758671	-1.328562	-0.722157
Br138	Br	-0.258671	-0.828562	-0.222157
Br139	Br	-1.090172	-1.371974	-0.679029
Br140	Br	-0.590172	-0.871974	-0.179029
Br141	Br	-0.585775	-1.339649	-0.710939
Br142	Br	-0.085775	-0.839649	-0.210939
H143	H	-0.825523	-1.604963	-0.446209
H144	H	-0.325523	-1.104963	0.053791
H145	H	-0.251666	-1.088788	-0.398014
H146	H	0.248334	-0.588788	0.101986
H147	H	-0.251593	-1.653471	-1.095834
H148	H	0.248407	-1.153471	-0.595834
H149	H	-0.219990	-1.476092	-0.961048
H150	H	0.280010	-0.976092	-0.461048
