data_functionalizedCrystal
_audit_creation_method	'MofGen! by Chris Wilmer'
_symmetry_space_group_name_H-M	'P1'
_symmetry_Int_Tables_number	1
_symmetry_cell_setting	triclinic
loop_
_symmetry_equiv_pos_as_xyz
  x,y,z
_cell_length_a	6.817900
_cell_length_b	10.992421
_cell_length_c	10.992709
_cell_angle_alpha	91.821350
_cell_angle_beta	108.769842
_cell_angle_gamma	108.764763
loop_
_atom_site_label
_atom_site_type_symbol
_atom_site_fract_x
_atom_site_fract_y
_atom_site_fract_z
V1	V	-4.114273	-0.177698	-0.400567
O2	O	-4.072400	0.008604	-0.392960
O3	O	-4.091851	-0.352407	-0.397810
O4	O	-4.091875	-0.174936	-0.575276
O5	O	-4.072376	-0.170096	-0.214265
V6	V	-4.591165	-0.155418	-0.378286
O7	O	-4.390076	-0.226572	-0.449443
O8	O	-4.765559	-0.106543	-0.329411
O9	O	-4.390380	0.019292	-0.381043
O10	O	-4.750434	-0.341719	-0.385893
O11	O	-4.750459	-0.163020	-0.564588
O12	O	-4.390356	-0.158179	-0.203577
C13	C	-3.942330	-0.394999	-0.391486
C14	C	-4.005458	-0.537826	-0.390396
C15	C	-3.942360	-0.168615	-0.617861
C16	C	-4.005503	-0.167513	-0.760686
C17	C	-4.251991	-0.174856	-0.822996
C18	C	-4.318017	-0.174244	-0.971641
C19	C	-4.047907	-0.285143	-0.979406
C20	C	-3.983726	-0.286403	-0.830864
C21	C	-3.853558	-0.040830	-0.792390
C22	C	-3.922573	-0.038252	-0.940906
C23	C	-3.873122	-0.733114	-0.381610
C24	C	-3.807040	-0.584470	-0.382235
C25	C	-4.076060	-0.576480	-0.270583
C26	C	-4.140296	-0.725023	-0.269314
C27	C	-4.271816	-0.763566	-0.514925
C28	C	-4.202763	-0.615052	-0.517525
C29	C	-4.203243	0.061876	-0.387364
C30	C	-4.119354	0.204702	-0.388462
C31	C	-4.203213	-0.164505	-0.160986
C32	C	-4.119307	-0.165600	-0.018159
H33	H	-4.375701	-0.088837	-0.997492
H34	H	-4.221692	-0.546244	-0.271965
H35	H	-4.352545	-0.584843	-0.530905
H36	H	-3.749922	-0.558692	-0.467846
H37	H	-4.265484	-0.813069	-0.605585
C38	C	-3.837655	-0.796790	-0.495762
N39	N	-3.810736	-0.845114	-0.581461
H40	H	-3.935465	-0.522257	-0.176466
C41	C	-4.287703	-0.060197	-0.760399
N42	N	-4.314597	0.026167	-0.713240
H43	H	-3.757323	-0.753688	-0.290409
C44	C	-4.407952	-0.298333	-0.795301
N45	N	-4.525420	-0.391352	-0.774462
H46	H	-4.451666	-0.804682	-0.521205
H47	H	-4.029489	-0.742552	-0.174185
C48	C	-4.237269	-0.412500	-1.052674
N49	N	-4.379907	-0.508423	-1.107856
C50	C	-4.518450	-0.297750	-1.042503
N51	N	-4.669454	-0.390766	-1.095875
C52	C	-4.132890	-0.415117	-0.807203
N53	N	-4.245254	-0.512066	-0.789388
C54	C	-3.745379	-0.286169	-0.775502
N55	N	-3.565865	-0.285999	-0.733811
H56	H	-3.658354	-0.532042	-0.290958
H57	H	-3.860491	0.049659	-0.742944
C58	C	-4.136578	-0.582752	-0.637281
N59	N	-4.086720	-0.558414	-0.727480
C60	C	-3.850845	-0.282802	-1.020128
N61	N	-3.702417	-0.281035	-1.050801
H62	H	-3.772616	-0.024524	-0.971022
H63	H	-3.972161	0.050194	-0.964885
C64	C	-4.378339	-0.780256	-0.269045
N65	N	-4.557622	-0.821849	-0.268831
H66	H	-3.673528	-0.034197	-0.751195
