data_functionalizedCrystal
_audit_creation_method	'MofGen! by Chris Wilmer'
_symmetry_space_group_name_H-M	'P1'
_symmetry_Int_Tables_number	1
_symmetry_cell_setting	triclinic
loop_
_symmetry_equiv_pos_as_xyz
  x,y,z
_cell_length_a	11.169417
_cell_length_b	15.299816
_cell_length_c	15.296720
_cell_angle_alpha	110.757046
_cell_angle_beta	99.664670
_cell_angle_gamma	80.351466
loop_
_atom_site_label
_atom_site_type_symbol
_atom_site_fract_x
_atom_site_fract_y
_atom_site_fract_z
Zn1	Zn	1.805061	-0.461065	-0.589862
Zn2	Zn	1.864143	-0.589654	-0.461287
Zn3	Zn	1.633996	-0.434204	-0.434381
Zn4	Zn	1.633897	-0.616496	-0.616751
O5	O	1.734275	-0.525355	-0.525570
O6	O	1.980849	-0.478131	-0.572814
O7	O	1.858381	-0.546559	-0.327587
O8	O	1.632004	-0.307663	-0.432493
O9	O	2.024256	-0.572605	-0.478350
O10	O	1.757685	-0.327398	-0.546724
O11	O	1.689293	-0.432350	-0.307819
O12	O	1.466033	-0.458378	-0.458566
O13	O	1.631835	-0.618352	-0.743315
O14	O	1.465961	-0.592306	-0.592552
O15	O	1.757589	-0.504158	-0.723560
O16	O	1.858285	-0.723319	-0.504423
O17	O	1.689124	-0.743039	-0.618641
C18	C	1.422450	-0.525341	-0.525558
C19	C	1.289049	-0.525361	-0.525578
C20	C	1.780134	-0.766917	-0.567390
C21	C	1.799856	-0.870264	-0.585311
C22	C	1.594041	-1.120757	-0.397798
C23	C	1.575504	-1.023658	-0.380962
C24	C	1.631591	-0.985305	-0.432047
C25	C	1.706217	-1.044060	-0.499973
C26	C	1.724748	-1.141169	-0.516815
C27	C	1.762298	-1.005717	-0.551065
C28	C	1.836924	-1.064472	-0.618990
C29	C	1.855453	-1.161572	-0.635829
C30	C	1.799366	-1.199925	-0.584744
C31	C	1.743767	-0.908607	-0.534222
C32	C	1.874474	-0.929020	-0.653240
C33	C	1.893011	-1.026119	-0.670076
C34	C	2.047317	-0.525370	-0.525584
C35	C	2.180717	-0.525377	-0.525590
C36	C	1.688111	-0.567246	-0.768123
C37	C	1.668438	-0.585097	-0.871484
C38	C	1.688265	-0.282853	-0.483608
C39	C	1.668659	-0.179513	-0.465726
C40	C	1.874889	-0.397606	-1.121702
C41	C	1.893380	-0.380835	-1.024590
C42	C	1.837146	-0.431899	-0.986308
C43	C	1.762418	-0.499737	-1.045149
C44	C	1.743933	-0.516514	-1.142273
C45	C	1.706190	-0.550807	-1.006879
C46	C	1.631462	-0.618645	-1.065720
C47	C	1.612980	-0.635419	-1.162833
C48	C	1.669214	-0.584355	-1.201115
C49	C	1.724675	-0.534030	-0.909755
C50	C	1.593719	-0.652938	-0.930326
C51	C	1.575228	-0.669709	-1.027438
C52	C	1.780315	-0.483560	-0.283950
C53	C	1.800170	-0.465447	-0.180544
H54	H	1.616495	-0.906241	-0.418334
C55	C	1.707222	-1.343167	-0.632500
C56	C	1.819731	-1.306662	-0.603251
H57	H	1.719794	-1.409063	-0.643929
H58	H	1.654774	-1.313658	-0.584733
H59	H	1.670807	-1.331550	-0.688687
H60	H	1.856142	-1.318273	-0.547060
H61	H	1.872198	-1.336181	-0.651023
C62	C	1.540933	-0.832303	-1.084581
C63	C	1.493096	-0.744281	-1.092122
H64	H	1.490222	-0.878338	-1.124510
H65	H	1.621112	-0.848658	-1.102857
H66	H	1.543886	-0.829612	-1.021261
H67	H	1.490151	-0.746971	-1.155441
H68	H	1.412895	-0.727924	-1.073851
H69	H	1.514743	-0.975823	-0.325659
C70	C	1.982814	-1.171991	-0.751767
C71	C	1.937488	-1.226157	-0.710489
H72	H	2.033468	-1.211862	-0.797852
H73	H	1.916505	-1.140283	-0.780747
H74	H	2.029228	-1.127102	-0.704695
H75	H	1.891066	-1.271041	-0.757560
H76	H	2.003807	-1.257880	-0.681509
C77	C	1.934917	-0.343128	-0.835995
C78	C	1.857458	-0.413458	-0.879559
H79	H	1.947447	-0.331736	-0.770089
H80	H	2.011227	-0.363014	-0.860745
H81	H	1.898595	-0.286930	-0.847596
H82	H	1.893784	-0.469657	-0.867964
H83	H	1.781134	-0.393575	-0.854800
C84	C	2.063834	-0.357513	-1.143788
C85	C	1.936701	-0.341485	-1.163782
H86	H	2.101996	-0.322868	-1.169772
H87	H	2.085525	-0.337806	-1.077535
H88	H	2.090200	-0.422735	-1.170514
H89	H	1.910334	-0.276264	-1.137050
H90	H	1.915001	-0.361187	-1.230049
C91	C	1.563893	-0.680015	-0.790587
C92	C	1.531895	-0.709071	-0.888257
H93	H	1.525724	-0.714664	-0.764613
H94	H	1.650132	-0.690880	-0.777035
H95	H	1.537502	-0.614795	-0.763875
H96	H	1.558294	-0.774289	-0.914970
H97	H	1.445637	-0.698213	-0.901816
C98	C	2.005531	-0.958951	-0.772586
C99	C	1.936131	-0.886874	-0.709401
H100	H	2.043582	-0.932926	-0.807259
H101	H	2.066411	-0.989816	-0.738668
H102	H	1.953659	-1.002985	-0.814693
H103	H	1.988005	-0.842843	-0.667290
H104	H	1.875243	-0.855993	-0.743322
H105	H	1.548377	-1.151995	-0.356216
C106	C	1.927636	-0.218245	-0.967485
C107	C	1.975501	-0.306256	-0.959926
H108	H	1.978332	-0.172197	-0.927562
H109	H	1.924673	-0.220947	-1.030801
H110	H	1.847448	-0.201899	-0.949203
H111	H	2.055687	-0.322605	-0.978215
H112	H	1.978479	-0.303556	-0.896596
C113	C	1.571432	-0.673123	-1.351434
C114	C	1.648889	-0.602793	-1.307867
H115	H	1.558882	-0.684498	-1.417337
H116	H	1.607755	-0.729319	-1.339849
H117	H	1.495118	-0.653239	-1.326670
H118	H	1.725206	-0.622679	-1.332626
H119	H	1.612568	-0.546585	-1.319459
C120	C	1.543558	-0.871032	-0.483639
C121	C	1.661746	-0.844031	-0.459559
H122	H	1.492924	-0.831167	-0.437537
H123	H	1.511011	-0.865885	-0.543337
H124	H	1.546587	-0.934355	-0.486359
H125	H	1.658719	-0.780711	-0.456846
H126	H	1.694301	-0.849169	-0.399845
C127	C	1.578693	-0.798012	-1.219952
C128	C	1.530848	-0.709997	-1.227506
H129	H	1.527983	-0.844052	-1.259871
H130	H	1.658871	-0.814368	-1.238232
H131	H	1.581653	-0.795310	-1.156628
H132	H	1.527897	-0.712697	-1.290829
H133	H	1.450649	-0.693638	-1.209231
H134	H	1.953772	-1.073971	-0.725382
H135	H	1.785518	-0.478795	-0.861856
