data_functionalizedCrystal
_audit_creation_method	'MofGen! by Chris Wilmer'
_symmetry_space_group_name_H-M	'P1'
_symmetry_Int_Tables_number	1
_symmetry_cell_setting	triclinic
loop_
_symmetry_equiv_pos_as_xyz
  x,y,z
_cell_length_a	18.215407
_cell_length_b	16.959453
_cell_length_c	18.215399
_cell_angle_alpha	90.028024
_cell_angle_beta	90.017368
_cell_angle_gamma	90.017431
loop_
_atom_site_label
_atom_site_type_symbol
_atom_site_fract_x
_atom_site_fract_y
_atom_site_fract_z
Zn1	Zn	1.125097	-0.314744	0.416067
Zn2	Zn	1.125016	-0.446929	0.293001
Zn3	Zn	1.002030	-0.314763	0.293020
Zn4	Zn	1.002006	-0.446878	0.416031
O5	O	1.063537	-0.380828	0.354530
O6	O	1.228070	-0.332292	0.399749
O7	O	1.108677	-0.429426	0.190019
O8	O	1.018398	-0.204149	0.309365
O9	O	1.228011	-0.429408	0.309333
O10	O	1.108816	-0.204135	0.399768
O11	O	1.018320	-0.332324	0.190033
O12	O	0.899042	-0.332275	0.309330
O13	O	1.018358	-0.429321	0.519020
O14	O	0.899025	-0.429339	0.399706
O15	O	1.108793	-0.332242	0.519047
O16	O	1.108655	-0.557533	0.309298
O17	O	1.018280	-0.557496	0.399687
C18	C	0.872331	-0.380804	0.354517
C19	C	0.790532	-0.380813	0.354529
C20	C	0.602368	-0.330348	0.401683
C21	C	0.525509	-0.330355	0.401685
C22	C	0.525458	-0.431330	0.307389
C23	C	0.602315	-0.431319	0.307384
C24	C	0.640768	-0.380829	0.354535
C25	C	0.487052	-0.380847	0.354543
C26	C	0.403719	-0.380855	0.354545
C27	C	0.724107	-0.380820	0.354531
C28	C	1.063476	-0.586195	0.354503
C29	C	1.063517	-0.674051	0.354516
C30	C	1.110678	-1.045461	0.401691
C31	C	1.016602	-1.045592	0.307478
C32	C	1.016575	-0.963047	0.307461
C33	C	1.063599	-0.921704	0.354560
C34	C	1.110650	-0.962907	0.401677
C35	C	0.969519	-0.921837	0.260350
C36	C	0.969489	-0.839286	0.260332
C37	C	1.016518	-0.797942	0.307429
C38	C	1.063571	-0.839151	0.354546
C39	C	1.110595	-0.797808	0.401646
C40	C	1.157653	-0.839015	0.448761
C41	C	1.157678	-0.921563	0.448774
C42	C	1.016493	-0.715394	0.307416
C43	C	1.110568	-0.715255	0.401632
C44	C	1.255490	-0.380853	0.354543
C45	C	1.337289	-0.380864	0.354549
C46	C	1.063582	-0.380774	0.546483
C47	C	1.063601	-0.380751	0.628281
C48	C	1.063619	-0.174660	0.354573
C49	C	1.063654	-0.086803	0.354591
C50	C	1.063535	-0.380826	0.163323
C51	C	1.063658	-0.380626	0.081525
C52	C	1.110707	-0.330154	0.816491
C53	C	1.110716	-0.330131	0.893349
C54	C	1.016547	-0.431224	0.893310
C55	C	1.016535	-0.431243	0.816453
C56	C	1.063619	-0.380709	0.778045
C57	C	1.063640	-0.380668	0.931761
C58	C	1.063649	-0.380643	1.015095
C59	C	1.063609	-0.380732	0.694706
H60	H	0.633582	-0.472427	0.268986
H61	H	0.978185	-0.472410	0.785150
H62	H	1.149044	-0.289004	0.785221
H63	H	0.494140	-0.472438	0.269001
H64	H	1.149058	-0.288963	0.924648
H65	H	0.978214	-0.472369	0.924591
H66	H	1.148864	-0.681598	0.439984
H67	H	1.195938	-0.805344	0.487113
N68	N	1.208429	-0.966006	0.499587
H69	H	1.201307	-1.024573	0.492451
H70	H	1.196939	-0.951546	0.552134
H71	H	0.633674	-0.289234	0.440074
H72	H	0.978175	-0.681847	0.269059
H73	H	0.494247	-0.289247	0.440077
H74	H	1.148993	-1.079015	0.440049
H75	H	0.931233	-0.955504	0.222006
N76	N	0.965889	-1.090178	0.256676
H77	H	0.931778	-1.124432	0.286556
H78	H	0.995887	-1.124385	0.222619
N79	N	0.918742	-0.794844	0.209515
H80	H	0.888958	-0.833562	0.179680
H81	H	0.948712	-0.760603	0.175478
