data_functionalizedCrystal
_audit_creation_method	'MofGen! by Chris Wilmer'
_symmetry_space_group_name_H-M	'P1'
_symmetry_Int_Tables_number	1
_symmetry_cell_setting	triclinic
loop_
_symmetry_equiv_pos_as_xyz
  x,y,z
_cell_length_a	11.026607
_cell_length_b	10.868271
_cell_length_c	10.967829
_cell_angle_alpha	102.133011
_cell_angle_beta	96.380563
_cell_angle_gamma	90.003487
loop_
_atom_site_label
_atom_site_type_symbol
_atom_site_fract_x
_atom_site_fract_y
_atom_site_fract_z
O1	O	1.614528	0.213326	0.523517
O2	O	2.114528	0.713326	1.023517
O3	O	1.260725	0.200688	0.463904
O4	O	1.760725	0.700688	0.963904
O5	O	1.445785	0.168874	0.313892
O6	O	1.945785	0.668874	0.813892
O7	O	1.429468	0.245140	0.673529
O8	O	1.929468	0.745140	1.173529
O9	O	1.445770	-0.035773	0.313881
O10	O	1.945770	0.464227	0.813881
O11	O	1.260709	-0.003959	0.463893
O12	O	1.760709	0.496041	0.963893
O13	O	1.614513	0.008679	0.523506
O14	O	2.114513	0.508679	1.023506
Zn15	Zn	1.437609	-0.030132	0.493698
Zn16	Zn	1.937609	0.469868	0.993698
Zn17	Zn	1.437629	0.239499	0.493712
Zn18	Zn	1.937629	0.739499	0.993712
O19	O	1.429452	0.040493	0.673518
O20	O	1.929452	0.540493	1.173518
C21	C	1.215415	0.096033	0.452901
C22	C	1.715415	0.596033	0.952901
C23	C	1.080427	0.089082	0.420117
C24	C	1.580427	0.589082	0.920117
N25	N	1.437604	-0.214148	0.493689
N26	N	1.937604	0.285852	0.993689
C27	C	1.007376	0.108279	0.510639
C28	C	1.507376	0.608279	1.010639
C29	C	0.867860	0.101096	0.476758
C30	C	1.367860	0.601096	0.976758
C31	C	1.437622	-0.465150	0.493708
C32	C	1.937622	0.034850	0.993708
C33	C	1.437608	-0.325474	0.493700
C34	C	1.937608	0.174526	0.993700
C35	C	1.659823	0.113337	0.534509
C36	C	2.159823	0.613337	1.034509
C37	C	1.794810	0.120296	0.567293
C38	C	2.294810	0.620296	1.067293
C39	C	1.444589	0.056637	0.267130
C40	C	1.944589	0.556637	0.767130
C41	C	1.441033	0.027100	0.127806
C42	C	1.941033	0.527100	0.627806
N43	N	1.437643	0.423513	0.493713
N44	N	1.937643	0.923513	0.993713
C45	C	1.439456	0.119945	0.065703
C46	C	1.939456	0.619945	0.565703
C47	C	1.435781	0.089419	-0.078296
C48	C	1.935781	0.589419	0.421704
C49	C	1.430649	0.152732	0.720280
C50	C	1.930649	0.652732	1.220280
C51	C	1.434204	0.182278	0.859604
C52	C	1.934204	0.682278	1.359604
H53	H	0.827118	0.079372	0.374168
H54	H	1.327118	0.579372	0.874168
C55	C	1.025400	0.059693	0.281533
C56	C	1.525400	0.559693	0.781533
H57	H	1.089324	0.048572	0.229134
H58	H	1.589324	0.548572	0.729134
H59	H	0.976474	0.127545	0.264983
H60	H	1.476474	0.627545	0.764983
H61	H	0.976471	-0.015193	0.264980
H62	H	1.476471	0.484807	0.764980
C63	C	1.441309	0.257860	0.137880
C64	C	1.941309	0.757860	0.637880
H65	H	1.443545	0.260284	0.225196
H66	H	1.943545	0.760284	0.725196
H67	H	1.369995	0.297840	0.110109
H68	H	1.869995	0.797840	0.610109
H69	H	1.511552	0.300537	0.122876
H70	H	2.011552	0.800537	0.622876
H71	H	1.434403	-0.012676	-0.131729
H72	H	1.934403	0.487324	0.368271
C73	C	1.439178	-0.110817	0.055634
C74	C	1.939178	0.389183	0.555634
H75	H	1.440635	-0.165109	0.113269
H76	H	1.940635	0.334891	0.613269
H77	H	1.508645	-0.124868	0.010939
H78	H	2.008645	0.375132	0.510939
H79	H	1.367088	-0.127566	-0.001818
H80	H	1.867088	0.372434	0.498182
C81	C	1.062409	0.137669	0.649221
C82	C	1.562409	0.637669	1.149221
H83	H	1.148961	0.138650	0.653813
H84	H	1.648961	0.638650	1.153813
H85	H	1.036108	0.074886	0.689673
H86	H	1.536108	0.574886	1.189673
H87	H	1.036121	0.217623	0.689671
H88	H	1.536121	0.717623	1.189671
H89	H	0.835550	0.142043	0.669882
H90	H	1.335550	0.642043	1.169882
C91	C	1.436064	0.320200	-0.068226
C92	C	1.936064	0.820200	0.431774
H93	H	1.438302	0.322628	0.019091
H94	H	1.938302	0.822628	0.519091
H95	H	1.364753	0.360185	-0.095995
H96	H	1.864753	0.860185	0.404005
H97	H	1.506310	0.362871	-0.083233
H98	H	2.006310	0.862871	0.416767
