data_functionalizedCrystal
_audit_creation_method	'MofGen! by Chris Wilmer'
_symmetry_space_group_name_H-M	'P1'
_symmetry_Int_Tables_number	1
_symmetry_cell_setting	triclinic
loop_
_symmetry_equiv_pos_as_xyz
  x,y,z
_cell_length_a	27.732048
_cell_length_b	11.792241
_cell_length_c	10.268362
_cell_angle_alpha	89.994572
_cell_angle_beta	90.000911
_cell_angle_gamma	83.418035
loop_
_atom_site_label
_atom_site_type_symbol
_atom_site_fract_x
_atom_site_fract_y
_atom_site_fract_z
O1	O	0.641711	0.135041	-0.108133
O2	O	0.501036	0.155574	-0.108173
O3	O	0.574787	-0.019972	-0.108143
O4	O	0.567960	0.310587	-0.108163
O5	O	0.574781	-0.019979	0.108458
O6	O	0.501030	0.155567	0.108428
O7	O	0.641704	0.135034	0.108467
Cu8	Cu	0.571366	0.145300	0.128225
Cu9	Cu	0.571374	0.145308	-0.127930
O10	O	0.567953	0.310580	0.108438
C11	C	0.483024	0.155140	0.000123
C12	C	0.429361	0.153842	0.000108
C13	C	0.574355	-0.062253	0.000157
C14	C	0.573071	-0.188226	0.000155
C15	C	0.570711	-0.418862	0.000133
C16	C	0.572023	-0.290519	0.000145
C17	C	0.091101	0.249407	0.000158
C18	C	-0.110587	0.244592	0.000170
O19	O	-0.141335	0.331980	0.000221
N20	N	-0.130315	0.140500	0.000174
C21	C	-0.099617	0.037605	0.000184
O22	O	-0.121024	-0.051042	0.000201
C23	C	0.102070	0.042422	0.000181
C24	C	0.121794	0.146520	0.000164
C25	C	0.110826	0.353497	0.000143
C26	C	0.161245	0.354700	0.000133
C27	C	0.191939	0.251813	0.000138
C28	C	0.172213	0.147723	0.000154
C29	C	0.132766	-0.060472	0.000200
C30	C	0.183191	-0.059259	0.000203
C31	C	0.202915	0.044840	0.000186
C32	C	0.253326	0.046038	0.000150
N33	N	0.273054	0.150130	0.000146
C34	C	0.242360	0.253017	0.000140
C35	C	-0.205506	0.035084	0.000183
C36	C	-0.255927	0.033879	0.000181
C37	C	-0.266894	0.240866	0.000170
C38	C	-0.216471	0.242070	0.000162
C39	C	-0.185778	0.139175	0.000179
C40	C	0.348244	0.255535	0.000118
C41	C	0.398668	0.256729	0.000102
C42	C	0.409630	0.049742	0.000120
C43	C	0.359210	0.048548	0.000129
C44	C	0.328518	0.151454	0.000132
O45	O	0.284103	-0.041303	0.000113
O46	O	0.263777	0.341651	0.000152
C47	C	0.040682	0.248205	0.000169
C48	C	0.020957	0.144115	0.000184
C49	C	0.051650	0.041227	0.000190
C50	C	-0.029465	0.142910	0.000183
C51	C	-0.060159	0.245797	0.000177
C52	C	-0.040431	0.349889	0.000173
C53	C	0.009988	0.351092	0.000163
C54	C	0.031923	-0.062864	0.000194
C55	C	-0.018497	-0.064058	0.000203
C56	C	-0.049191	0.038829	0.000197
C57	C	0.659717	0.135469	0.000169
C58	C	0.713379	0.136766	0.000175
C59	C	0.568385	0.352861	0.000135
C60	C	0.569669	0.478834	0.000128
N61	N	0.571365	0.145293	0.308391
N62	N	0.571380	0.145306	-0.308096
C63	C	0.571372	0.145306	0.574062
C64	C	0.571366	0.145302	0.426224
H65	H	0.414724	0.341502	0.000087
H66	H	-0.200415	0.326836	0.000156
O67	O	-0.296783	0.340709	0.000225
C68	C	-0.345514	0.317310	0.000192
H69	H	-0.347681	0.228196	0.041194
H70	H	-0.360084	0.321882	-0.103722
C71	C	-0.373476	0.515405	0.034781
C72	C	-0.376137	0.405957	0.085151
H73	H	-0.392367	0.570088	0.087183
H74	H	-0.340645	0.531171	0.034799
H75	H	-0.385617	0.519199	-0.051813
H76	H	-0.363991	0.402160	0.171737
H77	H	-0.408967	0.390192	0.085150
H78	H	0.056909	-0.146649	0.000202
O79	O	0.318503	0.355600	0.000054
C80	C	0.346734	0.447719	0.000067
H81	H	0.384283	0.418219	-0.040936
H82	H	0.350414	0.479672	0.103976
C83	C	0.275763	0.581261	-0.034532
C84	C	0.321879	0.545032	-0.084903
H85	H	0.260431	0.641292	-0.086940
H86	H	0.256743	0.519201	-0.034536
H87	H	0.278836	0.607881	0.052057
H88	H	0.318806	0.518400	-0.171484
H89	H	0.340899	0.607091	-0.084915
H90	H	0.116716	-0.145240	0.000215
H91	H	0.434629	-0.034026	0.000120
H92	H	0.177300	0.439467	0.000118
H93	H	0.208179	-0.143050	0.000217
H94	H	-0.034551	-0.148834	0.000206
O95	O	0.081083	0.453555	0.000075
C96	C	0.109316	0.545670	0.000096
H97	H	0.146865	0.516167	-0.040899
H98	H	0.112993	0.577622	0.104006
C99	C	0.038348	0.679219	-0.034517
C100	C	0.084465	0.642985	-0.084878
H101	H	0.023019	0.739251	-0.086928
H102	H	0.019327	0.617160	-0.034527
H103	H	0.041419	0.705838	0.052073
H104	H	0.081394	0.616354	-0.171461
H105	H	0.103486	0.705042	-0.084885
O106	O	-0.275005	-0.067342	0.000240
C107	C	-0.237095	-0.157886	0.000215
H108	H	-0.202763	-0.126679	0.041219
H109	H	-0.230046	-0.189576	-0.103697
C110	C	-0.293754	-0.294470	0.034806
C111	C	-0.251587	-0.256143	0.085177
H112	H	-0.302693	-0.355082	0.087209
H113	H	-0.319294	-0.233470	0.034818
H114	H	-0.287874	-0.320870	-0.051786
H115	H	-0.257469	-0.229730	0.171761
H116	H	-0.226047	-0.317141	0.085182
H117	H	-0.180519	-0.048710	0.000196
O118	O	0.340127	-0.052671	0.000186
C119	C	0.378033	-0.143222	0.000144
H120	H	0.412369	-0.112024	0.041138
H121	H	0.385076	-0.174908	-0.103772
C122	C	0.321370	-0.279794	0.034745
C123	C	0.363541	-0.241479	0.085105
H124	H	0.312431	-0.340406	0.087148
H125	H	0.295832	-0.218789	0.034769
H126	H	0.327245	-0.306190	-0.051850
H127	H	0.357664	-0.215070	0.171692
H128	H	0.389078	-0.302482	0.085098
O129	O	-0.070301	0.449761	-0.000006
C130	C	-0.099790	0.455268	-0.112196
H131	H	-0.102577	0.365233	-0.149594
H132	H	-0.083071	0.506817	-0.190752
C133	C	-0.147401	0.623854	-0.032180
C134	C	-0.150827	0.513270	-0.078106
H135	H	-0.178882	0.659637	-0.011155
H136	H	-0.127533	0.620148	0.043403
H137	H	-0.133467	0.666797	-0.097651
H138	H	-0.164755	0.470325	-0.012629
H139	H	-0.170699	0.516971	-0.153677
H140	H	0.026043	0.435859	0.000151
