data_functionalizedCrystal
_audit_creation_method	'MofGen! by Chris Wilmer'
_symmetry_space_group_name_H-M	'P1'
_symmetry_Int_Tables_number	1
_symmetry_cell_setting	triclinic
loop_
_symmetry_equiv_pos_as_xyz
  x,y,z
_cell_length_a	14.908783
_cell_length_b	16.120484
_cell_length_c	14.908308
_cell_angle_alpha	95.986071
_cell_angle_beta	89.788727
_cell_angle_gamma	96.375081
loop_
_atom_site_label
_atom_site_type_symbol
_atom_site_fract_x
_atom_site_fract_y
_atom_site_fract_z
Zn1	Zn	1.328321	-0.293306	-0.602922
Zn2	Zn	1.828321	0.206694	-0.102922
Zn3	Zn	1.329270	-0.425026	-0.459340
Zn4	Zn	1.829270	0.074974	0.040660
Zn5	Zn	1.186687	-0.292398	-0.443847
Zn6	Zn	1.686687	0.207602	0.056153
Zn7	Zn	1.169365	-0.441084	-0.601788
Zn8	Zn	1.669365	0.058916	-0.101788
O9	O	1.253411	-0.362954	-0.526974
O10	O	1.753411	0.137046	-0.026974
O11	O	1.454642	-0.304438	-0.590834
O12	O	1.954642	0.195562	-0.090834
O13	O	1.318002	-0.400333	-0.331096
O14	O	1.818002	0.099667	0.168904
O15	O	1.212327	-0.175168	-0.458939
O16	O	1.712327	0.324832	0.041061
O17	O	1.455339	-0.401213	-0.485345
O18	O	1.955339	0.098787	0.014655
O19	O	1.316385	-0.175834	-0.575811
O20	O	1.816385	0.324166	-0.075811
O21	O	1.213247	-0.302892	-0.319713
O22	O	1.713247	0.197108	0.180287
O23	O	1.058194	-0.318462	-0.457839
O24	O	1.558194	0.181538	0.042161
O25	O	1.182804	-0.428581	-0.728127
O26	O	1.682804	0.071419	-0.228127
O27	O	1.045468	-0.427701	-0.573878
O28	O	1.545468	0.072299	-0.073878
O29	O	1.299589	-0.320009	-0.728960
O30	O	1.799589	0.179991	-0.228960
O31	O	1.301206	-0.544507	-0.484246
O32	O	1.801206	-0.044507	0.015754
O33	O	1.183725	-0.556305	-0.588901
O34	O	1.683725	-0.056305	-0.088901
C35	C	1.019110	-0.374726	-0.514055
C36	C	1.519110	0.125274	-0.014055
C37	C	0.918872	-0.379784	-0.508551
C38	C	1.418872	0.120216	-0.008551
C39	C	0.729768	-0.288674	-0.608237
C40	C	1.229768	0.211326	-0.108237
C41	C	0.635586	-0.293423	-0.603068
C42	C	1.135586	0.206577	-0.103068
C43	C	0.636325	-0.394028	-0.493039
C44	C	1.136325	0.105972	0.006961
C45	C	0.730507	-0.389278	-0.498208
C46	C	1.230507	0.110722	0.001792
C47	C	0.777225	-0.336600	-0.555810
C48	C	1.277225	0.163400	-0.055810
C49	C	0.871409	-0.331856	-0.560983
C50	C	1.371409	0.168144	-0.060983
C51	C	0.872146	-0.432455	-0.450950
C52	C	1.372146	0.067545	0.049050
C53	C	0.777964	-0.437205	-0.445781
C54	C	1.277964	0.062795	0.054219
C55	C	1.240712	-0.580834	-0.538153
C56	C	1.740712	-0.080834	-0.038153
C57	C	1.235360	-0.674041	-0.542969
C58	C	1.735360	-0.174041	-0.042969
C59	C	1.225593	-0.844693	-0.551783
C60	C	1.725593	-0.344693	-0.051783
C61	C	1.281389	-0.880366	-0.502190
C62	C	1.781389	-0.380366	-0.002190
C63	C	1.275955	-0.975323	-0.507093
C64	C	1.775955	-0.475323	-0.007093
C65	C	1.231026	-0.749728	-0.546880
C66	C	1.731026	-0.249728	-0.046880
C67	C	1.488626	-0.351136	-0.539945
C68	C	1.988626	0.148864	-0.039945
C69	C	1.588861	-0.346099	-0.545472
C70	C	2.088861	0.153901	-0.045472
C71	C	1.239159	-0.376187	-0.762178
C72	C	1.739159	0.123813	-0.262178
C73	C	1.233085	-0.381827	-0.862408
C74	C	1.733085	0.118173	-0.362408
C75	C	1.266182	-0.144222	-0.515773
C76	C	1.766182	0.355778	-0.015773
C77	C	1.271625	-0.051012	-0.511000
C78	C	1.771625	0.448988	-0.011000
C79	C	1.343279	-0.279349	-1.051618
C80	C	1.843279	0.220651	-0.551618
C81	C	1.337575	-0.284644	-1.145793
C82	C	1.837575	0.215356	-0.645793
C83	C	1.215971	-0.397710	-1.144933
C84	C	1.715971	0.102290	-0.644933
C85	C	1.221675	-0.392414	-1.050758
C86	C	1.721675	0.107586	-0.550758
C87	C	1.285331	-0.333232	-1.004104
C88	C	1.785331	0.166768	-0.504104
C89	C	1.291039	-0.327941	-0.909928
C90	C	1.791039	0.172059	-0.409928
C91	C	1.169431	-0.441002	-0.909070
C92	C	1.669431	0.058998	-0.409070
C93	C	1.163727	-0.446297	-1.003245
C94	C	1.663727	0.053703	-0.503245
C95	C	1.267663	-0.349708	-0.292685
C96	C	1.767663	0.150292	0.207315
C97	C	1.273924	-0.343824	-0.192454
C98	C	1.773924	0.156176	0.307546
H99	H	0.909445	-0.288964	-0.607886
H100	H	1.409445	0.211036	-0.107886
C101	C	1.155541	-0.899774	-0.614103
C102	C	1.655541	-0.399774	-0.114103
N103	N	1.102775	-0.941270	-0.661037
N104	N	1.602775	-0.441270	-0.161037
C105	C	1.361059	-0.262838	-0.858610
C106	C	1.861059	0.237162	-0.358610
N107	N	1.413797	-0.213798	-0.819959
N108	N	1.913797	0.286202	-0.319959
H109	H	1.395115	-0.231164	-1.013632
H110	H	1.895115	0.268836	-0.513632
C111	C	0.924356	-0.485180	-0.393279
C112	C	1.424356	0.014820	0.106721
N113	N	0.963681	-0.524892	-0.349844
N114	N	1.463681	-0.024892	0.150156
C115	C	1.351430	-0.825285	-0.439848
C116	C	1.851430	-0.325285	0.060152
N117	N	1.404180	-0.783794	-0.392891
N118	N	1.904180	-0.283794	0.107109
C119	C	1.401324	-0.225370	-1.198055
C120	C	1.901324	0.274630	-0.698055
N121	N	1.449343	-0.180722	-1.237419
N122	N	1.949343	0.319278	-0.737419
H123	H	1.164145	-0.445892	-1.182935
H124	H	1.664145	0.054108	-0.682935
H125	H	1.122248	-0.484880	-0.870374
H126	H	1.622248	0.015120	-0.370374
C127	C	0.781160	-0.230733	-0.671602
C128	C	1.281160	0.269267	-0.171602
N129	N	0.819867	-0.187090	-0.719330
N130	N	1.319867	0.312910	-0.219330
C131	C	0.583387	-0.240703	-0.660744
C132	C	1.083387	0.259297	-0.160744
N133	N	0.544070	-0.200992	-0.704189
N134	N	1.044070	0.299008	-0.204189
C135	C	1.093702	-0.511388	-1.054574
C136	C	1.593702	-0.011388	-0.554574
N137	N	1.040958	-0.560415	-1.093235
N138	N	1.540958	-0.060415	-0.593235
H139	H	0.598272	-0.436905	-0.446132
H140	H	1.098272	0.063095	0.053868
H141	H	0.739913	-0.480091	-0.398881
H142	H	1.239913	0.019909	0.101119
