data_functionalizedCrystal
_audit_creation_method	'MofGen! by Chris Wilmer'
_symmetry_space_group_name_H-M	'P1'
_symmetry_Int_Tables_number	1
_symmetry_cell_setting	triclinic
loop_
_symmetry_equiv_pos_as_xyz
  x,y,z
_cell_length_a	9.065215
_cell_length_b	10.540539
_cell_length_c	8.140239
_cell_angle_alpha	89.998610
_cell_angle_beta	89.997810
_cell_angle_gamma	84.770094
loop_
_atom_site_label
_atom_site_type_symbol
_atom_site_fract_x
_atom_site_fract_y
_atom_site_fract_z
O1	O	1.959471	0.186126	-0.136586
O2	O	1.530109	0.201398	-0.136592
O3	O	1.754586	0.009092	-0.136587
O4	O	1.734994	0.378432	-0.136591
O5	O	1.754573	0.009089	0.136640
O6	O	1.530097	0.201396	0.136635
O7	O	1.959458	0.186123	0.136641
Zn8	Zn	1.744775	0.193759	0.180019
Zn9	Zn	1.744792	0.193762	-0.179970
O10	O	1.734982	0.378430	0.136636
C11	C	1.475123	0.199930	0.000020
C12	C	1.311302	0.195544	0.000017
C13	C	1.753110	-0.038218	0.000024
C14	C	1.748714	-0.179182	0.000015
C15	C	1.580280	-0.363230	-0.000601
C16	C	1.584736	-0.216596	0.000014
C17	C	1.827621	-0.240550	0.156042
C18	C	1.822025	-0.387115	0.156173
C19	C	1.825374	-0.387619	-0.154537
C20	C	1.826884	-0.240631	-0.156600
C21	C	2.014444	0.187592	0.000025
C22	C	2.178265	0.191978	0.000017
C23	C	1.736457	0.425740	0.000022
C24	C	1.740853	0.566704	0.000020
N25	N	1.744775	0.193756	0.425701
N26	N	1.744804	0.193755	-0.425652
H27	H	1.522648	-0.174221	-0.111833
O28	O	1.987128	-0.210341	0.163747
H29	H	2.060840	-0.300389	0.162041
O30	O	1.755004	-0.184398	0.309846
H31	H	1.811769	-0.228537	0.419334
H32	H	1.943815	-0.434408	-0.155584
O33	O	1.744761	-0.424774	0.310654
H34	H	1.630584	-0.376812	0.313377
H35	H	1.939955	-0.434649	0.163254
H36	H	1.522202	-0.175071	0.112045
H37	H	1.772308	-0.419366	-0.272795
O38	O	1.750529	-0.186690	-0.309511
H39	H	1.657298	-0.116401	-0.274134
H40	H	1.946437	-0.215969	-0.166020
H41	H	1.515510	-0.392068	-0.112491
O42	O	1.494811	-0.403531	0.146786
H43	H	1.566200	-0.473245	0.220482
