data_functionalizedCrystal
_audit_creation_method	'MofGen! by Chris Wilmer'
_symmetry_space_group_name_H-M	'P1'
_symmetry_Int_Tables_number	1
_symmetry_cell_setting	triclinic
loop_
_symmetry_equiv_pos_as_xyz
  x,y,z
_cell_length_a	16.959455
_cell_length_b	18.101397
_cell_length_c	16.959447
_cell_angle_alpha	89.969891
_cell_angle_beta	89.976455
_cell_angle_gamma	90.017485
loop_
_atom_site_label
_atom_site_type_symbol
_atom_site_fract_x
_atom_site_fract_y
_atom_site_fract_z
Zn1	Zn	1.208406	-0.294900	-0.447018
Zn2	Zn	1.708406	0.205100	0.052982
Zn3	Zn	1.208321	-0.418745	-0.314832
Zn4	Zn	1.708321	0.081255	0.185168
Zn5	Zn	1.076228	-0.294916	-0.314841
Zn6	Zn	1.576228	0.205084	0.185159
Zn7	Zn	1.076199	-0.418698	-0.446956
Zn8	Zn	1.576199	0.081302	0.053044
O9	O	1.142288	-0.356815	-0.380912
O10	O	1.642288	0.143185	0.119088
O11	O	1.319006	-0.311342	-0.429505
O12	O	1.819006	0.188658	0.070495
O13	O	1.190774	-0.402345	-0.204222
O14	O	1.690774	0.097655	0.295778
O15	O	1.093809	-0.191281	-0.332405
O16	O	1.593809	0.308719	0.167595
O17	O	1.318943	-0.402330	-0.332388
O18	O	1.818943	0.097670	0.167612
O19	O	1.190921	-0.191269	-0.429514
O20	O	1.690921	0.308731	0.070486
O21	O	1.093726	-0.311368	-0.204229
O22	O	1.593726	0.188632	0.295771
O23	O	0.965613	-0.311322	-0.332345
O24	O	1.465613	0.188678	0.167655
O25	O	1.093760	-0.402249	-0.557575
O26	O	1.593760	0.097751	-0.057575
O27	O	0.965592	-0.402264	-0.429409
O28	O	1.465592	0.097736	0.070591
O29	O	1.190893	-0.311295	-0.557621
O30	O	1.690893	0.188705	-0.057621
O31	O	1.190746	-0.522372	-0.332328
O32	O	1.690746	-0.022372	0.167672
O33	O	1.093677	-0.522337	-0.429400
O34	O	1.593677	-0.022337	0.070600
C35	C	0.936922	-0.356790	-0.380872
C36	C	1.436922	0.143210	0.119128
C37	C	0.849065	-0.356798	-0.380874
C38	C	1.349065	0.143202	0.119126
C39	C	1.142221	-0.549225	-0.380873
C40	C	1.642221	-0.049225	0.119127
C41	C	1.142264	-0.631539	-0.380884
C42	C	1.642264	-0.131539	0.119116
C43	C	0.477546	-0.404145	-0.330317
C44	C	0.977546	0.095855	0.169683
C45	C	0.477633	-0.309545	-0.431602
C46	C	0.977633	0.190455	0.068398
C47	C	0.560179	-0.309533	-0.431583
C48	C	1.060179	0.190467	0.068417
C49	C	0.601412	-0.356828	-0.380931
C50	C	1.101412	0.143172	0.119069
C51	C	0.560100	-0.404136	-0.330298
C52	C	1.060100	0.095864	0.169702
C53	C	0.601498	-0.262232	-0.482221
C54	C	1.101498	0.237768	0.017779
C55	C	0.684049	-0.262218	-0.482204
C56	C	1.184049	0.237782	0.017796
C57	C	0.725284	-0.309510	-0.431548
C58	C	1.225284	0.190490	0.068452
C59	C	0.683966	-0.356819	-0.380912
C60	C	1.183966	0.143181	0.119088
C61	C	0.725199	-0.404115	-0.330260
C62	C	1.225199	0.095885	0.169740
C63	C	0.683883	-0.451421	-0.279620
C64	C	1.183883	0.048579	0.220380
C65	C	0.601335	-0.451429	-0.279642
C66	C	1.101335	0.048571	0.220358
C67	C	0.807832	-0.309502	-0.431526
C68	C	1.307832	0.190498	0.068474
C69	C	0.807753	-0.404106	-0.330241
C70	C	1.307753	0.095894	0.169759
C71	C	1.142365	-0.930630	-0.380956
C72	C	1.642365	-0.430630	0.119044
C73	C	1.203268	-0.899296	-0.319717
C74	C	1.703268	-0.399296	0.180283
C75	C	1.203479	-0.813677	-0.319876
C76	C	1.703479	-0.313677	0.180124
C77	C	1.142315	-0.782248	-0.380919
C78	C	1.642315	-0.282248	0.119081
C79	C	1.164895	-0.813257	-0.464238
C80	C	1.664895	-0.313257	0.035762
C81	C	1.165366	-0.898902	-0.463904
C82	C	1.665366	-0.398902	0.036096
C83	C	1.058719	-0.899135	-0.359596
C84	C	1.558719	-0.399135	0.140404
C85	C	1.059133	-0.813485	-0.357737
C86	C	1.559133	-0.313485	0.142263
C87	C	1.142285	-0.698388	-0.380904
C88	C	1.642285	-0.198388	0.119096
C89	C	1.142397	-1.014490	-0.380977
C90	C	1.642397	-0.514490	0.119023
C91	C	1.348456	-0.356839	-0.380952
C92	C	1.848456	0.143161	0.119048
C93	C	1.436313	-0.356850	-0.380969
C94	C	1.936313	0.143150	0.119031
C95	C	1.142333	-0.356765	-0.587080
C96	C	1.642333	0.143235	-0.087080
C97	C	1.142351	-0.356744	-0.674937
C98	C	1.642351	0.143256	-0.174937
C99	C	1.142378	-0.163653	-0.380968
C100	C	1.642378	0.336347	0.119032
C101	C	1.142416	-0.081339	-0.380991
C102	C	1.642416	0.418661	0.119009
C103	C	1.091789	-0.404091	-0.716189
C104	C	1.591789	0.095909	-0.216189
C105	C	1.192927	-0.309374	-0.716238
C106	C	1.692927	0.190626	-0.216238
C107	C	1.192944	-0.309349	-0.798784
C108	C	1.692944	0.190651	-0.298784
C109	C	1.142381	-0.356696	-0.840036
C110	C	1.642381	0.143304	-0.340036
C111	C	1.091802	-0.404066	-0.798742
C112	C	1.591802	0.095934	-0.298742
C113	C	1.243516	-0.261974	-0.840085
C114	C	1.743516	0.238026	-0.340085
C115	C	1.243534	-0.261948	-0.922636
C116	C	1.743534	0.238052	-0.422636
C117	C	1.192975	-0.309298	-0.963889
C118	C	1.692975	0.190702	-0.463889
C119	C	1.142394	-0.356671	-0.922590
C120	C	1.642394	0.143329	-0.422590
C121	C	1.091832	-0.404018	-0.963842
C122	C	1.591832	0.095982	-0.463842
C123	C	1.041255	-0.451395	-0.922544
C124	C	1.541255	0.048605	-0.422544
C125	C	1.041243	-0.451417	-0.839996
C126	C	1.541243	0.048583	-0.339996
C127	C	1.192986	-0.309276	-1.046437
C128	C	1.692986	0.190724	-0.546437
C129	C	1.091845	-0.403993	-1.046395
C130	C	1.591845	0.096007	-0.546395
C131	C	1.142290	-0.356810	-0.175546
C132	C	1.642290	0.143190	0.324454
C133	C	1.142424	-0.356623	-0.087689
C134	C	1.642424	0.143377	0.412311
H135	H	0.841319	-0.442617	-0.288990
H136	H	1.341319	0.057383	0.211010
C137	C	0.997413	-0.926510	-0.419841
C138	C	1.497413	-0.426510	0.080159
H139	H	0.946991	-0.907292	-0.406629
H140	H	1.446991	-0.407292	0.093371
H141	H	0.995592	-0.978955	-0.418971
H142	H	1.495592	-0.478955	0.081029
H143	H	1.011835	-0.910159	-0.471095
H144	H	1.511835	-0.410159	0.028905
C145	C	1.036224	-0.456074	-1.091766
C146	C	1.536224	0.043926	-0.591766
H147	H	1.006100	-0.484287	-1.055347
H148	H	1.506100	0.015713	-0.555347
H149	H	1.066451	-0.488332	-1.123973
H150	H	1.566451	0.011668	-0.623973
H151	H	1.001795	-0.427728	-1.123962
H152	H	1.501795	0.072272	-0.623962
H153	H	1.226507	-0.918824	-0.481997
H154	H	1.726507	-0.418824	0.018003
C155	C	0.729493	-0.210185	-0.537901
C156	C	1.229493	0.289815	-0.037901
H157	H	0.784562	-0.216954	-0.530640
H158	H	1.284562	0.283046	-0.030640
H159	H	0.715965	-0.160414	-0.526437
H160	H	1.215965	0.339586	-0.026437
H161	H	0.715998	-0.221096	-0.590995
H162	H	1.215998	0.278904	-0.090995
H163	H	1.122950	-0.919627	-0.511104
H164	H	1.622950	-0.419627	-0.011104
C165	C	0.853280	-0.257476	-0.487223
C166	C	1.353280	0.242524	0.012777
H167	H	0.908349	-0.264246	-0.479960
H168	H	1.408349	0.235754	0.020040
H169	H	0.839753	-0.207705	-0.475762
H170	H	1.339753	0.292295	0.024238
H171	H	0.839785	-0.268391	-0.540315
H172	H	1.339785	0.231609	-0.040315
C173	C	0.985636	-0.503473	-0.967923
C174	C	1.485636	-0.003473	-0.467923
H175	H	0.955509	-0.531690	-0.931510
H176	H	1.455509	-0.031690	-0.431510
H177	H	1.015866	-0.535727	-1.000131
H178	H	1.515866	-0.035727	-0.500131
H179	H	0.951210	-0.475123	-1.000118
H180	H	1.451210	0.024877	-0.500118
C181	C	0.556146	-0.210218	-0.537942
C182	C	1.056146	0.289782	-0.037942
H183	H	0.592573	-0.182051	-0.568105
H184	H	1.092573	0.317949	-0.068105
H185	H	0.523928	-0.177915	-0.507782
H186	H	1.023928	0.322085	-0.007782
H187	H	0.523962	-0.238605	-0.572331
H188	H	1.023962	0.261395	-0.072331
C189	C	0.432283	-0.257529	-0.487322
C190	C	0.932283	0.242471	0.012678
H191	H	0.468711	-0.229358	-0.517479
H192	H	0.968711	0.270642	-0.017479
H193	H	0.400061	-0.225230	-0.457161
H194	H	0.900061	0.274770	0.042839
H195	H	0.400104	-0.285914	-0.521718
H196	H	0.900104	0.214086	-0.021718
C197	C	0.432108	-0.456180	-0.274617
C198	C	0.932108	0.043820	0.225383
H199	H	0.468490	-0.484342	-0.244447
H200	H	0.968490	0.015658	0.255553
H201	H	0.399915	-0.488488	-0.304795
H202	H	0.899915	0.011512	0.195205
H203	H	0.399893	-0.427808	-0.240234
H204	H	0.899893	0.072192	0.259766
H205	H	1.234089	-0.270823	-0.682646
H206	H	1.734089	0.229177	-0.182646
H207	H	1.042107	-0.793226	-0.296421
H208	H	1.542107	-0.293226	0.203579
C209	C	1.106810	-0.785749	-0.527539
C210	C	1.606810	-0.285749	-0.027539
H211	H	1.068183	-0.755031	-0.503660
H212	H	1.568183	-0.255031	-0.003660
H213	H	1.081718	-0.826869	-0.551633
H214	H	1.581718	-0.326869	-0.051633
H215	H	1.134699	-0.758359	-0.566372
H216	H	1.634699	-0.258359	-0.066372
H217	H	1.225351	-0.791752	-0.482636
H218	H	1.725351	-0.291752	0.017364
C219	C	1.299121	-0.209888	-0.794712
C220	C	1.799121	0.290112	-0.294712
H221	H	1.329236	-0.181662	-0.831128
H222	H	1.829236	0.318338	-0.331128
H223	H	1.333548	-0.238222	-0.762509
H224	H	1.833548	0.261778	-0.262509
H225	H	1.268878	-0.177632	-0.762512
H226	H	1.768878	0.322368	-0.262512
C227	C	1.184406	-0.785354	-0.236418
C228	C	1.684406	-0.285354	0.263582
H229	H	1.176461	-0.826192	-0.202110
H230	H	1.676461	-0.326192	0.297890
H231	H	1.137923	-0.756126	-0.238021
H232	H	1.637923	-0.256126	0.261979
H233	H	1.227083	-0.756282	-0.217625
H234	H	1.727083	-0.256282	0.282375
C235	C	1.184500	-0.927280	-0.236027
C236	C	1.684500	-0.427280	0.263973
H237	H	1.139348	-0.958318	-0.237678
H238	H	1.639348	-0.458318	0.262322
H239	H	1.174400	-0.886387	-0.202431
H240	H	1.674400	-0.386387	0.297569
H241	H	1.228193	-0.954445	-0.216350
H242	H	1.728193	-0.454445	0.283650
H243	H	1.264889	-0.920767	-0.333688
H244	H	1.764889	-0.420767	0.166312
C245	C	1.248615	-0.257169	-1.091861
C246	C	1.748615	0.242831	-0.591861
H247	H	1.278727	-0.228977	-1.055470
H248	H	1.778727	0.271023	-0.555470
H249	H	1.218397	-0.224894	-1.124067
H250	H	1.718397	0.275106	-0.624067
H251	H	1.283055	-0.285496	-1.124062
H252	H	1.783055	0.214504	-0.624062
C253	C	0.994529	-0.784602	-0.413576
C254	C	1.494529	-0.284602	0.086424
H255	H	0.944946	-0.804351	-0.398185
H256	H	1.444946	-0.304351	0.101815
H257	H	1.006094	-0.799423	-0.466043
H258	H	1.506094	-0.299423	0.033957
H259	H	0.992683	-0.732208	-0.410942
H260	H	1.492683	-0.232208	0.089058
C261	C	0.729245	-0.503442	-0.223906
C262	C	1.229245	-0.003442	0.276094
H263	H	0.784324	-0.496657	-0.231149
H264	H	1.284324	0.003343	0.268851
H265	H	0.715715	-0.553217	-0.235374
H266	H	1.215715	-0.053217	0.264626
H267	H	0.715692	-0.492534	-0.170817
H268	H	1.215692	0.007466	0.329183
C269	C	0.555890	-0.503466	-0.223949
C270	C	1.055890	-0.003466	0.276051
H271	H	0.592268	-0.531629	-0.193774
H272	H	1.092268	-0.031629	0.306226
H273	H	0.523703	-0.535772	-0.254135
H274	H	1.023703	-0.035772	0.245865
H275	H	0.523669	-0.475097	-0.189570
H276	H	1.023669	0.024903	0.310430
H277	H	1.038178	-0.920794	-0.299894
H278	H	1.538178	-0.420794	0.200106
C279	C	1.287178	-0.785924	-0.338973
C280	C	1.787178	-0.285924	0.161027
H281	H	1.321182	-0.826992	-0.346672
H282	H	1.821182	-0.326992	0.153328
H283	H	1.306136	-0.756801	-0.296429
H284	H	1.806136	-0.256801	0.203571
H285	H	1.285855	-0.756864	-0.385615
H286	H	1.785855	-0.256864	0.114385
C287	C	1.299172	-0.209843	-0.968056
C288	C	1.799172	0.290157	-0.468056
H289	H	1.329287	-0.181653	-0.931664
H290	H	1.829287	0.318347	-0.431664
H291	H	1.268960	-0.177564	-1.000263
H292	H	1.768960	0.322436	-0.500263
H293	H	1.333610	-0.238173	-1.000254
H294	H	1.833610	0.261827	-0.500254
C295	C	0.985608	-0.503519	-0.794568
C296	C	1.485608	-0.003519	-0.294568
H297	H	0.992835	-0.496744	-0.739497
H298	H	1.492835	0.003256	-0.239497
H299	H	0.997153	-0.553276	-0.808082
H300	H	1.497153	-0.053276	-0.308082
H301	H	0.932504	-0.492665	-0.808088
H302	H	1.432504	0.007335	-0.308088
H303	H	1.050613	-0.442666	-0.682561
H304	H	1.550613	0.057334	-0.182561
