data_functionalizedCrystal
_audit_creation_method	'MofGen! by Chris Wilmer'
_symmetry_space_group_name_H-M	'P1'
_symmetry_Int_Tables_number	1
_symmetry_cell_setting	triclinic
loop_
_symmetry_equiv_pos_as_xyz
  x,y,z
_cell_length_a	11.026607
_cell_length_b	11.026607
_cell_length_c	10.065918
_cell_angle_alpha	82.291637
_cell_angle_beta	97.653451
_cell_angle_gamma	71.413983
loop_
_atom_site_label
_atom_site_type_symbol
_atom_site_fract_x
_atom_site_fract_y
_atom_site_fract_z
O1	O	0.553904	-1.747087	0.113491
O2	O	1.053904	-1.247087	0.613491
O3	O	0.493141	-1.380508	0.113493
O4	O	0.993141	-0.880508	0.613493
O5	O	0.340232	-1.533415	0.113487
O6	O	0.840232	-1.033415	0.613487
O7	O	0.706814	-1.594180	0.113497
O8	O	1.206814	-1.094180	0.613497
O9	O	0.299659	-1.492688	-0.113502
O10	O	0.799659	-0.992688	0.386498
O11	O	0.452569	-1.339781	-0.113496
O12	O	0.952569	-0.839781	0.386504
O13	O	0.513332	-1.706360	-0.113498
O14	O	1.013332	-1.206360	0.386502
Zn15	Zn	0.476508	-1.516604	-0.149536
Zn16	Zn	0.976508	-1.016604	0.350464
Zn17	Zn	0.529965	-1.570264	0.149532
Zn18	Zn	1.029965	-1.070264	0.649532
O19	O	0.666241	-1.553453	-0.113492
O20	O	1.166241	-1.053453	0.386508
C21	C	0.461645	-1.312485	-0.000001
C22	C	0.961645	-0.812485	0.499999
C23	C	0.428228	-1.170471	-0.000000
C24	C	0.928228	-0.670471	0.500000
C25	C	0.272286	-1.501842	-0.000005
C26	C	0.772286	-1.001842	0.499995
C27	C	0.130273	-1.468426	-0.000000
C28	C	0.630273	-0.968426	0.500000
N29	N	0.440027	-1.479992	-0.353642
N30	N	0.940027	-0.979992	0.146358
C31	C	0.076624	-1.560696	0.000001
C32	C	0.576624	-1.060696	0.500001
C33	C	-0.070153	-1.526161	0.000006
C34	C	0.429847	-1.026161	0.500006
C35	C	0.734187	-1.585027	0.000004
C36	C	1.234187	-1.085027	0.500004
C37	C	0.876202	-1.618444	0.000008
C38	C	1.376202	-1.118444	0.500008
C39	C	0.544828	-1.774384	-0.000001
C40	C	1.044828	-1.274384	0.499999
C41	C	0.578247	-1.916399	0.000007
C42	C	1.078247	-1.416399	0.500007
C43	C	0.520499	-1.116822	0.000003
C44	C	1.020499	-0.616822	0.500003
C45	C	0.485963	-0.970043	0.000004
C46	C	0.985963	-0.470043	0.500004
C47	C	0.517270	-1.557517	-0.421420
C48	C	1.017270	-1.057517	0.078580
C49	C	0.489184	-1.529347	-0.578588
C50	C	0.989184	-1.029347	-0.078588
N51	N	0.566438	-1.606884	0.353637
N52	N	1.066438	-1.106884	0.853637
H53	H	0.139356	-1.665257	-0.000008
H54	H	0.639356	-1.165257	0.499992
Cl55	Cl	0.681941	-1.213667	0.000004
Cl56	Cl	1.181941	-0.713667	0.500004
Cl57	Cl	-0.026960	-1.779895	0.000013
Cl58	Cl	0.473040	-1.279895	0.500013
Cl59	Cl	0.354964	-1.394672	-0.668625
Cl60	Cl	0.854964	-0.894672	-0.168625
H61	H	-0.132881	-1.421593	0.000016
H62	H	0.367119	-0.921593	0.500016
H63	H	0.381399	-0.907320	0.000036
H64	H	0.881399	-0.407320	0.500036
Cl65	Cl	0.266784	-1.073623	-0.000014
Cl66	Cl	0.766784	-0.573623	0.499986
H67	H	0.604190	-1.644748	-0.363092
H68	H	1.104190	-1.144748	0.136908
Cl69	Cl	0.033431	-1.306986	0.000014
Cl70	Cl	0.533431	-0.806986	0.500014
Cl71	Cl	0.700647	-1.741572	-0.556329
Cl72	Cl	1.200647	-1.241572	-0.056329
Cl73	Cl	0.305813	-1.345322	-0.443685
Cl74	Cl	0.805813	-0.845322	0.056315
H75	H	0.682816	-0.979125	0.000001
H76	H	1.182816	-0.479125	0.500001
