data_functionalizedCrystal
_audit_creation_method	'MofGen! by Chris Wilmer'
_symmetry_space_group_name_H-M	'P1'
_symmetry_Int_Tables_number	1
_symmetry_cell_setting	triclinic
loop_
_symmetry_equiv_pos_as_xyz
  x,y,z
_cell_length_a	16.704579
_cell_length_b	19.902436
_cell_length_c	16.704479
_cell_angle_alpha	90.001758
_cell_angle_beta	66.028972
_cell_angle_gamma	62.456431
loop_
_atom_site_label
_atom_site_type_symbol
_atom_site_fract_x
_atom_site_fract_y
_atom_site_fract_z
Zr1	Zr	0.814687	0.698849	-0.043758
O2	O	0.960059	0.605234	-0.155600
O3	O	0.661157	0.721232	-0.017011
O4	O	0.802907	0.736309	-0.166459
O5	O	0.830446	0.585447	0.120310
O6	O	0.802893	0.846887	-0.166449
O7	O	0.818310	0.590157	-0.006152
O8	O	0.549329	0.819916	0.100886
O9	O	1.084010	0.612418	-0.147025
O10	O	0.727317	0.820930	0.003511
O11	O	0.736384	0.734893	0.097881
O12	O	0.903276	0.752644	-0.078074
O13	O	0.912344	0.666607	0.016296
Zr14	Zr	0.834021	0.867696	0.157949
Zr15	Zr	0.814665	0.875207	-0.043743
Zr16	Zr	0.834043	0.691337	0.157934
Zr17	Zr	1.012374	0.710306	-0.030082
Zr18	Zr	0.636334	0.856239	0.144273
O19	O	0.987551	0.845313	0.131201
O20	O	0.960028	0.855993	-0.155579
O21	O	0.987582	0.594554	0.131180
O22	O	0.688649	0.961311	0.269791
O23	O	0.661126	0.971991	-0.016990
O24	O	0.688680	0.710552	0.269770
O25	O	0.818262	0.981097	-0.006119
O26	O	0.845801	0.830236	0.280649
O27	O	0.845815	0.719658	0.280640
O28	O	0.830398	0.976388	0.120343
O29	O	1.083993	0.752599	-0.147013
O30	O	0.564715	0.813946	0.261204
O31	O	0.564698	0.954127	0.261216
O32	O	0.549312	0.960098	0.100898
O33	O	1.099396	0.606447	0.013293
O34	O	1.099379	0.746629	0.013305
O35	O	0.745432	0.813901	0.192265
O36	O	0.736364	0.899938	0.097895
O37	O	0.912324	0.831652	0.016310
O38	O	0.921391	0.745615	0.110680
C39	C	0.577077	0.768942	0.039989
C40	C	0.493153	0.764078	0.034183
C41	C	0.436487	0.702859	-0.038966
C42	C	0.515338	0.707426	-0.033500
C43	C	0.392108	0.816165	0.096408
C44	C	0.313258	0.811597	0.090942
C45	C	0.335453	0.754943	0.023252
C46	C	0.256600	0.750380	0.017783
C47	C	0.133373	0.859114	0.147694
C48	C	0.212223	0.863682	0.153160
C49	C	0.824381	0.562675	0.057077
C50	C	0.824390	0.487806	0.057071
C51	C	0.824342	0.215800	0.057103
C52	C	0.935367	0.201203	0.005923
C53	C	0.935409	0.279058	0.005599
C54	C	0.824366	0.350745	0.057087
C55	C	0.762238	0.346591	0.009663
C56	C	0.762942	0.268423	0.009276
C57	C	0.774611	0.263813	0.155678
C58	C	0.776790	0.340868	0.155672
C59	C	0.824374	0.427013	0.057078
C60	C	0.824330	0.139534	0.057109
C61	C	1.071631	0.797603	0.074202
C62	C	1.155555	0.802467	0.080007
C63	C	0.800142	0.792668	-0.195191
C64	C	0.791925	0.795857	-0.280814
C65	C	0.824327	1.003870	0.057114
C66	C	0.824318	1.078739	0.057120
C67	C	0.688502	0.835996	-0.358915
C68	C	0.696217	0.833001	-0.278461
C69	C	0.879925	0.761708	-0.363631
C70	C	0.872211	0.764703	-0.444085
C71	C	0.776496	0.801847	-0.441723
C72	C	0.768783	0.804837	-0.522179
C73	C	0.952490	0.733549	-0.607346
C74	C	0.960205	0.730554	-0.526892
C75	C	0.848566	0.773877	0.309382
C76	C	0.856783	0.770688	0.395005
C77	C	0.577050	0.989539	0.040008
C78	C	0.493117	1.059544	0.034208
C79	C	0.601289	0.759546	0.292275
C80	C	0.525582	0.751494	0.372093
C81	C	0.601262	0.980144	0.292294
C82	C	0.525546	1.046960	0.372118
C83	C	1.047446	0.586401	-0.178103
C84	C	1.123162	0.519585	-0.257927
C85	C	1.071658	0.577006	0.074183
C86	C	1.155591	0.507000	0.079983
C87	C	1.047419	0.806999	-0.178085
C88	C	1.123126	0.815051	-0.257902
C89	C	0.448978	1.051178	-0.017791
C90	C	0.370123	1.116950	-0.023258
C91	C	0.335404	1.191087	0.023279
C92	C	0.379551	1.199451	0.075281
C93	C	0.458409	1.133681	0.080742
C94	C	0.494753	0.788953	0.458853
C95	C	0.423631	0.781384	0.533858
C96	C	0.383334	0.736360	0.522103
C97	C	0.414170	0.698896	0.435335
C98	C	0.485296	0.706461	0.360331
C99	C	0.485256	1.123256	0.360344
C100	C	0.414124	1.186044	0.435340
C101	C	0.383277	1.172535	0.522110
C102	C	0.423575	1.096232	0.533882
C103	C	0.494711	1.033445	0.458887
C104	C	1.163461	0.443290	-0.246153
C105	C	1.234618	0.380502	-0.321147
C106	C	1.265469	0.394012	-0.407916
C107	C	1.225167	0.470315	-0.419689
C108	C	1.154016	0.533101	-0.344695
C109	C	1.199738	0.515367	0.131974
C110	C	1.278612	0.449597	0.137421
C111	C	1.313333	0.375461	0.090880
C112	C	1.269183	0.367096	0.038882
C113	C	1.190315	0.432866	0.033431
C114	C	1.163401	0.860081	-0.246118
C115	C	1.234525	0.867663	-0.321109
C116	C	1.265378	0.830209	-0.407882
C117	C	1.225095	0.785177	-0.419665
C118	C	1.153967	0.777601	-0.344676
H119	H	0.274675	0.704252	-0.037336
H120	H	1.314547	0.456423	0.179766
H121	H	1.297465	0.306726	0.000991
H122	H	1.267317	0.904330	-0.311497
H123	H	1.323297	0.836384	-0.468936
H124	H	0.796879	0.237082	-0.063445
H125	H	0.510387	0.675958	0.289690
C126	C	1.259103	0.485162	-0.515144
N127	N	1.284660	0.496342	-0.587043
H128	H	1.267421	0.318378	-0.311544
H129	H	0.597604	0.665009	-0.084160
C130	C	0.539074	0.838480	0.471806
N131	N	0.572458	0.875781	0.481571
C132	C	1.129547	0.428411	-0.150712
N133	N	1.104012	0.417198	-0.078828
H134	H	1.323405	0.342880	-0.468974
H135	H	1.250227	0.754684	-0.490326
H136	H	1.377553	0.321914	0.095326
C137	C	1.000666	0.279550	0.049142
N138	N	1.049840	0.279910	0.081921
H139	H	0.983958	0.163613	0.038064
H140	H	1.154373	0.426042	-0.008903
H141	H	0.398533	0.811896	0.604502
H142	H	0.957851	0.731475	-0.365537
H143	H	0.381349	0.662237	0.425776
C144	C	0.321567	1.107731	-0.080456
N145	N	0.284994	1.100784	-0.123534
C146	C	0.652495	0.285823	0.055808
N147	N	0.569307	0.298931	0.090851
C148	C	0.022223	0.916411	0.216139
N149	N	-0.061494	0.959566	0.267689
C150	C	0.248650	1.263428	0.017269
N151	N	0.183303	1.317913	0.012742
C152	C	1.109681	0.617025	-0.357663
N153	N	1.076290	0.680235	-0.367438
C154	C	1.065485	0.689703	-0.529478
N155	N	1.144784	0.658933	-0.531428
C156	C	0.519179	1.138135	0.264904
N157	N	0.544731	1.149349	0.193021
C158	C	0.341341	1.281008	0.126475
N159	N	0.312554	1.342438	0.165040
C160	C	0.369799	1.269971	0.422370
N161	N	0.336413	1.333183	0.412597
H162	H	0.680332	0.396900	0.044806
C163	C	0.305083	0.728054	0.604618
N164	N	0.246140	0.721805	0.666772
H165	H	0.454559	0.656735	-0.094088
H166	H	0.494338	1.140503	0.123091
H167	H	1.171475	0.575726	0.169880
C168	C	0.389624	1.081384	0.629336
N169	N	0.364044	1.070203	0.701234
C170	C	1.129471	0.901293	-0.150674
N171	N	1.103914	0.932342	-0.078787
H172	H	0.973890	0.282755	-0.066990
C173	C	0.187822	0.926003	0.227610
N174	N	0.169440	0.972947	0.283683
C175	C	0.987184	0.154652	-0.091547
N176	N	1.026209	0.119590	-0.164963
H177	H	0.795309	0.353263	-0.062404
H178	H	0.374056	0.862286	0.151522
H179	H	0.815440	0.228315	0.194528
H180	H	1.121182	0.740929	-0.354283
H181	H	0.822164	0.341732	0.191029
H182	H	0.690847	0.835079	-0.520252
H183	H	0.696201	0.391608	0.197644
H184	H	0.692892	0.277096	0.194089
C185	C	0.599417	0.870564	-0.187373
N186	N	0.526502	0.898857	-0.118763
C187	C	0.583217	0.876851	-0.356319
N188	N	0.503914	0.907625	-0.354361
H189	H	1.024142	0.705737	-0.674780
H190	H	0.325352	1.223667	0.583168
H191	H	0.477244	0.990819	-0.055700
H192	H	0.527506	0.971323	0.468486
