data_functionalizedCrystal
_audit_creation_method	'MofGen! by Chris Wilmer'
_symmetry_space_group_name_H-M	'P1'
_symmetry_Int_Tables_number	1
_symmetry_cell_setting	triclinic
loop_
_symmetry_equiv_pos_as_xyz
  x,y,z
_cell_length_a	16.992694
_cell_length_b	13.448316
_cell_length_c	14.971486
_cell_angle_alpha	90.002892
_cell_angle_beta	92.858824
_cell_angle_gamma	90.000642
loop_
_atom_site_label
_atom_site_type_symbol
_atom_site_fract_x
_atom_site_fract_y
_atom_site_fract_z
O1	O	1.040570	-0.082568	-0.189671
O2	O	0.812283	-0.082598	-0.187591
O3	O	0.932545	-0.082575	-0.058861
O4	O	0.920308	-0.082591	-0.318401
O5	O	0.932533	0.082809	-0.058861
O6	O	0.812271	0.082786	-0.187591
O7	O	1.040558	0.082816	-0.189672
Cu8	Cu	0.926413	0.097902	-0.188631
Cu9	Cu	0.926427	-0.097684	-0.188631
O10	O	0.920296	0.082793	-0.318402
C11	C	0.783062	0.000091	-0.184914
C12	C	0.696010	0.000080	-0.176927
C13	C	0.931992	0.000116	-0.025498
C14	C	0.930352	0.000115	0.073914
N15	N	0.926409	0.235466	-0.188632
C16	C	0.645842	0.000076	-0.253991
C17	C	0.564048	0.000090	-0.246481
C18	C	0.532424	0.000101	-0.161906
C19	C	0.582599	0.000108	-0.084836
C20	C	0.664391	0.000101	-0.092347
C21	C	0.288797	0.000129	-0.130776
C22	C	0.206999	0.000133	-0.123271
C23	C	0.188454	0.000117	-0.284917
C24	C	0.270248	0.000104	-0.292421
C25	C	0.320416	0.000117	-0.215351
N26	N	0.448818	0.000112	-0.154227
N27	N	0.404020	0.000112	-0.223030
C28	C	1.069779	0.000125	-0.192349
C29	C	1.156831	0.000130	-0.200336
N30	N	0.926438	-0.235248	-0.188624
C31	C	0.878832	0.712711	-0.130939
C32	C	0.878829	0.608607	-0.130936
C33	C	0.926429	0.556547	-0.188623
C34	C	0.974040	0.608596	-0.246311
C35	C	0.974046	0.712697	-0.246309
C36	C	0.974022	0.391616	-0.246313
C37	C	0.974015	0.287507	-0.246317
C38	C	0.878805	0.287526	-0.130940
C39	C	0.878812	0.391627	-0.130938
C40	C	0.926422	0.443669	-0.188627
C41	C	0.920849	0.000099	-0.351765
C42	C	0.922489	0.000094	-0.451177
C43	C	1.001003	0.000125	0.126176
C44	C	0.999457	0.000115	0.219584
C45	C	0.927260	0.000102	0.260729
C46	C	0.856603	0.000089	0.208460
C47	C	0.858150	0.000092	0.115054
C48	C	0.853385	0.000085	0.403149
C49	C	0.851838	0.000084	0.496562
C50	C	0.994692	0.000108	0.507679
C51	C	0.996239	0.000111	0.414272
C52	C	0.925582	0.000100	0.362011
H53	H	0.671583	0.000066	-0.322861
O54	O	0.827472	0.552477	-0.068729
H55	H	0.865011	0.505051	-0.023357
O56	O	1.025401	0.768827	-0.308522
H57	H	1.017418	0.849961	-0.298820
O58	O	0.827501	0.447785	-0.068691
H59	H	0.794410	0.394110	-0.028560
H60	H	0.523204	0.000086	-0.309235
O61	O	1.025380	0.552445	-0.308530
H62	H	1.058490	0.606125	-0.348636
H63	H	1.052223	0.000114	0.550235
O64	O	0.827461	0.231405	-0.068705
H65	H	0.835462	0.150271	-0.078385
H66	H	1.012772	0.245123	-0.293294
O67	O	1.075658	0.000124	0.275955
H68	H	1.078358	0.067524	0.318790
H69	H	0.295990	0.000084	-0.361291
H70	H	0.797819	0.000073	0.241968
H71	H	0.840067	0.755090	-0.083967
O72	O	1.078876	0.000128	0.081804
H73	H	1.112831	0.067532	0.102409
O74	O	1.025368	0.447752	-0.308538
H75	H	1.058458	0.394065	-0.348660
O76	O	1.074106	0.000113	0.369888
H77	H	1.122978	0.000105	0.421920
O78	O	0.777177	0.000076	0.346780
H79	H	0.774467	0.067483	0.303960
O80	O	0.773971	0.000053	0.540946
H81	H	0.725098	0.000027	0.488915
O82	O	0.781947	0.000095	0.058683
H83	H	0.747400	-0.067312	0.073945
O84	O	0.134342	0.000126	-0.368037
H85	H	0.096622	-0.067271	-0.368484
O86	O	0.172885	0.000155	-0.032047
H87	H	0.221511	0.000172	0.020284
O88	O	0.548492	0.000129	0.006386
H89	H	0.568640	-0.067270	0.043707
H90	H	0.329634	0.000140	-0.068020
H91	H	0.705238	0.000103	-0.029592
