data_functionalizedCrystal
_audit_creation_method	'MofGen! by Chris Wilmer'
_symmetry_space_group_name_H-M	'P1'
_symmetry_Int_Tables_number	1
_symmetry_cell_setting	triclinic
loop_
_symmetry_equiv_pos_as_xyz
  x,y,z
_cell_length_a	10.723023
_cell_length_b	17.038272
_cell_length_c	9.798715
_cell_angle_alpha	89.996584
_cell_angle_beta	90.003856
_cell_angle_gamma	92.210448
loop_
_atom_site_label
_atom_site_type_symbol
_atom_site_fract_x
_atom_site_fract_y
_atom_site_fract_z
O1	O	-1.667337	0.109717	-0.113499
O2	O	-1.305156	0.120220	-0.113500
O3	O	-1.484094	0.001141	-0.113489
O4	O	-1.488399	0.228796	-0.113510
O5	O	-1.484080	0.001141	0.113493
O6	O	-1.305142	0.120220	0.113482
O7	O	-1.667323	0.109717	0.113484
Zn8	Zn	-1.486230	0.114968	0.149521
Zn9	Zn	-1.486249	0.114969	-0.149538
O10	O	-1.488385	0.228796	0.113472
C11	C	-1.258579	0.119456	-0.000009
C12	C	-1.119813	0.117169	-0.000010
C13	C	-1.057939	0.116150	0.117574
C14	C	-0.914517	0.113787	0.117576
C15	C	-1.480171	-0.028009	0.000002
C16	C	-1.468489	-0.114866	0.000002
C17	C	-1.575745	-0.164388	0.000004
C18	C	-1.564761	-0.245999	-0.000009
C19	C	-1.446520	-0.278087	-0.000014
C20	C	-1.339256	-0.228559	-0.000020
C21	C	-1.350242	-0.146949	-0.000017
C22	C	-1.407711	-0.524059	-0.000033
C23	C	-1.396734	-0.605675	-0.000032
C24	C	-1.622239	-0.623110	-0.000024
C25	C	-1.633214	-0.541497	-0.000012
C26	C	-1.525951	-0.491977	-0.000026
C27	C	-1.435290	-0.361507	-0.000023
C28	C	-1.537182	-0.408559	-0.000026
C29	C	-0.713900	0.110481	-0.000007
C30	C	-0.852666	0.112768	-0.000007
C31	C	-1.492307	0.257946	-0.000022
C32	C	-1.503990	0.344803	-0.000031
N33	N	-1.486226	0.114968	0.353621
N34	N	-1.486262	0.114963	-0.353637
C35	C	-1.561337	0.064749	0.421402
C36	C	-1.561357	0.064747	0.578565
H37	H	-1.111146	0.117022	0.218239
H38	H	-0.905867	0.113649	-0.100680
H39	H	-1.633453	-0.382429	-0.000052
H40	H	-1.625624	0.021754	0.363084
H41	H	-1.625667	0.021756	0.636855
H42	H	-1.242982	-0.254692	-0.000033
H43	H	-1.421958	0.157962	0.588082
H44	H	-1.709567	-0.663438	-0.000016
H45	H	-1.421930	0.157957	0.411941
H46	H	-1.066606	0.116291	-0.100675
H47	H	-1.672029	-0.138268	0.000016
H48	H	-0.861307	0.112914	0.218243
H49	H	-1.652100	-0.286316	-0.000005
H50	H	-1.262902	-0.106629	-0.000019
H51	H	-1.729498	-0.515378	-0.000008
H52	H	-1.339017	-0.387642	-0.000025
H53	H	-1.300444	-0.631798	-0.000015
H54	H	-1.320369	-0.483749	-0.000044
