data_functionalizedCrystal
_audit_creation_method	'MofGen! by Chris Wilmer'
_symmetry_space_group_name_H-M	'P1'
_symmetry_Int_Tables_number	1
_symmetry_cell_setting	triclinic
loop_
_symmetry_equiv_pos_as_xyz
  x,y,z
_cell_length_a	29.839134
_cell_length_b	29.839135
_cell_length_c	13.897441
_cell_angle_alpha	89.974877
_cell_angle_beta	90.021689
_cell_angle_gamma	89.991456
loop_
_atom_site_label
_atom_site_type_symbol
_atom_site_fract_x
_atom_site_fract_y
_atom_site_fract_z
Zn1	Zn	0.178809	0.686873	-0.545554
Zn2	Zn	0.678809	1.186873	-0.045554
Zn3	Zn	0.253943	0.686839	-0.384280
Zn4	Zn	0.753943	1.186839	0.115720
Zn5	Zn	0.178832	0.611743	-0.384260
Zn6	Zn	0.678832	1.111743	0.115740
Zn7	Zn	0.253916	0.611750	-0.545521
Zn8	Zn	0.753916	1.111750	-0.045521
O9	O	0.216375	0.649301	-0.464904
O10	O	0.716375	1.149301	0.035096
O11	O	0.188777	0.749736	-0.524183
O12	O	0.688777	1.249736	-0.024183
O13	O	0.244001	0.676860	-0.249296
O14	O	0.744001	1.176860	0.250704
O15	O	0.115961	0.621721	-0.405661
O16	O	0.615961	1.121721	0.094339
O17	O	0.243979	0.749710	-0.405696
O18	O	0.743979	1.249710	0.094304
O19	O	0.115945	0.676918	-0.524163
O20	O	0.615945	1.176918	-0.024163
O21	O	0.188817	0.621688	-0.249281
O22	O	0.688817	1.121688	0.250719
O23	O	0.188790	0.548877	-0.405629
O24	O	0.688790	1.048877	0.094371
O25	O	0.243931	0.621732	-0.680507
O26	O	0.743931	1.121732	-0.180507
O27	O	0.243953	0.548882	-0.524107
O28	O	0.743953	1.048882	-0.024107
O29	O	0.188750	0.676925	-0.680531
O30	O	0.688750	1.176925	-0.180531
O31	O	0.316807	0.676867	-0.405664
O32	O	0.816807	1.176867	0.094336
O33	O	0.316786	0.621699	-0.524126
O34	O	0.816786	1.121699	-0.024126
C35	C	0.216371	0.532579	-0.464863
C36	C	0.716371	1.032579	0.035137
C37	C	0.216381	0.482644	-0.464868
C38	C	0.716381	0.982644	0.035132
C39	C	0.099196	0.649322	-0.464914
C40	C	0.599196	1.149322	0.035086
C41	C	0.049262	0.649331	-0.464918
C42	C	0.549262	1.149331	0.035082
C43	C	0.187675	0.173011	-0.526691
C44	C	0.687675	0.673011	-0.026691
C45	C	0.187678	-0.014662	-0.526718
C46	C	0.687678	0.485338	-0.026718
O47	O	0.163261	-0.038918	-0.579237
O48	O	0.663261	0.461082	-0.079237
N49	N	0.216375	-0.038141	-0.464939
N50	N	0.716375	0.461859	0.035061
C51	C	0.245072	-0.014698	-0.403144
C52	C	0.745072	0.485302	0.096856
O53	O	0.269477	-0.038975	-0.350591
O54	O	0.769477	0.461025	0.149409
C55	C	0.245066	0.172974	-0.403113
C56	C	0.745066	0.672974	0.096887
C57	C	0.216370	0.196450	-0.464903
C58	C	0.716370	0.696450	0.035097
C59	C	0.158981	0.196487	-0.588475
C60	C	0.658981	0.696487	-0.088475
C61	C	0.158982	0.243403	-0.588471
C62	C	0.658982	0.743403	-0.088471
C63	C	0.187678	0.266842	-0.526683
C64	C	0.687678	0.766842	-0.026683
C65	C	0.216371	0.243365	-0.464899
C66	C	0.716371	0.743365	0.035101
C67	C	0.273760	0.196415	-0.341314
C68	C	0.773760	0.696415	0.158686
C69	C	0.273755	0.243336	-0.341310
C70	C	0.773755	0.743336	0.158690
C71	C	0.245059	0.266813	-0.403100
C72	C	0.745059	0.766813	0.096900
C73	C	0.245068	0.313720	-0.403107
C74	C	0.745068	0.813720	0.096893
N75	N	0.216371	0.337199	-0.464886
N76	N	0.716371	0.837199	0.035114
C77	C	0.187675	0.313760	-0.526674
C78	C	0.687675	0.813760	-0.026674
C79	C	0.245073	-0.113229	-0.403167
C80	C	0.745073	0.386771	0.096833
C81	C	0.245075	-0.160147	-0.403175
C82	C	0.745075	0.339853	0.096825
C83	C	0.187681	-0.160107	-0.526748
C84	C	0.687681	0.339893	-0.026748
C85	C	0.187682	-0.113189	-0.526744
C86	C	0.687682	0.386811	-0.026744
C87	C	0.216376	-0.089750	-0.464946
C88	C	0.716376	0.410250	0.035054
C89	C	0.187681	0.412285	-0.526662
C90	C	0.687681	0.912285	-0.026662
C91	C	0.187686	0.459205	-0.526656
C92	C	0.687686	0.959205	-0.026656
C93	C	0.245078	0.459161	-0.403080
C94	C	0.745078	0.959161	0.096920
C95	C	0.245075	0.412246	-0.403089
C96	C	0.745075	0.912246	0.096911
C97	C	0.216372	0.388809	-0.464884
C98	C	0.716372	0.888809	0.035116
O99	O	0.269468	0.338005	-0.350609
O100	O	0.769468	0.838005	0.149391
O101	O	0.163267	0.338044	-0.579205
O102	O	0.663267	0.838044	-0.079205
C103	C	0.187674	0.126095	-0.526695
C104	C	0.687674	0.626095	-0.026695
C105	C	0.216368	0.102619	-0.464910
C106	C	0.716368	0.602619	0.035090
C107	C	0.245063	0.126058	-0.403122
C108	C	0.745063	0.626058	0.096878
C109	C	0.216370	0.055701	-0.464919
C110	C	0.716370	0.555701	0.035081
C111	C	0.187675	0.032262	-0.526707
C112	C	0.687675	0.532262	-0.026707
C113	C	0.158977	0.055741	-0.588486
C114	C	0.658977	0.555741	-0.088486
C115	C	0.158979	0.102656	-0.588483
C116	C	0.658979	0.602656	-0.088483
C117	C	0.273760	0.102579	-0.341343
C118	C	0.773760	0.602579	0.158657
C119	C	0.273757	0.055664	-0.341353
C120	C	0.773757	0.555664	0.158647
C121	C	0.245062	0.032225	-0.403141
C122	C	0.745062	0.532225	0.096859
C123	C	-0.260376	0.620582	-0.403243
C124	C	0.239624	1.120582	0.096757
C125	C	-0.448049	0.620585	-0.403252
C126	C	0.051951	1.120585	0.096748
O127	O	-0.472309	0.596132	-0.350813
O128	O	0.027691	1.096132	0.149187
N129	N	-0.471523	0.649325	-0.464948
N130	N	0.028477	1.149325	0.035052
C131	C	-0.448076	0.678064	-0.526651
C132	C	0.051924	1.178064	-0.026651
O133	O	-0.472349	0.702506	-0.579134
O134	O	0.027651	1.202506	-0.079134
C135	C	-0.260404	0.678059	-0.526646
C136	C	0.239596	1.178059	-0.026646
C137	C	-0.236932	0.649320	-0.464939
C138	C	0.263068	1.149320	0.035061
C139	C	-0.236904	0.591846	-0.341542
C140	C	0.263096	1.091846	0.158458
C141	C	-0.189988	0.591847	-0.341536
C142	C	0.310012	1.091847	0.158464
C143	C	-0.166545	0.620585	-0.403232
C144	C	0.333455	1.120585	0.096768
C145	C	-0.190017	0.649322	-0.464933
C146	C	0.309983	1.149322	0.035067
C147	C	-0.236958	0.706795	-0.588352
C148	C	0.263042	1.206795	-0.088352
C149	C	-0.190037	0.706790	-0.588347
C150	C	0.309963	1.206790	-0.088347
C151	C	-0.166565	0.678052	-0.526640
C152	C	0.333435	1.178052	-0.026640
C153	C	-0.119658	0.678061	-0.526624
C154	C	0.380342	1.178061	-0.026624
N155	N	-0.096183	0.649321	-0.464928
N156	N	0.403817	1.149321	0.035072
C157	C	-0.119627	0.620583	-0.403232
C158	C	0.380373	1.120583	0.096768
C159	C	-0.546607	0.678065	-0.526647
C160	C	-0.046607	1.178065	-0.026647
C161	C	-0.593525	0.678067	-0.526648
C162	C	-0.093525	1.178067	-0.026648
C163	C	-0.593494	0.620588	-0.403250
C164	C	-0.093494	1.120588	0.096750
C165	C	-0.546575	0.620588	-0.403246
C166	C	-0.046575	1.120588	0.096754
C167	C	-0.523133	0.649326	-0.464951
C168	C	-0.023133	1.149326	0.035049
C169	C	-0.021101	0.620589	-0.403225
C170	C	0.478899	1.120589	0.096775
C171	C	0.025819	0.620594	-0.403222
C172	C	0.525819	1.120594	0.096778
C173	C	0.025784	0.678071	-0.526623
C174	C	0.525784	1.178071	-0.026623
C175	C	-0.021132	0.678068	-0.526622
C176	C	0.478868	1.178068	-0.026622
C177	C	-0.044573	0.649323	-0.464920
C178	C	0.455427	1.149323	0.035080
O179	O	-0.095369	0.702497	-0.579043
O180	O	0.404631	1.202497	-0.079043
O181	O	-0.095346	0.596138	-0.350772
O182	O	0.404654	1.096138	0.149228
C183	C	-0.307291	0.620581	-0.403248
C184	C	0.192709	1.120581	0.096752
C185	C	-0.330763	0.649318	-0.464949
C186	C	0.169237	1.149318	0.035051
C187	C	-0.307320	0.678055	-0.526645
C188	C	0.192680	1.178055	-0.026645
C189	C	-0.377681	0.649319	-0.464950
C190	C	0.122319	1.149319	0.035050
C191	C	-0.401124	0.620582	-0.403254
C192	C	0.098876	1.120582	0.096746
C193	C	-0.377650	0.591842	-0.341558
C194	C	0.122350	1.091842	0.158442
C195	C	-0.330734	0.591843	-0.341553
C196	C	0.169266	1.091843	0.158447
C197	C	-0.330794	0.706795	-0.588341
C198	C	0.169206	1.206795	-0.088341
C199	C	-0.377710	0.706792	-0.588341
C200	C	0.122290	1.206792	-0.088341
C201	C	-0.401153	0.678054	-0.526645
C202	C	0.098847	1.178054	-0.026645
C203	C	0.333097	0.649292	-0.464915
C204	C	0.833097	1.149292	0.035085
C205	C	0.383032	0.649329	-0.464952
C206	C	0.883032	1.149329	0.035048
C207	C	0.216335	0.649333	-0.716497
C208	C	0.716335	1.149333	-0.216497
C209	C	0.216318	0.649347	-0.823711
C210	C	0.716318	1.149347	-0.323711
C211	C	0.216379	0.766480	-0.464946
C212	C	0.716379	1.266480	0.035054
C213	C	0.216380	0.816414	-0.464964
C214	C	0.716380	1.316414	0.035036
C215	C	0.216288	0.649359	-1.020006
C216	C	0.716288	1.149359	-0.520006
C217	C	0.216306	0.649351	-0.910774
C218	C	0.716306	1.149351	-0.410774
C219	C	0.216382	0.649295	-0.214289
C220	C	0.716382	1.149295	0.285711
C221	C	0.216272	0.649369	-0.107076
C222	C	0.716272	1.149369	0.392924
H223	H	0.164318	0.478317	-0.576976
H224	H	0.664318	0.978317	-0.076976
H225	H	-0.612633	0.701474	-0.576884
H226	H	-0.112633	1.201474	-0.076884
H227	H	0.164307	0.393209	-0.576978
H228	H	0.664307	0.893209	-0.076978
Cl229	Cl	-0.517072	0.584458	-0.325671
Cl230	Cl	-0.017072	1.084458	0.174329
Cl231	Cl	-0.517143	0.714195	-0.604231
Cl232	Cl	-0.017143	1.214195	-0.104231
Cl233	Cl	0.309834	0.026157	-0.263663
Cl234	Cl	0.809834	0.526157	0.236337
H235	H	0.297127	0.121659	-0.291025
H236	H	0.797127	0.621659	0.208975
Cl237	Cl	-0.050563	0.584453	-0.325652
Cl238	Cl	0.449437	1.084453	0.174348
H239	H	-0.311628	0.568441	-0.291305
H240	H	0.188372	1.068441	0.208695
H241	H	-0.396745	0.568444	-0.291319
H242	H	0.103255	1.068444	0.208681
H243	H	0.044927	0.597191	-0.352969
H244	H	0.544927	1.097191	0.147031
Cl245	Cl	-0.050640	0.714202	-0.604185
Cl246	Cl	0.449360	1.214202	-0.104185
Cl247	Cl	-0.160487	0.555713	-0.263966
Cl248	Cl	0.339513	1.055713	0.236034
H249	H	0.164317	-0.179199	-0.577059
H250	H	0.664317	0.320801	-0.077059
Cl251	Cl	0.122905	0.026266	-0.666165
Cl252	Cl	0.622905	0.526266	-0.166165
Cl253	Cl	0.281156	-0.189654	-0.325503
Cl254	Cl	0.781156	0.310346	0.174497
Cl255	Cl	-0.266367	0.555712	-0.263973
Cl256	Cl	0.233633	1.055712	0.236027
H257	H	-0.612589	0.597189	-0.353013
H258	H	-0.112589	1.097189	0.146987
H259	H	0.135615	0.262513	-0.638786
H260	H	0.635615	0.762513	-0.138786
Cl261	Cl	-0.266455	0.742924	-0.665936
Cl262	Cl	0.233545	1.242924	-0.165936
H263	H	-0.170953	0.730188	-0.638605
H264	H	0.329047	1.230188	-0.138605
Cl265	Cl	0.055264	0.714197	-0.604179
Cl266	Cl	0.555264	1.214197	-0.104179
H267	H	0.135612	0.177408	-0.638791
H268	H	0.635612	0.677408	-0.138791
H269	H	0.268441	-0.094150	-0.352841
H270	H	0.768441	0.405850	0.147159
H271	H	0.268446	0.393131	-0.352786
H272	H	0.768446	0.893131	0.147214
H273	H	-0.396817	0.730198	-0.638588
H274	H	0.103183	1.230198	-0.138588
H275	H	-0.311711	0.730198	-0.638582
H276	H	0.188289	1.230198	-0.138582
H277	H	0.297126	0.177309	-0.290996
H278	H	0.797126	0.677309	0.209004
Cl279	Cl	0.309831	0.272799	-0.263618
Cl280	Cl	0.809831	0.772799	0.236382
Cl281	Cl	0.151604	-0.083681	-0.604423
Cl282	Cl	0.651604	0.416319	-0.104423
H283	H	0.268442	0.478254	-0.352775
H284	H	0.768442	0.978254	0.147225
H285	H	0.135611	0.121767	-0.638798
H286	H	0.635611	0.621767	-0.138798
