data_functionalizedCrystal
_audit_creation_method	'MofGen! by Chris Wilmer'
_symmetry_space_group_name_H-M	'P1'
_symmetry_Int_Tables_number	1
_symmetry_cell_setting	triclinic
loop_
_symmetry_equiv_pos_as_xyz
  x,y,z
_cell_length_a	12.759401
_cell_length_b	16.959453
_cell_length_c	12.759393
_cell_angle_alpha	89.965477
_cell_angle_beta	89.979690
_cell_angle_gamma	90.019151
loop_
_atom_site_label
_atom_site_type_symbol
_atom_site_fract_x
_atom_site_fract_y
_atom_site_fract_z
Zn1	Zn	1.606223	-0.314657	-0.593990
Zn2	Zn	1.606099	-0.446857	-0.418300
Zn3	Zn	1.430523	-0.314695	-0.418326
Zn4	Zn	1.430497	-0.446795	-0.593937
O5	O	1.518336	-0.380751	-0.506138
O6	O	1.753228	-0.332203	-0.570696
O7	O	1.582768	-0.429367	-0.271282
O8	O	1.453893	-0.204079	-0.441661
O9	O	1.753137	-0.429330	-0.441616
O10	O	1.582979	-0.204051	-0.570721
O11	O	1.453773	-0.332268	-0.271301
O12	O	1.283499	-0.332208	-0.441610
O13	O	1.453849	-0.429225	-0.740965
O14	O	1.283480	-0.429262	-0.570631
O15	O	1.582954	-0.332143	-0.741004
O16	O	1.582743	-0.557460	-0.441565
O17	O	1.453729	-0.557414	-0.570606
C18	C	1.245368	-0.380733	-0.506118
C19	C	1.128592	-0.380744	-0.506134
C20	C	1.073709	-0.330142	-0.439076
C21	C	0.963985	-0.330160	-0.439090
C22	C	0.964036	-0.431385	-0.573229
C23	C	1.073758	-0.431370	-0.573209
C24	C	0.813974	-0.301828	-0.315279
C25	C	0.759087	-0.251214	-0.248230
C26	C	0.794705	-0.174068	-0.232277
C27	C	0.885208	-0.147521	-0.283388
C28	C	0.940089	-0.198131	-0.350445
C29	C	0.904473	-0.275288	-0.366378
C30	C	1.223771	-0.459694	-0.697022
C31	C	1.278654	-0.510301	-0.764085
C32	C	1.243038	-0.587448	-0.780048
C33	C	1.152532	-0.613992	-0.728955
C34	C	1.097649	-0.563385	-0.661892
C35	C	1.133272	-0.486239	-0.645927
C36	C	1.518248	-0.586117	-0.506100
C37	C	1.518307	-0.673974	-0.506118
C38	C	1.585637	-1.045376	-0.573466
C39	C	1.451328	-1.045522	-0.438966
C40	C	1.451289	-0.962976	-0.438942
C41	C	1.518424	-0.921627	-0.506182
C42	C	1.585598	-0.962823	-0.573447
C43	C	1.384109	-0.921774	-0.371686
C44	C	1.384067	-0.839223	-0.371660
C45	C	1.451207	-0.797872	-0.438896
C46	C	1.518385	-0.839073	-0.506162
C47	C	1.585520	-0.797723	-0.573403
C48	C	1.652703	-0.838923	-0.640665
C49	C	1.652739	-0.921471	-0.640683
C50	C	1.451172	-0.715323	-0.438878
C51	C	1.585480	-0.715170	-0.573383
C52	C	1.792369	-0.380770	-0.506159
C53	C	1.909146	-0.380778	-0.506168
C54	C	1.518412	-0.380673	-0.780172
C55	C	1.518445	-0.380640	-0.896948
C56	C	1.518452	-0.174583	-0.506200
C57	C	1.518502	-0.086726	-0.506226
C58	C	1.585696	-0.330051	-1.061564
C59	C	1.585676	-0.330082	-0.951839
C60	C	1.451236	-0.431176	-0.951787
C61	C	1.451263	-0.431149	-1.061509
C62	C	1.709562	-0.301887	-0.801914
C63	C	1.776758	-0.251345	-0.747079
C64	C	1.792942	-0.174211	-0.782719
C65	C	1.741915	-0.147604	-0.873193
C66	C	1.674711	-0.198142	-0.928023
C67	C	1.658547	-0.275287	-0.892383
C68	C	1.327375	-0.459335	-1.211437
C69	C	1.260165	-0.509870	-1.266268
C70	C	1.243971	-0.587005	-1.230630
C71	C	1.294979	-0.613609	-1.140153
C72	C	1.362189	-0.563074	-1.085321
C73	C	1.378386	-0.485940	-1.120967
C74	C	1.518320	-0.380771	-0.233171
C75	C	1.518491	-0.380582	-0.116395
H76	H	1.123528	-0.676810	-0.741960
H77	H	1.396467	-0.681782	-0.384119
H78	H	1.281795	-0.676420	-1.111136
H79	H	1.640437	-0.288876	-1.106248
H80	H	0.914196	-0.084699	-0.270401
C81	C	1.310180	-0.793911	-0.297667
H82	H	1.270209	-0.830361	-0.257619
H83	H	1.264366	-0.761703	-0.337799
H84	H	1.350392	-0.761721	-0.251913
H85	H	0.784973	-0.364649	-0.328250
H86	H	1.013768	-0.176515	-0.392068
H87	H	0.919377	-0.472602	-0.627840
C88	C	1.310275	-0.967258	-0.297723
H89	H	1.319933	-1.022321	-0.307358
H90	H	1.239666	-0.953765	-0.313025
H91	H	1.325693	-0.953759	-0.227141
C92	C	0.998092	-0.592582	-0.605691
H93	H	0.984740	-0.645778	-0.624797
H94	H	0.940255	-0.560660	-0.625584
H95	H	1.007873	-0.589333	-0.532013
C96	C	1.618592	-0.168886	-1.027540
H97	H	1.637857	-0.115708	-1.040918
H98	H	1.544910	-0.172079	-1.017721
H99	H	1.638413	-0.200819	-1.085389
H100	H	1.640154	-0.681508	-0.628135
H101	H	1.755087	-0.084790	-0.902197
H102	H	1.847655	-0.133058	-0.738065
H103	H	1.707435	-0.955024	-0.695444
C104	C	1.832892	-0.280613	-0.647570
H105	H	1.813647	-0.333797	-0.634205
H106	H	1.813090	-0.248688	-0.589714
H107	H	1.906577	-0.277419	-0.657411
C108	C	1.262946	-0.374828	-0.679471
H109	H	1.324697	-0.366263	-0.719520
H110	H	1.277972	-0.367257	-0.607262
H111	H	1.210335	-0.338605	-0.700830
H112	H	1.189272	-0.628160	-1.275306
C113	C	1.134027	-0.274462	-0.365293
H114	H	1.207235	-0.281693	-0.374890
H115	H	1.116006	-0.285969	-0.294679
H116	H	1.116062	-0.221367	-0.380806
C117	C	1.659530	-1.090691	-0.647452
H118	H	1.649938	-1.145776	-0.637841
H119	H	1.730121	-1.077131	-0.632139
H120	H	1.644099	-1.077129	-0.718029
H121	H	1.396666	-1.079194	-0.384226
H122	H	0.750008	-0.132858	-0.177684
C123	C	1.303413	-0.643115	-0.853813
H124	H	1.362418	-0.616262	-0.881958
H125	H	1.258730	-0.659385	-0.909274
H126	H	1.326355	-0.688041	-0.815699
C127	C	1.691770	-0.386737	-0.762710
H128	H	1.731771	-0.395337	-0.700968
H129	H	1.713022	-0.422981	-0.815315
H130	H	1.619531	-0.394235	-0.747635
H131	H	0.685399	-0.272836	-0.206615
H132	H	1.396500	-0.472344	-0.907086
H133	H	1.403724	-0.584742	-1.011650
H134	H	1.352333	-0.488675	-0.805709
H135	H	1.218599	-0.488192	-1.339916
H136	H	1.707360	-0.805247	-0.695417
H137	H	1.340561	-0.396526	-1.240467
