data_functionalizedCrystal
_audit_creation_method	'MofGen! by Chris Wilmer'
_symmetry_space_group_name_H-M	'P1'
_symmetry_Int_Tables_number	1
_symmetry_cell_setting	triclinic
loop_
_symmetry_equiv_pos_as_xyz
  x,y,z
_cell_length_a	19.077068
_cell_length_b	19.077142
_cell_length_c	19.076919
_cell_angle_alpha	90.074357
_cell_angle_beta	85.529249
_cell_angle_gamma	89.885450
loop_
_atom_site_label
_atom_site_type_symbol
_atom_site_fract_x
_atom_site_fract_y
_atom_site_fract_z
Zn1	Zn	-0.340467	-1.044046	0.453535
Zn2	Zn	-0.007134	-0.710713	0.786868
Zn3	Zn	0.326199	-0.377380	1.120202
Zn4	Zn	-0.453617	-1.043960	0.340376
Zn5	Zn	-0.120284	-0.710626	0.673709
Zn6	Zn	0.213050	-0.377293	1.007042
Zn7	Zn	-0.331038	-0.931658	0.330962
Zn8	Zn	0.002295	-0.598325	0.664295
Zn9	Zn	0.335628	-0.264992	0.997629
Zn10	Zn	-0.453191	-0.921799	0.453108
Zn11	Zn	-0.119857	-0.588466	0.786441
Zn12	Zn	0.213476	-0.255133	1.119775
O13	O	-0.394578	-0.985366	0.394495
O14	O	-0.061245	-0.652032	0.727829
O15	O	0.272088	-0.318699	1.061162
O16	O	-0.359601	-1.142194	0.442642
O17	O	-0.026268	-0.808861	0.775976
O18	O	0.307065	-0.475527	1.109309
O19	O	-0.433589	-1.033152	0.240651
O20	O	-0.100256	-0.699819	0.573984
O21	O	0.233078	-0.366486	0.907318
O22	O	-0.233814	-0.950729	0.343461
O23	O	0.099519	-0.617396	0.676794
O24	O	0.432852	-0.284062	1.010127
O25	O	-0.442732	-1.142130	0.359505
O26	O	-0.109399	-0.808797	0.692838
O27	O	0.223935	-0.475464	1.026172
O28	O	-0.240742	-1.033300	0.433514
O29	O	0.092592	-0.699967	0.766848
O30	O	0.425925	-0.366633	1.100181
O31	O	-0.343531	-0.950645	0.233735
O32	O	-0.010198	-0.617312	0.567068
O33	O	0.323136	-0.283978	0.900402
O34	O	-0.343117	-0.832191	0.343047
O35	O	-0.009784	-0.498858	0.676380
O36	O	0.323549	-0.165524	1.009713
O37	O	-0.442005	-0.933926	0.551640
O38	O	-0.108672	-0.600593	0.884974
O39	O	0.224661	-0.267259	1.218307
O40	O	-0.432862	-0.824948	0.432787
O41	O	-0.099529	-0.491614	0.766120
O42	O	0.233804	-0.158281	1.099453
O43	O	-0.359188	-1.023740	0.551954
O44	O	-0.025854	-0.690407	0.885287
O45	O	0.307479	-0.357074	1.218621
O46	O	-0.552035	-1.023592	0.359091
O47	O	-0.218702	-0.690259	0.692424
O48	O	0.114632	-0.356926	1.025758
O49	O	-0.551722	-0.933842	0.441915
O50	O	-0.218389	-0.600508	0.775248
O51	O	0.114945	-0.267175	1.108581
C52	C	-0.386921	-0.803118	0.386849
C53	C	-0.053588	-0.469784	0.720183
C54	C	0.279746	-0.136451	1.053516
C55	C	-0.383663	-0.725150	0.383596
C56	C	-0.050329	-0.391816	0.716929
C57	C	0.283004	-0.058483	1.050262
C58	C	-0.428922	-0.684768	0.428722
C59	C	-0.095589	-0.351434	0.762055
C60	C	0.237744	-0.018101	1.095389
C61	C	-0.425852	-0.611509	0.425668
C62	C	-0.092519	-0.278175	0.759001
C63	C	0.240815	0.055158	1.092335
C64	C	-0.377525	-0.578633	0.377484
C65	C	-0.044191	-0.245300	0.710817
C66	C	0.289142	0.088033	1.044150
C67	C	-0.332260	-0.619021	0.332356
C68	C	0.001073	-0.285688	0.665689
C69	C	0.334407	0.047646	0.999022
C70	C	-0.335328	-0.692278	0.335414
C71	C	-0.001994	-0.358945	0.668747
C72	C	0.331339	-0.025612	1.002080
C73	C	-0.363329	-0.359939	0.363338
C74	C	-0.029996	-0.026606	0.696672
C75	C	0.303338	0.306727	1.030005
C76	C	-0.360266	-0.286676	0.360282
C77	C	-0.026933	0.046657	0.693616
C78	C	0.306400	0.379990	1.026949
C79	C	-0.453858	-0.279169	0.453596
C80	C	-0.120524	0.054164	0.786929
C81	C	0.212809	0.387498	1.120263
C82	C	-0.456924	-0.352428	0.456647
C83	C	-0.123591	-0.019095	0.789980
C84	C	0.209743	0.314238	1.123313
C85	C	-0.411657	-0.392810	0.411521
C86	C	-0.078324	-0.059476	0.744855
C87	C	0.255010	0.273857	1.078188
N88	N	-0.374386	-0.503751	0.374359
N89	N	-0.041053	-0.170418	0.707693
N90	N	0.292280	0.162916	1.041026
N91	N	-0.414792	-0.467691	0.414650
N92	N	-0.081459	-0.134357	0.747983
N93	N	0.251874	0.198976	1.081316
C94	C	-0.577413	-0.977656	0.401494
C95	C	-0.244080	-0.644323	0.734828
C96	C	0.089253	-0.310990	1.068161
C97	C	-0.655634	-0.974421	0.404515
C98	C	-0.322301	-0.641088	0.737848
C99	C	0.011032	-0.307755	1.071181
C100	C	-0.692526	-1.019663	0.362850
C101	C	-0.359192	-0.686330	0.696184
C102	C	-0.025859	-0.352996	1.029517
C103	C	-0.766023	-1.016624	0.365696
C104	C	-0.432690	-0.683291	0.699029
C105	C	-0.099356	-0.349958	1.032362
C106	C	-0.802628	-0.968340	0.410202
C107	C	-0.469294	-0.635007	0.743535
C108	C	-0.135961	-0.301673	1.076868
C109	C	-0.765732	-0.923096	0.451871
C110	C	-0.432398	-0.589763	0.785204
C111	C	-0.099065	-0.256429	1.118537
C112	C	-0.692236	-0.926139	0.449029
C113	C	-0.358902	-0.592805	0.782362
C114	C	-0.025569	-0.259472	1.115695
C115	C	-1.022422	-0.954229	0.423325
C116	C	-0.689088	-0.620896	0.756658
C117	C	-0.355755	-0.287562	1.089991
C118	C	-1.095922	-0.951188	0.426162
C119	C	-0.762589	-0.617855	0.759495
C120	C	-0.429256	-0.284522	1.092829
C121	C	-1.096209	-1.044718	0.339988
C122	C	-0.762876	-0.711384	0.673321
C123	C	-0.429542	-0.378051	1.006654
C124	C	-1.022711	-1.047753	0.337147
C125	C	-0.689378	-0.714420	0.670480
C126	C	-0.356045	-0.381087	1.003813
C127	C	-0.985822	-1.002512	0.378818
C128	C	-0.652489	-0.669179	0.712151
C129	C	-0.319155	-0.335845	1.045485
N130	N	-0.877754	-0.965231	0.413109
N131	N	-0.544420	-0.631898	0.746443
N132	N	-0.211087	-0.298565	1.079776
N133	N	-0.910697	-1.005625	0.375914
N134	N	-0.577364	-0.672291	0.709247
N135	N	-0.244031	-0.338958	1.042580
C136	C	-0.211031	-0.993124	0.387485
C137	C	0.122303	-0.659791	0.720818
C138	C	0.455636	-0.326457	1.054152
C139	C	-0.132814	-0.996430	0.384498
C140	C	0.200520	-0.663097	0.717831
C141	C	0.533853	-0.329763	1.051164
C142	C	-0.401601	-0.977743	0.578045
C143	C	-0.068267	-0.644410	0.911378
C144	C	0.265066	-0.311076	1.244712
C145	C	-0.404593	-0.974495	0.656263
C146	C	-0.071260	-0.641161	0.989596
C147	C	0.262073	-0.307828	1.322930
C148	C	-0.402262	-0.168326	0.402163
C149	C	-0.068929	0.165007	0.735496
C150	C	0.264405	0.498341	1.068829
C151	C	-0.405526	-0.246294	0.405409
C152	C	-0.072193	0.087039	0.738742
C153	C	0.261141	0.420373	1.072075
C154	C	-0.387534	-0.993001	0.211659
C155	C	-0.054201	-0.659668	0.544993
C156	C	0.279133	-0.326335	0.878326
C157	C	-0.384349	-0.996394	0.133440
C158	C	-0.051015	-0.663061	0.466773
C159	C	0.282318	-0.329727	0.800106
C160	C	-0.362883	-1.019728	0.693174
C161	C	-0.029549	-0.686394	1.026508
C162	C	0.303784	-0.353061	1.359841
C163	C	-0.365691	-1.016667	0.766668
C164	C	-0.032358	-0.683334	1.100001
C165	C	0.300975	-0.350000	1.433335
C166	C	-0.410215	-0.968376	0.803249
C167	C	-0.076882	-0.635043	1.136582
C168	C	0.256452	-0.301710	1.469916
C169	C	-0.451927	-0.923138	0.766332
C170	C	-0.118594	-0.589805	1.099666
C171	C	0.214739	-0.256472	1.432999
C172	C	-0.449114	-0.926196	0.692840
C173	C	-0.115781	-0.592863	1.026173
C174	C	0.217552	-0.259529	1.359507
C175	C	-0.423248	-0.954214	1.023031
C176	C	-0.089915	-0.620881	1.356364
C177	C	0.243419	-0.287547	1.689697
C178	C	-0.426060	-0.951161	1.096528
C179	C	-0.092726	-0.617828	1.429862
C180	C	0.240607	-0.284494	1.763195
C181	C	-0.339822	-1.044689	1.096859
C182	C	-0.006489	-0.711356	1.430192
C183	C	0.326844	-0.378022	1.763525
C184	C	-0.337016	-1.047745	1.023365
C185	C	-0.003683	-0.714412	1.356698
C186	C	0.329650	-0.381079	1.690032
C187	C	-0.378726	-1.002505	0.986454
C188	C	-0.045392	-0.669172	1.319788
C189	C	0.287941	-0.335838	1.653121
N190	N	-0.413089	-0.965248	0.878372
N191	N	-0.079756	-0.631915	1.211705
N192	N	0.253578	-0.298581	1.545038
N193	N	-0.375848	-1.005630	0.911333
N194	N	-0.042515	-0.672297	1.244666
N195	N	0.290819	-0.338964	1.578000
H196	H	-0.662727	-1.058978	0.326606
H197	H	-0.329393	-0.725645	0.659939
H198	H	0.003940	-0.392312	0.993272
N199	N	-0.472085	-0.570270	0.471772
N200	N	-0.138752	-0.236937	0.805106
N201	N	0.194582	0.096397	1.138439
N202	N	-0.515232	-0.599631	0.514789
N203	N	-0.181899	-0.266298	0.848123
N204	N	0.151435	0.067035	1.181456
H205	H	-0.547885	-0.570507	0.547355
H206	H	-0.214552	-0.237174	0.880688
H207	H	0.118781	0.096160	1.214021
H208	H	-0.457222	-0.917386	0.992988
H209	H	-0.123888	-0.584052	1.326321
H210	H	0.209445	-0.250719	1.659654
H211	H	-0.662200	-0.889299	0.482957
H212	H	-0.328866	-0.555966	0.816290
H213	H	0.004467	-0.222632	1.149624
N214	N	-0.491712	-0.879993	0.655122
N215	N	-0.158379	-0.546660	0.988455
N216	N	0.174955	-0.213327	1.321788
N217	N	-0.463500	-0.838050	0.611289
N218	N	-0.130167	-0.504717	0.944622
N219	N	0.203166	-0.171383	1.277955
H220	H	-0.493583	-0.805416	0.584649
H221	H	-0.160250	-0.472082	0.917982
H222	H	0.173083	-0.138749	1.251316
N223	N	-0.317392	-1.069055	0.655821
N224	N	0.015941	-0.735722	0.989155
N225	N	0.349275	-0.402388	1.322488
N226	N	-0.252577	-1.066802	0.661359
N227	N	0.080756	-0.733469	0.994692
N228	N	0.414089	-0.400136	1.328026
H229	H	-0.220446	-1.101640	0.634980
H230	H	0.112888	-0.768306	0.968314
H231	H	0.446221	-0.434973	1.301647
N232	N	-1.133882	-1.090929	0.297417
N233	N	-0.800548	-0.757595	0.630750
N234	N	-0.467215	-0.424262	0.964083
N235	N	-1.123024	-1.089361	0.231969
N236	N	-0.789691	-0.756028	0.565303
N237	N	-0.456358	-0.422695	0.898636
H238	H	-1.149631	-1.122000	0.201901
H239	H	-0.816297	-0.788667	0.535234
H240	H	-0.482964	-0.455334	0.868568
H241	H	-0.331728	-1.053502	0.796718
H242	H	0.001605	-0.720169	1.130051
H243	H	0.334939	-0.386836	1.463385
N244	N	-0.317091	-0.401171	0.317236
N245	N	0.016243	-0.067837	0.650570
N246	N	0.349576	0.265496	0.983903
N247	N	-0.273950	-0.371806	0.274215
N248	N	0.059383	-0.038473	0.607549
N249	N	0.392717	0.294860	0.940882
H250	H	-0.241293	-0.400928	0.241651
H251	H	0.092040	-0.067595	0.574984
H252	H	0.425374	0.265739	0.908318
H253	H	-0.488177	-0.883816	0.796123
H254	H	-0.154843	-0.550483	1.129456
H255	H	0.178490	-0.217150	1.462789
N256	N	-0.500099	-0.237931	0.499692
N257	N	-0.166766	0.095402	0.833026
N258	N	0.166567	0.428735	1.166359
N259	N	-0.565187	-0.243578	0.497747
N260	N	-0.231853	0.089755	0.831080
N261	N	0.101480	0.423088	1.164414
H262	H	-0.597847	-0.214455	0.530306
H263	H	-0.264513	0.118878	0.863640
H264	H	0.068820	0.452212	1.196973
N265	N	-0.478299	-0.718334	0.477940
N266	N	-0.144965	-0.385001	0.811273
N267	N	0.188368	-0.051668	1.144607
N268	N	-0.518705	-0.682267	0.518227
N269	N	-0.185372	-0.348933	0.851560
N270	N	0.147962	-0.015600	1.184893
H271	H	-0.553578	-0.705971	0.552989
H272	H	-0.220245	-0.372637	0.886323
H273	H	0.113088	-0.039304	1.219656
H274	H	-0.796056	-1.053465	0.331768
H275	H	-0.462723	-0.720131	0.665101
H276	H	-0.129390	-0.386798	0.998434
H277	H	-0.992909	-1.087070	0.300906
H278	H	-0.659576	-0.753737	0.634239
H279	H	-0.326243	-0.420403	0.967573
H280	H	-0.496279	-0.379190	0.495882
H281	H	-0.162945	-0.045857	0.829215
H282	H	0.170388	0.287477	1.162548
H283	H	-0.320904	-0.259912	0.321049
H284	H	0.012429	0.073421	0.654382
H285	H	0.345762	0.406755	0.987716
N286	N	-0.291528	-1.097059	0.985989
N287	N	0.041805	-0.763725	1.319322
N288	N	0.375139	-0.430392	1.652655
N289	N	-0.289019	-1.099778	0.920371
N290	N	0.044314	-0.766445	1.253704
N291	N	0.377647	-0.433112	1.587037
H292	H	-0.256892	-1.134606	0.893972
H293	H	0.076441	-0.801272	1.227305
H294	H	0.409774	-0.467939	1.560639
N295	N	-0.282893	-0.585431	0.283146
N296	N	0.050440	-0.252098	0.616479
N297	N	0.383773	0.081236	0.949812
N298	N	-0.280160	-0.520023	0.280420
N299	N	0.053173	-0.186689	0.613754
N300	N	0.386507	0.146644	0.947087
H301	H	-0.245295	-0.496299	0.245664
H302	H	0.088039	-0.162966	0.578997
H303	H	0.421372	0.170367	0.912331
H304	H	-1.125725	-0.911877	0.462417
H305	H	-0.792391	-0.578544	0.795750
H306	H	-0.459058	-0.245210	1.129083
N307	N	-0.289084	-0.733520	0.289320
N308	N	0.044249	-0.400187	0.622653
N309	N	0.377582	-0.066853	0.955986
N310	N	-0.245935	-0.704161	0.246304
N311	N	0.087399	-0.370827	0.579637
N312	N	0.420732	-0.037494	0.912971
H313	H	-0.213270	-0.733286	0.213751
H314	H	0.120063	-0.399953	0.547085
H315	H	0.453397	-0.066619	0.880418
N316	N	-0.984757	-0.908013	0.465894
N317	N	-0.651424	-0.574679	0.799227
N318	N	-0.318090	-0.241346	1.132561
N319	N	-1.017451	-0.864904	0.505626
N320	N	-0.684117	-0.531571	0.838959
N321	N	-0.350784	-0.198238	1.172292
H322	H	-0.990848	-0.832261	0.535692
H323	H	-0.657515	-0.498928	0.869026
H324	H	-0.324182	-0.165594	1.202359
H325	H	-0.795541	-0.883785	0.488112
H326	H	-0.462208	-0.550451	0.821445
H327	H	-0.128874	-0.217118	1.154778
N328	N	-0.297225	-1.090894	1.134573
N329	N	0.036108	-0.757560	1.467906
N330	N	0.369442	-0.424227	1.801240
N331	N	-0.299741	-1.088161	1.200191
N332	N	0.033592	-0.754827	1.533524
N333	N	0.366926	-0.421494	1.866858
H334	H	-0.269654	-1.120794	1.226828
H335	H	0.063679	-0.787460	1.560161
H336	H	0.397012	-0.454127	1.893494
N337	N	-0.471522	-0.901804	1.133884
N338	N	-0.138189	-0.568471	1.467217
N339	N	0.195144	-0.235138	1.800551
N340	N	-0.508743	-0.861400	1.100920
N341	N	-0.175409	-0.528067	1.434253
N342	N	0.157924	-0.194734	1.767586
H343	H	-0.540841	-0.826536	1.127301
H344	H	-0.207507	-0.493203	1.460634
H345	H	0.125826	-0.159869	1.793968
