data_functionalizedCrystal
_audit_creation_method	'MofGen! by Chris Wilmer'
_symmetry_space_group_name_H-M	'P1'
_symmetry_Int_Tables_number	1
_symmetry_cell_setting	triclinic
loop_
_symmetry_equiv_pos_as_xyz
  x,y,z
_cell_length_a	18.215407
_cell_length_b	18.101397
_cell_length_c	18.215398
_cell_angle_alpha	90.028108
_cell_angle_beta	90.019464
_cell_angle_gamma	90.020914
loop_
_atom_site_label
_atom_site_type_symbol
_atom_site_fract_x
_atom_site_fract_y
_atom_site_fract_z
Zn1	Zn	1.125092	-0.294847	0.416102
Zn2	Zn	1.375092	-0.044847	0.666102
Zn3	Zn	1.625092	0.205153	0.916102
Zn4	Zn	1.875092	0.455153	1.166102
Zn5	Zn	1.125011	-0.418688	0.293030
Zn6	Zn	1.375011	-0.168688	0.543030
Zn7	Zn	1.625011	0.081312	0.793030
Zn8	Zn	1.875011	0.331312	1.043030
Zn9	Zn	1.002025	-0.294866	0.293050
Zn10	Zn	1.252025	-0.044866	0.543050
Zn11	Zn	1.502025	0.205134	0.793050
Zn12	Zn	1.752025	0.455134	1.043050
Zn13	Zn	1.002000	-0.418652	0.416055
Zn14	Zn	1.252000	-0.168652	0.666055
Zn15	Zn	1.502000	0.081348	0.916055
Zn16	Zn	1.752000	0.331348	1.166055
O17	O	1.063532	-0.356763	0.354559
O18	O	1.313532	-0.106763	0.604559
O19	O	1.563532	0.143237	0.854559
O20	O	1.813532	0.393237	1.104559
O21	O	1.228065	-0.311282	0.399788
O22	O	1.478065	-0.061282	0.649788
O23	O	1.728065	0.188718	0.899788
O24	O	1.978065	0.438718	1.149788
O25	O	1.108673	-0.402285	0.190048
O26	O	1.358673	-0.152285	0.440048
O27	O	1.608673	0.097715	0.690048
O28	O	1.858673	0.347715	0.940048
O29	O	1.018395	-0.191230	0.309401
O30	O	1.268395	0.058770	0.559401
O31	O	1.518395	0.308770	0.809401
O32	O	1.768395	0.558770	1.059401
O33	O	1.228006	-0.402267	0.309367
O34	O	1.478006	-0.152267	0.559367
O35	O	1.728006	0.097733	0.809367
O36	O	1.978006	0.347733	1.059367
O37	O	1.108811	-0.191216	0.399807
O38	O	1.358811	0.058784	0.649807
O39	O	1.608811	0.308784	0.899807
O40	O	1.858811	0.558784	1.149807
O41	O	1.018316	-0.311314	0.190063
O42	O	1.268316	-0.061314	0.440063
O43	O	1.518316	0.188686	0.690063
O44	O	1.768316	0.438686	0.940063
O45	O	0.899038	-0.311279	0.309355
O46	O	1.149038	-0.061279	0.559355
O47	O	1.399038	0.188721	0.809355
O48	O	1.649038	0.438721	1.059355
O49	O	1.018352	-0.402206	0.519046
O50	O	1.268352	-0.152206	0.769046
O51	O	1.518352	0.097794	1.019046
O52	O	1.768352	0.347794	1.269046
O53	O	0.899019	-0.402224	0.399726
O54	O	1.149019	-0.152224	0.649726
O55	O	1.399019	0.097776	0.899726
O56	O	1.649019	0.347776	1.149726
O57	O	1.108787	-0.311247	0.519080
O58	O	1.358787	-0.061247	0.769080
O59	O	1.608787	0.188753	1.019080
O60	O	1.858787	0.438753	1.269080
O61	O	1.108648	-0.522316	0.309322
O62	O	1.358648	-0.272316	0.559322
O63	O	1.608648	-0.022316	0.809322
O64	O	1.858648	0.227684	1.059322
O65	O	1.018273	-0.522290	0.399708
O66	O	1.268273	-0.272290	0.649708
O67	O	1.518273	-0.022290	0.899708
O68	O	1.768273	0.227710	1.149708
C69	C	0.872326	-0.356750	0.354538
C70	C	1.122326	-0.106750	0.604538
C71	C	1.372326	0.143250	0.854538
C72	C	1.622326	0.393250	1.104538
C73	C	0.790527	-0.356763	0.354546
C74	C	1.040527	-0.106763	0.604546
C75	C	1.290527	0.143237	0.854546
C76	C	1.540527	0.393237	1.104546
C77	C	0.602342	-0.404192	0.401544
C78	C	0.852342	-0.154192	0.651544
C79	C	1.102342	0.095808	0.901544
C80	C	1.352342	0.345808	1.151544
C81	C	0.525484	-0.404195	0.401553
C82	C	0.775484	-0.154195	0.651553
C83	C	1.025484	0.095805	0.901553
C84	C	1.275484	0.345805	1.151553
C85	C	0.525473	-0.309347	0.307591
C86	C	0.775473	-0.059347	0.557591
C87	C	1.025473	0.190653	0.807591
C88	C	1.275473	0.440653	1.057591
C89	C	0.602331	-0.309341	0.307586
C90	C	0.852331	-0.059341	0.557586
C91	C	1.102331	0.190659	0.807586
C92	C	1.352331	0.440659	1.057586
C93	C	0.640763	-0.356768	0.354561
C94	C	0.890763	-0.106768	0.604561
C95	C	1.140763	0.143232	0.854561
C96	C	1.390763	0.393232	1.104561
C97	C	0.487047	-0.356776	0.354575
C98	C	0.737047	-0.106776	0.604575
C99	C	0.987047	0.143224	0.854575
C100	C	1.237047	0.393224	1.104575
C101	C	0.403713	-0.356778	0.354585
C102	C	0.653713	-0.106778	0.604585
C103	C	0.903713	0.143222	0.854585
C104	C	1.153713	0.393222	1.104585
C105	C	0.724102	-0.356765	0.354553
C106	C	0.974102	-0.106765	0.604553
C107	C	1.224102	0.143235	0.854553
C108	C	1.474102	0.393235	1.104553
C109	C	1.063469	-0.549174	0.354524
C110	C	1.313469	-0.299174	0.604524
C111	C	1.563469	-0.049174	0.854524
C112	C	1.813469	0.200826	1.104524
C113	C	1.063509	-0.631488	0.354533
C114	C	1.313509	-0.381488	0.604533
C115	C	1.563509	-0.131488	0.854533
C116	C	1.813509	0.118512	1.104533
C117	C	1.063603	-0.930579	0.354600
C118	C	1.313603	-0.680579	0.604600
C119	C	1.563603	-0.430579	0.854600
C120	C	1.813603	-0.180579	1.104600
C121	C	1.120306	-0.899239	0.297579
C122	C	1.370306	-0.649239	0.547579
C123	C	1.620306	-0.399239	0.797579
C124	C	1.870306	-0.149239	1.047579
C125	C	1.120503	-0.813621	0.297727
C126	C	1.370503	-0.563621	0.547727
C127	C	1.620503	-0.313621	0.797727
C128	C	1.870503	-0.063621	1.047727
C129	C	1.063557	-0.782196	0.354566
C130	C	1.313557	-0.532196	0.604566
C131	C	1.563557	-0.282196	0.854566
C132	C	1.813557	-0.032196	1.104566
C133	C	1.084581	-0.813207	0.432138
C134	C	1.334581	-0.563207	0.682138
C135	C	1.584581	-0.313207	0.932138
C136	C	1.834581	-0.063207	1.182138
C137	C	1.085019	-0.898851	0.431828
C138	C	1.335019	-0.648851	0.681828
C139	C	1.585019	-0.398851	0.931828
C140	C	1.835019	-0.148851	1.181828
C141	C	0.985725	-0.899087	0.334720
C142	C	1.235725	-0.649087	0.584720
C143	C	1.485725	-0.399087	0.834720
C144	C	1.735725	-0.149087	1.084720
C145	C	0.986109	-0.813438	0.332988
C146	C	1.236109	-0.563438	0.582988
C147	C	1.486109	-0.313438	0.832988
C148	C	1.736109	-0.063438	1.082988
C149	C	1.063529	-0.698337	0.354552
C150	C	1.313529	-0.448337	0.604552
C151	C	1.563529	-0.198337	0.854552
C152	C	1.813529	0.051663	1.104552
C153	C	1.063633	-1.014438	0.354620
C154	C	1.313633	-0.764438	0.604620
C155	C	1.563633	-0.514438	0.854620
C156	C	1.813633	-0.264438	1.104620
C157	C	1.255485	-0.356776	0.354581
C158	C	1.505485	-0.106776	0.604581
C159	C	1.755485	0.143224	0.854581
C160	C	2.005485	0.393224	1.104581
C161	C	1.337284	-0.356782	0.354590
C162	C	1.587284	-0.106782	0.604590
C163	C	1.837284	0.143218	0.854590
C164	C	2.087284	0.393218	1.104590
C165	C	1.063575	-0.356720	0.546512
C166	C	1.313575	-0.106720	0.796512
C167	C	1.563575	0.143280	1.046512
C168	C	1.813575	0.393280	1.296512
C169	C	1.063594	-0.356702	0.628311
C170	C	1.313594	-0.106702	0.878311
C171	C	1.563594	0.143298	1.128311
C172	C	1.813594	0.393298	1.378311
C173	C	1.063615	-0.163601	0.354611
C174	C	1.313615	0.086399	0.604611
C175	C	1.563615	0.336399	0.854611
C176	C	1.813615	0.586399	1.104611
C177	C	1.063651	-0.081287	0.354633
C178	C	1.313651	0.168713	0.604633
C179	C	1.563651	0.418713	0.854633
C180	C	1.813651	0.668713	1.104633
C181	C	1.063531	-0.356752	0.163353
C182	C	1.313531	-0.106752	0.413353
C183	C	1.563531	0.143248	0.663353
C184	C	1.813531	0.393248	0.913353
C185	C	1.063655	-0.356561	0.081554
C186	C	1.313655	-0.106561	0.331554
C187	C	1.563655	0.143439	0.581554
C188	C	1.813655	0.393439	0.831554
C189	C	1.110676	-0.403980	0.893366
C190	C	1.360676	-0.153980	1.143366
C191	C	1.610676	0.096020	1.393366
C192	C	1.860676	0.346020	1.643366
C193	C	1.110665	-0.404006	0.816507
C194	C	1.360665	-0.154006	1.066507
C195	C	1.610665	0.095994	1.316507
C196	C	1.860665	0.345994	1.566507
C197	C	1.016567	-0.309282	0.816505
C198	C	1.266567	-0.059282	1.066505
C199	C	1.516567	0.190718	1.316505
C200	C	1.766567	0.440718	1.566505
C201	C	1.016575	-0.309260	0.893363
C202	C	1.266575	-0.059260	1.143363
C203	C	1.516575	0.190740	1.393363
C204	C	1.766575	0.440740	1.643363
C205	C	1.063634	-0.356608	0.931791
C206	C	1.313634	-0.106608	1.181791
C207	C	1.563634	0.143392	1.431791
C208	C	1.813634	0.393392	1.681791
C209	C	1.063615	-0.356655	0.778075
C210	C	1.313615	-0.106655	1.028075
C211	C	1.563615	0.143345	1.278075
C212	C	1.813615	0.393345	1.528075
C213	C	1.063602	-0.356683	0.694741
C214	C	1.313602	-0.106683	0.944741
C215	C	1.563602	0.143317	1.194741
C216	C	1.813602	0.393317	1.444741
C217	C	1.063646	-0.356582	1.015130
C218	C	1.313646	-0.106582	1.265130
C219	C	1.563646	0.143418	1.515130
C220	C	1.813646	0.393418	1.765130
H221	H	0.633614	-0.270719	0.269327
H222	H	0.883614	-0.020719	0.519327
H223	H	1.133614	0.229281	0.769327
H224	H	1.383614	0.479281	1.019327
H225	H	0.943477	-0.919355	0.376251
H226	H	1.193477	-0.669355	0.626251
H227	H	1.443477	-0.419355	0.876251
H228	H	1.693477	-0.169355	1.126251
H229	H	0.494205	-0.442811	0.439812
H230	H	0.744205	-0.192811	0.689812
H231	H	0.994205	0.057189	0.939812
H232	H	1.244205	0.307189	1.189812
C233	C	1.160624	-0.784163	0.455272
C234	C	1.410624	-0.534163	0.705272
C235	C	1.660624	-0.284163	0.955272
C236	C	1.910624	-0.034163	1.205272
H237	H	1.179661	-0.753148	0.417766
H238	H	1.429661	-0.503148	0.667766
H239	H	1.679661	-0.253148	0.917766
H240	H	1.929661	-0.003148	1.167766
H241	H	1.156196	-0.756779	0.499548
H242	H	1.406196	-0.506779	0.749548
H243	H	1.656196	-0.256779	0.999548
H244	H	1.906196	-0.006779	1.249548
H245	H	1.192935	-0.824653	0.462757
H246	H	1.442935	-0.574653	0.712757
H247	H	1.692935	-0.324653	0.962757
H248	H	1.942935	-0.074653	1.212757
C249	C	1.102732	-0.785292	0.220029
C250	C	1.352732	-0.535292	0.470029
C251	C	1.602732	-0.285292	0.720029
C252	C	1.852732	-0.035292	0.970029
H253	H	1.102825	-0.732808	0.220016
H254	H	1.352825	-0.482808	0.470016
H255	H	1.602825	-0.232808	0.720016
H256	H	1.852825	0.017192	0.970016
H257	H	1.138701	-0.802864	0.186560
H258	H	1.388701	-0.552864	0.436560
H259	H	1.638701	-0.302864	0.686560
H260	H	1.888701	-0.052864	0.936560
H261	H	1.055694	-0.802722	0.205579
H262	H	1.305694	-0.552722	0.455579
H263	H	1.555694	-0.302722	0.705579
H264	H	1.805694	-0.052722	0.955579
C265	C	1.102831	-0.927222	0.219661
C266	C	1.352831	-0.677222	0.469661
C267	C	1.602831	-0.427222	0.719661
C268	C	1.852831	-0.177222	0.969661
H269	H	1.060793	-0.958262	0.221202
H270	H	1.310793	-0.708262	0.471202
H271	H	1.560793	-0.458262	0.721202
H272	H	1.810793	-0.208262	0.971202
H273	H	1.093427	-0.886327	0.188382
H274	H	1.343427	-0.636327	0.438382
H275	H	1.593427	-0.386327	0.688382
H276	H	1.843427	-0.136327	0.938382
H277	H	1.143512	-0.954383	0.201338
H278	H	1.393512	-0.704383	0.451338
H279	H	1.643512	-0.454383	0.701338
H280	H	1.893512	-0.204383	0.951338
H281	H	0.494172	-0.270735	0.269344
H282	H	0.744172	-0.020735	0.519344
H283	H	0.994172	0.229265	0.769344
H284	H	1.244172	0.479265	1.019344
H285	H	1.177679	-0.920707	0.310582
H286	H	1.427679	-0.670707	0.560582
H287	H	1.677679	-0.420707	0.810582
H288	H	1.927679	-0.170707	1.060582
H289	H	1.148994	-0.442534	0.924652
H290	H	1.398994	-0.192534	1.174652
H291	H	1.648994	0.057466	1.424652
H292	H	1.898994	0.307466	1.674652
H293	H	0.966599	-0.920746	0.279135
H294	H	1.216599	-0.670746	0.529135
H295	H	1.466599	-0.420746	0.779135
H296	H	1.716599	-0.170746	1.029135
C297	C	1.030486	-0.785731	0.491077
C298	C	1.280486	-0.535731	0.741077
C299	C	1.530486	-0.285731	0.991077
C300	C	1.780486	-0.035731	1.241077
H301	H	1.044206	-0.805144	0.537544
H302	H	1.294206	-0.555144	0.787544
H303	H	1.544206	-0.305144	1.037544
H304	H	1.794206	-0.055144	1.287544
H305	H	1.031582	-0.733295	0.492903
H306	H	1.281582	-0.483295	0.742903
H307	H	1.531582	-0.233295	0.992903
H308	H	1.781582	0.016705	1.242903
H309	H	0.982287	-0.801824	0.479148
H310	H	1.232287	-0.551824	0.729148
H311	H	1.482287	-0.301824	0.979148
H312	H	1.732287	-0.051824	1.229148
C313	C	1.198431	-0.785863	0.315501
C314	C	1.448431	-0.535863	0.565501
C315	C	1.698431	-0.285863	0.815501
C316	C	1.948431	-0.035863	1.065501
H317	H	1.230090	-0.826930	0.322666
H318	H	1.480090	-0.576930	0.572666
H319	H	1.730090	-0.326930	0.822666
H320	H	1.980090	-0.076930	1.072666
H321	H	1.216082	-0.756737	0.275889
H322	H	1.466082	-0.506737	0.525889
H323	H	1.716082	-0.256737	0.775889
H324	H	1.966082	-0.006737	1.025889
H325	H	1.197200	-0.756805	0.358927
H326	H	1.447200	-0.506805	0.608927
H327	H	1.697200	-0.256805	0.858927
H328	H	1.947200	-0.006805	1.108927
H329	H	0.970257	-0.793177	0.275902
H330	H	1.220257	-0.543177	0.525902
H331	H	1.470257	-0.293177	0.775902
H332	H	1.720257	-0.043177	1.025902
C333	C	1.162410	-0.456113	0.774239
C334	C	1.412410	-0.206113	1.024239
C335	C	1.662410	0.043887	1.274239
C336	C	1.912410	0.293887	1.524239
H337	H	1.155662	-0.449352	0.722961
H338	H	1.405662	-0.199352	0.972961
H339	H	1.655662	0.050648	1.222961
H340	H	1.905662	0.300648	1.472961
H341	H	1.211863	-0.445272	0.786846
H342	H	1.461863	-0.195272	1.036846
H343	H	1.711863	0.054728	1.286846
H344	H	1.961863	0.304728	1.536846
H345	H	1.151618	-0.505869	0.786826
H346	H	1.401618	-0.255869	1.036826
H347	H	1.651618	-0.005869	1.286826
H348	H	1.901618	0.244131	1.536826
H349	H	0.941589	-0.792054	0.371478
H350	H	1.191589	-0.542054	0.621478
H351	H	1.441589	-0.292054	0.871478
H352	H	1.691589	-0.042054	1.121478
H353	H	0.978264	-0.270684	0.924649
H354	H	1.228264	-0.020684	1.174649
H355	H	1.478264	0.229316	1.424649
H356	H	1.728264	0.479316	1.674649
C357	C	0.644616	-0.456353	0.453221
C358	C	0.894616	-0.206353	0.703221
C359	C	1.144616	0.043647	0.953221
C360	C	1.394616	0.293647	1.203221
H361	H	0.610723	-0.484591	0.481209
H362	H	0.860723	-0.234591	0.731209
H363	H	1.110723	0.015409	0.981209
H364	H	1.360723	0.265409	1.231209
H365	H	0.674578	-0.488583	0.425015
H366	H	0.924578	-0.238583	0.675015
H367	H	1.174578	0.011417	0.925015
H368	H	1.424578	0.261417	1.175015
H369	H	0.674617	-0.428056	0.485337
H370	H	0.924617	-0.178056	0.735337
H371	H	1.174617	0.071944	0.985337
H372	H	1.424617	0.321944	1.235337
C373	C	1.161921	-0.925765	0.454567
C374	C	1.411921	-0.675765	0.704567
C375	C	1.661921	-0.425765	0.954567
C376	C	1.911921	-0.175765	1.204567
H377	H	1.192601	-0.884356	0.463903
H378	H	1.442601	-0.634356	0.713903
H379	H	1.692601	-0.384356	0.963903
H380	H	1.942601	-0.134356	1.213903
H381	H	1.158179	-0.954967	0.497720
H382	H	1.408179	-0.704967	0.747720
H383	H	1.658179	-0.454967	0.997720
H384	H	1.908179	-0.204967	1.247720
H385	H	1.182434	-0.954564	0.416092
H386	H	1.432434	-0.704564	0.666092
H387	H	1.682434	-0.454564	0.916092
H388	H	1.932434	-0.204564	1.166092
H389	H	0.978255	-0.270732	0.785207
H390	H	1.228255	-0.020732	1.035207
H391	H	1.478255	0.229268	1.285207
H392	H	1.728255	0.479268	1.535207
C393	C	1.031661	-0.926859	0.491185
C394	C	1.281661	-0.676859	0.741185
C395	C	1.531661	-0.426859	0.991185
C396	C	1.781661	-0.176859	1.241185
H397	H	1.009816	-0.885892	0.515385
H398	H	1.259816	-0.635892	0.765385
H399	H	1.509816	-0.385892	1.015385
H400	H	1.759816	-0.135892	1.265385
H401	H	0.994469	-0.956066	0.468916
H402	H	1.244469	-0.706066	0.718916
H403	H	1.494469	-0.456066	0.968916
H404	H	1.744469	-0.206066	1.218916
H405	H	1.057791	-0.955887	0.525886
H406	H	1.307791	-0.705887	0.775886
H407	H	1.557791	-0.455887	1.025886
H408	H	1.807791	-0.205887	1.275886
