data_functionalizedCrystal
_audit_creation_method	'MofGen! by Chris Wilmer'
_symmetry_space_group_name_H-M	'P1'
_symmetry_Int_Tables_number	1
_symmetry_cell_setting	triclinic
loop_
_symmetry_equiv_pos_as_xyz
  x,y,z
_cell_length_a	16.959447
_cell_length_b	12.759401
_cell_length_c	12.759399
_cell_angle_alpha	90.015766
_cell_angle_beta	90.020893
_cell_angle_gamma	90.015428
loop_
_atom_site_label
_atom_site_type_symbol
_atom_site_fract_x
_atom_site_fract_y
_atom_site_fract_z
Zn1	Zn	-0.446897	-1.606217	0.418278
Zn2	Zn	-0.314732	-1.606118	0.593974
Zn3	Zn	-0.314740	-1.430528	0.418310
Zn4	Zn	-0.446876	-1.430505	0.593916
O5	O	-0.380811	-1.518342	0.506119
O6	O	-0.429371	-1.753225	0.441595
O7	O	-0.204122	-1.582794	0.570709
O8	O	-0.332283	-1.453885	0.271285
O9	O	-0.332270	-1.753152	0.570678
O10	O	-0.429378	-1.582963	0.271261
O11	O	-0.204128	-1.453789	0.441650
O12	O	-0.332262	-1.283504	0.441594
O13	O	-0.557489	-1.453845	0.570580
O14	O	-0.429342	-1.283487	0.570611
O15	O	-0.557505	-1.582940	0.441539
O16	O	-0.332249	-1.582771	0.740987
O17	O	-0.429334	-1.453749	0.740945
C18	C	-0.380806	-1.518275	0.779087
C19	C	-0.380830	-1.518343	0.895863
C20	C	-0.380801	-1.245375	0.506100
C21	C	-0.380815	-1.128598	0.506117
C22	C	-0.586980	-1.518401	0.506050
C23	C	-0.674836	-1.518426	0.506020
C24	C	-0.716103	-1.451225	0.573192
C25	C	-0.716123	-1.585644	0.438813
C26	C	-0.798668	-1.585666	0.438778
C27	C	-0.839936	-1.518465	0.505951
C28	C	-0.798657	-1.451243	0.573158
C29	C	-0.839953	-1.652880	0.371565
C30	C	-0.922504	-1.652904	0.371527
C31	C	-0.963773	-1.585707	0.438706
C32	C	-0.922489	-1.518483	0.505916
C33	C	-0.963757	-1.451282	0.573089
C34	C	-0.922474	-1.384062	0.640305
C35	C	-0.839926	-1.384047	0.640336
C36	C	-1.046322	-1.585723	0.438675
C37	C	-1.046310	-1.451300	0.573054
C38	C	-0.175445	-1.518344	0.506113
C39	C	-0.087589	-1.518522	0.505847
C40	C	-0.380822	-1.792375	0.506140
C41	C	-0.380827	-1.909152	0.506148
C42	C	-0.431281	-1.073754	0.573404
C43	C	-0.431289	-0.964030	0.573417
C44	C	-0.330359	-0.964003	0.438854
C45	C	-0.330355	-1.073725	0.438836
C46	C	-0.489549	-1.073769	0.651096
C47	C	-0.489558	-0.964045	0.651109
C48	C	-0.330336	-1.585598	0.950713
C49	C	-0.330365	-1.585661	1.060437
C50	C	-0.431384	-1.451204	1.060453
C51	C	-0.431359	-1.451147	0.950731
C52	C	-0.272011	-1.663223	0.950704
C53	C	-0.272040	-1.663286	1.060428
C54	C	-0.380844	-1.518434	1.232086
C55	C	-0.380885	-1.518462	1.115309
H56	H	-0.956085	-1.329342	0.694991
H57	H	-0.547752	-0.930044	0.622075
H58	H	-0.294019	-1.740588	1.094377
O59	O	-0.485880	-1.378727	1.119629
H60	H	-0.472269	-1.296271	1.098640
O61	O	-0.795403	-1.311537	0.712818
H62	H	-0.731069	-1.322805	0.701544
O63	O	-0.485811	-1.378597	0.891566
H64	H	-0.520938	-1.331871	0.948155
O65	O	-0.570671	-1.113254	0.622355
H66	H	-0.594308	-1.161566	0.687498
H67	H	-1.079930	-1.640444	0.383940
O68	O	-0.795441	-1.725361	0.299128
H69	H	-0.757818	-1.678346	0.245704
O70	O	-0.967033	-1.725402	0.299040
H71	H	-0.951199	-1.807850	0.317073
H72	H	-0.682488	-1.396499	0.627921
H73	H	-0.682518	-1.640351	0.384119
O74	O	-0.275931	-1.132874	0.366249
H75	H	-0.284409	-1.218390	0.377529
O76	O	-0.293785	-1.770967	0.911151
H77	H	-0.293741	-1.770855	0.824161
H78	H	-0.289278	-0.919312	0.384076
O79	O	-0.467693	-0.924561	0.758850
H80	H	-0.456974	-0.992248	0.811584
H81	H	-0.467520	-1.107784	0.728344
H82	H	-0.213833	-1.634103	0.916747
H83	H	-0.210815	-1.641552	1.090280
H84	H	-1.079904	-1.396580	0.627759
