data_functionalizedCrystal
_audit_creation_method	'MofGen! by Chris Wilmer'
_symmetry_space_group_name_H-M	'P1'
_symmetry_Int_Tables_number	1
_symmetry_cell_setting	triclinic
loop_
_symmetry_equiv_pos_as_xyz
  x,y,z
_cell_length_a	17.019282
_cell_length_b	17.000371
_cell_length_c	15.500227
_cell_angle_alpha	92.601831
_cell_angle_beta	91.034464
_cell_angle_gamma	79.503272
loop_
_atom_site_label
_atom_site_type_symbol
_atom_site_fract_x
_atom_site_fract_y
_atom_site_fract_z
O1	O	1.039349	0.101639	0.005516
O2	O	1.372683	0.434973	0.338850
O3	O	1.706016	0.768306	0.672183
O4	O	0.809720	0.113703	-0.011599
O5	O	1.143054	0.447036	0.321734
O6	O	1.476387	0.780370	0.655067
O7	O	0.938793	-0.008157	-0.001973
O8	O	1.272126	0.325176	0.331361
O9	O	1.605459	0.658509	0.664694
O10	O	0.910277	0.223500	-0.004110
O11	O	1.243610	0.556833	0.329223
O12	O	1.576944	0.890166	0.662556
O13	O	0.930962	-0.000792	0.141332
O14	O	1.264296	0.332542	0.474665
O15	O	1.597629	0.665875	0.807999
O16	O	0.801890	0.121069	0.131705
O17	O	1.135223	0.454402	0.465039
O18	O	1.468556	0.787735	0.798372
O19	O	1.031519	0.109005	0.148821
O20	O	1.364852	0.442338	0.482154
O21	O	1.698186	0.775672	0.815488
Cu22	Cu	0.915989	0.115709	0.153348
Cu23	Cu	1.249323	0.449043	0.486681
Cu24	Cu	1.582656	0.782376	0.820015
Cu25	Cu	0.925250	0.106999	-0.016126
Cu26	Cu	1.258583	0.440332	0.317207
Cu27	Cu	1.591916	0.773665	0.650540
O28	O	0.902447	0.230865	0.139194
O29	O	1.235780	0.564199	0.472528
O30	O	1.569113	0.897532	0.805861
C31	C	0.776569	0.116785	0.057874
C32	C	1.109902	0.450118	0.391207
C33	C	1.443235	0.783452	0.724541
C34	C	0.689454	0.114985	0.051381
C35	C	1.022788	0.448319	0.384714
C36	C	1.356121	0.781652	0.718048
C37	C	0.644264	0.118153	0.126448
C38	C	0.977598	0.451486	0.459781
C39	C	1.310931	0.784820	0.793115
C40	C	0.562413	0.116449	0.120350
C41	C	0.895747	0.449782	0.453683
C42	C	1.229080	0.783116	0.787016
C43	C	0.525753	0.111583	0.039183
C44	C	0.859086	0.444917	0.372517
C45	C	1.192420	0.778250	0.705850
C46	C	0.570950	0.108413	-0.035889
C47	C	0.904283	0.441747	0.297444
C48	C	1.237616	0.775080	0.630778
C49	C	0.652800	0.110111	-0.029790
C50	C	0.986133	0.443445	0.303543
C51	C	1.319467	0.776778	0.636877
C52	C	0.278832	0.106250	0.016860
C53	C	0.612166	0.439584	0.350193
C54	C	0.945499	0.772917	0.683527
C55	C	0.196975	0.104555	0.010766
C56	C	0.530309	0.437888	0.344100
C57	C	0.863642	0.771222	0.677433
C58	C	0.188445	0.112589	0.167006
C59	C	0.521778	0.445923	0.500339
C60	C	0.855112	0.779256	0.833672
C61	C	0.270296	0.114292	0.173098
C62	C	0.603630	0.447625	0.506431
C63	C	0.936963	0.780959	0.839764
C64	C	0.315487	0.111117	0.098025
C65	C	0.648820	0.444451	0.431359
C66	C	0.982153	0.777784	0.764692
C67	C	0.442088	0.109844	0.032948
C68	C	0.775421	0.443178	0.366281
C69	C	1.108755	0.776511	0.699615
C70	C	0.399151	0.112851	0.104262
C71	C	0.732485	0.446184	0.437595
C72	C	1.065818	0.779517	0.770928
C73	C	0.936409	-0.034124	0.069794
C74	C	1.269742	0.299209	0.403127
C75	C	1.603076	0.632543	0.736460
C76	C	0.940964	-0.122471	0.070132
C77	C	1.274297	0.210863	0.403466
C78	C	1.607630	0.544196	0.736799
C79	C	0.870875	-0.154681	0.064904
C80	C	1.204208	0.178652	0.398238
C81	C	1.537542	0.511985	0.731571
C82	C	0.875159	-0.237693	0.065226
C83	C	1.208492	0.095641	0.398559
C84	C	1.541826	0.428974	0.731893
C85	C	0.949533	-0.288493	0.070769
C86	C	1.282866	0.044841	0.404103
C87	C	1.616200	0.378174	0.737436
C88	C	1.019627	-0.256277	0.076000
C89	C	1.352960	0.077056	0.409334
C90	C	1.686293	0.410390	0.742667
C91	C	1.015341	-0.173267	0.075685
C92	C	1.348675	0.160067	0.409018
C93	C	1.682008	0.493400	0.742351
C94	C	0.966085	-0.539595	0.071997
C95	C	1.299418	-0.206262	0.405331
C96	C	1.632751	0.127071	0.738664
C97	C	0.970365	-0.622611	0.072310
C98	C	1.303698	-0.289278	0.405643
C99	C	1.637031	0.044056	0.738977
C100	C	0.825896	-0.604021	0.061537
C101	C	1.159230	-0.270688	0.394870
C102	C	1.492563	0.062646	0.728204
C103	C	0.821618	-0.521010	0.061217
C104	C	1.154951	-0.187677	0.394550
C105	C	1.488285	0.145657	0.727883
C106	C	0.891711	-0.488801	0.066452
C107	C	1.225045	-0.155468	0.399786
C108	C	1.558378	0.177865	0.733119
C109	C	0.953914	-0.373344	0.071096
C110	C	1.287247	-0.040011	0.404429
C111	C	1.620580	0.293322	0.737762
C112	C	0.887329	-0.403951	0.066132
C113	C	1.220663	-0.070618	0.399465
C114	C	1.553996	0.262716	0.732799
C115	C	1.064671	0.105923	0.079346
C116	C	1.398004	0.439256	0.412679
C117	C	1.731337	0.772590	0.746013
C118	C	1.151785	0.107722	0.085833
C119	C	1.485119	0.441056	0.419167
C120	C	1.818452	0.774389	0.752500
C121	C	0.904830	0.256832	0.067426
C122	C	1.238164	0.590165	0.400760
C123	C	1.571497	0.923499	0.734093
C124	C	0.900276	0.345178	0.067082
C125	C	1.233609	0.678512	0.400415
C126	C	1.566943	1.011845	0.733749
N127	N	0.909482	0.121836	0.272548
N128	N	1.242815	0.455169	0.605881
N129	N	1.576149	0.788502	0.939214
N130	N	0.931764	0.100866	-0.135325
N131	N	1.265097	0.434199	0.198008
N132	N	1.598431	0.767533	0.531341
C133	C	0.964191	0.070218	0.321905
C134	C	1.297524	0.403552	0.655238
C135	C	1.630857	0.736885	0.988571
C136	C	0.959276	0.074859	0.412111
C137	C	1.292609	0.408192	0.745444
C138	C	1.625943	0.741526	1.078778
C139	C	0.899655	0.131121	0.452959
C140	C	1.232989	0.464454	0.786292
C141	C	1.566322	0.797788	1.119625
C142	C	0.844941	0.182741	0.403595
C143	C	1.178274	0.516074	0.736928
C144	C	1.511607	0.849407	1.070262
C145	C	0.849853	0.178096	0.313390
C146	C	1.183186	0.511429	0.646724
C147	C	1.516519	0.844763	0.980057
C148	C	0.881961	0.147841	0.725106
C149	C	1.215295	0.481174	1.058439
C150	C	1.548628	0.814508	1.391773
C151	C	0.877055	0.152484	0.815318
C152	C	1.210388	0.485817	1.148651
C153	C	1.543722	0.819150	1.481984
C154	C	0.991390	0.044600	0.823827
C155	C	1.324723	0.377933	1.157161
C156	C	1.658057	0.711267	1.490494
C157	C	0.996300	0.039963	0.733620
C158	C	1.329633	0.373297	1.066954
C159	C	1.662966	0.706630	1.400287
C160	C	0.941583	0.091580	0.684264
C161	C	1.274916	0.424913	1.017598
C162	C	1.608249	0.758247	1.350931
C163	C	0.894632	0.135868	0.545164
C164	C	1.227965	0.469201	0.878497
C165	C	1.561298	0.802534	1.211831
C166	C	0.946603	0.086829	0.592061
C167	C	1.279937	0.420163	0.925394
C168	C	1.613270	0.753496	1.258727
H169	H	0.525626	0.119015	0.181477
H170	H	0.858959	0.452349	0.514811
H171	H	1.192292	0.785682	0.848144
H172	H	1.030932	-0.663972	0.076819
H173	H	1.364266	-0.330639	0.410152
H174	H	1.697599	0.002695	0.743485
Br175	Br	1.120563	-0.325218	0.083538
Br176	Br	1.453897	0.008115	0.416871
Br177	Br	1.787230	0.341448	0.750204
H178	H	0.412230	0.105882	-0.033138
H179	H	0.745563	0.439216	0.300196
H180	H	1.078897	0.772549	0.633529
Br181	Br	0.521204	0.101775	-0.146044
Br182	Br	0.854538	0.435108	0.187289
Br183	Br	1.187871	0.768441	0.520622
H184	H	0.837410	0.189871	0.684927
H185	H	1.170743	0.523204	1.018261
H186	H	1.504076	0.856538	1.351594
H187	H	0.674105	0.122122	0.192542
H188	H	1.007439	0.455455	0.525875
H189	H	1.340772	0.788788	0.859209
Br190	Br	1.033522	0.004803	0.479098
Br191	Br	1.366855	0.338136	0.812432
Br192	Br	1.700189	0.671470	1.145765
Br193	Br	0.786396	-0.335007	0.058616
Br194	Br	1.119730	-0.001674	0.391949
Br195	Br	1.453063	0.331659	0.725282
H196	H	0.761055	-0.479653	0.056700
H197	H	1.094388	-0.146320	0.390033
H198	H	1.427722	0.187013	0.723367
Br199	Br	0.769934	-0.085746	0.057372
Br200	Br	1.103268	0.247587	0.390706
Br201	Br	1.436601	0.580920	0.724039
Br202	Br	0.764019	0.259093	0.459027
Br203	Br	1.097353	0.592426	0.792361
Br204	Br	1.430686	0.925760	1.125694
Br205	Br	1.061214	-0.495895	0.079072
Br206	Br	1.394547	-0.162562	0.412405
Br207	Br	1.727880	0.170771	0.745739
H208	H	1.012743	0.024407	0.288653
H209	H	1.346077	0.357740	0.621986
H210	H	1.679410	0.691074	0.955320
Br211	Br	0.730775	-0.647737	0.054432
Br212	Br	1.064108	-0.314404	0.387765
Br213	Br	1.397442	0.018929	0.721098
H214	H	0.828502	0.198302	0.848571
H215	H	1.161835	0.531636	1.181904
H216	H	1.495169	0.864969	1.515238
H217	H	0.818086	-0.263914	0.060962
H218	H	1.151419	0.069419	0.394296
H219	H	1.484752	0.402752	0.727629
Br220	Br	0.775597	0.248146	0.246405
Br221	Br	1.108930	0.581480	0.579738
Br222	Br	1.442263	0.914813	0.913072
Br223	Br	0.714132	0.105805	-0.131671
Br224	Br	1.047466	0.439138	0.201663
Br225	Br	1.380799	0.772472	0.534996
H226	H	1.072415	-0.147043	0.079943
H227	H	1.405748	0.186291	0.413277
H228	H	1.739082	0.519624	0.746610
H229	H	1.014469	-0.414715	0.075608
H230	H	1.347802	-0.081381	0.408941
H231	H	1.681136	0.251952	0.742274
H232	H	1.044848	-0.005850	0.700364
H233	H	1.378181	0.327483	1.033698
H234	H	1.711514	0.660817	1.367031
Br235	Br	1.065644	-0.025449	0.890813
Br236	Br	1.398977	0.307884	1.224146
Br237	Br	1.732311	0.641217	1.557480
H238	H	0.151643	0.115172	0.228125
H239	H	0.484976	0.448506	0.561459
H240	H	0.818309	0.781839	0.894792
Br241	Br	0.813718	0.212223	0.600604
Br242	Br	1.147051	0.545556	0.933937
Br243	Br	1.480385	0.878890	1.267270
H244	H	0.167129	0.100595	-0.055332
H245	H	0.500462	0.433928	0.278001
H246	H	0.833796	0.767261	0.611334
H247	H	0.995144	0.041018	0.558799
H248	H	1.328477	0.374351	0.892133
H249	H	1.661811	0.707684	1.225466
H250	H	0.300140	0.118250	0.239192
H251	H	0.633473	0.451584	0.572525
H252	H	0.966807	0.784917	0.905858
H253	H	0.315617	0.103663	-0.044270
H254	H	0.648950	0.436996	0.289064
H255	H	0.982284	0.770329	0.622397
Br256	Br	0.448907	0.119449	0.214412
Br257	Br	0.782240	0.452782	0.547746
Br258	Br	1.115573	0.786115	0.881079
