data_functionalizedCrystal
_audit_creation_method	'MofGen! by Chris Wilmer'
_symmetry_space_group_name_H-M	'P1'
_symmetry_Int_Tables_number	1
_symmetry_cell_setting	triclinic
loop_
_symmetry_equiv_pos_as_xyz
  x,y,z
_cell_length_a	17.038272
_cell_length_b	10.654550
_cell_length_c	9.730223
_cell_angle_alpha	90.000043
_cell_angle_beta	89.995299
_cell_angle_gamma	92.201757
loop_
_atom_site_label
_atom_site_type_symbol
_atom_site_fract_x
_atom_site_fract_y
_atom_site_fract_z
O1	O	0.109878	-1.678042	-0.114188
O2	O	0.120346	-1.313535	-0.114214
O3	O	0.001285	-1.493622	-0.114190
O4	O	0.228940	-1.497955	-0.114212
O5	O	0.001281	-1.493609	0.114390
O6	O	0.120343	-1.313523	0.114366
O7	O	0.109875	-1.678029	0.114392
Zn8	Zn	0.115108	-1.495774	0.150671
Zn9	Zn	0.115113	-1.495791	-0.150493
O10	O	0.228936	-1.497942	0.114368
C11	C	0.119576	-1.266660	0.000073
C12	C	0.117276	-1.127003	0.000064
N13	N	0.115105	-1.495771	0.356207
C14	C	-0.027867	-1.489675	0.000099
C15	C	-0.114726	-1.477918	0.000098
C16	C	-0.164237	-1.585862	0.000107
C17	C	-0.245849	-1.574808	0.000093
C18	C	-0.277949	-1.455808	0.000080
C19	C	-0.228431	-1.347855	0.000067
C20	C	-0.146820	-1.358911	0.000071
C21	C	-0.523925	-1.416750	0.000059
C22	C	-0.605542	-1.405702	0.000059
C23	C	-0.622955	-1.632655	0.000082
C24	C	-0.541341	-1.643701	0.000094
C25	C	-0.491831	-1.535748	0.000074
C26	C	-0.361369	-1.444505	0.000070
C27	C	-0.408412	-1.547052	0.000074
C28	C	0.258088	-1.501889	0.000076
C29	C	0.344947	-1.513646	0.000068
C30	C	0.110645	-1.724905	0.000102
C31	C	0.112945	-1.864561	0.000102
C32	C	0.187378	-1.054026	0.000061
C33	C	0.185213	-0.922805	0.000085
C34	C	0.042838	-0.937548	0.000109
C35	C	0.045004	-1.068767	0.000095
N36	N	0.115110	-1.495802	-0.356029
C37	C	0.062407	-1.575545	0.428144
C38	C	0.062407	-1.575558	0.572027
C39	C	0.167810	-1.416020	0.572024
C40	C	0.167806	-1.416002	0.428144
H41	H	-0.138109	-1.682764	0.000126
H42	H	-0.631674	-1.308794	0.000071
H43	H	-0.663274	-1.720544	0.000096
H44	H	0.246227	-1.101438	0.000046
H45	H	-0.016004	-0.890116	0.000142
H46	H	-0.382273	-1.643941	0.000054
H47	H	-0.012085	-1.128187	0.000101
H48	H	-0.254573	-1.250963	0.000048
H49	H	0.210719	-1.351034	0.369569
H50	H	0.210719	-1.351074	0.630609
H51	H	-0.483623	-1.328847	0.000043
H52	H	-0.106509	-1.271011	0.000064
H53	H	0.242297	-0.863392	0.000086
H54	H	-0.387514	-1.347615	0.000063
H55	H	-0.286159	-1.662708	0.000103
H56	H	0.019495	-1.640515	0.630593
H57	H	-0.515213	-1.740603	0.000105
H58	H	0.019494	-1.640497	0.369576
