data_functionalizedCrystal
_audit_creation_method	'MofGen! by Chris Wilmer'
_symmetry_space_group_name_H-M	'P1'
_symmetry_Int_Tables_number	1
_symmetry_cell_setting	triclinic
loop_
_symmetry_equiv_pos_as_xyz
  x,y,z
_cell_length_a	15.944551
_cell_length_b	15.944551
_cell_length_c	15.021413
_cell_angle_alpha	90.008907
_cell_angle_beta	90.002826
_cell_angle_gamma	96.501262
loop_
_atom_site_label
_atom_site_type_symbol
_atom_site_fract_x
_atom_site_fract_y
_atom_site_fract_z
O1	O	-1.114529	0.108321	-0.073929
O2	O	-0.864529	0.358321	0.176071
O3	O	-0.614529	0.608321	0.426071
O4	O	-0.364529	0.858321	0.676071
O5	O	-0.869979	0.121677	-0.073950
O6	O	-0.619979	0.371677	0.176050
O7	O	-0.369979	0.621677	0.426050
O8	O	-0.119979	0.871677	0.676050
O9	O	-0.998932	-0.007276	-0.073944
O10	O	-0.748932	0.242724	0.176056
O11	O	-0.498932	0.492724	0.426056
O12	O	-0.248932	0.742724	0.676056
O13	O	-0.985576	0.237274	-0.073935
O14	O	-0.735576	0.487274	0.176065
O15	O	-0.485576	0.737274	0.426065
O16	O	-0.235576	0.987274	0.676065
O17	O	-0.998912	-0.007257	0.074120
O18	O	-0.748912	0.242743	0.324120
O19	O	-0.498912	0.492743	0.574120
O20	O	-0.248912	0.742743	0.824120
O21	O	-0.869959	0.121695	0.074114
O22	O	-0.619959	0.371695	0.324114
O23	O	-0.369959	0.621695	0.574114
O24	O	-0.119959	0.871695	0.824114
O25	O	-1.114508	0.108339	0.074135
O26	O	-0.864508	0.358339	0.324135
O27	O	-0.614508	0.608339	0.574135
O28	O	-0.364508	0.858339	0.824135
Zn29	Zn	-0.992230	0.115020	0.097633
Zn30	Zn	-0.742230	0.365020	0.347633
Zn31	Zn	-0.492230	0.615020	0.597633
Zn32	Zn	-0.242230	0.865020	0.847633
Zn33	Zn	-0.992257	0.114996	-0.097448
Zn34	Zn	-0.742257	0.364996	0.152552
Zn35	Zn	-0.492257	0.614996	0.402552
Zn36	Zn	-0.242257	0.864996	0.652552
O37	O	-0.985555	0.237292	0.074129
O38	O	-0.735555	0.487292	0.324129
O39	O	-0.485555	0.737292	0.574129
O40	O	-0.235555	0.987292	0.824129
C41	C	-0.838675	0.121132	0.000079
C42	C	-0.588675	0.371132	0.250079
C43	C	-0.338675	0.621132	0.500079
C44	C	-0.088675	0.871132	0.750079
C45	C	-0.745429	0.119470	0.000070
C46	C	-0.495429	0.369470	0.250070
C47	C	-0.245429	0.619470	0.500070
C48	C	0.004571	0.869470	0.750070
C49	C	-0.998367	-0.038561	0.000084
C50	C	-0.748367	0.211439	0.250084
C51	C	-0.498367	0.461439	0.500084
C52	C	-0.248367	0.711439	0.750084
C53	C	-0.996705	-0.131807	0.000075
C54	C	-0.746705	0.118193	0.250075
C55	C	-0.496705	0.368193	0.500075
C56	C	-0.246705	0.618193	0.750075
C57	C	-1.145813	0.108885	0.000104
C58	C	-0.895813	0.358885	0.250104
C59	C	-0.645813	0.608885	0.500104
C60	C	-0.395813	0.858885	0.750104
C61	C	-1.239059	0.110547	0.000106
C62	C	-0.989059	0.360547	0.250106
C63	C	-0.739059	0.610547	0.500106
C64	C	-0.489059	0.860547	0.750106
N65	N	-0.992218	0.115036	0.230770
N66	N	-0.742218	0.365036	0.480770
N67	N	-0.492218	0.615036	0.730770
N68	N	-0.242218	0.865036	0.980770
C69	C	-0.530572	0.035565	0.000085
C70	C	-0.280572	0.285565	0.250085
C71	C	-0.030572	0.535565	0.500085
C72	C	0.219428	0.785565	0.750085
C73	C	-0.469562	0.074518	-0.072917
C74	C	-0.219562	0.324518	0.177083
C75	C	0.030438	0.574518	0.427083
C76	C	0.280438	0.824518	0.677083
C77	C	-0.574703	0.116462	0.000081
C78	C	-0.324703	0.366462	0.250081
C79	C	-0.074703	0.616462	0.500081
C80	C	0.175297	0.866462	0.750081
C81	C	-0.469564	0.074556	0.073062
C82	C	-0.219564	0.324556	0.323062
C83	C	0.030436	0.574556	0.573062
C84	C	0.280436	0.824556	0.823062
C85	C	-0.409790	0.113551	0.000095
C86	C	-0.159790	0.363551	0.250095
C87	C	0.090210	0.613551	0.500095
C88	C	0.340210	0.863551	0.750095
C89	C	-0.514921	0.155438	-0.072981
C90	C	-0.264921	0.405438	0.177019
C91	C	-0.014921	0.655438	0.427019
C92	C	0.235079	0.905438	0.677019
C93	C	-0.514930	0.155464	0.073064
C94	C	-0.264930	0.405464	0.323064
C95	C	-0.014930	0.655464	0.573064
C96	C	0.235070	0.905464	0.823064
C97	C	-0.453937	0.194476	0.000044
C98	C	-0.203937	0.444476	0.250044
C99	C	0.046063	0.694476	0.500044
C100	C	0.296063	0.944476	0.750044
C101	C	-0.669705	0.118137	0.000072
C102	C	-0.419705	0.368137	0.250072
C103	C	-0.169705	0.618137	0.500072
C104	C	0.080295	0.868137	0.750072
C105	C	-0.314789	0.111883	0.000097
C106	C	-0.064789	0.361883	0.250097
C107	C	0.185211	0.611883	0.500097
C108	C	0.435211	0.861883	0.750097
C109	C	-0.986120	0.268577	0.000098
C110	C	-0.736120	0.518577	0.250098
C111	C	-0.486120	0.768577	0.500098
C112	C	-0.236120	1.018577	0.750098
C113	C	-0.987782	0.361823	0.000102
C114	C	-0.737782	0.611823	0.250102
C115	C	-0.487782	0.861823	0.500102
C116	C	-0.237782	1.111823	0.750102
C117	C	-1.071687	0.576680	0.000096
C118	C	-0.821687	0.826680	0.250096
C119	C	-0.571687	1.076680	0.500096
C120	C	-0.321687	1.326680	0.750096
C121	C	-1.032714	0.637705	0.073097
C122	C	-0.782714	0.887705	0.323097
C123	C	-0.532714	1.137705	0.573097
C124	C	-0.282714	1.387705	0.823097
C125	C	-0.990790	0.532549	0.000094
C126	C	-0.740790	0.782549	0.250094
C127	C	-0.490790	1.032549	0.500094
C128	C	-0.240790	1.282549	0.750094
C129	C	-1.032715	0.637672	-0.072883
C130	C	-0.782715	0.887672	0.177117
C131	C	-0.532715	1.137672	0.427117
C132	C	-0.282715	1.387672	0.677117
C133	C	-0.993700	0.697462	0.000083
C134	C	-0.743700	0.947462	0.250083
C135	C	-0.493700	1.197462	0.500083
C136	C	-0.243700	1.447462	0.750083
C137	C	-0.951795	0.592346	0.073156
C138	C	-0.701795	0.842346	0.323156
C139	C	-0.451795	1.092346	0.573156
C140	C	-0.201795	1.342346	0.823156
C141	C	-0.951807	0.592307	-0.072890
C142	C	-0.701807	0.842307	0.177110
C143	C	-0.451807	1.092307	0.427110
C144	C	-0.201807	1.342307	0.677110
C145	C	-0.912776	0.653315	0.000129
C146	C	-0.662776	0.903315	0.250129
C147	C	-0.412776	1.153315	0.500129
C148	C	-0.162776	1.403315	0.750129
C149	C	-0.989115	0.437547	0.000102
C150	C	-0.739115	0.687547	0.250102
C151	C	-0.489115	0.937547	0.500102
C152	C	-0.239115	1.187547	0.750102
C153	C	-0.995369	0.792463	0.000082
C154	C	-0.745369	1.042463	0.250082
C155	C	-0.495369	1.292463	0.500082
C156	C	-0.245369	1.542463	0.750082
N157	N	-0.992276	0.114973	-0.230586
N158	N	-0.742276	0.364973	0.019414
N159	N	-0.492276	0.614973	0.269414
N160	N	-0.242276	0.864973	0.519414
C161	C	-0.932581	0.174636	0.470451
C162	C	-0.682581	0.424636	0.720451
C163	C	-0.432581	0.674636	0.970451
C164	C	-0.182581	0.924636	1.220451
C165	C	-1.008481	0.190943	0.529793
C166	C	-0.758481	0.440943	0.779793
C167	C	-0.508481	0.690943	1.029793
C168	C	-0.258481	0.940943	1.279793
C169	C	-0.992239	0.115015	0.412377
C170	C	-0.742239	0.365015	0.662377
C171	C	-0.492239	0.615015	0.912377
C172	C	-0.242239	0.865015	1.162377
C173	C	-0.916360	0.098727	0.529777
C174	C	-0.666360	0.348727	0.779777
C175	C	-0.416360	0.598727	1.029777
C176	C	-0.166360	0.848727	1.279777
C177	C	-0.992253	0.114997	0.587801
C178	C	-0.742253	0.364997	0.837801
C179	C	-0.492253	0.614997	1.087801
C180	C	-0.242253	0.864997	1.337801
C181	C	-1.068178	0.131360	0.470413
C182	C	-0.818178	0.381360	0.720413
C183	C	-0.568178	0.631360	0.970413
C184	C	-0.318178	0.881360	1.220413
C185	C	-0.976006	0.039111	0.470392
C186	C	-0.726006	0.289111	0.720392
C187	C	-0.476006	0.539111	0.970392
C188	C	-0.226006	0.789111	1.220392
C189	C	-1.051962	0.055386	0.529707
C190	C	-0.801962	0.305386	0.779707
C191	C	-0.551962	0.555386	1.029707
C192	C	-0.301962	0.805386	1.279707
C193	C	-0.992230	0.115028	0.311320
C194	C	-0.742230	0.365028	0.561320
C195	C	-0.492230	0.615028	0.811320
C196	C	-0.242230	0.865028	1.061320
C197	C	-0.992271	0.114984	0.688857
C198	C	-0.742271	0.364984	0.938857
C199	C	-0.492271	0.614984	1.188857
C200	C	-0.242271	0.864984	1.438857
H201	H	-0.563905	-0.031573	-0.000008
H202	H	-0.313905	0.218427	0.249992
H203	H	-0.063905	0.468427	0.499992
H204	H	0.186095	0.718427	0.749992
H205	H	-1.102474	0.004956	0.555562
H206	H	-0.852474	0.254956	0.805562
H207	H	-0.602474	0.504956	1.055562
H208	H	-0.352474	0.754956	1.305562
H209	H	-0.845569	0.686473	0.000164
H210	H	-0.595569	0.936473	0.250164
H211	H	-0.345569	1.186473	0.500164
H212	H	-0.095569	1.436473	0.750164
H213	H	-0.917629	0.572171	-0.134615
H214	H	-0.667629	0.822171	0.115385
H215	H	-0.417629	1.072171	0.365385
H216	H	-0.167629	1.322171	0.615385
H217	H	-1.066922	0.657820	0.134819
H218	H	-0.816922	0.907820	0.384819
H219	H	-0.566922	1.157820	0.634819
H220	H	-0.316922	1.407820	0.884819
H221	H	-0.882181	0.225096	0.444433
H222	H	-0.632181	0.475096	0.694433
H223	H	-0.382181	0.725096	0.944433
H224	H	-0.132181	0.975096	1.194433
H225	H	-0.449461	0.040295	-0.134638
H226	H	-0.199461	0.290295	0.115362
H227	H	0.050539	0.540295	0.365362
H228	H	0.300539	0.790295	0.615362
Br229	Br	-0.953063	-0.067832	0.426867
Br230	Br	-0.703063	0.182168	0.676867
Br231	Br	-0.453063	0.432168	0.926867
Br232	Br	-0.203063	0.682168	1.176867
Br233	Br	-0.809398	0.075777	0.573245
Br234	Br	-0.559398	0.325777	0.823245
Br235	Br	-0.309398	0.575777	1.073245
Br236	Br	-0.059398	0.825777	1.323245
H237	H	-0.917597	0.572362	0.134939
H238	H	-0.667597	0.822362	0.384939
H239	H	-0.417597	1.072362	0.634939
H240	H	-0.167597	1.322362	0.884939
Br241	Br	-0.548243	0.212413	-0.175961
Br242	Br	-0.298243	0.462413	0.074039
Br243	Br	-0.048243	0.712413	0.324039
Br244	Br	0.201757	0.962413	0.574039
H245	H	-1.022224	0.255126	0.555884
H246	H	-0.772224	0.505126	0.805884
H247	H	-0.522224	0.755126	1.055884
H248	H	-0.272224	1.005126	1.305884
H249	H	-1.132368	0.145206	0.444446
H250	H	-0.882368	0.395206	0.694446
H251	H	-0.632368	0.645206	0.944446
H252	H	-0.382368	0.895206	1.194446
H253	H	-1.066955	0.657754	-0.134596
H254	H	-0.816955	0.907754	0.115404
H255	H	-0.566955	1.157754	0.365404
H256	H	-0.316955	1.407754	0.615404
Br257	Br	-0.398667	0.306490	-0.000014
Br258	Br	-0.148667	0.556490	0.249986
Br259	Br	0.101333	0.806490	0.499986
Br260	Br	0.351333	1.056490	0.749986
H261	H	-0.449470	0.040332	0.134777
H262	H	-0.199470	0.290332	0.384777
H263	H	0.050530	0.540332	0.634777
H264	H	0.300530	0.790332	0.884777
Br265	Br	-1.183604	0.521165	0.000219
Br266	Br	-0.933604	0.771165	0.250219
Br267	Br	-0.683604	1.021165	0.500219
Br268	Br	-0.433604	1.271165	0.750219
Br269	Br	-0.548472	0.212461	0.175941
Br270	Br	-0.298472	0.462461	0.425941
Br271	Br	-0.048472	0.712461	0.675941
Br272	Br	0.201528	0.962461	0.925941
