data_functionalizedCrystal
_audit_creation_method	'MofGen! by Chris Wilmer'
_symmetry_space_group_name_H-M	'P1'
_symmetry_Int_Tables_number	1
_symmetry_cell_setting	triclinic
loop_
_symmetry_equiv_pos_as_xyz
  x,y,z
_cell_length_a	8.497374
_cell_length_b	12.759401
_cell_length_c	12.759399
_cell_angle_alpha	89.983359
_cell_angle_beta	89.991562
_cell_angle_gamma	90.001753
loop_
_atom_site_label
_atom_site_type_symbol
_atom_site_fract_x
_atom_site_fract_y
_atom_site_fract_z
Zn1	Zn	0.891958	1.606064	0.418406
Zn2	Zn	0.628160	1.606013	0.594052
Zn3	Zn	0.628185	1.430422	0.418393
Zn4	Zn	0.891892	1.430354	0.594048
O5	O	0.760048	1.518213	0.506225
O6	O	0.856982	1.753079	0.441713
O7	O	0.407401	1.582728	0.570747
O8	O	0.663213	1.453771	0.271373
O9	O	0.663171	1.753041	0.570760
O10	O	0.857005	1.582815	0.271383
O11	O	0.407419	1.453722	0.441691
O12	O	0.663149	1.283392	0.441686
O13	O	1.112663	1.453655	0.570752
O14	O	0.856893	1.283342	0.570739
O15	O	1.112711	1.582749	0.441709
O16	O	0.663107	1.582661	0.741073
O17	O	0.856869	1.453605	0.741069
C18	C	0.760017	1.245246	0.506212
C19	C	0.760041	1.128469	0.506232
C20	C	0.860765	1.073609	0.573532
C21	C	0.860796	0.963885	0.573536
C22	C	0.659366	0.963891	0.438937
C23	C	0.659344	1.073613	0.438928
C24	C	1.046781	0.813947	0.611283
C25	C	1.147491	0.759083	0.678599
C26	C	1.171437	0.794674	0.781136
C27	C	1.094649	0.885128	0.816378
C28	C	0.993928	0.939987	0.749067
C29	C	0.970012	0.904397	0.646515
C30	C	0.473357	1.223553	0.401192
C31	C	0.372627	1.278414	0.333885
C32	C	0.348665	1.242824	0.231346
C33	C	0.425424	1.152367	0.196109
C34	C	0.526155	1.097506	0.263415
C35	C	0.550119	1.133103	0.365953
C36	C	0.760013	1.518149	0.779192
C37	C	0.760050	1.518217	0.895969
C38	C	1.171529	1.518205	0.506226
C39	C	1.350173	1.518208	0.506237
C40	C	0.760081	1.792246	0.506238
C41	C	0.760095	1.909023	0.506244
C42	C	0.760119	1.518307	0.232191
C43	C	0.760149	1.518346	0.115415
C44	C	0.659273	1.585494	0.950797
C45	C	0.659326	1.585561	1.060521
C46	C	0.860938	1.451067	1.060578
C47	C	0.860891	1.451006	0.950856
C48	C	0.603186	1.709582	1.210382
C49	C	0.502384	1.776849	1.265215
C50	C	0.348458	1.793046	1.229634
C51	C	0.295302	1.741961	1.139222
C52	C	0.396096	1.674686	1.084396
C53	C	0.550044	1.658509	1.119975
C54	C	0.917015	1.326983	0.800993
C55	C	1.017802	1.259702	0.746165
C56	C	1.171731	1.243495	0.781743
C57	C	1.224880	1.294561	0.872158
C58	C	1.124094	1.361842	0.926987
C59	C	0.970167	1.378052	0.891401
H60	H	0.588668	1.023856	0.234713
O61	O	0.960459	1.204676	0.648618
H62	H	1.035051	1.227810	0.581042
O63	O	1.280446	1.170927	0.722609
H64	H	1.217636	1.138136	0.653760
H65	H	0.169953	1.755146	1.110266
H66	H	1.350223	1.281365	0.901127
O67	O	1.280047	0.735499	0.853750
H68	H	1.377278	0.787804	0.879000
H69	H	0.791677	1.340183	0.772010
H70	H	0.266627	1.287497	0.176550
O71	O	0.550545	1.658009	0.891601
H72	H	0.567437	1.646666	0.806092
O73	O	0.911122	1.037551	0.787055
H74	H	0.944696	1.053090	0.869666
H75	H	0.942763	1.118269	0.628332
H76	H	0.310124	1.352069	0.362585
O77	O	0.239729	1.865598	1.288769
H78	H	0.202036	1.930391	1.236418
O79	O	1.120463	0.923515	0.926979
H80	H	1.203409	0.870177	0.967861
O81	O	0.969670	1.378556	1.119777
H82	H	0.952755	1.389887	1.205285
O83	O	1.020979	0.775561	0.500681
H84	H	0.938063	0.828911	0.459786
H85	H	0.492873	1.252546	0.484685
O86	O	0.338796	1.619594	0.986880
H87	H	0.214823	1.642160	0.971344
H88	H	1.210013	0.685435	0.649896
O89	O	0.559708	1.831957	1.362722
H90	H	0.683693	1.809412	1.378243
O91	O	0.399599	1.113972	0.085510
H92	H	0.316675	1.167322	0.044624
O93	O	0.769197	1.692106	1.248789
H94	H	0.833097	1.767969	1.249940
O95	O	1.181402	1.416931	1.024508
H96	H	1.283985	1.466976	1.004591
H97	H	0.577380	0.919214	0.384142
