data_functionalizedCrystal
_audit_creation_method	'MofGen! by Chris Wilmer'
_symmetry_space_group_name_H-M	'P1'
_symmetry_Int_Tables_number	1
_symmetry_cell_setting	triclinic
loop_
_symmetry_equiv_pos_as_xyz
  x,y,z
_cell_length_a	12.827893
_cell_length_b	17.638516
_cell_length_c	12.827885
_cell_angle_alpha	78.829599
_cell_angle_beta	90.019272
_cell_angle_gamma	101.243158
loop_
_atom_site_label
_atom_site_type_symbol
_atom_site_fract_x
_atom_site_fract_y
_atom_site_fract_z
Zn1	Zn	1.513459	-0.314640	0.674850
Zn2	Zn	1.477971	-0.446840	0.535404
Zn3	Zn	1.338690	-0.314679	0.500134
Zn4	Zn	1.303319	-0.446782	0.710089
O5	O	1.408359	-0.380735	0.605119
O6	O	1.654985	-0.332185	0.656365
O7	O	1.459446	-0.429349	0.384500
O8	O	1.391528	-0.204063	0.493802
O9	O	1.628912	-0.429312	0.553915
O10	O	1.519930	-0.204035	0.622165
O11	O	1.357116	-0.332251	0.358587
O12	O	1.187764	-0.332195	0.527972
O13	O	1.331243	-0.429212	0.851639
O14	O	1.161777	-0.429250	0.682224
O15	O	1.485632	-0.332129	0.825750
O16	O	1.425148	-0.557443	0.588085
O17	O	1.296832	-0.557400	0.716425
C18	C	1.136853	-0.380721	0.605095
C19	C	1.020697	-0.380734	0.605115
C20	C	0.981791	-0.332758	0.655932
C21	C	0.861737	-0.332770	0.655954
C22	C	1.353329	-0.586102	0.659929
C23	C	1.329883	-0.673959	0.683411
C24	C	1.587108	-0.962883	0.426803
C25	C	1.565058	-1.045437	0.448886
C26	C	1.431331	-1.045437	0.582420
C27	C	1.453365	-0.962881	0.560345
C28	C	1.531256	-0.921610	0.482536
C29	C	1.397513	-0.921608	0.616078
C30	C	1.419551	-0.839059	0.594009
C31	C	1.497440	-0.797782	0.516206
C32	C	1.553293	-0.839061	0.460467
C33	C	1.319628	-0.962881	0.693892
C34	C	1.263777	-0.921608	0.749625
C35	C	1.285808	-0.839057	0.727551
C36	C	1.363697	-0.797781	0.649748
C37	C	1.229955	-0.797779	0.783290
C38	C	1.251992	-0.715230	0.761220
C39	C	1.385735	-0.715231	0.627678
C40	C	1.680925	-0.380751	0.605144
C41	C	1.797077	-0.380757	0.605154
C42	C	1.408451	-0.380659	0.877669
C43	C	1.408490	-0.380627	0.993814
C44	C	1.463633	-0.174567	0.550119
C45	C	1.487187	-0.086710	0.526681
C46	C	1.408344	-0.380754	0.333614
C47	C	1.408567	-0.380564	0.217411
C48	C	1.484896	-0.332578	1.032785
C49	C	1.484938	-0.332543	1.152826
H50	H	1.449154	-0.681627	0.564310
H51	H	0.828229	-0.291698	0.699465
H52	H	0.965127	-0.421815	0.561622
Cl53	Cl	1.132052	-0.849672	0.881114
H54	H	1.037362	-0.291672	0.699418
Cl55	Cl	0.848795	-0.444182	0.537984
H56	H	1.550275	-0.291464	0.977279
H57	H	1.515384	-0.730565	0.498241
Cl58	Cl	1.333418	-1.097328	0.680236
H59	H	1.616712	-0.805456	0.397099
Cl60	Cl	1.685010	-0.910993	0.328965
H61	H	1.550354	-0.291409	1.186390
Cl62	Cl	1.635283	-1.097321	0.378813
Cl63	Cl	1.291489	-1.066657	0.721200
H64	H	1.343153	-0.421705	1.183855
Cl65	Cl	1.165864	-0.973499	0.847442
Cl66	Cl	1.181780	-0.663340	0.831287
Cl67	Cl	1.307534	-0.444099	1.079501
