data_functionalizedCrystal
_audit_creation_method	'MofGen! by Chris Wilmer'
_symmetry_space_group_name_H-M	'P1'
_symmetry_Int_Tables_number	1
_symmetry_cell_setting	triclinic
loop_
_symmetry_equiv_pos_as_xyz
  x,y,z
_cell_length_a	10.489741
_cell_length_b	13.448316
_cell_length_c	14.971486
_cell_angle_alpha	90.006811
_cell_angle_beta	95.923349
_cell_angle_gamma	89.995953
loop_
_atom_site_label
_atom_site_type_symbol
_atom_site_fract_x
_atom_site_fract_y
_atom_site_fract_z
O1	O	1.692597	-0.082631	-0.126198
O2	O	2.192597	0.417369	0.373802
O3	O	1.321264	-0.082646	-0.138043
O4	O	1.821264	0.417354	0.361957
O5	O	1.516883	-0.082631	-0.001977
O6	O	2.016883	0.417369	0.498023
O7	O	1.496978	-0.082646	-0.262264
O8	O	1.996978	0.417354	0.237736
O9	O	1.516859	0.082753	-0.001968
O10	O	2.016859	0.582753	0.498032
O11	O	1.321240	0.082737	-0.138035
O12	O	1.821240	0.582737	0.361965
O13	O	1.692572	0.082753	-0.126189
O14	O	2.192572	0.582753	0.373811
Cu15	Cu	1.506904	0.097846	-0.132111
Cu16	Cu	2.006904	0.597846	0.367889
Cu17	Cu	1.506933	-0.097740	-0.132121
Cu18	Cu	2.006933	0.402260	0.367879
O19	O	1.496953	0.082738	-0.262255
O20	O	1.996953	0.582738	0.237745
C21	C	1.273731	0.000043	-0.137144
C22	C	1.773731	0.500043	0.362856
C23	C	1.132132	0.000038	-0.134468
C24	C	1.632132	0.500038	0.365532
N25	N	1.506893	0.235410	-0.132103
N26	N	2.006893	0.735410	0.367897
N27	N	1.506954	-0.235304	-0.132122
N28	N	2.006954	0.264696	0.367878
C29	C	1.064994	0.000052	-0.047893
C30	C	1.564994	0.500052	0.452107
C31	C	0.972406	-0.081491	-0.088794
C32	C	1.472406	0.418509	0.411206
C33	C	0.972415	0.081564	-0.088806
C34	C	1.472415	0.581564	0.411194
C35	C	1.041409	-0.081573	-0.175405
C36	C	1.541409	0.418427	0.324595
C37	C	1.041428	0.081556	-0.175405
C38	C	1.541428	0.581556	0.324595
C39	C	0.948867	-0.000007	-0.216369
C40	C	1.448867	0.499993	0.283631
C41	C	1.740106	0.000061	-0.127088
C42	C	2.240106	0.500061	0.372912
C43	C	1.881704	0.000060	-0.129765
C44	C	2.381704	0.500060	0.370235
C45	C	1.515981	0.000060	0.031357
C46	C	2.015981	0.500060	0.531357
C47	C	1.513313	0.000059	0.130669
C48	C	2.013313	0.500059	0.630669
C49	C	1.593540	0.287457	-0.071879
C50	C	2.093540	0.787457	0.428121
C51	C	1.593548	0.391561	-0.071878
C52	C	2.093548	0.891561	0.428122
C53	C	1.506914	0.443615	-0.132107
C54	C	2.006914	0.943615	0.367893
C55	C	1.420257	0.391560	-0.192335
C56	C	1.920257	0.891560	0.307665
C57	C	1.420244	0.287459	-0.192331
C58	C	1.920244	0.787459	0.307669
C59	C	1.420293	0.608540	-0.192341
C60	C	1.920293	1.108540	0.307659
C61	C	1.420307	0.712649	-0.192347
C62	C	1.920307	1.212649	0.307653
C63	C	1.593596	0.712642	-0.071888
C64	C	2.093596	1.212642	0.428112
C65	C	1.593583	0.608541	-0.071884
C66	C	2.093583	1.108541	0.428116
C67	C	1.506928	0.556493	-0.132113
C68	C	2.006928	1.056493	0.367887
C69	C	1.497856	0.000044	-0.295589
C70	C	1.997856	0.500044	0.204411
C71	C	1.500523	0.000038	-0.394902
C72	C	2.000523	0.500038	0.105098
C73	C	1.628234	0.000065	0.187241
C74	C	2.128234	0.500065	0.687241
C75	C	1.625720	0.000055	0.280554
C76	C	2.125720	0.500055	0.780554
C77	C	1.508283	0.000046	0.317295
C78	C	2.008283	0.500046	0.817295
C79	C	1.393354	0.000038	0.260716
C80	C	1.893354	0.500038	0.760716
C81	C	1.395869	0.000041	0.167404
C82	C	1.895869	0.500041	0.667404
C83	C	1.388119	0.000034	0.455209
C84	C	1.888119	0.500034	0.955209
C85	C	1.385603	0.000033	0.548527
C86	C	1.885603	0.500033	1.048527
C87	C	1.617969	0.000048	0.568359
C88	C	2.117969	0.500048	1.068359
C89	C	1.620485	0.000051	0.475047
C90	C	2.120485	0.500051	0.975047
C91	C	1.505554	0.000044	0.418474
C92	C	2.005554	0.500044	0.918474
H93	H	1.115507	-0.000046	0.023277
H94	H	1.615507	0.499954	0.523277
Cl95	Cl	0.871279	-0.000079	-0.326364
Cl96	Cl	1.371279	0.499921	0.173636
Cl97	Cl	0.925194	-0.187925	-0.032247
Cl98	Cl	1.425194	0.312075	0.467753
H99	H	1.302289	0.000036	0.121344
H100	H	1.802289	0.500036	0.621344
H101	H	1.716112	0.000065	0.445136
H102	H	2.216112	0.500065	0.945136
H103	H	1.664092	0.245082	-0.022837
H104	H	2.164092	0.745082	0.477163
Cl105	Cl	1.762453	0.000051	0.639477
Cl106	Cl	2.262453	0.500051	1.139477
Cl107	Cl	1.311338	0.456998	-0.268049
Cl108	Cl	1.811338	0.956998	0.231951
Cl109	Cl	1.237966	0.000023	0.594714
Cl110	Cl	1.737966	0.500023	1.094714
H111	H	1.071824	-0.150589	-0.212011
H112	H	1.571824	0.349411	0.287989
Cl113	Cl	1.770199	0.000065	0.351669
Cl114	Cl	2.270199	0.500065	0.851669
Cl115	Cl	1.088698	0.187993	-0.231910
Cl116	Cl	1.588698	0.687993	0.268090
Cl117	Cl	1.702476	0.456993	0.003836
Cl118	Cl	2.202476	0.956993	0.503836
H119	H	0.941851	0.150503	-0.052155
H120	H	1.441851	0.650503	0.447845
Cl121	Cl	1.702502	0.543099	0.003827
Cl122	Cl	2.202502	1.043099	0.503827
H123	H	1.294530	0.000026	0.409149
H124	H	1.794530	0.500026	0.909149
Cl125	Cl	1.775877	0.000086	0.141062
Cl126	Cl	2.275877	0.500086	0.641062
Cl127	Cl	1.702533	0.778076	0.003825
Cl128	Cl	2.202533	1.278076	0.503825
Cl129	Cl	1.311387	0.778081	-0.268065
Cl130	Cl	1.811387	1.278081	0.231935
Cl131	Cl	1.311349	0.543114	-0.268058
Cl132	Cl	1.811349	1.043114	0.231942
H133	H	1.349686	0.245083	-0.241371
H134	H	1.849686	0.745083	0.258629
Cl135	Cl	1.245718	0.000015	0.306905
Cl136	Cl	1.745718	0.500015	0.806905
