data_functionalizedCrystal
_audit_creation_method	'MofGen! by Chris Wilmer'
_symmetry_space_group_name_H-M	'P1'
_symmetry_Int_Tables_number	1
_symmetry_cell_setting	triclinic
loop_
_symmetry_equiv_pos_as_xyz
  x,y,z
_cell_length_a	10.540510
_cell_length_b	14.044220
_cell_length_c	12.503572
_cell_angle_alpha	86.156832
_cell_angle_beta	86.446316
_cell_angle_gamma	91.148906
loop_
_atom_site_label
_atom_site_type_symbol
_atom_site_fract_x
_atom_site_fract_y
_atom_site_fract_z
O1	O	1.706116	-0.128108	-0.089331
O2	O	2.039449	0.205225	0.244003
O3	O	2.372782	0.538558	0.577336
O4	O	1.337974	-0.140733	-0.089332
O5	O	1.671308	0.192600	0.244002
O6	O	2.004641	0.525933	0.577335
O7	O	1.516518	0.003600	-0.089321
O8	O	1.849852	0.336933	0.244013
O9	O	2.183185	0.670267	0.577346
O10	O	1.527572	-0.272442	-0.089342
O11	O	1.860905	0.060891	0.243992
O12	O	2.194238	0.394225	0.577325
O13	O	1.503093	-0.007273	0.089321
O14	O	1.836426	0.326060	0.422654
O15	O	2.169759	0.659394	0.755987
O16	O	1.324549	-0.151606	0.089309
O17	O	1.657882	0.181727	0.422643
O18	O	1.991215	0.515060	0.755976
O19	O	1.692690	-0.138981	0.089310
O20	O	2.026023	0.194352	0.422644
O21	O	2.359357	0.527685	0.755977
Cu22	Cu	1.507394	-0.146287	0.105621
Cu23	Cu	1.840727	0.187047	0.438955
Cu24	Cu	2.174060	0.520380	0.772288
Cu25	Cu	1.523271	-0.133428	-0.105643
Cu26	Cu	1.856604	0.199905	0.227691
Cu27	Cu	2.189937	0.533239	0.561024
O28	O	1.514146	-0.283315	0.089299
O29	O	1.847479	0.050019	0.422633
O30	O	2.180813	0.383352	0.755966
C31	C	1.283863	-0.145229	-0.000011
C32	C	1.617196	0.188104	0.333322
C33	C	1.950529	0.521438	0.666656
C34	C	1.142628	-0.142414	-0.000011
C35	C	1.475962	0.190919	0.333322
C36	C	1.809295	0.524252	0.666656
C37	C	0.935341	-0.242657	-0.000429
C38	C	1.268675	0.090676	0.332904
C39	C	1.602008	0.424010	0.666237
C40	C	1.082210	-0.245684	-0.000020
C41	C	1.415543	0.087649	0.333313
C42	C	1.748876	0.420982	0.666646
C43	C	1.084857	-0.095759	0.102003
C44	C	1.418190	0.237575	0.435337
C45	C	1.751524	0.570908	0.768670
C46	C	0.937861	-0.093492	0.102082
C47	C	1.271194	0.239841	0.435416
C48	C	1.604527	0.573174	0.768749
C49	C	0.953104	-0.078977	-0.101066
C50	C	1.286438	0.254356	0.232267
C51	C	1.619771	0.587689	0.565601
C52	C	1.100042	-0.083794	-0.102408
C53	C	1.433375	0.249539	0.230925
C54	C	1.766708	0.582873	0.564259
C55	C	1.504968	0.033510	0.000000
C56	C	1.838301	0.366844	0.333334
C57	C	2.171635	0.700177	0.666667
C58	C	1.490538	0.138833	0.000002
C59	C	1.823871	0.472166	0.333335
C60	C	2.157205	0.805499	0.666668
C61	C	1.746802	-0.134486	-0.000012
C62	C	2.080135	0.198848	0.333321
C63	C	2.413468	0.532181	0.666654
C64	C	1.888037	-0.137300	-0.000019
C65	C	2.221370	0.196033	0.333314
C66	C	2.554703	0.529367	0.666647
C67	C	1.525697	-0.313225	-0.000024
C68	C	1.859030	0.020108	0.333309
C69	C	2.192363	0.353442	0.666643
C70	C	1.540127	-0.418547	-0.000032
C71	C	1.873460	-0.085213	0.333301
C72	C	2.206794	0.248120	0.666634
N73	N	1.496236	-0.155330	0.254213
N74	N	1.829569	0.178003	0.587546
N75	N	2.162902	0.511337	0.920880
C76	C	1.464158	0.331671	-0.000014
C77	C	1.797491	0.665005	0.333320
C78	C	2.130825	0.998338	0.666653
C79	C	1.566501	0.388620	-0.000017
C80	C	1.899835	0.721953	0.333317
C81	C	2.233168	1.055287	0.666650
C82	C	1.551823	0.495922	-0.000025
C83	C	1.885157	0.829256	0.333308
C84	C	2.218490	1.162589	0.666641
C85	C	1.478834	0.224359	-0.000005
C86	C	1.812168	0.557693	0.333328
C87	C	2.145501	0.891026	0.666661
N88	N	1.534438	-0.124377	-0.254234
N89	N	1.867771	0.208956	0.079099
N90	N	2.201105	0.542289	0.412433
C91	C	1.479823	-0.168641	0.473327
C92	C	1.813156	0.164692	0.806660
C93	C	2.146489	0.498026	1.139994
C94	C	1.550847	-0.111069	0.526659
C95	C	1.884181	0.222264	0.859992
C96	C	2.217514	0.555597	1.193325
C97	C	1.541715	-0.118476	0.648581
C98	C	1.875048	0.214858	0.981915
C99	C	2.208381	0.548191	1.315248
C100	C	1.488953	-0.161236	0.351393
C101	C	1.822287	0.172098	0.684727
C102	C	2.155620	0.505431	1.018060
H103	H	0.902954	-0.278437	-0.073590
H104	H	1.236287	0.054896	0.259743
H105	H	1.569620	0.388229	0.593077
F106	F	1.695435	0.347017	-0.000008
F107	F	2.028768	0.680351	0.333325
F108	F	2.362101	1.013684	0.666659
H109	H	0.895566	-0.134261	0.178334
H110	H	1.228900	0.199072	0.511667
H111	H	1.562233	0.532405	0.845001
F112	F	1.133219	-0.293928	-0.095604
F113	F	1.466552	0.039405	0.237729
F114	F	1.799886	0.372739	0.571062
H115	H	0.890412	-0.287086	0.072310
H116	H	1.223745	0.046248	0.405644
H117	H	1.557078	0.379581	0.738977
H118	H	1.365524	0.363501	-0.000017
H119	H	1.698857	0.696834	0.333317
H120	H	2.032190	1.030167	0.666650
H121	H	1.618513	-0.056219	0.480750
H122	H	1.951846	0.277115	0.814083
H123	H	2.285180	0.610448	1.147417
F124	F	0.909415	-0.115408	-0.202132
F125	F	1.242749	0.217925	0.131201
F126	F	1.576082	0.551258	0.464535
H127	H	1.412163	-0.223489	0.519230
H128	H	1.745496	0.109844	0.852564
H129	H	2.078830	0.443177	1.185897
H130	H	0.906708	-0.016535	0.106722
H131	H	1.240041	0.316798	0.440056
H132	H	1.573374	0.650132	0.773389
F133	F	1.117645	-0.305891	0.095720
F134	F	1.450978	0.027442	0.429053
F135	F	1.784312	0.360776	0.762387
H136	H	1.124275	-0.019964	0.105803
H137	H	1.457609	0.313369	0.439136
H138	H	1.790942	0.646703	0.772470
H139	H	1.138220	-0.117664	-0.177878
H140	H	1.471554	0.215669	0.155456
H141	H	1.804887	0.549002	0.488789
F142	F	1.122576	-0.149784	0.201230
F143	F	1.455910	0.183550	0.534563
F144	F	1.789243	0.516883	0.867897
F145	F	1.154809	0.015247	-0.110451
F146	F	1.488143	0.348580	0.222882
F147	F	1.821476	0.681913	0.556215
F148	F	0.913976	0.022422	-0.101958
F149	F	1.247309	0.355756	0.231376
F150	F	1.580643	0.689089	0.564709
