data_functionalizedCrystal
_audit_creation_method	'MofGen! by Chris Wilmer'
_symmetry_space_group_name_H-M	'P1'
_symmetry_Int_Tables_number	1
_symmetry_cell_setting	triclinic
loop_
_symmetry_equiv_pos_as_xyz
  x,y,z
_cell_length_a	14.519709
_cell_length_b	16.053802
_cell_length_c	16.992695
_cell_angle_alpha	92.741074
_cell_angle_beta	87.174184
_cell_angle_gamma	87.419624
loop_
_atom_site_label
_atom_site_type_symbol
_atom_site_fract_x
_atom_site_fract_y
_atom_site_fract_z
O1	O	1.234886	-0.069320	0.099504
O2	O	1.734886	0.430680	0.599504
O3	O	0.967279	-0.069346	0.111608
O4	O	1.467279	0.430654	0.611608
O5	O	1.100010	-0.069327	-0.008588
O6	O	1.600010	0.430673	0.491412
O7	O	1.102156	-0.069340	0.219700
O8	O	1.602156	0.430660	0.719700
O9	O	1.092702	0.069531	-0.001999
O10	O	1.592702	0.569531	0.498001
O11	O	0.959971	0.069512	0.118197
O12	O	1.459971	0.569512	0.618197
O13	O	1.227578	0.069537	0.106092
O14	O	1.727578	0.569537	0.606092
Zn15	Zn	1.092615	0.091571	0.113191
Zn16	Zn	1.592615	0.591571	0.613191
Zn17	Zn	1.102243	-0.091380	0.104510
Zn18	Zn	1.602243	0.408620	0.604510
O19	O	1.094848	0.069518	0.226288
O20	O	1.594848	0.569518	0.726288
C21	C	0.929225	0.000080	0.114338
C22	C	1.429225	0.500080	0.614338
C23	C	0.826723	0.000070	0.112647
C24	C	1.326723	0.500070	0.612647
C25	C	1.093596	0.000102	-0.034510
C26	C	1.593596	0.500102	0.465490
C27	C	1.085360	0.000101	-0.121566
C28	C	1.585360	0.500101	0.378434
N29	N	1.086050	0.216431	0.119115
N30	N	1.586050	0.716431	0.619115
C31	C	0.451379	0.000108	0.106425
C32	C	0.951379	0.500108	0.606425
C33	C	0.555811	0.000097	0.108153
C34	C	1.055811	0.500097	0.608153
C35	C	0.639048	0.000088	0.109536
C36	C	1.139048	0.500088	0.609536
C37	C	0.743487	0.000079	0.111264
C38	C	1.243487	0.500079	0.611264
C39	C	1.265632	0.000110	0.103362
C40	C	1.765632	0.500110	0.603362
C41	C	1.368135	0.000114	0.105053
C42	C	1.868135	0.500114	0.605053
N43	N	1.108814	-0.216239	0.098580
N44	N	1.608814	0.283761	0.598580
C45	C	1.142550	0.260133	0.067989
C46	C	1.642550	0.760133	0.567989
C47	C	1.137968	0.347539	0.072141
C48	C	1.637968	0.847539	0.572141
C49	C	1.076889	0.391241	0.127422
C50	C	1.576889	0.891241	0.627422
C51	C	1.020382	0.347533	0.178549
C52	C	1.520382	0.847533	0.678549
C53	C	1.024961	0.260128	0.174393
C54	C	1.524961	0.760128	0.674393
C55	C	1.056886	0.652648	0.145552
C56	C	1.556886	1.152648	0.645552
C57	C	1.052314	0.740059	0.149705
C58	C	1.552314	1.240059	0.649705
C59	C	1.169899	0.740058	0.043295
C60	C	1.669899	1.240058	0.543295
C61	C	1.174476	0.652652	0.039147
C62	C	1.674476	1.152652	0.539147
C63	C	1.117966	0.608952	0.090272
C64	C	1.617966	1.108952	0.590272
N65	N	1.072205	0.480584	0.131668
N66	N	1.572205	0.980584	0.631668
N67	N	1.122646	0.519610	0.086022
N68	N	1.622646	1.019610	0.586022
C69	C	1.164820	0.000109	-0.171694
C70	C	1.664820	0.500109	0.328306
C71	C	1.157077	0.000101	-0.253492
C72	C	1.657077	0.500101	0.246508
C73	C	1.069873	0.000089	-0.285160
C74	C	1.569873	0.500089	0.214840
C75	C	0.990408	0.000079	-0.235025
C76	C	1.490408	0.500079	0.264975
C77	C	0.998152	0.000081	-0.153229
C78	C	1.498152	0.500081	0.346771
C79	C	1.037777	0.000075	-0.528803
C80	C	1.537777	0.500075	-0.028803
C81	C	1.030038	0.000075	-0.610605
C82	C	1.530038	0.500075	-0.110605
C83	C	1.196708	0.000095	-0.629067
C84	C	1.696708	0.500095	-0.129067
C85	C	1.204444	0.000103	-0.547269
C86	C	1.704444	0.500103	-0.047269
C87	C	1.124979	0.000088	-0.497141
C88	C	1.624979	0.500088	0.002859
N89	N	1.061956	0.000083	-0.368770
N90	N	1.561956	0.500083	0.131230
N91	N	1.132897	0.000088	-0.413533
N92	N	1.632897	0.500088	0.086467
C93	C	1.101262	0.000088	0.252210
C94	C	1.601262	0.500088	0.752210
C95	C	1.109498	0.000083	0.339266
C96	C	1.609498	0.500083	0.839266
H97	H	1.192291	0.224556	0.022977
H98	H	1.692291	0.724556	0.522977
C99	C	0.950368	0.000073	-0.473673
C100	C	1.450368	0.500073	0.026327
H101	H	0.897325	0.000077	-0.504250
H102	H	1.397325	0.500077	-0.004250
H103	H	0.952463	-0.048348	-0.443671
H104	H	1.452463	0.451652	0.056329
H105	H	0.947378	0.048504	-0.439089
H106	H	1.447378	0.548504	0.060911
H107	H	1.221781	0.000109	-0.294304
H108	H	1.721781	0.500109	0.205696
H109	H	0.933447	0.000074	-0.112414
H110	H	1.433447	0.500074	0.387586
C111	C	0.894486	0.000069	-0.269857
C112	C	1.394486	0.500069	0.230143
H113	H	0.901252	0.000078	-0.325751
H114	H	1.401252	0.500078	0.174249
H115	H	0.864060	-0.048356	-0.254954
H116	H	1.364060	0.451644	0.245046
H117	H	0.858970	0.048495	-0.250361
H118	H	1.358970	0.548495	0.249639
C119	C	0.985124	0.788134	0.210514
C120	C	1.485124	1.288134	0.710514
H121	H	0.990501	0.846447	0.205671
H122	H	1.490501	1.346447	0.705671
H123	H	0.923691	0.773825	0.201199
H124	H	1.423691	1.273825	0.701199
H125	H	0.999747	0.773798	0.262192
H126	H	1.499747	1.273798	0.762192
H127	H	1.010876	0.617074	0.187181
H128	H	1.510876	1.117074	0.687181
C129	C	0.953166	0.395599	0.239335
C130	C	1.453166	0.895599	0.739335
H131	H	0.920158	0.357051	0.269176
H132	H	1.420158	0.857051	0.769176
H133	H	0.986933	0.429699	0.273673
H134	H	1.486933	0.929699	0.773673
H135	H	0.910917	0.429691	0.212645
H136	H	1.410917	0.929691	0.712645
C137	C	1.300369	0.000104	-0.512441
C138	C	1.800369	0.500104	-0.012441
H139	H	1.346585	0.000099	-0.554012
H140	H	1.846585	0.500099	-0.054012
H141	H	1.304310	0.048526	-0.478619
H142	H	1.804310	0.548526	0.021381
H143	H	1.309396	-0.048326	-0.483213
H144	H	1.809396	0.451674	0.016787
H145	H	1.261404	0.000106	-0.669890
H146	H	1.761404	0.500106	-0.169890
H147	H	1.215905	0.775647	0.001671
H148	H	1.715905	1.275647	0.501671
H149	H	1.183974	0.383121	0.030510
H150	H	1.683974	0.883121	0.530510
H151	H	0.978951	0.224547	0.216024
H152	H	1.478951	0.724547	0.716024
C153	C	1.260742	0.000124	-0.136863
C154	C	1.760742	0.500124	0.363137
H155	H	1.253977	0.000133	-0.080969
H156	H	1.753977	0.500133	0.419031
H157	H	1.296264	-0.048294	-0.156356
H158	H	1.796264	0.451706	0.343644
H159	H	1.291160	0.048557	-0.151770
H160	H	1.791160	0.548557	0.348230
C161	C	1.241657	0.604586	-0.021666
C162	C	1.741657	1.104586	0.478334
H163	H	1.274645	0.643132	-0.051526
H164	H	1.774645	1.143132	0.448474
H165	H	1.283913	0.570478	0.004993
H166	H	1.783913	1.070478	0.504993
H167	H	1.207852	0.570501	-0.055995
H168	H	1.707852	1.070501	0.444005
C169	C	0.934111	0.000048	-0.645439
C170	C	1.434111	0.500048	-0.145439
H171	H	0.887893	0.000029	-0.603870
H172	H	1.387893	0.500029	-0.103870
H173	H	0.925068	0.048468	-0.674670
H174	H	1.425068	0.548468	-0.174670
H175	H	0.930191	-0.048384	-0.679257
H176	H	1.430191	0.451616	-0.179257
