data_functionalizedCrystal
_audit_creation_method	'MofGen! by Chris Wilmer'
_symmetry_space_group_name_H-M	'P1'
_symmetry_Int_Tables_number	1
_symmetry_cell_setting	triclinic
loop_
_symmetry_equiv_pos_as_xyz
  x,y,z
_cell_length_a	8.559649
_cell_length_b	17.666332
_cell_length_c	8.559649
_cell_angle_alpha	90.005352
_cell_angle_beta	69.778664
_cell_angle_gamma	90.009226
loop_
_atom_site_label
_atom_site_type_symbol
_atom_site_fract_x
_atom_site_fract_y
_atom_site_fract_z
O1	O	2.126892	0.062936	-0.055034
O2	O	1.651407	0.062939	0.028748
O3	O	1.931040	0.062937	-0.250885
O4	O	1.847259	0.062939	0.224599
O5	O	1.930998	-0.062960	-0.250893
O6	O	1.651365	-0.062957	0.028740
O7	O	2.126850	-0.062960	-0.055042
Cu8	Cu	1.889104	-0.074454	-0.013152
Cu9	Cu	1.889154	0.074433	-0.013142
O10	O	1.847217	-0.062958	0.224592
C11	C	1.591077	-0.000009	0.035093
C12	C	1.411378	-0.000007	0.053992
N13	N	1.889081	-0.179174	-0.013161
C14	C	2.012932	-0.218784	-0.136933
C15	C	2.012942	-0.298032	-0.136942
C16	C	1.889114	-0.337666	-0.013153
C17	C	1.765241	-0.298045	0.110630
C18	C	1.765225	-0.218799	0.110626
N19	N	1.850848	-0.462084	0.132928
N20	N	1.850874	-0.537364	0.132926
C21	C	1.889154	-0.576430	-0.013135
N22	N	1.927439	-0.537371	-0.159202
N23	N	1.927421	-0.462084	-0.159199
C24	C	1.889117	-0.423595	-0.013135
C25	C	2.013023	-0.701970	-0.136927
C26	C	2.013022	-0.781219	-0.136936
C27	C	1.765328	-0.781231	0.110649
C28	C	1.765322	-0.701983	0.110645
C29	C	1.889178	-0.662358	-0.013142
C30	C	2.187180	-0.000011	-0.061387
C31	C	2.366879	-0.000007	-0.080286
C32	C	1.937369	-0.000010	-0.311198
C33	C	1.956268	-0.000006	-0.490898
N34	N	1.889191	0.179153	-0.013148
C35	C	1.840889	-0.000009	0.284904
C36	C	1.821990	-0.000008	0.464604
H37	H	1.466258	-0.000004	-0.209705
Br38	Br	1.597128	-0.165037	0.278613
Br39	Br	1.245737	0.000004	0.269719
H40	H	2.113779	-0.186524	-0.237730
H41	H	2.113799	-0.330289	-0.237735
H42	H	1.664416	-0.330319	0.211419
Br43	Br	2.181106	-0.648190	-0.304926
H44	H	2.113872	-0.813471	-0.237734
H45	H	2.085696	-0.000013	-0.590286
H46	H	1.664499	-0.813500	0.211434
H47	H	1.664477	-0.669730	0.211438
Br48	Br	1.606272	-0.000012	-0.369763
