data_functionalizedCrystal
_audit_creation_method	'MofGen! by Chris Wilmer'
_symmetry_space_group_name_H-M	'P1'
_symmetry_Int_Tables_number	1
_symmetry_cell_setting	triclinic
loop_
_symmetry_equiv_pos_as_xyz
  x,y,z
_cell_length_a	19.188930
_cell_length_b	17.666332
_cell_length_c	19.188930
_cell_angle_alpha	89.988482
_cell_angle_beta	83.144779
_cell_angle_gamma	89.976436
loop_
_atom_site_label
_atom_site_type_symbol
_atom_site_fract_x
_atom_site_fract_y
_atom_site_fract_z
O1	O	0.926150	-0.063200	0.087169
O2	O	1.259483	0.270133	0.420502
O3	O	1.592817	0.603467	0.753835
O4	O	0.722839	-0.063149	0.098903
O5	O	1.056172	0.270184	0.432236
O6	O	1.389505	0.603517	0.765570
O7	O	0.830361	-0.063161	-0.008620
O8	O	1.163695	0.270172	0.324713
O9	O	1.497028	0.603505	0.658047
O10	O	0.818627	-0.063188	0.194691
O11	O	1.151961	0.270145	0.528025
O12	O	1.485294	0.603479	0.861358
O13	O	0.830342	0.062735	-0.008625
O14	O	1.163675	0.396069	0.324708
O15	O	1.497009	0.729402	0.658041
O16	O	0.722819	0.062747	0.098898
O17	O	1.056153	0.396081	0.432231
O18	O	1.389486	0.729414	0.765564
O19	O	0.926130	0.062697	0.087163
O20	O	1.259464	0.396030	0.420497
O21	O	1.592797	0.729363	0.753830
Cu22	Cu	0.824473	0.074217	0.093030
Cu23	Cu	1.157806	0.407551	0.426363
Cu24	Cu	1.491140	0.740884	0.759697
Cu25	Cu	0.824496	-0.074670	0.093036
Cu26	Cu	1.157829	0.258663	0.426370
Cu27	Cu	1.491163	0.591997	0.759703
O28	O	0.818608	0.062709	0.194686
O29	O	1.151941	0.396042	0.528019
O30	O	1.485274	0.729375	0.861353
C31	C	0.696818	-0.000194	0.098520
C32	C	1.030151	0.333139	0.431854
C33	C	1.363485	0.666472	0.765187
C34	C	0.619313	-0.000174	0.097380
C35	C	0.952647	0.333159	0.430713
C36	C	1.285980	0.666492	0.764046
C37	C	0.574389	-0.000194	0.160470
C38	C	0.907723	0.333139	0.493804
C39	C	1.241056	0.666472	0.827137
C40	C	0.501566	-0.000203	0.159399
C41	C	0.834899	0.333131	0.492732
C42	C	1.168232	0.666464	0.826065
C43	C	0.473669	-0.000206	0.095233
C44	C	0.807002	0.333128	0.428566
C45	C	1.140336	0.666461	0.761899
C46	C	0.518603	-0.000181	0.032133
C47	C	0.851936	0.333152	0.365467
C48	C	1.185270	0.666485	0.698800
C49	C	0.591425	-0.000166	0.033207
C50	C	0.924758	0.333168	0.366540
C51	C	1.258092	0.666501	0.699874
N52	N	0.365696	-0.043078	0.046187
N53	N	0.699029	0.290255	0.379521
N54	N	1.032362	0.623589	0.712854
N55	N	0.296517	-0.043095	0.045172
N56	N	0.629850	0.290239	0.378505
N57	N	0.963184	0.623572	0.711839
C58	C	0.254260	-0.000252	0.091994
C59	C	0.587594	0.333082	0.425328
C60	C	0.920927	0.666415	0.758661
N61	N	0.283795	0.042599	0.139881
N62	N	0.617128	0.375932	0.473215
N63	N	0.950461	0.709266	0.806548
N64	N	0.352979	0.042612	0.140899
N65	N	0.686313	0.375946	0.474232
N66	N	1.019646	0.709279	0.807566
C67	C	0.394707	-0.000222	0.094062
C68	C	0.728040	0.333111	0.427395
C69	C	1.061373	0.666444	0.760728
C70	C	0.130372	-0.000280	0.153928
C71	C	0.463705	0.333054	0.487261
C72	C	0.797039	0.666387	0.820594
C73	C	0.057547	-0.000283	0.152853
C74	C	0.390881	0.333050	0.486187
C75	C	0.724214	0.666384	0.819520
C76	C	0.074586	-0.000270	0.025586
C77	C	0.407919	0.333064	0.358920
C78	C	0.741253	0.666397	0.692253
C79	C	0.147409	-0.000258	0.026662
C80	C	0.480743	0.333075	0.359996
C81	C	0.814076	0.666408	0.693329
C82	C	0.175298	-0.000267	0.090835
C83	C	0.508631	0.333066	0.424168
C84	C	0.841964	0.666400	0.757502
N85	N	0.824462	0.178937	0.093025
N86	N	1.157795	0.512270	0.426358
N87	N	1.491129	0.845603	0.759692
C88	C	0.872088	0.218541	0.045437
C89	C	1.205421	0.551875	0.378771
C90	C	1.538755	0.885208	0.712104
C91	C	0.872092	0.297789	0.045434
C92	C	1.205425	0.631122	0.378767
C93	C	1.538758	0.964455	0.712101
C94	C	0.824476	0.337429	0.093031
C95	C	1.157809	0.670762	0.426364
C96	C	1.491143	1.004096	0.759697
C97	C	0.776841	0.297815	0.140622
C98	C	1.110174	0.631148	0.473955
C99	C	1.443507	0.964482	0.807289
C100	C	0.776834	0.218569	0.140619
C101	C	1.110167	0.551902	0.473953
C102	C	1.443500	0.885236	0.807286
N103	N	0.815399	0.461841	0.154838
N104	N	1.148732	0.795174	0.488171
N105	N	1.482066	1.128508	0.821505
N106	N	0.815410	0.537121	0.154839
N107	N	1.148743	0.870455	0.488172
N108	N	1.482076	1.203788	0.821505
C109	C	0.824493	0.576193	0.093041
C110	C	1.157826	0.909526	0.426374
C111	C	1.491160	1.242860	0.759707
N112	N	0.833579	0.537140	0.031240
N113	N	1.166912	0.870474	0.364574
N114	N	1.500245	1.203807	0.697907
N115	N	0.833571	0.461853	0.031241
N116	N	1.166905	0.795186	0.364574
N117	N	1.500238	1.128520	0.697907
C118	C	0.824478	0.423358	0.093039
C119	C	1.157811	0.756691	0.426372
C120	C	1.491144	1.090025	0.759705
C121	C	0.872126	0.701727	0.045446
C122	C	1.205459	1.035060	0.378779
C123	C	1.538792	1.368393	0.712112
C124	C	0.872124	0.780976	0.045441
C125	C	1.205458	1.114309	0.378775
C126	C	1.538791	1.447642	0.712108
C127	C	0.776877	0.781000	0.140636
C128	C	1.110210	1.114334	0.473969
C129	C	1.443543	1.447667	0.807302
C130	C	0.776875	0.701753	0.140634
C131	C	1.110208	1.035086	0.473967
C132	C	1.443541	1.368420	0.807300
C133	C	0.824503	0.662121	0.093039
C134	C	1.157836	0.995454	0.426373
C135	C	1.491169	1.328787	0.759706
C136	C	0.952151	-0.000260	0.087546
C137	C	1.285485	0.333073	0.420879
C138	C	1.618818	0.666407	0.754213
C139	C	1.029656	-0.000285	0.088687
C140	C	1.362989	0.333048	0.422020
C141	C	1.696322	0.666382	0.755353
C142	C	0.829972	-0.000211	-0.034634
C143	C	1.163305	0.333123	0.298700
C144	C	1.496638	0.666456	0.632033
C145	C	0.828831	-0.000204	-0.112138
C146	C	1.162164	0.333129	0.221195
C147	C	1.495498	0.666463	0.554529
N148	N	0.824507	0.820610	0.093038
N149	N	1.157841	1.153944	0.426371
N150	N	1.491174	1.487277	0.759704
C151	C	0.891922	-0.000216	-0.157062
C152	C	1.225255	0.333117	0.176271
C153	C	1.558589	0.666451	0.509605
C154	C	0.890850	-0.000228	-0.229886
C155	C	1.224184	0.333105	0.103448
C156	C	1.557517	0.666439	0.436781
C157	C	0.826684	-0.000212	-0.257782
C158	C	1.160017	0.333121	0.075551
C159	C	1.493351	0.666454	0.408884
C160	C	0.763585	-0.000205	-0.212849
C161	C	1.096918	0.333129	0.120485
C162	C	1.430252	0.666462	0.453818
C163	C	0.764658	-0.000200	-0.140026
C164	C	1.097992	0.333133	0.193307
C165	C	1.431325	0.666466	0.526640
N166	N	0.777630	0.042645	-0.365789
N167	N	1.110963	0.375978	-0.032456
N168	N	1.444297	0.709311	0.300877
N169	N	0.776615	0.042642	-0.434968
N170	N	1.109948	0.375976	-0.101634
N171	N	1.443281	0.709309	0.231699
C172	C	0.823446	-0.000227	-0.477191
C173	C	1.156779	0.333106	-0.143858
C174	C	1.490113	0.666440	0.189476
N175	N	0.871342	-0.043084	-0.447624
N176	N	1.204675	0.290249	-0.114290
N177	N	1.538008	0.623582	0.219043
N178	N	0.872359	-0.043079	-0.378439
N179	N	1.205693	0.290255	-0.045106
N180	N	1.539026	0.623588	0.288228
C181	C	0.825513	-0.000218	-0.336745
C182	C	1.158846	0.333116	-0.003412
C183	C	1.492180	0.666449	0.329922
C184	C	0.885379	-0.000253	-0.601079
C185	C	1.218712	0.333080	-0.267746
C186	C	1.552046	0.666414	0.065587
C187	C	0.884305	-0.000270	-0.673904
C188	C	1.217638	0.333064	-0.340571
C189	C	1.550971	0.666397	-0.007238
C190	C	0.757038	-0.000239	-0.656865
C191	C	1.090371	0.333095	-0.323532
C192	C	1.423704	0.666428	0.009801
C193	C	0.758114	-0.000230	-0.584042
C194	C	1.091447	0.333104	-0.250709
C195	C	1.424781	0.666437	0.082624
C196	C	0.822287	-0.000233	-0.556154
C197	C	1.155620	0.333100	-0.222821
C198	C	1.488953	0.666433	0.110513
C199	C	0.818997	-0.000244	0.220700
C200	C	1.152331	0.333090	0.554033
C201	C	1.485664	0.666423	0.887366
C202	C	0.820138	-0.000255	0.298204
C203	C	1.153471	0.333078	0.631538
C204	C	1.486805	0.666411	0.964871
H205	H	0.464982	-0.000217	0.210776
H206	H	0.798315	0.333116	0.544110
H207	H	1.131648	0.666450	0.877443
O208	O	0.191082	-0.000116	-0.034606
O209	O	0.524415	0.333217	0.298728
O210	O	0.857749	0.666551	0.632061
C211	C	0.233693	0.065085	-0.037790
C212	C	0.567027	0.398418	0.295544
C213	C	0.900360	0.731752	0.628877
H214	H	0.206889	0.110653	-0.002009
H215	H	0.540223	0.443986	0.331324
H216	H	0.873556	0.777319	0.664657
H217	H	0.242044	0.086975	-0.094058
H218	H	0.575377	0.420308	0.239275
H219	H	0.908711	0.753641	0.572609
H220	H	0.286602	0.050352	-0.019878
H221	H	0.619935	0.383686	0.313456
H222	H	0.953269	0.717019	0.646789
O223	O	0.918374	0.180161	-0.000867
O224	O	1.251707	0.513495	0.332467
O225	O	1.585041	0.846828	0.665800
C226	C	0.960423	0.232118	-0.042859
C227	C	1.293756	0.565451	0.290474
C228	C	1.627089	0.898784	0.623808
H229	H	0.931806	0.288623	-0.043573
H230	H	1.265139	0.621957	0.289761
H231	H	1.598473	0.955290	0.623094
H232	H	0.971246	0.209233	-0.098647
H233	H	1.304579	0.542566	0.234686
H234	H	1.637912	0.875900	0.568020
H235	H	1.012217	0.240509	-0.020314
H236	H	1.345550	0.573842	0.313019
H237	H	1.678883	0.907176	0.646352
O238	O	0.047380	-0.000308	-0.036684
O239	O	0.380714	0.333026	0.296649
O240	O	0.714047	0.666359	0.629982
C241	C	-0.026529	-0.000305	-0.024105
C242	C	0.306805	0.333029	0.309229
C243	C	0.640138	0.666362	0.642562
H244	H	-0.043783	-0.024146	0.030436
H245	H	0.289551	0.309188	0.363769
H246	H	0.622884	0.642521	0.697103
H247	H	-0.048745	-0.036858	-0.065148
H248	H	0.284589	0.296475	0.268185
H249	H	0.617922	0.629808	0.601519
H250	H	-0.046823	0.060090	-0.027430
H251	H	0.286510	0.393424	0.305903
H252	H	0.619844	0.726757	0.639236
O253	O	0.635139	-0.000253	-0.028037
O254	O	0.968472	0.333080	0.305297
O255	O	1.301805	0.666414	0.638630
C256	C	0.677791	-0.065459	-0.031227
C257	C	1.011125	0.267874	0.302106
C258	C	1.344458	0.601207	0.635440
H259	H	0.681314	-0.087202	0.024182
H260	H	1.014648	0.246132	0.357515
H261	H	1.347981	0.579465	0.690849
H262	H	0.732598	-0.050785	-0.057403
H263	H	1.065932	0.282548	0.275931
H264	H	1.399265	0.615882	0.609264
H265	H	0.653953	-0.111118	-0.063040
H266	H	0.987286	0.222216	0.270293
H267	H	1.320619	0.555549	0.603627
H268	H	0.910876	0.330041	0.006681
H269	H	1.244209	0.663374	0.340014
H270	H	1.577543	0.996707	0.673347
H271	H	0.495885	-0.000194	-0.020111
H272	H	0.829218	0.333139	0.313222
H273	H	1.162552	0.666472	0.646556
O274	O	0.013836	-0.000405	0.214098
O275	O	0.347169	0.332928	0.547432
O276	O	0.680503	0.666262	0.880765
C277	C	-0.028750	-0.065626	0.217290
C278	C	0.304584	0.267707	0.550623
C279	C	0.637917	0.601041	0.883956
H280	H	-0.032254	-0.087352	0.161880
H281	H	0.301080	0.245982	0.495214
H282	H	0.634413	0.579315	0.828547
H283	H	-0.083571	-0.050978	0.243468
H284	H	0.249763	0.282356	0.576802
H285	H	0.583096	0.615689	0.910135
H286	H	-0.004862	-0.111287	0.249100
H287	H	0.328471	0.222046	0.582433
H288	H	0.661805	0.555380	0.915766
H289	H	0.935683	-0.000284	-0.710481
H290	H	1.269017	0.333050	-0.377148
H291	H	1.602350	0.666383	-0.043815
O292	O	0.730592	0.819580	0.186775
O293	O	1.063925	1.152913	0.520109
O294	O	1.397258	1.486246	0.853442
C295	C	0.687627	0.865436	0.149489
C296	C	1.020961	1.198769	0.482822
C297	C	1.354294	1.532102	0.816156
H298	H	0.715606	0.877308	0.094786
H299	H	1.048939	1.210641	0.428119
H300	H	1.382272	1.543974	0.761452
H301	H	0.676494	0.921160	0.178661
H302	H	1.009827	1.254493	0.511994
H303	H	1.343160	1.587826	0.845327
H304	H	0.636042	0.834922	0.144871
H305	H	0.969375	1.168255	0.478204
H306	H	1.302709	1.501588	0.811537
O307	O	0.696762	-0.000175	-0.540498
O308	O	1.030096	0.333159	-0.207165
O309	O	1.363429	0.666492	0.126168
C310	C	0.639896	-0.000182	-0.580733
C311	C	0.973229	0.333151	-0.247400
C312	C	1.306563	0.666484	0.085934
H313	H	0.657781	0.023643	-0.635146
H314	H	0.991115	0.356977	-0.301813
H315	H	1.324448	0.690310	0.031520
H316	H	0.595698	0.036382	-0.553743
H317	H	0.929031	0.369716	-0.220410
H318	H	1.262365	0.703049	0.112923
H319	H	0.620225	-0.060577	-0.585844
H320	H	0.953558	0.272756	-0.252511
H321	H	1.286891	0.606090	0.080823
H322	H	0.597091	-0.000203	0.212725
H323	H	0.930424	0.333130	0.546058
H324	H	1.263758	0.666464	0.879391
H325	H	0.738070	0.330094	0.179375
H326	H	1.071403	0.663427	0.512708
H327	H	1.404737	0.996761	0.846041
O328	O	0.701210	-0.000088	-0.239861
O329	O	1.034543	0.333245	0.093473
O330	O	1.367877	0.666578	0.426806
C331	C	0.662756	0.065132	-0.216911
C332	C	0.996090	0.398465	0.116423
C333	C	1.329423	0.731799	0.449756
H334	H	0.681625	0.086869	-0.166463
H335	H	1.014958	0.420202	0.166870
H336	H	1.348291	0.753535	0.500203
H337	H	0.604585	0.050478	-0.206623
H338	H	0.937918	0.383811	0.126710
H339	H	1.271251	0.717145	0.460043
H340	H	0.670963	0.110786	-0.259086
H341	H	1.004297	0.444120	0.074248
H342	H	1.337630	0.777453	0.407581
O343	O	0.947774	-0.000304	-0.574099
O344	O	1.281107	0.333030	-0.240766
O345	O	1.614441	0.666363	0.092567
C346	C	1.003232	-0.000309	-0.629371
C347	C	1.336566	0.333025	-0.296038
C348	C	1.669899	0.666358	0.037296
H349	H	0.983814	-0.024140	-0.678778
H350	H	1.317147	0.309193	-0.345445
H351	H	1.650481	0.642526	-0.012112
H352	H	1.048047	-0.036875	-0.614279
H353	H	1.381381	0.296458	-0.280946
H354	H	1.714714	0.629792	0.052388
H355	H	1.022681	0.060083	-0.639749
H356	H	1.356014	0.393416	-0.306416
H357	H	1.689347	0.726749	0.026917
H358	H	0.153080	-0.000276	0.206181
H359	H	0.486413	0.333058	0.539514
H360	H	0.819747	0.666391	0.872847
O361	O	0.730544	0.180211	0.186919
O362	O	1.063877	0.513544	0.520252
O363	O	1.397211	0.846877	0.853585
C364	C	0.688501	0.232187	0.228916
C365	C	1.021835	0.565520	0.562249
C366	C	1.355168	0.898854	0.895583
H367	H	0.717124	0.288662	0.229635
H368	H	1.050458	0.621996	0.562969
H369	H	1.383791	0.955329	0.896302
H370	H	0.677676	0.209282	0.284702
H371	H	1.011009	0.542615	0.618035
H372	H	1.344342	0.875949	0.951369
H373	H	0.636708	0.240645	0.206372
H374	H	0.970041	0.573978	0.539706
H375	H	1.303375	0.907312	0.873039
O376	O	0.918410	0.663340	-0.000858
O377	O	1.251743	0.996673	0.332476
O378	O	1.585077	1.330007	0.665809
C379	C	0.960455	0.715294	-0.042856
C380	C	1.293789	1.048627	0.290478
C381	C	1.627122	1.381961	0.623811
H382	H	0.931837	0.771798	-0.043573
H383	H	1.265170	1.105131	0.289760
H384	H	1.598503	1.438465	0.623094
H385	H	0.971277	0.692404	-0.098642
H386	H	1.304610	1.025737	0.234691
H387	H	1.637944	1.359071	0.568025
H388	H	1.012250	0.723690	-0.020314
H389	H	1.345584	1.057024	0.313019
H390	H	1.678917	1.390357	0.646352
H391	H	0.910905	0.813222	0.006686
H392	H	1.244239	1.146556	0.340019
H393	H	1.577572	1.479889	0.673353
H394	H	0.738096	0.669505	0.179387
H395	H	1.071429	1.002838	0.512720
H396	H	1.404762	1.336172	0.846054
O397	O	0.694767	-0.000194	-0.684071
O398	O	1.028100	0.333140	-0.350738
O399	O	1.361434	0.666473	-0.017405
C400	C	0.707347	-0.000224	-0.757980
C401	C	1.040680	0.333109	-0.424647
C402	C	1.374013	0.666442	-0.091313
H403	H	0.761881	0.023600	-0.775254
H404	H	1.095214	0.356933	-0.441920
H405	H	1.428547	0.690266	-0.108587
H406	H	0.666293	0.036330	-0.780226
H407	H	0.999626	0.369664	-0.446893
H408	H	1.332959	0.702997	-0.113559
H409	H	0.704039	-0.060626	-0.778225
H410	H	1.037372	0.272708	-0.444892
H411	H	1.370705	0.606041	-0.111559
H412	H	0.944176	-0.000222	-0.134360
H413	H	1.277509	0.333112	0.198973
H414	H	1.610843	0.666445	0.532306
H415	H	0.942228	-0.000241	-0.266470
H416	H	1.275561	0.333092	0.066863
H417	H	1.608895	0.666426	0.400197
O418	O	0.703415	-0.000084	-0.096312
O419	O	1.036748	0.333249	0.237021
O420	O	1.370082	0.666583	0.570354
C421	C	0.700209	0.065134	-0.053709
C422	C	1.033543	0.398467	0.279625
C423	C	1.366876	0.731801	0.612958
H424	H	0.755613	0.086862	-0.050203
H425	H	1.088947	0.420196	0.283131
H426	H	1.422280	0.753529	0.616464
H427	H	0.674038	0.050481	0.001110
H428	H	1.007372	0.383814	0.334443
H429	H	1.340705	0.717147	0.667777
H430	H	0.668385	0.110795	-0.077581
H431	H	1.001718	0.444128	0.255752
H432	H	1.335051	0.777462	0.589086
