data_functionalizedCrystal
_audit_creation_method	'MofGen! by Chris Wilmer'
_symmetry_space_group_name_H-M	'P1'
_symmetry_Int_Tables_number	1
_symmetry_cell_setting	triclinic
loop_
_symmetry_equiv_pos_as_xyz
  x,y,z
_cell_length_a	17.699083
_cell_length_b	17.699083
_cell_length_c	9.130313
_cell_angle_alpha	90.006329
_cell_angle_beta	90.000041
_cell_angle_gamma	83.282848
loop_
_atom_site_label
_atom_site_type_symbol
_atom_site_fract_x
_atom_site_fract_y
_atom_site_fract_z
O1	O	-1.004072	-0.095710	-0.121777
O2	O	-0.504072	0.404290	0.378223
O3	O	-0.783693	-0.108163	-0.121786
O4	O	-0.283693	0.391837	0.378214
O5	O	-0.900109	0.008253	-0.121769
O6	O	-0.400109	0.508253	0.378231
O7	O	-0.887656	-0.212125	-0.121795
O8	O	-0.387656	0.287875	0.378205
O9	O	-0.900107	0.008259	0.121830
O10	O	-0.400107	0.508259	0.621830
O11	O	-0.783692	-0.108157	0.121813
O12	O	-0.283692	0.391843	0.621813
O13	O	-1.004070	-0.095703	0.121821
O14	O	-0.504070	0.404297	0.621821
Cu15	Cu	-0.893881	-0.101929	0.144060
Cu16	Cu	-0.393881	0.398071	0.644060
Cu17	Cu	-0.893883	-0.101937	-0.144024
Cu18	Cu	-0.393883	0.398063	0.355976
O19	O	-0.887655	-0.212119	0.121804
O20	O	-0.387655	0.287881	0.621804
C21	C	-0.755496	-0.107713	0.000012
C22	C	-0.255496	0.392287	0.500012
C23	C	-0.671478	-0.106375	0.000009
C24	C	-0.171478	0.393625	0.500009
C25	C	-0.632009	-0.105741	0.132796
C26	C	-0.132009	0.394259	0.632796
C27	C	-0.553067	-0.104472	0.132798
C28	C	-0.053067	0.395528	0.632798
C29	C	-0.513594	-0.103841	0.000010
C30	C	-0.013594	0.396159	0.500010
C31	C	-0.553068	-0.104473	-0.132787
C32	C	-0.053068	0.395527	0.367213
C33	C	-0.632009	-0.105737	-0.132787
C34	C	-0.132009	0.394263	0.367213
C35	C	-0.234705	-0.099374	-0.132791
C36	C	0.265295	0.400626	0.367209
C37	C	-0.155758	-0.098112	-0.132781
C38	C	0.344242	0.401888	0.367219
C39	C	-0.155763	-0.098108	0.132794
C40	C	0.344237	0.401892	0.632794
C41	C	-0.234705	-0.099372	0.132794
C42	C	0.265295	0.400628	0.632794
C43	C	-0.274172	-0.100000	-0.000003
C44	C	0.225828	0.400000	0.499997
C45	C	-0.359771	-0.101375	-0.000002
C46	C	0.140229	0.398625	0.499998
C47	C	-0.427996	-0.102472	0.000009
C48	C	0.072004	0.397528	0.500009
C49	C	-0.899662	0.036453	0.000031
C50	C	-0.399662	0.536453	0.500031
C51	C	-0.898323	0.120471	0.000032
C52	C	-0.398323	0.620471	0.500032
C53	C	-0.032269	-0.096148	0.000018
C54	C	0.467731	0.403852	0.500018
C55	C	-0.116289	-0.097472	0.000008
C56	C	0.383711	0.402528	0.500008
N57	N	-0.893885	-0.101936	-0.346647
N58	N	-0.393885	0.398064	0.153353
C59	C	-0.888102	-0.240319	0.000001
C60	C	-0.388102	0.259681	0.500001
C61	C	-0.889441	-0.324337	-0.000009
C62	C	-0.389441	0.175663	0.499991
C63	C	-0.966657	0.169092	0.000036
C64	C	-0.466657	0.669092	0.500036
C65	C	-0.965395	0.248036	0.000023
C66	C	-0.465395	0.748036	0.500023
C67	C	-0.895798	0.278356	0.000016
C68	C	-0.395798	0.778356	0.500016
C69	C	-0.827459	0.229729	0.000007
C70	C	-0.327459	0.729729	0.500007
C71	C	-0.828722	0.150787	0.000009
C72	C	-0.328722	0.650787	0.500009
C73	C	-0.822364	0.548092	-0.000005
C74	C	-0.322364	1.048092	0.499995
C75	C	-0.821106	0.627040	-0.000003
C76	C	-0.321106	1.127040	0.499997
C77	C	-0.959036	0.645341	0.000009
C78	C	-0.459036	1.145341	0.500009
C79	C	-0.960299	0.566399	0.000011
C80	C	-0.460299	1.066399	0.500011
C81	C	-0.891961	0.517778	-0.000006
C82	C	-0.391961	1.017778	0.499994
C83	C	-0.893331	0.432179	0.000006
C84	C	-0.393331	0.932179	0.500006
C85	C	-0.894428	0.363954	0.000015
C86	C	-0.394428	0.863954	0.500015
C87	C	-0.945528	-0.050487	-0.423291
C88	C	-0.445528	0.449513	0.076709
C89	C	-0.945531	-0.050482	-0.576628
C90	C	-0.445531	0.449518	-0.076628
C91	C	-0.842239	-0.153379	-0.576663
C92	C	-0.342239	0.346621	-0.076663
C93	C	-0.842241	-0.153387	-0.423329
C94	C	-0.342241	0.346613	0.076671
C95	C	-0.997172	0.000964	-0.346609
C96	C	-0.497172	0.500964	0.153391
C97	C	-1.048819	0.052418	-0.423254
C98	C	-0.548819	0.552418	0.076746
C99	C	-1.048822	0.052423	-0.576591
C100	C	-0.548822	0.552423	-0.076591
C101	C	-0.997177	0.000973	-0.653283
C102	C	-0.497177	0.500973	-0.153283
N103	N	-0.893885	-0.101924	0.346682
N104	N	-0.393885	0.398076	0.846682
H105	H	-0.520923	-0.103955	-0.240905
H106	H	-0.020923	0.396045	0.259095
C107	C	-1.040567	0.301516	0.000052
C108	C	-0.540567	0.801516	0.500052
N109	N	-1.097190	0.341798	0.000081
N110	N	-0.597190	0.841798	0.500081
C111	C	-1.034211	0.698830	0.000011
C112	C	-0.534211	1.198830	0.500011
N113	N	-1.090830	0.739117	0.000016
N114	N	-0.590830	1.239117	0.500016
C115	C	-1.043220	0.135748	0.000044
C116	C	-0.543220	0.635748	0.500044
N117	N	-1.100889	0.110635	0.000044
N118	N	-0.600889	0.610635	0.500044
C119	C	-0.753550	0.097304	0.000008
C120	C	-0.253550	0.597304	0.500008
N121	N	-0.696928	0.057020	0.000003
N122	N	-0.196928	0.557020	0.500003
C123	C	-1.036860	0.533051	0.000019
C124	C	-0.536860	1.033051	0.500019
N125	N	-1.094528	0.507935	0.000019
N126	N	-0.594528	1.007935	0.500019
C127	C	-0.997185	0.000979	-0.821959
C128	C	-0.497185	0.500979	-0.321959
N129	N	-0.997189	0.000987	-0.949004
N130	N	-0.497189	0.500987	-0.449004
H131	H	-0.997173	0.000966	-0.221755
H132	H	-0.497173	0.500966	0.278245
H133	H	-0.266830	-0.099882	-0.240922
H134	H	0.233170	0.400118	0.259078
H135	H	-0.800191	-0.195266	-0.639116
H136	H	-0.300191	0.304734	-0.139116
C137	C	-0.278121	-0.100064	0.278870
C138	C	0.221879	0.399936	0.778870
N139	N	-0.310822	-0.100580	0.388898
N140	N	0.189178	0.399420	0.888898
H141	H	-0.800189	-0.195282	-0.360924
H142	H	-0.300189	0.304718	0.139076
C143	C	-0.744541	0.660390	-0.000023
C144	C	-0.244541	1.160390	0.499977
N145	N	-0.686875	0.685509	-0.000040
N146	N	-0.186875	1.185509	0.499960
C147	C	-0.112339	-0.097410	-0.278865
C148	C	0.387661	0.402590	0.221135
N149	N	-0.079637	-0.096880	-0.388889
N150	N	0.420363	0.403120	0.111111
H151	H	-1.090871	0.094303	-0.360803
H152	H	-0.590871	0.594303	0.139197
C153	C	-0.675423	-0.106436	-0.278863
C154	C	-0.175423	0.393564	0.221137
N155	N	-0.708122	-0.106961	-0.388893
N156	N	-0.208122	0.393039	0.111107
C157	C	-0.750902	0.263084	0.000011
C158	C	-0.250902	0.763084	0.500011
N159	N	-0.693238	0.288207	0.000025
N160	N	-0.193238	0.788207	0.500025
C161	C	-0.675423	-0.106434	0.278876
C162	C	-0.175423	0.393566	0.778876
N163	N	-0.708121	-0.106952	0.388907
N164	N	-0.208121	0.393048	0.888907
C165	C	-0.509653	-0.103792	0.278874
C166	C	-0.009653	0.396208	0.778874
N167	N	-0.476954	-0.103285	0.388906
N168	N	0.023046	0.396715	0.888906
H169	H	-1.090879	0.094313	-0.638993
H170	H	-0.590879	0.594313	-0.138993
H171	H	-0.123619	-0.097594	0.240923
H172	H	0.376381	0.402406	0.740923
C173	C	-0.747190	0.494619	-0.000032
C174	C	-0.247190	0.994619	0.499968
N175	N	-0.690565	0.454341	-0.000056
N176	N	-0.190565	0.954341	0.499944
