data_functionalizedCrystal
_audit_creation_method	'MofGen! by Chris Wilmer'
_symmetry_space_group_name_H-M	'P1'
_symmetry_Int_Tables_number	1
_symmetry_cell_setting	triclinic
loop_
_symmetry_equiv_pos_as_xyz
  x,y,z
_cell_length_a	10.654562
_cell_length_b	10.654550
_cell_length_c	9.730223
_cell_angle_alpha	90.000193
_cell_angle_beta	89.996961
_cell_angle_gamma	95.512497
loop_
_atom_site_label
_atom_site_type_symbol
_atom_site_fract_x
_atom_site_fract_y
_atom_site_fract_z
O1	O	1.667825	-0.176469	-0.114377
O2	O	1.302348	-0.193259	-0.114359
O3	O	1.493489	-0.002125	-0.114363
O4	O	1.476683	-0.367603	-0.114373
O5	O	1.493487	-0.002130	0.114217
O6	O	1.302346	-0.193264	0.114221
O7	O	1.667822	-0.176474	0.114203
Zn8	Zn	1.485084	-0.184870	0.150504
Zn9	Zn	1.485087	-0.184863	-0.150660
O10	O	1.476681	-0.367608	0.114207
C11	C	1.255549	-0.192025	-0.000067
C12	C	1.116107	-0.188327	-0.000060
C13	C	1.492254	0.044671	-0.000075
C14	C	1.488563	0.184114	-0.000079
N15	N	1.485091	-0.184873	0.356040
C16	C	1.050575	-0.186604	0.124528
C17	C	0.919553	-0.183139	0.124505
C18	C	0.919605	-0.183125	-0.124705
C19	C	1.050626	-0.186581	-0.124681
C20	C	1.116056	-0.188351	0.249149
C21	C	1.050524	-0.186630	0.373747
C22	C	0.919501	-0.183165	0.373724
C23	C	0.854011	-0.181421	0.249103
C24	C	1.714621	-0.177708	-0.000092
C25	C	1.854064	-0.181406	-0.000108
C26	C	1.477916	-0.414403	-0.000084
C27	C	1.481608	-0.553847	-0.000088
C28	C	1.601103	0.263595	-0.000081
C29	C	1.597627	0.394615	-0.000090
C30	C	1.369059	0.366662	-0.000091
C31	C	1.372537	0.235644	-0.000092
C32	C	1.717129	0.212064	-0.000068
C33	C	1.829680	0.291546	-0.000068
C34	C	1.826203	0.422567	-0.000077
C35	C	1.710176	0.474106	-0.000087
N36	N	1.485089	-0.184850	-0.356196
C37	C	1.569750	-0.100268	0.427965
C38	C	1.569747	-0.100253	0.571848
C39	C	1.400421	-0.269459	0.571869
C40	C	1.400419	-0.269467	0.427989
C41	C	1.654422	-0.015674	0.356016
C42	C	1.739089	0.068937	0.427940
C43	C	1.739086	0.068952	0.571823
C44	C	1.654415	-0.015644	0.643782
H45	H	1.222740	-0.191176	0.249181
H46	H	1.654411	-0.015616	0.760941
C47	C	0.847567	-0.181223	-0.261775
H48	H	0.760149	-0.178931	-0.243944
H49	H	0.877974	-0.108682	-0.312972
H50	H	0.860122	-0.254909	-0.312963
C51	C	1.832211	0.162019	0.650937
H52	H	1.882640	0.212389	0.587476
H53	H	1.786590	0.214733	0.707063
H54	H	1.884880	0.116343	0.707064
C55	C	1.706354	0.618227	-0.000105
H56	H	1.789997	0.658185	-0.000101
H57	H	1.663360	0.642700	-0.079815
H58	H	1.663361	0.642708	0.079617
H59	H	1.924144	0.249574	-0.000094
H60	H	0.747324	-0.178596	0.249094
C61	C	1.122715	-0.188486	-0.261725
H62	H	1.064952	-0.186971	-0.335948
H63	H	1.182759	-0.116728	-0.266893
H64	H	1.164893	-0.262954	-0.266890
H65	H	1.331487	-0.338334	0.630467
H66	H	0.866150	-0.181753	0.475178
C67	C	1.122557	-0.188545	0.510818
H68	H	1.209972	-0.190867	0.492991
H69	H	1.110008	-0.114873	0.562019
H70	H	1.092138	-0.261099	0.562002
C71	C	1.720958	0.067947	-0.000066
H72	H	1.806175	0.048638	-0.000069
H73	H	1.679528	0.033146	0.079642
H74	H	1.679548	0.033148	-0.079790
H75	H	1.808018	0.137819	0.369344
H76	H	1.917847	0.487279	-0.000091
H77	H	1.274595	0.408637	-0.000097
C78	C	1.248745	0.148211	-0.000088
H79	H	1.179146	0.197663	-0.000076
H80	H	1.245358	0.096520	-0.079799
H81	H	1.245350	0.096520	0.079632
H82	H	1.331481	-0.338359	0.369428
C83	C	1.654427	-0.015695	0.197751
H84	H	1.591885	-0.078205	0.165219
H85	H	1.636557	0.064735	0.165184
H86	H	1.734846	-0.033656	0.165210
