data_functionalizedCrystal
_audit_creation_method	'MofGen! by Chris Wilmer'
_symmetry_space_group_name_H-M	'P1'
_symmetry_Int_Tables_number	1
_symmetry_cell_setting	triclinic
loop_
_symmetry_equiv_pos_as_xyz
  x,y,z
_cell_length_a	19.805407
_cell_length_b	12.645330
_cell_length_c	19.805399
_cell_angle_alpha	89.978279
_cell_angle_beta	89.980427
_cell_angle_gamma	90.017692
loop_
_atom_site_label
_atom_site_type_symbol
_atom_site_fract_x
_atom_site_fract_y
_atom_site_fract_z
Zn1	Zn	1.034777	-0.422064	-0.382747
Zn2	Zn	1.034709	-0.599342	-0.269571
Zn3	Zn	0.921591	-0.422093	-0.269572
Zn4	Zn	0.921572	-0.599286	-0.382717
O5	O	0.978162	-0.510696	-0.326152
O6	O	1.129484	-0.445592	-0.367746
O7	O	1.019683	-0.575865	-0.174854
O8	O	0.936642	-0.273742	-0.284598
O9	O	1.129434	-0.575837	-0.284596
O10	O	1.019799	-0.273721	-0.367747
O11	O	0.936576	-0.445641	-0.174855
O12	O	0.826872	-0.445587	-0.284569
O13	O	0.936609	-0.575741	-0.477438
O14	O	0.826858	-0.575769	-0.367696
O15	O	1.019780	-0.445537	-0.477460
O16	O	1.019664	-0.747682	-0.284567
O17	O	0.936543	-0.747641	-0.367695
C18	C	0.802306	-0.510676	-0.326130
C19	C	0.727074	-0.510693	-0.326137
C20	C	0.691740	-0.578581	-0.369351
C21	C	0.621052	-0.578583	-0.369361
C22	C	0.585699	-0.510701	-0.326152
C23	C	0.621037	-0.442805	-0.282935
C24	C	0.691725	-0.442799	-0.282930
C25	C	0.335964	-0.442829	-0.282958
C26	C	0.265272	-0.442843	-0.282965
C27	C	0.265292	-0.578613	-0.369388
C28	C	0.335979	-0.578606	-0.369383
C29	C	0.371311	-0.510707	-0.326169
C30	C	0.447960	-0.510705	-0.326160
C31	C	0.509051	-0.510708	-0.326157
C32	C	0.978113	-0.786126	-0.326142
C33	C	0.978154	-0.903956	-0.326161
C34	C	0.926078	-1.071538	-0.378618
C35	C	0.925811	-0.948979	-0.378450
C36	C	0.958847	-0.948544	-0.254828
C37	C	0.958530	-1.071142	-0.255147
C38	C	1.049854	-1.071047	-0.344457
C39	C	1.049415	-0.948440	-0.346017
C40	C	1.154705	-0.510717	-0.326174
C41	C	1.229937	-0.510726	-0.326184
C42	C	0.978200	-0.510629	-0.502695
C43	C	0.978216	-0.510601	-0.577927
C44	C	0.978230	-0.234191	-0.326176
C45	C	0.978259	-0.116361	-0.326186
C46	C	1.021524	-0.442800	-0.613283
C47	C	1.021531	-0.442770	-0.683972
C48	C	0.978233	-0.510546	-0.719302
C49	C	0.934920	-0.578349	-0.683941
C50	C	0.934910	-0.578374	-0.613253
C51	C	0.934958	-0.578250	-0.969014
C52	C	0.934973	-0.578223	-1.039706
C53	C	1.021579	-0.442646	-1.039732
C54	C	1.021570	-0.442671	-0.969045
C55	C	0.978255	-0.510470	-0.933690
C56	C	0.978247	-0.510501	-0.857041
C57	C	0.978244	-0.510521	-0.795949
C58	C	0.978163	-0.510686	-0.150296
C59	C	0.978278	-0.510416	-0.075064
H60	H	0.720520	-0.633862	-0.404534
H61	H	0.364760	-0.633886	-0.404566
N62	N	0.582908	-0.369597	-0.236327
H63	H	0.616020	-0.326588	-0.208950
H64	H	0.553596	-0.320598	-0.263932
N65	N	0.227185	-0.651840	-0.416007
H66	H	0.239470	-0.727559	-0.405407
H67	H	0.177052	-0.641456	-0.409438
N68	N	0.374077	-0.369614	-0.236349
H69	H	0.403422	-0.320542	-0.263909
H70	H	0.340918	-0.326682	-0.208981
N71	N	0.582941	-0.651820	-0.415960
H72	H	0.616063	-0.694831	-0.443325
H73	H	0.553597	-0.700815	-0.388346
N74	N	1.068268	-0.369565	-0.930941
H75	H	1.061690	-0.379870	-0.880796
H76	H	1.116606	-0.386066	-0.943305
H77	H	1.056846	-0.387437	-1.068527
N78	N	0.856209	-1.112458	-0.362788
H79	H	0.825088	-1.050952	-0.353350
H80	H	0.838575	-1.153949	-0.402621
N81	N	0.227141	-0.369623	-0.236358
H82	H	0.197827	-0.320565	-0.263921
H83	H	0.197836	-0.412726	-0.204957
N84	N	0.729842	-0.369585	-0.236318
H85	H	0.759187	-0.320514	-0.263878
H86	H	0.696681	-0.326653	-0.208952
H87	H	0.937890	-0.918829	-0.431342
N88	N	0.888224	-0.651458	-0.722046
H89	H	0.860787	-0.694413	-0.688919
H90	H	0.856916	-0.608295	-0.751375
H91	H	0.906193	-1.099832	-0.239669
H92	H	0.938046	-1.100955	-0.431684
N93	N	1.101351	-1.109443	-0.293876
H94	H	1.137478	-1.151319	-0.317960
H95	H	1.122567	-1.046729	-0.270500
N96	N	0.855509	-0.910237	-0.362408
H97	H	0.822958	-0.937088	-0.397710
H98	H	0.841482	-0.937309	-0.316516
N99	N	0.888205	-0.651504	-0.575111
H100	H	0.856847	-0.608423	-0.545782
H101	H	0.860821	-0.694427	-0.608256
H102	H	0.994887	-1.100796	-0.214749
H103	H	1.056785	-0.387612	-0.584522
H104	H	1.056799	-0.387562	-0.712756
H105	H	0.995649	-0.919382	-0.214695
N106	N	0.890240	-0.908016	-0.233958
H107	H	0.878266	-0.937149	-0.187997
H108	H	0.891213	-0.828223	-0.231991
H109	H	1.063974	-0.919294	-0.398514
N110	N	1.073189	-1.111905	-0.412185
H111	H	1.037582	-1.160210	-0.431711
H112	H	1.080888	-1.050371	-0.443790
H113	H	0.899712	-0.633416	-1.068470
N114	N	0.888220	-0.651338	-0.930886
H115	H	0.860789	-0.694259	-0.963996
H116	H	0.915730	-0.700425	-0.901543
H117	H	1.090340	-0.917787	-0.310610
