data_functionalizedCrystal
_audit_creation_method	'MofGen! by Chris Wilmer'
_symmetry_space_group_name_H-M	'P1'
_symmetry_Int_Tables_number	1
_symmetry_cell_setting	triclinic
loop_
_symmetry_equiv_pos_as_xyz
  x,y,z
_cell_length_a	18.101398
_cell_length_b	16.625546
_cell_length_c	16.625539
_cell_angle_alpha	89.971468
_cell_angle_beta	89.977600
_cell_angle_gamma	90.017734
loop_
_atom_site_label
_atom_site_type_symbol
_atom_site_fract_x
_atom_site_fract_y
_atom_site_fract_z
Zn1	Zn	1.132151	-0.321117	-0.456013
Zn2	Zn	1.632151	0.178883	0.043987
Zn3	Zn	1.132070	-0.455956	-0.321175
Zn4	Zn	1.632070	0.044044	0.178825
Zn5	Zn	1.008314	-0.321129	-0.321180
Zn6	Zn	1.508314	0.178871	0.178820
Zn7	Zn	1.008280	-0.455900	-0.455952
Zn8	Zn	1.508280	0.044100	0.044048
O9	O	1.070204	-0.388525	-0.388580
O10	O	1.570204	0.111475	0.111420
O11	O	1.235773	-0.339021	-0.438149
O12	O	1.735773	0.160979	0.061851
O13	O	1.115634	-0.438099	-0.208343
O14	O	1.615634	0.061901	0.291657
O15	O	1.024790	-0.208295	-0.339094
O16	O	1.524790	0.291705	0.160906
O17	O	1.235714	-0.438087	-0.339084
O18	O	1.735714	0.061913	0.160916
O19	O	1.115773	-0.208286	-0.438154
O20	O	1.615773	0.291714	0.061846
O21	O	1.024711	-0.339043	-0.208347
O22	O	1.524711	0.160957	0.291653
O23	O	0.904677	-0.338989	-0.339035
O24	O	1.404677	0.161011	0.160965
O25	O	1.024731	-0.437992	-0.568793
O26	O	1.524731	0.062008	-0.068793
O27	O	0.904651	-0.438004	-0.438051
O28	O	1.404651	0.061996	0.061949
O29	O	1.115739	-0.338968	-0.568837
O30	O	1.615739	0.161032	-0.068837
O31	O	1.115600	-0.568781	-0.339026
O32	O	1.615600	-0.068781	0.160974
O33	O	1.024652	-0.568740	-0.438046
O34	O	1.524652	-0.068740	0.061954
C35	C	1.070134	-0.598016	-0.388546
C36	C	1.570134	-0.098016	0.111454
C37	C	1.070172	-0.687637	-0.388559
C38	C	1.570172	-0.187637	0.111441
C39	C	0.877793	-0.388493	-0.388538
C40	C	1.377793	0.111507	0.111462
C41	C	0.795479	-0.388498	-0.388539
C42	C	1.295479	0.111502	0.111461
C43	C	1.070301	-1.015813	-0.388643
C44	C	1.570301	-0.515813	0.111357
C45	C	1.070262	-0.924505	-0.388622
C46	C	1.570262	-0.424505	0.111378
C47	C	1.070236	-0.851728	-0.388600
C48	C	1.570236	-0.351728	0.111400
C49	C	1.070198	-0.760414	-0.388580
C50	C	1.570198	-0.260414	0.111420
C51	C	0.496388	-0.388548	-0.388607
C52	C	0.996388	0.111452	0.111393
C53	C	0.527705	-0.325939	-0.326612
C54	C	1.027705	0.174061	0.173388
C55	C	0.613323	-0.326107	-0.326348
C56	C	1.113323	0.173893	0.173652
C57	C	0.644771	-0.388523	-0.388573
C58	C	1.144771	0.111477	0.111427
C59	C	0.613665	-0.473459	-0.365354
C60	C	1.113665	0.026541	0.134646
C61	C	0.528020	-0.473111	-0.364923
C62	C	1.028020	0.026889	0.135077
C63	C	0.527997	-0.366960	-0.473966
C64	C	1.027997	0.133040	0.026034
C65	C	0.613648	-0.365068	-0.473500
C66	C	1.113648	0.134932	0.026500
C67	C	0.728630	-0.388514	-0.388556
C68	C	1.228630	0.111486	0.111444
C69	C	0.412529	-0.388563	-0.388622
C70	C	0.912529	0.111437	0.111378
C71	C	1.263366	-0.388559	-0.388623
C72	C	1.763366	0.111441	0.111377
C73	C	1.345680	-0.388573	-0.388641
C74	C	1.845680	0.111427	0.111359
C75	C	1.070240	-0.388472	-0.598889
C76	C	1.570240	0.111528	-0.098889
C77	C	1.070256	-0.388450	-0.688510
C78	C	1.570256	0.111550	-0.188510
C79	C	1.070294	-0.178217	-0.388632
C80	C	1.570294	0.321783	0.111368
C81	C	1.070333	-0.088595	-0.388654
C82	C	1.570333	0.411405	0.111346
C83	C	1.070268	-0.388432	-0.761293
C84	C	1.570268	0.111568	-0.261293
C85	C	1.070285	-0.388402	-0.852601
C86	C	1.570285	0.111598	-0.352601
C87	C	1.070302	-0.388373	-0.925378
C88	C	1.570302	0.111627	-0.425378
C89	C	1.070321	-0.388344	-1.016692
C90	C	1.570321	0.111656	-0.516692
C91	C	1.070210	-0.388520	-0.179089
C92	C	1.570210	0.111480	0.320911
C93	C	1.070338	-0.388316	-0.089469
C94	C	1.570338	0.111684	0.410531
H95	H	0.507125	-0.262763	-0.341007
H96	H	1.007125	0.237237	0.158993
H97	H	0.635057	-0.407346	-0.522166
H98	H	1.135057	0.092654	-0.022166
O99	O	0.640581	-0.282276	-0.496701
O100	O	1.140581	0.217724	0.003299
H101	H	0.701869	-0.282119	-0.498795
H102	H	1.201869	0.217881	0.001205
O103	O	0.500575	-0.536999	-0.422118
O104	O	1.000575	-0.036999	0.077882
H105	H	0.439257	-0.537226	-0.422242
H106	H	0.939257	-0.037226	0.077758
O107	O	0.641191	-0.242675	-0.345600
O108	O	1.141191	0.257325	0.154400
H109	H	0.593496	-0.201842	-0.355182
H110	H	1.093496	0.298158	0.144818
O111	O	0.640432	-0.344974	-0.242560
O112	O	1.140432	0.155026	0.257440
H113	H	0.592370	-0.354027	-0.202075
H114	H	1.092370	0.145973	0.297925
O115	O	0.501508	-0.497350	-0.282264
O116	O	1.001508	0.002650	0.217736
H117	H	0.549859	-0.509207	-0.242974
H118	H	1.049859	-0.009207	0.257026
O119	O	0.499160	-0.344621	-0.243318
O120	O	0.999160	0.155379	0.256682
H121	H	0.521594	-0.300072	-0.200030
H122	H	1.021594	0.199928	0.299970
H123	H	0.507746	-0.412562	-0.520158
H124	H	1.007746	0.087438	-0.020158
O125	O	0.640644	-0.536915	-0.423285
O126	O	1.140644	-0.036915	0.076715
H127	H	0.676598	-0.508521	-0.469348
H128	H	1.176598	-0.008521	0.030652
H129	H	0.506416	-0.306102	-0.495077
H130	H	1.006416	0.193898	0.004923
O131	O	0.642024	-0.498137	-0.283584
O132	O	1.142024	0.001863	0.216416
H133	H	0.678263	-0.450050	-0.259351
H134	H	1.178263	0.049950	0.240649
