data_functionalizedCrystal
_audit_creation_method	'MofGen! by Chris Wilmer'
_symmetry_space_group_name_H-M	'P1'
_symmetry_Int_Tables_number	1
_symmetry_cell_setting	triclinic
loop_
_symmetry_equiv_pos_as_xyz
  x,y,z
_cell_length_a	15.995292
_cell_length_b	15.995292
_cell_length_c	10.868271
_cell_angle_alpha	89.998057
_cell_angle_beta	89.994509
_cell_angle_gamma	83.468616
loop_
_atom_site_label
_atom_site_type_symbol
_atom_site_fract_x
_atom_site_fract_y
_atom_site_fract_z
O1	O	1.110993	0.107698	-0.102347
O2	O	1.610993	0.607698	0.397653
O3	O	0.867208	0.121077	-0.102341
O4	O	1.367208	0.621077	0.397659
O5	O	0.995790	-0.007505	-0.102346
O6	O	1.495790	0.492495	0.397654
O7	O	0.982411	0.236280	-0.102342
O8	O	1.482411	0.736280	0.397658
O9	O	0.995780	-0.007510	0.102299
O10	O	1.495780	0.492490	0.602299
O11	O	0.867198	0.121072	0.102304
O12	O	1.367198	0.621072	0.602304
O13	O	1.110983	0.107693	0.102298
O14	O	1.610983	0.607693	0.602298
Zn15	Zn	0.989089	0.114382	0.134793
Zn16	Zn	1.489089	0.614382	0.634793
Zn17	Zn	0.989102	0.114388	-0.134836
Zn18	Zn	1.489102	0.614388	0.365164
O19	O	0.982401	0.236275	0.102303
O20	O	1.482401	0.736275	0.602303
C21	C	0.836008	0.120530	-0.000018
C22	C	1.336008	0.620530	0.499982
C23	C	0.743055	0.118898	-0.000016
C24	C	1.243055	0.618898	0.499984
C25	C	0.405318	0.112896	-0.000030
C26	C	0.905318	0.612896	0.499970
C27	C	0.428611	0.205703	-0.000485
C28	C	0.928611	0.705703	0.499515
C29	C	0.525286	0.207467	-0.000019
C30	C	1.025286	0.707467	0.499981
C31	C	0.572873	0.115874	-0.000024
C32	C	1.072873	0.615874	0.499976
C33	C	0.543775	0.069472	0.116834
C34	C	1.043775	0.569472	0.616834
C35	C	0.446985	0.068355	0.116926
C36	C	0.946985	0.568355	0.616926
C37	C	0.447142	0.066465	-0.115793
C38	C	0.947142	0.566465	0.384207
C39	C	0.543634	0.069905	-0.117332
C40	C	1.043634	0.569905	0.382668
C41	C	0.667569	0.117552	-0.000016
C42	C	1.167569	0.617552	0.499984
C43	C	0.310622	0.111215	-0.000029
C44	C	0.810622	0.611215	0.499971
C45	C	0.995240	-0.038703	-0.000027
C46	C	1.495240	0.461297	0.499973
C47	C	0.993608	-0.131655	-0.000036
C48	C	1.493608	0.368345	0.499964
C49	C	0.987607	-0.469393	-0.000024
C50	C	1.487607	0.030607	0.499976
C51	C	1.080413	-0.446100	0.000431
C52	C	1.580413	0.053900	0.500431
C53	C	1.082177	-0.349424	-0.000035
C54	C	1.582177	0.150576	0.499965
C55	C	0.990584	-0.301837	-0.000029
C56	C	1.490584	0.198163	0.499971
C57	C	0.944191	-0.330926	-0.116886
C58	C	1.444191	0.169074	0.383114
C59	C	0.943074	-0.427716	-0.116980
C60	C	1.443074	0.072284	0.383020
C61	C	0.941167	-0.427578	0.115739
C62	C	1.441167	0.072422	0.615739
C63	C	0.944606	-0.331087	0.117279
C64	C	1.444606	0.168913	0.617279
C65	C	0.992263	-0.207141	-0.000036
C66	C	1.492263	0.292859	0.499964
C67	C	0.985926	-0.564088	-0.000026
C68	C	1.485926	-0.064088	0.499974
C69	C	1.142183	0.108240	-0.000028
C70	C	1.642183	0.608240	0.499972
C71	C	1.235136	0.109873	-0.000038
C72	C	1.735136	0.609873	0.499962
C73	C	0.982951	0.267473	-0.000019
C74	C	1.482951	0.767473	0.499981
C75	C	0.984583	0.360426	-0.000018
C76	C	1.484583	0.860426	0.499982
N77	N	0.989085	0.114377	0.318807
N78	N	1.489085	0.614377	0.818807
N79	N	0.989112	0.114387	-0.318850
N80	N	1.489112	0.614387	0.181150
C81	C	0.989098	0.114387	0.569813
C82	C	1.489098	0.614387	1.069813
C83	C	0.989088	0.114384	0.430135
C84	C	1.489088	0.614384	0.930135
H85	H	0.399580	0.241274	0.082849
H86	H	0.899580	0.741274	0.582849
H87	H	1.118734	-0.331025	-0.083951
H88	H	1.618734	0.168975	0.416049
Cl89	Cl	1.135347	-0.490906	-0.128231
Cl90	Cl	1.635347	0.009094	0.371769
H91	H	0.400612	0.241477	-0.084289
H92	H	0.900612	0.741477	0.415711
H93	H	0.420156	0.100487	0.204283
H94	H	0.920156	0.600487	0.704283
Cl95	Cl	1.135642	-0.489339	0.129818
Cl96	Cl	1.635642	0.010661	0.629818
Cl97	Cl	0.838020	-0.450163	-0.125172
Cl98	Cl	1.338020	0.049837	0.374828
H99	H	0.975213	-0.454537	-0.204337
H100	H	1.475213	0.045463	0.295663
H101	H	0.876791	-0.299044	-0.121227
H102	H	1.376791	0.200956	0.378773
Cl103	Cl	0.993945	-0.299968	-0.251163
Cl104	Cl	1.493945	0.200032	0.248837
H105	H	0.562201	0.103690	-0.203783
H106	H	1.062201	0.603690	0.296217
H107	H	0.544309	0.243802	-0.083790
H108	H	1.044309	0.743802	0.416210
Cl109	Cl	0.594551	-0.033317	-0.128233
Cl110	Cl	1.094551	0.466683	0.371767
Cl111	Cl	0.425565	-0.039004	-0.117016
Cl112	Cl	0.925565	0.460996	0.382984
H113	H	0.970389	-0.455675	0.204317
H114	H	1.470389	0.044325	0.704317
H115	H	0.575657	0.002072	0.121175
H116	H	1.075657	0.502072	0.621175
Cl117	Cl	0.574723	0.119215	0.251110
Cl118	Cl	1.074723	0.619215	0.751110
H119	H	0.872854	-0.441555	0.116531
H120	H	1.372854	0.058445	0.616531
Cl121	Cl	1.138254	-0.320059	0.129312
Cl122	Cl	1.638254	0.179941	0.629312
H123	H	0.543677	0.244022	0.083893
H124	H	1.043677	0.744022	0.583893
H125	H	0.418813	0.095476	-0.204365
H126	H	0.918813	0.595476	0.295635
Cl127	Cl	0.996753	-0.302429	0.250756
Cl128	Cl	1.496753	0.197571	0.750756
Cl129	Cl	0.424537	-0.036698	0.125189
Cl130	Cl	0.924537	0.463302	0.625189
H131	H	0.877752	-0.298103	0.124341
H132	H	1.377752	0.201897	0.624341
