data_functionalizedCrystal
_audit_creation_method	'MofGen! by Chris Wilmer'
_symmetry_space_group_name_H-M	'P1'
_symmetry_Int_Tables_number	1
_symmetry_cell_setting	triclinic
loop_
_symmetry_equiv_pos_as_xyz
  x,y,z
_cell_length_a	16.974800
_cell_length_b	15.944551
_cell_length_c	15.455313
_cell_angle_alpha	92.664316
_cell_angle_beta	90.973911
_cell_angle_gamma	83.444312
loop_
_atom_site_label
_atom_site_type_symbol
_atom_site_fract_x
_atom_site_fract_y
_atom_site_fract_z
O1	O	1.049080	0.107075	0.001537
O2	O	0.819648	0.119903	-0.014576
O3	O	0.940629	-0.008771	-0.006072
O4	O	0.928099	0.235749	-0.006967
O5	O	0.933711	-0.001443	0.137704
O6	O	0.812730	0.127230	0.129200
O7	O	1.042162	0.114403	0.145313
Cu8	Cu	0.926814	0.121486	0.150384
Cu9	Cu	0.934996	0.112820	-0.019647
O10	O	0.921181	0.243077	0.136809
C11	C	0.786830	0.122944	0.055250
C12	C	0.699348	0.121081	0.049106
C13	C	0.654483	0.124197	0.124594
C14	C	0.572286	0.122433	0.118824
C15	C	0.534955	0.117557	0.037565
C16	C	0.579827	0.114438	-0.037929
C17	C	0.662023	0.116197	-0.032158
C18	C	0.289530	0.111864	0.011901
C19	C	0.207328	0.110108	0.006135
C20	C	0.199793	0.118101	0.162889
C21	C	0.281990	0.119865	0.168652
C22	C	0.326855	0.116741	0.093159
N23	N	0.450937	0.115756	0.031665
N24	N	0.410873	0.118536	0.099060
C25	C	0.936650	-0.036402	0.065780
C26	C	0.935090	-0.129652	0.065671
C27	C	0.856373	-0.344691	0.060130
C28	C	0.889516	-0.402011	0.133588
C29	C	0.932269	-0.300385	0.065466
C30	C	0.896355	-0.409219	-0.008163
C31	C	0.929539	-0.465304	0.065264
C32	C	0.965430	-0.356473	0.138983
C33	C	0.972261	-0.363678	-0.002831
C34	C	1.005458	-0.420980	0.070647
C35	C	0.933840	-0.205378	0.065583
C36	C	0.927974	-0.560309	0.065154
C37	C	1.074981	0.111361	0.075485
C38	C	1.162463	0.113225	0.081623
C39	C	0.925161	0.270708	0.064955
C40	C	0.926720	0.363957	0.065059
N41	N	0.921066	0.127580	0.269976
N42	N	0.940751	0.106719	-0.139238
C43	C	0.972480	0.072935	0.318984
C44	C	0.968140	0.077552	0.409487
C45	C	0.912388	0.136819	0.450980
C46	C	0.860968	0.191466	0.401965
C47	C	0.865305	0.186845	0.311463
C48	C	0.893668	0.156744	0.721245
C49	C	0.889336	0.161364	0.811753
C50	C	0.996508	0.047448	0.819269
C51	C	1.000843	0.042835	0.728766
C52	C	0.949420	0.097480	0.679759
N53	N	0.907952	0.141541	0.543488
N54	N	0.953853	0.092753	0.587252
H55	H	0.163255	0.120643	0.224351
H56	H	0.698552	0.113660	-0.093628
H57	H	0.994617	-0.333351	0.201234
O58	O	1.018176	0.024441	0.456965
C59	C	1.068308	-0.028865	0.400936
H60	H	1.072278	0.002281	0.336477
H61	H	1.043196	-0.091840	0.389537
C62	C	1.146750	-0.082353	0.521373
C63	C	1.151632	-0.044096	0.442206
H64	H	1.198148	-0.091752	0.546831
H65	H	1.112974	-0.046442	0.559122
H66	H	1.125820	-0.134828	0.511863
H67	H	1.172552	0.008382	0.451718
H68	H	1.185414	-0.079998	0.404459
O69	O	1.080680	-0.460325	0.076128
C70	C	1.116794	-0.433288	0.153745
H71	H	1.069050	-0.408837	0.202571
H72	H	1.154268	-0.380544	0.140085
C73	C	1.228755	-0.538067	0.131056
C74	C	1.170115	-0.508042	0.191028
H75	H	1.261649	-0.584176	0.154053
H76	H	1.204426	-0.556280	0.078762
H77	H	1.259975	-0.494106	0.119679
H78	H	1.138890	-0.551999	0.202397
H79	H	1.194439	-0.489837	0.243325
O80	O	1.055021	-0.014814	0.688598
C81	C	1.099486	-0.062042	0.751263
H82	H	1.064088	-0.059795	0.813516
H83	H	1.157563	-0.034102	0.764979
C84	C	1.160896	-0.157171	0.640635
C85	C	1.117417	-0.154417	0.717092
H86	H	1.171961	-0.214151	0.619556
H87	H	1.130942	-0.125351	0.598415
H88	H	1.209289	-0.133883	0.652075
H89	H	1.069021	-0.177695	0.705649
H90	H	1.147363	-0.186243	0.759309
O91	O	0.847713	-0.422546	0.202300
C92	C	0.783221	-0.464708	0.172239
H93	H	0.796419	-0.494058	0.104630
H94	H	0.727456	-0.417660	0.169687
C95	C	0.754069	-0.498623	0.317214
C96	C	0.770281	-0.534677	0.234179
H97	H	0.746084	-0.541781	0.355422
H98	H	0.797516	-0.470215	0.337468
H99	H	0.707600	-0.459417	0.315075
H100	H	0.816755	-0.573873	0.236317
H101	H	0.726842	-0.563093	0.213926
H102	H	1.007219	-0.346529	-0.060514
O103	O	0.318372	0.124625	0.247519
C104	C	0.400545	0.125484	0.236425
H105	H	0.411747	0.148866	0.169628
H106	H	0.431957	0.058846	0.242354
C107	C	0.418981	0.156140	0.388569
C108	C	0.432739	0.184864	0.306531
H109	H	0.438841	0.192764	0.431816
H110	H	0.363620	0.155557	0.396045
H111	H	0.445158	0.100607	0.393498
H112	H	0.406554	0.240391	0.301600
H113	H	0.488096	0.185457	0.299056
H114	H	0.793373	-0.311525	0.055777
O115	O	0.806702	0.248949	0.442224
C116	C	0.729757	0.233942	0.414639
H117	H	0.730567	0.165419	0.389745
H118	H	0.709126	0.277748	0.360480
C119	C	0.671488	0.335095	0.521870
C120	C	0.672481	0.250932	0.491302
H121	H	0.636156	0.345579	0.569158
H122	H	0.723327	0.345208	0.540453
H123	H	0.654298	0.371590	0.476730
H124	H	0.689681	0.214439	0.536438
H125	H	0.620644	0.240813	0.472728
O126	O	0.835098	0.218954	0.851921
C127	C	0.790649	0.266205	0.789261
H128	H	0.792855	0.228474	0.724690
H129	H	0.816683	0.328197	0.781418
C130	C	0.701239	0.331388	0.897941
C131	C	0.703943	0.285043	0.818636
H132	H	0.647755	0.343012	0.916062
H133	H	0.731186	0.299557	0.940158
H134	H	0.722938	0.383042	0.891395
H135	H	0.682253	0.233385	0.825187
H136	H	0.673990	0.316865	0.776422
H137	H	0.176936	0.106140	-0.060039
H138	H	0.823437	0.231341	0.271561
H139	H	0.684870	0.128174	0.190764
H140	H	0.867128	-0.432424	-0.070354
H141	H	0.326050	0.109317	-0.049571
O142	O	0.543437	0.109740	-0.116796
C143	C	0.461270	0.108837	-0.105705
H144	H	0.443541	0.138599	-0.039367
H145	H	0.446389	0.040825	-0.110472
C146	C	0.437340	0.122968	-0.258237
C147	C	0.415564	0.159528	-0.176763
H148	H	0.409145	0.154233	-0.302070
H149	H	0.492698	0.123573	-0.265710
H150	H	0.424939	0.066292	-0.262197
H151	H	0.427974	0.216199	-0.172800
H152	H	0.360207	0.158934	-0.169290
H153	H	0.851798	0.201240	0.681350
H154	H	0.535761	0.124957	0.180294
O155	O	1.026518	0.015291	0.278597
C156	C	0.986794	-0.039337	0.223347
H157	H	0.925800	-0.006728	0.205447
H158	H	0.979727	-0.099623	0.257895
C159	C	1.110256	-0.101672	0.162488
C160	C	1.035344	-0.061618	0.140498
H161	H	1.140205	-0.115420	0.111384
H162	H	1.137020	-0.064871	0.199713
H163	H	1.104356	-0.151906	0.191279
H164	H	1.041245	-0.011381	0.111717
H165	H	1.008582	-0.098412	0.103265
H166	H	1.038373	0.002958	0.859179
