data_functionalizedCrystal
_audit_creation_method	'MofGen! by Chris Wilmer'
_symmetry_space_group_name_H-M	'P1'
_symmetry_Int_Tables_number	1
_symmetry_cell_setting	triclinic
loop_
_symmetry_equiv_pos_as_xyz
  x,y,z
_cell_length_a	18.050591
_cell_length_b	19.120786
_cell_length_c	18.050582
_cell_angle_alpha	87.534997
_cell_angle_beta	89.989456
_cell_angle_gamma	92.464148
loop_
_atom_site_label
_atom_site_type_symbol
_atom_site_fract_x
_atom_site_fract_y
_atom_site_fract_z
Zn1	Zn	1.122692	-0.279695	-0.407197
Zn2	Zn	1.622692	0.220305	0.092803
Zn3	Zn	1.117311	-0.397145	-0.277704
Zn4	Zn	1.617311	0.102855	0.222296
Zn5	Zn	0.998510	-0.279704	-0.283030
Zn6	Zn	1.498510	0.220296	0.216970
Zn7	Zn	0.993169	-0.397114	-0.401864
Zn8	Zn	1.493169	0.102886	0.098136
O9	O	1.057920	-0.338415	-0.342449
O10	O	1.557920	0.161585	0.157551
O11	O	1.225902	-0.295285	-0.390023
O12	O	1.725902	0.204715	0.109977
O13	O	1.101535	-0.381583	-0.174485
O14	O	1.601535	0.118417	0.325515
O15	O	1.019471	-0.181413	-0.303963
O16	O	1.519471	0.318587	0.196037
O17	O	1.221949	-0.381575	-0.294885
O18	O	1.721949	0.118425	0.205115
O19	O	1.110706	-0.181407	-0.395187
O20	O	1.610706	0.318593	0.104813
O21	O	1.014253	-0.295299	-0.178399
O22	O	1.514253	0.204701	0.321601
O23	O	0.893878	-0.295269	-0.298791
O24	O	1.393878	0.204731	0.201209
O25	O	1.010367	-0.381521	-0.506497
O26	O	1.510367	0.118479	-0.006497
O27	O	0.889953	-0.381530	-0.386097
O28	O	1.389953	0.118470	0.113903
O29	O	1.105526	-0.295254	-0.510415
O30	O	1.605526	0.204746	-0.010415
O31	O	1.096356	-0.495431	-0.289713
O32	O	1.596356	0.004569	0.210287
O33	O	1.005149	-0.495408	-0.380933
O34	O	1.505149	0.004592	0.119067
C35	C	0.864969	-0.338398	-0.342444
C36	C	1.364969	0.161602	0.157556
C37	C	0.782423	-0.338407	-0.342458
C38	C	1.282423	0.161593	0.157542
C39	C	0.531480	-0.385413	-0.389863
C40	C	1.031480	0.114587	0.110137
C41	C	0.580080	-0.402504	-0.321306
C42	C	1.080080	0.097496	0.178694
C43	C	0.485301	-0.338429	-0.342456
C44	C	0.985301	0.161571	0.157544
C45	C	0.583782	-0.321360	-0.411009
C46	C	1.083782	0.178640	0.088991
C47	C	0.631287	-0.338420	-0.342461
C48	C	1.131287	0.161580	0.157539
C49	C	0.532813	-0.355553	-0.273861
C50	C	1.032813	0.144447	0.226139
C51	C	0.536512	-0.274380	-0.363611
C52	C	1.036512	0.225620	0.136389
C53	C	0.585090	-0.291447	-0.295008
C54	C	1.085090	0.208553	0.204992
C55	C	0.401203	-0.338436	-0.342454
C56	C	0.901203	0.161564	0.157546
C57	C	0.715384	-0.338413	-0.342455
C58	C	1.215384	0.161587	0.157545
C59	C	1.049609	-0.520905	-0.334182
C60	C	1.549609	-0.020905	0.165818
C61	C	1.046122	-0.598975	-0.330671
C62	C	1.546122	-0.098975	0.169329
C63	C	1.091949	-0.635589	-0.376555
C64	C	1.591949	-0.135589	0.123445
C65	C	1.088669	-0.708944	-0.373257
C66	C	1.588669	-0.208944	0.126743
C67	C	1.039565	-0.745684	-0.324070
C68	C	1.539565	-0.245684	0.175930
C69	C	0.993732	-0.709065	-0.278183
C70	C	1.493732	-0.209065	0.221817
C71	C	0.997009	-0.635711	-0.281486
C72	C	1.497009	-0.135711	0.218514
C73	C	1.027293	-0.967169	-0.311724
C74	C	1.527293	-0.467169	0.188276
C75	C	1.024021	-1.040528	-0.308423
C76	C	1.524021	-0.540528	0.191577
C77	C	1.118957	-1.040402	-0.403498
C78	C	1.618957	-0.540402	0.096502
C79	C	1.122233	-0.967046	-0.406793
C80	C	1.622233	-0.467046	0.093207
C81	C	1.076398	-0.930434	-0.360909
C82	C	1.576398	-0.430434	0.139091
C83	C	1.036212	-0.820665	-0.320696
C84	C	1.536212	-0.320665	0.179304
C85	C	1.079747	-0.855454	-0.364288
C86	C	1.579747	-0.355454	0.135712
C87	C	1.251625	-0.338432	-0.342455
C88	C	1.751625	0.161568	0.157545
C89	C	1.334171	-0.338440	-0.342457
C90	C	1.834171	0.161560	0.157543
C91	C	1.057951	-0.338383	-0.536156
C92	C	1.557951	0.161617	-0.036156
C93	C	1.057964	-0.338370	-0.618702
C94	C	1.557964	0.161630	-0.118702
C95	C	1.066284	-0.155212	-0.350764
C96	C	1.566284	0.344788	0.149236
C97	C	1.069849	-0.077142	-0.354308
C98	C	1.569849	0.422858	0.145692
C99	C	1.006257	-0.385218	-0.816025
C100	C	1.506257	0.114782	-0.316025
C101	C	1.073239	-0.402389	-0.864636
C102	C	1.573239	0.097611	-0.364636
C103	C	1.058003	-0.338317	-0.769835
C104	C	1.558003	0.161683	-0.269835
C105	C	0.991059	-0.321127	-0.868307
C106	C	1.491059	0.178873	-0.368307
C107	C	1.058035	-0.338266	-0.915823
C108	C	1.558035	0.161734	-0.415823
C109	C	1.125019	-0.355521	-0.817357
C110	C	1.625019	0.144479	-0.317357
C111	C	1.042795	-0.274229	-0.821025
C112	C	1.542795	0.225771	-0.321025
C113	C	1.109825	-0.291375	-0.869615
C114	C	1.609825	0.208625	-0.369615
C115	C	1.057984	-0.338347	-0.685736
C116	C	1.557984	0.161653	-0.185736
C117	C	1.058062	-0.338235	-0.999921
C118	C	1.558062	0.161765	-0.499921
C119	C	1.057935	-0.338395	-0.149498
C120	C	1.557935	0.161605	0.350502
C121	C	1.058075	-0.338210	-0.066961
C122	C	1.558075	0.161790	0.433039
H123	H	0.608424	-0.251710	-0.254871
H124	H	1.108424	0.248290	0.245129
O125	O	0.916052	-0.301891	-0.897915
O126	O	1.416052	0.198109	-0.397915
H127	H	0.922240	-0.253458	-0.933928
H128	H	1.422240	0.246542	-0.433928
O129	O	0.948348	-0.437827	-0.784937
O130	O	1.448348	0.062173	-0.284937
H131	H	0.892910	-0.424069	-0.806198
H132	H	1.392910	0.075931	-0.306198
H133	H	0.508009	-0.425179	-0.429899
H134	H	1.008009	0.074821	0.070101
H135	H	1.156273	-1.070219	-0.440855
H136	H	1.656273	-0.570219	0.059145
H137	H	1.131938	-0.605680	-0.416606
H138	H	1.631938	-0.105680	0.083394
O139	O	0.503314	-0.374759	-0.197043
O140	O	1.003314	0.125241	0.302957
H141	H	0.525299	-0.335972	-0.157698
H142	H	1.025299	0.164028	0.342302
O143	O	1.138097	-0.748438	-0.422745
O144	O	1.638097	-0.248438	0.077255
H145	H	1.172799	-0.710566	-0.457496
H146	H	1.672799	-0.210566	0.042504
H147	H	1.086121	-0.456565	-0.883888
H148	H	1.586121	0.043435	-0.383888
H149	H	0.599313	-0.456665	-0.303409
H150	H	1.099313	0.043335	0.196591
H151	H	0.517261	-0.220234	-0.381527
H152	H	1.017261	0.279766	0.118473
O153	O	1.167870	-0.238810	-0.900517
O154	O	1.667870	0.261190	-0.400517
H155	H	1.155664	-0.185818	-0.882239
H156	H	1.655664	0.314182	-0.382239
H157	H	1.029893	-0.220068	-0.801757
H158	H	1.529893	0.279932	-0.301757
O159	O	0.613398	-0.302228	-0.487799
O160	O	1.113398	0.197772	0.012201
H161	H	0.591850	-0.341308	-0.527039
H162	H	1.091850	0.158692	-0.027039
O163	O	1.175219	-0.927419	-0.459821
O164	O	1.675219	-0.427419	0.040179
H165	H	1.206541	-0.965203	-0.491169
H166	H	1.706541	-0.465203	0.008831
H167	H	0.984031	-1.070439	-0.268368
H168	H	1.484031	-0.570439	0.231632
H169	H	0.959691	-0.605901	-0.244123
H170	H	1.459691	-0.105901	0.255877
O171	O	1.200164	-0.374481	-0.787892
O172	O	1.700164	0.125519	-0.287892
H173	H	1.199595	-0.374247	-0.726415
H174	H	1.699595	0.125753	-0.226415
H175	H	1.119725	-0.825538	-0.404339
H176	H	1.619725	-0.325538	0.095661
H177	H	0.989973	-0.937364	-0.274362
H178	H	1.489973	-0.437364	0.225638
O179	O	0.940777	-0.748687	-0.225119
O180	O	1.440777	-0.248687	0.274881
H181	H	0.946206	-0.805846	-0.230521
H182	H	1.446206	-0.305846	0.269479
H183	H	0.996234	-0.850587	-0.280645
H184	H	1.496234	-0.350587	0.219355
