data_functionalizedCrystal
_audit_creation_method	'MofGen! by Chris Wilmer'
_symmetry_space_group_name_H-M	'P1'
_symmetry_Int_Tables_number	1
_symmetry_cell_setting	triclinic
loop_
_symmetry_equiv_pos_as_xyz
  x,y,z
_cell_length_a	14.044220
_cell_length_b	15.995350
_cell_length_c	13.101039
_cell_angle_alpha	93.364563
_cell_angle_beta	86.340132
_cell_angle_gamma	88.340626
loop_
_atom_site_label
_atom_site_type_symbol
_atom_site_fract_x
_atom_site_fract_y
_atom_site_fract_z
O1	O	1.262914	0.197637	-0.085096
O2	O	0.986946	0.190352	-0.085122
O3	O	1.132474	0.072670	-0.085107
O4	O	1.117386	0.315319	-0.085111
O5	O	1.122032	0.081129	0.085321
O6	O	0.976505	0.198810	0.085307
O7	O	1.252472	0.206096	0.085333
Zn8	Zn	1.112831	0.203796	0.112379
Zn9	Zn	1.126588	0.192651	-0.112168
O10	O	1.106945	0.323777	0.085318
C11	C	0.946411	0.191392	0.000089
C12	C	0.841186	0.181881	0.000079
C13	C	0.648524	0.164494	0.000099
C14	C	0.590890	0.231950	0.000102
C15	C	0.483686	0.222275	0.000114
C16	C	0.755738	0.174167	0.000088
C17	C	1.126629	0.045658	0.000105
C18	C	1.124760	-0.047432	0.000099
C19	C	1.118044	-0.385681	0.000102
C20	C	1.014425	-0.346007	-0.000290
C21	C	1.016272	-0.249158	0.000094
C22	C	1.121375	-0.217872	0.000100
C23	C	1.166533	-0.250301	0.097426
C24	C	1.163924	-0.347127	0.097507
C25	C	1.177939	-0.356944	-0.096302
C26	C	1.177993	-0.260065	-0.097588
C27	C	1.123263	-0.123033	0.000102
C28	C	1.116159	-0.480519	0.000106
C29	C	1.293008	0.205055	0.000120
C30	C	1.398233	0.214566	0.000123
C31	C	1.112789	0.350789	0.000103
C32	C	1.114659	0.443879	0.000103
N33	N	1.103449	0.211402	0.265626
N34	N	1.135977	0.185039	-0.265416
C35	C	1.090685	0.221758	0.474668
C36	C	1.148739	0.174686	0.525549
C37	C	1.141636	0.180448	0.641867
C38	C	1.097786	0.215997	0.358340
H39	H	0.977276	-0.371097	-0.070085
H40	H	0.622062	0.296967	0.000097
O41	O	1.214299	0.121259	0.473461
C42	C	1.197065	0.038571	0.499754
H43	H	1.119354	0.034100	0.529261
H44	H	1.245744	0.020933	0.562030
C45	C	1.312901	-0.016395	0.368253
C46	C	1.217453	-0.021888	0.404485
H47	H	1.325481	-0.053690	0.309489
H48	H	1.324515	0.039313	0.350541
H49	H	1.353455	-0.031091	0.420159
H50	H	1.176900	-0.007182	0.352585
H51	H	1.205832	-0.077595	0.422187
O52	O	1.024989	0.274888	0.527022
C53	C	0.962675	0.228765	0.589070
H54	H	0.999345	0.166802	0.605004
H55	H	0.895072	0.215912	0.547807
C56	C	0.891354	0.355550	0.671490
C57	C	0.936396	0.279450	0.691068
H58	H	0.875140	0.386815	0.734406
H59	H	0.933334	0.386625	0.629685
H60	H	0.835024	0.344828	0.637102
H61	H	0.992731	0.290172	0.725444
H62	H	0.894425	0.248378	0.732882
O63	O	0.611310	0.086941	-0.000084
C64	C	0.560150	0.072977	-0.088335
H65	H	0.587392	0.115383	-0.150025
H66	H	0.480986	0.087573	-0.068372
C67	C	0.540946	-0.071364	-0.052602
C68	C	0.574411	-0.019284	-0.128373
H69	H	0.549738	-0.128275	-0.077298
H70	H	0.575410	-0.061956	0.006857
H71	H	0.474978	-0.059190	-0.035973
H72	H	0.640380	-0.031451	-0.144992
H73	H	0.539958	-0.028697	-0.187836
O74	O	0.973519	-0.223073	-0.083245
C75	C	1.023013	-0.258598	-0.173167
H76	H	1.063854	-0.317901	-0.154800
H77	H	1.075333	-0.211737	-0.204493
C78	C	0.901072	-0.207764	-0.276446
C79	C	0.951227	-0.280604	-0.253889
H80	H	0.856793	-0.221335	-0.326242
H81	H	0.867728	-0.183826	-0.215865
H82	H	0.944681	-0.168719	-0.302546
H83	H	0.907620	-0.319642	-0.227778
H84	H	0.984562	-0.304548	-0.314468
O85	O	1.138800	-0.234946	-0.183461
C86	C	1.142795	-0.147108	-0.185944
H87	H	1.202059	-0.123670	-0.137164
H88	H	1.071545	-0.117064	-0.154326
C89	C	1.090561	-0.152190	-0.357173
C90	C	1.163356	-0.123404	-0.297267
H91	H	1.103240	-0.137567	-0.425842
H92	H	1.087866	-0.211368	-0.355499
H93	H	1.031193	-0.127151	-0.330812
H94	H	1.222721	-0.148451	-0.323620
H95	H	1.166062	-0.064230	-0.298947
H96	H	0.968933	-0.365237	0.069108
H97	H	1.254999	-0.239269	-0.103460
O98	O	0.962787	-0.215475	0.083428
C99	C	0.868002	-0.241511	0.079020
H100	H	0.866930	-0.302079	0.028763
H101	H	0.823094	-0.190844	0.045160
C102	C	0.827893	-0.182188	0.249561
C103	C	0.826577	-0.256582	0.187841
H104	H	0.802337	-0.191481	0.316687
H105	H	0.891750	-0.164644	0.252530
H106	H	0.790471	-0.139972	0.221332
H107	H	0.864008	-0.298793	0.216063
H108	H	0.762724	-0.274134	0.184879
H109	H	1.122190	-0.364602	0.170256
O110	O	1.254429	-0.378474	0.102662
C111	C	1.311613	-0.355292	0.017177
H112	H	1.278576	-0.297053	-0.014449
H113	H	1.316188	-0.408804	-0.044550
C114	C	1.453104	-0.407883	0.088749
C115	C	1.412531	-0.336349	0.049910
H116	H	1.515356	-0.396202	0.108937
H117	H	1.414578	-0.423505	0.146340
H118	H	1.456908	-0.452470	0.037302
H119	H	1.408717	-0.291767	0.101359
H120	H	1.451059	-0.320719	-0.007673
O121	O	1.258360	-0.226254	0.101628
C122	C	1.283222	-0.179668	0.016365
H123	H	1.215757	-0.151852	-0.014088
H124	H	1.322470	-0.222499	-0.046206
C125	C	1.431360	-0.142657	0.086294
C126	C	1.348498	-0.108489	0.048896
H127	H	1.471629	-0.098753	0.106358
H128	H	1.414612	-0.174046	0.143736
H129	H	1.464055	-0.178350	0.034145
H130	H	1.315799	-0.072806	0.101048
H131	H	1.365242	-0.077092	-0.008536
O132	O	1.118747	-0.215418	0.183801
C133	C	1.022213	-0.237427	0.184907
H134	H	1.015617	-0.297261	0.134491
H135	H	0.978045	-0.184604	0.154371
C136	C	0.993438	-0.178506	0.357390
C137	C	0.985338	-0.252000	0.295475
H138	H	0.970690	-0.187492	0.425593
H139	H	1.058474	-0.163676	0.356644
H140	H	0.956631	-0.134495	0.331931
H141	H	1.022154	-0.296006	0.320926
H142	H	0.920307	-0.266838	0.296227
O143	O	1.142762	-0.388867	-0.184212
C144	C	1.063447	-0.437750	-0.159908
H145	H	1.031282	-0.417073	-0.080006
H146	H	1.087286	-0.506596	-0.161851
C147	C	1.027559	-0.451472	-0.336808
C148	C	0.988049	-0.426072	-0.238675
H149	H	0.981051	-0.444272	-0.385397
H150	H	1.080997	-0.418541	-0.353183
H151	H	1.047424	-0.508842	-0.338412
H152	H	0.968197	-0.368700	-0.237068
H153	H	0.934606	-0.458992	-0.222301
O154	O	1.269094	-0.388206	-0.097140
C155	C	1.268605	-0.476464	-0.100826
H156	H	1.200162	-0.498730	-0.134388
H157	H	1.272378	-0.498761	-0.020069
C158	C	1.439496	-0.485328	-0.127381
C159	C	1.355436	-0.512675	-0.168611
H160	H	1.493059	-0.507666	-0.169190
H161	H	1.439826	-0.425867	-0.124895
H162	H	1.442627	-0.503910	-0.060085
H163	H	1.352301	-0.494083	-0.235900
H164	H	1.355107	-0.572134	-0.171111
