data_functionalizedCrystal
_audit_creation_method	'MofGen! by Chris Wilmer'
_symmetry_space_group_name_H-M	'P1'
_symmetry_Int_Tables_number	1
_symmetry_cell_setting	triclinic
loop_
_symmetry_equiv_pos_as_xyz
  x,y,z
_cell_length_a	12.759401
_cell_length_b	12.594516
_cell_length_c	12.759393
_cell_angle_alpha	89.971395
_cell_angle_beta	89.979527
_cell_angle_gamma	90.017577
loop_
_atom_site_label
_atom_site_type_symbol
_atom_site_fract_x
_atom_site_fract_y
_atom_site_fract_z
Zn1	Zn	1.606252	-0.423641	-0.594038
Zn2	Zn	1.606140	-0.601659	-0.418366
Zn3	Zn	1.430552	-0.423700	-0.418373
Zn4	Zn	1.430538	-0.601583	-0.594003
O5	O	1.518370	-0.512646	-0.506195
O6	O	1.753258	-0.447263	-0.570746
O7	O	1.582807	-0.578109	-0.271345
O8	O	1.453911	-0.274746	-0.441693
O9	O	1.753176	-0.578052	-0.441680
O10	O	1.582997	-0.274703	-0.570754
O11	O	1.453803	-0.447363	-0.271351
O12	O	1.283529	-0.447289	-0.441659
O13	O	1.453888	-0.577922	-0.741029
O14	O	1.283519	-0.577979	-0.570694
O15	O	1.582984	-0.447190	-0.741054
O16	O	1.582794	-0.750595	-0.441646
O17	O	1.453780	-0.750539	-0.570686
C18	C	1.245403	-0.512633	-0.506174
C19	C	1.128626	-0.512653	-0.506190
C20	C	1.073787	-0.580807	-0.573272
C21	C	0.964063	-0.580811	-0.573293
C22	C	0.964028	-0.444504	-0.439140
C23	C	1.073750	-0.444496	-0.439125
C24	C	0.814165	-0.619002	-0.697155
C25	C	0.759321	-0.687172	-0.764229
C26	C	0.794917	-0.791045	-0.780181
C27	C	0.885353	-0.826769	-0.729045
C28	C	0.940191	-0.758604	-0.661964
C29	C	0.904598	-0.654716	-0.646031
C30	C	1.223650	-0.406316	-0.315262
C31	C	1.278489	-0.338155	-0.248175
C32	C	1.242896	-0.234281	-0.232212
C33	C	1.152456	-0.198561	-0.283330
C34	C	1.097616	-0.266721	-0.350417
C35	C	1.133217	-0.370595	-0.366381
C36	C	1.518302	-0.789187	-0.506185
C37	C	1.518368	-0.907492	-0.506215
C38	C	1.448191	-0.976754	-0.576351
C39	C	1.422590	-1.047624	-0.480484
C40	C	1.544064	-1.047421	-0.602099
C41	C	1.492717	-0.976804	-0.410297
C42	C	1.614236	-0.976595	-0.531977
C43	C	1.588672	-1.047433	-0.436044
C44	C	1.792404	-0.512660	-0.506216
C45	C	1.909180	-0.512666	-0.506226
C46	C	1.518447	-0.512541	-0.780228
C47	C	1.518479	-0.512496	-0.897005
C48	C	1.518468	-0.235025	-0.506228
C49	C	1.518510	-0.116720	-0.506242
C50	C	1.585726	-0.444373	-1.061613
C51	C	1.585706	-0.444414	-0.951889
C52	C	1.451276	-0.580550	-0.951851
C53	C	1.451302	-0.580513	-1.061573
C54	C	1.709590	-0.406443	-0.801960
C55	C	1.776781	-0.338380	-0.747118
C56	C	1.792958	-0.234513	-0.782748
C57	C	1.741928	-0.198687	-0.873219
C58	C	1.674729	-0.266744	-0.928055
C59	C	1.658572	-0.370626	-0.892426
C60	C	1.327417	-0.618473	-1.211504
C61	C	1.260212	-0.686525	-1.266342
C62	C	1.244024	-0.790395	-1.230714
C63	C	1.295035	-0.826217	-1.140241
C64	C	1.362241	-0.758164	-1.085403
C65	C	1.378430	-0.654297	-1.121038
C66	C	1.518355	-0.512674	-0.233228
C67	C	1.518526	-0.512418	-0.116451
H68	H	0.914321	-0.911357	-0.742030
H69	H	1.648079	-1.078272	-0.376676
H70	H	1.565741	-1.078441	-0.683176
O71	O	1.710822	-0.939390	-0.558180
C72	C	1.737548	-0.975326	-0.659353
H73	H	1.663088	-0.995254	-0.704616
H74	H	1.782597	-0.910460	-0.702477
H75	H	1.788572	-1.049320	-0.652777
O76	O	1.858159	-0.168244	-0.729578
C77	C	1.861516	-0.068889	-0.780438
H78	H	1.787549	-0.058051	-0.829371
H79	H	1.866497	-0.003007	-0.719405
H80	H	1.933214	-0.065267	-0.833663
O81	O	1.127141	-0.647117	-0.638274
C82	C	1.190585	-0.715773	-0.578342
H83	H	1.157479	-0.722255	-0.495589
H84	H	1.191828	-0.797728	-0.616209
H85	H	1.273747	-0.682854	-0.574768
H86	H	1.640464	-0.388925	-1.106292
O87	O	1.377192	-0.939898	-0.647018
C88	C	1.326890	-1.026360	-0.695940
H89	H	1.332352	-1.099293	-0.643277
H90	H	1.240991	-1.005975	-0.709998
H91	H	1.366648	-1.043727	-0.774101
O92	O	1.466915	-0.940012	-0.313480
C93	C	1.540596	-0.976887	-0.239629
H94	H	1.617102	-0.997074	-0.281255
H95	H	1.555558	-0.912487	-0.178685
H96	H	1.508710	-1.050917	-0.199228
H97	H	1.633169	-0.237570	-1.001704
H98	H	1.818330	-0.367560	-0.673457
H99	H	0.919334	-0.389015	-0.384537
O100	O	0.741548	-0.857114	-0.845408
C101	C	0.654081	-0.803322	-0.887094
H102	H	0.668388	-0.714036	-0.883788
H103	H	0.641760	-0.828612	-0.971977
H104	H	0.581369	-0.823820	-0.839227
H105	H	1.755095	-0.114103	-0.902214
O106	O	1.386125	-0.646739	-0.898415
C107	C	1.445911	-0.715518	-0.834962
H108	H	1.525541	-0.677983	-0.818553
H109	H	1.403103	-0.729799	-0.757792
H110	H	1.457435	-0.794385	-0.877230
O111	O	1.411871	-0.793194	-0.997649
C112	C	1.383219	-0.899484	-0.977986
H113	H	1.355438	-0.937958	-1.053912
H114	H	1.453806	-0.944800	-0.946406
H115	H	1.317246	-0.901644	-0.917742
O116	O	1.279242	-0.927165	-1.105798
C117	C	1.208973	-0.979542	-1.173588
H118	H	1.210202	-0.939312	-1.253634
H119	H	1.233475	-1.066124	-1.182340
H120	H	1.126422	-0.975544	-1.139606
H121	H	1.287552	-0.178789	-0.177575
H122	H	1.023980	-0.237626	-0.392047
H123	H	1.696435	-0.491023	-0.772948
H124	H	1.189329	-0.845814	-1.275396
O125	O	1.210489	-0.651714	-1.354128
C126	C	1.101154	-0.658169	-1.339372
H127	H	1.082769	-0.657203	-1.251939
H128	H	1.061693	-0.587515	-1.378890
H129	H	1.070590	-0.735005	-1.375355
O130	O	1.366232	-0.373009	-0.198425
C131	C	1.340836	-0.460776	-0.134641
H132	H	1.266354	-0.499992	-0.165229
H133	H	1.407927	-0.520505	-0.136422
H134	H	1.327691	-0.432804	-0.050698
H135	H	1.013823	-0.787690	-0.620329
H136	H	0.685688	-0.658076	-0.805865
H137	H	1.340598	-0.533896	-1.240525
H138	H	1.341583	-1.078846	-0.458716
H139	H	0.785182	-0.534416	-0.684184
H140	H	1.123463	-0.113984	-0.270316
H141	H	1.252645	-0.490897	-0.328263
