data_functionalizedCrystal
_audit_creation_method	'MofGen! by Chris Wilmer'
_symmetry_space_group_name_H-M	'P1'
_symmetry_Int_Tables_number	1
_symmetry_cell_setting	triclinic
loop_
_symmetry_equiv_pos_as_xyz
  x,y,z
_cell_length_a	15.186229
_cell_length_b	10.654550
_cell_length_c	10.654551
_cell_angle_alpha	95.514820
_cell_angle_beta	90.001981
_cell_angle_gamma	89.999884
loop_
_atom_site_label
_atom_site_type_symbol
_atom_site_fract_x
_atom_site_fract_y
_atom_site_fract_z
O1	O	0.073159	-1.667840	0.176397
O2	O	0.573159	-1.167840	0.676397
O3	O	0.073175	-1.302362	0.193203
O4	O	0.573175	-0.802362	0.693203
O5	O	0.073165	-1.493503	0.002061
O6	O	0.573165	-0.993503	0.502061
O7	O	0.073169	-1.476699	0.367539
O8	O	0.573169	-0.976699	0.867539
O9	O	-0.073293	-1.493490	0.002058
O10	O	0.426707	-0.993490	0.502058
O11	O	-0.073282	-1.302349	0.193201
O12	O	0.426718	-0.802349	0.693201
O13	O	-0.073298	-1.667827	0.176394
O14	O	0.426702	-1.167827	0.676394
Zn15	Zn	-0.096543	-1.485086	0.184797
Zn16	Zn	0.403457	-0.985086	0.684797
Zn17	Zn	0.096420	-1.485103	0.184801
Zn18	Zn	0.596420	-0.985103	0.684801
O19	O	-0.073288	-1.476686	0.367537
O20	O	0.426712	-0.976686	0.867537
C21	C	-0.000052	-1.255557	0.191968
C22	C	0.499948	-0.755557	0.691968
C23	C	-0.000046	-1.116114	0.188276
C24	C	0.499954	-0.616114	0.688276
N25	N	-0.228236	-1.485084	0.184794
N26	N	0.271764	-0.985084	0.684794
C27	C	-0.000062	-1.492262	-0.044738
C28	C	0.499938	-0.992262	0.455262
C29	C	-0.000058	-1.488570	-0.184181
C30	C	0.499942	-0.988570	0.315819
C31	C	-0.453964	-1.569750	0.100185
C32	C	0.046036	-1.069750	0.600185
C33	C	-0.546153	-1.569754	0.100182
C34	C	-0.046153	-1.069754	0.600182
C35	C	-0.546153	-1.400439	0.269407
C36	C	-0.046153	-0.900439	0.769407
C37	C	-0.453965	-1.400430	0.269403
C38	C	0.046035	-0.900430	0.769403
C39	C	-0.407873	-1.485093	0.184793
C40	C	0.092127	-0.985093	0.684793
C41	C	-0.592250	-1.485106	0.184795
C42	C	-0.092250	-0.985106	0.684795
C43	C	-0.692207	-1.485109	0.184792
C44	C	-0.192207	-0.985109	0.684792
C45	C	-0.307910	-1.485088	0.184794
C46	C	0.192090	-0.985088	0.684794
N47	N	0.228113	-1.485115	0.184794
N48	N	0.728113	-0.985115	0.684794
C49	C	-0.000070	-1.714632	0.177630
C50	C	0.499930	-1.214632	0.677630
C51	C	-0.000070	-1.854075	0.181322
C52	C	0.499930	-1.354075	0.681322
C53	C	-0.000047	-1.036629	0.300818
C54	C	0.499953	-0.536629	0.800818
C55	C	-0.000062	-0.905608	0.297341
C56	C	0.499938	-0.405608	0.797341
C57	C	-0.000071	-0.933570	0.068772
C58	C	0.499929	-0.433570	0.568772
C59	C	-0.000062	-1.064589	0.072249
C60	C	0.499938	-0.564589	0.572249
C61	C	0.079777	-1.486844	-0.249684
C62	C	0.579777	-0.986844	0.250316
C63	C	0.079778	-1.483364	-0.380704
C64	C	0.579778	-0.983364	0.119296
C65	C	-0.079898	-1.483341	-0.380709
C66	C	0.420102	-0.983341	0.119291
C67	C	-0.079898	-1.486812	-0.249690
C68	C	0.420102	-0.986812	0.250310
C69	C	-0.000059	-1.477926	0.414336
C70	C	0.499941	-0.977926	0.914336
C71	C	-0.000057	-1.481619	0.553779
C72	C	0.499943	-0.981619	1.053779
H73	H	-0.416437	-1.638686	0.031289
H74	H	0.083563	-1.138686	0.531289
F75	F	0.164749	-1.488710	-0.179968
F76	F	0.664749	-0.988710	0.320032
H77	H	0.144787	-1.481956	-0.434030
H78	H	0.644787	-0.981956	0.065970
F79	F	-0.595203	-1.659855	0.010128
F80	F	-0.095203	-1.159855	0.510128
H81	H	-0.144901	-1.481913	-0.434062
H82	H	0.355099	-0.981913	0.065938
F83	F	-0.404908	-1.310317	0.359454
F84	F	0.095092	-0.810317	0.859454
F85	F	-0.595214	-1.310343	0.359453
F86	F	-0.095214	-0.810343	0.859453
F87	F	-0.000032	-1.091462	0.424303
F88	F	0.499968	-0.591462	0.924303
F89	F	-0.000086	-0.878721	-0.054705
F90	F	0.499914	-0.378721	0.445295
F91	F	-0.000067	-1.149188	-0.047539
F92	F	0.499933	-0.649188	0.452461
F93	F	-0.164874	-1.488638	-0.179972
F94	F	0.335126	-0.988638	0.320028
F95	F	-0.000065	-0.821019	0.417124
F96	F	0.499935	-0.321019	0.917124
