data_functionalizedCrystal
_audit_creation_method	'MofGen! by Chris Wilmer'
_symmetry_space_group_name_H-M	'P1'
_symmetry_Int_Tables_number	1
_symmetry_cell_setting	triclinic
loop_
_symmetry_equiv_pos_as_xyz
  x,y,z
_cell_length_a	16.109301
_cell_length_b	10.654550
_cell_length_c	9.730223
_cell_angle_alpha	90.000193
_cell_angle_beta	89.997484
_cell_angle_gamma	83.973192
loop_
_atom_site_label
_atom_site_type_symbol
_atom_site_fract_x
_atom_site_fract_y
_atom_site_fract_z
O1	O	-1.104087	-0.161415	-0.114199
O2	O	-0.862144	-0.181503	-0.114221
O3	O	-0.988678	0.011355	-0.114205
O4	O	-0.977553	-0.354274	-0.114216
O5	O	-0.988677	0.011351	0.114375
O6	O	-0.862143	-0.181508	0.114359
O7	O	-1.104085	-0.161420	0.114381
Zn8	Zn	-0.983114	-0.171465	0.150662
Zn9	Zn	-0.983116	-0.171458	-0.150502
O10	O	-0.977551	-0.354279	0.114364
C11	C	-0.831164	-0.180692	0.000066
C12	C	-0.738854	-0.178253	0.000058
C13	C	-0.987861	0.058140	0.000084
C14	C	-0.985417	0.197550	0.000079
C15	C	-1.135066	-0.162231	0.000090
C16	C	-1.227376	-0.164671	0.000089
C17	C	-0.517228	-0.287019	0.000071
C18	C	-0.430494	-0.284717	0.000080
C19	C	-0.449008	-0.055896	0.000081
C20	C	-0.535741	-0.058199	0.000082
C21	C	-0.569848	-0.173764	0.000070
C22	C	-0.396382	-0.169159	0.000078
C23	C	-0.302341	-0.166662	0.000087
C24	C	-0.663895	-0.176262	0.000063
C25	C	-0.978369	-0.401063	0.000073
C26	C	-0.980813	-0.540473	0.000069
N27	N	-0.983119	-0.171468	0.356198
C28	C	-1.059918	0.278046	0.000089
C29	C	-1.057616	0.409036	0.000080
C30	C	-0.906306	0.379020	0.000054
C31	C	-0.908608	0.248033	0.000054
C32	C	-1.147276	0.295377	0.000110
C33	C	-1.144974	0.426367	0.000100
N34	N	-0.983118	-0.171445	-0.356038
C35	C	-1.039162	-0.086099	0.428131
C36	C	-1.039160	-0.086084	0.572014
C37	C	-0.927068	-0.256818	0.572018
C38	C	-0.927067	-0.256826	0.428138
C39	C	-1.103881	0.012469	0.428130
C40	C	-1.103878	0.012485	0.572013
H41	H	-0.387654	-0.376940	0.000083
C42	C	-0.324273	0.049237	0.000066
C43	C	-0.411514	0.071129	0.000076
H44	H	-0.301129	0.127660	0.000051
H45	H	-0.306262	0.002619	0.079773
H46	H	-0.306264	0.002601	-0.079650
H47	H	-0.429523	0.117757	0.079797
H48	H	-0.429533	0.117767	-0.079639
H49	H	-0.881424	-0.326330	0.369571
C50	C	-0.814082	-0.283992	0.733822
C51	C	-0.865462	-0.350643	0.651104
H52	H	-0.776053	-0.341920	0.782650
H53	H	-0.783881	-0.231719	0.677682
H54	H	-0.847469	-0.233150	0.797249
H55	H	-0.832075	-0.401479	0.587669
H56	H	-0.895665	-0.402938	0.707249
H57	H	-1.089686	0.108809	0.389078
C58	C	-1.238885	-0.054086	0.475058
C59	C	-1.185367	-0.027707	0.367878
H60	H	-1.289192	-0.078883	0.437856
H61	H	-1.212631	-0.120476	0.529995
H62	H	-1.251137	0.019222	0.529997
H63	H	-1.173111	-0.101018	0.312945
H64	H	-1.211626	0.038688	0.312918
H65	H	-1.083679	0.103433	0.616630
C66	C	-0.545337	0.168221	0.000067
C67	C	-0.593588	0.066300	0.000075
H68	H	-0.581051	0.245076	0.000058
H69	H	-0.511127	0.164366	0.079773
H70	H	-0.511119	0.164353	-0.079650
H71	H	-0.627801	0.070163	0.079798
H72	H	-0.627812	0.070157	-0.079639
H73	H	-0.544995	-0.381119	0.000071
H74	H	-0.847942	0.182496	0.000026
C75	C	-0.835591	0.566487	0.000039
C76	C	-0.821881	0.434516	0.000039
H77	H	-0.783468	0.600743	0.000039
H78	H	-0.866294	0.594109	-0.079664
H79	H	-0.866298	0.594110	0.079759
H80	H	-0.791180	0.406892	-0.079686
H81	H	-0.791165	0.406883	0.079750
C82	C	-1.133906	0.438591	-0.245513
C83	C	-1.180621	0.488476	-0.133123
H84	H	-1.155917	0.476930	-0.327756
H85	H	-1.077418	0.454937	-0.234991
H86	H	-1.136715	0.350073	-0.250024
H87	H	-1.177807	0.576992	-0.128606
H88	H	-1.237123	0.472140	-0.143647
H89	H	-1.167768	-0.008167	0.611069
C90	C	-1.206800	0.350046	0.221100
C91	C	-1.184592	0.247729	0.133519
H92	H	-1.229768	0.320612	0.303510
H93	H	-1.158681	0.390799	0.242173
H94	H	-1.247024	0.408106	0.177015
H95	H	-1.144363	0.189673	0.177600
H96	H	-1.232717	0.206956	0.112447
C97	C	-1.139750	0.172674	-0.207340
C98	C	-1.193394	0.256356	-0.129016
H99	H	-1.168223	0.148580	-0.287050
H100	H	-1.092321	0.212817	-0.233911
H101	H	-1.122339	0.099862	-0.154179
H102	H	-1.210800	0.329173	-0.182173
H103	H	-1.240838	0.216215	-0.102447
H104	H	-1.177889	0.468571	0.095762
