data_functionalizedCrystal
_audit_creation_method	'MofGen! by Chris Wilmer'
_symmetry_space_group_name_H-M	'P1'
_symmetry_Int_Tables_number	1
_symmetry_cell_setting	triclinic
loop_
_symmetry_equiv_pos_as_xyz
  x,y,z
_cell_length_a	14.519731
_cell_length_b	14.519731
_cell_length_c	9.130313
_cell_angle_alpha	89.994496
_cell_angle_beta	89.996385
_cell_angle_gamma	83.688853
loop_
_atom_site_label
_atom_site_type_symbol
_atom_site_fract_x
_atom_site_fract_y
_atom_site_fract_z
O1	O	1.223863	0.120983	-0.121806
O2	O	0.955390	0.135199	-0.121808
O3	O	1.096735	-0.006145	-0.121794
O4	O	1.082519	0.262328	-0.121821
O5	O	1.096725	-0.006149	0.121805
O6	O	0.955381	0.135195	0.121790
O7	O	1.223854	0.120979	0.121793
Cu8	Cu	1.089616	0.128087	0.144034
Cu9	Cu	1.089628	0.128092	-0.144050
O10	O	1.082509	0.262324	0.121778
C11	C	0.921026	0.134531	-0.000009
C12	C	0.818645	0.132535	-0.000010
C13	C	0.735501	0.130913	-0.000016
C14	C	0.631192	0.128887	-0.000016
C15	C	0.548053	0.127278	-0.000016
C16	C	0.443738	0.125252	-0.000019
C17	C	1.096064	-0.040507	0.000006
C18	C	1.094068	-0.142887	0.000007
C19	C	1.092446	-0.226031	0.000003
C20	C	1.090419	-0.330340	-0.000008
C21	C	1.088811	-0.413479	-0.000017
C22	C	1.086785	-0.517795	-0.000026
C23	C	1.258218	0.121648	-0.000009
C24	C	1.360598	0.123644	-0.000018
C25	C	1.083180	0.296685	-0.000025
C26	C	1.085176	0.399066	-0.000035
N27	N	1.089615	0.128083	0.346657
N28	N	1.089636	0.128088	-0.346672
C29	C	1.152223	0.065522	0.423315
C30	C	1.152232	0.065522	0.576652
C31	C	1.027021	0.190652	0.576659
C32	C	1.027009	0.190647	0.423325
H33	H	1.203212	0.014578	0.639063
H34	H	0.976021	0.241592	0.360905
H35	H	0.976050	0.241592	0.639097
H36	H	1.203200	0.014577	0.360896
