data_functionalizedCrystal
_audit_creation_method	'MofGen! by Chris Wilmer'
_symmetry_space_group_name_H-M	'P1'
_symmetry_Int_Tables_number	1
_symmetry_cell_setting	triclinic
loop_
_symmetry_equiv_pos_as_xyz
  x,y,z
_cell_length_a	22.010155
_cell_length_b	14.853567
_cell_length_c	14.853554
_cell_angle_alpha	83.632187
_cell_angle_beta	89.997812
_cell_angle_gamma	89.987264
loop_
_atom_site_label
_atom_site_type_symbol
_atom_site_fract_x
_atom_site_fract_y
_atom_site_fract_z
O1	O	0.050480	-1.196374	-0.117703
O2	O	0.550480	-0.696374	0.382297
O3	O	0.050490	-0.933914	-0.131724
O4	O	0.550490	-0.433914	0.368276
O5	O	0.050484	-1.072161	0.006517
O6	O	0.550484	-0.572161	0.506517
O7	O	0.050486	-1.058127	-0.255944
O8	O	0.550486	-0.558127	0.244056
O9	O	-0.050566	-1.072119	0.006517
O10	O	0.449434	-0.572119	0.506517
O11	O	-0.050560	-0.933872	-0.131724
O12	O	0.449440	-0.433872	0.368276
O13	O	-0.050570	-1.196332	-0.117703
O14	O	0.449430	-0.696332	0.382297
Cu15	Cu	-0.059792	-1.065098	-0.124713
Cu16	Cu	0.440208	-0.565098	0.375287
Cu17	Cu	0.059712	-1.065148	-0.124714
Cu18	Cu	0.559712	-0.565148	0.375286
O19	O	-0.050564	-1.058085	-0.255944
O20	O	0.449436	-0.558085	0.244056
C21	C	-0.000034	-0.900304	-0.131089
C22	C	0.499966	-0.400304	0.368911
C23	C	-0.000030	-0.800221	-0.129185
C24	C	0.499970	-0.300221	0.370815
C25	C	-0.000040	-1.071506	0.040106
C26	C	0.499960	-0.571506	0.540106
C27	C	-0.000036	-1.069607	0.140190
C28	C	0.499964	-0.569607	0.640190
N29	N	-0.143844	-1.065070	-0.124713
N30	N	0.356156	-0.565070	0.375287
C31	C	-0.563626	-1.119891	-0.179484
C32	C	-0.063626	-0.619891	0.320516
C33	C	-0.627233	-1.119902	-0.179482
C34	C	-0.127233	-0.619902	0.320518
O35	O	-0.660127	-1.166480	-0.226044
O36	O	-0.160127	-0.666480	0.273956
N37	N	-0.659052	-1.065165	-0.124703
N38	N	-0.159052	-0.565165	0.375297
C39	C	-0.627259	-1.010421	-0.069917
C40	C	-0.127259	-0.510421	0.430083
O41	O	-0.660163	-0.963865	-0.023323
O42	O	-0.160163	-0.463865	0.476677
C43	C	-0.563652	-1.010416	-0.069915
C44	C	-0.063652	-0.510416	0.430085
C45	C	-0.531837	-1.065150	-0.124704
C46	C	-0.031837	-0.565150	0.375296
C47	C	-0.531811	-1.174621	-0.234267
C48	C	-0.031811	-0.674621	0.265733
C49	C	-0.468208	-1.174609	-0.234270
C50	C	0.031792	-0.674609	0.265730
C51	C	-0.436419	-1.119867	-0.179490
C52	C	0.063581	-0.619867	0.320510
C53	C	-0.468234	-1.065137	-0.124707
C54	C	0.031766	-0.565137	0.375293
C55	C	-0.531861	-0.955678	-0.015124
C56	C	-0.031861	-0.455678	0.484876
C57	C	-0.468250	-0.955678	-0.015127
C58	C	0.031750	-0.455678	0.484873
C59	C	-0.436435	-1.010411	-0.069915
C60	C	0.063565	-0.510411	0.430085
C61	C	-0.372843	-1.010384	-0.069930
C62	C	0.127157	-0.510384	0.430070
N63	N	-0.341025	-1.065120	-0.124708
N64	N	0.158975	-0.565120	0.375292
C65	C	-0.372813	-1.119862	-0.179488
C66	C	0.127187	-0.619862	0.320512
C67	C	-0.760837	-1.010437	-0.069924
C68	C	-0.260837	-0.510437	0.430076
C69	C	-0.824442	-1.010437	-0.069930
C70	C	-0.324442	-0.510437	0.430070
C71	C	-0.824412	-1.119919	-0.179494
C72	C	-0.324412	-0.619919	0.320506
C73	C	-0.760806	-1.119914	-0.179492
C74	C	-0.260806	-0.619914	0.320508
C75	C	-0.729018	-1.065174	-0.124702
C76	C	-0.229018	-0.565174	0.375298
C77	C	-0.239242	-1.119832	-0.179492
C78	C	0.260758	-0.619832	0.320508
C79	C	-0.175633	-1.119812	-0.179493
C80	C	0.324367	-0.619812	0.320507
C81	C	-0.175668	-1.010334	-0.069926
C82	C	0.324332	-0.510334	0.430074
C83	C	-0.239271	-1.010350	-0.069928
C84	C	0.260729	-0.510350	0.430072
C85	C	-0.271057	-1.065106	-0.124713
C86	C	0.228943	-0.565106	0.375287
O87	O	-0.339909	-0.963832	-0.023389
O88	O	0.160091	-0.463832	0.476611
O89	O	-0.339901	-1.166419	-0.226066
O90	O	0.160099	-0.666419	0.273934
N91	N	0.143764	-1.065183	-0.124707
N92	N	0.643764	-0.565183	0.375293
C93	C	-0.000045	-1.229942	-0.118338
C94	C	0.499955	-0.729942	0.381662
C95	C	-0.000045	-1.330025	-0.120242
C96	C	0.499955	-0.830025	0.379758
C97	C	-0.000044	-0.387691	-0.039019
C98	C	0.499956	0.112309	0.460981
C99	C	-0.000042	-0.366402	-0.203253
C100	C	0.499958	0.133598	0.296747
C101	C	-0.000040	-0.460436	-0.205043
C102	C	0.499960	0.039564	0.294957
C103	C	-0.000039	-0.518102	-0.123820
C104	C	0.499961	-0.018102	0.376180
C105	C	-0.000040	-0.481734	-0.040806
C106	C	0.499960	0.018266	0.459194
C107	C	-0.000033	-0.496811	-0.288055
C108	C	0.499967	0.003189	0.211945
C109	C	-0.000031	-0.590850	-0.289848
C110	C	0.499969	-0.090850	0.210152
C111	C	-0.000034	-0.648518	-0.208624
C112	C	0.499966	-0.148518	0.291376
C113	C	-0.000036	-0.612144	-0.125607
C114	C	0.499964	-0.112144	0.374393
C115	C	-0.000034	-0.669810	-0.044384
C116	C	0.499966	-0.169810	0.455616
C117	C	-0.000040	-0.633439	0.038633
C118	C	0.499960	-0.133439	0.538633
C119	C	-0.000043	-0.539401	0.040418
C120	C	0.499957	-0.039401	0.540418
C121	C	-0.000031	-0.742555	-0.210408
C122	C	0.499969	-0.242555	0.289592
C123	C	-0.000031	-0.763853	-0.046172
C124	C	0.499969	-0.263853	0.453828
C125	C	0.055047	-1.061574	0.563366
C126	C	0.555047	-0.561574	1.063366
C127	C	-0.055122	-1.061528	0.563361
C128	C	0.444878	-0.561528	1.063361
C129	C	-0.055122	-1.063320	0.469328
C130	C	0.444878	-0.563320	0.969328
C131	C	-0.000037	-1.064237	0.422309
C132	C	0.499963	-0.564237	0.922309
C133	C	0.055048	-1.063363	0.469324
C134	C	0.555048	-0.563363	0.969324
C135	C	-0.110207	-1.064185	0.422305
C136	C	0.389793	-0.564185	0.922305
C137	C	-0.110210	-1.065976	0.328265
C138	C	0.389790	-0.565976	0.828265
C139	C	-0.055124	-1.066900	0.281246
C140	C	0.444876	-0.566900	0.781246
C141	C	-0.000036	-1.066026	0.328266
C142	C	0.499964	-0.566026	0.828266
C143	C	0.055049	-1.066944	0.281248
C144	C	0.555049	-0.566944	0.781248
C145	C	0.110137	-1.066077	0.328267
C146	C	0.610137	-0.566077	0.828267
C147	C	0.110134	-1.064287	0.422304
C148	C	0.610134	-0.564287	0.922304
C149	C	-0.055121	-1.068690	0.187209
C150	C	0.444879	-0.568690	0.687209
C151	C	0.055050	-1.068733	0.187205
C152	C	0.555050	-0.568733	0.687205
C153	C	-0.000039	-1.058744	0.710468
C154	C	0.499961	-0.558744	1.210468
C155	C	-0.000038	-1.060656	0.610385
C156	C	0.499962	-0.560656	1.110385
H157	H	-0.149732	-1.164382	-0.224112
H158	H	0.350268	-0.664382	0.275888
C159	C	0.170726	-1.063357	0.474025
C160	C	0.670726	-0.563357	0.974025
H161	H	0.203534	-1.064177	0.432560
H162	H	0.703534	-0.564177	0.932560
H163	H	0.173029	-1.010136	0.503909
H164	H	0.673029	-0.510136	1.003909
H165	H	0.172998	-1.115206	0.517513
H166	H	0.672998	-0.615206	1.017513
C167	C	-0.000026	-0.827278	0.043176
C168	C	0.499974	-0.327278	0.543176
H169	H	-0.000025	-0.792146	0.092868
H170	H	0.499975	-0.292146	0.592868
H171	H	-0.035260	-0.864403	0.045895
H172	H	0.464740	-0.364403	0.545895
H173	H	0.035221	-0.864407	0.045890
H174	H	0.535221	-0.364407	0.545890
C175	C	-0.000045	-0.302974	-0.292590
C176	C	0.499955	0.197026	0.207410
H177	H	-0.000051	-0.241760	-0.279636
H178	H	0.499949	0.258240	0.220364
H179	H	0.035192	-0.314019	-0.326629
H180	H	0.535192	0.185981	0.173371
H181	H	-0.035289	-0.314001	-0.326618
H182	H	0.464711	0.185999	0.173382
H183	H	-0.000035	-0.680402	0.104765
H184	H	0.499965	-0.180402	0.604765
C185	C	-0.115710	-1.060523	0.615079
C186	C	0.384290	-0.560523	1.115079
H187	H	-0.107821	-1.059337	0.677819
H188	H	0.392179	-0.559337	1.177819
H189	H	-0.138345	-1.008279	0.592857
H190	H	0.361655	-0.508279	1.092857
H191	H	-0.138340	-1.113349	0.606482
H192	H	0.361660	-0.613349	1.106482
C193	C	-0.566768	-1.234837	-0.294536
C194	C	-0.066768	-0.734837	0.205464
H195	H	-0.538702	-1.267420	-0.327163
H196	H	-0.038702	-0.767420	0.172837
H197	H	-0.591578	-1.276293	-0.257683
H198	H	-0.091578	-0.776293	0.242317
H199	H	-0.591582	-1.197936	-0.335969
H200	H	-0.091582	-0.697936	0.164031
H201	H	0.099907	-1.069484	0.148929
H202	H	0.599907	-0.569484	0.648929
H203	H	-0.000063	-0.509779	0.108006
H204	H	0.499937	-0.009779	0.608006
H205	H	-0.155054	-1.063433	0.460594
H206	H	0.344946	-0.563433	0.960594
C207	C	-0.433285	-0.895457	0.045135
C208	C	0.066715	-0.395457	0.545135
H209	H	-0.390846	-0.903289	0.037295
H210	H	0.109154	-0.403289	0.537295
H211	H	-0.443726	-0.833798	0.028498
H212	H	0.056274	-0.333798	0.528498
H213	H	-0.443706	-0.912144	0.106794
H214	H	0.056294	-0.412144	0.606794
H215	H	-0.000028	-0.449853	-0.354182
H216	H	0.499972	0.050147	0.145818
H217	H	-0.149775	-0.965762	-0.025328
H218	H	0.350225	-0.465762	0.474672
H219	H	-0.734906	-1.164482	-0.224106
H220	H	-0.234906	-0.664482	0.275894
C221	C	-0.000033	-0.630851	-0.381161
C222	C	0.499967	-0.130851	0.118839
H223	H	-0.000038	-0.583038	-0.429277
H224	H	0.499962	-0.083038	0.070723
H225	H	0.035204	-0.667107	-0.385278
H226	H	0.535204	-0.167107	0.114722
H227	H	-0.035277	-0.667077	-0.385268
H228	H	0.464723	-0.167077	0.114732
C229	C	-0.433219	-1.234825	-0.294529
C230	C	0.066781	-0.734825	0.205471
H231	H	-0.461268	-1.267431	-0.327142
H232	H	0.038732	-0.767431	0.172858
H233	H	-0.408411	-1.197938	-0.335959
H234	H	0.091589	-0.697938	0.164041
H235	H	-0.408402	-1.276276	-0.257654
H236	H	0.091598	-0.776276	0.242346
H237	H	-0.000051	-0.358073	0.028572
H238	H	0.499949	0.141927	0.528572
H239	H	-0.155066	-1.066685	0.289990
H240	H	0.344934	-0.566685	0.789990
H241	H	-0.265176	-0.965770	-0.025326
H242	H	0.234824	-0.465770	0.474674
C243	C	-0.566843	-0.895487	0.045161
C244	C	-0.066843	-0.395487	0.545161
H245	H	-0.538793	-0.862902	0.077793
H246	H	-0.038793	-0.362902	0.577793
H247	H	-0.591670	-0.854032	0.008316
H248	H	-0.091670	-0.354032	0.508316
H249	H	-0.591642	-0.932402	0.086588
H250	H	-0.091642	-0.432402	0.586588
C251	C	-0.000022	-0.782561	-0.301715
C252	C	0.499978	-0.282561	0.198285
H253	H	-0.000024	-0.734749	-0.349832
H254	H	0.499976	-0.234749	0.150168
H255	H	0.035217	-0.818814	-0.305821
H256	H	0.535217	-0.318814	0.194179
H257	H	-0.035265	-0.818790	-0.305830
H258	H	0.464735	-0.318790	0.194170
H259	H	-0.099973	-1.069375	0.148927
H260	H	0.400027	-0.569375	0.648927
C261	C	-0.859431	-0.950222	-0.009672
C262	C	-0.359431	-0.450222	0.490328
H263	H	-0.831384	-0.917625	0.022953
H264	H	-0.331384	-0.417625	0.522953
H265	H	-0.884253	-0.908777	-0.046536
H266	H	-0.384253	-0.408777	0.453464
H267	H	-0.884235	-0.987122	0.031761
H268	H	-0.384235	-0.487122	0.531761
C269	C	0.115642	-1.060643	0.615081
C270	C	0.615642	-0.560643	1.115081
H271	H	0.148446	-1.061458	0.573608
H272	H	0.648446	-0.561458	1.073608
H273	H	0.117946	-1.007424	0.644967
H274	H	0.617946	-0.507424	1.144967
H275	H	0.117919	-1.112494	0.658564
H276	H	0.617919	-0.612494	1.158564
C277	C	-0.274196	-1.180054	-0.239762
C278	C	0.225804	-0.680054	0.260238
H279	H	-0.246132	-1.212636	-0.272392
H280	H	0.253868	-0.712636	0.227608
H281	H	-0.299003	-1.221511	-0.202904
H282	H	0.200997	-0.721511	0.297096
H283	H	-0.299013	-1.143155	-0.281191
H284	H	0.200987	-0.643155	0.218809
H285	H	-0.850306	-1.164492	-0.224100
H286	H	-0.350306	-0.664492	0.275900
C287	C	0.170727	-1.067088	0.276541
C288	C	0.670727	-0.567088	0.776541
H289	H	0.162834	-1.068280	0.213803
H290	H	0.662834	-0.568280	0.713803
H291	H	0.193367	-1.014276	0.285140
H292	H	0.693367	-0.514276	0.785140
H293	H	0.193356	-1.119346	0.298757
H294	H	0.693356	-0.619346	0.798757
H295	H	-0.734959	-0.965853	-0.025311
H296	H	-0.234959	-0.465853	0.474689
