data_functionalizedCrystal
_audit_creation_method	'MofGen! by Chris Wilmer'
_symmetry_space_group_name_H-M	'P1'
_symmetry_Int_Tables_number	1
_symmetry_cell_setting	triclinic
loop_
_symmetry_equiv_pos_as_xyz
  x,y,z
_cell_length_a	14.853567
_cell_length_b	16.109301
_cell_length_c	15.186229
_cell_angle_alpha	89.994833
_cell_angle_beta	89.999614
_cell_angle_gamma	83.548206
loop_
_atom_site_label
_atom_site_type_symbol
_atom_site_fract_x
_atom_site_fract_y
_atom_site_fract_z
O1	O	1.196184	0.108546	-0.073171
O2	O	0.933703	0.121477	-0.073186
O3	O	1.072154	-0.006009	-0.073169
O4	O	1.057733	0.236033	-0.073188
O5	O	1.072145	-0.006011	0.073288
O6	O	0.933694	0.121475	0.073271
O7	O	1.196175	0.108545	0.073287
Zn8	Zn	1.064933	0.115010	0.096532
Zn9	Zn	1.064945	0.115012	-0.096432
O10	O	1.057724	0.236031	0.073269
C11	C	1.071566	-0.036986	0.000060
C12	C	1.069814	-0.129284	0.000061
C13	C	0.900111	0.120890	0.000041
C14	C	0.800030	0.119135	0.000035
C15	C	1.147896	-0.351446	0.000052
C16	C	1.146243	-0.438169	0.000044
C17	C	0.981976	-0.418525	0.000038
C18	C	0.983629	-0.331804	0.000039
C19	C	1.066592	-0.298267	0.000051
C20	C	1.063286	-0.471711	0.000042
C21	C	1.061494	-0.565740	0.000034
C22	C	1.068385	-0.204233	0.000057
C23	C	0.387634	0.035983	0.000061
C24	C	0.366102	0.187440	0.000049
C25	C	0.460133	0.189090	0.000046
C26	C	0.517919	0.114187	0.000049
C27	C	0.481674	0.037632	0.000056
C28	C	0.496386	0.265644	0.000030
C29	C	0.590422	0.267298	0.000026
C30	C	0.648210	0.192393	0.000036
C31	C	0.611959	0.115835	0.000044
C32	C	0.669745	0.040931	0.000047
C33	C	0.633496	-0.035628	0.000061
C34	C	0.539461	-0.037273	0.000065
C35	C	0.742245	0.194038	0.000031
C36	C	0.763785	0.042580	0.000041
C37	C	1.229767	0.109131	0.000058
C38	C	1.329848	0.110887	0.000058
C39	C	1.058313	0.267007	0.000038
C40	C	1.060064	0.359305	0.000031
N41	N	1.064931	0.115007	0.228225
N42	N	1.064954	0.115008	-0.228124
C43	C	1.126258	0.058576	0.453955
C44	C	1.126261	0.058574	0.546145
C45	C	1.003620	0.171442	0.546139
C46	C	1.003614	0.171439	0.453951
C47	C	1.064938	0.115007	0.407861
C48	C	1.064947	0.115008	0.592239
C49	C	1.064950	0.115006	0.692195
C50	C	1.064934	0.115008	0.307899
H51	H	1.212449	-0.481464	0.000044
H52	H	0.953675	0.217393	0.416419
C53	C	0.303259	0.268695	-0.000093
C54	C	0.248628	0.272164	-0.075430
C55	C	0.190713	0.347002	-0.075583
H56	H	0.338200	0.314594	-0.000142
H57	H	0.266077	0.271202	0.050954
H58	H	0.285806	0.269666	-0.126464
H59	H	0.213668	0.226283	-0.075398
H60	H	0.153530	0.349508	-0.024536
H61	H	0.225660	0.392895	-0.075629
H62	H	0.153633	0.349362	-0.126693
C63	C	0.891997	-0.455100	0.000081
C64	C	0.907949	-0.542430	0.000106
C65	C	0.825081	-0.576148	0.000161
H66	H	0.858452	-0.436942	-0.050978
H67	H	0.858514	-0.436902	0.051174
H68	H	0.941418	-0.560620	-0.050982
H69	H	0.941480	-0.560611	0.051162
H70	H	0.791597	-0.557950	0.051254
H71	H	0.791541	-0.557984	-0.050899
H72	H	0.835892	-0.635404	0.000186
H73	H	1.215449	-0.324144	0.000059
H74	H	0.680557	-0.096614	0.000058
C75	C	0.895253	-0.274198	0.000083
C76	C	0.822244	-0.322128	0.000104
C77	C	0.740824	-0.269090	0.000152
H78	H	0.892360	-0.239938	-0.050976
H79	H	0.892435	-0.239976	0.051176
H80	H	0.825062	-0.356336	-0.050984
H81	H	0.825108	-0.356386	0.051159
H82	H	0.738005	-0.234868	0.051245
H83	H	0.737939	-0.234833	-0.050909
H84	H	0.691278	-0.301602	0.000174
H85	H	0.810829	-0.018417	0.000048
H86	H	0.509938	-0.099603	0.000098
C87	C	1.192941	-0.002731	0.596030
C88	C	1.246655	-0.052135	0.535932
C89	C	1.308101	-0.108614	0.581853
H90	H	1.160633	-0.037476	0.632001
H91	H	1.230510	0.027220	0.631969
H92	H	1.209092	-0.082084	0.500008
H93	H	1.278984	-0.017413	0.499959
H94	H	1.345669	-0.078663	0.617792
H95	H	1.275784	-0.143352	0.617823
H96	H	1.344558	-0.142136	0.541084
C97	C	0.937006	0.232580	0.596296
C98	C	0.881856	0.188202	0.649251
C99	C	0.820490	0.244496	0.695476
H100	H	0.900394	0.266213	0.555742
H101	H	0.969406	0.267232	0.632301
H102	H	0.849459	0.153564	0.613249
H103	H	0.918443	0.154572	0.689822
H104	H	0.852889	0.279148	0.731481
H105	H	0.783885	0.278126	0.654916
H106	H	0.783069	0.214394	0.731418
H107	H	1.176191	0.012624	0.416431
H108	H	0.358115	-0.026349	0.000076
H109	H	0.449331	0.326626	0.000018
C110	C	0.629600	0.350499	0.000065
C111	C	0.558866	0.415742	0.000084
C112	C	0.594922	0.492398	0.000135
H113	H	0.665823	0.354413	-0.050993
H114	H	0.665808	0.354333	0.051159
H115	H	0.522673	0.411910	-0.051005
H116	H	0.522637	0.411856	0.051139
H117	H	0.631130	0.496232	0.051230
H118	H	0.631145	0.496303	-0.050923
H119	H	0.546936	0.536675	0.000157
H120	H	0.771754	0.256371	0.000022
