data_functionalizedCrystal
_audit_creation_method	'MofGen! by Chris Wilmer'
_symmetry_space_group_name_H-M	'P1'
_symmetry_Int_Tables_number	1
_symmetry_cell_setting	triclinic
loop_
_symmetry_equiv_pos_as_xyz
  x,y,z
_cell_length_a	16.109295
_cell_length_b	15.455313
_cell_length_c	16.109301
_cell_angle_alpha	87.337130
_cell_angle_beta	96.539666
_cell_angle_gamma	87.322490
loop_
_atom_site_label
_atom_site_type_symbol
_atom_site_fract_x
_atom_site_fract_y
_atom_site_fract_z
O1	O	-1.106777	0.072074	0.103210
O2	O	-0.864715	0.072089	0.116514
O3	O	-0.992395	0.072072	-0.011169
O4	O	-0.979097	0.072091	0.230892
O5	O	-0.985094	-0.072189	-0.003897
O6	O	-0.857414	-0.072172	0.123785
O7	O	-1.099476	-0.072187	0.110481
Cu8	Cu	-0.977778	-0.085352	0.117797
Cu9	Cu	-0.986413	0.085254	0.109198
O10	O	-0.971796	-0.072170	0.238164
C11	C	-0.830090	-0.000039	0.119611
C12	C	-0.737794	-0.000034	0.117997
N13	N	-0.971711	-0.205346	0.123845
C14	C	-0.515521	-0.000038	0.190010
C15	C	-0.428800	-0.000043	0.188488
C16	C	-0.448674	-0.000051	0.036999
C17	C	-0.535393	-0.000052	0.038522
C18	C	-0.568814	-0.000041	0.115030
C19	C	-0.395375	-0.000045	0.111985
C20	C	-0.301348	-0.000051	0.110334
C21	C	-0.662847	-0.000037	0.116681
C22	C	-1.025973	-0.250748	0.069621
C23	C	-1.021392	-0.341555	0.074202
C24	C	-0.962553	-0.386959	0.133012
C25	C	-0.908286	-0.341552	0.187238
C26	C	-0.912863	-0.250746	0.182653
C27	C	-0.942796	-0.658538	0.152784
C28	C	-0.938225	-0.749350	0.157368
C29	C	-1.051331	-0.749347	0.044330
C30	C	-1.055906	-0.658540	0.039752
C31	C	-1.001636	-0.613140	0.093976
N32	N	-0.957871	-0.479779	0.137698
N33	N	-1.006314	-0.520322	0.089285
C34	C	-0.134101	-0.000055	0.107389
C35	C	-0.226395	-0.000052	0.109017
C36	C	-0.988206	-0.000058	-0.038508
C37	C	-0.986591	-0.000060	-0.130803
N38	N	-0.992487	0.205249	0.103144
C39	C	-1.058599	-0.000050	-0.353078
C40	C	-1.057075	-0.000043	-0.439798
C41	C	-0.905587	-0.000037	-0.419921
C42	C	-0.907111	-0.000038	-0.333202
C43	C	-0.983620	-0.000049	-0.299783
C44	C	-0.980571	-0.000041	-0.473222
C45	C	-0.978919	-0.000033	-0.567249
C46	C	-0.985273	-0.000055	-0.205751
C47	C	-0.975985	-0.000037	0.265503
C48	C	-0.977601	-0.000030	0.357798
H49	H	-0.542729	-0.000035	0.252308
C50	C	-0.411907	-0.000056	-0.047155
C51	C	-0.428236	-0.074971	-0.105659
C52	C	-0.391470	-0.074974	-0.189816
C53	C	-0.338376	-0.000062	-0.215468
C54	C	-0.322044	0.074859	-0.156963
C55	C	-0.358810	0.074862	-0.072807
H56	H	-0.467541	-0.130431	-0.086671
H57	H	-0.403560	-0.130436	-0.233125
H58	H	-0.311159	-0.000064	-0.277765
H59	H	-0.282739	0.130319	-0.175951
H60	H	-0.346720	0.130324	-0.029497
C61	C	-0.853175	-0.200802	0.242302
C62	C	-0.788482	-0.250742	0.307021
C63	C	-0.728789	-0.200799	0.366669
C64	C	-0.733789	-0.100917	0.361598
C65	C	-0.798485	-0.050971	0.296877
C66	C	-0.858178	-0.100914	0.237228
H67	H	-0.784778	-0.324686	0.310777
H68	H	-0.680897	-0.237773	0.414581
H69	H	-0.689601	-0.063946	0.405754
H70	H	-0.802189	0.022973	0.293121
H71	H	-0.906070	-0.063940	0.189317
H72	H	-1.103818	-0.621573	-0.008135
H73	H	-1.073889	-0.213785	0.021735
H74	H	-1.095514	-0.786320	0.000183
H75	H	-1.065576	-0.378520	0.030048
C76	C	-1.139554	-0.000047	-0.498422
C77	C	-1.223706	-0.000057	-0.461658
C78	C	-1.306189	-0.000059	-0.520283
C79	C	-1.304519	-0.000051	-0.615671
C80	C	-1.220364	-0.000041	-0.652440
C81	C	-1.137881	-0.000039	-0.593816
H82	H	-1.224945	-0.000063	-0.391042
H83	H	-1.368486	-0.000067	-0.493063
H84	H	-1.365578	-0.000052	-0.659069
H85	H	-1.219125	-0.000035	-0.723057
H86	H	-1.075583	-0.000031	-0.621035
C87	C	-0.821430	-0.000027	-0.456685
C88	C	-0.819748	-0.000025	-0.552072
C89	C	-0.735590	-0.000015	-0.588833
C90	C	-0.653114	-0.000005	-0.530208
C91	C	-0.654793	-0.000007	-0.434816
C92	C	-0.738951	-0.000018	-0.398054
H93	H	-0.880805	-0.000032	-0.595475
H94	H	-0.734347	-0.000014	-0.659449
H95	H	-0.590815	0.000003	-0.557421
H96	H	-0.593736	0.000000	-0.391413
H97	H	-0.740194	-0.000019	-0.327438
C98	C	-0.824628	-0.000039	-0.274572
C99	C	-0.765718	0.074873	-0.282065
C100	C	-0.683239	0.074875	-0.223434
C101	C	-0.659671	-0.000034	-0.157311
C102	C	-0.718582	-0.074951	-0.149816
C103	C	-0.801061	-0.074954	-0.208446
H104	H	-0.783164	0.130330	-0.331015
H105	H	-0.639630	0.130334	-0.228984
H106	H	-0.598615	-0.000032	-0.113910
H107	H	-0.701136	-0.130408	-0.100865
H108	H	-0.844670	-0.130413	-0.202897
C109	C	-0.873493	-0.799293	0.222061
C110	C	-0.806782	-0.861744	0.192706
C111	C	-0.742056	-0.911686	0.257398
C112	C	-0.744040	-0.899176	0.351445
C113	C	-0.810753	-0.836723	0.380805
C114	C	-0.875480	-0.786781	0.316113
H115	H	-0.805311	-0.871007	0.123083
H116	H	-0.692670	-0.957918	0.235664
H117	H	-0.696126	-0.936146	0.399334
H118	H	-0.812225	-0.827460	0.450428
H119	H	-0.924866	-0.740549	0.337847
H120	H	-0.385412	-0.000042	0.249544
H121	H	-0.860373	-0.378525	0.235120
H122	H	-0.578787	-0.000057	-0.022539
H123	H	-1.120897	-0.000057	-0.325871
H124	H	-0.898608	-0.621581	0.196937
