data_functionalizedCrystal
_audit_creation_method	'MofGen! by Chris Wilmer'
_symmetry_space_group_name_H-M	'P1'
_symmetry_Int_Tables_number	1
_symmetry_cell_setting	triclinic
loop_
_symmetry_equiv_pos_as_xyz
  x,y,z
_cell_length_a	6.817900
_cell_length_b	9.582889
_cell_length_c	12.200875
_cell_angle_alpha	91.576692
_cell_angle_beta	107.143593
_cell_angle_gamma	111.207298
loop_
_atom_site_label
_atom_site_type_symbol
_atom_site_fract_x
_atom_site_fract_y
_atom_site_fract_z
V1	V	-4.108301	-0.207395	-0.357451
V2	V	-3.774968	0.125938	-0.024117
V3	V	-3.441635	0.459271	0.309216
O4	O	-4.053185	0.009616	-0.350862
O5	O	-3.719852	0.342950	-0.017529
O6	O	-3.386519	0.676283	0.315804
O7	O	-4.098767	-0.410894	-0.354798
O8	O	-3.765434	-0.077561	-0.021465
O9	O	-3.432101	0.255773	0.311869
O10	O	-4.077439	-0.204359	-0.513442
O11	O	-3.744106	0.128975	-0.180109
O12	O	-3.410772	0.462308	0.153225
O13	O	-4.074661	-0.198349	-0.191120
O14	O	-3.741328	0.134985	0.142213
O15	O	-3.407995	0.468318	0.475547
V16	V	-4.584621	-0.181420	-0.337581
V17	V	-4.251287	0.151913	-0.004248
V18	V	-3.917954	0.485246	0.329085
O19	O	-4.385362	-0.264374	-0.401035
O20	O	-4.052028	0.068959	-0.067702
O21	O	-3.718695	0.402292	0.265631
O22	O	-4.757758	-0.124441	-0.293997
O23	O	-4.424425	0.208892	0.039337
O24	O	-4.091091	0.542225	0.372670
O25	O	-4.370948	0.022078	-0.340234
O26	O	-4.037615	0.355412	-0.006901
O27	O	-3.704282	0.688745	0.326433
O28	O	-4.757134	-0.398432	-0.344170
O29	O	-4.423800	-0.065099	-0.010836
O30	O	-4.090467	0.268235	0.322497
O31	O	-4.735658	-0.190467	-0.503912
O32	O	-4.402325	0.142866	-0.170578
O33	O	-4.068991	0.476200	0.162755
O34	O	-4.392277	-0.184457	-0.181590
O35	O	-4.058943	0.148876	0.151743
O36	O	-3.725610	0.482210	0.485077
C37	C	-3.952656	-0.460498	-0.349105
C38	C	-3.619322	-0.127164	-0.015772
C39	C	-3.285989	0.206169	0.317561
C40	C	-4.026264	-0.626861	-0.347976
C41	C	-3.692931	-0.293528	-0.014643
C42	C	-3.359597	0.039805	0.318690
C43	C	-3.925448	-0.197040	-0.551470
C44	C	-3.592115	0.136294	-0.218137
C45	C	-3.258781	0.469627	0.115197
C46	C	-3.981755	-0.195903	-0.678992
C47	C	-3.648422	0.137430	-0.345659
C48	C	-3.315089	0.470763	-0.012326
C49	C	-4.084806	-0.193825	-0.912469
C50	C	-3.751473	0.139509	-0.579136
C51	C	-3.418139	0.472842	-0.245802
C52	C	-4.027453	-0.194981	-0.782546
C53	C	-3.694119	0.138353	-0.449212
C54	C	-3.360786	0.471686	-0.115879
C55	C	-4.180403	0.071674	-0.345923
C56	C	-3.847070	0.405007	-0.012590
C57	C	-3.513737	0.738341	0.320743
C58	C	-4.086034	0.238036	-0.347060
C59	C	-3.752701	0.571370	-0.013726
C60	C	-3.419368	0.904703	0.319607
C61	C	-4.207610	-0.191781	-0.143556
C62	C	-3.874277	0.141552	0.189778
C63	C	-3.540943	0.474886	0.523111
C64	C	-4.130540	-0.192910	-0.016032
C65	C	-3.797206	0.140424	0.317301
C66	C	-3.463873	0.473757	0.650634
