data_functionalizedCrystal
_audit_creation_method	'MofGen! by Chris Wilmer'
_symmetry_space_group_name_H-M	'P1'
_symmetry_Int_Tables_number	1
_symmetry_cell_setting	triclinic
loop_
_symmetry_equiv_pos_as_xyz
  x,y,z
_cell_length_a	11.026660
_cell_length_b	17.038272
_cell_length_c	9.482900
_cell_angle_alpha	100.012096
_cell_angle_beta	78.636107
_cell_angle_gamma	99.848195
loop_
_atom_site_label
_atom_site_type_symbol
_atom_site_fract_x
_atom_site_fract_y
_atom_site_fract_z
O1	O	1.662364	0.322495	-0.120915
O2	O	1.305154	0.284666	-0.120914
O3	O	1.481634	0.189467	-0.120903
O4	O	1.485884	0.417694	-0.120926
O5	O	1.445798	0.208904	0.120887
O6	O	1.269318	0.304103	0.120876
O7	O	1.626527	0.341931	0.120876
Cu8	Cu	1.444650	0.324792	0.142953
Cu9	Cu	1.487031	0.301806	-0.142992
O10	O	1.450047	0.437131	0.120864
C11	C	1.241305	0.287406	-0.000019
C12	C	1.104444	0.266602	-0.000018
C13	C	0.895116	0.302551	-0.000026
C14	C	1.036569	0.324054	-0.000025
C15	C	1.459854	0.169513	-0.000008
C16	C	1.448332	0.081096	-0.000008
C17	C	1.554116	0.045888	-0.000007
C18	C	1.543284	-0.037190	-0.000021
C19	C	1.426667	-0.085058	-0.000025
C20	C	1.320877	-0.049844	-0.000031
C21	C	1.331711	0.033232	-0.000028
C22	C	1.388394	-0.336210	-0.000045
C23	C	1.377568	-0.419291	-0.000044
C24	C	1.599977	-0.406632	-0.000037
C25	C	1.610799	-0.323554	-0.000024
C26	C	1.505010	-0.288349	-0.000038
C27	C	1.415593	-0.169976	-0.000035
C28	C	1.516087	-0.203432	-0.000039
C29	C	1.690377	0.339192	-0.000023
C30	C	1.827239	0.359995	-0.000033
C31	C	1.471828	0.457085	-0.000034
C32	C	1.483351	0.545500	-0.000043
N33	N	1.414850	0.340960	0.344072
N34	N	1.516840	0.285633	-0.344110
C35	C	1.478233	0.306569	0.416275
C36	C	1.453448	0.320029	0.583691
H37	H	0.848504	0.237453	0.000002
C38	C	1.227428	0.416233	-0.000055
C39	C	1.099474	0.411943	-0.000049
H40	H	1.266262	0.470490	-0.000082
H41	H	1.238907	0.397352	0.084266
H42	H	1.263892	0.383777	-0.084369
H43	H	1.063007	0.444395	0.084272
H44	H	1.087986	0.430835	-0.084379
C45	C	1.167464	-0.357077	-0.000019
C46	C	1.272107	-0.297517	-0.000032
H47	H	1.095669	-0.333184	0.000003
H48	H	1.180357	-0.395987	-0.084335
H49	H	1.155387	-0.382443	0.084301
H50	H	1.284190	-0.272155	-0.084358
H51	H	1.259212	-0.258592	0.084293
C52	C	1.238300	0.340699	0.630889
C53	C	1.355413	0.373228	0.667542
H54	H	1.177778	0.373539	0.682665
H55	H	1.242102	0.338641	0.529397
H56	H	1.215587	0.287859	0.655774
H57	H	1.378130	0.426066	0.642647
H58	H	1.351613	0.375295	0.769057
C59	C	1.205512	-0.182811	-0.000022
C60	C	1.192687	-0.102458	-0.000031
H61	H	1.126368	-0.215289	-0.000009
H62	H	1.261914	-0.200599	-0.084335
H63	H	1.236934	-0.187041	0.084301
H64	H	1.161275	-0.098227	-0.084360
H65	H	1.136266	-0.084665	0.084291
C66	C	0.913594	0.174416	-0.000030
C67	C	1.041546	0.178711	-0.000022
H68	H	0.874768	0.120156	-0.000044
H69	H	0.877119	0.206855	0.084283
H70	H	0.902122	0.193315	-0.084353
H71	H	1.053018	0.159818	0.084307
H72	H	1.078032	0.146260	-0.084344
H73	H	1.320642	-0.208959	-0.000035
C74	C	1.822132	-0.297176	-0.124316
C75	C	1.738991	-0.270944	-0.000022
H76	H	1.901270	-0.264693	-0.124309
H77	H	1.830813	-0.351685	-0.124310
H78	H	1.790706	-0.292927	-0.208625
H79	H	1.770413	-0.275198	0.084288
H80	H	1.730313	-0.216421	-0.000015
H81	H	1.550841	0.267158	0.354151
H82	H	1.589453	0.246220	0.593770
C83	C	0.873189	0.475713	-0.124342
C84	C	0.890140	0.447882	-0.000043
H85	H	0.912012	0.529974	-0.124341
H86	H	0.909677	0.443268	-0.208639
H87	H	0.786378	0.472784	-0.124329
H88	H	0.976951	0.450806	-0.000062
H89	H	0.853656	0.480336	0.084275
C90	C	1.350338	0.472040	0.391222
C91	C	1.316819	0.394158	0.427920
H92	H	1.289810	0.504879	0.442979
H93	H	1.429782	0.494093	0.416087
H94	H	1.354134	0.469964	0.289713
H95	H	1.313032	0.396233	0.529428
H96	H	1.237353	0.372099	0.403065
C97	C	1.765436	0.072266	-0.124312
C98	C	1.682305	0.098502	-0.000010
H99	H	1.844574	0.104751	-0.124320
H100	H	1.774120	0.017758	-0.124302
H101	H	1.733998	0.076511	-0.208616
H102	H	1.713738	0.094252	0.084295
H103	H	1.673624	0.153024	-0.000006
H104	H	1.629424	-0.065853	-0.000016
C105	C	1.682131	-0.528361	-0.000053
C106	C	1.716258	-0.445334	-0.000043
H107	H	1.753925	-0.552253	-0.000071
H108	H	1.622181	-0.537798	0.084261
H109	H	1.647158	-0.551342	-0.084375
H110	H	1.751222	-0.422352	0.084285
H111	H	1.776228	-0.435891	-0.084366
C112	C	1.110782	0.012381	-0.000024
C113	C	1.215430	0.071937	-0.000025
H114	H	1.038995	0.036277	-0.000020
H115	H	1.123681	-0.026532	-0.084336
H116	H	1.098689	-0.012983	0.084300
H117	H	1.227529	0.097297	-0.084356
H118	H	1.202530	0.110863	0.084295
H119	H	1.282596	-0.458262	-0.000024
H120	H	1.611041	-0.164458	-0.000067
