data_functionalizedCrystal
_audit_creation_method	'MofGen! by Chris Wilmer'
_symmetry_space_group_name_H-M	'P1'
_symmetry_Int_Tables_number	1
_symmetry_cell_setting	triclinic
loop_
_symmetry_equiv_pos_as_xyz
  x,y,z
_cell_length_a	14.853576
_cell_length_b	19.288840
_cell_length_c	17.766276
_cell_angle_alpha	89.998559
_cell_angle_beta	90.007408
_cell_angle_gamma	83.382250
loop_
_atom_site_label
_atom_site_type_symbol
_atom_site_fract_x
_atom_site_fract_y
_atom_site_fract_z
O1	O	0.112362	0.921727	0.062718
O2	O	0.612362	1.421727	0.562718
O3	O	0.127557	0.719516	0.062692
O4	O	0.627557	1.219516	0.562692
O5	O	-0.011301	0.826020	0.062703
O6	O	0.488699	1.326020	0.562703
O7	O	0.251220	0.815223	0.062707
O8	O	0.751220	1.315223	0.562707
O9	O	-0.011319	0.826038	-0.062486
O10	O	0.488681	1.326038	0.437514
O11	O	0.127538	0.719534	-0.062497
O12	O	0.627538	1.219534	0.437503
O13	O	0.112344	0.921746	-0.062470
O14	O	0.612344	1.421746	0.437530
Cu15	Cu	0.119939	0.820642	-0.073914
Cu16	Cu	0.619939	1.320642	0.426086
Cu17	Cu	0.119961	0.820620	0.074136
Cu18	Cu	0.619961	1.320620	0.574136
O19	O	0.251202	0.815242	-0.062481
O20	O	0.751202	1.315242	0.437519
C21	C	0.127062	0.693647	0.000094
C22	C	0.627062	1.193647	0.500094
C23	C	0.125606	0.616537	0.000084
C24	C	0.625606	1.116537	0.500084
C25	C	-0.044896	0.825539	0.000109
C26	C	0.455104	1.325539	0.500109
C27	C	-0.144971	0.824070	0.000112
C28	C	0.355029	1.324070	0.500112
C29	C	-0.191972	0.823368	0.068355
C30	C	0.308028	1.323368	0.568355
C31	C	-0.192005	0.823396	-0.068130
C32	C	0.307995	1.323396	0.431870
C33	C	-0.286031	0.822020	-0.068130
C34	C	0.213969	1.322020	0.431870
C35	C	-0.333032	0.821318	0.000113
C36	C	0.166968	1.321318	0.500113
C37	C	-0.286007	0.821994	0.068357
C38	C	0.213993	1.321994	0.568357
C39	C	-0.333065	0.821352	-0.136373
C40	C	0.166935	1.321352	0.363627
C41	C	-0.427097	0.819976	-0.136376
C42	C	0.072903	1.319976	0.363624
C43	C	-0.474098	0.819269	-0.068132
C44	C	0.025902	1.319269	0.431868
C45	C	-0.427067	0.819944	0.000115
C46	C	0.072933	1.319944	0.500115
C47	C	-0.474069	0.819242	0.068359
C48	C	0.025931	1.319242	0.568359
C49	C	-0.427038	0.819912	0.136606
C50	C	0.072962	1.319912	0.636606
C51	C	-0.333009	0.821287	0.136602
C52	C	0.166991	1.321287	0.636602
C53	C	-0.568128	0.817894	-0.068127
C54	C	-0.068128	1.317894	0.431873
C55	C	-0.568104	0.817867	0.068360
C56	C	-0.068104	1.317867	0.568360
C57	C	0.124916	0.580321	0.068326
C58	C	0.624916	1.080321	0.568326
C59	C	0.123538	0.507870	0.068336
C60	C	0.623538	1.007870	0.568336
C61	C	0.122831	0.471639	0.000099
C62	C	0.622831	0.971639	0.500099
C63	C	0.123526	0.507863	-0.068152
C64	C	0.623526	1.007863	0.431848
C65	C	0.124914	0.580312	-0.068160
C66	C	0.624914	1.080312	0.431840
C67	C	0.067820	0.362132	-0.052171
C68	C	0.567820	0.862132	0.447829
C69	C	0.066427	0.289684	-0.052161
C70	C	0.566427	0.789684	0.447839
C71	C	0.118556	0.248181	0.000118
C72	C	0.618556	0.748181	0.500118
C73	C	0.172066	0.279134	0.052400
C74	C	0.672066	0.779134	0.552400
C75	C	0.173453	0.351584	0.052393
C76	C	0.673453	0.851584	0.552393
C77	C	0.121327	0.393080	0.000099
C78	C	0.621327	0.893080	0.500099
C79	C	0.116372	0.133404	0.068375
C80	C	0.616372	0.633404	0.568375
C81	C	0.115000	0.060951	0.068382
C82	C	0.615000	0.560951	0.568382
C83	C	0.114979	0.060946	-0.068108
C84	C	0.614979	0.560946	0.431892
C85	C	0.116361	0.133397	-0.068113
C86	C	0.616361	0.633397	0.431887
C87	C	0.117053	0.169622	0.000131
C88	C	0.617053	0.669622	0.500131
C89	C	0.284796	0.815723	0.000114
C90	C	0.784796	1.315723	0.500114
C91	C	0.384871	0.817192	0.000117
C92	C	0.884871	1.317192	0.500117
C93	C	0.112838	0.947615	0.000129
C94	C	0.612838	1.447615	0.500129
C95	C	0.114294	1.024725	0.000144
C96	C	0.614294	1.524725	0.500144
N97	N	0.119969	0.820605	0.178266
N98	N	0.619969	1.320605	0.678266
N99	N	0.119924	0.820662	-0.178044
N100	N	0.619924	1.320662	0.321956
C101	C	0.174609	0.862699	0.217664
C102	C	0.674609	1.362699	0.717664
C103	C	0.174610	0.862703	0.296466
C104	C	0.674610	1.362703	0.796466
C105	C	0.119954	0.820622	0.335867
C106	C	0.619954	1.320622	0.835867
C107	C	0.065311	0.778520	0.296459
C108	C	0.565311	1.278520	0.796459
C109	C	0.065318	0.778511	0.217659
C110	C	0.565318	1.278511	0.717659
C111	C	0.038636	0.818759	0.460697
C112	C	0.538636	1.318759	0.960697
C113	C	0.038627	0.818772	0.539496
C114	C	0.538627	1.318772	1.039496
C115	C	0.119931	0.820644	0.578913
C116	C	0.619931	1.320644	1.078913
C117	C	0.201247	0.822518	0.539522
C118	C	0.701247	1.322518	1.039522
C119	C	0.201254	0.822509	0.460722
C120	C	0.701254	1.322509	0.960722
C121	C	0.119940	0.820626	0.421312
C122	C	0.619940	1.320626	0.921312
C123	C	0.174577	0.862745	0.703757
C124	C	0.674577	1.362745	1.203757
C125	C	0.174579	0.862745	0.782560
C126	C	0.674579	1.362745	1.282560
C127	C	0.065271	0.778565	0.782552
C128	C	0.565271	1.278565	1.282552
C129	C	0.065277	0.778562	0.703750
C130	C	0.565277	1.278562	1.203750
C131	C	0.119928	0.820656	0.664357
C132	C	0.619928	1.320656	1.164357
H133	H	-0.606364	0.817291	0.123933
H134	H	-0.106364	1.317291	0.623933
H135	H	-0.153732	0.823973	-0.123691
H136	H	0.346268	1.323973	0.376309
Cl137	Cl	0.122670	0.462332	0.154132
Cl138	Cl	0.622670	0.962332	0.654132
Cl139	Cl	0.117252	0.178947	0.154165
Cl140	Cl	0.617252	0.678947	0.654165
Cl141	Cl	-0.627249	0.817059	-0.153916
Cl142	Cl	-0.127249	1.317059	0.346084
Cl143	Cl	0.122643	0.462316	-0.153936
Cl144	Cl	0.622643	0.962316	0.346064
H145	H	0.114443	0.031464	0.123955
H146	H	0.614443	0.531464	0.623955
Cl147	Cl	-0.003396	0.725614	0.345991
Cl148	Cl	0.496604	1.225614	0.845991
Cl149	Cl	0.240724	0.390494	0.118111
Cl150	Cl	0.740724	0.890494	0.618111
Cl151	Cl	0.303465	0.824874	0.589066
Cl152	Cl	0.803465	1.324874	1.089066
H153	H	0.114409	0.031447	-0.123668
H154	H	0.614409	0.531447	0.376332
H155	H	-0.294790	0.821928	-0.191933
H156	H	0.205210	1.321928	0.308067
Cl157	Cl	0.125791	0.625857	0.154119
Cl158	Cl	0.625791	1.125857	0.654119
Cl159	Cl	0.117222	0.178929	-0.153908
Cl160	Cl	0.617222	0.678929	0.346092
Cl161	Cl	-0.486211	0.819129	-0.222171
Cl162	Cl	0.013789	1.319129	0.277829
H163	H	0.214517	0.245343	0.094968
H164	H	0.714517	0.745343	0.594968
H165	H	0.125476	0.609799	-0.123732
H166	H	0.625476	1.109799	0.376268
H167	H	-0.153675	0.823911	0.123921
H168	H	0.346325	1.323911	0.623921
Cl169	Cl	-0.003433	0.725657	0.832077
Cl170	Cl	0.496567	1.225657	1.332077
H171	H	0.022852	0.264488	-0.094728
H172	H	0.522852	0.764488	0.405272
H173	H	0.025368	0.395919	-0.094746
H174	H	0.525368	0.895919	0.405254
Cl175	Cl	-0.486138	0.819038	0.222394
Cl176	Cl	0.013862	1.319038	0.722394
Cl177	Cl	0.243321	0.915611	0.168146
Cl178	Cl	0.743321	1.415611	0.668146
Cl179	Cl	0.243291	0.915637	0.346005
Cl180	Cl	0.743291	1.415637	0.846005
H181	H	0.267464	0.824032	0.428653
H182	H	0.767464	1.324032	0.928653
H183	H	0.219081	0.897017	0.671681
H184	H	0.719081	1.397017	1.171681
H185	H	0.020823	0.744232	0.185582
H186	H	0.520823	1.244232	0.685582
H187	H	0.219079	0.897021	0.814637
H188	H	0.719079	1.397021	1.314637
Cl189	Cl	-0.003421	0.725644	0.654219
Cl190	Cl	0.496579	1.225644	1.154219
H191	H	-0.027575	0.817228	0.428610
H192	H	0.472425	1.317228	0.928610
Cl193	Cl	-0.273886	0.822162	0.222390
Cl194	Cl	0.226114	1.322162	0.722390
Cl195	Cl	-0.063595	0.816412	0.589008
Cl196	Cl	0.436405	1.316412	1.089008
