data_functionalizedCrystal
_audit_creation_method	'MofGen! by Chris Wilmer'
_symmetry_space_group_name_H-M	'P1'
_symmetry_Int_Tables_number	1
_symmetry_cell_setting	triclinic
loop_
_symmetry_equiv_pos_as_xyz
  x,y,z
_cell_length_a	10.654550
_cell_length_b	14.044220
_cell_length_c	9.730223
_cell_angle_alpha	89.997406
_cell_angle_beta	89.996251
_cell_angle_gamma	88.836890
loop_
_atom_site_label
_atom_site_type_symbol
_atom_site_fract_x
_atom_site_fract_y
_atom_site_fract_z
O1	O	1.681222	0.133227	-0.114408
O2	O	1.317019	0.145921	-0.114387
O3	O	1.493654	0.001554	-0.114384
O4	O	1.504587	0.277595	-0.114411
O5	O	1.493652	0.001557	0.114196
O6	O	1.317017	0.145925	0.114193
O7	O	1.681220	0.133231	0.114172
Zn8	Zn	1.499118	0.139578	0.150474
Zn9	Zn	1.499121	0.139574	-0.150689
O10	O	1.504585	0.277598	0.114169
C11	C	1.270127	0.144991	-0.000094
C12	C	1.130403	0.142202	-0.000085
C13	C	1.059459	0.227203	-0.000114
C14	C	0.928175	0.224578	-0.000137
C15	C	0.938790	0.051942	-0.000109
C16	C	1.070072	0.054569	-0.000076
C17	C	1.119790	0.314837	-0.000123
C18	C	1.048846	0.399845	-0.000153
C19	C	0.917561	0.397219	-0.000177
C20	C	0.857221	0.309585	-0.000170
C21	C	1.488867	-0.033790	-0.000093
C22	C	1.474592	-0.139110	-0.000090
C23	C	1.448493	-0.331943	-0.000108
C24	C	1.549741	-0.388911	-0.000119
C25	C	1.535219	-0.496210	-0.000129
C26	C	1.463013	-0.224634	-0.000098
C27	C	1.728113	0.134161	-0.000124
C28	C	1.867836	0.136950	-0.000142
C29	C	1.509372	0.312942	-0.000125
C30	C	1.523648	0.418262	-0.000137
N31	N	1.499126	0.139581	0.356011
N32	N	1.499123	0.139563	-0.356226
C33	C	1.577364	0.075677	0.427938
C34	C	1.577359	0.075666	0.571821
C35	C	1.420876	0.203470	0.571837
C36	C	1.420875	0.203477	0.427956
C37	C	1.655615	0.011782	0.355993
C38	C	1.733861	-0.052127	0.427920
C39	C	1.733856	-0.052138	0.571803
C40	C	1.655606	0.011759	0.643759
H41	H	1.097984	0.471193	-0.000147
H42	H	1.647328	-0.357098	-0.000217
C43	C	1.318269	-0.374171	-0.000168
C44	C	1.227701	-0.300527	-0.000185
C45	C	1.107727	-0.339403	-0.000255
H46	H	1.308239	-0.412342	0.079519
H47	H	1.308344	-0.412316	-0.079913
H48	H	1.237621	-0.262397	0.079552
H49	H	1.237689	-0.262350	-0.079867
H50	H	1.097802	-0.377548	-0.080000
H51	H	1.097711	-0.377574	0.079434
H52	H	1.046262	-0.289442	-0.000279
H53	H	0.889650	-0.019405	-0.000126
C54	C	1.147168	-0.037688	0.000232
C55	C	1.222790	-0.041231	0.117870
C56	C	1.293813	-0.126211	0.118215
H57	H	1.198733	-0.040344	-0.079371
H58	H	1.092475	-0.090281	0.000297
H59	H	1.277477	0.011348	0.117792
H60	H	1.171257	-0.038591	0.197492
H61	H	1.239120	-0.178804	0.118280
H62	H	1.345371	-0.128860	0.038607
H63	H	1.345123	-0.128630	0.198036
C64	C	1.655491	0.011976	0.199778
C65	C	1.570248	0.081634	0.152184
C66	C	1.570116	0.081854	0.008288
H67	H	1.631473	-0.048713	0.167043
H68	H	1.737250	0.025581	0.167186
H69	H	1.488507	0.068023	0.184762
H70	H	1.594246	0.142333	0.184881
H71	H	1.651874	0.095459	-0.024304
H72	H	1.546099	0.021162	-0.024433
H73	H	1.512288	0.129121	-0.024022
C74	C	1.335855	0.272693	0.650134
C75	C	1.253293	0.221618	0.732771
C76	C	1.174967	0.285357	0.804930
H77	H	1.289136	0.310782	0.586849
H78	H	1.385453	0.312481	0.706337
H79	H	1.203700	0.181847	0.676573
H80	H	1.299976	0.183533	0.796082
H81	H	1.224565	0.325145	0.861133
H82	H	1.128257	0.323442	0.741635
H83	H	1.118947	0.250712	0.861017
C84	C	1.818710	-0.121434	0.349556
C85	C	1.801971	-0.107749	0.208156
C86	C	1.880100	-0.171588	0.135928
H87	H	1.798003	-0.184866	0.372997
H88	H	1.903782	-0.110574	0.373024
H89	H	1.716918	-0.118616	0.184698
H90	H	1.822687	-0.044329	0.184675
H91	H	1.965172	-0.160729	0.159396
H92	H	1.859387	-0.235017	0.159380
H93	H	1.868762	-0.162306	0.039981
H94	H	1.357165	0.255512	0.369392
C95	C	1.818935	-0.121565	0.649650
C96	C	1.887481	-0.177501	0.555842
C97	C	1.965887	-0.241458	0.627500
H98	H	1.769447	-0.161467	0.705783
H99	H	1.875134	-0.087099	0.705748
H100	H	1.831290	-0.211965	0.499768
H101	H	1.936993	-0.137626	0.499706
H102	H	2.022085	-0.206991	0.683598
H103	H	1.916389	-0.281353	0.683630
H104	H	2.012413	-0.279412	0.563863
H105	H	0.750320	0.307454	-0.000168
C106	C	0.840754	0.489612	-0.000273
C107	C	0.921695	0.566915	-0.000307
C108	C	0.850989	0.652045	-0.000422
H109	H	0.789288	0.492318	0.079405
H110	H	0.789364	0.492224	-0.080028
H111	H	0.973064	0.564305	0.079439
H112	H	0.973162	0.564240	-0.079979
H113	H	0.799598	0.654656	-0.080176
H114	H	0.799525	0.654741	0.079257
H115	H	0.905896	0.704504	-0.000458
H116	H	1.226688	0.316985	-0.000110
H117	H	1.655600	0.011737	0.760918
