data_functionalizedCrystal
_audit_creation_method	'MofGen! by Chris Wilmer'
_symmetry_space_group_name_H-M	'P1'
_symmetry_Int_Tables_number	1
_symmetry_cell_setting	triclinic
loop_
_symmetry_equiv_pos_as_xyz
  x,y,z
_cell_length_a	14.908571
_cell_length_b	11.169416
_cell_length_c	11.169409
_cell_angle_alpha	90.030874
_cell_angle_beta	86.683711
_cell_angle_gamma	93.293179
loop_
_atom_site_label
_atom_site_type_symbol
_atom_site_fract_x
_atom_site_fract_y
_atom_site_fract_z
Zn1	Zn	1.379332	0.583746	-0.784366
Zn2	Zn	1.879332	1.083746	-0.284366
Zn3	Zn	1.379249	0.784480	-0.583682
Zn4	Zn	1.879249	1.284480	-0.083682
Zn5	Zn	1.228456	0.572217	-0.572126
Zn6	Zn	1.728456	1.072217	-0.072126
Zn7	Zn	1.228462	0.772787	-0.772759
Zn8	Zn	1.728462	1.272787	-0.272759
O9	O	1.303875	0.678307	-0.678233
O10	O	1.803875	1.178307	-0.178233
O11	O	1.505568	0.620092	-0.767438
O12	O	2.005568	1.120092	-0.267438
O13	O	1.359209	0.756391	-0.414196
O14	O	1.859209	1.256391	0.085804
O15	O	1.248503	0.405799	-0.600302
O16	O	1.748503	0.905799	-0.100302
O17	O	1.505507	0.767570	-0.619996
O18	O	2.005507	1.267570	-0.119996
O19	O	1.359351	0.414269	-0.756233
O20	O	1.859351	0.914269	-0.256233
O21	O	1.248422	0.600443	-0.405706
O22	O	1.748422	1.100443	0.094294
O23	O	1.102210	0.589105	-0.589047
O24	O	1.602210	1.089105	-0.089047
O25	O	1.248512	0.747642	-0.942252
O26	O	1.748512	1.247642	-0.442252
O27	O	1.102214	0.736463	-0.736452
O28	O	1.602214	1.236463	-0.236452
O29	O	1.359356	0.608754	-0.950779
O30	O	1.859356	1.108754	-0.450779
O31	O	1.359214	0.950876	-0.608742
O32	O	1.859214	1.450876	-0.108742
O33	O	1.248432	0.942286	-0.747656
O34	O	1.748432	1.442286	-0.247656
C35	C	1.303839	0.990129	-0.678221
C36	C	1.803839	1.490129	-0.178221
C37	C	1.303906	1.123535	-0.678263
C38	C	1.803906	1.623535	-0.178263
C39	C	1.069478	0.660265	-0.660237
C40	C	1.569478	1.160265	-0.160237
C41	C	0.969202	0.652576	-0.652566
C42	C	1.469202	1.152576	-0.152566
C43	C	1.303944	0.678180	-0.991281
C44	C	1.803944	1.178180	-0.491281
C45	C	1.303974	0.678125	-1.124684
C46	C	1.803974	1.178125	-0.624684
C47	C	0.780825	0.791808	-0.791438
C48	C	1.280825	1.291808	-0.291438
C49	C	0.686607	0.784587	-0.784235
C50	C	1.186607	1.284587	-0.284235
C51	C	0.686545	0.630906	-0.630964
C52	C	1.186545	1.130906	-0.130964
C53	C	0.780763	0.638128	-0.638167
C54	C	1.280763	1.138128	-0.138167
C55	C	0.827900	0.718583	-0.718406
C56	C	1.327900	1.218583	-0.218406
C57	C	0.922120	0.725809	-0.725602
C58	C	1.422120	1.225809	-0.225602
C59	C	0.922057	0.572124	-0.572338
C60	C	1.422057	1.072124	-0.072338
C61	C	0.827838	0.564902	-0.565135
C62	C	1.327838	1.064902	-0.065135
C63	C	1.539187	0.696421	-0.696301
C64	C	2.039187	1.196421	-0.196301
C65	C	1.639463	0.704140	-0.704000
C66	C	2.139463	1.204140	-0.204000
C67	C	1.303935	0.365270	-0.678273
C68	C	1.803935	0.865270	-0.178273
C69	C	1.303961	0.231872	-0.678290
C70	C	1.803961	0.731872	-0.178290
C71	C	1.303858	0.678352	-0.366407
C72	C	1.803858	1.178352	0.133593
C73	C	1.304003	0.678082	-0.233019
C74	C	1.804003	1.178082	0.266981
H75	H	0.819204	0.857324	-0.856765
H76	H	1.319204	1.357324	-0.356765
O77	O	0.968010	0.803797	-0.803611
O78	O	1.468010	1.303797	-0.303611
C79	C	1.022525	0.739722	-0.885422
C80	C	1.522525	1.239722	-0.385422
H81	H	1.036624	0.649807	-0.844311
H82	H	1.536624	1.149807	-0.344311
H83	H	1.088785	0.793703	-0.906498
H84	H	1.588785	1.293703	-0.406498
H85	H	0.986249	0.723843	-0.971609
H86	H	1.486249	1.223843	-0.471609
H87	H	0.960395	0.512500	-0.512866
H88	H	1.460395	1.012500	-0.012866
H89	H	0.648150	0.565397	-0.565646
H90	H	1.148150	1.065397	-0.065646
H91	H	0.648282	0.844212	-0.843709
H92	H	1.148282	1.344212	-0.343709
H93	H	0.789447	0.499395	-0.499810
H94	H	1.289447	0.999395	0.000190
