data_functionalizedCrystal
_audit_creation_method	'MofGen! by Chris Wilmer'
_symmetry_space_group_name_H-M	'P1'
_symmetry_Int_Tables_number	1
_symmetry_cell_setting	triclinic
loop_
_symmetry_equiv_pos_as_xyz
  x,y,z
_cell_length_a	13.897449
_cell_length_b	18.050589
_cell_length_c	13.897441
_cell_angle_alpha	90.027873
_cell_angle_beta	90.020733
_cell_angle_gamma	90.029500
loop_
_atom_site_label
_atom_site_type_symbol
_atom_site_fract_x
_atom_site_fract_y
_atom_site_fract_z
Zn1	Zn	1.474632	-0.295610	0.545399
Zn2	Zn	1.474496	-0.419815	0.384108
Zn3	Zn	1.313321	-0.295646	0.384118
Zn4	Zn	1.313273	-0.419766	0.545361
O5	O	1.393931	-0.357709	0.464747
O6	O	1.609596	-0.312092	0.524016
O7	O	1.453079	-0.403379	0.249128
O8	O	1.334796	-0.191716	0.405532
O9	O	1.609496	-0.403344	0.405516
O10	O	1.453311	-0.191690	0.524025
O11	O	1.334665	-0.312152	0.249135
O12	O	1.178333	-0.312105	0.405495
O13	O	1.334715	-0.403261	0.680348
O14	O	1.178298	-0.403295	0.523960
O15	O	1.453264	-0.312045	0.680376
O16	O	1.453033	-0.523733	0.405479
O17	O	1.334583	-0.523697	0.523951
C18	C	1.143316	-0.357699	0.464725
C19	C	1.036102	-0.357713	0.464738
C20	C	0.839807	-0.357716	0.464763
C21	C	0.949040	-0.357712	0.464747
C22	C	1.393814	-0.550661	0.464731
C23	C	1.393853	-0.633207	0.464756
C24	C	1.329503	-0.832665	0.529158
C25	C	1.305986	-0.882111	0.441140
C26	C	1.393947	-0.784337	0.464769
C27	C	1.417512	-0.881973	0.552797
C28	C	1.394037	-0.930323	0.464789
C29	C	1.370384	-0.832696	0.376703
C30	C	1.481951	-0.832554	0.488420
C31	C	1.458467	-0.881977	0.400341
C32	C	1.393893	-0.700239	0.464758
C33	C	1.394092	-1.014419	0.464789
C34	C	1.645524	-0.357720	0.464769
C35	C	1.752738	-0.357724	0.464779
C36	C	1.393999	-0.357644	0.716340
C37	C	1.394028	-0.357616	0.823554
C38	C	1.394074	-0.164004	0.464784
C39	C	1.394135	-0.081458	0.464800
C40	C	1.393918	-0.357721	0.214132
C41	C	1.394076	-0.357540	0.106919
C42	C	1.394055	-0.357565	1.019849
C43	C	1.394037	-0.357595	0.910616
H44	H	1.274924	-0.811012	0.583534
C45	C	1.343386	-0.803577	0.276115
N46	N	1.323046	-0.781643	0.200355
C47	C	1.582404	-0.803112	0.515487
N48	N	1.658063	-0.780930	0.535887
C49	C	1.532142	-0.911051	0.326706
N50	N	1.587628	-0.932952	0.271242
H51	H	1.231606	-0.903895	0.421153
C52	C	1.444391	-0.911216	0.653358
N53	N	1.464629	-0.933238	0.729102
