data_functionalizedCrystal
_audit_creation_method	'MofGen! by Chris Wilmer'
_symmetry_space_group_name_H-M	'P1'
_symmetry_Int_Tables_number	1
_symmetry_cell_setting	triclinic
loop_
_symmetry_equiv_pos_as_xyz
  x,y,z
_cell_length_a	19.288864
_cell_length_b	14.044220
_cell_length_c	17.766277
_cell_angle_alpha	89.993125
_cell_angle_beta	89.976791
_cell_angle_gamma	88.162561
loop_
_atom_site_label
_atom_site_type_symbol
_atom_site_fract_x
_atom_site_fract_y
_atom_site_fract_z
O1	O	0.928949	0.118215	-0.062840
O2	O	0.727713	0.134161	-0.062789
O3	O	0.825310	-0.011784	-0.062806
O4	O	0.831351	0.264160	-0.062822
O5	O	0.825291	-0.011791	0.062383
O6	O	0.727693	0.134154	0.062400
O7	O	0.928929	0.118207	0.062349
Cu8	Cu	0.828310	0.126180	0.073805
Cu9	Cu	0.828332	0.126189	-0.074245
O10	O	0.831332	0.264152	0.062366
C11	C	0.701794	0.133645	-0.000188
C12	C	0.624591	0.132104	-0.000168
C13	C	0.585397	0.217738	-0.000185
C14	C	0.512857	0.216291	-0.000193
C15	C	0.479514	0.129205	-0.000200
C16	C	0.518717	0.043560	-0.000178
C17	C	0.591256	0.045010	-0.000163
C18	C	0.366860	0.060749	-0.044080
C19	C	0.294323	0.059303	-0.044100
C20	C	0.255781	0.124731	-0.000245
C21	C	0.289785	0.191621	0.043621
C22	C	0.362323	0.193071	0.043637
C23	C	0.400858	0.127624	-0.000216
C24	C	0.137930	0.208802	-0.000270
C25	C	0.065389	0.207351	-0.000273
C26	C	0.071251	0.034617	-0.000266
C27	C	0.143790	0.036071	-0.000255
C28	C	0.177126	0.123165	-0.000260
C29	C	0.822656	-0.047091	-0.000211
C30	C	0.814768	-0.152283	-0.000208
C31	C	0.800348	-0.344882	-0.000215
C32	C	0.856291	-0.402755	-0.000231
C33	C	0.848267	-0.509924	-0.000235
C34	C	0.808370	-0.237703	-0.000211
C35	C	0.954848	0.118724	-0.000254
C36	C	1.032051	0.120264	-0.000278
C37	C	0.833986	0.299459	-0.000231
C38	C	0.841874	0.404651	-0.000239
N39	N	0.828299	0.126173	0.177935
N40	N	0.828348	0.126188	-0.178375
C41	C	0.871532	0.061580	0.217315
C42	C	0.871536	0.061576	0.296116
C43	C	0.828314	0.126181	0.335536
C44	C	0.785072	0.190779	0.296147
C45	C	0.785064	0.190775	0.217347
C46	C	0.824563	0.212524	0.460370
C47	C	0.824575	0.212529	0.539169
C48	C	0.828333	0.126192	0.578582
C49	C	0.832093	0.039847	0.539187
C50	C	0.832085	0.039843	0.460387
C51	C	0.828317	0.126192	0.420982
C52	C	0.871573	0.061589	0.703407
C53	C	0.871572	0.061583	0.782211
C54	C	0.785111	0.190794	0.782240
C55	C	0.785109	0.190792	0.703438
C56	C	0.828343	0.126190	0.664027
H57	H	0.033478	0.277088	-0.000283
H58	H	0.398235	0.007467	-0.079797
C59	C	0.929136	-0.360962	-0.000241
C60	C	0.979769	-0.383964	-0.065257
C61	C	1.052610	-0.342166	-0.065264
C62	C	1.074819	-0.277364	-0.000255
C63	C	1.024185	-0.254358	0.064766
C64	C	0.951344	-0.296157	0.064773
H65	H	0.963329	-0.431937	-0.113385
H66	H	1.090092	-0.359196	-0.113397
H67	H	1.128740	-0.246422	-0.000260
H68	H	1.040624	-0.206385	0.112894
H69	H	0.913861	-0.279126	0.112906
C70	C	0.469732	0.310494	-0.000216
C71	C	0.389942	0.308897	-0.000235
C72	C	0.346819	0.403098	-0.000259
C73	C	0.383486	0.498897	-0.000264
C74	C	0.463280	0.500498	-0.000245
C75	C	0.506403	0.406296	-0.000221
H76	H	0.362795	0.237978	-0.000232
H77	H	0.287751	0.401913	-0.000274
H78	H	0.351564	0.568631	-0.000282
H79	H	0.490427	0.571417	-0.000249
H80	H	0.565472	0.407481	-0.000207
H81	H	0.835153	-0.030457	0.571275
C82	C	0.836209	-0.055132	0.417053
C83	C	0.899103	-0.124092	0.427856
C84	C	0.903221	-0.219069	0.384523
C85	C	0.844445	-0.245084	0.330388
C86	C	0.781546	-0.176122	0.319583
C87	C	0.777428	-0.081145	0.362916
H88	H	0.942617	-0.104836	0.467932
H89	H	0.949784	-0.270119	0.392522
H90	H	0.847494	-0.315391	0.298310
H91	H	0.738032	-0.195378	0.279507
H92	H	0.730866	-0.030095	0.354917
C93	C	0.482043	-0.052236	-0.000187
C94	C	0.402254	-0.053835	-0.000210
C95	C	0.365581	-0.149635	-0.000215
C96	C	0.408698	-0.243836	-0.000198
C97	C	0.488492	-0.242240	-0.000175
C98	C	0.525165	-0.146440	-0.000170
H99	H	0.370332	0.015901	-0.000223
H100	H	0.306512	-0.150816	-0.000232
H101	H	0.381551	-0.314753	-0.000202
H102	H	0.520414	-0.311976	-0.000162
H103	H	0.584234	-0.145260	-0.000153
H104	H	0.390006	0.247532	0.079357
C105	C	0.919122	-0.009479	0.660050
C106	C	0.911273	-0.117387	0.670900
C107	C	0.958822	-0.188456	0.627547
C108	C	1.014221	-0.151618	0.573343
C109	C	1.022073	-0.043704	0.562491
C110	C	0.974524	0.027365	0.605845
H111	H	0.870261	-0.144662	0.711027
H112	H	0.953009	-0.268341	0.635580
H113	H	1.049420	-0.204227	0.541250
H114	H	1.063085	-0.016429	0.522364
H115	H	0.980336	0.107250	0.597811
H116	H	0.906775	0.008979	0.814274
H117	H	0.175703	-0.033662	-0.000245
C118	C	0.737528	0.261847	0.339504
C119	C	0.737569	0.261901	0.426181
C120	C	0.690020	0.332969	0.469537
C121	C	0.642430	0.403982	0.426216
C122	C	0.642386	0.403931	0.339534
C123	C	0.689935	0.332863	0.296178
H124	H	0.772800	0.209331	0.458255
H125	H	0.690053	0.333007	0.533705
H126	H	0.607231	0.456591	0.458310
H127	H	0.607155	0.456501	0.307460
H128	H	0.689902	0.332825	0.232010
H129	H	0.749916	0.243393	0.814335
C130	C	0.820438	0.307505	0.582500
C131	C	0.816289	0.402473	0.539152
C132	C	0.812151	0.497452	0.582480
C133	C	0.812163	0.497461	0.669158
C134	C	0.816312	0.402489	0.712511
C135	C	0.820450	0.307511	0.669182
H136	H	0.816280	0.402469	0.474984
H137	H	0.809079	0.567756	0.550387
H138	H	0.809100	0.567770	0.701232
H139	H	0.816321	0.402493	0.776679
H140	H	0.823522	0.237206	0.701275
C141	C	0.247399	0.263600	0.091867
C142	C	0.167609	0.262007	0.091858
C143	C	0.125220	0.333986	0.140098
C144	C	0.162621	0.407558	0.188347
C145	C	0.242415	0.409155	0.188357
C146	C	0.284804	0.337175	0.140117
H147	H	0.139919	0.207541	0.056140
H148	H	0.066151	0.332804	0.140091
H149	H	0.131242	0.460842	0.224057
H150	H	0.270105	0.463620	0.224075
H151	H	0.343873	0.338357	0.140125
C152	C	0.727508	-0.386677	-0.000196
C153	C	0.705281	-0.451513	0.064815
C154	C	0.632443	-0.493322	0.064835
C155	C	0.581832	-0.470295	-0.000156
C156	C	0.604058	-0.405456	-0.065172
C157	C	0.676896	-0.363647	-0.065192
H158	H	0.742747	-0.468562	0.112929
H159	H	0.615990	-0.541321	0.112965
H160	H	0.527913	-0.501245	-0.000141
H161	H	0.566592	-0.388407	-0.113287
H162	H	0.693349	-0.315648	-0.113322
H163	H	0.906734	0.008976	0.185228
H164	H	0.906743	0.008975	0.328185
H165	H	0.749907	0.243393	0.671373
H166	H	0.612534	0.288658	-0.000191
H167	H	0.165073	0.279719	-0.000263
H168	H	0.044104	-0.036290	-0.000318
C169	C	0.256922	-0.014268	-0.092356
C170	C	0.299312	-0.086247	-0.140588
C171	C	0.261913	-0.159817	-0.188848
C172	C	0.182123	-0.161407	-0.188875
C173	C	0.139728	-0.089426	-0.140642
C174	C	0.177127	-0.015856	-0.092382
H175	H	0.358381	-0.085071	-0.140570
H176	H	0.293297	-0.213102	-0.224554
H177	H	0.154438	-0.215868	-0.224600
H178	H	0.080659	-0.090601	-0.140660
H179	H	0.145743	0.037430	-0.056676
H180	H	0.623168	-0.024726	-0.000149
H181	H	0.821491	0.282834	0.428286
H182	H	0.749858	0.243375	0.185284
