data_functionalizedCrystal
_audit_creation_method	'MofGen! by Chris Wilmer'
_symmetry_space_group_name_H-M	'P1'
_symmetry_Int_Tables_number	1
_symmetry_cell_setting	triclinic
loop_
_symmetry_equiv_pos_as_xyz
  x,y,z
_cell_length_a	19.805407
_cell_length_b	12.594516
_cell_length_c	19.805399
_cell_angle_alpha	89.979203
_cell_angle_beta	89.980427
_cell_angle_gamma	90.016053
loop_
_atom_site_label
_atom_site_type_symbol
_atom_site_fract_x
_atom_site_fract_y
_atom_site_fract_z
Zn1	Zn	1.034784	-0.423767	-0.382752
Zn2	Zn	1.034720	-0.601760	-0.269577
Zn3	Zn	0.921599	-0.423796	-0.269576
Zn4	Zn	0.921583	-0.601704	-0.382723
O5	O	0.978172	-0.512757	-0.326157
O6	O	1.129492	-0.447389	-0.367751
O7	O	1.019694	-0.578189	-0.174860
O8	O	0.936647	-0.274846	-0.284601
O9	O	1.129445	-0.578160	-0.284602
O10	O	1.019804	-0.274825	-0.367750
O11	O	0.936584	-0.447439	-0.174860
O12	O	0.826880	-0.447385	-0.284573
O13	O	0.936620	-0.578064	-0.477444
O14	O	0.826869	-0.578092	-0.367702
O15	O	1.019788	-0.447335	-0.477464
O16	O	1.019678	-0.750698	-0.284574
O17	O	0.936557	-0.750657	-0.367703
C18	C	0.802316	-0.512736	-0.326135
C19	C	0.727084	-0.512753	-0.326142
C20	C	0.691751	-0.580915	-0.369357
C21	C	0.621063	-0.580917	-0.369366
C22	C	0.585708	-0.512762	-0.326157
C23	C	0.621045	-0.444592	-0.282940
C24	C	0.691733	-0.444586	-0.282934
C25	C	0.335972	-0.444615	-0.282962
C26	C	0.265280	-0.444629	-0.282970
C27	C	0.265302	-0.580947	-0.369394
C28	C	0.335989	-0.580941	-0.369389
C29	C	0.371321	-0.512768	-0.326175
C30	C	0.447969	-0.512765	-0.326166
C31	C	0.509061	-0.512769	-0.326162
C32	C	0.978127	-0.789298	-0.326150
C33	C	0.978170	-0.907603	-0.326170
C34	C	0.932956	-0.976872	-0.371352
C35	C	0.916467	-1.047728	-0.309590
C36	C	0.994721	-1.047546	-0.387943
C37	C	0.961649	-0.976901	-0.264375
C38	C	1.039931	-0.976712	-0.342770
C39	C	1.023465	-1.047536	-0.280965
C40	C	1.154714	-0.512778	-0.326179
C41	C	1.229946	-0.512787	-0.326189
C42	C	0.978209	-0.512690	-0.502700
C43	C	0.978226	-0.512661	-0.577932
C44	C	0.978235	-0.235136	-0.326178
C45	C	0.978261	-0.116830	-0.326188
C46	C	1.021533	-0.444587	-0.613288
C47	C	1.021539	-0.444556	-0.683976
C48	C	0.978242	-0.512605	-0.719307
C49	C	0.934931	-0.580683	-0.683947
C50	C	0.934921	-0.580707	-0.613259
C51	C	0.934969	-0.580583	-0.969020
C52	C	0.934984	-0.580556	-1.039712
C53	C	1.021588	-0.444432	-1.039737
C54	C	1.021578	-0.444457	-0.969050
C55	C	0.978264	-0.512530	-0.933695
C56	C	0.978256	-0.512561	-0.857046
C57	C	0.978253	-0.512580	-0.795955
C58	C	0.978173	-0.512747	-0.150301
C59	C	0.978288	-0.512475	-0.075069
H60	H	0.720500	-0.389075	-0.247748
N61	N	0.227189	-0.654468	-0.416009
H62	H	0.239516	-0.638042	-0.464386
H63	H	0.239491	-0.730464	-0.405353
H64	H	1.056806	-0.389126	-0.712760
N65	N	0.943074	-0.935971	-0.195168
H66	H	0.896611	-0.962435	-0.182535
H67	H	0.977072	-0.962287	-0.161054
H68	H	0.899710	-0.636028	-0.940243
N69	N	0.729882	-0.654425	-0.415962
H70	H	0.759190	-0.703692	-0.388400
H71	H	0.696728	-0.697533	-0.443332
H72	H	0.899723	-0.635972	-1.068477
N73	N	1.068238	-0.371200	-0.575182
H74	H	1.057748	-0.295142	-0.587483
H75	H	1.061639	-0.381643	-0.525049
H76	H	0.899675	-0.636086	-0.712719
N77	N	0.227148	-0.371114	-0.236362
H78	H	0.197833	-0.321858	-0.263924
H79	H	0.197844	-0.414391	-0.204961
N80	N	1.074169	-1.088382	-0.230312
H81	H	1.061616	-1.062545	-0.183699
H82	H	1.074187	-1.168566	-0.230929
N83	N	0.374119	-0.654445	-0.415999
H84	H	0.424261	-0.644098	-0.409437
H85	H	0.361750	-0.730442	-0.405386
N86	N	0.374075	-0.371073	-0.236366
H87	H	0.340949	-0.327898	-0.208997
H88	H	0.403392	-0.414310	-0.204989
N89	N	1.109044	-0.935361	-0.361382
H90	H	1.121472	-0.961011	-0.408071
H91	H	1.108552	-0.855181	-0.360760
H92	H	0.894652	-0.945843	-0.409505
H93	H	0.592254	-0.389094	-0.247761
N94	N	0.847338	-1.089039	-0.290986
H95	H	0.813180	-1.063339	-0.325133
H96	H	0.848053	-1.169220	-0.290686
N97	N	1.068280	-0.371067	-0.930942
H98	H	1.095716	-0.327935	-0.964067
H99	H	1.040734	-0.321818	-0.901612
N100	N	1.013216	-1.088662	-0.457127
H101	H	0.978995	-1.062959	-0.491209
H102	H	1.059512	-1.061713	-0.469952
N103	N	1.068305	-0.371005	-1.077869
H104	H	1.061742	-0.381308	-1.128011
H105	H	1.057789	-0.294991	-1.065515
H106	H	0.899649	-0.636130	-0.584473
H107	H	0.592298	-0.636423	-0.404556
