data_functionalizedCrystal
_audit_creation_method	'MofGen! by Chris Wilmer'
_symmetry_space_group_name_H-M	'P1'
_symmetry_Int_Tables_number	1
_symmetry_cell_setting	triclinic
loop_
_symmetry_equiv_pos_as_xyz
  x,y,z
_cell_length_a	14.971482
_cell_length_b	15.995292
_cell_length_c	14.048226
_cell_angle_alpha	89.996759
_cell_angle_beta	89.994098
_cell_angle_gamma	83.540612
loop_
_atom_site_label
_atom_site_type_symbol
_atom_site_fract_x
_atom_site_fract_y
_atom_site_fract_z
O1	O	1.186800	0.109104	-0.079141
O2	O	0.926382	0.122175	-0.079145
O3	O	1.063737	-0.006244	-0.079145
O4	O	1.049445	0.237524	-0.079142
O5	O	1.063720	-0.006252	0.079177
O6	O	0.926365	0.122167	0.079176
O7	O	1.186784	0.109097	0.079180
Zn8	Zn	1.056572	0.115631	0.104315
Zn9	Zn	1.056594	0.115641	-0.104280
O10	O	1.049429	0.237516	0.079179
C11	C	0.893049	0.121587	0.000015
C12	C	0.793755	0.119837	0.000013
C13	C	0.747102	0.119009	0.086315
C14	C	0.653806	0.117351	0.086316
C15	C	0.607163	0.116528	0.000014
C16	C	0.653822	0.117354	-0.086294
C17	C	0.747118	0.119005	-0.086294
C18	C	0.459365	0.113913	-0.086288
C19	C	0.366063	0.112263	-0.086289
C20	C	0.366053	0.112259	0.086322
C21	C	0.459349	0.113911	0.086322
C22	C	0.506001	0.114738	0.000013
C23	C	1.063147	-0.037444	0.000014
C24	C	1.061403	-0.130399	0.000006
C25	C	1.054992	-0.468144	0.000015
C26	C	1.154131	-0.444733	0.000370
C27	C	1.156016	-0.348056	0.000010
C28	C	1.058173	-0.300585	0.000011
C29	C	1.008618	-0.329730	-0.090396
C30	C	1.007424	-0.426522	-0.090468
C31	C	1.005381	-0.426390	0.089573
C32	C	1.009055	-0.329894	0.090764
C33	C	1.059966	-0.205887	0.000006
C34	C	1.053197	-0.562841	0.000014
C35	C	1.220116	0.109685	0.000018
C36	C	1.319411	0.111435	0.000013
C37	C	1.050018	0.268716	0.000019
C38	C	1.051762	0.361671	0.000020
N39	N	1.056563	0.115624	0.246676
N40	N	1.056609	0.115642	-0.246641
C41	C	1.117403	0.058783	0.296494
C42	C	1.117409	0.058783	0.396152
C43	C	1.056579	0.115627	0.445989
C44	C	0.995733	0.172470	0.396164
C45	C	0.995723	0.172466	0.296508
C46	C	0.995759	0.172477	0.603878
C47	C	0.995769	0.172482	0.703541
C48	C	1.117445	0.058793	0.703522
C49	C	1.117435	0.058789	0.603866
C50	C	1.056590	0.115633	0.554047
H51	H	0.785071	0.119686	0.156592
H52	H	1.036595	-0.454451	0.158101
H53	H	0.936619	-0.297934	-0.093756
H54	H	0.946209	0.218763	0.563319
H55	H	0.497347	0.114587	-0.156570
H56	H	0.497322	0.114586	0.156597
H57	H	1.194827	-0.328995	0.064816
H58	H	1.192337	-0.472696	0.065205
H59	H	0.615828	0.116663	0.156592
H60	H	1.043044	-0.309633	-0.157677
H61	H	1.041758	-0.453301	-0.158050
H62	H	0.328064	0.111585	0.156598
H63	H	0.946199	0.218752	0.436747
H64	H	0.328089	0.111593	-0.156563
H65	H	0.946234	0.218770	0.744114
H66	H	0.934735	-0.441144	-0.094563
H67	H	0.946180	0.218750	0.255947
H68	H	0.785101	0.119681	-0.156570
H69	H	0.615839	0.116677	-0.156563
H70	H	1.192139	-0.473710	-0.064100
H71	H	1.195069	-0.329610	-0.064909
H72	H	1.166972	0.012506	0.563288
H73	H	1.166949	0.012498	0.436713
H74	H	1.045139	-0.311296	0.157647
H75	H	0.937639	-0.296995	0.096225
H76	H	1.166987	0.012508	0.744090
H77	H	0.932407	-0.440452	0.090183
H78	H	1.166942	0.012497	0.255923
