data_functionalizedCrystal
_audit_creation_method	'MofGen! by Chris Wilmer'
_symmetry_space_group_name_H-M	'P1'
_symmetry_Int_Tables_number	1
_symmetry_cell_setting	triclinic
loop_
_symmetry_equiv_pos_as_xyz
  x,y,z
_cell_length_a	8.597340
_cell_length_b	10.540535
_cell_length_c	7.088929
_cell_angle_alpha	83.712260
_cell_angle_beta	103.954719
_cell_angle_gamma	84.929824
loop_
_atom_site_label
_atom_site_type_symbol
_atom_site_fract_x
_atom_site_fract_y
_atom_site_fract_z
O1	O	2.103350	0.174328	0.187491
O2	O	1.638903	0.195050	0.110978
O3	O	1.881728	-0.000108	0.151001
O4	O	1.860524	0.369486	0.147469
O5	O	1.914179	-0.026247	0.474324
O6	O	1.671353	0.168910	0.434302
O7	O	2.135800	0.148189	0.510815
Cu8	Cu	1.906540	0.156163	0.502080
Cu9	Cu	1.868163	0.187076	0.119713
O10	O	1.892975	0.343346	0.470792
C11	C	1.595656	0.181211	0.262843
C12	C	1.418448	0.178904	0.233650
C13	C	1.896365	-0.060467	0.312402
C14	C	1.891613	-0.201376	0.311621
C15	C	1.714321	-0.236570	0.282400
C16	C	1.709244	-0.383067	0.280808
C17	C	1.954045	-0.396473	0.140635
C18	C	1.957805	-0.249730	0.141137
C19	C	1.997287	-0.279616	0.509254
C20	C	1.989328	-0.426087	0.510291
C21	C	2.179046	0.162028	0.358946
C22	C	2.356253	0.164336	0.388126
C23	C	1.878337	0.403706	0.309387
C24	C	1.883088	0.544616	0.310155
N25	N	1.933543	0.134419	0.771019
N26	N	1.841172	0.208809	-0.149224
H27	H	1.336118	0.189612	0.079046
F28	F	1.943305	-0.238295	0.679962
H29	H	1.652526	-0.422504	0.401325
H30	H	1.438576	0.153619	0.542720
H31	H	2.029293	0.057333	0.868457
H32	H	1.745440	0.285899	0.753351
H33	H	1.883520	-0.197869	-0.007078
H34	H	2.117332	-0.477123	0.542866
H35	H	1.659500	-0.204723	0.403306
H36	H	1.634138	-0.181881	0.139433
H37	H	2.086986	-0.227146	0.154701
F38	F	1.600832	-0.405454	0.092143
F39	F	2.120449	-0.459089	0.159898
F40	F	1.922130	-0.477180	0.674453
H41	H	2.127905	-0.258652	0.532539
F42	F	1.855775	-0.421637	-0.052514
