data_functionalizedCrystal
_audit_creation_method	'MofGen! by Chris Wilmer'
_symmetry_space_group_name_H-M	'P1'
_symmetry_Int_Tables_number	1
_symmetry_cell_setting	triclinic
loop_
_symmetry_equiv_pos_as_xyz
  x,y,z
_cell_length_a	16.959454
_cell_length_b	19.077236
_cell_length_c	19.076919
_cell_angle_alpha	89.887323
_cell_angle_beta	92.275489
_cell_angle_gamma	92.313014
loop_
_atom_site_label
_atom_site_type_symbol
_atom_site_fract_x
_atom_site_fract_y
_atom_site_fract_z
Zn1	Zn	-0.286928	1.058310	-0.440559
Zn2	Zn	-0.413600	1.062959	-0.323060
Zn3	Zn	-0.286514	0.945526	-0.318339
Zn4	Zn	-0.424146	0.940779	-0.435799
O5	O	-0.352797	1.001893	-0.379439
O6	O	-0.299492	1.157260	-0.428941
O7	O	-0.392155	1.051313	-0.224103
O8	O	-0.175957	0.960528	-0.334568
O9	O	-0.392557	1.160675	-0.342615
O10	O	-0.176261	1.043390	-0.424363
O11	O	-0.298785	0.965036	-0.220634
O12	O	-0.309011	0.846563	-0.329953
O13	O	-0.410530	0.952437	-0.534762
O14	O	-0.410128	0.843075	-0.416250
O15	O	-0.309717	1.038787	-0.538259
O16	O	-0.525611	1.046710	-0.337999
O17	O	-0.533359	0.956945	-0.420828
C18	C	-0.360669	0.819322	-0.372073
C19	C	-0.364057	0.741216	-0.368938
C20	C	-0.317278	0.702742	-0.412479
C21	C	-0.320457	0.629354	-0.409528
C22	C	-0.370420	0.594441	-0.363038
C23	C	-0.417201	0.632921	-0.319492
C24	C	-0.414017	0.706308	-0.322441
C25	C	-0.385124	0.375149	-0.349389
C26	C	-0.388306	0.301757	-0.346446
C27	C	-0.291561	0.298195	-0.436481
C28	C	-0.288385	0.371583	-0.439428
C29	C	-0.335163	0.410056	-0.395880
N30	N	-0.373672	0.519427	-0.360021
N31	N	-0.331906	0.485070	-0.398893
C32	C	-0.558165	1.001835	-0.379425
C33	C	-0.646021	1.001873	-0.379445
C34	C	-1.021556	0.955218	-0.422566
C35	C	-1.013429	1.048761	-0.336392
C36	C	-0.930884	1.048737	-0.336385
C37	C	-0.893671	1.001952	-0.379468
C38	C	-0.939004	0.955191	-0.422558
C39	C	-0.885546	1.095492	-0.293290
C40	C	-0.802995	1.095470	-0.293280
C41	C	-0.765781	1.048687	-0.336367
C42	C	-0.811119	1.001925	-0.379460
C43	C	-0.773906	0.955139	-0.422543
C44	C	-0.819242	0.908380	-0.465641
C45	C	-0.901790	0.908408	-0.465646
C46	C	-0.683234	1.048659	-0.336362
C47	C	-0.691353	0.955112	-0.422536
C48	C	-0.146627	1.001970	-0.379470
C49	C	-0.058769	1.002003	-0.379483
C50	C	-0.344894	1.185177	-0.386835
C51	C	-0.341527	1.263282	-0.389987
C52	C	-0.361346	0.994564	-0.562719
C53	C	-0.364989	0.991441	-0.640822
C54	C	-0.314215	1.034929	-0.679337
C55	C	-0.317636	1.031986	-0.752723
C56	C	-0.371834	0.985558	-0.787592
C57	C	-0.422611	0.942065	-0.749072
C58	C	-0.419186	0.945005	-0.675688
C59	C	-0.387702	0.971941	-1.006873
C60	C	-0.391125	0.969005	-1.080262
C61	C	-0.286148	1.058926	-1.083908
C62	C	-0.282732	1.061865	-1.010522
C63	C	-0.333505	1.018369	-0.972008
N64	N	-0.375334	0.982550	-0.862604
N65	N	-0.330001	1.021374	-0.896997
C66	C	-0.344222	1.009234	-0.196874
C67	C	-0.340351	1.012494	-0.118777
H68	H	-0.452109	0.737633	-0.286984
H69	H	-0.282366	0.598031	-0.444985
O70	O	-0.430450	0.412552	-0.307022
C71	C	-0.432909	0.499214	-0.215493
C72	C	-0.381479	0.456883	-0.263421
H73	H	-0.393338	0.535077	-0.180240
H74	H	-0.469152	0.461690	-0.181713
H75	H	-0.474323	0.532251	-0.249088
H76	H	-0.340021	0.423843	-0.229880
H77	H	-0.345290	0.494446	-0.297205
O78	O	-0.655082	0.909731	-0.464368
C79	C	-0.531514	0.868197	-0.502515
C80	C	-0.572489	0.919639	-0.455119
H81	H	-0.464731	0.876180	-0.495042
H82	H	-0.549770	0.878233	-0.559699
H83	H	-0.549715	0.812054	-0.487855
H84	H	-0.554309	0.975801	-0.469716
H85	H	-0.554232	0.909542	-0.397947
O86	O	-1.065708	0.909822	-0.464363
C87	C	-1.196476	0.868434	-0.502607
C88	C	-1.146569	0.919871	-0.455227
H89	H	-1.261861	0.876551	-0.495248
H90	H	-1.182225	0.812257	-0.487932
H91	H	-1.182280	0.878450	-0.559763
H92	H	-1.160737	0.909920	-0.398057
H93	H	-1.160827	0.976031	-0.469962
H94	H	-0.788934	0.870284	-0.500716
O95	O	-0.639113	1.094104	-0.294600
C96	C	-0.541342	1.189361	-0.289039
C97	C	-0.591246	1.137919	-0.336416
H98	H	-0.502642	1.224808	-0.322828
H99	H	-0.502353	1.158622	-0.250982
H100	H	-0.582136	1.222767	-0.258228
H101	H	-0.550512	1.104500	-0.367272
H102	H	-0.630244	1.168700	-0.374428
O103	O	-0.465825	0.598973	-0.274431
C104	C	-0.575643	0.516449	-0.261486
C105	C	-0.520640	0.554859	-0.312595
H106	H	-0.619964	0.480764	-0.292321
H107	H	-0.608591	0.556523	-0.230882
H108	H	-0.539050	0.483589	-0.223407
H109	H	-0.557174	0.587719	-0.350717
H110	H	-0.487690	0.514749	-0.343149
O111	O	-0.759045	1.140863	-0.251323
C112	C	-0.726704	1.179822	-0.133202
C113	C	-0.776538	1.128381	-0.180634
H114	H	-0.740817	1.169738	-0.076039
H115	H	-0.741033	1.235995	-0.147820
H116	H	-0.661317	1.171782	-0.140634
H117	H	-0.841940	1.136358	-0.173227
H118	H	-0.762142	1.072227	-0.166005
O119	O	-0.268228	1.074127	-0.790158
C120	C	-0.164981	1.080295	-0.873423
C121	C	-0.220887	1.032490	-0.831060
H122	H	-0.126703	1.046652	-0.906514
H123	H	-0.125605	1.113967	-0.835920
H124	H	-0.201294	1.115666	-0.909234
H125	H	-0.184638	0.997077	-0.795245
H126	H	-0.260266	0.998866	-0.868602
O127	O	-0.475179	0.896864	-0.782906
C128	C	-0.519782	0.776425	-0.800488
C129	C	-0.460185	0.827534	-0.762140
H130	H	-0.507691	0.720361	-0.783702
H131	H	-0.513513	0.781732	-0.859560
H132	H	-0.582306	0.789355	-0.786555
H133	H	-0.397636	0.814636	-0.776016
H134	H	-0.466524	0.822217	-0.703077
H135	H	-0.915850	1.133578	-0.258208
O136	O	-0.261496	1.080049	-0.645577
C137	C	-0.157764	1.168953	-0.656948
C138	C	-0.217422	1.117877	-0.695266
H139	H	-0.122126	1.199561	-0.697105
H140	H	-0.116167	1.138116	-0.621315
H141	H	-0.190878	1.207030	-0.624051
H142	H	-0.184373	1.079788	-0.728201
H143	H	-0.259017	1.148759	-0.730857
O144	O	-0.230010	1.106982	-0.976761
C145	C	-0.126280	1.195889	-0.988125
C146	C	-0.185935	1.144813	-1.026447
H147	H	-0.090641	1.226500	-1.028279
H148	H	-0.084684	1.165053	-0.952491
H149	H	-0.159398	1.233965	-0.955228
H150	H	-0.152883	1.106726	-1.059382
H151	H	-0.227530	1.175695	-1.062039
H152	H	-0.244811	1.094337	-1.115274
O153	O	-0.443798	0.923839	-1.114025
C154	C	-0.547589	0.834987	-1.102670
C155	C	-0.487964	0.886088	-1.064345
H156	H	-0.583325	0.804462	-1.062522
H157	H	-0.514523	0.796840	-1.135530
H158	H	-0.589100	0.865870	-1.138341
H159	H	-0.446438	0.855263	-1.028639
H160	H	-0.521081	0.924235	-1.031529
H161	H	-0.253476	0.266862	-0.471935
H162	H	-0.428996	0.273333	-0.308588
O163	O	-0.437058	0.929790	-0.969400
C164	C	-0.540366	0.923593	-0.886195
C165	C	-0.484497	0.971414	-0.928578
H166	H	-0.578746	0.957227	-0.853191
H167	H	-0.504101	0.888246	-0.850316
H168	H	-0.579650	0.889896	-0.923746
H169	H	-0.445201	1.005155	-0.891079
H170	H	-0.520809	1.006714	-0.964466
H171	H	-0.247703	0.400004	-0.477288
H172	H	-0.938710	0.870339	-0.500732
H173	H	-0.276595	0.731162	-0.450338
H174	H	-1.043733	1.086848	-0.301311
H175	H	-0.460524	0.909585	-0.644329
