data_functionalizedCrystal
_audit_creation_method	'MofGen! by Chris Wilmer'
_symmetry_space_group_name_H-M	'P1'
_symmetry_Int_Tables_number	1
_symmetry_cell_setting	triclinic
loop_
_symmetry_equiv_pos_as_xyz
  x,y,z
_cell_length_a	12.594516
_cell_length_b	14.908571
_cell_length_c	14.908308
_cell_angle_alpha	90.175053
_cell_angle_beta	86.728502
_cell_angle_gamma	93.287503
loop_
_atom_site_label
_atom_site_type_symbol
_atom_site_fract_x
_atom_site_fract_y
_atom_site_fract_z
Zn1	Zn	-0.555460	-1.345329	0.587618
Zn2	Zn	-0.055460	-0.845329	1.087618
Zn3	Zn	-0.723816	-1.353920	0.437269
Zn4	Zn	-0.223816	-0.853920	0.937269
Zn5	Zn	-0.535016	-1.203643	0.428614
Zn6	Zn	-0.035016	-0.703643	0.928614
Zn7	Zn	-0.722551	-1.194948	0.578920
Zn8	Zn	-0.222551	-0.694948	1.078920
O9	O	-0.634211	-1.274460	0.508105
O10	O	-0.134211	-0.774460	1.008105
O11	O	-0.586878	-1.472295	0.574935
O12	O	-0.086878	-0.972295	1.074935
O13	O	-0.690745	-1.341220	0.310295
O14	O	-0.190745	-0.841220	0.810295
O15	O	-0.388787	-1.222482	0.449724
O16	O	0.111213	-0.722482	0.949724
O17	O	-0.710568	-1.478607	0.464475
O18	O	-0.210568	-0.978607	0.964475
O19	O	-0.403807	-1.326578	0.566543
O20	O	0.096193	-0.826578	1.066543
O21	O	-0.552034	-1.230812	0.303937
O22	O	-0.052034	-0.730812	0.803937
O23	O	-0.550808	-1.076663	0.441291
O24	O	-0.050808	-0.576663	0.941291
O25	O	-0.708413	-1.207662	0.705899
O26	O	-0.208413	-0.707662	1.205899
O27	O	-0.688589	-1.070275	0.551720
O28	O	-0.188589	-0.570275	1.051720
O29	O	-0.585652	-1.318147	0.712289
O30	O	-0.085652	-0.818147	1.212289
O31	O	-0.872590	-1.332788	0.456041
O32	O	-0.372590	-0.832788	0.956041
O33	O	-0.871661	-1.215992	0.560112
O34	O	-0.371661	-0.715992	1.060112
C35	C	-0.617344	-1.040844	0.494623
C36	C	-0.117344	-0.540844	0.994623
C37	C	-0.610155	-0.940900	0.488877
C38	C	-0.110155	-0.440900	0.988877
C39	C	-0.910747	-1.274402	0.508093
C40	C	-0.410747	-0.774402	1.008093
C41	C	-1.029058	-1.274457	0.508123
C42	C	-0.529058	-0.774457	1.008123
C43	C	-0.649172	-1.260976	0.742631
C44	C	-0.149172	-0.760976	1.242631
C45	C	-0.655547	-1.255230	0.842572
C46	C	-0.155547	-0.755230	1.342572
C47	C	-1.097842	-1.210928	0.564684
C48	C	-0.597842	-0.710928	1.064684
C49	C	-1.161862	-1.193759	0.481377
C50	C	-0.661862	-0.693759	0.981377
C51	C	-1.175844	-1.291708	0.591449
C52	C	-0.675844	-0.791708	1.091449
C53	C	-1.091515	-1.257247	0.424769
C54	C	-0.591515	-0.757247	0.924769
C55	C	-1.105496	-1.355231	0.534899
C56	C	-0.605496	-0.855231	1.034899
C57	C	-1.169483	-1.338096	0.451537
C58	C	-0.669483	-0.838096	0.951537
C59	C	-0.356598	-1.274542	0.508138
C60	C	0.143402	-0.774542	1.008138
C61	C	-0.238296	-1.274577	0.508153
C62	C	0.261704	-0.774577	1.008153
C63	C	-0.651145	-1.508989	0.521641
C64	C	-0.151145	-1.008989	1.021641
C65	C	-0.658361	-1.608931	0.527409
C66	C	-0.158361	-1.108931	1.027409
C67	C	-0.740319	-0.746501	0.592914
C68	C	-0.240319	-0.246501	1.092914
C69	C	-0.733568	-0.652595	0.587518
C70	C	-0.233568	-0.152595	1.087518
C71	C	-0.589898	-0.659180	0.472693
C72	C	-0.089898	-0.159180	0.972693
C73	C	-0.596649	-0.753086	0.478089
C74	C	-0.096649	-0.253086	0.978089
C75	C	-0.671863	-0.796743	0.538201
C76	C	-0.171863	-0.296743	1.038201
C77	C	-0.678619	-0.890651	0.543592
C78	C	-0.178619	-0.390651	1.043592
C79	C	-0.534943	-0.897235	0.428772
C80	C	-0.034943	-0.397235	0.928772
C81	C	-0.528192	-0.803329	0.423376
C82	C	-0.028192	-0.303329	0.923376
C83	C	-0.619235	-1.287944	0.274494
C84	C	-0.119235	-0.787944	0.774494
C85	C	-0.612572	-1.293864	0.174564
C86	C	-0.112572	-0.793864	0.674564
C87	C	-0.539672	-1.359477	1.037028
C88	C	-0.039672	-0.859477	1.537028
C89	C	-0.545658	-1.354081	1.130932
C90	C	-0.045658	-0.854081	1.630932
C91	C	-0.673502	-1.239037	1.124285
C92	C	-0.173502	-0.739037	1.624285
C93	C	-0.667515	-1.244433	1.030381
C94	C	-0.167515	-0.744433	1.530381
C95	C	-0.600599	-1.304656	0.986756
C96	C	-0.100599	-0.804656	1.486756
C97	C	-0.594618	-1.310057	0.892851
C98	C	-0.094618	-0.810057	1.392851
C99	C	-0.722455	-1.195009	0.886206
C100	C	-0.222455	-0.695009	1.386206
C101	C	-0.728442	-1.189612	0.980110
C102	C	-0.228442	-0.689612	1.480110
H103	H	-1.066391	-1.157117	0.612437
H104	H	-0.566391	-0.657117	1.112437
H105	H	-0.540133	-1.359094	0.857333
H106	H	-0.040133	-0.859094	1.357333
H107	H	-0.496042	-1.398720	1.171859
H108	H	0.003958	-0.898720	1.671859
H109	H	-0.479203	-0.938152	0.384219
H110	H	0.020797	-0.438152	0.884219
F111	F	-0.744705	-1.174943	1.170729
F112	F	-0.244705	-0.674943	1.670729
H113	H	-1.212658	-1.306251	0.661905
H114	H	-0.712658	-0.806251	1.161905
H115	H	-0.782921	-1.140579	1.015642
H116	H	-0.282921	-0.640579	1.515642
F117	F	-1.043559	-1.238137	0.332646
F118	F	-0.543559	-0.738137	0.832646
H119	H	-0.485191	-1.408518	1.001508
H120	H	0.014809	-0.908518	1.501508
H121	H	-0.789311	-0.611690	0.632073
H122	H	-0.289311	-0.111690	1.132073
F123	F	-0.448144	-0.756856	0.359409
F124	F	0.051856	-0.256856	0.859409
H125	H	-1.186887	-1.125505	0.458752
H126	H	-0.686887	-0.625505	0.958752
H127	H	-0.528655	-0.623618	0.423759
H128	H	-0.028655	-0.123618	0.923759
F129	F	-0.787312	-1.136668	0.832697
F130	F	-0.287312	-0.636668	1.332697
F131	F	-1.210322	-1.408391	0.388960
F132	F	-0.710322	-0.908391	0.888960
H133	H	-0.739864	-0.926195	0.592536
H134	H	-0.239864	-0.426195	1.092536
F135	F	-0.820376	-0.792966	0.656879
F136	F	-0.320376	-0.292966	1.156879
F137	F	-1.072790	-1.444420	0.564521
F138	F	-0.572790	-0.944420	1.064521
