data_functionalizedCrystal
_audit_creation_method	'MofGen! by Chris Wilmer'
_symmetry_space_group_name_H-M	'P1'
_symmetry_Int_Tables_number	1
_symmetry_cell_setting	triclinic
loop_
_symmetry_equiv_pos_as_xyz
  x,y,z
_cell_length_a	25.639233
_cell_length_b	11.169417
_cell_length_c	25.639239
_cell_angle_alpha	89.963092
_cell_angle_beta	89.981253
_cell_angle_gamma	90.011875
loop_
_atom_site_label
_atom_site_type_symbol
_atom_site_fract_x
_atom_site_fract_y
_atom_site_fract_z
Zn1	Zn	-0.295599	-1.834610	-0.208239
Zn2	Zn	-0.208163	-1.834434	-0.295658
Zn3	Zn	-0.208178	-1.633930	-0.208236
Zn4	Zn	-0.295569	-1.633804	-0.295643
O5	O	-0.251877	-1.734195	-0.251944
O6	O	-0.284006	-2.002536	-0.219843
O7	O	-0.135000	-1.807816	-0.284066
O8	O	-0.219794	-1.660677	-0.135071
O9	O	-0.219768	-2.002407	-0.284070
O10	O	-0.284021	-1.808116	-0.135074
O11	O	-0.135011	-1.660507	-0.219837
O12	O	-0.219765	-1.465964	-0.219823
O13	O	-0.368738	-1.660462	-0.284044
O14	O	-0.283970	-1.465871	-0.284040
O15	O	-0.368760	-1.807993	-0.219829
O16	O	-0.219739	-1.807694	-0.368821
O17	O	-0.283955	-1.660292	-0.368810
C18	C	-0.251866	-1.422370	-0.251930
C19	C	-0.251874	-1.288970	-0.251936
C20	C	-0.388250	-1.734233	-0.251935
C21	C	-0.446364	-1.734250	-0.251931
C22	C	-0.806745	-1.811167	-0.218395
C23	C	-0.861349	-1.811182	-0.218380
O24	O	-0.889600	-1.876482	-0.189928
N25	N	-0.888647	-1.734382	-0.251808
C26	C	-0.861338	-1.657554	-0.285249
O27	O	-0.889571	-1.592231	-0.313681
C28	C	-0.806735	-1.657534	-0.285261
C29	C	-0.779439	-1.734347	-0.251834
C30	C	-0.779449	-1.887973	-0.184971
C31	C	-0.724849	-1.887959	-0.184986
C32	C	-0.697544	-1.811140	-0.218425
C33	C	-0.724839	-1.734334	-0.251849
C34	C	-0.779426	-1.580701	-0.318698
C35	C	-0.724819	-1.580687	-0.318707
C36	C	-0.697524	-1.657500	-0.285280
C37	C	-0.642933	-1.657501	-0.285304
N38	N	-0.615635	-1.734300	-0.251876
C39	C	-0.642940	-1.811120	-0.218437
C40	C	-0.976009	-1.657601	-0.285222
C41	C	-1.030611	-1.657626	-0.285214
C42	C	-1.030618	-1.811252	-0.218344
C43	C	-0.976015	-1.811232	-0.218355
C44	C	-0.948711	-1.734400	-0.251794
C45	C	-0.528275	-1.811086	-0.218472
C46	C	-0.473670	-1.811069	-0.218491
C47	C	-0.473667	-1.657439	-0.285359
C48	C	-0.528268	-1.657460	-0.285341
C49	C	-0.555570	-1.734288	-0.251893
O50	O	-0.614647	-1.592230	-0.313740
O51	O	-0.614700	-1.876421	-0.190005
C52	C	-0.116035	-1.734225	-0.251915
C53	C	-0.057921	-1.734441	-0.251772
C54	C	-0.251853	-1.733993	-0.387787
C55	C	-0.251861	-1.734016	-0.445901
C56	C	-0.251885	-1.047237	-0.251954
C57	C	-0.251880	-1.180637	-0.251945
C58	C	-0.218497	-1.811147	-0.806257
C59	C	-0.218504	-1.811194	-0.860861
O60	O	-0.190110	-1.876564	-0.889092
N61	N	-0.251912	-1.734406	-0.888183
C62	C	-0.285319	-1.657575	-0.860898
O63	O	-0.313736	-1.592265	-0.889151
C64	C	-0.285314	-1.657535	-0.806294
C65	C	-0.251900	-1.734320	-0.778975
C66	C	-0.185086	-1.887926	-0.778938
C67	C	-0.185078	-1.887878	-0.724337
C68	C	-0.218482	-1.811050	-0.697056
C69	C	-0.251893	-1.734271	-0.724375
C70	C	-0.318724	-1.580711	-0.779010
C71	C	-0.318716	-1.580679	-0.724403
C72	C	-0.285302	-1.657463	-0.697084
C73	C	-0.285288	-1.657395	-0.642493
N74	N	-0.251880	-1.734183	-0.615171
C75	C	-0.218477	-1.811011	-0.642452
C76	C	-0.285327	-1.657665	-0.975568
C77	C	-0.285330	-1.657698	-1.030171
C78	C	-0.218515	-1.811319	-1.030130
C79	C	-0.218510	-1.811279	-0.975527
C80	C	-0.251919	-1.734453	-0.948246
C81	C	-0.218463	-1.810903	-0.527787
C82	C	-0.218457	-1.810844	-0.473182
C83	C	-0.285274	-1.657228	-0.473227
C84	C	-0.285278	-1.657282	-0.527828
C85	C	-0.251871	-1.734129	-0.555106
O86	O	-0.313669	-1.592062	-0.614227
O87	O	-0.190069	-1.876320	-0.614192
C88	C	-0.251913	-1.734430	-0.115571
C89	C	-0.251928	-1.734530	-0.057457
H90	H	-0.451448	-1.873624	-0.191271
C91	C	-0.181754	-1.895751	-0.945481
N92	N	-0.154068	-1.959381	-0.922853
H93	H	-0.345931	-1.518179	-0.801244
C94	C	-0.148333	-1.972444	-0.808939
N95	N	-0.120645	-2.036100	-0.831532
C96	C	-0.355470	-1.496162	-0.694398
N97	N	-0.383152	-1.432502	-0.671799
H98	H	-0.550498	-1.873642	-0.191234
C99	C	-0.322084	-1.573150	-0.945565
N100	N	-0.349772	-1.509499	-0.922968
C101	C	-0.694831	-1.972443	-0.148206
N102	N	-0.672225	-2.036075	-0.120499
C103	C	-0.809477	-1.972492	-0.148183
N104	N	-0.832090	-2.036165	-0.120476
C105	C	-0.945995	-1.895722	-0.181580
N106	N	-0.923387	-1.959361	-0.153878
H107	H	-0.191261	-1.873482	-0.549991
C108	C	-1.060665	-1.895747	-0.181556
N109	N	-1.083297	-1.959384	-0.153849
H110	H	-1.052830	-1.595090	-0.312438
H111	H	-0.550493	-1.594924	-0.312565
C112	C	-0.443621	-1.572936	-0.322138
N113	N	-0.420988	-1.509279	-0.349836
C114	C	-0.945979	-1.573085	-0.322014
N115	N	-0.923363	-1.509428	-0.349726
C116	C	-0.181774	-1.895841	-1.060150
N117	N	-0.154103	-1.959500	-1.082763
H118	H	-0.312534	-1.595161	-1.052409
H119	H	-0.191245	-1.873371	-0.450941
C120	C	-0.148315	-1.972338	-0.694294
N121	N	-0.120622	-2.035955	-0.671668
C122	C	-0.322033	-1.572811	-0.557879
N123	N	-0.349722	-1.509195	-0.580511
H124	H	-0.801641	-1.518152	-0.345918
H125	H	-0.702591	-1.518107	-0.345932
H126	H	-0.312469	-1.594672	-0.451006
