data_functionalizedCrystal
_audit_creation_method	'MofGen! by Chris Wilmer'
_symmetry_space_group_name_H-M	'P1'
_symmetry_Int_Tables_number	1
_symmetry_cell_setting	triclinic
loop_
_symmetry_equiv_pos_as_xyz
  x,y,z
_cell_length_a	16.974800
_cell_length_b	15.995350
_cell_length_c	15.455313
_cell_angle_alpha	92.667328
_cell_angle_beta	90.973911
_cell_angle_gamma	83.440933
loop_
_atom_site_label
_atom_site_type_symbol
_atom_site_fract_x
_atom_site_fract_y
_atom_site_fract_z
O1	O	1.049074	0.106736	0.001543
O2	O	0.819642	0.119523	-0.014570
O3	O	0.940630	-0.008743	-0.006072
O4	O	0.928086	0.235002	-0.006955
O5	O	0.933711	-0.001439	0.137704
O6	O	0.812723	0.126828	0.129206
O7	O	1.042156	0.114041	0.145319
Cu8	Cu	0.926808	0.121101	0.150391
Cu9	Cu	0.934990	0.112463	-0.019641
O10	O	0.921168	0.242307	0.136822
C11	C	0.786823	0.122555	0.055256
C12	C	0.699341	0.120697	0.049113
C13	C	0.654476	0.123804	0.124601
C14	C	0.572279	0.122045	0.118830
C15	C	0.534949	0.117185	0.037571
C16	C	0.579821	0.114076	-0.037923
C17	C	0.662017	0.115829	-0.032151
C18	C	0.289524	0.111510	0.011907
C19	C	0.207322	0.109759	0.006141
C20	C	0.199786	0.117727	0.162895
C21	C	0.281983	0.119485	0.168659
C22	C	0.326849	0.116371	0.093165
N23	N	0.450930	0.115390	0.031671
N24	N	0.410866	0.118160	0.099066
C25	C	0.936652	-0.036287	0.065778
C26	C	0.935097	-0.129241	0.065664
C27	C	0.929514	-0.467002	0.065275
C28	C	0.843364	-0.419787	0.058901
C29	C	0.844904	-0.323077	0.059334
C30	C	0.932284	-0.299435	0.065467
C31	C	0.970833	-0.336241	0.150554
C32	C	0.968665	-0.432878	0.150470
C33	C	0.978313	-0.441539	-0.012905
C34	C	0.978344	-0.344649	-0.013992
C35	C	0.933853	-0.204734	0.065579
C36	C	0.927947	-0.561703	0.065169
C37	C	1.074974	0.111008	0.075491
C38	C	1.162456	0.112866	0.081629
C39	C	0.925146	0.269851	0.064970
C40	C	0.926700	0.362805	0.065078
N41	N	0.921059	0.127176	0.269982
N42	N	0.940745	0.106381	-0.139233
C43	C	0.972476	0.072705	0.318988
C44	C	0.968136	0.077307	0.409491
C45	C	0.912381	0.136386	0.450987
C46	C	0.860957	0.190860	0.401975
C47	C	0.865295	0.186253	0.311473
C48	C	0.893659	0.156248	0.721254
C49	C	0.889327	0.160853	0.811762
C50	C	0.996505	0.047298	0.819272
C51	C	1.000841	0.042700	0.728768
C52	C	0.949415	0.097171	0.679764
N53	N	0.907944	0.141093	0.543496
N54	N	0.953848	0.092459	0.587257
H55	H	0.549421	0.110113	-0.104086
H56	H	0.312372	0.123438	0.234829
C57	C	0.150429	0.121144	0.245932
N58	N	0.113253	0.123713	0.308479
H59	H	0.851787	0.200602	0.681361
H60	H	0.815556	0.238960	0.435766
C61	C	0.800658	-0.448982	-0.023901
N62	N	0.768490	-0.470979	-0.086268
H63	H	0.938374	-0.304825	0.209580
C64	C	0.827987	0.225844	0.857405
N65	N	0.781789	0.274794	0.891784
C66	C	1.033812	0.007712	0.273351
N67	N	1.080008	-0.041244	0.238979
C68	C	0.808737	0.246183	0.257568
N69	N	0.766137	0.291325	0.216967
C70	C	0.695531	0.129150	0.213993
N71	N	0.726452	0.133172	0.281326
H72	H	0.953135	-0.465307	-0.077112
C73	C	0.793245	-0.442321	0.134763
N74	N	0.755501	-0.459286	0.191911
H75	H	0.808434	-0.292296	0.115926
H76	H	0.934720	-0.448135	0.209669
H77	H	0.698545	0.113300	-0.093622
C78	C	1.053883	-0.475989	0.161515
N79	N	1.118068	-0.508455	0.169839
C80	C	1.062172	-0.022296	0.683129
N81	N	1.108368	-0.071251	0.648754
H82	H	0.535754	0.124561	0.180301
C83	C	1.064755	-0.324040	-0.014644
N84	N	1.129843	-0.308521	-0.015127
C85	C	0.166261	0.104412	-0.083254
N86	N	0.135333	0.100386	-0.150583
C87	C	0.803591	-0.288823	-0.023341
N88	N	0.772468	-0.263026	-0.085612
H89	H	0.326044	0.108971	-0.049565
H90	H	0.950194	-0.320559	-0.076910
H91	H	1.041869	-0.473178	-0.008998
C92	C	1.057354	-0.316727	0.160780
N93	N	1.122521	-0.302022	0.168484
C94	C	1.024681	0.017363	0.463392
N95	N	1.067266	-0.027798	0.503989
H96	H	1.038373	0.002949	0.859179
