data_functionalizedCrystal
_audit_creation_method	'MofGen! by Chris Wilmer'
_symmetry_space_group_name_H-M	'P1'
_symmetry_Int_Tables_number	1
_symmetry_cell_setting	triclinic
loop_
_symmetry_equiv_pos_as_xyz
  x,y,z
_cell_length_a	27.731993
_cell_length_b	27.731996
_cell_length_c	12.996460
_cell_angle_alpha	89.987889
_cell_angle_beta	90.005946
_cell_angle_gamma	82.620891
loop_
_atom_site_label
_atom_site_type_symbol
_atom_site_fract_x
_atom_site_fract_y
_atom_site_fract_z
O1	O	0.640934	0.057394	-0.085303
O2	O	0.500135	0.066167	-0.085368
O3	O	0.574921	-0.008619	-0.085311
O4	O	0.566149	0.132180	-0.085360
O5	O	0.574913	-0.008623	0.085823
O6	O	0.500128	0.066163	0.085766
O7	O	0.640927	0.057390	0.085831
Cu8	Cu	0.570527	0.061776	0.101424
Cu9	Cu	0.570536	0.061781	-0.100961
O10	O	0.566141	0.132176	0.085774
C11	C	0.482124	0.065985	0.000191
C12	C	0.428468	0.065443	0.000167
C13	C	0.574737	-0.026628	0.000259
C14	C	0.574194	-0.080284	0.000269
C15	C	0.045313	0.061514	-0.093066
C16	C	0.246970	0.063581	-0.093095
O17	O	0.273046	0.063831	-0.172432
N18	N	0.272186	0.063838	0.000188
C19	C	0.246985	0.063574	0.093485
O20	O	0.273061	0.063835	0.172827
C21	C	0.045329	0.061504	0.093512
C22	C	0.020115	0.061252	0.000223
C23	C	0.020099	0.061262	-0.186348
C24	C	-0.030313	0.060748	-0.186340
C25	C	-0.055510	0.060486	-0.093050
C26	C	-0.030296	0.060738	0.000231
C27	C	0.020130	0.061237	0.186808
C28	C	-0.030287	0.060718	0.186806
C29	C	-0.055501	0.060466	0.093517
C30	C	-0.105905	0.059962	0.093529
N31	N	-0.131121	0.059705	0.000246
C32	C	-0.105924	0.059967	-0.093044
C33	C	0.352857	0.064662	0.093463
C34	C	0.403271	0.065181	0.093457
C35	C	0.403252	0.065187	-0.093123
C36	C	0.352837	0.064672	-0.093115
C37	C	0.327641	0.064406	0.000181
C38	C	-0.211792	0.058888	-0.093020
C39	C	-0.262208	0.058376	-0.093003
C40	C	-0.262185	0.058367	0.093576
C41	C	-0.211773	0.058882	0.093560
C42	C	-0.186578	0.059141	0.000254
O43	O	-0.132012	0.059706	0.172824
O44	O	-0.132007	0.059696	-0.172374
C45	C	0.095724	0.062028	-0.093074
C46	C	0.120938	0.062280	0.000207
C47	C	0.095741	0.062018	0.093496
C48	C	0.171352	0.062799	0.000200
C49	C	0.196550	0.063061	-0.093089
C50	C	0.171334	0.062804	-0.186372
C51	C	0.120922	0.062290	-0.186364
C52	C	0.120957	0.062275	0.186779
C53	C	0.171369	0.062789	0.186763
C54	C	0.196566	0.063051	0.093474
C55	C	0.570784	-0.412998	-0.093068
C56	C	0.568722	-0.614656	-0.093087
O57	O	0.568439	-0.640724	-0.172423
N58	N	0.568462	-0.639875	0.000197
C59	C	0.568714	-0.614676	0.093493
O60	O	0.568441	-0.640753	0.172836
C61	C	0.570772	-0.413019	0.093511
C62	C	0.571037	-0.387803	0.000221
C63	C	0.571048	-0.387782	-0.186350
C64	C	0.571566	-0.337371	-0.186344
C65	C	0.571819	-0.312176	-0.093056
C66	C	0.571555	-0.337392	0.000226
C67	C	0.571020	-0.387821	0.186805
C68	C	0.571533	-0.337403	0.186801
C69	C	0.571799	-0.312187	0.093511
C70	C	0.572326	-0.261786	0.093520
N71	N	0.572586	-0.236567	0.000236
C72	C	0.572333	-0.261762	-0.093052
C73	C	0.567635	-0.720549	0.093477
C74	C	0.567121	-0.770964	0.093473
C75	C	0.567129	-0.770940	-0.093107
C76	C	0.567646	-0.720525	-0.093102
C77	C	0.567895	-0.695330	0.000193
C78	C	0.573421	-0.155895	-0.093033
C79	C	0.573941	-0.105479	-0.093019
C80	C	0.573931	-0.105508	0.093560
C81	C	0.573413	-0.155919	0.093547
C82	C	0.573157	-0.181111	0.000242
O83	O	0.572605	-0.235685	0.172815
O84	O	0.572596	-0.235674	-0.172383
C85	C	0.570266	-0.463409	-0.093073
C86	C	0.570001	-0.488625	0.000209
C87	C	0.570254	-0.463430	0.093498
C88	C	0.569488	-0.539039	0.000205
C89	C	0.569234	-0.564234	-0.093083
C90	C	0.569494	-0.539015	-0.186367
C91	C	0.570012	-0.488604	-0.186361
C92	C	0.569994	-0.488649	0.186782
C93	C	0.569477	-0.539061	0.186768
C94	C	0.569224	-0.564256	0.093480
C95	C	0.658938	0.057572	0.000269
C96	C	0.712594	0.058114	0.000286
C97	C	0.566325	0.150185	0.000201
C98	C	0.566868	0.203841	0.000184
N99	N	0.570524	0.061772	0.243771
N100	N	0.570542	0.061781	-0.243308
C101	C	0.570535	0.061781	0.663586
C102	C	0.570530	0.061780	0.546780
C103	C	0.570530	0.061777	0.453682
C104	C	0.570524	0.061776	0.336870
H105	H	-0.282736	0.058173	-0.168973
O106	O	0.195771	0.062994	-0.277061
C107	C	0.189260	0.020982	-0.333790
H108	H	0.154590	0.006645	-0.307266
H109	H	0.186230	0.030387	-0.419135
H110	H	0.221695	-0.008055	-0.320842
H111	H	-0.050800	0.060505	0.262781
H112	H	0.569265	-0.559588	0.262742
O113	O	-0.187400	0.059165	-0.183747
C114	C	-0.220472	0.058822	-0.266067
H115	H	-0.258525	0.073759	-0.238700
H116	H	-0.209170	0.082456	-0.331321
H117	H	-0.220465	0.019974	-0.294748
H118	H	0.567861	-0.699997	-0.169067
H119	H	0.191893	0.062998	0.262736
H120	H	0.571729	-0.316891	0.262775
H121	H	0.570228	-0.468077	-0.262328
O122	O	0.566965	-0.795408	-0.183756
C123	C	0.608964	-0.788876	-0.240519
H124	H	0.638382	-0.779075	-0.185936
H125	H	0.622681	-0.823975	-0.282827
H126	H	0.599793	-0.758298	-0.298694
H127	H	0.573202	-0.176451	0.169511
H128	H	0.100447	0.062059	0.262748
O129	O	0.328303	0.064359	-0.183670
C130	C	0.304955	0.022171	-0.189258
H131	H	0.299339	0.008126	-0.108260
H132	H	0.268198	0.031226	-0.228749
H133	H	0.328447	-0.006953	-0.235284
O134	O	0.570309	-0.464134	0.277340
C135	C	0.612497	-0.440788	0.282956
H136	H	0.626538	-0.435156	0.201967
H137	H	0.603444	-0.404039	0.322449
H138	H	0.641624	-0.464289	0.328993
H139	H	0.569290	-0.559538	-0.262326
O140	O	0.044537	0.061605	-0.277004
C141	C	0.026394	0.103357	-0.333763
H142	H	0.008489	0.132482	-0.279172
H143	H	0.057591	0.117762	-0.376101
H144	H	-0.001568	0.093591	-0.391911
H145	H	-0.191244	0.059096	0.169524
O146	O	-0.286656	0.058197	0.184221
C147	C	-0.280127	0.100194	0.240985
H148	H	-0.270326	0.129615	0.186402
H149	H	-0.315227	0.113906	0.283298
H150	H	-0.249550	0.091019	0.299156
O151	O	-0.054834	0.060584	-0.276936
C152	C	-0.089806	0.102159	-0.282538
H153	H	-0.078670	0.131588	-0.229609
H154	H	-0.092323	0.116211	-0.365054
H155	H	-0.126702	0.092297	-0.257483
O156	O	0.096389	0.061978	-0.276920
C157	C	0.073038	0.019792	-0.282507
H158	H	0.067419	0.005748	-0.201508
H159	H	0.036282	0.028849	-0.322001
H160	H	0.096529	-0.009335	-0.328530
H161	H	0.574158	-0.084951	-0.168990
O162	O	0.574087	-0.080990	0.184145
C163	C	0.532507	-0.046023	0.189664
H164	H	0.503087	-0.057166	0.136708
H165	H	0.518444	-0.043503	0.272160
H166	H	0.542368	-0.009127	0.164590
H167	H	0.423776	0.065402	-0.169083
O168	O	0.567905	-0.696157	0.184202
C169	C	0.567556	-0.729232	0.266524
H170	H	0.582496	-0.767284	0.239161
H171	H	0.591185	-0.717931	0.331780
H172	H	0.528706	-0.729226	0.295199
O173	O	0.427688	0.065408	0.184170
C174	C	0.394630	0.065077	0.266503
H175	H	0.360813	0.049400	0.239154
H176	H	0.412450	0.041745	0.331756
H177	H	0.383895	0.103816	0.295177
O178	O	0.573186	-0.180289	-0.183760
C179	C	0.573513	-0.147211	-0.266081
H180	H	0.589198	-0.113404	-0.238715
H181	H	0.596835	-0.165018	-0.331333
H182	H	0.534771	-0.136464	-0.294764
O183	O	0.328321	0.064468	0.184030
C184	C	0.293365	0.106055	0.189625
H185	H	0.283867	0.119944	0.108628
H186	H	0.259225	0.096267	0.229123
H187	H	0.308737	0.135580	0.235647
O188	O	0.571795	-0.312950	-0.277059
C189	C	0.571471	-0.346009	-0.359387
H190	H	0.555796	-0.379827	-0.332033
H191	H	0.548142	-0.328190	-0.424644
H192	H	0.610213	-0.356740	-0.388058
H193	H	0.570840	-0.408290	-0.262321
H194	H	0.040651	0.061440	0.262774
H195	H	0.570805	-0.408343	0.262772
O196	O	0.566798	-0.795497	0.184033
C197	C	0.524609	-0.818845	0.189602
H198	H	0.510579	-0.824463	0.108596
H199	H	0.533658	-0.855600	0.229107
H200	H	0.495476	-0.795352	0.235604
