data_functionalizedCrystal
_audit_creation_method	'MofGen! by Chris Wilmer'
_symmetry_space_group_name_H-M	'P1'
_symmetry_Int_Tables_number	1
_symmetry_cell_setting	triclinic
loop_
_symmetry_equiv_pos_as_xyz
  x,y,z
_cell_length_a	18.050589
_cell_length_b	18.101398
_cell_length_c	18.101389
_cell_angle_alpha	89.975673
_cell_angle_beta	90.019529
_cell_angle_gamma	89.984199
loop_
_atom_site_label
_atom_site_type_symbol
_atom_site_fract_x
_atom_site_fract_y
_atom_site_fract_z
Zn1	Zn	-0.295831	-1.132175	0.418833
Zn2	Zn	-0.045831	-0.882175	0.668833
Zn3	Zn	0.204169	-0.632175	0.918833
Zn4	Zn	0.454169	-0.382175	1.168833
Zn5	Zn	-0.420005	-1.132094	0.294989
Zn6	Zn	-0.170005	-0.882094	0.544989
Zn7	Zn	0.079995	-0.632094	0.794989
Zn8	Zn	0.329995	-0.382094	1.044989
Zn9	Zn	-0.295823	-1.008334	0.294994
Zn10	Zn	-0.045823	-0.758334	0.544994
Zn11	Zn	0.204177	-0.508334	0.794994
Zn12	Zn	0.454177	-0.258334	1.044994
Zn13	Zn	-0.419973	-1.008308	0.418778
Zn14	Zn	-0.169973	-0.758308	0.668778
Zn15	Zn	0.080027	-0.508308	0.918778
Zn16	Zn	0.330027	-0.258308	1.168778
O17	O	-0.357908	-1.070228	0.356898
O18	O	-0.107908	-0.820228	0.606898
O19	O	0.142092	-0.570228	0.856898
O20	O	0.392092	-0.320228	1.106898
O21	O	-0.312320	-1.235798	0.402426
O22	O	-0.062320	-0.985798	0.652426
O23	O	0.187680	-0.735798	0.902426
O24	O	0.437680	-0.485798	1.152426
O25	O	-0.403542	-1.115654	0.191357
O26	O	-0.153542	-0.865654	0.441357
O27	O	0.096458	-0.615654	0.691357
O28	O	0.346458	-0.365654	0.941357
O29	O	-0.191900	-1.024807	0.311447
O30	O	0.058100	-0.774807	0.561447
O31	O	0.308100	-0.524807	0.811447
O32	O	0.558100	-0.274807	1.061447
O33	O	-0.403550	-1.235738	0.311438
O34	O	-0.153550	-0.985738	0.561438
O35	O	0.096450	-0.735738	0.811438
O36	O	0.346450	-0.485738	1.061438
O37	O	-0.191905	-1.115793	0.402431
O38	O	0.058095	-0.865793	0.652431
O39	O	0.308095	-0.615793	0.902431
O40	O	0.558095	-0.365793	1.152431
O41	O	-0.312306	-1.024728	0.191361
O42	O	-0.062306	-0.774728	0.441361
O43	O	0.187694	-0.524728	0.691361
O44	O	0.437694	-0.274728	0.941361
O45	O	-0.312276	-0.904698	0.311393
O46	O	-0.062276	-0.654698	0.561393
O47	O	0.187724	-0.404698	0.811393
O48	O	0.437724	-0.154698	1.061393
O49	O	-0.403496	-1.024762	0.522418
O50	O	-0.153496	-0.774762	0.772418
O51	O	0.096504	-0.524762	1.022418
O52	O	0.346504	-0.274762	1.272418
O53	O	-0.403488	-0.904679	0.402336
O54	O	-0.153488	-0.654679	0.652336
O55	O	0.096512	-0.404679	0.902336
O56	O	0.346512	-0.154679	1.152336
O57	O	-0.312289	-1.115767	0.522459
O58	O	-0.062289	-0.865767	0.772459
O59	O	0.187711	-0.615767	1.022459
O60	O	0.437711	-0.365767	1.272459
O61	O	-0.523926	-1.115629	0.311385
O62	O	-0.273926	-0.865629	0.561385
O63	O	-0.023926	-0.615629	0.811385
O64	O	0.226074	-0.365629	1.061385
O65	O	-0.523902	-1.024683	0.402332
O66	O	-0.273902	-0.774683	0.652332
O67	O	-0.023902	-0.524683	0.902332
O68	O	0.226098	-0.274683	1.152332
C69	C	-0.357878	-0.877817	0.356860
C70	C	-0.107878	-0.627817	0.606860
C71	C	0.142122	-0.377817	0.856860
C72	C	0.392122	-0.127817	1.106860
C73	C	-0.357883	-0.795503	0.356861
C74	C	-0.107883	-0.545503	0.606861
C75	C	0.142117	-0.295503	0.856861
C76	C	0.392117	-0.045503	1.106861
C77	C	-0.550860	-1.070164	0.356868
C78	C	-0.300860	-0.820164	0.606868
C79	C	-0.050860	-0.570164	0.856868
C80	C	0.199140	-0.320164	1.106868
C81	C	-0.633406	-1.070205	0.356879
C82	C	-0.383406	-0.820205	0.606879
C83	C	-0.133406	-0.570205	0.856879
C84	C	0.116594	-0.320205	1.106879
C85	C	-0.882217	-1.119790	0.307504
C86	C	-0.632217	-0.869790	0.557504
C87	C	-0.382217	-0.619790	0.807504
C88	C	-0.132217	-0.369790	1.057504
C89	C	-0.832878	-1.052221	0.289309
C90	C	-0.582878	-0.802221	0.539309
C91	C	-0.332878	-0.552221	0.789309
C92	C	-0.082878	-0.302221	1.039309
C93	C	-0.930527	-1.070298	0.356936
C94	C	-0.680527	-0.820298	0.606936
C95	C	-0.430527	-0.570298	0.856936
C96	C	-0.180527	-0.320298	1.106936
C97	C	-0.832785	-1.137817	0.375069
C98	C	-0.582785	-0.887817	0.625069
C99	C	-0.332785	-0.637817	0.875069
C100	C	-0.082785	-0.387817	1.125069
C101	C	-0.784541	-1.070256	0.356906
C102	C	-0.534541	-0.820256	0.606906
C103	C	-0.284541	-0.570256	0.856906
C104	C	-0.034541	-0.320256	1.106906
C105	C	-0.882274	-1.002694	0.338706
C106	C	-0.632274	-0.752694	0.588706
C107	C	-0.382274	-0.502694	0.838706
C108	C	-0.132274	-0.252694	1.088706
C109	C	-0.882185	-1.088335	0.424497
C110	C	-0.632185	-0.838335	0.674497
C111	C	-0.382185	-0.588335	0.924497
C112	C	-0.132185	-0.338335	1.174497
C113	C	-0.832868	-1.020720	0.406327
C114	C	-0.582868	-0.770720	0.656327
C115	C	-0.332868	-0.520720	0.906327
C116	C	-0.082868	-0.270720	1.156327
C117	C	-1.014625	-1.070323	0.356952
C118	C	-0.764625	-0.820323	0.606952
C119	C	-0.514625	-0.570323	0.856952
C120	C	-0.264625	-0.320323	1.106952
C121	C	-0.700445	-1.070223	0.356891
C122	C	-0.450445	-0.820223	0.606891
C123	C	-0.200445	-0.570223	0.856891
C124	C	0.049555	-0.320223	1.106891
C125	C	-0.357890	-1.070271	0.550060
C126	C	-0.107890	-0.820271	0.800060
C127	C	0.142110	-0.570271	1.050060
C128	C	0.392110	-0.320271	1.300060
C129	C	-0.357882	-1.070289	0.632375
C130	C	-0.107882	-0.820289	0.882375
C131	C	0.142118	-0.570289	1.132375
C132	C	0.392118	-0.320289	1.382375
C133	C	-0.164203	-1.070312	0.356946
C134	C	0.085797	-0.820312	0.606946
C135	C	0.335797	-0.570312	0.856946
C136	C	0.585797	-0.320312	1.106946
C137	C	-0.081657	-1.070348	0.356966
C138	C	0.168343	-0.820348	0.606966
C139	C	0.418343	-0.570348	0.856966
C140	C	0.668343	-0.320348	1.106966
C141	C	-0.357939	-1.263390	0.356938
C142	C	-0.107939	-1.013390	0.606938
C143	C	0.142061	-0.763390	0.856938
C144	C	0.392061	-0.513390	1.106938
C145	C	-0.357952	-1.345704	0.356954
C146	C	-0.107952	-1.095704	0.606954
C147	C	0.142048	-0.845704	0.856954
C148	C	0.392048	-0.595704	1.106954
C149	C	-0.357930	-0.496412	0.356923
C150	C	-0.107930	-0.246412	0.606923
C151	C	0.142070	0.003588	0.856923
C152	C	0.392070	0.253588	1.106923
C153	C	-0.300254	-0.527725	0.299983
C154	C	-0.050254	-0.277725	0.549983
C155	C	0.199746	-0.027725	0.799983
C156	C	0.449746	0.222275	1.049983
C157	C	-0.300409	-0.613343	0.299740
C158	C	-0.050409	-0.363343	0.549740
C159	C	0.199591	-0.113343	0.799740
C160	C	0.449591	0.136657	1.049740
C161	C	-0.357906	-0.644795	0.356892
C162	C	-0.107906	-0.394795	0.606892
C163	C	0.142094	-0.144795	0.856892
C164	C	0.392094	0.105205	1.106892
C165	C	-0.436133	-0.613691	0.335566
C166	C	-0.186133	-0.363691	0.585566
C167	C	0.063867	-0.113691	0.835566
C168	C	0.313867	0.136309	1.085566
C169	C	-0.435813	-0.528046	0.335170
C170	C	-0.185813	-0.278046	0.585170
C171	C	0.064187	-0.028046	0.835170
C172	C	0.314187	0.221954	1.085170
C173	C	-0.338057	-0.528023	0.435323
C174	C	-0.088057	-0.278023	0.685323
C175	C	0.161943	-0.028023	0.935323
C176	C	0.411943	0.221977	1.185323
C177	C	-0.336315	-0.613674	0.434895
C178	C	-0.086315	-0.363674	0.684895
C179	C	0.163685	-0.113674	0.934895
C180	C	0.413685	0.136326	1.184895
C181	C	-0.357897	-0.728654	0.356876
C182	C	-0.107897	-0.478654	0.606876
C183	C	0.142103	-0.228654	0.856876
C184	C	0.392103	0.021346	1.106876
C185	C	-0.357943	-0.412553	0.356937
C186	C	-0.107943	-0.162553	0.606937
C187	C	0.142057	0.087447	0.856937
C188	C	0.392057	0.337447	1.106937
C189	C	-0.357873	-1.070228	0.164488
C190	C	-0.107873	-0.820228	0.414488
C191	C	0.142127	-0.570228	0.664488
C192	C	0.392127	-0.320228	0.914488
C193	C	-0.357672	-1.070353	0.082174
C194	C	-0.107672	-0.820353	0.332174
C195	C	0.142328	-0.570353	0.582174
C196	C	0.392328	-0.320353	0.832174
C197	C	-0.357742	-1.070332	0.931466
C198	C	-0.107742	-0.820332	1.181466
C199	C	0.142258	-0.570332	1.431466
C200	C	0.392258	-0.320332	1.681466
C201	C	-0.414945	-1.012877	0.900115
C202	C	-0.164945	-0.762877	1.150115
C203	C	0.085055	-0.512877	1.400115
C204	C	0.335055	-0.262877	1.650115
C205	C	-0.415210	-1.013032	0.814497
C206	C	-0.165210	-0.763032	1.064497
C207	C	0.084790	-0.513032	1.314497
C208	C	0.334790	-0.263032	1.564497
C209	C	-0.357811	-1.070310	0.783083
C210	C	-0.107811	-0.820310	1.033083
C211	C	0.142189	-0.570310	1.283083
C212	C	0.392189	-0.320310	1.533083
C213	C	-0.379062	-1.148339	0.814188
C214	C	-0.129062	-0.898339	1.064188
C215	C	0.120938	-0.648339	1.314188
C216	C	0.370938	-0.398339	1.564188
C217	C	-0.379437	-1.148019	0.899833
C218	C	-0.129437	-0.898019	1.149833
C219	C	0.120563	-0.648019	1.399833
C220	C	0.370563	-0.398019	1.649833
C221	C	-0.279163	-1.050436	0.899892
C222	C	-0.029163	-0.800436	1.149892
C223	C	0.220837	-0.550436	1.399892
C224	C	0.470837	-0.300436	1.649892
C225	C	-0.279616	-1.048700	0.814241
C226	C	-0.029616	-0.798700	1.064241
C227	C	0.220384	-0.548700	1.314241
C228	C	0.470384	-0.298700	1.564241
C229	C	-0.357849	-1.070302	0.699224
C230	C	-0.107849	-0.820302	0.949224
C231	C	0.142151	-0.570302	1.199224
C232	C	0.392151	-0.320302	1.449224
C233	C	-0.357706	-1.070345	1.015325
C234	C	-0.107706	-0.820345	1.265325
C235	C	0.142294	-0.570345	1.515325
C236	C	0.392294	-0.320345	1.765325
H237	H	-0.903886	-1.161609	0.265682
H238	H	-0.653886	-0.911609	0.515682
H239	H	-0.403886	-0.661609	0.765682
H240	H	-0.153886	-0.411609	1.015682
H241	H	-0.259803	-0.994526	0.921478
H242	H	-0.009803	-0.744526	1.171478
H243	H	0.240197	-0.494526	1.421478
H244	H	0.490197	-0.244526	1.671478
H245	H	-0.435894	-1.165496	0.792745
H246	H	-0.185894	-0.915496	1.042745
H247	H	0.064106	-0.665496	1.292745
H248	H	0.314106	-0.415496	1.542745
H249	H	-0.453280	-0.635109	0.278871
H250	H	-0.203280	-0.385109	0.528871
H251	H	0.046720	-0.135109	0.778871
H252	H	0.296720	0.114891	1.028871
H253	H	-0.811218	-1.036942	0.232161
H254	H	-0.561218	-0.786942	0.482161
H255	H	-0.311218	-0.536942	0.732161
H256	H	-0.061218	-0.286942	0.982161
Br257	Br	-0.311803	-1.221611	0.780284
Br258	Br	-0.061803	-0.971611	1.030284
Br259	Br	0.188197	-0.721611	1.280284
Br260	Br	0.438197	-0.471611	1.530284
Br261	Br	-0.321882	-0.491796	0.203722
Br262	Br	-0.071882	-0.241796	0.453722
Br263	Br	0.178118	0.008204	0.703722
Br264	Br	0.428118	0.258204	0.953722
H265	H	-0.903861	-1.103634	0.481629
H266	H	-0.653861	-0.853634	0.731629
H267	H	-0.403861	-0.603634	0.981629
H268	H	-0.153861	-0.353634	1.231629
H269	H	-0.313545	-0.633799	0.241647
H270	H	-0.063545	-0.383799	0.491647
H271	H	0.186455	-0.133799	0.741647
H272	H	0.436455	0.116201	0.991647
Br273	Br	-0.312963	-1.221743	0.934408
Br274	Br	-0.062963	-0.971743	1.184408
Br275	Br	0.187037	-0.721743	1.434408
Br276	Br	0.437037	-0.471743	1.684408
Br277	Br	-0.509677	-0.647632	0.402531
Br278	Br	-0.259677	-0.397632	0.652531
Br279	Br	-0.009677	-0.147632	0.902531
Br280	Br	0.240323	0.102368	1.152531
H281	H	-0.263592	-0.991278	0.793909
H282	H	-0.013592	-0.741278	1.043909
H283	H	0.236408	-0.491278	1.293909
H284	H	0.486408	-0.241278	1.543909
H285	H	-0.234735	-1.087493	0.792857
H286	H	0.015265	-0.837493	1.042857
H287	H	0.265265	-0.587493	1.292857
H288	H	0.515265	-0.337493	1.542857
H289	H	-0.472835	-1.025883	0.921639
H290	H	-0.222835	-0.775883	1.171639
H291	H	0.027165	-0.525883	1.421639
H292	H	0.277165	-0.275883	1.671639
H293	H	-0.242399	-0.634373	0.313108
H294	H	0.007601	-0.384373	0.563108
H295	H	0.257601	-0.134373	0.813108
H296	H	0.507601	0.115627	1.063108
H297	H	-0.282008	-0.506441	0.454712
H298	H	-0.032008	-0.256441	0.704712
H299	H	0.217992	-0.006441	0.954712
H300	H	0.467992	0.243559	1.204712
Br301	Br	-0.203268	-0.493425	0.322015
Br302	Br	0.046732	-0.243425	0.572015
Br303	Br	0.296732	0.006575	0.822015
Br304	Br	0.546732	0.256575	1.072015
Br305	Br	-0.393040	-0.916594	0.779437
Br306	Br	-0.143040	-0.666594	1.029437
Br307	Br	0.106960	-0.416594	1.279437
Br308	Br	0.356960	-0.166594	1.529437
H309	H	-0.811046	-1.194934	0.390417
H310	H	-0.561046	-0.944934	0.640417
H311	H	-0.311046	-0.694934	0.890417
H312	H	-0.061046	-0.444934	1.140417
H313	H	-0.401782	-0.954842	0.920701
H314	H	-0.151782	-0.704842	1.170701
H315	H	0.098218	-0.454842	1.420701
H316	H	0.348218	-0.204842	1.670701
H317	H	-0.278749	-0.634007	0.450976
H318	H	-0.028749	-0.384007	0.700976
H319	H	0.221251	-0.134007	0.950976
H320	H	0.471251	0.115993	1.200976
H321	H	-0.473456	-1.026169	0.794013
H322	H	-0.223456	-0.776169	1.044013
H323	H	0.026544	-0.526169	1.294013
H324	H	0.276544	-0.276169	1.544013
Br325	Br	-0.401233	-0.649356	0.509398
Br326	Br	-0.151233	-0.399356	0.759398
Br327	Br	0.098767	-0.149356	1.009398
Br328	Br	0.348767	0.100644	1.259398
H329	H	-0.903921	-0.945560	0.323292
H330	H	-0.653921	-0.695560	0.573292
H331	H	-0.403921	-0.445560	0.823292
H332	H	-0.153921	-0.195560	1.073292
Br333	Br	-0.475178	-1.176128	0.933143
Br334	Br	-0.225178	-0.926128	1.183143
Br335	Br	0.024822	-0.676128	1.433143
Br336	Br	0.274822	-0.426128	1.683143
Br337	Br	-0.208128	-1.120185	0.933684
Br338	Br	0.041872	-0.870185	1.183684
Br339	Br	0.291872	-0.620185	1.433684
Br340	Br	0.541872	-0.370185	1.683684
H341	H	-0.452667	-0.508037	0.277856
H342	H	-0.202667	-0.258037	0.527856
H343	H	0.047333	-0.008037	0.777856
H344	H	0.297333	0.241963	1.027856
H345	H	-0.480240	-0.507332	0.374834
H346	H	-0.230240	-0.257332	0.624834
H347	H	0.019760	-0.007332	0.874834
H348	H	0.269760	0.242668	1.124834
Br349	Br	-0.796980	-0.950855	0.475985
Br350	Br	-0.546980	-0.700855	0.725985
Br351	Br	-0.296980	-0.450855	0.975985
Br352	Br	-0.046980	-0.200855	1.225985
H353	H	-0.380066	-0.507774	0.477748
H354	H	-0.130066	-0.257774	0.727748
H355	H	0.119934	-0.007774	0.977748
H356	H	0.369934	0.242226	1.227748
