data_functionalizedCrystal
_audit_creation_method	'MofGen! by Chris Wilmer'
_symmetry_space_group_name_H-M	'P1'
_symmetry_Int_Tables_number	1
_symmetry_cell_setting	triclinic
loop_
_symmetry_equiv_pos_as_xyz
  x,y,z
_cell_length_a	18.101397
_cell_length_b	13.897449
_cell_length_c	13.897441
_cell_angle_alpha	90.016656
_cell_angle_beta	90.032209
_cell_angle_gamma	90.024593
loop_
_atom_site_label
_atom_site_type_symbol
_atom_site_fract_x
_atom_site_fract_y
_atom_site_fract_z
Zn1	Zn	-0.294711	1.474689	0.545266
Zn2	Zn	-0.418566	1.474577	0.383962
Zn3	Zn	-0.294754	1.313378	0.383995
Zn4	Zn	-0.418525	1.313354	0.545226
O5	O	-0.356639	1.393999	0.464612
O6	O	-0.311140	1.609655	0.523871
O7	O	-0.402177	1.453157	0.248985
O8	O	-0.191115	1.334833	0.405418
O9	O	-0.402136	1.609573	0.405362
O10	O	-0.191083	1.453347	0.523903
O11	O	-0.311213	1.334725	0.249009
O12	O	-0.311173	1.178393	0.405380
O13	O	-0.402066	1.334792	0.680213
O14	O	-0.402107	1.178375	0.523836
O15	O	-0.311100	1.453324	0.680242
O16	O	-0.522194	1.453133	0.405324
O17	O	-0.522164	1.334683	0.523804
C18	C	-0.356641	1.143385	0.464608
C19	C	-0.356660	1.036171	0.464629
C20	C	-0.549050	1.393920	0.464577
C21	C	-0.631364	1.393974	0.464595
C22	C	-0.356573	1.394068	0.716206
C23	C	-0.356546	1.394097	0.823420
C24	C	-0.782072	1.394033	0.464628
C25	C	-0.813413	1.468632	0.390155
C26	C	-0.899032	1.468446	0.389882
C27	C	-0.930454	1.394092	0.464660
C28	C	-0.899446	1.292363	0.437307
C29	C	-0.813801	1.292760	0.436748
C30	C	-0.813559	1.420286	0.566646
C31	C	-0.899209	1.422563	0.566121
C32	C	-1.014314	1.394119	0.464680
C33	C	-0.698213	1.393999	0.464605
C34	C	-0.163477	1.394105	0.464669
C35	C	-0.081163	1.394151	0.464693
C36	C	-0.356637	1.645592	0.464617
C37	C	-0.356637	1.752806	0.464619
C38	C	-0.356658	1.949101	0.464623
C39	C	-0.356648	1.839869	0.464618
C40	C	-0.356651	1.393987	0.213998
C41	C	-0.356470	1.394144	0.106785
C42	C	-0.356495	1.394123	1.019715
C43	C	-0.356525	1.394106	0.910482
H44	H	-0.919995	1.543872	0.406965
C45	C	-0.926797	1.444919	0.287787
C46	C	-0.871039	1.426239	0.206253
C47	C	-0.898803	1.402689	0.104159
C48	C	-0.982325	1.397821	0.083599
C49	C	-1.038089	1.416502	0.165136
C50	C	-1.010324	1.440052	0.267230
H51	H	-0.809206	1.429842	0.221470
H52	H	-0.857523	1.388860	0.043800
H53	H	-1.002878	1.380388	0.008023
H54	H	-1.099922	1.412899	0.149918
H55	H	-1.051605	1.453881	0.327589
H56	H	-0.792769	1.544277	0.407041
H57	H	-0.791945	1.451448	0.314995
H58	H	-0.793885	1.270546	0.362182
C59	C	-0.785789	1.215085	0.506839
C60	C	-0.841352	1.152890	0.563139
C61	C	-0.813344	1.075207	0.633218
C62	C	-0.729773	1.059719	0.646996
C63	C	-0.674205	1.121916	0.590694
C64	C	-0.702213	1.199599	0.520616
H65	H	-0.903221	1.164354	0.552941
H66	H	-0.854479	1.029165	0.674896
H67	H	-0.709040	1.002213	0.698872
H68	H	-0.612336	1.110452	0.600893
H69	H	-0.661078	1.245641	0.478938
H70	H	-0.791898	1.493185	0.591578
C71	C	-0.926945	1.215242	0.508336
C72	C	-0.977998	1.243811	0.592203
C73	C	-1.005498	1.166692	0.663234
C74	C	-0.981944	1.061005	0.650397
C75	C	-0.930888	1.032432	0.566526
C76	C	-0.903389	1.109550	0.495496
H77	H	-0.995436	1.322051	0.601709
H78	H	-1.043293	1.187844	0.725320
H79	H	-1.002301	1.003917	0.702978
H80	H	-0.913450	0.954191	0.557020
H81	H	-0.865593	1.088398	0.433409
C82	C	-0.928495	1.261852	0.337689
C83	C	-0.873841	1.241195	0.255365
C84	C	-0.902888	1.210690	0.155744
C85	C	-0.986587	1.200843	0.138446
C86	C	-1.041246	1.221500	0.220772
C87	C	-1.012200	1.252005	0.320393
H88	H	-0.811877	1.248484	0.268168
H89	H	-0.862425	1.195399	0.094801
H90	H	-1.008089	1.178262	0.064701
H91	H	-1.103210	1.214211	0.207970
H92	H	-1.052662	1.267297	0.381336
C93	C	-0.926605	1.523680	0.594019
C94	C	-0.977109	1.580164	0.525025
C95	C	-1.004523	1.681273	0.552929
C96	C	-0.981434	1.725898	0.649827
C97	C	-0.930927	1.669414	0.718827
C98	C	-0.903513	1.568305	0.690923
H99	H	-0.994204	1.547131	0.453289
H100	H	-1.041912	1.723087	0.501849
H101	H	-1.001728	1.800745	0.670483
H102	H	-0.913833	1.702448	0.790563
H103	H	-0.866125	1.526492	0.742003
C104	C	-0.786174	1.346900	0.641610
C105	C	-0.842187	1.286147	0.698720
C106	C	-0.814797	1.212758	0.773675
C107	C	-0.731394	1.200123	0.791519
C108	C	-0.675375	1.260878	0.734407
C109	C	-0.702765	1.334266	0.659453
H110	H	-0.903931	1.295498	0.685512
H111	H	-0.856265	1.167783	0.815953
H112	H	-0.711118	1.145797	0.847005
H113	H	-0.613631	1.251526	0.747616
H114	H	-0.661297	1.379241	0.617175
H115	H	-0.920594	1.372231	0.624569
