data_functionalizedCrystal
_audit_creation_method	'MofGen! by Chris Wilmer'
_symmetry_space_group_name_H-M	'P1'
_symmetry_Int_Tables_number	1
_symmetry_cell_setting	triclinic
loop_
_symmetry_equiv_pos_as_xyz
  x,y,z
_cell_length_a	15.944493
_cell_length_b	15.944551
_cell_length_c	15.186229
_cell_angle_alpha	89.995303
_cell_angle_beta	89.997208
_cell_angle_gamma	83.486891
loop_
_atom_site_label
_atom_site_type_symbol
_atom_site_fract_x
_atom_site_fract_y
_atom_site_fract_z
O1	O	1.114553	0.108099	-0.073219
O2	O	0.869997	0.121506	-0.073223
O3	O	0.998953	-0.007474	-0.073213
O4	O	0.985597	0.237079	-0.073229
O5	O	0.998945	-0.007475	0.073244
O6	O	0.869988	0.121504	0.073234
O7	O	1.114545	0.108097	0.073238
Zn8	Zn	0.992265	0.114800	0.096489
Zn9	Zn	0.992276	0.114803	-0.096474
O10	O	0.985588	0.237077	0.073228
C11	C	0.838698	0.120957	0.000005
C12	C	0.745449	0.119314	0.000003
C13	C	0.509689	0.195235	-0.000002
C14	C	0.459127	0.154293	0.072215
C15	C	0.574728	0.116270	0.000005
C16	C	0.459140	0.154276	-0.072180
C17	C	0.409819	0.113336	0.000003
C18	C	0.525394	0.075350	0.072282
C19	C	0.525410	0.075344	-0.072178
C20	C	0.474880	0.034345	0.000057
C21	C	0.669728	0.117963	0.000007
C22	C	0.314821	0.111637	0.000008
C23	C	0.998395	-0.038768	0.000016
C24	C	0.996732	-0.132014	0.000016
C25	C	0.912826	-0.346853	0.000003
C26	C	0.951785	-0.407880	0.072216
C27	C	0.993725	-0.302739	0.000009
C28	C	0.951812	-0.407861	-0.072180
C29	C	0.990814	-0.467651	-0.000001
C30	C	1.032706	-0.362537	0.072282
C31	C	1.032723	-0.362513	-0.072178
C32	C	1.071741	-0.423521	0.000052
C33	C	0.995399	-0.207737	0.000016
C34	C	0.989146	-0.562652	-0.000001
C35	C	1.145844	0.108646	0.000008
C36	C	1.239092	0.110289	0.000004
C37	C	0.986147	0.268372	-0.000003
C38	C	0.987809	0.361617	-0.000009
N39	N	0.992264	0.114798	0.228182
N40	N	0.992285	0.114798	-0.228167
C41	C	1.049385	0.057705	0.453910
C42	C	1.049387	0.057703	0.546099
C43	C	0.935157	0.171894	0.546099
C44	C	0.935151	0.171891	0.453911
C45	C	0.992270	0.114798	0.407819
C46	C	0.992278	0.114799	0.592196
C47	C	0.992281	0.114797	0.692153
C48	C	0.992267	0.114798	0.307856
H49	H	0.554360	0.042023	-0.133230
C50	C	0.495888	0.328786	-0.074770
C51	C	0.530796	0.287053	0.000083
H52	H	0.508917	0.385469	-0.074709
H53	H	0.518706	0.300853	-0.126122
H54	H	0.436363	0.328349	-0.074234
H55	H	0.590322	0.287484	-0.000456
H56	H	0.507982	0.314993	0.051449
C57	C	1.067550	-0.056639	0.350297
C58	C	1.112141	-0.005096	0.403265
H59	H	1.106288	-0.095420	0.319037
H60	H	1.032571	-0.086822	0.386285
H61	H	1.033559	-0.022629	0.309635
H62	H	1.146127	-0.039105	0.443931
H63	H	1.147134	0.025089	0.367273
H64	H	1.066914	-0.342389	-0.133230
H65	H	1.095895	0.011212	0.583624
C66	C	0.905208	-0.522740	-0.154128
C67	C	0.905610	-0.434968	-0.154594
H68	H	0.876675	-0.539469	-0.205001
H69	H	0.961646	-0.549249	-0.154225
H70	H	0.877015	-0.539024	-0.102846
H71	H	0.933809	-0.418684	-0.205873
H72	H	0.849162	-0.408449	-0.154505
C73	C	0.947160	-0.411025	0.230205
C74	C	0.905593	-0.435025	0.154628
H75	H	0.918635	-0.427777	0.281080
H76	H	1.003597	-0.437538	0.230279
H77	H	0.947424	-0.351478	0.230518
H78	H	0.905334	-0.494573	0.154313
H79	H	0.849141	-0.408515	0.154555
H80	H	0.888654	0.218379	0.583637
C81	C	0.822241	0.284776	0.463164
C82	C	0.872368	0.234655	0.403241
H83	H	0.783486	0.323522	0.431880
H84	H	0.792029	0.249802	0.499127
H85	H	0.857216	0.315005	0.499114
H86	H	0.837393	0.204421	0.367295
H87	H	0.902582	0.269633	0.367263
C88	C	0.454849	0.158772	-0.230170
C89	C	0.420084	0.199300	-0.154600
H90	H	0.430734	0.186569	-0.281049
H91	H	0.514182	0.160611	-0.230475
H92	H	0.443194	0.101652	-0.230241
H93	H	0.431744	0.256419	-0.154526
H94	H	0.360737	0.197470	-0.154295
C95	C	0.361602	0.267140	0.129011
C96	C	0.420047	0.199311	0.154624
H97	H	0.337475	0.294933	0.179884
H98	H	0.389336	0.305722	0.095015
H99	H	0.318350	0.246762	0.094775
H100	H	0.463303	0.219691	0.188855
H101	H	0.392313	0.160722	0.188634
C102	C	0.651863	0.032370	0.154065
C103	C	0.564297	0.030366	0.154793
H104	H	0.675878	0.004605	0.205006
H105	H	0.675124	0.004521	0.102856
H106	H	0.663973	0.089347	0.153853
H107	H	0.552187	-0.026612	0.154998
H108	H	0.541028	0.058213	0.206015
H109	H	0.459415	-0.033726	0.000103
H110	H	1.066891	-0.342555	0.133399
C111	C	0.780013	-0.324594	0.075810
C112	C	0.822180	-0.301862	0.000094
H113	H	0.724056	-0.296813	0.075870
H114	H	0.778336	-0.383949	0.076327
H115	H	0.809044	-0.308424	0.126583
H116	H	0.793152	-0.318038	-0.050679
H117	H	0.823852	-0.242494	-0.000431
C118	C	1.204608	-0.445452	0.075778
C119	C	1.162465	-0.468314	0.000107
H120	H	1.260614	-0.473111	0.075815
H121	H	1.206147	-0.386077	0.076256
H122	H	1.175649	-0.461675	0.126582
H123	H	1.191422	-0.452085	-0.050697
H124	H	1.160931	-0.527702	-0.000380
