data_functionalizedCrystal
_audit_creation_method	'MofGen! by Chris Wilmer'
_symmetry_space_group_name_H-M	'P1'
_symmetry_Int_Tables_number	1
_symmetry_cell_setting	triclinic
loop_
_symmetry_equiv_pos_as_xyz
  x,y,z
_cell_length_a	6.817900
_cell_length_b	12.908942
_cell_length_c	10.943624
_cell_angle_alpha	94.354559
_cell_angle_beta	108.838799
_cell_angle_gamma	100.860556
loop_
_atom_site_label
_atom_site_type_symbol
_atom_site_fract_x
_atom_site_fract_y
_atom_site_fract_z
V1	V	-4.074594	-0.145825	-0.401833
O2	O	-4.075178	0.007036	-0.394923
O3	O	-4.012338	-0.289174	-0.398374
O4	O	-4.053189	-0.143569	-0.577411
O5	O	-4.034043	-0.139576	-0.214647
V6	V	-4.556519	-0.127542	-0.379530
O7	O	-4.339357	-0.185929	-0.450756
O8	O	-4.741954	-0.087438	-0.330608
O9	O	-4.395569	0.015806	-0.382989
O10	O	-4.673333	-0.280403	-0.386441
O11	O	-4.714467	-0.133791	-0.566717
O12	O	-4.354718	-0.129798	-0.203953
C13	C	-3.853094	-0.324119	-0.391851
C14	C	-3.883659	-0.441309	-0.390194
C15	C	-4.306336	-0.672261	-0.399937
C16	C	-4.335064	-0.782371	-0.398379
C17	C	-3.969850	-0.771642	-0.385531
C18	C	-3.941122	-0.661532	-0.387088
C19	C	-4.109372	-0.611845	-0.394289
C20	C	-4.080637	-0.501732	-0.395837
C21	C	-3.715430	-0.491006	-0.382998
C22	C	-3.744158	-0.601116	-0.381441
C23	C	-3.905203	-0.138385	-0.620229
C24	C	-3.968894	-0.137490	-0.763760
C25	C	-3.815416	-0.131458	-0.840937
C26	C	-3.979664	-0.220983	-0.946486
C27	C	-3.918156	-0.046379	-0.913959
C28	C	-4.132330	-0.227099	-0.867432
C29	C	-4.070763	-0.052415	-0.834882
C30	C	-4.235141	-0.141966	-0.940401
C31	C	-4.218154	0.050746	-0.389508
C32	C	-4.166828	0.167935	-0.391175
C33	C	-4.166044	-0.134985	-0.161128
C34	C	-4.081592	-0.135876	-0.017596
H35	H	-4.495450	-0.831558	-0.402980
H36	H	-3.828225	0.029980	-0.935098
H37	H	-4.217633	-0.461278	-0.401692
C38	C	-3.928546	-0.317253	-1.012154
C39	C	-3.697378	-0.330231	-0.973899
C40	C	-3.646242	-0.426496	-1.039560
C41	C	-3.826275	-0.509784	-1.143476
C42	C	-4.057459	-0.496809	-1.181736
C43	C	-4.108594	-0.400544	-1.116076
H44	H	-3.564093	-0.268574	-0.896970
H45	H	-3.475104	-0.436100	-1.011237
H46	H	-3.788422	-0.581045	-1.192082
H47	H	-4.190743	-0.558466	-1.258666
H48	H	-4.279732	-0.390939	-1.144399
H49	H	-3.607183	-0.641587	-0.375583
C50	C	-4.253833	-0.330398	-0.839185
C51	C	-4.399562	-0.324632	-0.757947
C52	C	-4.521054	-0.427931	-0.729698
C53	C	-4.496817	-0.536996	-0.782688
C54	C	-4.351081	-0.542767	-0.863931
C55	C	-4.229589	-0.439468	-0.892179
H56	H	-4.417510	-0.243892	-0.718717
H57	H	-4.628938	-0.423659	-0.669557
H58	H	-4.586752	-0.613465	-0.761776
H59	H	-4.333133	-0.623507	-0.903161
H60	H	-4.121705	-0.443740	-0.952321
H61	H	-3.832884	-0.812118	-0.379680
H62	H	-4.413204	-0.146429	-0.983624
C63	C	-4.121774	0.043859	-0.769164
C64	C	-4.017314	0.158006	-0.779323
C65	C	-4.068297	0.254291	-0.713597
C66	C	-4.223740	0.236429	-0.637711
C67	C	-4.328210	0.122277	-0.627549
C68	C	-4.277227	0.025992	-0.693275
H69	H	-3.902237	0.171233	-0.835501
H70	H	-3.990961	0.338794	-0.721120
H71	H	-4.261481	0.307705	-0.589057
H72	H	-4.443287	0.109050	-0.571371
H73	H	-4.354563	-0.058511	-0.685751
H74	H	-4.443324	-0.631803	-0.405781
H75	H	-3.555043	-0.441803	-0.378398
H76	H	-3.637428	-0.127135	-0.797510
