data_functionalizedCrystal
_audit_creation_method	'MofGen! by Chris Wilmer'
_symmetry_space_group_name_H-M	'P1'
_symmetry_Int_Tables_number	1
_symmetry_cell_setting	triclinic
loop_
_symmetry_equiv_pos_as_xyz
  x,y,z
_cell_length_a	10.540539
_cell_length_b	27.732048
_cell_length_c	9.616153
_cell_angle_alpha	89.992780
_cell_angle_beta	89.995174
_cell_angle_gamma	83.584073
loop_
_atom_site_label
_atom_site_type_symbol
_atom_site_fract_x
_atom_site_fract_y
_atom_site_fract_z
O1	O	1.682934	0.068112	-0.115597
O2	O	1.313243	0.074530	-0.115616
O3	O	1.509570	0.000996	-0.115579
O4	O	1.486607	0.141645	-0.115634
O5	O	1.509544	0.000998	0.115712
O6	O	1.313216	0.074531	0.115676
O7	O	1.682908	0.068113	0.115694
Zn8	Zn	1.498058	0.071323	0.152407
Zn9	Zn	1.498093	0.071320	-0.152329
O10	O	1.486580	0.141647	0.115658
C11	C	1.265947	0.074049	0.000028
C12	C	1.125062	0.072609	0.000022
C13	C	1.509075	-0.017013	0.000070
C14	C	1.507623	-0.070677	0.000081
C15	C	0.944031	0.017434	0.000583
C16	C	1.090586	0.018894	0.000047
C17	C	1.062282	0.098458	-0.132062
C18	C	0.915817	0.096625	-0.132157
C19	C	0.915251	0.097720	0.130864
C20	C	1.062211	0.098214	0.132595
C21	C	1.614502	-0.408819	0.000015
C22	C	1.609117	-0.610513	-0.000004
O23	O	1.706850	-0.641153	-0.000060
N24	N	1.492703	-0.630369	-0.000009
C25	C	1.377627	-0.599799	-0.000018
O26	O	1.278486	-0.621317	-0.000036
C27	C	1.383013	-0.398107	-0.000008
C28	C	1.499435	-0.378253	0.000011
C29	C	1.730915	-0.388965	0.000033
C30	C	1.732260	-0.338544	0.000045
C31	C	1.617193	-0.307978	0.000040
C32	C	1.500780	-0.327832	0.000023
C33	C	1.267939	-0.367538	-0.000027
C34	C	1.269296	-0.317112	-0.000028
C35	C	1.385718	-0.297258	-0.000009
C36	C	1.387058	-0.246846	0.000031
N37	N	1.503472	-0.226989	0.000036
C38	C	1.618540	-0.257555	0.000040
C39	C	1.374807	-0.705691	-0.000020
C40	C	1.373460	-0.756114	-0.000020
C41	C	1.604950	-0.766824	-0.000009
C42	C	1.606296	-0.716400	0.000001
C43	C	1.491221	-0.685834	-0.000015
C44	C	1.621356	-0.151668	0.000068
C45	C	1.622691	-0.101243	0.000086
C46	C	1.391201	-0.090538	0.000068
C47	C	1.389865	-0.140959	0.000057
C48	C	1.504953	-0.171523	0.000052
O49	O	1.289377	-0.216177	0.000071
O50	O	1.717666	-0.236029	0.000028
C51	C	1.613157	-0.459239	0.000003
C52	C	1.496745	-0.479094	-0.000014
C53	C	1.381678	-0.448528	-0.000019
C54	C	1.495398	-0.529517	-0.000014
C55	C	1.610465	-0.560083	-0.000009
C56	C	1.726879	-0.540226	-0.000005
C57	C	1.728224	-0.489806	0.000008
C58	C	1.265264	-0.468384	-0.000023
C59	C	1.263928	-0.518805	-0.000034
C60	C	1.378995	-0.549371	-0.000030
C61	C	1.730203	0.068594	0.000048
C62	C	1.871089	0.070034	0.000044
C63	C	1.487075	0.159656	0.000005
C64	C	1.488527	0.213320	-0.000015
N65	N	1.498043	0.071324	0.360382
N66	N	1.498118	0.071316	-0.360303
C67	C	1.392711	0.110527	0.580733
C68	C	1.392932	0.110674	0.419565
C69	C	1.630268	0.082797	0.418833
C70	C	1.629691	0.083074	0.580051
C71	C	1.472477	0.020519	0.580311
C72	C	1.469416	0.020848	0.419084
H73	H	0.916356	-0.003786	0.095309
H74	H	1.824622	-0.413847	0.000031
H75	H	1.653575	0.119438	0.378430
N76	N	1.564601	-0.019662	0.365747
H77	H	1.543812	-0.051611	0.405178
H78	H	1.560279	-0.020743	0.260889
H79	H	1.378214	0.009599	0.621048
N80	N	0.905234	-0.010555	-0.124168
H81	H	0.982846	-0.020831	-0.183158
H82	H	0.866213	-0.040255	-0.091805
H83	H	1.173136	-0.383693	-0.000050
H84	H	1.372155	0.012152	0.380883
N85	N	1.138348	-0.540214	-0.000067
H86	H	1.154941	-0.576795	-0.000078
H87	H	1.088021	-0.529067	0.085669
N88	N	1.731863	-0.694988	0.000022
H89	H	1.804546	-0.722007	0.000029
H90	H	1.737483	-0.674298	-0.085722
N91	N	1.148200	-0.008044	0.125467
H92	H	1.078403	-0.020977	0.181600
H93	H	1.211448	-0.035934	0.093830
N94	N	1.147075	-0.008239	-0.125570
H95	H	1.108939	0.007552	-0.212954
H96	H	1.242617	-0.007400	-0.126319
H97	H	0.888448	0.077519	-0.230876
H98	H	1.698643	-0.791720	-0.000005
N99	N	1.853794	-0.468395	0.000030
H100	H	1.926474	-0.495416	0.000031
H101	H	1.859415	-0.447704	-0.085709
N102	N	0.850471	0.149113	0.132035
H103	H	0.792793	0.154457	0.048285
H104	H	0.798145	0.154707	0.219716
N105	N	1.574305	-0.018143	0.630812
H106	H	1.636753	-0.002856	0.691859
H107	H	1.533254	-0.043243	0.685945
H108	H	1.295065	-0.157124	0.000081
N109	N	1.414228	0.160637	0.368589
H110	H	1.498998	0.169280	0.404058
H111	H	1.414333	0.160970	0.263566
H112	H	1.175585	-0.292227	-0.000043
H113	H	0.866171	0.135257	-0.138167
N114	N	1.089631	0.150709	-0.138618
H115	H	1.143107	0.158144	-0.055831
H116	H	1.137511	0.156230	-0.227145
N117	N	1.850990	-0.573199	0.000013
H118	H	1.832458	-0.608152	0.000005
H119	H	1.901782	-0.566722	-0.085726
N120	N	1.141142	-0.435424	-0.000016
H121	H	1.136529	-0.414272	0.085731
H122	H	1.136606	-0.414289	-0.085805
N123	N	1.117534	0.073202	0.262034
H124	H	1.047064	0.060327	0.317230
H125	H	1.183045	0.045422	0.234807
H126	H	1.717499	-0.085081	0.000105
H127	H	1.827062	-0.322384	0.000055
N128	N	1.745482	-0.184630	0.000063
H129	H	1.819424	-0.164395	0.000079
H130	H	1.749960	-0.205789	0.085803
N131	N	1.413946	0.160171	0.634313
H132	H	1.427863	0.182167	0.553317
H133	H	1.336625	0.174188	0.688899
H134	H	1.710524	0.055665	0.619053
H135	H	1.278658	-0.772274	-0.000011
H136	H	1.652437	0.120134	0.617626
N137	N	1.119733	0.074675	-0.262260
H138	H	1.186411	0.047162	-0.235986
H139	H	1.050450	0.061606	-0.318845
H140	H	1.294616	0.103771	0.380048
H141	H	1.710529	0.055017	0.380494
N142	N	0.874469	0.074697	0.263492
H143	H	0.778380	0.075812	0.265359
H144	H	0.914005	0.039834	0.267786
N145	N	1.262058	0.101530	0.632139
H146	H	1.242623	0.068390	0.600710
H147	H	1.260273	0.103104	0.737059
N148	N	1.092035	0.150091	0.143149
H149	H	1.146953	0.157764	0.061775
H150	H	1.009825	0.172608	0.142015
H151	H	1.297516	-0.065642	0.000069
N152	N	1.250682	-0.672727	-0.000034
H153	H	1.176740	-0.692962	-0.000033
H154	H	1.246184	-0.651576	0.085709
