data_functionalizedCrystal
_audit_creation_method	'MofGen! by Chris Wilmer'
_symmetry_space_group_name_H-M	'P1'
_symmetry_Int_Tables_number	1
_symmetry_cell_setting	triclinic
loop_
_symmetry_equiv_pos_as_xyz
  x,y,z
_cell_length_a	27.732048
_cell_length_b	27.732064
_cell_length_c	16.176319
_cell_angle_alpha	89.997275
_cell_angle_beta	89.998071
_cell_angle_gamma	82.646039
loop_
_atom_site_label
_atom_site_type_symbol
_atom_site_fract_x
_atom_site_fract_y
_atom_site_fract_z
O1	O	0.640932	0.057518	-0.068633
O2	O	0.500140	0.066263	-0.068657
O3	O	0.574905	-0.008506	-0.068648
O4	O	0.566167	0.132287	-0.068643
O5	O	0.574894	-0.008510	0.068845
O6	O	0.500129	0.066258	0.068836
O7	O	0.640922	0.057513	0.068860
Cu8	Cu	0.570525	0.061885	0.081402
Cu9	Cu	0.570537	0.061891	-0.081199
O10	O	0.566157	0.132282	0.068850
C11	C	0.482127	0.066077	0.000086
C12	C	0.428473	0.065524	0.000077
C13	C	0.574715	-0.026515	0.000096
C14	C	0.574159	-0.080169	0.000088
C15	C	0.526192	-0.457242	0.000077
C16	C	0.528238	-0.255582	0.000076
O17	O	0.491017	-0.224329	0.000037
N18	N	0.572572	-0.236454	0.000084
C19	C	0.616398	-0.267745	0.000086
O20	O	0.654154	-0.246849	0.000084
C21	C	0.614351	-0.469405	0.000081
C22	C	0.570014	-0.488529	0.000082
C23	C	0.481858	-0.476367	0.000077
C24	C	0.481347	-0.526779	0.000082
C25	C	0.525169	-0.558066	0.000086
C26	C	0.569503	-0.538941	0.000086
C27	C	0.658177	-0.500695	0.000077
C28	C	0.657661	-0.551112	0.000074
C29	C	0.613324	-0.570237	0.000075
C30	C	0.612814	-0.620640	0.000096
N31	N	0.568480	-0.639768	0.000088
C32	C	0.524658	-0.608481	0.000084
C33	C	0.617469	-0.161871	0.000090
C34	C	0.617981	-0.111456	0.000093
C35	C	0.529821	-0.099296	0.000082
C36	C	0.529310	-0.149712	0.000085
C37	C	0.573135	-0.180998	0.000083
C38	C	0.523588	-0.714350	0.000094
C39	C	0.523080	-0.764767	0.000102
C40	C	0.611241	-0.776923	0.000109
C41	C	0.611748	-0.726511	0.000105
C42	C	0.567918	-0.695225	0.000095
O43	O	0.650016	-0.651921	0.000126
O44	O	0.486907	-0.629387	0.000068
C45	C	0.526703	-0.406830	0.000072
C46	C	0.571036	-0.387705	0.000072
C47	C	0.614859	-0.418992	0.000077
C48	C	0.571548	-0.337290	0.000075
C49	C	0.527726	-0.306003	0.000070
C50	C	0.483391	-0.325131	0.000063
C51	C	0.482880	-0.375543	0.000068
C52	C	0.659193	-0.399865	0.000084
C53	C	0.659701	-0.349452	0.000081
C54	C	0.615878	-0.318165	0.000076
C55	C	0.089660	0.106228	0.000114
C56	C	-0.112000	0.104177	0.000121
O57	O	-0.143253	0.141397	0.000158
N58	N	-0.131126	0.059842	0.000118
C59	C	-0.099834	0.016017	0.000119
O60	O	-0.120730	-0.021740	0.000125
C61	C	0.101825	0.018068	0.000117
C62	C	0.120948	0.062406	0.000112
C63	C	0.108784	0.150562	0.000110
C64	C	0.159196	0.151074	0.000103
C65	C	0.190484	0.107252	0.000101
C66	C	0.171360	0.062918	0.000106
C67	C	0.133116	-0.025756	0.000124
C68	C	0.183533	-0.025240	0.000126
C69	C	0.202656	0.019098	0.000120
C70	C	0.253060	0.019609	0.000098
N71	N	0.272186	0.063944	0.000101
C72	C	0.240898	0.107765	0.000102
C73	C	-0.205708	0.014943	0.000118
C74	C	-0.256123	0.014430	0.000117
C75	C	-0.268285	0.102590	0.000121
C76	C	-0.217870	0.103103	0.000116
C77	C	-0.186582	0.059278	0.000121
C78	C	0.346768	0.108838	0.000088
C79	C	0.397185	0.109346	0.000079
C80	C	0.409342	0.021186	0.000079
C81	C	0.358930	0.020678	0.000084
C82	C	0.327643	0.064507	0.000092
O83	O	0.284342	-0.017592	0.000070
O84	O	0.261803	0.145516	0.000115
C85	C	0.039248	0.105716	0.000120
C86	C	0.020124	0.061381	0.000125
C87	C	0.051412	0.017560	0.000123
C88	C	-0.030290	0.060868	0.000124
C89	C	-0.061578	0.104690	0.000126
C90	C	-0.042452	0.149025	0.000129
C91	C	0.007960	0.149537	0.000122
C92	C	0.032286	-0.026775	0.000120
C93	C	-0.018127	-0.027284	0.000125
C94	C	-0.049415	0.016538	0.000127
C95	C	0.658934	0.057699	0.000115
C96	C	0.712589	0.058252	0.000119
C97	C	0.566347	0.150291	0.000105
C98	C	0.566903	0.203945	0.000107
N99	N	0.570520	0.061881	0.195767
N100	N	0.570546	0.061891	-0.195565
C101	C	0.603636	0.028787	0.239036
C102	C	0.603638	0.028786	0.325583
C103	C	0.570527	0.061883	0.368860
C104	C	0.537407	0.094979	0.325586
C105	C	0.537403	0.094976	0.239040
C106	C	0.537424	0.094988	0.674614
C107	C	0.537432	0.094988	0.761165
C108	C	0.603659	0.028797	0.761157
C109	C	0.603655	0.028795	0.674611
C110	C	0.570534	0.061889	0.631344
C111	C	0.570531	0.061889	0.537500
C112	C	0.570532	0.061886	0.462703
H113	H	0.487897	-0.688883	0.000086
N114	N	0.639382	-0.006898	0.807826
H115	H	0.621077	-0.028177	0.843740
H116	H	0.660350	-0.027829	0.767224
H117	H	0.510467	0.121940	0.796400
H118	H	0.446171	-0.450897	0.000071
N119	N	0.639352	-0.006908	0.192361
H120	H	0.660330	-0.027873	0.232908
H121	H	0.621005	-0.028152	0.156460
H122	H	-0.033692	-0.063392	0.000123
H123	H	0.023525	0.185642	0.000119
N124	N	0.481490	-0.170337	0.000089
H125	H	0.453809	-0.142863	0.000090
H126	H	0.479355	-0.190987	-0.050882
N127	N	0.639372	-0.006892	0.372252
H128	H	0.660355	-0.027850	0.331704
H129	H	0.660595	0.011489	0.408137
H130	H	0.694879	-0.425334	0.000087
N131	N	0.501693	0.130672	0.372265
H132	H	0.520006	0.151950	0.408164
H133	H	0.480720	0.151604	0.331670
H134	H	0.654085	-0.095890	0.000105
N135	N	-0.197251	0.150926	0.000118
H136	H	-0.176607	0.153105	0.051088
H137	H	-0.176627	0.153080	-0.050883
H138	H	0.494139	-0.073813	0.000082
H139	H	0.117555	-0.061861	0.000129
H140	H	0.083313	0.186249	0.000114
N141	N	-0.076203	0.196291	0.000125
H142	H	-0.111041	0.189234	0.000129
H143	H	-0.070050	0.215628	0.051096
N144	N	0.313035	0.156115	0.000093
H145	H	0.291845	0.157875	-0.050873
H146	H	0.291879	0.157846	0.051098
H147	H	0.630619	0.001847	0.639378
N148	N	-0.276749	-0.033389	0.000113
H149	H	-0.265314	-0.052570	-0.050855
H150	H	-0.265310	-0.052532	0.051116
N151	N	0.664741	-0.195613	0.000094
H152	H	0.692901	-0.175841	0.000103
H153	H	0.666447	-0.216796	0.051065
H154	H	0.693350	-0.576584	0.000067
H155	H	-0.293769	0.138272	0.000123
N156	N	-0.171965	-0.032328	0.000127
H157	H	-0.191737	-0.060488	0.000124
H158	H	-0.150781	-0.034038	-0.050842
H159	H	0.647851	-0.710939	0.000117
N160	N	0.435059	-0.396166	0.000075
H161	H	0.407380	-0.368690	0.000073
H162	H	0.432923	-0.416818	-0.050893
N163	N	0.501700	0.130677	0.627954
H164	H	0.480727	0.151643	0.668504
H165	H	0.520039	0.151922	0.592033
N166	N	0.066023	-0.074046	0.000110
H167	H	0.087209	-0.075798	-0.050862
H168	H	0.087183	-0.075780	0.051109
H169	H	0.209006	-0.060928	0.000130
N170	N	0.338300	-0.027142	0.000074
H171	H	0.365773	-0.054825	0.000068
H172	H	0.317651	-0.029278	0.051050
N173	N	0.443093	-0.026077	0.000077
H174	H	0.477931	-0.019021	0.000078
H175	H	0.436938	-0.045414	0.051052
H176	H	0.646920	-0.802406	0.000117
N177	N	0.501682	0.130671	0.192374
H178	H	0.506992	0.164942	0.207425
H179	H	0.506719	0.125605	0.130996
N180	N	0.475255	-0.785389	0.000109
H181	H	0.456076	-0.773956	-0.050862
H182	H	0.481615	-0.822071	0.000148
N183	N	0.433526	-0.547403	0.000089
H184	H	0.405846	-0.519927	0.000086
H185	H	0.431390	-0.568054	-0.050880
H186	H	0.694281	-0.485133	0.000076
H187	H	0.447710	-0.299648	0.000064
H188	H	0.174761	0.187179	0.000099
H189	H	0.412752	0.145453	0.000074
N190	N	0.707524	-0.328828	0.000088
H191	H	0.735206	-0.356302	0.000090
H192	H	0.709660	-0.308177	-0.050886
