data_functionalizedCrystal
_audit_creation_method	'MofGen! by Chris Wilmer'
_symmetry_space_group_name_H-M	'P1'
_symmetry_Int_Tables_number	1
_symmetry_cell_setting	triclinic
loop_
_symmetry_equiv_pos_as_xyz
  x,y,z
_cell_length_a	15.995343
_cell_length_b	15.995292
_cell_length_c	10.065875
_cell_angle_alpha	98.790453
_cell_angle_beta	81.257322
_cell_angle_gamma	83.478900
loop_
_atom_site_label
_atom_site_type_symbol
_atom_site_fract_x
_atom_site_fract_y
_atom_site_fract_z
O1	O	1.123205	0.095606	-0.113346
O2	O	0.879429	0.108937	-0.113378
O3	O	1.008006	-0.019620	-0.113363
O4	O	0.994628	0.224163	-0.113361
O5	O	0.983488	0.004993	0.113623
O6	O	0.854911	0.133550	0.113608
O7	O	1.098687	0.120219	0.113640
Zn8	Zn	0.972906	0.130792	0.149663
Zn9	Zn	1.005210	0.098364	-0.149401
O10	O	0.970110	0.248775	0.113625
C11	C	0.835976	0.120693	0.000111
C12	C	0.743027	0.119042	0.000099
C13	C	0.995203	-0.038509	0.000126
C14	C	0.993572	-0.131463	0.000116
C15	C	0.572839	0.116051	0.000117
C16	C	0.549513	0.023251	0.000116
C17	C	0.452779	0.021562	0.000639
C18	C	0.405278	0.113104	0.000133
C19	C	0.420387	0.173792	0.129496
C20	C	0.517168	0.174904	0.129597
C21	C	0.544961	0.148272	-0.128538
C22	C	0.448649	0.144663	-0.130230
C23	C	0.310579	0.111444	0.000147
C24	C	0.667537	0.117714	0.000112
C25	C	0.987569	-0.469200	0.000128
C26	C	1.080318	-0.445834	0.000647
C27	C	1.082138	-0.349215	0.000130
C28	C	0.990548	-0.301645	0.000123
C29	C	0.958151	-0.344800	-0.129499
C30	C	0.957045	-0.441602	-0.129603
C31	C	0.927268	-0.413470	0.128522
C32	C	0.930523	-0.316792	0.130231
C33	C	0.992227	-0.206950	0.000115
C34	C	0.985889	-0.563896	0.000126
C35	C	1.142140	0.108463	0.000148
C36	C	1.235090	0.110112	0.000151
C37	C	0.982913	0.267665	0.000133
C38	C	0.984545	0.360618	0.000134
N39	N	0.950866	0.152923	0.353766
N40	N	1.027256	0.076227	-0.353504
C41	C	0.997536	0.106059	0.421550
C42	C	0.980580	0.123097	0.578715
H43	H	0.443782	-0.025017	-0.092075
H44	H	0.583831	0.108359	-0.226621
C45	C	0.437547	0.084743	-0.259526
N46	N	0.429179	0.039611	-0.356910
C47	C	1.098203	0.004980	0.567721
N48	N	1.151641	-0.048679	0.508387
C49	C	0.536034	0.267647	0.137057
N50	N	0.550239	0.337501	0.142685
H51	H	0.388046	0.241687	0.133944
C52	C	0.414263	-0.013870	0.126666
N53	N	0.385252	-0.040552	0.221603
C54	C	0.879924	0.224166	0.432549
N55	N	0.826489	0.277828	0.491887
C56	C	0.909634	0.194344	0.657493
N57	N	0.856199	0.248006	0.716831
C58	C	0.600909	-0.038937	-0.125175
N59	N	0.639631	-0.085779	-0.219542
H60	H	0.862826	-0.282973	0.138053
H61	H	0.568500	-0.002089	0.092744
C62	C	0.867806	-0.302448	-0.136030
N63	N	0.799758	-0.270545	-0.140947
C64	C	0.379158	0.144694	0.260051
N65	N	0.348107	0.122772	0.358382
H66	H	0.533476	0.153492	0.226664
H67	H	0.416565	0.210607	-0.138441
C68	C	0.564064	0.240364	-0.130232
N69	N	0.578458	0.309725	-0.131499
H70	H	1.108439	-0.320116	0.093047
C71	C	1.115084	-0.470047	0.126224
N72	N	1.141271	-0.488291	0.220813
C73	C	1.141864	-0.498573	-0.124220
N74	N	1.188218	-0.538297	-0.218273
C75	C	1.145096	-0.337982	-0.125610
N76	N	1.192517	-0.329524	-0.220326
C77	C	1.014605	-0.492026	-0.260485
N78	N	1.057966	-0.530002	-0.359063
C79	C	0.865984	-0.462124	-0.137585
N80	N	0.797400	-0.477579	-0.143610
C81	C	1.015759	-0.331840	-0.259812
N82	N	1.059155	-0.322082	-0.357961
H83	H	0.945882	-0.430905	0.226774
C84	C	0.962151	-0.277636	0.259782
N85	N	0.985968	-0.248129	0.357359
H86	H	0.858863	-0.427364	0.129389
H87	H	1.050042	0.053319	0.363232
