data_functionalizedCrystal
_audit_creation_method	'MofGen! by Chris Wilmer'
_symmetry_space_group_name_H-M	'P1'
_symmetry_Int_Tables_number	1
_symmetry_cell_setting	triclinic
loop_
_symmetry_equiv_pos_as_xyz
  x,y,z
_cell_length_a	12.594517
_cell_length_b	12.594516
_cell_length_c	12.594510
_cell_angle_alpha	89.967679
_cell_angle_beta	89.978880
_cell_angle_gamma	90.015853
loop_
_atom_site_label
_atom_site_type_symbol
_atom_site_fract_x
_atom_site_fract_y
_atom_site_fract_z
Zn1	Zn	1.627265	-0.423651	-0.601875
Zn2	Zn	1.627156	-0.601681	-0.423903
Zn3	Zn	1.449269	-0.423716	-0.423904
Zn4	Zn	1.449251	-0.601588	-0.601833
O5	O	1.538235	-0.512659	-0.512879
O6	O	1.776196	-0.447279	-0.578284
O7	O	1.603522	-0.578139	-0.274957
O8	O	1.472934	-0.274762	-0.447530
O9	O	1.776116	-0.578077	-0.447528
O10	O	1.603706	-0.274714	-0.578285
O11	O	1.472829	-0.447389	-0.274958
O12	O	1.300321	-0.447299	-0.447489
O13	O	1.472903	-0.577918	-0.750784
O14	O	1.300308	-0.577981	-0.578213
O15	O	1.603689	-0.447189	-0.750815
O16	O	1.603504	-0.750614	-0.447488
O17	O	1.472797	-0.750546	-0.578212
C18	C	1.261694	-0.512638	-0.512847
C19	C	1.143389	-0.512654	-0.512859
C20	C	1.074112	-0.441479	-0.441894
C21	C	1.003301	-0.538571	-0.415718
C22	C	1.003401	-0.415610	-0.539054
C23	C	1.074136	-0.609797	-0.486632
C24	C	1.074242	-0.486770	-0.610013
C25	C	1.003463	-0.583929	-0.583874
C26	C	1.538166	-0.789200	-0.512868
C27	C	1.538233	-0.907505	-0.512899
C28	C	1.467135	-0.976760	-0.583950
C29	C	1.441202	-1.047636	-0.486827
C30	C	1.564263	-1.047429	-0.610039
C31	C	1.512249	-0.976823	-0.415725
C32	C	1.635355	-0.976610	-0.539002
C33	C	1.609459	-1.047453	-0.441812
C34	C	1.815856	-0.512681	-0.512911
C35	C	1.934162	-0.512691	-0.512924
C36	C	1.538306	-0.512536	-0.790500
C37	C	1.538336	-0.512484	-0.908805
C38	C	1.538334	-0.235038	-0.512912
C39	C	1.538377	-0.116733	-0.512927
C40	C	1.609491	-0.441375	-0.978075
C41	C	1.512415	-0.415322	-1.048865
C42	C	1.635468	-0.538462	-1.048814
C43	C	1.441208	-0.486381	-0.978037
C44	C	1.564326	-0.609566	-0.977980
C45	C	1.467183	-0.583550	-1.048738
C46	C	1.538227	-0.512705	-0.236338
C47	C	1.538403	-0.512457	-0.118033
H48	H	1.105078	-0.691905	-0.464413
H49	H	0.972637	-0.644204	-0.643914
C50	C	1.115898	-0.457727	-0.719527
C51	C	1.177006	-0.541633	-0.759270
C52	C	1.215390	-0.514908	-0.860155
H53	H	1.158539	-0.395700	-0.714663
H54	H	1.057835	-0.444727	-0.765876
H55	H	1.235061	-0.554620	-0.712933
H56	H	1.134388	-0.603669	-0.764161
H57	H	1.157327	-0.501908	-0.906504
H58	H	1.258027	-0.452879	-0.855280
H59	H	1.256848	-0.571837	-0.887138
H60	H	0.972274	-0.333537	-0.561146
C61	C	1.689741	-0.361231	-0.936838
C62	C	1.791031	-0.387672	-0.974256
C63	C	1.864974	-0.313859	-0.936299
H64	H	1.689748	-0.362187	-0.861422
H65	H	1.671191	-0.292265	-0.961142
H66	H	1.809576	-0.456620	-0.949946
H67	H	1.791058	-0.386709	-1.049667
H68	H	1.846424	-0.244892	-0.960604
H69	H	1.864971	-0.314820	-0.860885
H70	H	1.933705	-0.331783	-0.961690
C71	C	1.744923	-0.568001	-1.090207
C72	C	1.772546	-0.668978	-1.052774
C73	C	1.873363	-0.696220	-1.090891
H74	H	1.795474	-0.517525	-1.066037
H75	H	1.744016	-0.568479	-1.165633
H76	H	1.773461	-0.668493	-0.977363
H77	H	1.722023	-0.719478	-1.076940
H78	H	1.872456	-0.696698	-1.166317
H79	H	1.923905	-0.645737	-1.066719
H80	H	1.892113	-0.764739	-1.065506
H81	H	1.586316	-0.691655	-0.946822
C82	C	1.386659	-0.935418	-0.663812
C83	C	1.285191	-0.971392	-0.635993
C84	C	1.211027	-0.933316	-0.709522
H85	H	1.404280	-0.960607	-0.732674
H86	H	1.387548	-0.859989	-0.663682
H87	H	1.284304	-1.046805	-0.636133
H88	H	1.267536	-0.946205	-0.567143
H89	H	1.211916	-0.857887	-0.709393
H90	H	1.228658	-0.958508	-0.778380
H91	H	1.142172	-0.957710	-0.690652
H92	H	1.105133	-0.381348	-0.381807
C93	C	1.331860	-1.089449	-0.457361
C94	C	1.333656	-1.200602	-0.456807
C95	C	1.232952	-1.239153	-0.429663
H96	H	1.281280	-1.065365	-0.507846
H97	H	1.312918	-1.064295	-0.388822
H98	H	1.352585	-1.225745	-0.525336
H99	H	1.384215	-1.224715	-0.406320
H100	H	1.214010	-1.213999	-0.361124
H101	H	1.182380	-1.215062	-0.480151
H102	H	1.234159	-1.314573	-0.429274
C103	C	1.593697	-1.088932	-0.719464
C104	C	1.686303	-1.149978	-0.712174
C105	C	1.713432	-1.188235	-0.812953
H106	H	1.605503	-1.030840	-0.766134
H107	H	1.537477	-1.131585	-0.746095
H108	H	1.742510	-1.107326	-0.685558
H109	H	1.674522	-1.208085	-0.665524
H110	H	1.657211	-1.230889	-0.839584
H111	H	1.725232	-1.130137	-0.859616
H112	H	1.776261	-1.229667	-0.808019
C113	C	1.386731	-0.663577	-1.089802
C114	C	1.285279	-0.635872	-1.053766
C115	C	1.211136	-0.709554	-1.091587
H116	H	1.404440	-0.732385	-1.064481
H117	H	1.387535	-0.663530	-1.165232
H118	H	1.284478	-0.635930	-0.978352
H119	H	1.267537	-0.567076	-1.079085
H120	H	1.211940	-0.709507	-1.167018
H121	H	1.228855	-0.778358	-1.066264
H122	H	1.142292	-0.690761	-1.067151
H123	H	1.490196	-0.945936	-0.333563
C124	C	1.483317	-0.305846	-1.090540
C125	C	1.566439	-0.266813	-1.153263
C126	C	1.539680	-0.165971	-1.191679
H127	H	1.471544	-0.259149	-1.032520
H128	H	1.420555	-0.310620	-1.132092
H129	H	1.629182	-0.262033	-1.111713
H130	H	1.578223	-0.313480	-1.211298
H131	H	1.476919	-0.170745	-1.233230
H132	H	1.527907	-0.119283	-1.133652
H133	H	1.596069	-0.139478	-1.234248
C134	C	0.961803	-0.567589	-0.306130
C135	C	0.997568	-0.492791	-0.232117
C136	C	0.959354	-0.519472	-0.131156
H137	H	0.987038	-0.636017	-0.286911
H138	H	0.886376	-0.567981	-0.307066
H139	H	1.072979	-0.492410	-0.231178
H140	H	0.972336	-0.424357	-0.251301
H141	H	0.883927	-0.519863	-0.132092
H142	H	0.984591	-0.587901	-0.111948
H143	H	0.983606	-0.468721	-0.080928
C144	C	1.689693	-1.088804	-0.361715
C145	C	1.689536	-1.199962	-0.363210
C146	C	1.763436	-1.238095	-0.289446
H147	H	1.671173	-1.064612	-0.292730
H148	H	1.758459	-1.063471	-0.379663
H149	H	1.620784	-1.225285	-0.345256
H150	H	1.708067	-1.224182	-0.432177
H151	H	1.832202	-1.212762	-0.307394
H152	H	1.744909	-1.213896	-0.220466
H153	H	1.763346	-1.313519	-0.290458
C154	C	1.744853	-0.935124	-0.568326
C155	C	1.819413	-0.972523	-0.494853
C156	C	1.920295	-0.934341	-0.521854
H157	H	1.744311	-0.859711	-0.567442
H158	H	1.763259	-0.959287	-0.637366
H159	H	1.801012	-0.948355	-0.425831
H160	H	1.819989	-1.047932	-0.495727
H161	H	1.938702	-0.958503	-0.590893
H162	H	1.919742	-0.858928	-0.520969
H163	H	1.970898	-0.959718	-0.472013
H164	H	1.359068	-0.464301	-0.947078
