data_functionalizedCrystal
_audit_creation_method	'MofGen! by Chris Wilmer'
_symmetry_space_group_name_H-M	'P1'
_symmetry_Int_Tables_number	1
_symmetry_cell_setting	triclinic
loop_
_symmetry_equiv_pos_as_xyz
  x,y,z
_cell_length_a	19.188930
_cell_length_b	14.044220
_cell_length_c	12.503572
_cell_angle_alpha	93.835250
_cell_angle_beta	93.506241
_cell_angle_gamma	91.833170
loop_
_atom_site_label
_atom_site_type_symbol
_atom_site_fract_x
_atom_site_fract_y
_atom_site_fract_z
O1	O	0.164589	-1.262485	-0.089229
O2	O	0.497922	-0.929151	0.244105
O3	O	0.831256	-0.595818	0.577438
O4	O	0.158515	-0.986542	-0.089255
O5	O	0.491849	-0.653209	0.244078
O6	O	0.825182	-0.319876	0.577412
O7	O	0.060411	-1.132475	-0.089220
O8	O	0.393745	-0.799142	0.244113
O9	O	0.727078	-0.465809	0.577446
O10	O	0.262693	-1.116552	-0.089264
O11	O	0.596026	-0.783218	0.244070
O12	O	0.929360	-0.449885	0.577403
O13	O	0.067803	-1.121500	0.089419
O14	O	0.401136	-0.788167	0.422752
O15	O	0.734469	-0.454834	0.756086
O16	O	0.165907	-0.975567	0.089384
O17	O	0.499240	-0.642234	0.422718
O18	O	0.832573	-0.308901	0.756051
O19	O	0.171980	-1.251510	0.089411
O20	O	0.505314	-0.918176	0.422744
O21	O	0.838647	-0.584843	0.756077
Cu22	Cu	0.169618	-1.112536	0.105709
Cu23	Cu	0.502952	-0.779203	0.439042
Cu24	Cu	0.836285	-0.445870	0.772375
Cu25	Cu	0.160877	-1.125516	-0.105553
Cu26	Cu	0.494211	-0.792182	0.227780
Cu27	Cu	0.827544	-0.458849	0.561114
O28	O	0.270084	-1.105577	0.089376
O29	O	0.603418	-0.772243	0.422709
O30	O	0.936751	-0.438910	0.756042
C31	C	0.159553	-0.945752	0.000061
C32	C	0.492886	-0.612418	0.333395
C33	C	0.826219	-0.279085	0.666728
C34	C	0.151624	-0.840559	0.000052
C35	C	0.484957	-0.507226	0.333386
C36	C	0.818290	-0.173892	0.666719
C37	C	0.038063	-1.126472	0.000102
C38	C	0.371396	-0.793138	0.333436
C39	C	0.704730	-0.459805	0.666769
C40	C	-0.039541	-1.124923	0.000112
C41	C	0.293792	-0.791590	0.333445
C42	C	0.627125	-0.458256	0.666778
N43	N	0.175766	-1.103414	0.254299
N44	N	0.509100	-0.770081	0.587632
N45	N	0.842433	-0.436748	0.920965
C46	C	-0.078939	-1.210552	0.000125
C47	C	0.254395	-0.877219	0.333458
C48	C	0.587728	-0.543886	0.666792
C49	C	-0.151857	-1.209099	0.000108
C50	C	0.181476	-0.875765	0.333441
C51	C	0.514809	-0.542432	0.666774
C52	C	-0.185374	-1.122010	0.000098
C53	C	0.147959	-0.788677	0.333432
C54	C	0.481293	-0.455343	0.666765
C55	C	-0.145968	-1.036370	0.000079
C56	C	0.187366	-0.703037	0.333412
C57	C	0.520699	-0.369703	0.666746
C58	C	-0.073051	-1.037826	0.000086
C59	C	0.260282	-0.704493	0.333419
C60	C	0.593616	-0.371160	0.666752
N61	N	-0.295160	-1.051706	0.060886
N62	N	0.038174	-0.718373	0.394220
N63	N	0.371507	-0.385039	0.727553
N64	N	-0.364427	-1.050328	0.060882
N65	N	-0.031094	-0.716995	0.394216
N66	N	0.302239	-0.383661	0.727549
C67	C	-0.405067	-1.117616	0.000076
C68	C	-0.071734	-0.784283	0.333410
C69	C	0.261599	-0.450950	0.666743
N70	N	-0.373823	-1.186348	-0.060712
N71	N	-0.040489	-0.853015	0.272621
N72	N	0.292844	-0.519682	0.605954
N73	N	-0.304548	-1.187729	-0.060704
N74	N	0.028785	-0.854396	0.272630
N75	N	0.362118	-0.521062	0.605963
C76	C	-0.264440	-1.120421	0.000091
C77	C	0.068894	-0.787088	0.333424
C78	C	0.402227	-0.453754	0.666757
C79	C	-0.523532	-1.201676	0.000069
C80	C	-0.190198	-0.868342	0.333403
C81	C	0.143135	-0.535009	0.666736
C82	C	-0.596451	-1.200219	0.000045
C83	C	-0.263118	-0.866886	0.333379
C84	C	0.070215	-0.533552	0.666712
C85	C	-0.590560	-1.027487	0.000028
C86	C	-0.257227	-0.694154	0.333361
C87	C	0.076107	-0.360820	0.666694
C88	C	-0.517642	-1.028947	0.000041
C89	C	-0.184309	-0.695613	0.333374
C90	C	0.149025	-0.362280	0.666707
C91	C	-0.484132	-1.116043	0.000067
C92	C	-0.150799	-0.782710	0.333400
C93	C	0.182535	-0.449377	0.666733
C94	C	0.292433	-1.111580	0.000051
C95	C	0.625766	-0.778247	0.333384
C96	C	0.959099	-0.444914	0.666717
C97	C	0.370037	-1.113129	0.000034
C98	C	0.703370	-0.779796	0.333368
C99	C	1.036703	-0.446463	0.666701
C100	C	0.170943	-1.292301	0.000092
C101	C	0.504276	-0.958967	0.333425
C102	C	0.837610	-0.625634	0.666758
C103	C	0.178872	-1.397493	0.000094
C104	C	0.512205	-1.064160	0.333427
C105	C	0.845538	-0.730827	0.666760
C106	C	0.137129	-0.647956	0.000077
C107	C	0.470462	-0.314623	0.333410
C108	C	0.803796	0.018710	0.666743
C109	C	0.193363	-0.590090	0.000069
C110	C	0.526697	-0.256757	0.333403
C111	C	0.860030	0.076576	0.666736
C112	C	0.185298	-0.482920	0.000083
C113	C	0.518632	-0.149586	0.333416
C114	C	0.851965	0.183747	0.666749
C115	C	0.145193	-0.755137	0.000063
C116	C	0.478526	-0.421804	0.333396
C117	C	0.811860	-0.088471	0.666730
N118	N	0.154724	-1.134645	-0.254143
N119	N	0.488058	-0.801312	0.079190
N120	N	0.821391	-0.467979	0.412523
C121	C	0.184816	-1.089995	0.473411
C122	C	0.518150	-0.756662	0.806744
C123	C	0.851483	-0.423329	1.140077
C124	C	0.145676	-1.148061	0.526752
C125	C	0.479010	-0.814728	0.860085
C126	C	0.812343	-0.481394	1.193418
C127	C	0.150712	-1.140595	0.648673
C128	C	0.484045	-0.807261	0.982006
C129	C	0.817379	-0.473928	1.315340
C130	C	0.179782	-1.097461	0.351478
C131	C	0.513115	-0.764127	0.684812
C132	C	0.846448	-0.430794	1.018145
H133	H	-0.051660	-1.281473	0.000142
H134	H	0.281673	-0.948140	0.333476
H135	H	0.615007	-0.614807	0.666809
C136	C	-0.182837	-0.940571	0.000077
C137	C	0.150496	-0.607238	0.333410
C138	C	0.483829	-0.273905	0.666744
N139	N	-0.210607	-0.868413	0.000075
N140	N	0.122726	-0.535080	0.333408
N141	N	0.456059	-0.201746	0.666741
C142	C	-0.195203	-1.303301	0.000129
C143	C	0.138131	-0.969967	0.333462
C144	C	0.471464	-0.636634	0.666796
N145	N	-0.227848	-1.374254	0.000148
N146	N	0.105485	-1.040920	0.333482
N147	N	0.438818	-0.707587	0.666815
C148	C	-0.029712	-0.943623	0.000074
C149	C	0.303621	-0.610290	0.333408
C150	C	0.636955	-0.276957	0.666741
N151	N	0.002932	-0.872668	0.000068
N152	N	0.336266	-0.539334	0.333401
N153	N	0.669599	-0.206001	0.666734
H154	H	0.082933	-0.617011	0.000094
H155	H	0.416266	-0.283677	0.333428
H156	H	0.749599	0.049656	0.666761
H157	H	0.222105	-1.034680	0.519305
H158	H	0.555438	-0.701347	0.852638
H159	H	0.888772	-0.368014	1.185971
C160	C	-0.474302	-0.934746	0.000032
C161	C	-0.140969	-0.601413	0.333365
C162	C	0.192364	-0.268079	0.666699
N163	N	-0.441660	-0.863790	0.000021
N164	N	-0.108326	-0.530457	0.333355
N165	N	0.225007	-0.197123	0.666688
H166	H	-0.496247	-1.272595	0.000085
H167	H	-0.162913	-0.939262	0.333419
H168	H	0.170420	-0.605928	0.666752
C169	C	-0.639789	-1.294423	0.000066
C170	C	-0.306456	-0.961089	0.333399
C171	C	0.026878	-0.627756	0.666732
N172	N	-0.672431	-1.365379	0.000086
N173	N	-0.339098	-1.032045	0.333419
N174	N	-0.005764	-0.698712	0.666753
H175	H	-0.617849	-0.956578	0.000015
H176	H	-0.284515	-0.623244	0.333348
H177	H	0.048818	-0.289911	0.666682
C178	C	0.095307	-1.222806	0.464746
C179	C	0.428640	-0.889473	0.798079
C180	C	0.761973	-0.556139	1.131413
N181	N	0.057374	-1.279107	0.418039
N182	N	0.390707	-0.945773	0.751372
N183	N	0.724040	-0.612440	1.084705
H184	H	0.247564	-0.621038	0.000052
H185	H	0.580897	-0.287705	0.333386
H186	H	0.914231	0.045629	0.666719
