data_functionalizedCrystal
_audit_creation_method	'MofGen! by Chris Wilmer'
_symmetry_space_group_name_H-M	'P1'
_symmetry_Int_Tables_number	1
_symmetry_cell_setting	triclinic
loop_
_symmetry_equiv_pos_as_xyz
  x,y,z
_cell_length_a	10.686220
_cell_length_b	19.077068
_cell_length_c	19.077237
_cell_angle_alpha	85.344389
_cell_angle_beta	91.885836
_cell_angle_gamma	83.477335
loop_
_atom_site_label
_atom_site_type_symbol
_atom_site_fract_x
_atom_site_fract_y
_atom_site_fract_z
Zn1	Zn	1.937118	0.210204	-0.323597
Zn2	Zn	1.920675	0.324096	-0.211173
Zn3	Zn	1.717978	0.215274	-0.215484
Zn4	Zn	1.717883	0.337840	-0.338047
O5	O	1.823414	0.271853	-0.272075
O6	O	2.111516	0.217438	-0.300832
O7	O	1.886945	0.306030	-0.113402
O8	O	1.753969	0.115643	-0.225582
O9	O	2.099436	0.301114	-0.218235
O10	O	1.914970	0.111919	-0.305012
O11	O	1.738025	0.226079	-0.116570
O12	O	1.541386	0.239406	-0.239594
O13	O	1.753807	0.324539	-0.434473
O14	O	1.541316	0.329455	-0.329640
O15	O	1.914878	0.230765	-0.423856
O16	O	1.886853	0.424877	-0.232247
O17	O	1.737863	0.434975	-0.325460
C18	C	1.495566	0.286473	-0.286653
C19	C	1.355311	0.292744	-0.292907
C20	C	1.810599	0.455583	-0.279967
C21	C	1.805234	0.534180	-0.283362
C22	C	1.836166	0.278620	-0.455377
C23	C	1.841600	0.281503	-0.533489
C24	C	2.152541	0.257178	-0.257441
C25	C	2.292796	0.250924	-0.251205
C26	C	1.836314	0.087405	-0.264166
C27	C	1.841811	0.008804	-0.260796
C28	C	1.880349	0.565822	-0.236460
C29	C	1.875311	0.639672	-0.239657
C30	C	1.795149	0.681878	-0.289753
C31	C	1.720031	0.650230	-0.336660
C32	C	1.725076	0.576382	-0.333466
C33	C	1.771739	0.903308	-0.304509
C34	C	1.766696	0.977161	-0.307698
C35	C	1.921978	0.966598	-0.210695
C36	C	1.927012	0.892748	-0.207503
C37	C	1.851898	0.861107	-0.254412
N38	N	1.789994	0.757364	-0.293020
N39	N	1.857060	0.785622	-0.251148
C40	C	1.880582	0.302235	-0.972998
C41	C	1.875457	0.299522	-0.899604
C42	C	1.795368	0.256536	-0.864563
C43	C	1.720389	0.216265	-0.902921
C44	C	1.725507	0.218983	-0.976314
C45	C	1.771740	0.243950	-0.645240
C46	C	1.766630	0.241234	-0.571841
C47	C	1.921697	0.324492	-0.568529
C48	C	1.926814	0.327202	-0.641923
C49	C	1.851830	0.286934	-0.680275
N50	N	1.790131	0.253760	-0.789543
N51	N	1.857061	0.289714	-0.755295
C52	C	1.810787	0.265059	-0.089482
C53	C	1.805611	0.261966	-0.011350
H54	H	1.301528	0.333354	-0.333394
O55	O	2.003005	1.000718	-0.160104
H56	H	2.103831	0.982508	-0.167187
H57	H	1.654767	0.684600	-0.377452
O58	O	1.966965	0.348605	-1.010783
H59	H	2.035727	0.315335	-1.040004
H60	H	1.945620	0.531463	-0.195664
H61	H	1.710681	0.211162	-0.676457
H62	H	1.936477	0.665432	-0.201464
O63	O	2.002558	0.367923	-0.527159
H64	H	2.103424	0.351898	-0.536314
O65	O	1.364008	0.197136	-0.197569
H66	H	1.428749	0.159709	-0.224888
H67	H	1.992286	0.858385	-0.166711
H68	H	1.936491	0.332323	-0.868382
O69	O	1.680242	1.022688	-0.361737
H70	H	1.628868	0.988280	-0.393825
O71	O	1.634004	0.169902	-0.865130
H72	H	1.660512	0.113960	-0.875887
O73	O	1.690687	0.869185	-0.355081
H74	H	1.634079	0.910942	-0.390439
H75	H	1.663911	0.550620	-0.371659
O76	O	1.680232	0.194876	-0.534043
H77	H	1.628939	0.167337	-0.573042
H78	H	1.664460	0.186190	-1.007540
H79	H	1.992030	0.362206	-0.670449
