data_functionalizedCrystal
_audit_creation_method	'MofGen! by Chris Wilmer'
_symmetry_space_group_name_H-M	'P1'
_symmetry_Int_Tables_number	1
_symmetry_cell_setting	triclinic
loop_
_symmetry_equiv_pos_as_xyz
  x,y,z
_cell_length_a	12.759401
_cell_length_b	18.215405
_cell_length_c	18.215399
_cell_angle_alpha	89.969449
_cell_angle_beta	89.982118
_cell_angle_gamma	90.026410
loop_
_atom_site_label
_atom_site_type_symbol
_atom_site_fract_x
_atom_site_fract_y
_atom_site_fract_z
Zn1	Zn	1.606160	-0.292962	-0.416064
Zn2	Zn	1.606030	-0.416033	-0.292992
Zn3	Zn	1.430468	-0.292988	-0.293016
Zn4	Zn	1.430420	-0.415995	-0.416021
O5	O	1.518269	-0.354494	-0.354524
O6	O	1.753164	-0.309293	-0.399747
O7	O	1.582707	-0.399738	-0.190011
O8	O	1.453849	-0.190001	-0.309366
O9	O	1.753068	-0.399713	-0.309326
O10	O	1.582930	-0.189981	-0.399769
O11	O	1.453723	-0.309338	-0.190028
O12	O	1.283441	-0.309300	-0.309325
O13	O	1.453766	-0.399647	-0.519011
O14	O	1.283405	-0.399672	-0.399696
O15	O	1.582882	-0.309255	-0.519043
O16	O	1.582659	-0.519012	-0.309285
O17	O	1.453640	-0.518984	-0.399674
C18	C	1.245302	-0.354485	-0.354509
C19	C	1.128525	-0.354499	-0.354520
C20	C	1.518159	-0.545701	-0.354488
C21	C	1.518207	-0.627500	-0.354498
C22	C	1.073672	-0.401628	-0.401503
C23	C	0.963948	-0.401631	-0.401517
C24	C	0.963940	-0.307375	-0.307560
C25	C	1.073662	-0.307369	-0.307550
C26	C	1.585546	-0.815684	-0.307519
C27	C	1.585593	-0.892543	-0.307536
C28	C	1.451128	-0.892553	-0.401581
C29	C	1.451087	-0.815696	-0.401567
C30	C	1.518294	-0.777263	-0.354531
C31	C	1.518382	-0.930979	-0.354564
C32	C	1.518433	-1.014313	-0.354583
C33	C	1.518245	-0.693924	-0.354512
C34	C	1.792303	-0.354504	-0.354539
C35	C	1.909079	-0.354508	-0.354545
C36	C	1.518333	-0.354444	-0.546477
C37	C	1.518361	-0.354422	-0.628275
C38	C	1.518409	-0.162542	-0.354575
C39	C	1.518469	-0.080743	-0.354597
C40	C	1.585616	-0.307311	-0.816487
C41	C	1.585628	-0.307290	-0.893346
C42	C	1.451180	-0.401419	-0.893302
C43	C	1.451163	-0.401436	-0.816444
C44	C	1.518387	-0.354383	-0.778039
C45	C	1.518416	-0.354345	-0.931755
C46	C	1.518430	-0.354322	-1.015089
C47	C	1.518373	-0.354405	-0.694700
C48	C	1.518266	-0.354492	-0.163317
C49	C	1.518442	-0.354306	-0.081519
H50	H	0.919292	-0.440006	-0.439776
H51	H	1.640371	-0.268958	-0.924647
H52	H	1.396409	-0.923854	-0.439875
O53	O	0.910481	-0.261665	-0.261959
C54	C	0.801875	-0.271761	-0.272054
H55	H	0.786872	-0.328589	-0.296049
H56	H	0.760141	-0.266695	-0.216944
H57	H	0.770789	-0.228165	-0.311332
H58	H	1.396452	-0.439730	-0.924581
O59	O	1.385656	-0.778483	-0.447261
C60	C	1.326358	-0.828883	-0.488787
H61	H	1.322769	-0.883694	-0.458653
H62	H	1.243564	-0.806715	-0.496581
H63	H	1.364788	-0.836995	-0.544706
H64	H	1.640351	-0.268996	-0.785220
H65	H	1.396410	-0.439768	-0.785139
H66	H	1.118325	-0.268986	-0.269291
O67	O	1.650804	-0.929968	-0.261871
C68	C	1.591106	-0.974515	-0.214296
H69	H	1.511441	-0.986038	-0.240167
H70	H	1.633949	-1.028551	-0.204535
H71	H	1.579657	-0.944981	-0.159717
H72	H	1.118339	-0.440003	-0.439750
H73	H	1.640271	-0.784394	-0.269221
