data_functionalizedCrystal
_audit_creation_method	'MofGen! by Chris Wilmer'
_symmetry_space_group_name_H-M	'P1'
_symmetry_Int_Tables_number	1
_symmetry_cell_setting	triclinic
loop_
_symmetry_equiv_pos_as_xyz
  x,y,z
_cell_length_a	16.992694
_cell_length_b	15.944551
_cell_length_c	16.053802
_cell_angle_alpha	92.564789
_cell_angle_beta	87.249047
_cell_angle_gamma	87.083481
loop_
_atom_site_label
_atom_site_type_symbol
_atom_site_fract_x
_atom_site_fract_y
_atom_site_fract_z
O1	O	1.043704	0.174798	-0.069327
O2	O	0.815419	0.172843	-0.069352
O3	O	0.935795	0.051964	-0.069332
O4	O	0.923328	0.295677	-0.069348
O5	O	0.929169	0.058588	0.069526
O6	O	0.808793	0.179467	0.069506
O7	O	1.037078	0.181422	0.069530
Zn8	Zn	0.921884	0.181497	0.091565
Zn9	Zn	0.930613	0.172769	-0.091386
O10	O	0.916702	0.302301	0.069510
C11	C	0.782894	0.173641	0.000074
C12	C	0.695850	0.166141	0.000065
C13	C	0.645613	0.238506	0.000061
C14	C	0.563826	0.231454	0.000073
C15	C	0.532276	0.152037	0.000083
C16	C	0.582519	0.079667	0.000089
C17	C	0.664305	0.086719	0.000083
C18	C	0.288676	0.122807	0.000107
C19	C	0.206884	0.115759	0.000111
C20	C	0.188196	0.267548	0.000095
C21	C	0.269984	0.274593	0.000084
C22	C	0.320220	0.202223	0.000095
N23	N	0.448677	0.144827	0.000092
N24	N	0.403818	0.209434	0.000092
C25	C	0.931964	0.023948	0.000097
C26	C	0.930413	-0.069402	0.000098
C27	C	0.852090	-0.289513	0.000078
C28	C	0.885194	-0.344825	0.068547
C29	C	0.927606	-0.240317	0.000091
C30	C	0.891744	-0.351338	-0.068356
C31	C	0.924889	-0.405412	0.000081
C32	C	0.960728	-0.294396	0.068617
C33	C	0.967271	-0.300907	-0.068348
C34	C	1.000429	-0.356196	0.000138
C35	C	0.929169	-0.145209	0.000098
C36	C	0.923332	-0.500518	0.000080
C37	C	1.069603	0.180624	0.000103
C38	C	1.156648	0.188124	0.000106
C39	C	0.920533	0.330318	0.000079
C40	C	0.922085	0.423667	0.000073
N41	N	0.915931	0.187453	0.216424
N42	N	0.936572	0.166806	-0.216246
C43	C	0.967170	0.136040	0.260127
C44	C	0.963014	0.140215	0.347533
C45	C	0.907622	0.195808	0.391235
C46	C	0.856378	0.247223	0.347526
C47	C	0.860531	0.243043	0.260121
C48	C	0.889481	0.214042	0.652641
C49	C	0.885333	0.218220	0.740052
C50	C	0.991968	0.111209	0.740053
C51	C	0.996120	0.107038	0.652646
C52	C	0.944873	0.158450	0.608945
N53	N	0.903374	0.200078	0.480578
N54	N	0.949118	0.154175	0.519604
H55	H	0.295666	0.339262	0.000066
O56	O	0.777257	-0.254920	0.000185
C57	C	0.723321	-0.319249	0.000953
H58	H	0.751968	-0.377757	0.027590
H59	H	0.705885	-0.334700	-0.065468
C60	C	0.614075	-0.217753	0.022815
C61	C	0.649257	-0.289611	0.055538
H62	H	0.568387	-0.199471	0.056482
H63	H	0.650412	-0.174413	0.022294
H64	H	0.599552	-0.230639	-0.032535
H65	H	0.663788	-0.276722	0.110882
H66	H	0.612921	-0.332949	0.056068
O67	O	0.810872	0.293026	0.217574
C68	C	0.855262	0.345288	0.167014
H69	H	0.917238	0.315366	0.153918
H70	H	0.858987	0.409341	0.200685
C71	C	0.738880	0.393024	0.100076
C72	C	0.814998	0.356269	0.083986
H73	H	0.714042	0.399801	0.048862
H74	H	0.708972	0.357816	0.134141
H75	H	0.741995	0.446397	0.128138
H76	H	0.811881	0.302893	0.055934
H77	H	0.844904	0.391468	0.049914
H78	H	1.001946	-0.281397	-0.126229
H79	H	0.329568	0.063878	0.000117
H80	H	0.556825	0.015004	0.000110
O81	O	0.713083	0.016393	-0.000065
C82	C	0.702192	-0.034942	-0.071965
H83	H	0.676631	0.005125	-0.122232
H84	H	0.659775	-0.085582	-0.055699
C85	C	0.813519	-0.125947	-0.042835
C86	C	0.782131	-0.076734	-0.104577
H87	H	0.862828	-0.151730	-0.062951
H88	H	0.820855	-0.091363	0.005607
H89	H	0.778164	-0.168140	-0.029286
H90	H	0.817481	-0.034536	-0.118118
H91	H	0.774803	-0.111312	-0.153023
O92	O	0.676125	0.315719	0.000087
C93	C	0.614243	0.378075	0.000066
H94	H	0.557434	0.352052	0.026361
H95	H	0.605838	0.397482	-0.066552
C96	C	0.704514	0.487091	0.022217
C97	C	0.634741	0.455131	0.054520
H98	H	0.717159	0.534624	0.055804
H99	H	0.746206	0.445081	0.022228
H100	H	0.697501	0.503256	-0.033297
H101	H	0.641758	0.438956	0.110029
H102	H	0.593051	0.497140	0.054520
O103	O	0.176107	0.038672	0.000091
C104	C	0.093148	0.047971	0.000113
H105	H	0.075202	0.110974	-0.026189
H106	H	0.067211	0.045562	0.066732
C107	C	0.083849	-0.101105	-0.022023
C108	C	0.061808	-0.023727	-0.054333
H109	H	0.064516	-0.145333	-0.055604
H110	H	0.139740	-0.107371	-0.022034
H111	H	0.062233	-0.103101	0.033493
H112	H	0.083432	-0.021728	-0.109843
H113	H	0.005920	-0.017462	-0.054333
O114	O	0.995551	-0.264848	0.137778
C115	C	1.018439	-0.332746	0.186157
H116	H	1.025584	-0.392863	0.144710
H117	H	0.971332	-0.340316	0.237875
C118	C	1.088650	-0.241646	0.276033
C119	C	1.097431	-0.315481	0.225126
H120	H	1.137374	-0.230996	0.300075
H121	H	1.073228	-0.195900	0.243442
H122	H	1.049391	-0.247964	0.319125
H123	H	1.136682	-0.309159	0.182030
H124	H	1.112862	-0.361225	0.257711
O125	O	0.514955	0.301685	-0.000051
C126	C	0.470524	0.298720	-0.071975
H127	H	0.467520	0.230625	-0.095935
H128	H	0.499831	0.336476	-0.122343
C129	C	0.390144	0.420100	-0.020704
C130	C	0.386450	0.336463	-0.050129
H131	H	0.338284	0.443385	-0.007231
H132	H	0.420080	0.422100	0.027751
H133	H	0.414570	0.451553	-0.062683
H134	H	0.362033	0.305010	-0.008147
H135	H	0.356508	0.334459	-0.098577
H136	H	0.147286	0.326467	0.000088
H137	H	0.862556	-0.376319	-0.126245
O138	O	1.021002	0.081963	0.217808
C139	C	1.065347	0.037494	0.275128
H140	H	1.030239	0.037348	0.337437
H141	H	1.123151	0.069158	0.284412
C142	C	1.126247	-0.053478	0.164504
C143	C	1.083124	-0.053663	0.241031
H144	H	1.137217	-0.109707	0.143470
H145	H	1.096374	-0.023517	0.125885
H146	H	1.174412	-0.027087	0.172251
H147	H	1.034956	-0.080044	0.233282
H148	H	1.112990	-0.083631	0.279648
H149	H	1.063164	-0.385145	0.000184
H150	H	1.004736	0.098349	0.383115
O151	O	0.843675	-0.368036	0.137534
C152	C	0.765512	-0.333870	0.137295
H153	H	0.750494	-0.320022	0.070668
H154	H	0.759468	-0.273133	0.177870
C155	C	0.727030	-0.414309	0.254058
C156	C	0.708581	-0.397308	0.172225
H157	H	0.691911	-0.453438	0.275608
H158	H	0.779690	-0.437325	0.254222
H159	H	0.721993	-0.363689	0.287861
H160	H	0.713628	-0.447924	0.138422
H161	H	0.655920	-0.374301	0.172057
O162	O	1.049949	0.052958	0.610327
C163	C	1.094297	0.008488	0.667643
H164	H	1.059191	0.008339	0.729954
H165	H	1.152100	0.040154	0.676926
C166	C	1.155195	-0.082478	0.557013
C167	C	1.112075	-0.082667	0.633542
H168	H	1.166165	-0.138706	0.535977
H169	H	1.125319	-0.052516	0.518397
H170	H	1.203360	-0.056086	0.564759
H171	H	1.063907	-0.109049	0.625793
H172	H	1.141943	-0.112636	0.672156
H173	H	1.033690	0.069351	0.775642
H174	H	0.840224	0.263494	0.775630
O175	O	0.839821	0.264033	0.610110
C176	C	0.884216	0.316296	0.559556
H177	H	0.946187	0.286364	0.546449
H178	H	0.887955	0.380342	0.593238
C179	C	0.767835	0.364068	0.492639
C180	C	0.843947	0.327301	0.476535
H181	H	0.742994	0.370860	0.441428
H182	H	0.737924	0.328859	0.526699
H183	H	0.770961	0.417435	0.520709
H184	H	0.840819	0.273931	0.448474
H185	H	0.873856	0.362501	0.442467
H186	H	0.811273	0.292485	0.383113
