data_functionalizedCrystal
_audit_creation_method	'MofGen! by Chris Wilmer'
_symmetry_space_group_name_H-M	'P1'
_symmetry_Int_Tables_number	1
_symmetry_cell_setting	triclinic
loop_
_symmetry_equiv_pos_as_xyz
  x,y,z
_cell_length_a	14.560438
_cell_length_b	21.606444
_cell_length_c	14.560438
_cell_angle_alpha	89.998722
_cell_angle_beta	60.005799
_cell_angle_gamma	60.000494
loop_
_atom_site_label
_atom_site_type_symbol
_atom_site_fract_x
_atom_site_fract_y
_atom_site_fract_z
Zr1	Zr	1.005232	0.596248	-0.120411
O2	O	1.196813	0.497431	-0.267026
O3	O	0.813648	0.626537	-0.075485
O4	O	1.005236	0.626542	-0.267061
O5	O	1.005222	0.497426	0.075691
O6	O	1.005242	0.728392	-0.267066
O7	O	1.005224	0.497426	-0.075450
O8	O	0.662526	0.728383	0.075628
O9	O	1.347938	0.497435	-0.267004
O10	O	0.892455	0.715469	-0.056305
O11	O	0.892448	0.639460	0.056494
O12	O	1.118018	0.639466	-0.169062
O13	O	1.118012	0.563457	-0.056264
Zr14	Zr	1.005238	0.758687	0.120633
Zr15	Zr	1.005242	0.758687	-0.120419
Zr16	Zr	1.005227	0.596248	0.120641
Zr17	Zr	1.246259	0.596255	-0.120375
Zr18	Zr	0.764210	0.758680	0.120597
O19	O	1.196821	0.728398	0.075707
O20	O	1.196827	0.728397	-0.267038
O21	O	1.196807	0.497431	0.075719
O22	O	0.813657	0.857504	0.267248
O23	O	0.813663	0.857504	-0.075497
O24	O	0.813642	0.626538	0.267260
O25	O	1.005247	0.857509	-0.075469
O26	O	1.005233	0.728393	0.267283
O27	O	1.005227	0.626543	0.267288
O28	O	1.005245	0.857509	0.075672
O29	O	1.347946	0.626552	-0.267011
O30	O	0.662523	0.728383	0.267233
O31	O	0.662531	0.857500	0.267226
O32	O	0.662535	0.857500	0.075621
O33	O	1.347935	0.497435	-0.075399
O34	O	1.347943	0.626552	-0.075406
O35	O	0.892451	0.715469	0.169284
O36	O	0.892458	0.791478	0.056486
O37	O	1.118021	0.715475	-0.056272
O38	O	1.118014	0.639466	0.056527
C39	C	0.703746	0.677459	0.000067
C40	C	0.601423	0.677457	0.000052
C41	C	0.636548	0.621351	-0.083167
C42	C	0.540359	0.621363	-0.083111
C43	C	0.373922	0.733589	0.083393
C44	C	0.470110	0.733580	0.083331
C45	C	0.732638	0.556556	-0.179294
C46	C	0.636449	0.556569	-0.179238
C47	C	1.005222	0.474282	0.000122
C48	C	1.005217	0.405322	0.000126
C49	C	0.887476	0.412596	0.058980
C50	C	0.887480	0.347799	0.058981
C51	C	1.005226	0.275728	0.000120
C52	C	1.122976	0.268456	-0.058736
C53	C	1.122971	0.333253	-0.058729
C54	C	1.122998	0.007138	-0.058761
C55	C	1.122994	-0.057660	-0.058765
C56	C	0.887507	0.021684	0.058950
C57	C	0.887503	0.086480	0.058956
C58	C	1.005252	0.079203	0.000105
C59	C	1.005246	0.149464	0.000106
C60	C	1.005233	0.205468	0.000112
C61	C	1.306723	0.677476	0.000155
C62	C	1.409046	0.677478	0.000170
C63	C	1.005240	0.677467	-0.301409
C64	C	1.005242	0.677467	-0.403741
C65	C	1.005248	0.880653	0.000100
C66	C	1.005252	0.949613	0.000096
C67	C	1.122981	0.637791	-0.510676
C68	C	1.122975	0.637793	-0.606825
C69	C	0.887479	0.717149	-0.489091
C70	C	0.887487	0.717150	-0.392944
C71	C	1.258943	0.591973	-0.578650
C72	C	1.258937	0.591976	-0.674799
C73	C	1.005230	0.677468	0.301630
C74	C	1.005228	0.677468	0.403963
C75	C	0.703759	0.880645	0.000056
C76	C	0.601441	0.949602	0.000037
C77	C	0.703741	0.677460	0.301586
C78	C	0.601416	0.677457	0.403904
C79	C	0.703754	0.880645	0.301575
C80	C	0.601434	0.949602	0.403890
C81	C	1.306716	0.474290	-0.301353
C82	C	1.409036	0.405333	-0.403668
C83	C	1.306711	0.474290	0.000166
C84	C	1.409029	0.405333	0.000185
C85	C	1.306729	0.677475	-0.301364
C86	C	1.409053	0.677478	-0.403682
C87	C	0.553389	0.942309	-0.058857
C88	C	0.457264	1.007094	-0.058897
C89	C	0.409185	1.079173	-0.000036
C90	C	0.457246	1.086465	0.058860
C91	C	0.553376	1.021680	0.058893
C92	C	0.553387	1.021668	0.393058
C93	C	0.457260	1.086466	0.489184
C94	C	0.409175	1.079197	0.596140
C95	C	0.457231	1.007124	0.606970
C96	C	0.553363	0.942327	0.510845
C97	C	1.457094	0.333267	-0.392836
C98	C	1.553251	0.268469	-0.488962
C99	C	1.601341	0.275738	-0.595918
C100	C	1.553278	0.347811	-0.606748
C101	C	1.457130	0.412608	-0.510623
C102	C	1.457090	0.412626	0.059069
C103	C	1.553242	0.347841	0.059083
C104	C	1.601324	0.275762	0.000218
C105	C	1.553259	0.268470	-0.058674
C106	C	1.457115	0.333255	-0.058693
C107	C	0.553341	0.717133	0.510849
C108	C	0.457201	0.717124	0.606984
C109	C	0.457218	0.637763	0.489215
C110	C	0.553362	0.637767	0.393083
C111	C	0.553327	0.762954	0.578843
C112	C	0.457187	0.762946	0.674977
H113	H	0.795615	0.562134	-0.261426
F114	F	1.405928	0.325514	-0.279013
H115	H	0.330898	1.131965	0.674402
H116	H	0.418066	1.001217	0.694067
H117	H	1.592367	0.209790	-0.480122
H118	H	0.592471	0.883651	0.519681
F119	F	0.339546	0.842239	0.743204
H120	H	1.301127	0.622207	-0.725717
F121	F	1.604442	0.191753	-0.121315
H122	H	0.592514	0.605451	0.306006
F123	F	1.405968	0.325481	-0.121363
H124	H	0.791622	0.145161	0.106882
H125	H	0.418081	0.605448	0.480418
H126	H	1.311130	0.531309	-0.726982
H127	H	1.679631	0.222970	-0.674180
H128	H	0.441500	0.779272	0.151087
F129	F	1.248287	0.325509	-0.121366
H130	H	1.592446	0.353720	-0.693844
H131	H	1.417948	0.471311	0.107012
F132	F	1.405985	0.489304	-0.522169
H133	H	1.592360	0.353793	0.107044
F134	F	1.703649	0.206818	0.000250
H135	H	0.643329	0.737474	0.578875
F136	F	0.810634	0.489203	-0.157336
F137	F	0.506112	0.839626	0.567417
H138	H	0.266998	0.779283	0.151197
F139	F	0.636405	0.571361	-0.279173
H140	H	0.647260	0.501235	-0.170925
F141	F	0.762153	0.489296	0.121622
H142	H	0.493313	0.732720	0.725908
H143	H	0.791603	0.353728	0.106908
F144	F	0.406128	0.999318	-0.121581
F145	F	1.248322	-0.134366	-0.121414
F146	F	0.762187	0.029425	0.121589
F147	F	0.762173	0.759376	-0.279137
F148	F	1.248318	-0.000616	-0.121398
H149	H	0.330908	1.131919	-0.000071
H150	H	1.218847	0.209771	-0.106654
H151	H	1.311156	0.617458	-0.578666
F152	F	0.762163	0.759380	-0.477611
F153	F	1.313998	0.515313	-0.567181
H154	H	0.592534	0.883624	-0.106803
H155	H	0.418086	1.145160	0.106783
H156	H	0.592487	1.027629	0.106859
H157	H	0.592523	1.027601	0.305977
F158	F	0.406128	1.163164	0.477634
