data_functionalizedCrystal
_audit_creation_method	'MofGen! by Chris Wilmer'
_symmetry_space_group_name_H-M	'P1'
_symmetry_Int_Tables_number	1
_symmetry_cell_setting	triclinic
loop_
_symmetry_equiv_pos_as_xyz
  x,y,z
_cell_length_a	12.759387
_cell_length_b	14.908571
_cell_length_c	12.759394
_cell_angle_alpha	86.711101
_cell_angle_beta	90.031660
_cell_angle_gamma	93.315849
loop_
_atom_site_label
_atom_site_type_symbol
_atom_site_fract_x
_atom_site_fract_y
_atom_site_fract_z
Zn1	Zn	-0.686589	-1.379295	0.511036
Zn2	Zn	-0.510901	-1.379201	0.686746
Zn3	Zn	-0.500798	-1.228420	0.500935
Zn4	Zn	-0.676418	-1.228414	0.676519
O5	O	-0.593676	-1.303832	0.593809
O6	O	-0.671768	-1.505529	0.542851
O7	O	-0.362537	-1.359163	0.662151
O8	O	-0.525472	-1.248477	0.355256
O9	O	-0.542691	-1.505459	0.671945
O10	O	-0.661972	-1.359323	0.362677
O11	O	-0.355114	-1.248385	0.525636
O12	O	-0.515609	-1.102173	0.515719
O13	O	-0.824790	-1.248465	0.654515
O14	O	-0.644636	-1.102168	0.644720
O15	O	-0.832263	-1.359317	0.532935
O16	O	-0.532828	-1.359156	0.832408
O17	O	-0.654432	-1.248373	0.824894
C18	C	-0.577924	-1.069436	0.578014
C19	C	-0.571209	-0.969161	0.571283
C20	C	-0.867714	-1.303900	0.593710
C21	C	-0.984493	-1.303930	0.593669
C22	C	-0.593647	-1.303778	0.866773
C23	C	-0.593676	-1.303838	0.983553
C24	C	-0.992295	-1.419367	0.467077
C25	C	-1.051058	-1.477099	0.403766
C26	C	-1.160781	-1.477121	0.403729
C27	C	-1.211743	-1.419403	0.467007
C28	C	-1.152981	-1.361672	0.530318
C29	C	-1.043256	-1.361658	0.530351
C30	C	-1.145179	-1.246231	0.656903
C31	C	-1.035456	-1.246212	0.656947
C32	C	-1.196141	-1.188513	0.720182
C33	C	-1.137379	-1.130785	0.783500
C34	C	-1.027649	-1.130766	0.783535
C35	C	-0.976693	-1.188480	0.720258
C36	C	-0.320708	-1.303816	0.593835
C37	C	-0.203941	-1.303962	0.593592
C38	C	-0.609491	-1.539144	0.609666
C39	C	-0.616231	-1.639419	0.616423
C40	C	-0.692768	-0.780775	0.693170
C41	C	-0.686463	-0.686557	0.686849
C42	C	-0.552301	-0.686505	0.552313
C43	C	-0.558606	-0.780723	0.558634
C44	C	-0.628840	-0.827855	0.629067
C45	C	-0.635139	-0.922075	0.635393
C46	C	-0.500983	-0.922021	0.500853
C47	C	-0.494678	-0.827803	0.494531
C48	C	-0.593730	-1.303911	0.319781
C49	C	-0.593753	-1.303945	0.203006
C50	C	-0.467155	-1.419282	0.991330
C51	C	-0.403909	-1.477028	1.050081
C52	C	-0.403941	-1.477081	1.159806
C53	C	-0.467228	-1.419383	1.210783
C54	C	-0.530475	-1.361638	1.152032
C55	C	-0.530433	-1.361589	1.042305
C56	C	-0.656999	-1.246199	1.144256
C57	C	-0.656963	-1.246140	1.034530
C58	C	-0.720287	-1.188502	1.195232
C59	C	-0.783529	-1.130750	1.136481
C60	C	-0.783493	-1.130699	1.026750
C61	C	-0.720209	-1.188395	0.975779
H62	H	-0.902954	-1.419364	0.467111
H63	H	-0.448926	-0.960363	0.448657
H64	H	-0.467259	-1.419440	1.300127
C65	C	-0.720274	-1.188174	0.856638
C66	C	-0.789188	-1.125241	0.816091
C67	C	-0.789263	-1.125008	0.706341
H68	H	-0.742425	-1.246322	0.835530
H69	H	-0.651422	-1.172540	0.830800
H70	H	-0.858025	-1.140880	0.841918
H71	H	-0.767052	-1.067084	0.837169
H72	H	-0.720410	-1.109374	0.680504
H73	H	-0.811412	-1.183159	0.685244
H74	H	-0.836012	-1.082303	0.678816
C75	C	-0.769120	-0.831790	0.769667
C76	C	-0.823771	-0.770393	0.824441
C77	C	-0.894126	-0.817353	0.894909
H78	H	-0.731426	-0.868528	0.817954
H79	H	-0.817482	-0.868549	0.732019
H80	H	-0.775416	-0.733650	0.862088
H81	H	-0.861486	-0.733654	0.776183
H82	H	-0.942488	-0.854112	0.857261
H83	H	-0.856424	-0.854089	0.943189
H84	H	-0.931223	-0.775703	0.932075
C85	C	-0.995535	-1.539733	0.335185
C86	C	-0.886868	-1.527382	0.348788
C87	C	-0.835693	-1.585074	0.285641
H88	H	-1.012520	-1.526623	0.263659
H89	H	-1.017538	-1.600364	0.354666
H90	H	-0.864873	-1.466765	0.329301
H91	H	-0.869853	-1.540499	0.420301
H92	H	-0.857696	-1.645704	0.305122
H93	H	-0.852686	-1.571959	0.214118
H94	H	-0.761958	-1.576707	0.294868
C95	C	-0.335021	-1.539611	0.994862
C96	C	-0.229749	-1.520027	1.020363
C97	C	-0.166262	-1.577667	0.969529
H98	H	-0.343916	-1.531366	0.921088
H99	H	-0.354460	-1.600247	1.016874
H100	H	-0.210316	-1.459406	0.998344
H101	H	-0.220821	-1.528277	1.094128
H102	H	-0.185701	-1.638302	0.991541
H103	H	-0.175167	-1.569417	0.895757
H104	H	-0.094830	-1.564393	0.986832
H105	H	-0.467108	-1.419233	0.901986
H106	H	-1.301086	-1.419419	0.466962
H107	H	-1.208625	-1.524125	0.352169
H108	H	-0.352446	-1.524107	1.207641
C109	C	-1.315270	-1.188541	0.720370
C110	C	-1.353090	-1.211500	0.821942
C111	C	-1.462826	-1.211524	0.822164
H112	H	-1.343105	-1.231187	0.673685
H113	H	-1.336218	-1.130325	0.698319
H114	H	-1.332153	-1.269707	0.843980
H115	H	-1.325285	-1.168862	0.868645
H116	H	-1.483774	-1.153308	0.800113
H117	H	-1.490651	-1.254170	0.775475
H118	H	-1.488500	-1.227093	0.891081
C119	C	-0.720530	-1.188655	1.314369
C120	C	-0.822125	-1.211676	1.352113
C121	C	-0.822388	-1.211836	1.461857
H122	H	-0.698481	-1.130485	1.335480
H123	H	-0.673850	-1.231335	1.342101
H124	H	-0.868790	-1.168998	1.324392
H125	H	-0.844194	-1.269847	1.331032
H126	H	-0.775707	-1.254516	1.489590
H127	H	-0.800335	-1.153665	1.482958
H128	H	-0.891316	-1.227464	1.487482
C129	C	-0.852419	-1.068228	1.191780
C130	C	-0.957696	-1.087834	1.166319
C131	C	-1.021189	-1.030264	1.217255
H132	H	-0.833050	-1.007575	1.169840
H133	H	-0.843456	-1.076543	1.265552
H134	H	-0.966653	-1.079511	1.092562
H135	H	-0.977097	-1.148476	1.188260
H136	H	-1.012226	-1.038579	1.291028
H137	H	-1.001810	-0.969614	1.195312
H138	H	-1.092627	-1.043564	1.199995
H139	H	-0.887351	-1.188474	0.720285
C140	C	-0.418459	-0.776465	0.418165
C141	C	-0.426603	-0.683875	0.426362
C142	C	-0.356396	-0.636557	0.356039
H143	H	-0.434913	-0.791813	0.348580
H144	H	-0.348846	-0.791816	0.434503
H145	H	-0.496201	-0.668530	0.410017
H146	H	-0.410140	-0.668500	0.495931
H147	H	-0.286783	-0.651909	0.372377
H148	H	-0.372856	-0.651912	0.286458
H149	H	-0.361905	-0.573730	0.361597
H150	H	-0.692326	-0.960448	0.692745
C151	C	-0.755995	-0.635393	0.756271
C152	C	-0.819834	-0.581355	0.693230
C153	C	-0.883914	-0.534218	0.757145
H154	H	-0.713386	-0.598542	0.799551
H155	H	-0.798786	-0.676930	0.799100
H156	H	-0.777048	-0.539823	0.650418
H157	H	-0.862465	-0.618183	0.649950
H158	H	-0.926705	-0.575755	0.799974
H159	H	-0.841296	-0.497373	0.800422
H160	H	-0.927243	-0.497554	0.714381
H161	H	-0.835000	-1.083679	0.978920
H162	H	-0.979810	-1.083744	0.835078
C163	C	-1.192578	-1.068178	0.852369
C164	C	-1.167175	-1.087767	0.957650
C165	C	-1.217997	-1.030104	1.021124
H166	H	-1.266352	-1.076397	0.843413
H167	H	-1.170492	-1.007549	0.832973
H168	H	-1.189267	-1.148381	0.977040
H169	H	-1.093410	-1.079542	0.966639
H170	H	-1.195912	-0.969476	1.001728
H171	H	-1.291769	-1.038328	1.012159
H172	H	-1.200761	-1.043382	1.092563
H173	H	-0.495126	-0.648115	0.494964
