data_functionalizedCrystal
_audit_creation_method	'MofGen! by Chris Wilmer'
_symmetry_space_group_name_H-M	'P1'
_symmetry_Int_Tables_number	1
_symmetry_cell_setting	triclinic
loop_
_symmetry_equiv_pos_as_xyz
  x,y,z
_cell_length_a	10.654565
_cell_length_b	8.559649
_cell_length_c	7.681481
_cell_angle_alpha	94.925366
_cell_angle_beta	84.221054
_cell_angle_gamma	77.134992
loop_
_atom_site_label
_atom_site_type_symbol
_atom_site_fract_x
_atom_site_fract_y
_atom_site_fract_z
O1	O	-1.631314	-0.239293	-0.146648
O2	O	-1.263639	-0.260621	-0.146599
O3	O	-1.479869	-0.017717	-0.146626
O4	O	-1.415084	-0.482197	-0.146621
O5	O	-1.506505	0.012228	0.146229
O6	O	-1.290275	-0.230676	0.146256
O7	O	-1.657950	-0.209349	0.146207
Zn8	Zn	-1.478341	-0.215258	0.192728
Zn9	Zn	-1.443248	-0.254711	-0.193120
O10	O	-1.441719	-0.452253	0.146234
C11	C	-1.230322	-0.244076	-0.000166
C12	C	-1.091367	-0.239373	-0.000147
C13	C	-1.040581	-0.220858	0.159478
C14	C	-0.910012	-0.216454	0.159458
C15	C	-0.881024	-0.249090	-0.159828
C16	C	-1.011593	-0.253481	-0.159806
C17	C	-1.120355	-0.206749	0.319137
C18	C	-1.069570	-0.188235	0.478775
C19	C	-0.939001	-0.183831	0.478755
C20	C	-0.859217	-0.197943	0.319096
C21	C	-0.691269	-0.225888	-0.000213
C22	C	-0.830229	-0.230578	-0.000190
C23	C	-1.498096	0.056730	-0.000202
C24	C	-1.512709	0.233946	-0.000214
C25	C	-1.423492	-0.526700	-0.000193
C26	C	-1.408878	-0.703917	-0.000193
N27	N	-1.502301	-0.188332	0.456059
N28	N	-1.419299	-0.281625	-0.456451
H29	H	-1.134540	-0.176734	0.608764
H30	H	-1.334567	-0.376856	0.468353
H31	H	-1.587035	-0.093119	0.531246
F32	F	-0.884957	-0.164115	0.648653
H33	H	-1.226671	-0.210338	0.319171
F34	F	-0.720261	-0.193217	0.319083
H35	H	-0.816054	-0.260582	-0.289815
H36	H	-1.612793	0.316336	-0.000213
F37	F	-1.065647	-0.273183	-0.329698
H38	H	-1.308803	0.213704	-0.000174
