data_functionalizedCrystal
_audit_creation_method	'MofGen! by Chris Wilmer'
_symmetry_space_group_name_H-M	'P1'
_symmetry_Int_Tables_number	1
_symmetry_cell_setting	triclinic
loop_
_symmetry_equiv_pos_as_xyz
  x,y,z
_cell_length_a	9.065215
_cell_length_b	8.140239
_cell_length_c	10.654550
_cell_angle_alpha	90.002359
_cell_angle_beta	84.749800
_cell_angle_gamma	90.002190
loop_
_atom_site_label
_atom_site_type_symbol
_atom_site_fract_x
_atom_site_fract_y
_atom_site_fract_z
O1	O	1.959394	0.136590	0.184140
O2	O	1.530026	0.136597	0.199249
O3	O	1.754582	0.136587	0.008995
O4	O	1.734838	0.136600	0.374395
O5	O	1.754569	-0.136640	0.008992
O6	O	1.530013	-0.136630	0.199247
O7	O	1.959381	-0.136637	0.184138
Zn8	Zn	1.744695	-0.180014	0.191692
Zn9	Zn	1.744712	0.179974	0.191695
O10	O	1.734825	-0.136628	0.374393
C11	C	1.475041	-0.000016	0.197797
C12	C	1.311221	-0.000013	0.193458
N13	N	1.744695	-0.425697	0.191689
C14	C	2.014366	-0.000021	0.185590
C15	C	2.178186	-0.000013	0.189930
C16	C	1.753126	-0.000024	-0.037810
C17	C	1.748789	-0.000019	-0.177271
N18	N	1.744724	0.425657	0.191688
C19	C	1.881003	-0.000026	-0.256234
C20	C	1.876919	-0.000014	-0.387271
C21	C	1.608393	0.000005	-0.360369
C22	C	1.612479	0.000005	-0.229334
C23	C	2.036035	-0.000044	-0.271767
C24	C	2.031951	-0.000032	-0.402804
C25	C	1.736281	-0.000012	0.421198
C26	C	1.740618	-0.000007	0.560658
H27	H	1.497415	0.000025	-0.402775
H28	H	2.085397	-0.118019	-0.235946
H29	H	1.504817	0.000033	-0.165046
H30	H	2.078809	0.117939	-0.448261
C31	C	2.110042	-0.152307	-0.458295
C32	C	2.229525	-0.105069	-0.543216
C33	C	2.301494	-0.245296	-0.594348
H34	H	2.042536	-0.215910	-0.501166
H35	H	2.145344	-0.215860	-0.392498
H36	H	2.194222	-0.041543	-0.609003
H37	H	2.297064	-0.041486	-0.500375
H38	H	2.336796	-0.308849	-0.528551
H39	H	2.233977	-0.308889	-0.637212
H40	H	2.382579	-0.213265	-0.651963
H41	H	2.096678	0.114292	-0.242168
