data_functionalizedCrystal
_audit_creation_method	'MofGen! by Chris Wilmer'
_symmetry_space_group_name_H-M	'P1'
_symmetry_Int_Tables_number	1
_symmetry_cell_setting	triclinic
loop_
_symmetry_equiv_pos_as_xyz
  x,y,z
_cell_length_a	16.625548
_cell_length_b	12.645330
_cell_length_c	12.645323
_cell_angle_alpha	90.024870
_cell_angle_beta	90.022465
_cell_angle_gamma	90.018760
loop_
_atom_site_label
_atom_site_type_symbol
_atom_site_fract_x
_atom_site_fract_y
_atom_site_fract_z
Zn1	Zn	1.232722	-0.422001	0.599440
Zn2	Zn	1.232632	-0.599289	0.422180
Zn3	Zn	1.097880	-0.422043	0.422185
Zn4	Zn	1.097866	-0.599226	0.599396
O5	O	1.165275	-0.510640	0.510801
O6	O	1.345543	-0.445527	0.575943
O7	O	1.214725	-0.575821	0.273834
O8	O	1.115810	-0.273690	0.445719
O9	O	1.345477	-0.575780	0.445711
O10	O	1.214879	-0.273659	0.575948
O11	O	1.115723	-0.445599	0.273837
O12	O	0.985045	-0.445538	0.445677
O13	O	1.115787	-0.575673	0.747750
O14	O	0.985035	-0.575714	0.575873
O15	O	1.214865	-0.445466	0.747782
O16	O	1.214712	-0.747628	0.445668
O17	O	1.115699	-0.747582	0.575868
C18	C	0.955784	-0.510624	0.510771
C19	C	0.866163	-0.510644	0.510783
C20	C	0.537987	-0.510650	0.510829
C21	C	0.629296	-0.510646	0.510813
C22	C	0.702072	-0.510648	0.510805
C23	C	0.793387	-0.510642	0.510791
C24	C	1.165216	-0.786069	0.510786
C25	C	1.165265	-0.903899	0.510815
C26	C	1.103233	-1.071478	0.592976
C27	C	1.102916	-0.948919	0.592712
C28	C	1.142260	-0.948494	0.399093
C29	C	1.141882	-1.071092	0.399592
C30	C	1.250681	-1.070987	0.539469
C31	C	1.250157	-0.948380	0.541912
C32	C	1.375584	-0.510656	0.510831
C33	C	1.465205	-0.510662	0.510844
C34	C	1.165334	-0.510558	0.787306
C35	C	1.165360	-0.510523	0.905136
C36	C	1.165356	-0.234134	0.510839
C37	C	1.165391	-0.116304	0.510855
C38	C	1.165262	-0.510645	0.235371
C39	C	1.165393	-0.510381	0.117541
C40	C	1.102837	-0.592050	1.072680
C41	C	1.103001	-0.592453	0.950120
C42	C	1.250318	-0.540839	0.949656
C43	C	1.249975	-0.541350	1.072254
C44	C	1.143727	-0.398223	1.072334
C45	C	1.141832	-0.398896	0.949728
H46	H	1.117309	-0.918765	0.675553
H47	H	1.186098	-0.919335	0.336234
F48	F	1.274735	-0.646882	0.909545
F49	F	1.021105	-1.111888	0.568533
H50	H	1.185190	-1.100749	0.336318
H51	H	1.184066	-0.334832	0.919106
H52	H	1.267506	-0.919229	0.624134
H53	H	1.117494	-1.100890	0.676089
F54	F	1.060107	-0.369015	0.911705
F55	F	1.061615	-0.908491	0.366836
F56	F	1.203280	-0.318692	1.110255
F57	F	1.311213	-1.108891	0.461304
F58	F	1.020268	-0.910704	0.567938
F59	F	1.273978	-0.648516	1.109653
H60	H	1.079534	-1.099785	0.375352
F61	F	1.064161	-0.362103	1.112725
F62	F	1.278110	-1.111300	0.644144
F63	F	1.313880	-0.908310	0.469433
H64	H	1.040001	-0.573482	0.920018
H65	H	1.039651	-0.573261	1.102154
H66	H	1.117000	-0.674677	1.103499
H67	H	1.117303	-0.675601	0.920806
F68	F	1.312875	-0.465550	0.911577
F69	F	1.312928	-0.466930	1.111049
