data_functionalizedCrystal
_audit_creation_method	'MofGen! by Chris Wilmer'
_symmetry_space_group_name_H-M	'P1'
_symmetry_Int_Tables_number	1
_symmetry_cell_setting	triclinic
loop_
_symmetry_equiv_pos_as_xyz
  x,y,z
_cell_length_a	12.827893
_cell_length_b	13.897447
_cell_length_c	12.827885
_cell_angle_alpha	89.968996
_cell_angle_beta	89.980728
_cell_angle_gamma	90.019501
loop_
_atom_site_label
_atom_site_type_symbol
_atom_site_fract_x
_atom_site_fract_y
_atom_site_fract_z
Zn1	Zn	1.597640	-0.383969	-0.590840
Zn2	Zn	1.597521	-0.545295	-0.416096
Zn3	Zn	1.422881	-0.384016	-0.416113
Zn4	Zn	1.422854	-0.545224	-0.590796
O5	O	1.510224	-0.464626	-0.503462
O6	O	1.743860	-0.405380	-0.567671
O7	O	1.574316	-0.523951	-0.269863
O8	O	1.446124	-0.249028	-0.439317
O9	O	1.743773	-0.523905	-0.439288
O10	O	1.574518	-0.248994	-0.567687
O11	O	1.446009	-0.405460	-0.269875
O12	O	1.276641	-0.405390	-0.439274
O13	O	1.446077	-0.523783	-0.737038
O14	O	1.276621	-0.523829	-0.567613
O15	O	1.574492	-0.405310	-0.737070
O16	O	1.574290	-0.680267	-0.439245
O17	O	1.445963	-0.680215	-0.567597
C18	C	1.238714	-0.464607	-0.503442
C19	C	1.122561	-0.464623	-0.503458
C20	C	1.070794	-0.523321	-0.566866
C21	C	0.950743	-0.523338	-0.566884
C22	C	1.510139	-0.715240	-0.503437
C23	C	1.510198	-0.822454	-0.503462
C24	C	1.510249	-0.909524	-0.503486
C25	C	1.510322	-1.018756	-0.503513
C26	C	1.782794	-0.464645	-0.503482
C27	C	1.898947	-0.464654	-0.503491
C28	C	1.510295	-0.464533	-0.776032
C29	C	1.510325	-0.464494	-0.892185
C30	C	1.510338	-0.213033	-0.503509
C31	C	1.510386	-0.105819	-0.503529
C32	C	1.573876	-0.405858	-0.943986
C33	C	1.573908	-0.405816	-1.064036
C34	C	1.510213	-0.464649	-0.231952
C35	C	1.510385	-0.464416	-0.115799
H36	H	1.078004	-0.414377	-0.449190
C37	C	1.750810	-0.358923	-0.910203
C38	C	1.647299	-0.338125	-0.883891
H39	H	1.796138	-0.317101	-0.873110
H40	H	1.766045	-0.423746	-0.892348
H41	H	1.760449	-0.350010	-0.982998
H42	H	1.637658	-0.347046	-0.811097
H43	H	1.632059	-0.273287	-0.901738
C44	C	1.633168	-0.351111	-1.231451
C45	C	1.647357	-0.338038	-1.124164
H46	H	1.678509	-0.309260	-1.268571
H47	H	1.648430	-0.415922	-1.249272
H48	H	1.562945	-0.337002	-1.249273
H49	H	1.717578	-0.352154	-1.106341
H50	H	1.632103	-0.273212	-1.106336
C51	C	1.495892	-0.594101	-0.992906
C52	C	1.436933	-0.532191	-1.055672
H53	H	1.450544	-0.635938	-0.955776
H54	H	1.541366	-0.631020	-1.035486
H55	H	1.535739	-0.557330	-0.944877
H56	H	1.397091	-0.568963	-1.103706
H57	H	1.391441	-0.495269	-1.013088
C58	C	1.193740	-0.536754	-0.707273
C59	C	1.130937	-0.591149	-0.640135
H60	H	1.230872	-0.578631	-0.752502
H61	H	1.151186	-0.494825	-0.747368
H62	H	1.241768	-0.499926	-0.667477
H63	H	1.082904	-0.627971	-0.679931
H64	H	1.173495	-0.633095	-0.600035
C65	C	0.783359	-0.578066	-0.626010
C66	C	0.890654	-0.591182	-0.640176
H67	H	0.746264	-0.619947	-0.671264
H68	H	0.765493	-0.592098	-0.555765
H69	H	0.765555	-0.513256	-0.641411
H70	H	0.908460	-0.655990	-0.624768
H71	H	0.908528	-0.577156	-0.710436
C72	C	1.021748	-0.451185	-0.363043
C73	C	0.959033	-0.396807	-0.430199
H74	H	1.058852	-0.409298	-0.317801
H75	H	0.979137	-0.493127	-0.322961
H76	H	1.069800	-0.487998	-0.402824
H77	H	0.910975	-0.359999	-0.390418
H78	H	1.001647	-0.354848	-0.470285
H79	H	1.455935	-0.514656	-0.936713
