data_functionalizedCrystal
_audit_creation_method	'MofGen! by Chris Wilmer'
_symmetry_space_group_name_H-M	'P1'
_symmetry_Int_Tables_number	1
_symmetry_cell_setting	triclinic
loop_
_symmetry_equiv_pos_as_xyz
  x,y,z
_cell_length_a	17.000383
_cell_length_b	17.038272
_cell_length_c	15.455313
_cell_angle_alpha	92.858370
_cell_angle_beta	87.527906
_cell_angle_gamma	83.355929
loop_
_atom_site_label
_atom_site_type_symbol
_atom_site_fract_x
_atom_site_fract_y
_atom_site_fract_z
O1	O	1.061244	0.024407	-0.072191
O2	O	1.561244	0.524407	0.427809
O3	O	0.831424	0.052650	-0.072180
O4	O	1.331424	0.552650	0.427820
O5	O	0.944968	-0.075193	-0.072178
O6	O	1.444968	0.424807	0.427822
O7	O	0.947700	0.152250	-0.072192
O8	O	1.447700	0.652250	0.427808
O9	O	0.938473	-0.067911	0.072084
O10	O	1.438473	0.432089	0.572084
O11	O	0.824929	0.059932	0.072082
O12	O	1.324929	0.559932	0.572082
O13	O	1.054749	0.031689	0.072071
O14	O	1.554749	0.531689	0.572071
Cu15	Cu	0.939246	0.046476	0.085249
Cu16	Cu	1.439246	0.546476	0.585249
Cu17	Cu	0.946927	0.037863	-0.085358
Cu18	Cu	1.446927	0.537863	0.414642
O19	O	0.941206	0.159532	0.072070
O20	O	1.441206	0.659532	0.572070
C21	C	0.798626	0.057808	-0.000047
C22	C	1.298626	0.557808	0.499953
C23	C	0.710572	0.062319	-0.000043
C24	C	1.210572	0.562319	0.499957
C25	C	0.212329	0.091441	-0.000077
C26	C	0.712329	0.591441	0.499923
C27	C	0.295065	0.087197	-0.000076
C28	C	0.795065	0.587197	0.499924
C29	C	0.341071	0.013531	-0.000065
C30	C	0.841071	0.513531	0.499935
C31	C	0.304338	-0.055895	-0.000064
C32	C	0.804338	0.444105	0.499936
C33	C	0.221604	-0.051651	-0.000071
C34	C	0.721604	0.448349	0.499929
C35	C	0.591106	-0.002864	-0.000049
C36	C	1.091106	0.497136	0.499951
C37	C	0.673845	-0.007103	-0.000039
C38	C	1.173845	0.492897	0.499961
C39	C	0.664566	0.135990	-0.000053
C40	C	1.164566	0.635990	0.499947
C41	C	0.581831	0.140228	-0.000055
C42	C	1.081831	0.640228	0.499945
C43	C	0.545105	0.070802	-0.000058
C44	C	1.045105	0.570802	0.499942
C45	C	0.425640	0.009192	-0.000061
C46	C	0.925640	0.509192	0.499939
C47	C	0.460538	0.075142	-0.000068
C48	C	0.960538	0.575142	0.499932
C49	C	0.939236	-0.100510	-0.000047
C50	C	1.439236	0.399490	0.499953
C51	C	0.931823	-0.186795	-0.000047
C52	C	1.431823	0.313205	0.499953
C53	C	0.999882	-0.241570	-0.000050
C54	C	1.499882	0.258430	0.499950
C55	C	0.992912	-0.322644	-0.000057
C56	C	1.492912	0.177356	0.499943
C57	C	0.917883	-0.348941	-0.000057
C58	C	1.417883	0.151059	0.499943
C59	C	0.849820	-0.294159	-0.000057
C60	C	1.349820	0.205841	0.499943
C61	C	0.856790	-0.213087	-0.000055
C62	C	1.356790	0.286913	0.499945
C63	C	0.893258	-0.593013	-0.000068
C64	C	1.393258	-0.093013	0.499932
C65	C	0.886292	-0.674091	-0.000067
C66	C	1.386292	-0.174091	0.499933
C67	C	1.029385	-0.702571	-0.000069
C68	C	1.529385	-0.202571	0.499931
C69	C	1.036349	-0.621496	-0.000062
C70	C	1.536349	-0.121496	0.499938
C71	C	0.968286	-0.566722	-0.000067
C72	C	1.468286	-0.066722	0.499933
C73	C	0.910757	-0.431811	-0.000062
C74	C	1.410757	0.068189	0.499938
C75	C	0.975413	-0.483854	-0.000067
C76	C	1.475413	0.016146	0.499933
C77	C	1.087548	0.026531	-0.000063
C78	C	1.587548	0.526531	0.499937
C79	C	1.175601	0.022020	-0.000073
C80	C	1.675601	0.522020	0.499927
C81	C	0.946938	0.184849	-0.000063
C82	C	1.446938	0.684849	0.499937
C83	C	0.954351	0.271134	-0.000069
C84	C	1.454351	0.771134	0.499931
N85	N	0.933850	0.052532	0.205244
N86	N	1.433850	0.552532	0.705244
N87	N	0.952330	0.031800	-0.205353
N88	N	1.452330	0.531800	0.294647
C89	C	0.982106	-0.001763	0.250639
C90	C	1.482106	0.498237	0.750639
C91	C	0.978033	0.002824	0.341447
C92	C	1.478033	0.502824	0.841447
C93	C	0.925706	0.061710	0.386858
C94	C	1.425706	0.561710	0.886858
C95	C	0.877444	0.116008	0.341457
C96	C	1.377444	0.616008	0.841457
C97	C	0.881514	0.111417	0.250651
C98	C	1.381514	0.611417	0.750651
C99	C	0.908138	0.081506	0.658440
C100	C	1.408138	0.581506	1.158440
C101	C	0.904073	0.086095	0.749252
C102	C	1.404073	0.586095	1.249252
C103	C	1.004661	-0.027090	0.749236
C104	C	1.504661	0.472910	1.249236
C105	C	1.008730	-0.031673	0.658428
C106	C	1.508730	0.468327	1.158428
C107	C	0.960465	0.022622	0.613034
C108	C	1.460465	0.522622	1.113034
N109	N	0.921543	0.066402	0.479679
N110	N	1.421543	0.566402	0.979679
N111	N	0.964624	0.017926	0.520216
N112	N	1.464624	0.517926	1.020216
H113	H	0.694477	0.192513	-0.000052
H114	H	1.194477	0.692513	0.499948
H115	H	0.801370	-0.168489	-0.000054
H116	H	1.301370	0.331511	0.499946
H117	H	1.097446	-0.600092	-0.000062
H118	H	1.597446	-0.100092	0.499938
H119	H	1.048333	-0.367240	-0.000058
H120	H	1.548333	0.132760	0.499942
H121	H	0.191702	-0.108181	-0.000069
H122	H	0.691702	0.391819	0.499931
H123	H	1.024720	-0.049711	0.213671
H124	H	1.524720	0.450289	0.713671
H125	H	0.423077	0.135120	-0.000081
H126	H	0.923077	0.635120	0.499919
H127	H	0.463107	-0.050787	-0.000049
H128	H	0.963107	0.449213	0.499951
H129	H	1.060978	-0.220167	-0.000045
H130	H	1.560978	0.279833	0.499955
H131	H	1.084798	-0.747176	-0.000066
H132	H	1.584798	-0.247176	0.499934
H133	H	0.825191	-0.695497	-0.000052
H134	H	1.325191	-0.195497	0.499948
H135	H	1.017327	-0.041387	0.378407
H136	H	1.517327	0.458613	0.878407
H137	H	0.837835	-0.548424	-0.000071
H138	H	1.337835	-0.048424	0.499929
H139	H	1.036502	-0.462440	-0.000087
H140	H	1.536502	0.037560	0.499913
H141	H	0.868840	0.125717	0.621488
H142	H	1.368840	0.625717	1.121488
H143	H	1.051338	-0.079623	0.621455
H144	H	1.551338	0.420377	1.121455
H145	H	0.849668	-0.453230	-0.000060
H146	H	1.349668	0.046770	0.499940
H147	H	0.788730	-0.315576	-0.000062
H148	H	1.288730	0.184424	0.499938
H149	H	1.043955	-0.071295	0.786203
H150	H	1.543955	0.428705	1.286203
H151	H	0.861460	0.134050	0.786222
H152	H	1.361460	0.634050	1.286222
H153	H	0.842218	0.155628	0.213692
H154	H	1.342218	0.655628	0.713692
H155	H	0.174876	0.151428	-0.000080
H156	H	0.674876	0.651428	0.499920
H157	H	0.324965	0.143727	-0.000087
H158	H	0.824965	0.643727	0.499913
H159	H	0.711302	-0.067093	-0.000034
H160	H	1.211302	0.432907	0.499966
H161	H	0.544378	0.200214	-0.000067
H162	H	1.044378	0.700214	0.499933
H163	H	0.834835	0.163952	0.378437
H164	H	1.334835	0.663952	0.878437
H165	H	0.341803	-0.115875	-0.000060
H166	H	0.841803	0.384125	0.499940
H167	H	0.561214	-0.059395	-0.000049
H168	H	1.061214	0.440605	0.499951
