data_functionalizedCrystal
_audit_creation_method	'MofGen! by Chris Wilmer'
_symmetry_space_group_name_H-M	'P1'
_symmetry_Int_Tables_number	1
_symmetry_cell_setting	triclinic
loop_
_symmetry_equiv_pos_as_xyz
  x,y,z
_cell_length_a	7.088929
_cell_length_b	10.654550
_cell_length_c	10.654550
_cell_angle_alpha	84.484931
_cell_angle_beta	83.716094
_cell_angle_gamma	96.267360
loop_
_atom_site_label
_atom_site_type_symbol
_atom_site_fract_x
_atom_site_fract_y
_atom_site_fract_z
O1	O	0.158846	-1.655072	-0.189186
O2	O	0.158881	-1.289591	-0.205995
O3	O	0.158851	-1.480736	-0.014850
O4	O	0.158877	-1.463928	-0.380331
O5	O	-0.159128	-1.506280	0.010753
O6	O	-0.159098	-1.315135	-0.180392
O7	O	-0.159133	-1.680616	-0.163583
Cu8	Cu	-0.188149	-1.500208	-0.169650
Cu9	Cu	0.187898	-1.469999	-0.199928
O10	O	-0.159103	-1.489472	-0.354728
C11	C	-0.000104	-1.255565	-0.191960
C12	C	-0.000091	-1.116120	-0.188269
N13	N	-0.452641	-1.521465	-0.148353
C14	C	-0.000138	-1.492274	0.044749
C15	C	-0.000134	-1.488582	0.184192
N16	N	0.452389	-1.448753	-0.221215
C17	C	-0.000144	-1.714642	-0.177618
C18	C	-0.000144	-1.854086	-0.181310
C19	C	-0.000088	-1.036635	-0.300811
C20	C	-0.000122	-0.905617	-0.297331
C21	C	-0.000152	-0.933582	-0.068760
C22	C	-0.000132	-1.064599	-0.072239
C23	C	-0.000110	-1.477933	-0.414327
C24	C	-0.000101	-1.481625	-0.553771
C25	C	-0.000144	-1.601124	0.263679
C26	C	-0.000121	-1.597645	0.394698
C27	C	-0.000085	-1.369073	0.366731
C28	C	-0.000095	-1.372552	0.235714
H29	H	-0.465953	-1.373395	-0.296721
H30	H	-0.000057	-1.274606	0.408697
H31	H	-0.534309	-1.596836	-0.072851
Cl32	Cl	-0.000189	-1.746989	0.198912
H33	H	-0.000125	-1.689289	0.459411
H34	H	-0.000081	-1.280900	0.170992
H35	H	-0.000069	-1.078580	-0.395288
Cl36	Cl	-0.000192	-0.868801	0.077098
Cl37	Cl	-0.000121	-0.805696	-0.438819
H38	H	-0.000140	-1.129320	0.019412
