data_functionalizedCrystal
_audit_creation_method	'MofGen! by Chris Wilmer'
_symmetry_space_group_name_H-M	'P1'
_symmetry_Int_Tables_number	1
_symmetry_cell_setting	triclinic
loop_
_symmetry_equiv_pos_as_xyz
  x,y,z
_cell_length_a	10.654549
_cell_length_b	8.559649
_cell_length_c	9.730223
_cell_angle_alpha	89.997407
_cell_angle_beta	89.997731
_cell_angle_gamma	77.131721
loop_
_atom_site_label
_atom_site_type_symbol
_atom_site_fract_x
_atom_site_fract_y
_atom_site_fract_z
O1	O	1.644682	0.224182	-0.114251
O2	O	1.276997	0.245541	-0.114260
O3	O	1.493233	0.002619	-0.114254
O4	O	1.428446	0.467105	-0.114258
O5	O	1.493221	0.002612	0.114326
O6	O	1.276985	0.245535	0.114319
O7	O	1.644670	0.224175	0.114328
Zn8	Zn	1.460826	0.234854	0.150616
Zn9	Zn	1.460841	0.234863	-0.150548
O10	O	1.428434	0.467098	0.114322
C11	C	1.230355	0.243970	0.000028
C12	C	1.091396	0.239278	0.000025
C13	C	0.866564	0.377886	0.000029
C14	C	0.997128	0.382307	0.000021
C15	C	1.055096	0.091818	0.000023
C16	C	0.924534	0.087400	0.000021
C17	C	1.498136	-0.056860	0.000034
C18	C	1.512751	-0.234078	0.000026
C19	C	1.691312	0.225747	0.000037
C20	C	1.830270	0.230439	0.000031
C21	C	1.423530	0.526577	0.000031
C22	C	1.408916	0.703795	0.000029
N23	N	1.460824	0.234847	0.356152
N24	N	1.460854	0.234857	-0.356084
C25	C	1.556598	0.127326	0.428081
C26	C	1.556611	0.127327	0.571964
C27	C	1.365070	0.342383	0.571977
C28	C	1.365054	0.342373	0.428096
H29	H	1.308838	-0.213817	0.000031
H30	H	1.287097	0.429930	0.630568
H31	H	1.634597	0.039772	0.630525
O32	O	1.271952	0.446980	0.358428
C33	C	1.187414	0.541870	0.452777
H34	H	1.238674	0.544299	0.555331
H35	H	1.099240	0.488935	0.468103
C36	C	1.081977	0.710763	0.270644
C37	C	1.144939	0.713758	0.396600
H38	H	1.055771	0.816790	0.235990
H39	H	1.138928	0.646831	0.207078
H40	H	1.008507	0.666644	0.283432
H41	H	1.218416	0.757857	0.383807
H42	H	1.087999	0.777701	0.460162
O43	O	1.649681	0.022717	0.358407
C44	C	1.734232	-0.072157	0.452754
H45	H	1.682989	-0.074559	0.555327
H46	H	1.822412	-0.019227	0.468034
C47	C	1.839630	-0.241097	0.270634
C48	C	1.776689	-0.244058	0.396612
H49	H	1.865825	-0.347132	0.236002
H50	H	1.782670	-0.177176	0.207069
H51	H	1.913106	-0.196981	0.283385
H52	H	1.703206	-0.288154	0.383857
H53	H	1.833638	-0.307991	0.460174
O54	O	1.032160	0.525675	0.000084
C55	C	0.920960	0.650967	0.000055
H56	H	0.836389	0.605232	0.043333
H57	H	0.898161	0.695162	-0.109606
C58	C	1.048400	0.846082	0.036541
C59	C	0.944531	0.789913	0.089706
H60	H	1.062940	0.931794	0.091836
H61	H	1.123319	0.761672	0.036555
H62	H	1.029387	0.882900	-0.054842
H63	H	0.963551	0.753078	0.181080
H64	H	0.869616	0.874320	0.089710
H65	H	0.789816	0.494358	0.000036
H66	H	1.131861	-0.024638	0.000018
H67	H	1.612835	-0.316475	0.000040
H68	H	0.894988	-0.032677	0.000019
