data_functionalizedCrystal
_audit_creation_method	'MofGen! by Chris Wilmer'
_symmetry_space_group_name_H-M	'P1'
_symmetry_Int_Tables_number	1
_symmetry_cell_setting	triclinic
loop_
_symmetry_equiv_pos_as_xyz
  x,y,z
_cell_length_a	14.519731
_cell_length_b	11.792241
_cell_length_c	10.868271
_cell_angle_alpha	90.005281
_cell_angle_beta	89.995592
_cell_angle_gamma	96.058866
loop_
_atom_site_label
_atom_site_type_symbol
_atom_site_fract_x
_atom_site_fract_y
_atom_site_fract_z
O1	O	1.224400	-0.148896	-0.102325
O2	O	1.557733	0.184437	0.231008
O3	O	1.891067	0.517771	0.564341
O4	O	0.955990	-0.166392	-0.102327
O5	O	1.289323	0.166942	0.231006
O6	O	1.622656	0.500275	0.564339
O7	O	1.096709	0.007562	-0.102318
O8	O	1.430042	0.340895	0.231016
O9	O	1.763375	0.674229	0.564349
O10	O	1.083681	-0.322850	-0.102335
O11	O	1.417015	0.010483	0.230998
O12	O	1.750348	0.343817	0.564332
O13	O	1.096697	0.007569	0.102327
O14	O	1.430030	0.340902	0.435660
O15	O	1.763364	0.674236	0.768994
O16	O	0.955978	-0.166385	0.102317
O17	O	1.289312	0.166948	0.435651
O18	O	1.622645	0.500282	0.768984
O19	O	1.224388	-0.148889	0.102319
O20	O	1.557722	0.184444	0.435653
O21	O	1.891055	0.517777	0.768986
Zn22	Zn	1.090181	-0.157636	0.134810
Zn23	Zn	1.423515	0.175697	0.468143
Zn24	Zn	1.756848	0.509031	0.801477
Zn25	Zn	1.090197	-0.157645	-0.134818
Zn26	Zn	1.423530	0.175688	0.198515
Zn27	Zn	1.756863	0.509022	0.531849
O28	O	1.083670	-0.322843	0.102310
O29	O	1.417003	0.010490	0.435643
O30	O	1.750336	0.343823	0.768976
C31	C	0.921622	-0.165569	-0.000005
C32	C	1.254955	0.167765	0.333328
C33	C	1.588288	0.501098	0.666661
C34	C	0.819232	-0.163112	-0.000006
C35	C	1.152566	0.170221	0.333328
C36	C	1.485899	0.503555	0.666661
C37	C	0.736081	-0.161116	-0.000011
C38	C	1.069414	0.172217	0.333323
C39	C	1.402748	0.505551	0.666656
C40	C	0.631763	-0.158622	-0.000011
C41	C	0.965096	0.174711	0.333322
C42	C	1.298430	0.508045	0.666656
C43	C	0.548617	-0.156642	-0.000011
C44	C	0.881950	0.176691	0.333323
C45	C	1.215283	0.510024	0.666656
C46	C	0.444292	-0.154149	-0.000013
C47	C	0.777626	0.179185	0.333320
C48	C	1.110959	0.512518	0.666653
C49	C	1.095884	0.049852	0.000004
C50	C	1.429218	0.383185	0.333338
C51	C	1.762551	0.716519	0.666671
C52	C	1.093435	0.175852	0.000003
C53	C	1.426768	0.509186	0.333336
C54	C	1.760102	0.842519	0.666670
C55	C	1.258757	-0.149713	-0.000006
C56	C	1.592090	0.183621	0.333328
C57	C	1.925423	0.516954	0.666661
C58	C	1.361146	-0.152169	-0.000013
C59	C	1.694479	0.181164	0.333320
C60	C	2.027813	0.514498	0.666654
C61	C	1.084494	-0.365133	-0.000015
C62	C	1.417827	-0.031800	0.333318
C63	C	1.751160	0.301534	0.666652
C64	C	1.086943	-0.491133	-0.000022
C65	C	1.420276	-0.157800	0.333311
C66	C	1.753610	0.175533	0.666645
N67	N	1.090178	-0.157629	0.318824
N68	N	1.423511	0.175704	0.652157
N69	N	1.756844	0.509037	0.985491
C70	C	1.088931	0.406540	-0.000018
C71	C	1.422265	0.739873	0.333316
C72	C	1.755598	1.073207	0.666649
C73	C	1.091434	0.278168	-0.000006
C74	C	1.424767	0.611502	0.333327
C75	C	1.758100	0.944835	0.666660
N76	N	1.090208	-0.157643	-0.318832
N77	N	1.423541	0.175691	0.014501
N78	N	1.756874	0.509024	0.347834
C79	C	1.090192	-0.157643	0.569830
C80	C	1.423525	0.175691	0.903163
C81	C	1.756859	0.509024	1.236497
C82	C	1.090181	-0.157639	0.430153
C83	C	1.423514	0.175695	0.763486
C84	C	1.756848	0.509028	1.096819
