data_functionalizedCrystal
_audit_creation_method	'MofGen! by Chris Wilmer'
_symmetry_space_group_name_H-M	'P1'
_symmetry_Int_Tables_number	1
_symmetry_cell_setting	triclinic
loop_
_symmetry_equiv_pos_as_xyz
  x,y,z
_cell_length_a	19.077713
_cell_length_b	18.050591
_cell_length_c	19.077174
_cell_angle_alpha	92.323056
_cell_angle_beta	94.475462
_cell_angle_gamma	92.273359
loop_
_atom_site_label
_atom_site_type_symbol
_atom_site_fract_x
_atom_site_fract_y
_atom_site_fract_z
Zn1	Zn	-0.296790	-1.165246	-0.410033
Zn2	Zn	-0.409937	-1.165149	-0.296885
Zn3	Zn	-0.292061	-1.035866	-0.292144
Zn4	Zn	-0.414618	-1.046200	-0.414714
O5	O	-0.353352	-1.103115	-0.353444
O6	O	-0.311819	-1.269159	-0.395049
O7	O	-0.390362	-1.143634	-0.197607
O8	O	-0.194046	-1.048744	-0.303839
O9	O	-0.394948	-1.269088	-0.311919
O10	O	-0.197520	-1.143799	-0.390452
O11	O	-0.303760	-1.048650	-0.194124
O12	O	-0.308299	-0.933310	-0.308378
O13	O	-0.402926	-1.066357	-0.512742
O14	O	-0.398341	-0.940903	-0.398430
O15	O	-0.316359	-1.153820	-0.509303
O16	O	-0.509201	-1.153655	-0.316458
O17	O	-0.512640	-1.066264	-0.403027
C18	C	-0.353315	-0.910160	-0.353398
C19	C	-0.353318	-0.827614	-0.353395
C20	C	-0.304296	-0.574639	-0.304522
C21	C	-0.289715	-0.626153	-0.368171
C22	C	-0.353340	-0.530496	-0.353439
C23	C	-0.367877	-0.626062	-0.289772
C24	C	-0.353327	-0.676480	-0.353414
C25	C	-0.338728	-0.580923	-0.417121
C26	C	-0.416918	-0.580826	-0.338680
C27	C	-0.402364	-0.632321	-0.402373
C28	C	-0.353346	-0.446399	-0.353453
C29	C	-0.353322	-0.760576	-0.353408
C30	C	-0.536498	-1.111091	-0.360780
C31	C	-0.614850	-1.114572	-0.363943
C32	C	-1.056075	-1.139536	-0.386601
C33	C	-0.982455	-1.136256	-0.383624
C34	C	-0.943902	-1.085163	-0.337011
C35	C	-0.978971	-1.037351	-0.293367
C36	C	-1.052590	-1.040635	-0.296341
C37	C	-0.723538	-1.070044	-0.323273
C38	C	-0.649915	-1.066762	-0.320303
C39	C	-0.653404	-1.165669	-0.410560
C40	C	-0.727024	-1.168945	-0.413533
C41	C	-0.762087	-1.121136	-0.369887
N42	N	-0.868650	-1.081808	-0.333968
N43	N	-0.837337	-1.124495	-0.372927
C44	C	-0.169491	-1.095129	-0.346094
C45	C	-0.091140	-1.091726	-0.342962
C46	C	-0.360692	-1.111252	-0.537316
C47	C	-0.363820	-1.114720	-0.615672
C48	C	-0.353376	-0.296823	-0.353478
C49	C	-0.353352	-0.379367	-0.353459
C50	C	-0.320201	-1.066898	-0.650669
C51	C	-0.323146	-1.070153	-0.724292
C52	C	-0.369707	-1.121235	-0.762917
C53	C	-0.413331	-1.169059	-0.727914
C54	C	-0.410389	-1.165799	-0.654292
C55	C	-0.383344	-1.136283	-0.983298
C56	C	-0.386281	-1.139540	-1.056925
C57	C	-0.296097	-1.040633	-1.053298
C58	C	-0.293156	-1.037381	-0.979674
C59	C	-0.336783	-1.085203	-0.944678
N60	N	-0.372717	-1.124565	-0.838172
N61	N	-0.333776	-1.081868	-0.869425
C62	C	-0.345989	-1.095051	-0.170285
C63	C	-0.342662	-1.091718	-0.091922
H64	H	-0.262797	-0.549451	-0.263213
Cl65	Cl	-0.775486	-1.233167	-0.472147
Cl66	Cl	-0.938377	-1.196363	-0.438488
Cl67	Cl	-0.930504	-0.973122	-0.234764
Cl68	Cl	-0.206696	-0.656992	-0.387442
H69	H	-0.380177	-0.645960	-0.235939
Cl70	Cl	-0.319638	-0.550345	-0.500255
Cl71	Cl	-0.444813	-1.203768	-1.105480
Cl72	Cl	-0.466395	-0.671007	-0.466293
H73	H	-0.445903	-1.204746	-0.625798
H74	H	-1.087461	-1.181134	-0.424566
Cl75	Cl	-0.609320	-1.225769	-0.465426
H76	H	-0.470673	-0.560831	-0.326182
H77	H	-1.081139	-1.001703	-0.260805
H78	H	-0.418875	-1.175214	-0.954813
H79	H	-0.618527	-1.025153	-0.282343
Cl80	Cl	-0.234619	-0.973163	-0.931123
H81	H	-0.282282	-1.025306	-0.619226
Cl82	Cl	-0.767608	-1.009936	-0.268407
H83	H	-0.287630	-1.031209	-0.752784
Cl84	Cl	-0.241259	-0.980516	-1.097297
Cl85	Cl	-0.471869	-1.233271	-0.776471
