data_functionalizedCrystal
_audit_creation_method	'MofGen! by Chris Wilmer'
_symmetry_space_group_name_H-M	'P1'
_symmetry_Int_Tables_number	1
_symmetry_cell_setting	triclinic
loop_
_symmetry_equiv_pos_as_xyz
  x,y,z
_cell_length_a	13.897448
_cell_length_b	13.897449
_cell_length_c	18.215399
_cell_angle_alpha	89.979342
_cell_angle_beta	90.026328
_cell_angle_gamma	89.982475
loop_
_atom_site_label
_atom_site_type_symbol
_atom_site_fract_x
_atom_site_fract_y
_atom_site_fract_z
Zn1	Zn	-0.384029	-1.474682	0.416140
Zn2	Zn	-0.545339	-1.474582	0.293078
Zn3	Zn	-0.384059	-1.313377	0.293086
Zn4	Zn	-0.545283	-1.313353	0.416101
O5	O	-0.464678	-1.393998	0.354601
O6	O	-0.405438	-1.609650	0.399829
O7	O	-0.523980	-1.453166	0.190094
O8	O	-0.249073	-1.334826	0.309430
O9	O	-0.523951	-1.609577	0.309415
O10	O	-0.249051	-1.453336	0.399837
O11	O	-0.405489	-1.334730	0.190101
O12	O	-0.405435	-1.178392	0.309391
O13	O	-0.523857	-1.334785	0.519090
O14	O	-0.523886	-1.178374	0.399769
O15	O	-0.405384	-1.453313	0.519119
O16	O	-0.680313	-1.453142	0.309377
O17	O	-0.680272	-1.334688	0.399761
C18	C	-0.464658	-1.143384	0.354577
C19	C	-0.464673	-1.036170	0.354585
C20	C	-0.715292	-1.393928	0.354580
C21	C	-0.822506	-1.393986	0.354595
C22	C	-0.464672	-0.839875	0.354598
C23	C	-0.464670	-0.949107	0.354589
C24	C	-1.018801	-1.394087	0.354642
C25	C	-0.909568	-1.394028	0.354618
C26	C	-0.213085	-1.394095	0.354639
C27	C	-0.105871	-1.394137	0.354655
C28	C	-0.464611	-1.394057	0.546554
C29	C	-0.464583	-1.394082	0.628353
C30	C	-0.464691	-0.645591	0.354618
C31	C	-0.464681	-0.752805	0.354608
C32	C	-0.464674	-1.393995	0.163395
C33	C	-0.464431	-1.394157	0.081596
C34	C	-0.402836	-1.455822	0.816563
C35	C	-0.402808	-1.455833	0.893422
C36	C	-0.526180	-1.332411	0.893381
C37	C	-0.526202	-1.332395	0.816523
C38	C	-0.464532	-1.394106	0.778117
C39	C	-0.464481	-1.394133	0.931833
C40	C	-0.464451	-1.394145	1.015167
C41	C	-0.464561	-1.394093	0.694778
H42	H	-0.352617	-1.506068	0.785295
Br43	Br	-0.609875	-1.248668	0.945508
Br44	Br	-0.319081	-1.539601	0.945598
Br45	Br	-0.609930	-1.248623	0.764340
