data_functionalizedCrystal
_audit_creation_method	'MofGen! by Chris Wilmer'
_symmetry_space_group_name_H-M	'P1'
_symmetry_Int_Tables_number	1
_symmetry_cell_setting	triclinic
loop_
_symmetry_equiv_pos_as_xyz
  x,y,z
_cell_length_a	8.497374
_cell_length_b	8.497374
_cell_length_c	19.805407
_cell_angle_alpha	89.994005
_cell_angle_beta	90.000079
_cell_angle_gamma	90.005237
loop_
_atom_site_label
_atom_site_type_symbol
_atom_site_fract_x
_atom_site_fract_y
_atom_site_fract_z
Zn1	Zn	0.628372	0.892286	-1.034754
Zn2	Zn	0.892118	0.628552	-1.034749
Zn3	Zn	0.628341	0.628494	-0.921599
Zn4	Zn	0.892099	0.892263	-0.921582
O5	O	0.760233	0.760399	-0.978171
O6	O	0.663379	0.857335	-1.129470
O7	O	0.857122	0.407782	-1.019744
O8	O	0.407583	0.663471	-0.936618
O9	O	0.857152	0.663570	-1.129466
O10	O	0.407606	0.857279	-1.019753
O11	O	0.663326	0.407739	-0.936613
O12	O	0.663308	0.663450	-0.826880
O13	O	0.857121	1.113029	-0.936590
O14	O	0.857091	0.857240	-0.826868
O15	O	0.663362	1.113045	-1.019737
O16	O	1.112878	0.663548	-1.019728
O17	O	1.112864	0.857296	-0.936585
C18	C	0.760195	0.760337	-0.802315
C19	C	0.760217	0.760348	-0.727083
C20	C	0.861270	0.861089	-0.691750
C21	C	0.861270	0.861107	-0.621062
C22	C	0.760224	0.760375	-0.585707
C23	C	0.659160	0.659629	-0.621045
C24	C	0.659153	0.659620	-0.691732
C25	C	0.659183	0.659664	-0.335972
C26	C	0.659201	0.659677	-0.265279
C27	C	0.861300	0.861151	-0.265301
C28	C	0.861293	0.861142	-0.335989
C29	C	0.760224	0.760403	-0.371320
C30	C	0.760223	0.760387	-0.447968
C31	C	0.760231	0.760382	-0.509060
C32	C	1.170112	0.760422	-0.978162
C33	C	1.348757	0.760396	-0.978180
C34	C	0.760235	1.171879	-0.978166
C35	C	0.760252	1.350523	-0.978167
C36	C	0.760261	0.760446	-0.154714
C37	C	0.760247	0.760428	-0.229946
H38	H	0.576857	0.577595	-0.720499
O39	O	0.959392	0.958851	-0.370436
C40	C	0.937685	0.937271	-0.440403
H41	H	0.885835	0.815596	-0.450047
H42	H	1.055862	0.947805	-0.467273
H43	H	0.853809	1.030961	-0.460464
H44	H	0.943559	0.943112	-0.720531
O45	O	0.560958	0.561662	-0.370182
C46	C	0.471751	0.472788	-0.323817
H47	H	0.536378	0.467228	-0.273432
H48	H	0.454705	0.348517	-0.344231
H49	H	0.352037	0.530750	-0.316294
H50	H	0.576907	0.577648	-0.236496
O51	O	0.959321	0.958975	-0.230875
C52	C	0.937691	0.937368	-0.160903
H53	H	0.815862	0.885890	-0.151241
H54	H	0.948587	1.055526	-0.134050
H55	H	1.031132	0.853219	-0.140838
H56	H	0.943559	0.943140	-0.592297
O57	O	0.561143	0.561835	-0.586599
C58	C	0.582786	0.583471	-0.516632
H59	H	0.704620	0.634947	-0.506982
H60	H	0.571889	0.465324	-0.489758
H61	H	0.489353	0.667633	-0.496578
