data_functionalizedCrystal
_audit_creation_method	'MofGen! by Chris Wilmer'
_symmetry_space_group_name_H-M	'P1'
_symmetry_Int_Tables_number	1
_symmetry_cell_setting	triclinic
loop_
_symmetry_equiv_pos_as_xyz
  x,y,z
_cell_length_a	12.784905
_cell_length_b	12.837942
_cell_length_c	9.130313
_cell_angle_alpha	89.998975
_cell_angle_beta	89.999402
_cell_angle_gamma	83.968130
loop_
_atom_site_label
_atom_site_type_symbol
_atom_site_fract_x
_atom_site_fract_y
_atom_site_fract_z
O1	O	1.410960	0.006432	-0.121808
O2	O	1.105961	0.050424	-0.121809
O3	O	1.251698	-0.121865	-0.121799
O4	O	1.265224	0.178721	-0.121817
O5	O	1.251696	-0.121861	0.121800
O6	O	1.105960	0.050429	0.121790
O7	O	1.410959	0.006436	0.121791
Cu8	Cu	1.258459	0.028433	0.144033
Cu9	Cu	1.258461	0.028428	-0.144051
O10	O	1.265222	0.178726	0.121782
C11	C	1.066651	0.053288	-0.000009
C12	C	0.949519	0.061801	-0.000010
C13	C	1.247128	-0.160072	-0.000001
C14	C	1.233500	-0.273920	-0.000003
C15	C	0.735568	-0.111642	-0.000025
C16	C	0.625513	-0.103648	-0.000026
C17	C	0.619351	0.085781	-0.000021
C18	C	0.729407	0.077787	-0.000020
C19	C	0.787511	-0.020928	-0.000021
C20	C	0.897569	-0.028921	-0.000010
C21	C	0.891405	0.160508	-0.000015
C22	C	0.781350	0.168502	-0.000016
C23	C	1.397331	-0.529646	-0.000033
C24	C	1.384532	-0.636618	-0.000036
C25	C	1.195102	-0.594839	-0.000021
C26	C	1.207901	-0.487867	-0.000019
C27	C	1.309019	-0.455275	-0.000022
C28	C	1.321818	-0.348301	-0.000009
C29	C	1.132389	-0.306523	-0.000005
C30	C	1.119589	-0.413495	-0.000008
C31	C	1.450269	0.003573	-0.000012
C32	C	1.567401	-0.004940	-0.000021
C33	C	1.269792	0.216932	-0.000020
C34	C	1.283420	0.330781	-0.000027
N35	N	1.258465	0.028435	0.346656
N36	N	1.258462	0.028416	-0.346673
C37	C	1.323018	-0.047833	0.423312
C38	C	1.323014	-0.047845	0.576649
C39	C	1.193902	0.104688	0.576660
C40	C	1.193901	0.104695	0.423326
C41	C	1.397563	-0.135894	0.423307
C42	C	1.397559	-0.135906	0.576644
H43	H	0.782878	-0.192020	-0.000016
H44	H	1.141328	0.166790	0.360914
H45	H	0.572023	0.166150	-0.000040
H46	H	1.365098	-0.208060	0.624195
H47	H	0.944876	-0.109300	-0.000007
H48	H	0.583225	-0.177517	-0.000032
H49	H	1.060479	-0.245957	0.000015
O50	O	1.495625	-0.498158	-0.000101
C51	C	1.570830	-0.586741	-0.000066
H52	H	1.533941	-0.656872	-0.046181
H53	H	1.598593	-0.604540	0.116800
C54	C	1.710613	-0.478588	-0.038962
C55	C	1.665308	-0.564723	-0.095613
H56	H	1.768895	-0.465007	-0.097894
H57	H	1.659948	-0.418908	-0.038980
H58	H	1.733741	-0.493432	0.058425
H59	H	1.642170	-0.549873	-0.192991
H60	H	1.715973	-0.624401	-0.095613
H61	H	0.734026	0.248872	-0.000022
H62	H	1.112776	-0.621395	-0.000034
H63	H	1.372302	-0.213145	0.381691
H64	H	1.037262	-0.440047	-0.000010
O65	O	1.131134	0.178628	0.651303
C66	C	1.060569	0.129424	0.739961
H67	H	1.094385	0.045282	0.762922
H68	H	0.982018	0.129418	0.680864
C69	C	1.002381	0.292691	0.857420
C70	C	1.043919	0.189349	0.885631
H71	H	0.992105	0.329657	0.947273
H72	H	1.049919	0.325842	0.797686
H73	H	0.936926	0.292671	0.808169
H74	H	1.109377	0.189369	0.934864
H75	H	0.996391	0.156199	0.945377
H76	H	1.476285	-0.118396	0.375747
H77	H	1.480061	-0.126274	0.618259
H78	H	0.933708	0.234375	-0.000004
H79	H	1.404153	-0.321767	-0.000007
H80	H	1.456445	-0.697169	-0.000049
