data_functionalizedCrystal
_audit_creation_method	'MofGen! by Chris Wilmer'
_symmetry_space_group_name_H-M	'P1'
_symmetry_Int_Tables_number	1
_symmetry_cell_setting	triclinic
loop_
_symmetry_equiv_pos_as_xyz
  x,y,z
_cell_length_a	8.597227
_cell_length_b	23.532407
_cell_length_c	22.010155
_cell_angle_alpha	89.993714
_cell_angle_beta	82.294918
_cell_angle_gamma	95.904514
loop_
_atom_site_label
_atom_site_type_symbol
_atom_site_fract_x
_atom_site_fract_y
_atom_site_fract_z
O1	O	-2.081155	0.084918	0.159494
O2	O	-1.624110	0.091453	0.135566
O3	O	-1.866415	0.005358	0.148240
O4	O	-1.838850	0.171012	0.146820
O5	O	-1.866398	0.005381	0.047189
O6	O	-1.624093	0.091475	0.034515
O7	O	-2.081138	0.084941	0.058442
Cu8	Cu	-1.852614	0.088210	0.037252
Cu9	Cu	-1.852634	0.088183	0.156757
O10	O	-1.838833	0.171035	0.045768
C11	C	-1.565639	0.090765	0.081980
C12	C	-1.391442	0.088677	0.072860
C13	C	-1.865704	-0.015852	0.097676
C14	C	-1.863594	-0.079085	0.097561
C15	C	-1.993748	-0.477200	0.104408
C16	C	-1.991788	-0.536615	0.104310
O17	O	-2.112442	-0.572444	0.110649
N18	N	-1.847737	-0.560334	0.096769
C19	C	-1.705638	-0.524635	0.089331
O20	O	-1.582933	-0.550266	0.082907
C21	C	-1.707601	-0.465221	0.089433
C22	C	-1.851660	-0.441505	0.096969
C23	C	-2.137796	-0.453483	0.111945
C24	C	-2.139756	-0.394072	0.112041
C25	C	-1.997668	-0.358378	0.104602
C26	C	-1.853620	-0.382094	0.097066
C27	C	-1.565503	-0.429524	0.081999
C28	C	-1.567478	-0.370106	0.082103
C29	C	-1.711537	-0.346390	0.089639
C30	C	-1.713492	-0.286989	0.089724
N31	N	-1.857542	-0.263269	0.097265
C32	C	-1.999630	-0.298964	0.104705
C33	C	-1.701529	-0.649409	0.089117
C34	C	-1.699565	-0.708822	0.089010
C35	C	-1.985715	-0.720797	0.103991
C36	C	-1.987677	-0.661383	0.104094
C37	C	-1.845579	-0.625690	0.096659
C38	C	-2.003735	-0.174196	0.104907
C39	C	-2.005682	-0.114779	0.105001
C40	C	-1.719533	-0.102809	0.090023
C41	C	-1.717585	-0.162220	0.089926
C42	C	-1.859698	-0.197913	0.097371
O43	O	-1.592901	-0.251125	0.083390
O44	O	-2.122315	-0.273325	0.111135
C45	C	-1.139607	0.085633	0.112028
C46	C	-1.313800	0.087734	0.121145
C47	C	-1.839544	0.192245	0.096334
C48	C	-1.841654	0.255478	0.096453
N49	N	-1.852611	0.088229	-0.046801
C50	C	-1.745282	0.126306	-0.345027
C51	C	-1.745278	0.126311	-0.281419
O52	O	-1.653977	0.158709	-0.253303
N53	N	-1.852599	0.088207	-0.243986
C54	C	-1.959920	0.050092	-0.270163
O55	O	-2.051203	0.017682	-0.232482
C56	C	-1.959915	0.050085	-0.333769
C57	C	-1.852598	0.088195	-0.371200
C58	C	-1.637973	0.164413	-0.382457
C59	C	-1.637979	0.164408	-0.446059
C60	C	-1.745295	0.126297	-0.472232
C61	C	-1.852605	0.088190	-0.434802
C62	C	-2.067228	0.011967	-0.359946
C63	C	-2.067213	0.011963	-0.423557
C64	C	-1.959896	0.050073	-0.460988
C65	C	-1.959927	0.050075	-0.524578
N66	N	-1.852606	0.088178	-0.562012
C67	C	-1.745290	0.126290	-0.535839
C68	C	-1.959920	0.050110	-0.136585
C69	C	-1.959933	0.050120	-0.072979
C70	C	-1.745289	0.126338	-0.084240
C71	C	-1.745284	0.126331	-0.147847
C72	C	-1.852599	0.088214	-0.174019
C73	C	-1.745313	0.126278	-0.669409
C74	C	-1.745333	0.126271	-0.733017
C75	C	-1.959971	0.050051	-0.721751
C76	C	-1.959957	0.050059	-0.658148
C77	C	-1.852615	0.088175	-0.631980
O78	O	-2.051177	0.017692	-0.552737
O79	O	-1.654009	0.158689	-0.573528
N80	N	-1.852649	0.088160	0.240810
H81	H	-1.380592	0.088528	0.169458
H82	H	-1.324639	0.087889	0.024543
Cl83	Cl	-1.384388	-0.459323	0.072529
H84	H	-2.104983	-0.642078	0.110231
H85	H	-1.657897	0.157363	-0.178319
H86	H	-2.122997	-0.095473	0.111136
Cl87	Cl	-2.182394	-0.219057	0.114265
H88	H	-2.257063	-0.374768	0.118181
Cl89	Cl	-2.316446	-0.498347	0.121297
H90	H	-2.101411	-0.749871	0.110051
Cl91	Cl	-1.518454	-0.738629	0.079524
H92	H	-2.047321	0.019072	-0.157890
H93	H	-2.154614	-0.019066	-0.329478
Cl94	Cl	-1.522872	-0.604542	0.079763
H95	H	-1.451762	-0.341046	0.076049
Cl96	Cl	-1.610413	0.174186	-0.780069
Cl97	Cl	-2.094891	0.002154	-0.611094
H98	H	-1.600280	-0.181531	0.083773
Cl99	Cl	-1.540918	-0.057925	0.080672
Cl100	Cl	-1.610369	0.174196	-0.636522
Cl101	Cl	-1.503051	0.212316	-0.493108
Cl102	Cl	-1.503044	0.212330	-0.349565
Cl103	Cl	-1.610374	0.174248	-0.051324
H104	H	-2.047337	0.019093	-0.042506
Cl105	Cl	-2.202130	-0.035960	-0.456454
H106	H	-2.047351	0.019023	-0.743070
