data_functionalizedCrystal
_audit_creation_method	'MofGen! by Chris Wilmer'
_symmetry_space_group_name_H-M	'P1'
_symmetry_Int_Tables_number	1
_symmetry_cell_setting	triclinic
loop_
_symmetry_equiv_pos_as_xyz
  x,y,z
_cell_length_a	21.883469
_cell_length_b	21.882911
_cell_length_c	21.879399
_cell_angle_alpha	60.006540
_cell_angle_beta	60.013207
_cell_angle_gamma	59.992231
loop_
_atom_site_label
_atom_site_type_symbol
_atom_site_fract_x
_atom_site_fract_y
_atom_site_fract_z
O1	O	0.084645	-0.892842	0.746620
O2	O	0.031867	-0.695139	0.601571
O3	O	0.157054	-0.820237	0.601476
O4	O	-0.040542	-0.767744	0.746716
O5	O	0.198586	-0.778715	0.642912
O6	O	0.073399	-0.653617	0.643007
O7	O	0.126177	-0.851320	0.788056
Cu8	Cu	0.103580	-0.748677	0.719315
Cu9	Cu	0.054464	-0.797782	0.670313
O10	O	0.000990	-0.726222	0.788151
N11	N	0.138128	-0.714145	0.753785
N12	N	0.019923	-0.832320	0.635843
C13	C	0.190018	-0.547369	0.805644
C14	C	0.190029	-0.662289	0.805630
C15	C	0.218780	-0.633565	0.834353
C16	C	0.344122	-0.611968	0.768360
C17	C	0.422474	-0.638085	0.742222
C18	C	0.422504	-0.764859	0.790561
C19	C	0.344154	-0.738739	0.816702
C20	C	0.208899	-0.508180	0.728617
C21	C	0.182748	-0.429822	0.702522
C22	C	0.118843	-0.429847	0.830485
C23	C	0.144993	-0.508205	0.856580
C24	C	0.112994	-0.643364	0.824587
C25	C	0.086865	-0.669476	0.798467
C26	C	0.214799	-0.733437	0.734451
C27	C	0.240932	-0.707325	0.760562
C28	C	0.113084	-0.643389	0.959747
C29	C	0.087018	-0.669524	1.038102
C30	C	0.214996	-0.733501	1.038048
C31	C	0.241061	-0.707367	0.959690
C32	C	0.190103	-0.662308	0.920542
C33	C	0.304966	-0.662293	0.805598
C34	C	-0.117460	-0.854702	0.612901
C35	C	-0.002405	-0.854864	0.498145
C36	C	-0.002621	-0.969735	0.613108
C37	C	-0.002603	-0.854858	0.613180
C38	C	-0.031272	-0.883541	0.584334
N39	N	0.460550	-0.714150	0.753681
O40	O	0.699805	-0.721060	0.574973
O41	O	0.700047	-0.866553	0.772482
O42	O	0.699952	-0.866219	0.647213
O43	O	0.699900	-0.721394	0.700242
O44	O	0.575478	-0.824800	0.688791
O45	O	0.575573	-0.825134	0.814060
O46	O	0.575331	-0.679641	0.616551
Cu47	Cu	0.564087	-0.748606	0.719102
Cu48	Cu	0.711292	-0.797588	0.669931
O49	O	0.575426	-0.679975	0.741820
N50	N	0.814828	-0.832044	0.635345
N51	N	0.138106	-0.391772	0.753815
O52	O	-0.040520	-0.152377	0.746758
O53	O	0.156993	-0.152371	0.601281
O54	O	0.031698	-0.152390	0.601639
O55	O	0.084775	-0.152358	0.746401
O56	O	0.073234	-0.276876	0.643130
O57	O	0.198529	-0.276856	0.642772
O58	O	0.001015	-0.276863	0.788249
Cu59	Cu	0.103564	-0.288226	0.719299
Cu60	Cu	0.054444	-0.141007	0.670231
O61	O	0.126310	-0.276844	0.787892
N62	N	0.019892	-0.037461	0.635717
N63	N	0.138332	-0.714192	1.076133
O64	O	0.131293	-0.892804	1.315506
O65	O	-0.014162	-0.695219	1.315533
O66	O	-0.013826	-0.820490	1.315480
O67	O	0.130957	-0.767533	1.315559
O68	O	0.027651	-0.778981	1.191001
O69	O	0.027314	-0.653710	1.191054
O70	O	0.172770	-0.851295	1.191026
Cu71	Cu	0.103829	-0.748713	1.179674
Cu72	Cu	0.054778	-0.797802	1.326885
O73	O	0.172434	-0.726024	1.191079
N74	N	0.020275	-0.832331	1.430426
C75	C	0.047687	-0.649466	0.602306
C76	C	0.202716	-0.804385	0.602188
C77	C	0.110357	-0.896993	0.787321
C78	C	-0.044672	-0.742074	0.787439
C79	C	0.637839	-0.865879	0.818154
C80	C	0.637724	-0.865466	0.663023
C81	C	0.637536	-0.680313	0.570880
C82	C	0.637655	-0.680728	0.726010
C83	C	0.202592	-0.214459	0.601942
C84	C	0.047481	-0.214636	0.602435
C85	C	-0.044635	-0.214620	0.787537
C86	C	0.110528	-0.214598	0.787096
C87	C	-0.013455	-0.649572	1.253296
C88	C	-0.013030	-0.804697	1.253206
C89	C	0.172063	-0.896942	1.253263
C90	C	0.171648	-0.741808	1.253325
H91	H	0.024299	-0.654107	1.070013
H92	H	0.637644	-0.635235	0.737357
H93	H	-0.058496	-0.816008	1.253133
H94	H	-0.059121	-0.592825	1.253304
C95	C	0.637435	-0.618600	0.494254
C96	C	0.702026	-0.632154	0.422664
C97	C	0.701925	-0.570441	0.346038
C98	C	0.637233	-0.495172	0.341002
C99	C	0.572637	-0.481614	0.412594
C100	C	0.572738	-0.543328	0.489220
H101	H	0.749919	-0.687876	0.426390
H102	H	0.749744	-0.580478	0.293040
H103	H	0.637158	-0.449488	0.284278
H104	H	0.524743	-0.425893	0.408868
H105	H	0.524919	-0.533291	0.542218
H106	H	0.036114	-0.214639	0.556956
C107	C	0.233759	-0.973601	1.253254
C108	C	0.265969	-1.021813	1.317902
C109	C	0.327666	-1.098472	1.317892
C110	C	0.357152	-1.126920	1.253235
C111	C	0.324942	-1.078708	1.188582
C112	C	0.263246	-1.002048	1.188592
H113	H	0.244142	-1.000755	1.365769
H114	H	0.351509	-1.134162	1.365753
H115	H	0.402824	-1.183667	1.253228
H116	H	0.346770	-1.099766	1.140715
H117	H	0.239402	-0.966359	1.140731
C118	C	0.233100	-0.726510	1.253345
C119	C	0.217780	-0.649748	1.253366
C120	C	0.279233	-0.634449	1.253386
C121	C	0.356006	-0.695912	1.253384
C122	C	0.371329	-0.772680	1.253363
C123	C	0.309877	-0.787978	1.253343
H124	H	0.160946	-0.604244	1.253367
H125	H	0.267889	-0.577621	1.253401
H126	H	0.401497	-0.684587	1.253398
H127	H	0.428164	-0.818183	1.253361
H128	H	0.321220	-0.844807	1.253327
C129	C	0.125874	-0.214591	0.848539
C130	C	0.064455	-0.214590	0.925315
C131	C	0.079801	-0.214582	0.986758
C132	C	0.156565	-0.214575	0.971426
C133	C	0.217989	-0.214576	0.894647
C134	C	0.202643	-0.214584	0.833203
H135	H	0.007625	-0.214595	0.936668
H136	H	0.034331	-0.214581	1.043596
H137	H	0.167925	-0.214569	1.016910
H138	H	0.274819	-0.214571	0.883294
H139	H	0.248113	-0.214584	0.776366
C140	C	0.637928	-0.927589	0.894785
C141	C	0.637960	-0.912632	0.956468
C142	C	0.638049	-0.974342	1.033098
C143	C	0.638105	-1.051008	1.048045
C144	C	0.638072	-1.065969	0.986360
C145	C	0.637984	-1.004259	0.909729
H146	H	0.637919	-0.855876	0.945406
H147	H	0.638074	-0.963267	1.078762
H148	H	0.638171	-1.096689	1.104771
H149	H	0.638114	-1.122725	0.997422
H150	H	0.637959	-1.015334	0.864066
H151	H	0.071582	-0.606692	0.927876
H152	H	0.256495	-0.770176	1.069914
C153	C	-0.121264	-0.214619	0.849241
C154	C	-0.182963	-0.214630	0.834302
C155	C	-0.259591	-0.214630	0.896005
C156	C	-0.274520	-0.214618	0.972647
C157	C	-0.212819	-0.214608	0.987590
C158	C	-0.136191	-0.214608	0.925886
H159	H	-0.171913	-0.214639	0.777564
H160	H	-0.305266	-0.214638	0.884943
H161	H	-0.331245	-0.214618	1.018324
H162	H	-0.223869	-0.214599	1.044328
H163	H	-0.090516	-0.214600	0.936948
H164	H	0.303780	-0.722782	0.927774
H165	H	0.071542	-0.606694	0.861281
H166	H	-0.101428	-0.730886	0.833046
H167	H	0.637745	-0.910963	0.651673
H168	H	0.259199	-0.214112	0.556156
H169	H	0.256252	-0.770113	0.697763
C170	C	0.002127	-0.648661	0.819305
C171	C	-0.033392	-0.710605	0.862910
C172	C	-0.118128	-0.689788	0.883744
C173	C	-0.167346	-0.607027	0.860972
C174	C	-0.131828	-0.545078	0.817364
C175	C	-0.047092	-0.565894	0.796531
H176	H	0.003043	-0.771874	0.879769
H177	H	-0.144420	-0.735648	0.916025
H178	H	-0.230073	-0.591618	0.876394
H179	H	-0.168263	-0.483808	0.800505
H180	H	-0.020800	-0.520035	0.764250
C181	C	0.301080	-0.794100	0.857664
C182	C	0.344188	-0.878188	0.869870
C183	C	0.301115	-0.933550	0.910836
C184	C	0.214932	-0.904824	0.939595
C185	C	0.171818	-0.820732	0.927390
C186	C	0.214892	-0.765371	0.886424
H187	H	0.407990	-0.899456	0.848580
H188	H	0.333031	-0.995800	0.919871
H189	H	0.183046	-0.945806	0.969920
H190	H	0.108016	-0.799464	0.948680
H191	H	0.182976	-0.703120	0.877389
H192	H	0.454413	-0.827107	0.799589
C193	C	0.465549	-0.582727	0.701252
C194	C	0.422444	-0.498637	0.689032
C195	C	0.465521	-0.443278	0.648059
C196	C	0.551704	-0.472008	0.619306
C197	C	0.594814	-0.556102	0.631526
C198	C	0.551737	-0.611462	0.672499
H199	H	0.358642	-0.477366	0.710317
H200	H	0.433608	-0.381026	0.639013
H201	H	0.583592	-0.431027	0.588975
H202	H	0.658616	-0.577373	0.610240
H203	H	0.583650	-0.673714	0.681544
H204	H	0.303660	-0.722726	0.745118
H205	H	0.245557	-0.540066	0.687141
C206	C	0.301019	-0.527877	0.756148
C207	C	0.247186	-0.500759	0.823888
C208	C	0.204081	-0.416666	0.811675
C209	C	0.214810	-0.359691	0.731722
C210	C	0.268646	-0.386807	0.663976
C211	C	0.311750	-0.470900	0.676189
H212	H	0.239242	-0.542937	0.883079
H213	H	0.164228	-0.396593	0.861825
H214	H	0.182901	-0.297440	0.722681
H215	H	0.276590	-0.344630	0.604785
H216	H	0.351603	-0.490973	0.626039
C217	C	0.203516	-0.386708	0.617787
C218	C	0.253046	-0.429786	0.561758
C219	C	0.273817	-0.386673	0.477024
C220	C	0.245058	-0.300482	0.448318
C221	C	0.195526	-0.257399	0.504348
C222	C	0.174755	-0.300512	0.589082
H223	H	0.274337	-0.493593	0.583007
H224	H	0.310484	-0.418566	0.435548
H225	H	0.260434	-0.268567	0.385593
H226	H	0.174234	-0.193592	0.483099
H227	H	0.138088	-0.268619	0.630558
H228	H	0.129609	-0.540114	0.919306
C229	C	0.069320	-0.386761	0.886512
C230	C	0.040551	-0.300570	0.857807
C231	C	-0.008974	-0.257486	0.913834
C232	C	-0.029730	-0.300592	0.998565
C233	C	-0.000961	-0.386787	1.027274
C234	C	0.048564	-0.429872	0.971247
H235	H	0.055916	-0.268656	0.795080
H236	H	-0.030271	-0.193678	0.892582
H237	H	-0.066392	-0.268698	1.040040
H238	H	-0.016326	-0.418702	1.090001
H239	H	0.069861	-0.493680	0.992500
C240	C	0.032463	-0.572747	0.540758
C241	C	-0.044262	-0.511198	0.555949
C242	C	-0.059486	-0.434479	0.494400
C243	C	0.002014	-0.419309	0.417661
C244	C	0.078744	-0.480861	0.402466
C245	C	0.093968	-0.557580	0.464015
H246	H	-0.089792	-0.522425	0.612759
H247	H	-0.116286	-0.388914	0.505649
H248	H	-0.009255	-0.362517	0.372099
H249	H	0.124274	-0.469633	0.345656
H250	H	0.150768	-0.603144	0.452766
H251	H	0.259468	-0.815577	0.556577
H252	H	0.121632	-0.953785	0.832877
