data_functionalizedCrystal
_audit_creation_method	'MofGen! by Chris Wilmer'
_symmetry_space_group_name_H-M	'P1'
_symmetry_Int_Tables_number	1
_symmetry_cell_setting	triclinic
loop_
_symmetry_equiv_pos_as_xyz
  x,y,z
_cell_length_a	12.759401
_cell_length_b	19.076919
_cell_length_c	12.759401
_cell_angle_alpha	87.683496
_cell_angle_beta	90.002178
_cell_angle_gamma	87.669628
loop_
_atom_site_label
_atom_site_type_symbol
_atom_site_fract_x
_atom_site_fract_y
_atom_site_fract_z
Zn1	Zn	1.589153	0.280316	0.577117
Zn2	Zn	1.581988	0.397994	0.394357
Zn3	Zn	1.413505	0.280309	0.401457
Zn4	Zn	1.406335	0.397983	0.569999
O5	O	1.497745	0.339151	0.485732
O6	O	1.735223	0.295933	0.552881
O7	O	1.559641	0.382385	0.248278
O8	O	1.442804	0.181815	0.430708
O9	O	1.729959	0.382391	0.418608
O10	O	1.571851	0.181820	0.559765
O11	O	1.435857	0.295922	0.253494
O12	O	1.265533	0.295912	0.423807
O13	O	1.430584	0.382372	0.717964
O14	O	1.260266	0.382366	0.547634
O15	O	1.564899	0.295923	0.723194
O16	O	1.552688	0.496488	0.411707
O17	O	1.423637	0.496480	0.540750
C18	C	1.224779	0.339138	0.485719
C19	C	1.108001	0.339149	0.485737
C20	C	1.050419	0.384238	0.550099
C21	C	0.940695	0.384247	0.550109
C22	C	0.946144	0.294076	0.421388
C23	C	1.055866	0.294064	0.421384
C24	C	1.047273	0.436299	0.624411
C25	C	0.937548	0.436308	0.624422
C26	C	1.486636	0.522023	0.474709
C27	C	1.481979	0.600256	0.470028
C28	C	1.546929	0.636953	0.535076
C29	C	1.542549	0.710461	0.530679
C30	C	1.473224	0.747272	0.461229
C31	C	1.408267	0.710571	0.396178
C32	C	1.412642	0.637064	0.400580
C33	C	1.452935	0.967122	0.440856
C34	C	1.448567	1.040635	0.436456
C35	C	1.582849	1.040520	0.570960
C36	C	1.587222	0.967011	0.575351
C37	C	1.522261	0.930316	0.510305
N38	N	1.468748	0.822410	0.456731
N39	N	1.526733	0.855180	0.514808
C40	C	1.771778	0.339164	0.485747
C41	C	1.888554	0.339170	0.485753
C42	C	1.497741	0.339147	0.759766
C43	C	1.497739	0.339146	0.876543
C44	C	1.508883	1.155564	0.496811
C45	C	1.513518	1.077331	0.501505
C46	C	1.567670	0.294141	0.934129
C47	C	1.567664	0.294142	1.043852
C48	C	1.427792	0.384160	1.038394
C49	C	1.427794	0.384154	0.928673
C50	C	1.648427	0.242172	0.937280
C51	C	1.648421	0.242173	1.047004
C52	C	1.497738	0.339165	1.212764
C53	C	1.497730	0.339153	1.095988
H54	H	1.078169	0.488047	0.592014
H55	H	1.400043	0.937251	0.387890
H56	H	1.728900	0.256780	1.075904
H57	H	1.724529	0.261704	0.902069
H58	H	1.622426	0.190389	1.084168
H59	H	1.102746	0.257344	0.368982
Br60	Br	1.354484	1.090593	0.342189
H61	H	0.904703	0.416870	0.702944
Br62	Br	1.098389	0.412107	0.761546
H63	H	0.904467	0.490802	0.599212
Br64	Br	0.875383	0.232890	0.334060
H65	H	1.351817	0.740549	0.339634
Br66	Br	1.641026	0.587002	0.629327
H67	H	1.643672	0.937041	0.631904
Br68	Br	1.630682	0.760261	0.618982
Br69	Br	1.671003	1.090323	0.659235
H70	H	1.359751	0.607186	0.347613
Br71	Br	1.332864	0.445221	0.850523
Br72	Br	1.617650	0.151310	0.893141
H73	H	1.370843	0.420803	1.080852
