data_functionalizedCrystal
_audit_creation_method	'MofGen! by Chris Wilmer'
_symmetry_space_group_name_H-M	'P1'
_symmetry_Int_Tables_number	1
_symmetry_cell_setting	triclinic
loop_
_symmetry_equiv_pos_as_xyz
  x,y,z
_cell_length_a	23.532355
_cell_length_b	23.532407
_cell_length_c	11.804365
_cell_angle_alpha	78.250789
_cell_angle_beta	101.764380
_cell_angle_gamma	82.838084
loop_
_atom_site_label
_atom_site_type_symbol
_atom_site_fract_x
_atom_site_fract_y
_atom_site_fract_z
O1	O	-0.766832	-0.057445	-0.098875
O2	O	-0.600969	-0.067475	-0.098915
O3	O	-0.688899	0.020469	-0.098868
O4	O	-0.678902	-0.145390	-0.098922
O5	O	-0.665751	-0.002660	0.099175
O6	O	-0.577821	-0.090604	0.099128
O7	O	-0.743684	-0.080574	0.099168
Cu8	Cu	-0.658638	-0.087701	0.117231
Cu9	Cu	-0.686014	-0.060348	-0.116978
O10	O	-0.655754	-0.168519	0.099121
C11	C	-0.568179	-0.078788	0.000102
C12	C	-0.504962	-0.078032	0.000088
C13	C	-0.677070	0.030120	0.000158
C14	C	-0.676302	0.093336	0.000170
C15	C	-0.776474	-0.069261	0.000149
C16	C	-0.839692	-0.070016	0.000155
C17	C	-0.100324	-0.085908	0.108093
C18	C	-0.040924	-0.085191	0.108097
O19	O	0.000526	-0.095523	0.199907
N20	N	-0.023834	-0.072228	0.000144
C21	C	-0.066148	-0.059974	-0.107820
O22	O	-0.046157	-0.048882	-0.199642
C23	C	-0.125547	-0.060687	-0.107824
C24	C	-0.142633	-0.073657	0.000136
C25	C	-0.117411	-0.098876	0.216044
C26	C	-0.176806	-0.099594	0.216039
C27	C	-0.219115	-0.087344	0.108082
C28	C	-0.202029	-0.074375	0.000131
C29	C	-0.167861	-0.048430	-0.215788
C30	C	-0.227263	-0.049144	-0.215782
C31	C	-0.244349	-0.062114	-0.107822
C32	C	-0.303733	-0.062843	-0.107831
N33	N	-0.320824	-0.075806	0.000122
C34	C	-0.278515	-0.088056	0.108078
C35	C	0.058595	-0.058477	-0.107805
C36	C	0.117994	-0.057768	-0.107802
C37	C	0.143214	-0.082984	0.108116
C38	C	0.083815	-0.083697	0.108112
C39	C	0.041505	-0.071441	0.000148
C40	C	-0.403251	-0.089564	0.108059
C41	C	-0.462653	-0.090283	0.108044
C42	C	-0.487868	-0.065064	-0.107873
C43	C	-0.428471	-0.064348	-0.107859
C44	C	-0.386163	-0.076597	0.000117
O45	O	-0.345216	-0.052514	-0.199594
O46	O	-0.298516	-0.099140	0.199885
C47	C	-0.723541	0.492452	0.000135
C48	C	-0.722830	0.551853	0.000129
O49	O	-0.766621	0.588609	0.000097
N50	N	-0.670554	0.574470	0.000119
C51	C	-0.618986	0.537685	0.000102
O52	O	-0.574456	0.562378	0.000092
C53	C	-0.619699	0.478286	0.000100
C54	C	-0.671977	0.455671	0.000123
C55	C	-0.775815	0.469836	0.000157
C56	C	-0.776526	0.410439	0.000165
C57	C	-0.724962	0.373658	0.000152
C58	C	-0.672687	0.396274	0.000131
C59	C	-0.568133	0.441503	0.000075
C60	C	-0.568850	0.382101	0.000072
C61	C	-0.621128	0.359486	0.000095
C62	C	-0.621833	0.300096	0.000127
N63	N	-0.674110	0.277478	0.000137
C64	C	-0.725674	0.314259	0.000150
C65	C	-0.617495	0.662427	0.000105
C66	C	-0.616781	0.721823	0.000116
C67	C	-0.720625	0.735987	0.000140
C68	C	-0.721338	0.676589	0.000138
C69	C	-0.669771	0.639809	0.000115
C70	C	-0.727161	0.189520	0.000169
C71	C	-0.727866	0.130117	0.000183
C72	C	-0.624023	0.115959	0.000152
C73	C	-0.623317	0.175356	0.000144
C74	C	-0.674891	0.212137	0.000149
O75	O	-0.578066	0.263305	0.000154
O76	O	-0.770199	0.289560	0.000145
C77	C	-0.667582	0.821829	0.000105
C78	C	-0.668346	0.758610	0.000122
N79	N	-0.639388	-0.106939	0.281962
N80	N	-0.705269	-0.041105	-0.281708
C81	C	-0.751497	0.005103	0.655970
C82	C	-0.766059	0.019659	0.531316
C83	C	-0.734392	-0.011989	0.468972
C84	C	-0.688161	-0.058196	0.531293
C85	C	-0.673600	-0.072756	0.655959
C86	C	-0.656496	-0.089849	0.468960
C87	C	-0.610265	-0.136056	0.531282
C88	C	-0.595706	-0.150614	0.655935
C89	C	-0.627373	-0.118965	0.718280
C90	C	-0.671057	-0.075288	0.344294
C91	C	-0.593160	-0.153148	0.344283
C92	C	-0.578598	-0.167704	0.468937
H93	H	-0.368809	-0.099543	0.195983
C94	C	0.245468	-0.093064	0.203980
C95	C	0.189727	-0.096437	0.226787
H96	H	0.274182	-0.101364	0.277239
H97	H	0.254554	-0.120984	0.159631
H98	H	0.245473	-0.054551	0.159616
H99	H	0.189721	-0.134952	0.271143
H100	H	0.180639	-0.068516	0.271155
H101	H	-0.526857	0.352158	0.000052
H102	H	-0.190711	-0.110152	0.303951
C103	C	-0.849475	0.363751	-0.101635
C104	C	-0.833994	0.385587	0.000171
H105	H	-0.884955	0.348409	-0.101629
H106	H	-0.855104	0.394688	-0.170682
H107	H	-0.818868	0.333337	-0.101625
H108	H	-0.864600	0.416004	0.000157
H109	H	-0.828369	0.354647	0.069237
C110	C	-0.521697	-0.224592	0.660029
C111	C	-0.527785	-0.218499	0.537449
H112	H	-0.490329	-0.255953	0.702323
H113	H	-0.513342	-0.189005	0.680463
H114	H	-0.557289	-0.232962	0.680434
H115	H	-0.492195	-0.210125	0.517043
H116	H	-0.536137	-0.254094	0.517007
H117	H	-0.817808	0.499778	0.000163
C118	C	-0.823910	0.696570	0.000154
C119	C	-0.778805	0.651735	0.000144
H120	H	-0.859390	0.681228	0.000147
H121	H	-0.813400	0.711377	0.069217
H122	H	-0.829536	0.727506	-0.068908
H123	H	-0.773176	0.620800	0.069212
H124	H	-0.789318	0.636919	-0.068925
C125	C	-0.701654	0.020070	0.290418
C126	C	-0.750394	0.004009	0.331950
H127	H	-0.711534	0.029944	0.205823
H128	H	-0.690783	0.053134	0.318627
H129	H	-0.669593	-0.011982	0.318624
H130	H	-0.782454	0.036063	0.303751
H131	H	-0.761273	-0.029059	0.303728
H132	H	-0.567376	-0.178920	0.293523
H133	H	0.024149	-0.048502	-0.195727
C134	C	-0.781008	0.099382	0.694401
C135	C	-0.786296	0.039889	0.724505
H136	H	-0.802496	0.120859	0.736710
H137	H	-0.740651	0.102973	0.714837
H138	H	-0.796301	0.114663	0.611240
H139	H	-0.770999	0.024607	0.807665
H140	H	-0.826662	0.036294	0.704077
C141	C	-0.491314	0.459581	-0.101787
C142	C	-0.510667	0.466352	0.000038
H143	H	-0.455836	0.474924	-0.101813
H144	H	-0.484368	0.418945	-0.101776
H145	H	-0.520610	0.480293	-0.170829
H146	H	-0.481372	0.445637	0.069081
H147	H	-0.517610	0.506996	0.000038
C148	C	0.087085	-0.032916	-0.321225
C149	C	0.136771	-0.043517	-0.226476
H150	H	0.098675	-0.024112	-0.394490
H151	H	0.068978	-0.066934	-0.316742
H152	H	0.059907	-0.000506	-0.316709
H153	H	0.163946	-0.075930	-0.230986
H154	H	0.154886	-0.009496	-0.230960
H155	H	-0.082967	-0.108851	0.303960
H156	H	-0.582040	0.086001	0.000145
H157	H	-0.615515	-0.130815	0.819784
C158	C	-0.794924	0.113716	0.391658
C159	C	-0.816744	0.070618	0.463046
H160	H	-0.826180	0.145226	0.349574
H161	H	-0.765528	0.128175	0.440459
H162	H	-0.778274	0.096978	0.336510
H163	H	-0.833390	0.087355	0.518200
H164	H	-0.846150	0.056158	0.414240
C165	C	0.024972	-0.050165	0.233394
C166	C	0.065034	-0.097947	0.226782
H167	H	0.013379	-0.058965	0.306656
H168	H	0.043091	-0.016156	0.228919
H169	H	-0.008728	-0.042976	0.169098
H170	H	0.098737	-0.105134	0.291074
H171	H	0.046916	-0.131967	0.231268
H172	H	-0.558066	-0.188242	0.706678
H173	H	-0.153961	-0.037868	-0.303701
C174	C	-0.431749	-0.115132	0.321476
C175	C	-0.481432	-0.104536	0.226722
H176	H	-0.443343	-0.123926	0.394739
H177	H	-0.404573	-0.147540	0.316976
H178	H	-0.413641	-0.081109	0.316983
H179	H	-0.499538	-0.138560	0.231211
H180	H	-0.508617	-0.072124	0.231225
C181	C	-0.246221	-0.024148	-0.429210
C182	C	-0.273769	-0.035678	-0.334463
H183	H	-0.274931	-0.015841	-0.502476
H184	H	-0.227066	0.008821	-0.424706
H185	H	-0.217990	-0.057610	-0.424714
H186	H	-0.301997	-0.002214	-0.338954
H187	H	-0.292933	-0.068650	-0.338970
C188	C	-0.459368	-0.039505	-0.321285
C189	C	-0.409686	-0.050101	-0.226529
H190	H	-0.447773	-0.030704	-0.394546
H191	H	-0.477473	-0.073523	-0.316801
H192	H	-0.486547	-0.007094	-0.316780
H193	H	-0.382508	-0.082515	-0.231029
H194	H	-0.391571	-0.016079	-0.231016
H195	H	-0.522326	-0.055093	-0.195769
H196	H	-0.770439	0.111707	0.000204
H197	H	-0.769159	0.219461	0.000168
H198	H	-0.762612	0.765946	0.000146
H199	H	-0.574208	0.740229	0.000118
H200	H	-0.575499	0.632482	0.000097
H201	H	-0.580744	0.193767	0.000159
H202	H	-0.708698	-0.037667	0.293563
