data_functionalizedCrystal
_audit_creation_method	'MofGen! by Chris Wilmer'
_symmetry_space_group_name_H-M	'P1'
_symmetry_Int_Tables_number	1
_symmetry_cell_setting	triclinic
loop_
_symmetry_equiv_pos_as_xyz
  x,y,z
_cell_length_a	12.759395
_cell_length_b	29.839131
_cell_length_c	12.759387
_cell_angle_alpha	89.955090
_cell_angle_beta	89.978972
_cell_angle_gamma	90.035990
loop_
_atom_site_label
_atom_site_type_symbol
_atom_site_fract_x
_atom_site_fract_y
_atom_site_fract_z
Zn1	Zn	1.606119	-0.178821	-0.593917
Zn2	Zn	1.605946	-0.253958	-0.418194
Zn3	Zn	1.430417	-0.178844	-0.418252
Zn4	Zn	1.430346	-0.253925	-0.593831
O5	O	1.518207	-0.216387	-0.506048
O6	O	1.753117	-0.188792	-0.570618
O7	O	1.582620	-0.244018	-0.271180
O8	O	1.453826	-0.115974	-0.441614
O9	O	1.752990	-0.243995	-0.441515
O10	O	1.582913	-0.115957	-0.570674
O11	O	1.453659	-0.188832	-0.271223
O12	O	1.283387	-0.188800	-0.441531
O13	O	1.453706	-0.243939	-0.740864
O14	O	1.283335	-0.243962	-0.570529
O15	O	1.582845	-0.188760	-0.740926
O16	O	1.582551	-0.316821	-0.441432
O17	O	1.453538	-0.316797	-0.570473
C18	C	1.245240	-0.216380	-0.506028
C19	C	1.128463	-0.216388	-0.506044
C20	C	0.909160	-0.159007	-0.640731
C21	C	0.964092	-0.130307	-0.708044
C22	C	1.073814	-0.130300	-0.708026
C23	C	1.128606	-0.158996	-0.640689
C24	C	1.073674	-0.187696	-0.573376
C25	C	0.963949	-0.187699	-0.573399
C26	C	1.073531	-0.245088	-0.438731
C27	C	0.963809	-0.245094	-0.438742
C28	C	1.128323	-0.273784	-0.371394
C29	C	1.073391	-0.302482	-0.304073
C30	C	0.963662	-0.302488	-0.304094
C31	C	0.908877	-0.273793	-0.371428
C32	C	1.518047	-0.333110	-0.505960
C33	C	1.518074	-0.383044	-0.505957
C34	C	1.585408	-0.692643	-0.573346
C35	C	1.585522	-0.880317	-0.573409
O36	O	1.642615	-0.904544	-0.630639
N37	N	1.518386	-0.903829	-0.506165
C38	C	1.451211	-0.880420	-0.438905
O39	O	1.394102	-0.904725	-0.381719
C40	C	1.451092	-0.692748	-0.438848
C41	C	1.518241	-0.669238	-0.506089
C42	C	1.652551	-0.669133	-0.640582
C43	C	1.652526	-0.622218	-0.640561
C44	C	1.585358	-0.598813	-0.573305
C45	C	1.518216	-0.622323	-0.506069
C46	C	1.383913	-0.669340	-0.371595
C47	C	1.383887	-0.622419	-0.371588
C48	C	1.451036	-0.598909	-0.438829
C49	C	1.451023	-0.552002	-0.438791
N50	N	1.518160	-0.528489	-0.506035
C51	C	1.585327	-0.551895	-0.573292
C52	C	1.451279	-0.978951	-0.438939
C53	C	1.451310	-1.025869	-0.438951
C54	C	1.585620	-1.025762	-0.573456
C55	C	1.585594	-0.978843	-0.573438
C56	C	1.518416	-0.955438	-0.506182
C57	C	1.585270	-0.453369	-0.573243
C58	C	1.585242	-0.406449	-0.573214
C59	C	1.450928	-0.406561	-0.438713
C60	C	1.450959	-0.453476	-0.438738
C61	C	1.518134	-0.476879	-0.506012
O62	O	1.393952	-0.527745	-0.381599
O63	O	1.642411	-0.527582	-0.630486
C64	C	1.585433	-0.739559	-0.573366
C65	C	1.518291	-0.763069	-0.506130
C66	C	1.451124	-0.739664	-0.438873
C67	C	1.518322	-0.809987	-0.506143
C68	C	1.585489	-0.833392	-0.573399
C69	C	1.652626	-0.809880	-0.640643
C70	C	1.652601	-0.762964	-0.640623
C71	C	1.383987	-0.763176	-0.371630
C72	C	1.384018	-0.810092	-0.371655
C73	C	1.451186	-0.833497	-0.438911
C74	C	1.792241	-0.216394	-0.506070
C75	C	1.909017	-0.216398	-0.506079
C76	C	1.518287	-0.216343	-0.780082
C77	C	1.518320	-0.216324	-0.896859
C78	C	1.518397	-0.099209	-0.506160
C79	C	1.518477	-0.049274	-0.506208
C80	C	1.652802	-0.158870	-0.896944
C81	C	1.720058	-0.130136	-0.951847
C82	C	1.720083	-0.130120	-1.061569
C83	C	1.652844	-0.158839	-1.116390
C84	C	1.585588	-0.187573	-1.061486
C85	C	1.585572	-0.187587	-0.951762
C86	C	1.451103	-0.245024	-1.061401
C87	C	1.451081	-0.245044	-0.951680
C88	C	1.383863	-0.273744	-1.116222
C89	C	1.316612	-0.302481	-1.061319
C90	C	1.316590	-0.302496	-0.951590
C91	C	1.383825	-0.273778	-0.896776
C92	C	1.518189	-0.216398	-0.233081
C93	C	1.518358	-0.216291	-0.116305
H94	H	1.118011	-0.325846	-0.249259
O95	O	1.652861	-0.158815	-1.234733
H96	H	1.594805	-0.183610	-1.263629
O97	O	1.246666	-0.273768	-0.371364
H98	H	1.275642	-0.282880	-0.450559
O99	O	1.378561	-0.478840	-0.366198
H100	H	1.325097	-0.500219	-0.413177
O101	O	1.792609	-0.099129	-1.120809
H102	H	1.875053	-0.106841	-1.099775
O103	O	1.383879	-0.273727	-1.234565
H104	H	1.463107	-0.282813	-1.263503
O105	O	0.790534	-0.273797	-0.371455
H106	H	0.761568	-0.264675	-0.292263
O107	O	0.904413	-0.333441	-0.231485
H108	H	0.960951	-0.353389	-0.184658
O109	O	1.657681	-0.381091	-0.645728
H110	H	1.704386	-0.405251	-0.692500
O111	O	1.657727	-0.478608	-0.645793
H112	H	1.704412	-0.454372	-0.692530
O113	O	1.658060	-1.051013	-0.646003
H114	H	1.704747	-1.026786	-0.692765
H115	H	1.261865	-0.325860	-1.105963
H116	H	1.707201	-0.603079	-0.695318
O117	O	1.725005	-0.694374	-0.713125
H118	H	1.771686	-0.670137	-0.759863
O119	O	1.658021	-0.953486	-0.645956
H120	H	1.704728	-0.977648	-0.692722
O121	O	1.378893	-1.051225	-0.366422
H122	H	1.332178	-1.027063	-0.319664
H123	H	1.396573	-0.959898	-0.384169
O124	O	1.383820	-0.273793	-0.778433
H125	H	1.404996	-0.307682	-0.749472
O126	O	1.311480	-0.694691	-0.299078
H127	H	1.264766	-0.670527	-0.252327
O128	O	1.311554	-0.737934	-0.299070
H129	H	1.264889	-0.762170	-0.252312
H130	H	1.217947	-0.158991	-0.640690
O131	O	1.244028	-0.333479	-0.892373
H132	H	1.197279	-0.353444	-0.948930
H133	H	1.329179	-0.603366	-0.316822
O134	O	1.378481	-0.381313	-0.366175
H135	H	1.389742	-0.344739	-0.377474
H136	H	1.707279	-0.743826	-0.695377
O137	O	1.133063	-0.099343	-0.780624
H138	H	1.183056	-0.119474	-0.833978
O139	O	1.725065	-0.835128	-0.713197
H140	H	1.713785	-0.871701	-0.701914
O141	O	1.311587	-0.835448	-0.299128
H142	H	1.264874	-0.811285	-0.252369
O143	O	1.652776	-0.158890	-0.778601
H144	H	1.710823	-0.134092	-0.749705
O145	O	1.792587	-0.099166	-0.892716
H146	H	1.745602	-0.076315	-0.842732
O147	O	0.790817	-0.159013	-0.640735
H148	H	0.761909	-0.168136	-0.719936
H149	H	0.919468	-0.106945	-0.762871
