data_functionalizedCrystal
_audit_creation_method	'MofGen! by Chris Wilmer'
_symmetry_space_group_name_H-M	'P1'
_symmetry_Int_Tables_number	1
_symmetry_cell_setting	triclinic
loop_
_symmetry_equiv_pos_as_xyz
  x,y,z
_cell_length_a	11.169417
_cell_length_b	11.169416
_cell_length_c	17.077396
_cell_angle_alpha	89.976843
_cell_angle_beta	89.983750
_cell_angle_gamma	90.011027
loop_
_atom_site_label
_atom_site_type_symbol
_atom_site_fract_x
_atom_site_fract_y
_atom_site_fract_z
Zn1	Zn	1.834922	-0.477779	-0.443804
Zn2	Zn	2.334922	0.022221	0.056196
Zn3	Zn	1.834824	-0.678491	-0.312550
Zn4	Zn	2.334824	-0.178491	0.187450
Zn5	Zn	1.634220	-0.477823	-0.312559
Zn6	Zn	2.134220	0.022177	0.187441
Zn7	Zn	1.634216	-0.678422	-0.443781
Zn8	Zn	2.134216	-0.178422	0.056219
O9	O	1.734545	-0.578129	-0.378173
O10	O	2.234545	-0.078129	0.121827
O11	O	2.002858	-0.504414	-0.426398
O12	O	2.502858	-0.004414	0.073602
O13	O	1.808175	-0.651919	-0.202704
O14	O	2.308175	-0.151919	0.297296
O15	O	1.660886	-0.309868	-0.329982
O16	O	2.160886	0.190132	0.170018
O17	O	2.002787	-0.651876	-0.329967
O18	O	2.502787	-0.151876	0.170033
O19	O	1.808341	-0.309835	-0.426407
O20	O	2.308341	0.190165	0.073593
O21	O	1.660792	-0.504490	-0.202711
O22	O	2.160792	-0.004490	0.297289
O23	O	1.466270	-0.504423	-0.329960
O24	O	1.966270	-0.004423	0.170040
O25	O	1.660879	-0.651759	-0.553631
O26	O	2.160879	-0.151759	-0.053631
O27	O	1.466266	-0.651802	-0.426368
O28	O	1.966266	-0.151802	0.073632
O29	O	1.808336	-0.504347	-0.553648
O30	O	2.308336	-0.004347	-0.053648
O31	O	1.808170	-0.846431	-0.329945
O32	O	2.308170	-0.346431	0.170055
O33	O	1.660784	-0.846381	-0.426359
O34	O	2.160784	-0.346381	0.073641
C35	C	1.422721	-0.578111	-0.378163
C36	C	1.922721	-0.078111	0.121837
C37	C	1.289321	-0.578132	-0.378178
C38	C	1.789321	-0.078132	0.121822
C39	C	1.734499	-0.889954	-0.378166
C40	C	2.234499	-0.389954	0.121834
C41	C	1.734589	-1.023353	-0.378189
C42	C	2.234589	-0.523353	0.121811
C43	C	2.047588	-0.578148	-0.378184
C44	C	2.547588	-0.078148	0.121816
C45	C	2.180988	-0.578156	-0.378189
C46	C	2.680988	-0.078156	0.121811
C47	C	1.734618	-0.578040	-0.582918
C48	C	2.234618	-0.078040	-0.082918
C49	C	1.734649	-0.578003	-0.670168
C50	C	2.234649	-0.078003	-0.170168
C51	C	1.734625	-0.265086	-0.378198
C52	C	2.234625	0.234914	0.121802
C53	C	1.734659	-0.131686	-0.378209
C54	C	2.234659	0.368314	0.121791
C55	C	1.811433	-0.501239	-0.711168
C56	C	2.311433	-0.001239	-0.211168
C57	C	1.811447	-0.501199	-0.793148
C58	C	2.311447	-0.001199	-0.293148
C59	C	1.734683	-0.577930	-0.834127
C60	C	2.234683	-0.077930	-0.334127
C61	C	1.657890	-0.654697	-0.793121
C62	C	2.157890	-0.154697	-0.293121
C63	C	1.657871	-0.654730	-0.711142
C64	C	2.157871	-0.154730	-0.211142
C65	C	1.657939	-0.654624	-0.963991
C66	C	2.157939	-0.154624	-0.463991
C67	C	1.657960	-0.654593	-1.045976
C68	C	2.157960	-0.154593	-0.545976
C69	C	1.811515	-0.501094	-1.045997
C70	C	2.311515	-0.001094	-0.545997
C71	C	1.811496	-0.501127	-0.964018
C72	C	2.311496	-0.001127	-0.464018
C73	C	1.734704	-0.577896	-0.923018
C74	C	2.234704	-0.077896	-0.423018
C75	C	1.734542	-0.578130	-0.174226
C76	C	2.234542	-0.078130	0.325774
C77	C	1.734744	-0.577830	-0.086976
C78	C	2.234744	-0.077830	0.413024
H79	H	1.873947	-0.438760	-0.677809
H80	H	2.373947	0.061240	-0.177809
F81	F	1.576206	-0.736328	-0.920358
F82	F	2.076206	-0.236328	-0.420358
F83	F	1.576144	-0.736429	-0.667507
F84	F	2.076144	-0.236429	-0.167507
F85	F	1.576248	-0.736248	-1.089587
F86	F	2.076248	-0.236248	-0.589587
H87	H	1.595383	-0.717168	-0.826493
H88	H	2.095383	-0.217168	-0.326493
H89	H	1.874011	-0.438653	-0.930656
H90	H	2.374011	0.061347	-0.430656
H91	H	1.873975	-0.438694	-0.826527
H92	H	2.373975	0.061306	-0.326527
H93	H	1.874040	-0.438584	-1.079384
H94	H	2.374040	0.061416	-0.579384
