data_functionalizedCrystal
_audit_creation_method	'MofGen! by Chris Wilmer'
_symmetry_space_group_name_H-M	'P1'
_symmetry_Int_Tables_number	1
_symmetry_cell_setting	triclinic
loop_
_symmetry_equiv_pos_as_xyz
  x,y,z
_cell_length_a	19.805407
_cell_length_b	15.297510
_cell_length_c	19.805399
_cell_angle_alpha	99.651501
_cell_angle_beta	89.980803
_cell_angle_gamma	99.705033
loop_
_atom_site_label
_atom_site_type_symbol
_atom_site_fract_x
_atom_site_fract_y
_atom_site_fract_z
Zn1	Zn	-0.988077	0.359278	0.429352
Zn2	Zn	-0.968399	0.510145	0.335748
Zn3	Zn	-0.874890	0.359293	0.316179
Zn4	Zn	-0.855270	0.510087	0.448888
O5	O	-0.921659	0.434701	0.382542
O6	O	-1.080181	0.379309	0.416949
O7	O	-0.955971	0.490165	0.238439
O8	O	-0.906351	0.233044	0.314826
O9	O	-1.065724	0.490150	0.348178
O10	O	-0.989509	0.233033	0.397973
O11	O	-0.887270	0.379334	0.224062
O12	O	-0.777573	0.379278	0.333769
O13	O	-0.872911	0.490051	0.541009
O14	O	-0.763158	0.490066	0.431270
O15	O	-0.970484	0.379252	0.526656
O16	O	-0.936946	0.636384	0.367122
O17	O	-0.853831	0.636341	0.450245
C18	C	-0.745807	0.434668	0.382517
C19	C	-0.670574	0.434675	0.382525
C20	C	-0.891142	0.669097	0.412942
C21	C	-0.878149	0.769373	0.425970
C22	C	-0.642746	0.377061	0.418412
C23	C	-0.572057	0.377064	0.418413
C24	C	-0.529197	0.434686	0.382531
C25	C	-0.557031	0.492303	0.346640
C26	C	-0.627719	0.492295	0.346635
C27	C	-0.271953	0.492336	0.346658
C28	C	-0.201260	0.492341	0.346667
C29	C	-0.216291	0.377105	0.418436
C30	C	-0.286979	0.377097	0.418431
C31	C	-0.314807	0.434710	0.382537
C32	C	-0.391456	0.434705	0.382535
C33	C	-0.452549	0.434696	0.382537
C34	C	-0.921704	0.434644	0.559077
C35	C	-0.921724	0.434620	0.634306
C36	C	-0.098198	0.434728	0.382560
C37	C	-0.173431	0.434722	0.382550
C38	C	-1.014769	1.051997	0.289699
C39	C	-1.026976	0.957783	0.277455
C40	C	-0.989771	0.910676	0.314583
C41	C	-0.940355	0.957792	0.363956
C42	C	-0.928143	1.052015	0.376197
C43	C	-0.903145	0.910694	0.401081
C44	C	-0.853729	0.957810	0.450455
C45	C	-0.841520	1.052024	0.462694
C46	C	-0.878725	1.099131	0.425567
C47	C	-0.915357	0.816471	0.388840
C48	C	-0.828731	0.816489	0.475339
C49	C	-0.816524	0.910703	0.487583
C50	C	-0.952307	1.199389	0.352045
C51	C	-0.965351	1.099113	0.339068
C52	C	-0.921661	0.434692	0.206685
C53	C	-0.921806	0.434462	0.131423
C54	C	-0.972531	0.376924	0.662177
C55	C	-0.972542	0.376898	0.732862
C56	C	-0.921747	0.434572	0.775675
C57	C	-0.870934	0.492271	0.747800
C58	C	-0.870921	0.492292	0.677115
C59	C	-0.870983	0.492187	1.032862
C60	C	-0.871001	0.492163	1.103551
C61	C	-0.972603	0.376792	1.088609
C62	C	-0.972591	0.376813	1.017925
C63	C	-0.921776	0.434508	0.990055
C64	C	-0.921765	0.434535	0.913410
C65	C	-0.921760	0.434551	0.852320
H66	H	-0.677637	0.330141	0.447633
N67	N	-1.054894	1.102806	0.249662
H68	H	-1.088054	1.058665	0.216529
H69	H	-1.022285	1.141950	0.223401
N70	N	-1.080277	0.906966	0.224214
H71	H	-1.101997	0.951103	0.202555
H72	H	-1.116654	0.867826	0.246716
N73	N	-0.968660	0.765661	0.335599
H74	H	-0.970754	0.698827	0.333476
H75	H	-0.956014	0.782181	0.289395
N76	N	-1.027378	0.314605	0.971752
H77	H	-1.005313	0.272802	0.936999
H78	H	-1.053946	0.351347	0.947232
H79	H	-0.798434	0.778135	0.505570
N80	N	-0.301951	0.554488	0.307952
H81	H	-0.325845	0.596341	0.340833
H82	H	-0.336012	0.517712	0.271861
N83	N	-1.027406	0.314546	1.118663
H84	H	-1.073937	0.328572	1.108189
H85	H	-1.019648	0.323301	1.169928
N86	N	-0.865558	1.200751	0.438775
H87	H	-0.896629	1.223439	0.407765
H88	H	-0.816172	1.223433	0.429258
N89	N	-0.788212	1.102845	0.515934
H90	H	-0.766494	1.058710	0.537597
H91	H	-0.810681	1.141888	0.552356
H92	H	-0.829634	0.539131	1.138409
N93	N	-0.542043	0.314906	0.457104
H94	H	-0.579921	0.278400	0.479833
H95	H	-0.507935	0.351671	0.493154
N96	N	-1.027324	0.314727	0.616004
H97	H	-1.005266	0.272923	0.581245
H98	H	-1.053886	0.351482	0.591490
H99	H	-0.999712	0.833962	0.304610
N100	N	-1.027330	0.314651	0.762922
H101	H	-1.059505	0.278116	0.725074
H102	H	-1.053878	0.351356	0.797023
H103	H	-0.776289	0.949078	0.527783
N104	N	-0.333204	0.314943	0.457129
H105	H	-0.382208	0.323681	0.451681
H106	H	-0.319030	0.329069	0.507285
N107	N	-0.816161	0.554382	1.002803
H108	H	-0.783982	0.590906	1.040652
H109	H	-0.838240	0.596158	0.978880
N110	N	-0.816134	0.554458	0.793970
H111	H	-0.823849	0.545688	0.842978
H112	H	-0.818259	0.618902	0.789975
N113	N	-0.657734	0.554434	0.307924
H114	H	-0.637050	0.618915	0.326718
H115	H	-0.709016	0.545607	0.313374
N116	N	-0.186278	0.314960	0.457149
H117	H	-0.134994	0.323703	0.451708
H118	H	-0.207017	0.250509	0.438337
N119	N	-0.155031	0.554492	0.307963
H120	H	-0.183385	0.590987	0.285222
H121	H	-0.130473	0.517712	0.271922
N122	N	-0.816117	0.554512	0.647049
H123	H	-0.783940	0.591045	0.684896
H124	H	-0.838217	0.596279	0.623136
N125	N	-0.510809	0.554445	0.307929
H126	H	-0.461805	0.545709	0.313378
H127	H	-0.514783	0.618895	0.326739
