data_functionalizedCrystal
_audit_creation_method	'MofGen! by Chris Wilmer'
_symmetry_space_group_name_H-M	'P1'
_symmetry_Int_Tables_number	1
_symmetry_cell_setting	triclinic
loop_
_symmetry_equiv_pos_as_xyz
  x,y,z
_cell_length_a	6.817900
_cell_length_b	11.102288
_cell_length_c	17.078481
_cell_angle_alpha	95.111737
_cell_angle_beta	99.306161
_cell_angle_gamma	108.605689
loop_
_atom_site_label
_atom_site_type_symbol
_atom_site_fract_x
_atom_site_fract_y
_atom_site_fract_z
V1	V	-4.005700	-0.175542	-0.247362
O2	O	-3.966747	0.008741	-0.242653
O3	O	-3.983201	-0.348365	-0.245670
O4	O	-3.936325	-0.172708	-0.355245
O5	O	-4.013948	-0.168132	-0.132320
V6	V	-4.488690	-0.153516	-0.233602
O7	O	-4.268129	-0.223860	-0.277545
O8	O	-4.676459	-0.105199	-0.203418
O9	O	-4.287983	0.019306	-0.235293
O10	O	-4.645040	-0.337799	-0.238311
O11	O	-4.597839	-0.160927	-0.348644
O12	O	-4.334858	-0.156350	-0.125719
C13	C	-3.835182	-0.390499	-0.241768
C14	C	-3.897933	-0.531783	-0.241104
C15	C	-4.109728	-0.604627	-0.244750
C16	C	-4.168680	-0.737379	-0.244132
C17	C	-3.804019	-0.724430	-0.236219
C18	C	-3.745073	-0.591682	-0.236842
C19	C	-3.775386	-0.166430	-0.381540
C20	C	-3.800119	-0.165257	-0.469735
C21	C	-3.994021	-0.171050	-0.515211
C22	C	-4.017249	-0.169946	-0.598079
C23	C	-3.846575	-0.163058	-0.635471
C24	C	-3.652655	-0.157261	-0.589988
C25	C	-3.629426	-0.158356	-0.507121
C26	C	-3.896497	-0.159097	-0.882874
C27	C	-3.919744	-0.158006	-0.965748
C28	C	-4.284335	-0.170689	-0.973832
C29	C	-4.261092	-0.171790	-0.890964
C30	C	-4.067172	-0.165986	-0.845488
N31	N	-3.870315	-0.161934	-0.720175
N32	N	-4.043431	-0.167101	-0.760784
C33	C	-4.099346	0.061434	-0.239193
C34	C	-4.015832	0.202717	-0.239863
C35	C	-4.159142	-0.162632	-0.099419
C36	C	-4.113646	-0.163799	-0.011224
H37	H	-4.234200	-0.555861	-0.248219
C38	C	-3.464849	-0.149550	-0.631109
N39	N	-3.323367	-0.143698	-0.662076
H40	H	-3.679574	-0.773216	-0.232747
H41	H	-4.341140	-0.796684	-0.247103
C42	C	-3.731975	-0.150423	-1.006876
N43	N	-3.590556	-0.144711	-1.037854
C44	C	-3.512071	-0.511548	-0.232829
N45	N	-3.336581	-0.451192	-0.229808
H46	H	-4.133011	-0.176666	-0.484774
C47	C	-4.448843	-0.179351	-0.849838
N48	N	-4.590260	-0.185045	-0.818862
H49	H	-4.175138	-0.174656	-0.635101
H50	H	-4.442218	-0.175412	-1.010867
C51	C	-3.416121	-0.151988	-0.457098
N52	N	-3.255453	-0.147189	-0.419422
H53	H	-3.738621	-0.154416	-0.845862
