data_functionalizedCrystal
_audit_creation_method	'MofGen! by Chris Wilmer'
_symmetry_space_group_name_H-M	'P1'
_symmetry_Int_Tables_number	1
_symmetry_cell_setting	triclinic
loop_
_symmetry_equiv_pos_as_xyz
  x,y,z
_cell_length_a	14.853567
_cell_length_b	14.853567
_cell_length_c	13.930277
_cell_angle_alpha	90.004245
_cell_angle_beta	89.999243
_cell_angle_gamma	96.365070
loop_
_atom_site_label
_atom_site_type_symbol
_atom_site_fract_x
_atom_site_fract_y
_atom_site_fract_z
O1	O	0.117704	-1.196368	-0.079756
O2	O	0.131725	-0.933909	-0.079772
O3	O	-0.006516	-1.072149	-0.079767
O4	O	0.255944	-1.058128	-0.079762
O5	O	-0.006519	-1.072130	0.079895
O6	O	0.131722	-0.933890	0.079890
O7	O	0.117701	-1.196349	0.079905
Zn8	Zn	0.124711	-1.065116	0.105247
Zn9	Zn	0.124715	-1.065142	-0.105114
O10	O	0.255941	-1.058109	0.079900
C11	C	0.131088	-0.900311	0.000057
C12	C	0.129184	-0.800227	0.000051
N13	N	0.124708	-1.065106	0.248814
C14	C	-0.040106	-1.071504	0.000061
C15	C	-0.140189	-1.069601	0.000053
C16	C	-0.552723	-0.979435	0.000066
C17	C	-0.574004	-1.143668	0.000076
C18	C	-0.479971	-1.145458	0.000070
C19	C	-0.422309	-1.064235	0.000064
C20	C	-0.458680	-0.981223	0.000063
C21	C	-0.443591	-1.228469	0.000080
C22	C	-0.349552	-1.230262	0.000076
C23	C	-0.291889	-1.149039	0.000063
C24	C	-0.328266	-1.066023	0.000061
C25	C	-0.270604	-0.984800	0.000055
C26	C	-0.306979	-0.901783	0.000047
C27	C	-0.401017	-0.899999	0.000050
C28	C	-0.197851	-1.150823	0.000059
C29	C	-0.176561	-0.986588	0.000052
C30	C	0.289531	-1.058754	0.000070
C31	C	0.389615	-1.060657	0.000072
C32	C	0.118337	-1.229947	0.000075
C33	C	0.120241	-1.330031	0.000075
C34	C	0.039019	-0.387693	0.000070
C35	C	0.203251	-0.366412	0.000073
C36	C	0.205042	-0.460446	0.000070
C37	C	0.123819	-0.518108	0.000066
C38	C	0.040806	-0.481736	0.000065
C39	C	0.288053	-0.496825	0.000061
C40	C	0.289846	-0.590864	0.000057
C41	C	0.208623	-0.648528	0.000060
C42	C	0.125607	-0.612150	0.000060
C43	C	0.044384	-0.669812	0.000056
C44	C	-0.038633	-0.633437	0.000063
C45	C	-0.040417	-0.539399	0.000067
C46	C	0.210407	-0.742565	0.000055
C47	C	0.046172	-0.763855	0.000050
N48	N	0.124711	-1.065160	-0.248680
C49	C	0.185904	-1.003926	0.701081
C50	C	0.063519	-1.126382	0.701055
C51	C	0.063516	-1.126371	0.600559
C52	C	0.124709	-1.065138	0.550319
C53	C	0.185904	-1.003916	0.600576
C54	C	0.002328	-1.187598	0.550295
C55	C	0.002323	-1.187591	0.449793
C56	C	0.063512	-1.126353	0.399552
C57	C	0.124710	-1.065127	0.449814
C58	C	0.185902	-1.003894	0.399575
C59	C	0.247096	-0.942664	0.449835
C60	C	0.247094	-0.942677	0.550334
C61	C	0.063515	-1.126339	0.299053
C62	C	0.185903	-1.003883	0.299070
H63	H	-0.129618	-0.920445	0.000043
O64	O	-0.041434	-0.826048	0.000047
H65	H	-0.099455	-0.784953	0.000047
O66	O	0.313100	-0.876653	0.604547
H67	H	0.301484	-0.806357	0.585288
H68	H	-0.430643	-0.832411	0.000044
H69	H	-0.108005	-0.509774	0.000096
O70	O	-0.591946	-0.889896	0.000068
H71	H	-0.667024	-0.902293	0.000078
O72	O	0.290854	-0.304227	0.000071
H73	H	0.330573	-0.317176	0.065144
O74	O	-0.158621	-1.240354	0.000069
H75	H	-0.083543	-1.227953	0.000070
H76	H	0.235724	-0.954071	0.742005
O77	O	0.251892	-0.937828	0.244879
H78	H	0.295779	-0.975816	0.199074
H79	H	-0.260019	-0.835652	0.000048
O80	O	-0.636189	-1.231270	0.000092
H81	H	-0.707690	-1.216081	0.000092
H82	H	0.277998	-0.772178	0.000051
O83	O	-0.505778	-1.316070	0.000101
H84	H	-0.577279	-1.300878	0.000093
H85	H	-0.319944	-1.297860	0.000082
H86	H	0.354180	-0.449870	0.000054
H87	H	0.013702	-1.176240	0.741963
O88	O	-0.126235	-0.695635	0.000067
H89	H	-0.129344	-0.738992	-0.065009
O90	O	-0.063687	-1.253615	0.395586
H91	H	-0.052082	-1.323911	0.414858
O92	O	-0.063669	-1.253642	0.604476
H93	H	-0.053395	-1.243354	0.682803
H94	H	0.296924	-0.892811	0.408919
H95	H	0.013696	-1.176196	0.258136
H96	H	-0.028572	-0.358072	0.000080
H97	H	0.357443	-0.620472	0.000051
