data_functionalizedCrystal
_audit_creation_method	'MofGen! by Chris Wilmer'
_symmetry_space_group_name_H-M	'P1'
_symmetry_Int_Tables_number	1
_symmetry_cell_setting	triclinic
loop_
_symmetry_equiv_pos_as_xyz
  x,y,z
_cell_length_a	15.944493
_cell_length_b	27.731996
_cell_length_c	26.809956
_cell_angle_alpha	89.989805
_cell_angle_beta	89.984219
_cell_angle_gamma	83.048216
loop_
_atom_site_label
_atom_site_type_symbol
_atom_site_fract_x
_atom_site_fract_y
_atom_site_fract_z
O1	O	1.113735	0.062207	-0.041480
O2	O	0.869076	0.069923	-0.041483
O3	O	0.999027	-0.004302	-0.041470
O4	O	0.983784	0.136431	-0.041492
O5	O	0.998986	-0.004301	0.041489
O6	O	0.869035	0.069923	0.041476
O7	O	1.113695	0.062208	0.041480
Zn8	Zn	0.991359	0.066065	0.054650
Zn9	Zn	0.991412	0.066065	-0.054653
O10	O	0.983744	0.136432	0.041467
C11	C	0.837765	0.069607	-0.000004
C12	C	0.744529	0.068662	-0.000004
C13	C	0.508184	0.112352	-0.000011
C14	C	0.457921	0.088792	0.040898
C15	C	0.573831	0.066910	-0.000003
C16	C	0.457966	0.088781	-0.040894
C17	C	0.408944	0.065222	-0.000004
C18	C	0.524797	0.043362	0.040940
C19	C	0.524845	0.043358	-0.040888
C20	C	0.474616	0.019764	0.000031
C21	C	0.668818	0.067884	-0.000002
C22	C	0.313960	0.064244	-0.000001
C23	C	0.998694	-0.022310	0.000011
C24	C	0.997750	-0.075970	0.000016
C25	C	0.991839	-0.408712	-0.045230
C26	C	0.988257	-0.610385	-0.045238
O27	O	0.987777	-0.636458	-0.083697
N28	N	0.987790	-0.635604	-0.000018
C29	C	0.988213	-0.610401	0.045208
O30	O	0.987725	-0.636478	0.083671
C31	C	0.991789	-0.408728	0.045217
C32	C	0.992264	-0.383512	-0.000007
C33	C	0.992313	-0.383496	-0.090449
C34	C	0.993213	-0.333081	-0.090447
C35	C	0.993639	-0.307882	-0.045224
C36	C	0.993164	-0.333098	-0.000004
C37	C	0.992206	-0.383525	0.090442
C38	C	0.993097	-0.333104	0.090440
C39	C	0.993573	-0.307888	0.045217
C40	C	0.994489	-0.257483	0.045221
N41	N	0.994956	-0.232264	0.000000
C42	C	0.994531	-0.257464	-0.045222
C43	C	0.986338	-0.716282	0.045201
C44	C	0.985446	-0.766700	0.045199
C45	C	0.985488	-0.766681	-0.045248
C46	C	0.986386	-0.716262	-0.045246
C47	C	0.986805	-0.691063	-0.000020
C48	C	0.996422	-0.151589	-0.045213
C49	C	0.997325	-0.101170	-0.045207
C50	C	0.997278	-0.101193	0.045240
C51	C	0.996379	-0.151608	0.045234
C52	C	0.995948	-0.176805	0.000003
O53	O	0.994961	-0.231378	0.083660
O54	O	0.995000	-0.231377	-0.083679
C55	C	0.990939	-0.459127	-0.045232
C56	C	0.990464	-0.484342	-0.000012
C57	C	0.990890	-0.459143	0.045210
C58	C	0.989572	-0.534761	-0.000014
C59	C	0.989147	-0.559960	-0.045237
C60	C	0.989614	-0.534741	-0.090457
C61	C	0.990513	-0.484326	-0.090455
C62	C	0.990423	-0.484362	0.090431
C63	C	0.989524	-0.534777	0.090425
C64	C	0.989099	-0.559976	0.045202
C65	C	1.145006	0.062523	-0.000001
C66	C	1.238242	0.063468	-0.000003
C67	C	0.984077	0.154440	-0.000015
C68	C	0.985020	0.208100	-0.000024
N69	N	0.991328	0.066066	0.129246
C70	C	1.041948	0.095393	0.473868
C71	C	1.041973	0.095394	0.682745
O72	O	1.084992	0.120322	0.709746
N73	N	0.991425	0.066066	0.708873
C74	C	0.940870	0.036732	0.682777
O75	O	0.897883	0.011783	0.709793
C76	C	0.940850	0.036729	0.473901
C77	C	0.991396	0.066063	0.447776
C78	C	1.092490	0.124725	0.447743
C79	C	1.092480	0.124726	0.395527
C80	C	1.041927	0.095396	0.369435
C81	C	0.991386	0.066064	0.395560
C82	C	0.890301	0.007393	0.447806
C83	C	0.890302	0.007394	0.395584
C84	C	0.940848	0.036728	0.369459
C85	C	0.940823	0.036736	0.317252
N86	N	0.991372	0.066064	0.291124
C87	C	1.041924	0.095394	0.317216
C88	C	0.940883	0.036737	0.792441
C89	C	0.940887	0.036738	0.844660
C90	C	1.041991	0.095400	0.844624
C91	C	1.041982	0.095401	0.792404
C92	C	0.991432	0.066065	0.766313
C93	C	1.041898	0.095395	0.207558
C94	C	1.041881	0.095396	0.155337
C95	C	0.940780	0.036732	0.155377
C96	C	0.940794	0.036734	0.207594
C97	C	0.991359	0.066067	0.233683
O98	O	0.897834	0.011817	0.290219
O99	O	1.084919	0.120332	0.290191
C100	C	1.041958	0.095392	0.526084
C101	C	0.991416	0.066060	0.552209
C102	C	0.940864	0.036730	0.526117
C103	C	0.991420	0.066062	0.604427
C104	C	1.041972	0.095392	0.630519
C105	C	1.092521	0.124720	0.604392
C106	C	1.092510	0.124722	0.552175
C107	C	0.890316	0.007401	0.552244
C108	C	0.890329	0.007403	0.604461
C109	C	0.940881	0.036733	0.630552
N110	N	0.991439	0.066068	0.870751
H111	H	0.523283	0.151495	0.000021
H112	H	0.993597	-0.312555	-0.127273
H113	H	0.428709	0.107983	0.075476
Br114	Br	0.821698	-0.032420	0.483248
H115	H	0.428787	0.107981	-0.075474
Br116	Br	0.872174	-0.003069	0.119957
Br117	Br	0.821719	-0.032408	0.639909
H118	H	0.899718	0.012857	0.865926
Br119	Br	0.997975	-0.066952	-0.106586
H120	H	0.989271	-0.555268	-0.127279
H121	H	0.899625	0.012853	0.228866
H122	H	0.459675	-0.019408	0.000060
Br123	Br	0.573563	0.011400	-0.098525
Br124	Br	0.872255	-0.003070	0.757039
Br125	Br	0.821704	-0.032426	0.360178
H126	H	0.985071	-0.787227	0.082025
H127	H	0.849150	-0.016484	0.531006
Br128	Br	1.161122	0.164528	0.639812
Br129	Br	1.110524	0.135204	0.242956
H130	H	1.083140	0.119288	0.771137
Br131	Br	1.110599	0.135204	0.880044
H132	H	1.133670	0.148609	0.530909
Br133	Br	0.573239	0.011396	0.098642
H134	H	0.996066	-0.172098	-0.082044
H135	H	0.991964	-0.404008	-0.127277
Br136	Br	0.986898	-0.682090	0.106585
H137	H	1.083040	0.119285	0.134069
H138	H	0.985142	-0.787207	-0.082070
Br139	Br	0.987031	-0.682047	-0.106622
H140	H	0.991820	-0.404047	0.127268
H141	H	0.996000	-0.172140	0.082058
H142	H	0.990900	-0.463800	-0.127281
H143	H	0.993426	-0.312588	0.127269
Br144	Br	0.997858	-0.066984	0.106611
H145	H	0.989143	-0.555304	0.127254
Br146	Br	1.161064	0.164548	0.360080
H147	H	0.990771	-0.463850	0.127257
H148	H	1.133660	0.148609	0.468981
