data_functionalizedCrystal
_audit_creation_method	'MofGen! by Chris Wilmer'
_symmetry_space_group_name_H-M	'P1'
_symmetry_Int_Tables_number	1
_symmetry_cell_setting	triclinic
loop_
_symmetry_equiv_pos_as_xyz
  x,y,z
_cell_length_a	10.654562
_cell_length_b	19.188930
_cell_length_c	17.666332
_cell_angle_alpha	89.989658
_cell_angle_beta	89.987937
_cell_angle_gamma	83.817442
loop_
_atom_site_label
_atom_site_type_symbol
_atom_site_fract_x
_atom_site_fract_y
_atom_site_fract_z
O1	O	1.665765	0.098104	-0.063008
O2	O	2.165765	0.598104	0.436992
O3	O	1.300091	0.107437	-0.062999
O4	O	1.800091	0.607437	0.437001
O5	O	1.493480	0.001184	-0.062989
O6	O	1.993480	0.501184	0.437011
O7	O	1.472375	0.204357	-0.063018
O8	O	1.972375	0.704357	0.436982
O9	O	1.493446	0.001181	0.062908
O10	O	1.993446	0.501181	0.562908
O11	O	1.300057	0.107434	0.062898
O12	O	1.800057	0.607434	0.562898
O13	O	1.665731	0.098101	0.062889
O14	O	2.165731	0.598101	0.562889
Cu15	Cu	1.482891	0.102767	0.074389
Cu16	Cu	1.982891	0.602767	0.574389
Cu17	Cu	1.482931	0.102771	-0.074499
Cu18	Cu	1.982931	0.602771	0.425501
O19	O	1.472341	0.204354	0.062879
O20	O	1.972341	0.704354	0.562879
C21	C	1.253291	0.106749	-0.000049
C22	C	1.753291	0.606749	0.499951
C23	C	1.113892	0.104693	-0.000046
C24	C	1.613892	0.604693	0.499954
C25	C	1.048363	0.103732	0.068575
C26	C	1.548363	0.603732	0.568575
C27	C	0.917381	0.101806	0.068563
C28	C	1.417381	0.601806	0.568563
C29	C	0.917469	0.101804	-0.068697
C30	C	1.417469	0.601804	0.431303
C31	C	1.048449	0.103725	-0.068684
C32	C	1.548449	0.603725	0.431316
C33	C	1.048311	0.103736	0.147821
C34	C	1.548311	0.603736	0.647821
C35	C	0.917329	0.101810	0.147808
C36	C	1.417329	0.601810	0.647808
C37	C	1.492780	-0.024833	-0.000038
C38	C	1.992780	0.475167	0.499962
C39	C	1.490728	-0.102351	-0.000032
C40	C	1.990728	0.397649	0.499968
C41	C	1.604203	-0.146530	-0.000031
C42	C	2.104203	0.353470	0.499969
C43	C	1.602275	-0.219366	-0.000043
C44	C	2.102275	0.280634	0.499957
C45	C	1.486867	-0.248020	-0.000041
C46	C	1.986867	0.251980	0.499959
C47	C	1.373377	-0.203832	-0.000046
C48	C	1.873377	0.296168	0.499954
C49	C	1.375308	-0.130997	-0.000041
C50	C	1.875308	0.369003	0.499959
N51	N	1.398639	-0.356606	0.042806
N52	N	1.898639	0.143394	0.542806
N53	N	1.396813	-0.425796	0.042804
N54	N	1.896813	0.074204	0.542804
C55	C	1.481043	-0.467467	-0.000056
C56	C	1.981043	0.032533	0.499944
N57	N	1.567187	-0.437335	-0.042903
N58	N	2.067187	0.062665	0.457097
N59	N	1.569017	-0.368138	-0.042897
N60	N	2.069017	0.131862	0.457103
C61	C	1.484761	-0.326997	-0.000046
C62	C	1.984761	0.173003	0.499954
C63	C	1.592435	-0.590624	-0.000069
C64	C	2.092435	-0.090624	0.499931
C65	C	1.590503	-0.663462	-0.000086
C66	C	2.090503	-0.163462	0.499914
C67	C	1.361602	-0.647926	-0.000081
C68	C	1.861602	-0.147926	0.499919
C69	C	1.363537	-0.575090	-0.000072
C70	C	1.863537	-0.075090	0.499928
C71	C	1.478957	-0.546444	-0.000062
C72	C	1.978957	-0.046444	0.499938
C73	C	1.712531	0.098790	-0.000062
C74	C	2.212531	0.598790	0.499938
C75	C	1.851930	0.100845	-0.000071
C76	C	2.351930	0.600845	0.499929
C77	C	1.473042	0.230371	-0.000073
C78	C	1.973042	0.730371	0.499927
C79	C	1.475093	0.307889	-0.000085
C80	C	1.975093	0.807889	0.499915
N81	N	1.482872	0.102764	0.179108
N82	N	1.982872	0.602764	0.679108
N83	N	1.482960	0.102769	-0.179218
N84	N	1.982960	0.602769	0.320782
C85	C	1.558788	0.145508	0.218703
C86	C	2.058788	0.645508	0.718703
C87	C	1.558808	0.145506	0.297951
C88	C	2.058808	0.645506	0.797951
C89	C	1.482888	0.102768	0.337600
C90	C	1.982888	0.602768	0.837600
C91	C	1.406967	0.060016	0.297996
C92	C	1.906967	0.560016	0.797996
C93	C	1.406959	0.060014	0.218750
C94	C	1.906959	0.560014	0.718750
N95	N	1.372908	0.100326	0.462043
N96	N	1.872908	0.600326	0.962043
N97	N	1.372919	0.100332	0.537324
N98	N	1.872919	0.600332	1.037324
C99	C	1.482911	0.102771	0.576364
C100	C	1.982911	0.602771	1.076364
N101	N	1.592893	0.105217	0.537281
N102	N	2.092893	0.605217	1.037281
N103	N	1.592880	0.105215	0.461993
N104	N	2.092880	0.605215	0.961993
C105	C	1.482890	0.102765	0.423529
C106	C	1.982890	0.602765	0.923529
C107	C	1.558856	0.145515	0.701889
C108	C	2.058856	0.645515	1.201889
C109	C	1.558879	0.145508	0.781138
C110	C	2.058879	0.645508	1.281138
C111	C	1.407026	0.060022	0.781181
C112	C	1.907026	0.560022	1.281181
C113	C	1.407015	0.060024	0.701934
C114	C	1.907015	0.560024	1.201934
C115	C	1.482928	0.102775	0.662292
C116	C	1.982928	0.602775	1.162292
H117	H	1.101800	0.104497	-0.124561
H118	H	1.601800	0.604497	0.375439
Br119	Br	1.303940	0.002009	0.351803
Br120	Br	1.803940	0.502009	0.851803
Br121	Br	1.127113	0.023320	0.198555
Br122	Br	1.627113	0.523320	0.698555
H123	H	1.076801	0.154654	0.172402
H124	H	1.576801	0.654654	0.672402
H125	H	1.620670	0.180324	0.669611
H126	H	2.120670	0.680324	1.169611
H127	H	1.620629	0.180315	0.330196
H128	H	2.120629	0.680315	0.830196
H129	H	1.282900	-0.095026	-0.000042
H130	H	1.782900	0.404974	0.499958
H131	H	1.682912	-0.699432	-0.000089
H132	H	2.182912	-0.199432	0.499911
H133	H	0.888812	0.050891	0.172406
H134	H	1.388812	0.550891	0.672406
H135	H	1.620608	0.180316	0.186432
H136	H	2.120608	0.680316	0.686432
H137	H	1.686417	-0.567300	-0.000065
H138	H	2.186417	-0.067300	0.499935
H139	H	1.620708	0.180313	0.813375
H140	H	2.120708	0.680313	1.313375
Br141	Br	1.204972	-0.686806	-0.000086
Br142	Br	1.704972	-0.186806	0.499914
H143	H	1.271133	-0.539118	-0.000069
H144	H	1.771133	-0.039118	0.499931
Br145	Br	1.303915	0.002003	0.165009
Br146	Br	1.803915	0.502003	0.665009
Br147	Br	1.304009	0.002008	0.834982
Br148	Br	1.804009	0.502008	1.334982
H149	H	0.864169	0.101017	-0.124580
H150	H	1.364169	0.601017	0.375420
Br151	Br	0.838456	0.182225	0.198503
Br152	Br	1.338456	0.682225	0.698503
H153	H	1.698187	-0.123211	-0.000025
H154	H	2.198187	0.376789	0.499975
H155	H	1.694683	-0.255344	-0.000045
H156	H	2.194683	0.244656	0.499955
Br157	Br	1.216750	-0.242717	-0.000053
Br158	Br	1.716750	0.257283	0.499947
Br159	Br	1.303955	0.002025	0.648193
Br160	Br	1.803955	0.502025	1.148193
