data_functionalizedCrystal
_audit_creation_method	'MofGen! by Chris Wilmer'
_symmetry_space_group_name_H-M	'P1'
_symmetry_Int_Tables_number	1
_symmetry_cell_setting	triclinic
loop_
_symmetry_equiv_pos_as_xyz
  x,y,z
_cell_length_a	16.959455
_cell_length_b	16.959454
_cell_length_c	16.959447
_cell_angle_alpha	90.026736
_cell_angle_beta	90.014322
_cell_angle_gamma	90.017022
loop_
_atom_site_label
_atom_site_type_symbol
_atom_site_fract_x
_atom_site_fract_y
_atom_site_fract_z
Zn1	Zn	1.208384	-0.314730	0.446928
Zn2	Zn	1.208306	-0.446923	0.314758
Zn3	Zn	1.076212	-0.314755	0.314766
Zn4	Zn	1.076177	-0.446864	0.446897
O5	O	1.142270	-0.380818	0.380837
O6	O	1.318984	-0.332280	0.429406
O7	O	1.190766	-0.429426	0.204148
O8	O	1.093792	-0.204141	0.332314
O9	O	1.318927	-0.429402	0.332301
O10	O	1.190898	-0.204123	0.429413
O11	O	1.093717	-0.332323	0.204154
O12	O	0.965597	-0.332265	0.332283
O13	O	1.093732	-0.429301	0.557512
O14	O	0.965571	-0.429325	0.429359
O15	O	1.190864	-0.332223	0.557535
O16	O	1.190732	-0.557526	0.332270
O17	O	1.093657	-0.557482	0.429352
C18	C	0.936904	-0.380792	0.380819
C19	C	0.849047	-0.380800	0.380830
C20	C	0.477560	-0.330238	0.330395
C21	C	0.477582	-0.431463	0.431324
C22	C	0.560128	-0.431452	0.431320
C23	C	0.601394	-0.380834	0.380851
C24	C	0.560114	-0.330226	0.330387
C25	C	0.601414	-0.482064	0.481777
C26	C	0.683965	-0.482055	0.481773
C27	C	0.725233	-0.431432	0.431308
C28	C	0.683948	-0.380822	0.380843
C29	C	0.725213	-0.330204	0.330374
C30	C	0.683930	-0.279589	0.279913
C31	C	0.601381	-0.279603	0.279922
C32	C	0.807781	-0.431418	0.431299
C33	C	0.807767	-0.330193	0.330366
C34	C	1.142204	-0.586184	0.380824
C35	C	1.142248	-0.674041	0.380844
C36	C	1.091796	-1.045524	0.431382
C37	C	1.192963	-1.045509	0.330373
C38	C	1.192936	-0.962963	0.330365
C39	C	1.142337	-0.921694	0.380867
C40	C	1.091765	-0.962970	0.431375
C41	C	1.243501	-0.921680	0.279852
C42	C	1.243475	-0.839130	0.279842
C43	C	1.192879	-0.797859	0.330348
C44	C	1.142306	-0.839140	0.380859
C45	C	1.091707	-0.797871	0.431360
C46	C	1.041137	-0.839151	0.481876
C47	C	1.041170	-0.921699	0.481881
C48	C	1.192847	-0.715310	0.330343
C49	C	1.091676	-0.715317	0.431353
C50	C	1.348438	-0.380845	0.380856
C51	C	1.436295	-0.380856	0.380864
C52	C	1.142303	-0.380753	0.587006
C53	C	1.142317	-0.380725	0.674862
C54	C	1.142358	-0.174650	0.380868
C55	C	1.142395	-0.086793	0.380881
C56	C	1.142283	-0.380826	0.175471
C57	C	1.142422	-0.380631	0.087615
C58	C	1.091839	-0.431185	1.046328
C59	C	1.192983	-0.330097	1.046348
C60	C	1.192962	-0.330114	0.963802
C61	C	1.142380	-0.380668	0.922515
C62	C	1.091818	-0.431205	0.963775
C63	C	1.243529	-0.279584	0.922536
C64	C	1.243510	-0.279599	0.839985
C65	C	1.192923	-0.330149	0.798697
C66	C	1.142359	-0.380688	0.839962
C67	C	1.091776	-0.431242	0.798675
C68	C	1.041207	-0.481777	0.839938
C69	C	1.041231	-0.481756	0.922487
C70	C	1.192899	-0.330171	0.716149
C71	C	1.091755	-0.431262	0.716122
H72	H	0.567810	-0.523280	0.522860
H73	H	1.284690	-0.955288	0.238731
O74	O	0.437499	-0.280961	0.281462
C75	C	0.412299	-0.146463	0.243292
C76	C	0.457703	-0.202178	0.298771
H77	H	0.428629	-0.082757	0.257255
H78	H	0.346200	-0.155090	0.251968
H79	H	0.428496	-0.160305	0.179536
H80	H	0.441572	-0.188371	0.362548
H81	H	0.523790	-0.193540	0.290027
H82	H	0.443979	-0.472679	0.472409
H83	H	1.050557	-0.472422	0.682512
H84	H	1.050475	-0.681721	0.472480
H85	H	1.234074	-0.289028	0.682556
H86	H	0.999998	-0.955317	0.523007
H87	H	0.717571	-0.523268	0.522863
H88	H	1.284686	-0.238450	0.806396
H89	H	0.841390	-0.472630	0.472381
H90	H	0.841360	-0.288968	0.289273
O91	O	1.042700	-1.085740	0.480376
C92	C	0.997944	-1.212913	0.525199
C93	C	1.053573	-1.167466	0.469661
H94	H	1.006727	-1.278996	0.516567
H95	H	0.934194	-1.196793	0.511257
H96	H	1.011768	-1.196585	0.588936
H97	H	1.039819	-1.183770	0.405905
H98	H	1.117307	-1.183590	0.483671
O99	O	0.991968	-0.530854	0.799921
C100	C	0.857498	-0.569201	0.774602
C101	C	0.913166	-0.513581	0.819986
H102	H	0.793774	-0.555244	0.790796
H103	H	0.871296	-0.632944	0.790843
H104	H	0.866216	-0.560554	0.708519
H105	H	0.904479	-0.522157	0.886080
H106	H	0.899354	-0.449858	0.803680
O107	O	1.292487	-0.799000	0.230694
C108	C	1.303168	-0.705814	0.124012
C109	C	1.247570	-0.751226	0.179608
H110	H	1.266877	-0.667166	0.082706
H111	H	1.339322	-0.749457	0.087862
H112	H	1.344478	-0.667158	0.160354
H113	H	1.206212	-0.789883	0.143326
H114	H	1.211472	-0.707541	0.215761
H115	H	1.050665	-0.472327	1.079928
O116	O	0.992060	-0.798936	0.530905
C117	C	0.947147	-0.671762	0.575609
C118	C	1.002777	-0.717210	0.520059
H119	H	0.955780	-0.605678	0.566847
H120	H	0.960994	-0.687879	0.639378
H121	H	0.883434	-0.688091	0.561684
H122	H	1.066509	-0.700906	0.533912
H123	H	0.988862	-0.701089	0.456306
O124	O	1.242026	-1.085544	0.281191
C125	C	1.280510	-1.110765	0.146763
C126	C	1.224881	-1.065397	0.202381
H127	H	1.266679	-1.094481	0.083034
H128	H	1.271853	-1.176869	0.155354
H129	H	1.344225	-1.094490	0.160738
H130	H	1.161144	-1.081606	0.188441
H131	H	1.233606	-0.999304	0.193779
O132	O	0.992188	-0.530817	0.962691
C133	C	0.947366	-0.575550	1.089856
C134	C	1.002957	-0.519962	1.044420
H135	H	0.956041	-0.566781	1.155942
H136	H	0.961213	-0.639311	1.073671
H137	H	0.883640	-0.561672	1.073585
H138	H	1.066702	-0.533769	1.060667
H139	H	0.989042	-0.456219	1.060609
O140	O	1.241848	-0.675175	0.281194
C141	C	1.252510	-0.581985	0.174514
C142	C	1.196922	-0.627403	0.230115
H143	H	1.216210	-0.543338	0.133213
H144	H	1.288663	-0.625624	0.138358
H145	H	1.293821	-0.543327	0.210852
H146	H	1.155563	-0.666063	0.193837
H147	H	1.160824	-0.583722	0.266273
H148	H	0.717539	-0.238379	0.238818
O149	O	1.242231	-0.281077	1.086413
C150	C	1.376705	-0.242683	1.111638
C151	C	1.321021	-0.298264	1.066227
H152	H	1.440417	-0.256548	1.095322
H153	H	1.368107	-0.251353	1.177735
H154	H	1.362804	-0.178954	1.095433
H155	H	1.334888	-0.362014	1.082366
H156	H	1.329629	-0.289527	1.000141
O157	O	1.292735	-0.230453	0.962518
C158	C	1.393022	-0.130155	0.953836
C159	C	1.337350	-0.185772	0.908455
H160	H	1.429096	-0.094003	0.910146
H161	H	1.434396	-0.166402	0.992458
H162	H	1.356743	-0.088844	0.992511
H163	H	1.373565	-0.227093	0.869737
H164	H	1.295973	-0.149475	0.869882
O165	O	0.561361	-0.230484	0.230797
C166	C	0.536008	-0.191987	0.096412
C167	C	0.581401	-0.247647	0.151955
H168	H	0.552181	-0.205855	0.032655
H169	H	0.552261	-0.128251	0.110333
H170	H	0.469926	-0.200686	0.105132
H171	H	0.647493	-0.239019	0.143266
H172	H	0.565082	-0.311363	0.138020
