data_functionalizedCrystal
_audit_creation_method	'MofGen! by Chris Wilmer'
_symmetry_space_group_name_H-M	'P1'
_symmetry_Int_Tables_number	1
_symmetry_cell_setting	triclinic
loop_
_symmetry_equiv_pos_as_xyz
  x,y,z
_cell_length_a	28.938199
_cell_length_b	28.937346
_cell_length_c	28.934044
_cell_angle_alpha	60.005004
_cell_angle_beta	60.009897
_cell_angle_gamma	59.994060
loop_
_atom_site_label
_atom_site_type_symbol
_atom_site_fract_x
_atom_site_fract_y
_atom_site_fract_z
O1	O	0.064043	-0.675186	0.564597
O2	O	0.024124	-0.525682	0.454913
O3	O	0.118795	-0.620275	0.454833
O4	O	-0.030629	-0.580593	0.564678
O5	O	0.150204	-0.588870	0.486157
O6	O	0.055533	-0.494276	0.486238
O7	O	0.095452	-0.643780	0.595921
Cu8	Cu	0.078360	-0.566161	0.543940
Cu9	Cu	0.041215	-0.603301	0.506895
O10	O	0.000780	-0.549187	0.596002
N11	N	0.104487	-0.540042	0.569998
N12	N	0.015094	-0.629425	0.480837
C13	C	0.165467	-0.323909	0.630915
C14	C	0.165587	-0.479117	0.786068
C15	C	0.165481	-0.479095	0.630906
C16	C	0.320696	-0.479083	0.630835
C17	C	0.182557	-0.375118	0.647971
C18	C	0.182626	-0.462038	0.734858
C19	C	0.269485	-0.462018	0.647928
C20	C	0.182566	-0.462025	0.647966
C21	C	0.143714	-0.258726	0.609206
C22	C	0.143738	-0.500820	0.609192
C23	C	0.204309	-0.440300	0.669680
C24	C	0.415481	-0.462740	0.580919
C25	C	0.474732	-0.482485	0.561145
C26	C	0.474757	-0.578356	0.597704
C27	C	0.415508	-0.558609	0.617479
C28	C	0.157989	-0.229089	0.550957
C29	C	0.138212	-0.169834	0.531225
C30	C	0.089890	-0.169857	0.627992
C31	C	0.109667	-0.229112	0.647725
C32	C	0.085482	-0.486515	0.623535
C33	C	0.065722	-0.506265	0.603789
C34	C	0.162467	-0.554625	0.555370
C35	C	0.182230	-0.534875	0.575110
C36	C	0.085661	-0.486557	0.880902
C37	C	0.065952	-0.506323	0.940155
C38	C	0.162734	-0.554693	0.940102
C39	C	0.182441	-0.534928	0.880847
C40	C	0.143904	-0.500859	0.851249
C41	C	0.385871	-0.500801	0.609083
C42	C	-0.110907	-0.668480	0.441278
C43	C	-0.024049	-0.668588	0.441475
C44	C	-0.045729	-0.690282	0.419668
C45	C	-0.062146	-0.785032	0.469507
C46	C	-0.042446	-0.844287	0.489286
C47	C	0.053426	-0.844399	0.452899
C48	C	0.033725	-0.785144	0.433120
C49	C	-0.140617	-0.682751	0.499509
C50	C	-0.199867	-0.662928	0.519152
C51	C	-0.199694	-0.614571	0.422330
C52	C	-0.140443	-0.634393	0.402687
C53	C	-0.038320	-0.610337	0.427144
C54	C	-0.018610	-0.590621	0.446974
C55	C	0.029642	-0.687402	0.495454
C56	C	0.009933	-0.707121	0.475630
C57	C	-0.038148	-0.610347	0.324832
C58	C	-0.018301	-0.590634	0.265579
C59	C	0.030035	-0.687421	0.265643
C60	C	0.010190	-0.707133	0.324897
C61	C	-0.023903	-0.668595	0.354491
C62	C	-0.024062	-0.755463	0.441426
N63	N	0.503527	-0.540005	0.569810
O64	O	0.684453	-0.545211	0.434650
O65	O	0.684643	-0.655237	0.584005
O66	O	0.684567	-0.654986	0.489282
O67	O	0.684529	-0.545462	0.529373
O68	O	0.590438	-0.623674	0.520735
O69	O	0.590513	-0.623924	0.615457
O70	O	0.590323	-0.513899	0.466102
Cu71	Cu	0.581823	-0.566053	0.543652
Cu72	Cu	0.693143	-0.603083	0.506456
O73	O	0.590399	-0.514149	0.560825
N74	N	0.771439	-0.629131	0.480292
N75	N	0.104456	-0.141061	0.570015
O76	O	-0.030629	0.039964	0.564688
O77	O	0.118732	0.039984	0.454661
O78	O	0.023980	0.039958	0.454946
O79	O	0.064123	0.039990	0.564403
O80	O	0.055392	-0.054179	0.486321
O81	O	0.150144	-0.054153	0.486036
O82	O	0.000784	-0.054173	0.596063
Cu83	Cu	0.078332	-0.062759	0.543914
Cu84	Cu	0.041183	0.048570	0.506810
O85	O	0.095535	-0.054147	0.595778
N86	N	0.015053	0.126872	0.480710
N87	N	0.104760	-0.540096	0.968910
O88	O	0.099447	-0.675167	1.149923
O89	O	-0.010552	-0.525757	1.149951
O90	O	-0.010297	-0.620493	1.149918
O91	O	0.099192	-0.580431	1.149956
O92	O	0.021064	-0.589100	1.055785
O93	O	0.020809	-0.494365	1.055818
O94	O	0.130808	-0.643774	1.055790
Cu95	Cu	0.078672	-0.566203	1.047209
Cu96	Cu	0.041584	-0.603328	1.158532
O97	O	0.130553	-0.549038	1.055823
N98	N	0.015495	-0.629442	1.236831
C99	C	0.036087	-0.491140	0.455465
C100	C	0.153325	-0.608283	0.455364
C101	C	0.083488	-0.678322	0.595370
C102	C	-0.033750	-0.561180	0.595470
C103	C	0.637601	-0.654732	0.618548
C104	C	0.637509	-0.654422	0.501245
C105	C	0.637362	-0.514403	0.431560
C106	C	0.637458	-0.514713	0.548862
C107	C	0.153215	-0.006966	0.455158
C108	C	0.035916	-0.007114	0.455550
C109	C	-0.033739	-0.007106	0.595527
C110	C	0.083600	-0.007076	0.595174
C111	C	-0.010020	-0.491238	1.102888
C112	C	-0.009698	-0.608550	1.102828
C113	C	0.130276	-0.678293	1.102853
C114	C	0.129961	-0.560974	1.102892
H115	H	0.018524	-0.494668	0.964293
H116	H	0.092195	-0.007066	0.629560
H117	H	-0.065985	-0.578958	0.399332
H118	H	-0.044554	-0.448327	1.102896
C119	C	0.637672	-0.701397	0.676498
N120	N	0.637726	-0.736545	0.720145
C121	C	-0.084344	-0.876812	0.520189
N122	N	-0.115904	-0.901312	0.543471
C123	C	-0.232550	-0.678626	0.583213
N124	N	-0.257165	-0.690452	0.631463
H125	H	0.637525	-0.688829	0.492664
H126	H	0.196022	-0.006699	0.420530
H127	H	0.498884	-0.625426	0.604536
C128	C	-0.091698	-0.007081	0.642182
N129	N	-0.135357	-0.007049	0.677318
H130	H	-0.044080	-0.617108	1.102779
C131	C	0.024568	-0.433122	0.408924
N132	N	0.015891	-0.389423	0.373869
H133	H	0.498841	-0.451490	0.538213
H134	H	0.637300	-0.479859	0.388668
C135	C	0.637438	-0.468231	0.560451
N136	N	0.637421	-0.433219	0.569181
C137	C	0.176898	-0.736297	1.102944
N138	N	0.212001	-0.779998	1.103050
H139	H	0.027318	-0.007118	0.421162
C140	C	0.043263	-0.449047	0.848350
N141	N	0.011329	-0.420788	0.823831
C142	C	0.205129	-0.592162	0.972657
N143	N	0.237061	-0.620388	0.997178
C144	C	0.211304	-0.619707	0.408763
N145	N	0.254975	-0.628312	0.373664
H146	H	0.164358	-0.552401	1.102897
H147	H	-0.109200	-0.760870	0.476275
C148	C	0.043137	-0.449046	0.661015
N149	N	0.011240	-0.420821	0.689244
C150	C	0.246515	-0.550661	0.848232
N151	N	0.294775	-0.562509	0.823668
H152	H	-0.076669	-0.552723	0.629962
C153	C	0.001638	-0.490530	0.619563
N154	N	-0.046630	-0.478678	0.631445
H155	H	0.092017	-0.721269	0.629819
H156	H	0.229667	-0.546519	0.563426
C157	C	0.204817	-0.592090	0.517882
N158	N	0.236713	-0.620307	0.489644
H159	H	0.391402	-0.589605	0.640414
H160	H	0.391352	-0.415667	0.574082
C161	C	0.052458	-0.137280	0.670366
N162	N	0.024267	-0.112746	0.702283
C163	C	0.195441	-0.261661	0.508582
N164	N	0.223649	-0.286196	0.476665
H165	H	-0.030233	-0.543188	0.435308
H166	H	0.098041	-0.253238	0.695156
C167	C	0.153913	-0.137231	0.467146
N168	N	0.165740	-0.112676	0.418881
H169	H	-0.065911	-0.578960	0.348925
C170	C	-0.033985	-0.526554	0.232964
N171	N	-0.045799	-0.478290	0.208396
H172	H	0.057785	-0.718806	0.241554
H173	H	0.021795	-0.754566	0.349042
H174	H	0.057315	-0.718782	0.523258
H175	H	0.064741	-0.761071	0.410254
C176	C	0.116995	-0.877051	0.443765
N177	N	0.164874	-0.901643	0.436882
C178	C	-0.108127	-0.720246	0.541961
N179	N	-0.083657	-0.748487	0.573938
C180	C	-0.232186	-0.577080	0.379878
N181	N	-0.256657	-0.548839	0.347902
C182	C	-0.107760	-0.618696	0.338626
N183	N	-0.083145	-0.606872	0.290376
C184	C	0.025633	-0.771200	0.491390
N185	N	0.037462	-0.819464	0.503258
