data_functionalizedCrystal
_audit_creation_method	'MofGen! by Chris Wilmer'
_symmetry_space_group_name_H-M	'P1'
_symmetry_Int_Tables_number	1
_symmetry_cell_setting	triclinic
loop_
_symmetry_equiv_pos_as_xyz
  x,y,z
_cell_length_a	12.645331
_cell_length_b	12.645330
_cell_length_c	12.645317
_cell_angle_alpha	89.937406
_cell_angle_beta	89.958260
_cell_angle_gamma	90.016671
loop_
_atom_site_label
_atom_site_type_symbol
_atom_site_fract_x
_atom_site_fract_y
_atom_site_fract_z
Zn1	Zn	1.620931	-0.421665	-0.599447
Zn2	Zn	1.620753	-0.599070	-0.422187
Zn3	Zn	1.443586	-0.421818	-0.422191
Zn4	Zn	1.443627	-0.598884	-0.599402
O5	O	1.532224	-0.510359	-0.510807
O6	O	1.769255	-0.445212	-0.575950
O7	O	1.597161	-0.575699	-0.273840
O8	O	1.467169	-0.273450	-0.445725
O9	O	1.769124	-0.575551	-0.445718
O10	O	1.597463	-0.273338	-0.575954
O11	O	1.466997	-0.445472	-0.273843
O12	O	1.295245	-0.445292	-0.445682
O13	O	1.467238	-0.575234	-0.747756
O14	O	1.295274	-0.575382	-0.575878
O15	O	1.597502	-0.445032	-0.747789
O16	O	1.597200	-0.747392	-0.445674
O17	O	1.467066	-0.747256	-0.575874
C18	C	1.256795	-0.510334	-0.510776
C19	C	1.138965	-0.510349	-0.510788
C20	C	1.532147	-0.785789	-0.510792
C21	C	1.532211	-0.903619	-0.510821
C22	C	0.971347	-0.428132	-0.429334
C23	C	1.093906	-0.428345	-0.428975
C24	C	1.094434	-0.622043	-0.480273
C25	C	0.971836	-0.621594	-0.479718
C26	C	0.971853	-0.481934	-0.623072
C27	C	1.094458	-0.479439	-0.622449
C28	C	1.450682	-1.071141	-0.592982
C29	C	1.450264	-0.948582	-0.592718
C30	C	1.501928	-0.948286	-0.399099
C31	C	1.501431	-1.070884	-0.399598
C32	C	1.644522	-1.070691	-0.539476
C33	C	1.643834	-0.948083	-0.541919
C34	C	1.808730	-0.510385	-0.510838
C35	C	1.926560	-0.510396	-0.510852
C36	C	1.532395	-0.510095	-0.787313
C37	C	1.532467	-0.509983	-0.905143
C38	C	1.532331	-0.233854	-0.510845
C39	C	1.532376	-0.116024	-0.510861
C40	C	1.532116	-0.510546	-0.235377
C41	C	1.532249	-0.510360	-0.117547
C42	C	1.615186	-0.591114	0.050079
C43	C	1.614821	-0.591655	-0.072479
C44	C	1.420804	-0.541420	-0.072771
C45	C	1.421410	-0.541792	0.049828
C46	C	1.560168	-0.397675	0.049311
C47	C	1.562512	-0.398466	-0.073298
H48	H	1.124013	-0.345522	-0.448101
N49	N	1.400164	-0.909900	-0.368124
N50	N	1.384639	-0.812689	-0.359319
H51	H	1.312766	-0.785578	-0.337447
N52	N	1.130613	-0.451980	-0.324661
N53	N	1.187052	-0.531588	-0.308943
H54	H	1.212977	-0.548285	-0.235268
H55	H	1.644527	-0.375052	-0.102587
N56	N	1.131052	-0.700986	-0.552426
N57	N	1.190520	-0.675748	-0.627320
H58	H	1.216383	-0.731500	-0.678281
N59	N	1.390582	-0.643454	-0.110937
N60	N	1.308255	-0.653710	-0.164611
H61	H	1.286914	-0.725774	-0.191563
N62	N	1.718527	-0.567186	-0.110482
N63	N	1.767029	-0.632084	-0.167059
H64	H	1.840277	-0.614808	-0.193896
H65	H	1.640058	-0.369438	0.080015
H66	H	1.672138	-1.101483	-0.619559
H67	H	1.666671	-0.918879	-0.624141
H68	H	0.941889	-0.345060	-0.448255
H69	H	1.469215	-0.918373	-0.675559
H70	H	0.940965	-0.401904	-0.650824
N71	N	1.591822	-0.696176	-0.108897
N72	N	1.512246	-0.712491	-0.165155
H73	H	1.496008	-0.786322	-0.190854
N74	N	1.492281	-0.318644	-0.111817
N75	N	1.418447	-0.343033	-0.172776
H76	H	1.368836	-0.286661	-0.199980
H77	H	1.397824	-0.623916	0.078692
H78	H	1.707909	-0.917470	-0.486462
H79	H	1.597142	-0.673838	0.081148
H80	H	0.940471	-0.446742	-0.346662
N81	N	1.574178	-0.911759	-0.320220
N82	N	1.562512	-0.939340	-0.225977
H83	H	1.613538	-0.913540	-0.170267
N84	N	1.719299	-0.566797	0.086832
N85	N	1.769566	-0.633110	0.140206
H86	H	1.843101	-0.615943	0.166170
H87	H	0.942210	-0.684966	-0.536503
H88	H	1.357719	-0.485311	0.079458
N89	N	1.720866	-1.107105	-0.464433
N90	N	1.692950	-1.166184	-0.390170
H91	H	1.746859	-1.191905	-0.337166
N92	N	1.341368	-0.469755	-0.109397
N93	N	1.324672	-0.459772	-0.206311
H94	H	1.268576	-0.409152	-0.232179
H95	H	1.499907	-0.337224	0.078260
H96	H	1.123570	-0.397245	-0.645459
N97	N	1.347042	-1.109929	-0.569502
N98	N	1.333085	-1.170484	-0.492550
H99	H	1.259891	-1.197882	-0.475963
H100	H	1.469459	-1.100498	-0.676095
H101	H	0.943163	-0.645722	-0.397679
H102	H	1.125137	-0.534980	-0.686434
N103	N	1.132844	-0.652812	-0.378452
N104	N	1.112570	-0.597392	-0.299201
H105	H	1.139695	-0.619116	-0.227285
N106	N	1.345953	-0.911942	-0.568967
N107	N	1.270432	-0.936271	-0.627851
H108	H	1.196751	-0.910406	-0.611082
N109	N	0.935562	-0.557107	-0.699275
N110	N	0.957607	-0.652874	-0.688576
H111	H	0.931981	-0.705972	-0.742389
N112	N	1.398587	-1.106886	-0.369180
N113	N	1.327678	-1.041468	-0.347734
H114	H	1.255042	-1.066889	-0.326251
N115	N	1.572811	-1.108134	-0.320199
N116	N	1.622832	-1.043583	-0.264591
H117	H	1.673232	-1.069885	-0.208505
