data_functionalizedCrystal
_audit_creation_method	'MofGen! by Chris Wilmer'
_symmetry_space_group_name_H-M	'P1'
_symmetry_Int_Tables_number	1
_symmetry_cell_setting	triclinic
loop_
_symmetry_equiv_pos_as_xyz
  x,y,z
_cell_length_a	16.992695
_cell_length_b	14.971486
_cell_length_c	13.448316
_cell_angle_alpha	89.999879
_cell_angle_beta	89.996140
_cell_angle_gamma	87.141176
loop_
_atom_site_label
_atom_site_type_symbol
_atom_site_fract_x
_atom_site_fract_y
_atom_site_fract_z
O1	O	0.102187	1.194125	-0.082578
O2	O	0.114424	0.934585	-0.082605
O3	O	-0.005838	1.063315	-0.082584
O4	O	0.222449	1.065396	-0.082599
O5	O	-0.005839	1.063301	0.082800
O6	O	0.114423	0.934571	0.082779
O7	O	0.102186	1.194112	0.082806
Cu8	Cu	0.108304	1.064340	0.097893
Cu9	Cu	0.108305	1.064356	-0.097692
O10	O	0.222448	1.065382	0.082785
C11	C	0.113876	0.901215	0.000083
C12	C	0.112236	0.801803	0.000073
C13	C	-0.035054	1.060631	0.000108
C14	C	-0.122105	1.052644	0.000107
C15	C	0.182887	0.749541	0.000070
C16	C	0.181341	0.656133	0.000085
C17	C	0.109144	0.614988	0.000096
C18	C	0.038488	0.667257	0.000102
C19	C	0.040034	0.760663	0.000095
C20	C	0.035269	0.472568	0.000116
C21	C	0.033723	0.379155	0.000122
C22	C	0.176577	0.368038	0.000106
C23	C	0.178123	0.461445	0.000099
C24	C	0.107466	0.513707	0.000103
C25	C	-0.172274	1.129708	0.000116
C26	C	-0.254067	1.122198	0.000106
C27	C	-0.285691	1.037623	0.000093
C28	C	-0.235517	0.960553	0.000081
C29	C	-0.153724	0.968064	0.000084
C30	C	-0.529318	1.006493	0.000076
C31	C	-0.611117	0.998988	0.000076
C32	C	-0.629662	1.160634	0.000099
C33	C	-0.547867	1.168138	0.000108
C34	C	-0.497700	1.091068	0.000090
N35	N	-0.369297	1.029945	0.000086
N36	N	-0.414095	1.098747	0.000091
C37	C	0.251664	1.068066	0.000091
C38	C	0.338715	1.076053	0.000085
C39	C	0.102733	1.227482	0.000115
C40	C	0.104373	1.326894	0.000119
N41	N	0.108303	1.064335	0.235457
N42	N	0.108301	1.064368	-0.235257
C43	C	0.155943	1.121985	0.287496
C44	C	0.155939	1.121996	0.391599
C45	C	0.108300	1.064352	0.443662
C46	C	0.060655	1.006700	0.391616
C47	C	0.060654	1.006694	0.287515
C48	C	0.060660	1.006714	0.608596
C49	C	0.060661	1.006719	0.712705
C50	C	0.155945	1.122016	0.712681
C51	C	0.155944	1.122010	0.608579
C52	C	0.108300	1.064357	0.556541
H53	H	0.241679	0.783034	0.000060
Cl54	Cl	-0.692733	1.257516	0.000117
H55	H	-0.294912	1.184952	0.000115
Cl56	Cl	0.215834	1.194471	0.457015
H57	H	-0.020297	0.633749	0.000126
Cl58	Cl	-0.090655	0.871178	0.000069
Cl59	Cl	-0.132527	1.236037	0.000141
H60	H	0.194742	1.168956	0.755056
H61	H	0.021862	0.959769	0.434014
Cl62	Cl	0.270164	0.590437	0.000074
H63	H	0.021861	0.959750	0.245146
H64	H	0.021870	0.959779	0.755091
Cl65	Cl	-0.650870	0.892657	0.000067
Cl66	Cl	0.215853	1.194458	0.543130
H67	H	-0.025067	0.345658	0.000133
Cl68	Cl	0.000751	0.934248	0.543178
Cl69	Cl	0.268887	0.513169	0.000074
H70	H	-0.022267	0.515117	0.000121
H71	H	-0.261271	0.891690	0.000065
Cl72	Cl	-0.508118	1.274465	0.000091
Cl73	Cl	-0.466261	0.909604	0.000052
H74	H	-0.017497	0.803213	0.000097
Cl75	Cl	0.215837	1.194455	0.222056
H76	H	0.234108	0.325482	0.000107
