data_functionalizedCrystal
_audit_creation_method	'MofGen! by Chris Wilmer'
_symmetry_space_group_name_H-M	'P1'
_symmetry_Int_Tables_number	1
_symmetry_cell_setting	triclinic
loop_
_symmetry_equiv_pos_as_xyz
  x,y,z
_cell_length_a	10.654562
_cell_length_b	8.559649
_cell_length_c	9.130313
_cell_angle_alpha	90.000859
_cell_angle_beta	89.996930
_cell_angle_gamma	77.134384
loop_
_atom_site_label
_atom_site_type_symbol
_atom_site_fract_x
_atom_site_fract_y
_atom_site_fract_z
O1	O	1.644658	0.224273	-0.121887
O2	O	1.276977	0.245610	-0.121868
O3	O	1.493211	0.002701	-0.121877
O4	O	1.428425	0.467183	-0.121877
O5	O	1.493208	0.002707	0.121721
O6	O	1.276974	0.245617	0.121731
O7	O	1.644655	0.224279	0.121712
Cu8	Cu	1.460814	0.234949	0.143964
Cu9	Cu	1.460818	0.234941	-0.144120
O10	O	1.428422	0.467189	0.121722
C11	C	1.230340	0.244043	-0.000066
C12	C	1.091383	0.239343	-0.000059
C13	C	1.026078	0.237154	0.132715
C14	C	0.895510	0.232750	0.132691
C15	C	0.895565	0.232731	-0.132894
C16	C	1.026132	0.237123	-0.132868
C17	C	1.026044	0.237172	0.286049
C18	C	0.895476	0.232768	0.286024
C19	C	1.498119	-0.056771	-0.000081
C20	C	1.512733	-0.233989	-0.000090
C21	C	1.691292	0.225847	-0.000093
C22	C	1.830249	0.230547	-0.000109
C23	C	1.423513	0.526661	-0.000078
C24	C	1.408899	0.703879	-0.000079
N25	N	1.460821	0.234953	0.346587
N26	N	1.460822	0.234924	-0.346742
C27	C	1.556587	0.127430	0.423234
C28	C	1.556586	0.127411	0.576571
C29	C	1.365047	0.342453	0.576599
C30	C	1.365044	0.342463	0.423265
C31	C	1.667174	0.003281	0.423220
C32	C	1.667173	0.003262	0.576556
H33	H	0.842421	0.230925	-0.241022
H34	H	1.083697	0.126868	0.344932
O35	O	1.779008	0.035611	0.626289
C36	C	1.971838	-0.056728	0.768402
C37	C	1.845250	-0.093581	0.712148
H38	H	2.025418	-0.161141	0.837856
H39	H	2.034394	-0.038551	0.671354
H40	H	1.949367	0.056864	0.837727
H41	H	1.867603	-0.207188	0.642847
H42	H	1.782732	-0.111658	0.809261
O43	O	1.046774	0.376099	0.342915
C44	C	0.951953	0.632764	0.449547
C45	C	0.928297	0.475487	0.385217
H46	H	0.856180	0.713176	0.483737
H47	H	1.017682	0.604932	0.549132
H48	H	0.999517	0.696664	0.363289
H49	H	0.880693	0.411509	0.471368
H50	H	0.862618	0.503425	0.285601
O51	O	1.271859	0.446724	0.651024
C52	C	1.044727	0.537700	0.697890
C53	C	1.150135	0.419496	0.613543
H54	H	0.946287	0.515751	0.667594
H55	H	1.061066	0.519219	0.820666
H56	H	1.048795	0.665731	0.667776
H57	H	1.146128	0.291418	0.643534
H58	H	1.133760	0.438117	0.490788
O59	O	1.656471	-0.143011	0.373635
C60	C	1.528686	-0.342502	0.369062
C61	C	1.540636	-0.176794	0.425282
H62	H	1.435053	-0.369882	0.410821
H63	H	1.528596	-0.342568	0.244199
H64	H	1.613627	-0.437788	0.410631
H65	H	1.455717	-0.081415	0.383820
H66	H	1.540785	-0.176863	0.550143
O67	O	1.089688	0.238955	-0.261805
C68	C	1.264711	0.105905	-0.415850
C69	C	1.192831	0.103616	-0.269788
H70	H	1.348133	-0.003486	-0.422339
H71	H	1.195722	0.103467	-0.510832
H72	H	1.303542	0.219514	-0.422468
H73	H	1.153994	-0.009973	-0.263027
H74	H	1.261871	0.106140	-0.174875
H75	H	1.648636	-0.112674	0.624105
O76	O	0.874691	0.093753	0.342643
C77	C	0.917907	-0.194012	0.322916
C78	C	0.941578	-0.036703	0.258676
H79	H	0.971949	-0.299523	0.255040
H80	H	0.953709	-0.207769	0.440893
H81	H	0.810449	-0.191182	0.320321
H82	H	1.049015	-0.039422	0.261169
H83	H	0.905689	-0.023005	0.140733
O84	O	1.632109	-0.332332	-0.000351
C85	C	1.782194	-0.541193	-0.126504
C86	C	1.646979	-0.429888	-0.126406
H87	H	1.794250	-0.620119	-0.228392
H88	H	1.858073	-0.465992	-0.126611
H89	H	1.794329	-0.619949	-0.024506
H90	H	1.634719	-0.351110	-0.228387
H91	H	1.571168	-0.505184	-0.126223
H92	H	1.287054	0.430003	0.360860
H93	H	0.837795	0.343079	0.344889
H94	H	1.308822	-0.213739	-0.000069
H95	H	1.754341	0.042161	0.375656
