data_functionalizedCrystal
_audit_creation_method	'MofGen! by Chris Wilmer'
_symmetry_space_group_name_H-M	'P1'
_symmetry_Int_Tables_number	1
_symmetry_cell_setting	triclinic
loop_
_symmetry_equiv_pos_as_xyz
  x,y,z
_cell_length_a	6.817900
_cell_length_b	13.167930
_cell_length_c	16.255661
_cell_angle_alpha	99.749107
_cell_angle_beta	103.488922
_cell_angle_gamma	105.754568
loop_
_atom_site_label
_atom_site_type_symbol
_atom_site_fract_x
_atom_site_fract_y
_atom_site_fract_z
V1	V	-4.046148	-0.149802	-0.275635
O2	O	-4.013373	0.006304	-0.258353
O3	O	-4.016690	-0.296172	-0.285325
O4	O	-3.997462	-0.147891	-0.390568
O5	O	-4.032734	-0.143004	-0.152381
V6	V	-4.527358	-0.131084	-0.259487
O7	O	-4.312479	-0.190863	-0.311058
O8	O	-4.711225	-0.090023	-0.224064
O9	O	-4.333609	0.015286	-0.249797
O10	O	-4.677530	-0.287190	-0.276769
O11	O	-4.658169	-0.137882	-0.382741
O12	O	-4.352838	-0.132995	-0.144554
C13	C	-3.866308	-0.331842	-0.283963
C14	C	-3.923508	-0.451503	-0.292652
C15	C	-3.946516	-0.645106	-0.151503
C16	C	-4.000259	-0.757538	-0.159663
C17	C	-4.084750	-0.788802	-0.317130
C18	C	-4.031007	-0.676370	-0.308971
C19	C	-3.961888	-0.604525	-0.226154
C20	C	-3.908131	-0.492091	-0.217995
C21	C	-3.992637	-0.523357	-0.375462
C22	C	-4.046379	-0.635789	-0.383622
C23	C	-3.841779	-0.142692	-0.418211
C24	C	-3.883382	-0.142098	-0.512245
C25	C	-3.793017	-0.134997	-0.734506
C26	C	-3.961325	-0.226649	-0.811180
C27	C	-3.959622	-0.140983	-0.684406
C28	C	-3.865469	-0.048282	-0.775288
C29	C	-4.033250	-0.139902	-0.850705
C30	C	-4.127422	-0.232717	-0.759856
C31	C	-4.031494	-0.054270	-0.723942
C32	C	-4.199941	-0.145948	-0.800598
C33	C	-3.917202	-0.141607	-0.588606
C34	C	-4.075688	-0.139286	-0.946505
C35	C	-4.147334	0.050950	-0.251157
C36	C	-4.069373	0.170611	-0.242474
C37	C	-4.171863	-0.138197	-0.116907
C38	C	-4.109498	-0.138786	-0.022871
H39	H	-3.987739	-0.790573	-0.098874
C40	C	-4.121078	-0.713659	-0.473580
C41	C	-3.960952	-0.690537	-0.514704
C42	C	-4.029695	-0.762236	-0.597580
H43	H	-4.150861	-0.786472	-0.467873
H44	H	-4.246540	-0.705152	-0.507617
H45	H	-3.835528	-0.699054	-0.480674
H46	H	-3.931149	-0.617738	-0.520433
H47	H	-4.155157	-0.753728	-0.631617
H48	H	-4.059478	-0.835043	-0.591865
H49	H	-3.921069	-0.746550	-0.625496
H50	H	-4.060632	0.018612	-0.686110
H51	H	-3.620678	-0.130486	-0.705671
H52	H	-3.932107	-0.299527	-0.848989
H53	H	-4.237762	-0.310747	-0.752517
H54	H	-4.005143	-0.490305	-0.436249
H55	H	-3.890209	-0.586608	-0.084070
H56	H	-4.372417	-0.150602	-0.829311
C57	C	-3.717992	0.055627	-0.785112
C58	C	-3.505771	0.060910	-0.751533
C59	C	-3.369845	0.156617	-0.760555
H60	H	-3.746303	0.055687	-0.845153
H61	H	-3.741414	0.116913	-0.753952
H62	H	-3.482360	-0.000360	-0.782694
H63	H	-3.477395	0.060869	-0.691491
H64	H	-3.393266	0.217904	-0.729395
H65	H	-3.398174	0.156668	-0.820597
H66	H	-3.225838	0.160220	-0.737766
H67	H	-4.141063	-0.847317	-0.384556
C68	C	-3.833255	-0.414265	-0.128011
C69	C	-3.831367	-0.473877	-0.064384
C70	C	-3.762446	-0.402226	0.018521
H71	H	-3.693535	-0.366207	-0.118442
H72	H	-3.927541	-0.373292	-0.124498
H73	H	-3.737084	-0.514832	-0.067893
H74	H	-3.971064	-0.521932	-0.073924
H75	H	-3.856731	-0.361253	0.022033
H76	H	-3.622729	-0.354171	0.028080
H77	H	-3.761174	-0.442662	0.061701
