data_functionalizedCrystal
_audit_creation_method	'MofGen! by Chris Wilmer'
_symmetry_space_group_name_H-M	'P1'
_symmetry_Int_Tables_number	1
_symmetry_cell_setting	triclinic
loop_
_symmetry_equiv_pos_as_xyz
  x,y,z
_cell_length_a	19.805407
_cell_length_b	15.297327
_cell_length_c	15.298151
_cell_angle_alpha	91.639917
_cell_angle_beta	80.331334
_cell_angle_gamma	99.707092
loop_
_atom_site_label
_atom_site_type_symbol
_atom_site_fract_x
_atom_site_fract_y
_atom_site_fract_z
Zn1	Zn	0.928377	-0.263152	0.555633
Zn2	Zn	0.921723	-0.434960	0.434488
Zn3	Zn	0.830931	-0.288492	0.409169
Zn4	Zn	0.792855	-0.409604	0.580911
O5	O	0.868471	-0.349052	0.495050
O6	O	1.022208	-0.285949	0.539580
O7	O	0.922830	-0.436747	0.308556
O8	O	0.862576	-0.162542	0.407422
O9	O	1.017319	-0.412176	0.450575
O10	O	0.934170	-0.143925	0.515029
O11	O	0.856125	-0.329138	0.289954
O12	O	0.731166	-0.304551	0.431934
O13	O	0.797682	-0.368960	0.700132
O14	O	0.703192	-0.393531	0.558112
O15	O	0.897249	-0.261362	0.681560
O16	O	0.885910	-0.554184	0.475087
O17	O	0.791231	-0.535555	0.582663
C18	C	0.692621	-0.349040	0.495019
C19	C	0.617386	-0.349052	0.495030
C20	C	0.833733	-0.576652	0.534384
C21	C	0.818930	-0.674016	0.551241
C22	C	0.567490	-0.395484	0.560655
C23	C	0.496800	-0.395484	0.560667
C24	C	0.476007	-0.349056	0.495051
C25	C	0.525909	-0.302618	0.429422
C26	C	0.596598	-0.302614	0.429414
C27	C	0.240830	-0.302632	0.429455
C28	C	0.170135	-0.302642	0.429466
C29	C	0.141032	-0.395502	0.560708
C30	C	0.211721	-0.395498	0.560700
C31	C	0.261617	-0.349057	0.495075
C32	C	0.338267	-0.349057	0.495063
C33	C	0.399359	-0.349061	0.495058
C34	C	0.974515	-0.987112	0.374872
C35	C	0.988423	-0.895635	0.359030
C36	C	0.946051	-0.840226	0.407081
C37	C	0.889769	-0.876302	0.470977
C38	C	0.875856	-0.967789	0.486816
C39	C	0.847392	-0.820903	0.519026
C40	C	0.791110	-0.856979	0.582922
C41	C	0.777200	-0.948457	0.598758
C42	C	0.819572	-1.003866	0.550707
C43	C	0.861305	-0.729416	0.503187
C44	C	0.762646	-0.710093	0.615131
C45	C	0.748738	-0.801570	0.630973
C46	C	1.045008	-0.349064	0.495082
C47	C	1.120238	-0.349070	0.495096
C48	C	0.843961	-0.309506	0.723516
C49	C	0.833516	-0.292654	0.820875
C50	C	0.903362	-0.120559	0.455581
C51	C	0.918231	-0.023189	0.438762
C52	C	0.793878	-0.228707	0.856922
C53	C	0.784055	-0.212875	0.948395
C54	C	0.813874	-0.260983	1.003830
C55	C	0.853516	-0.324927	0.967783
C56	C	0.863336	-0.340765	0.876301
C57	C	0.883332	-0.373041	1.023209
C58	C	0.922974	-0.436985	0.987162
C59	C	0.932792	-0.452820	0.895689
C60	C	0.902973	-0.404712	0.840254
C61	C	0.873512	-0.357202	1.114691
C62	C	0.942970	-0.469260	1.134070
C63	C	0.952793	-0.485093	1.042596
C64	C	0.892881	-0.388463	1.267476
C65	C	0.903333	-0.405314	1.170117
H66	H	0.584413	-0.433295	0.614085
Br67	Br	0.429087	-0.458499	0.649735
H68	H	0.769599	-0.189550	0.811781
Br69	Br	1.032010	-1.062312	0.309663
H70	H	0.985070	-0.537157	1.013233
Br71	Br	0.730221	-0.126138	0.997319
Br72	Br	0.141917	-0.239629	0.340409
H73	H	0.957378	-0.765742	0.394178
H74	H	0.967253	-0.508432	1.179205
H75	H	0.508974	-0.264811	0.375999
Br76	Br	0.819714	-0.270424	1.163601
Br77	Br	0.664315	-0.239591	0.340352
Br78	Br	0.916310	-0.426189	0.716104
H79	H	0.228646	-0.433308	0.614129
Br80	Br	0.073313	-0.458533	0.649771
Br81	Br	0.937685	-0.680466	0.416472
H82	H	0.805875	-0.248087	1.078311
H83	H	0.965061	-0.504899	0.866344
H84	H	0.808252	-1.078355	0.563604
H85	H	0.281447	-0.264825	0.376013
H86	H	0.731364	-0.977829	0.650777
Br87	Br	1.064808	-0.846678	0.272325
H88	H	0.728142	-0.664979	0.654257
Br89	Br	0.672358	-0.850541	0.717689
