data_functionalizedCrystal
_audit_creation_method	'MofGen! by Chris Wilmer'
_symmetry_space_group_name_H-M	'P1'
_symmetry_Int_Tables_number	1
_symmetry_cell_setting	triclinic
loop_
_symmetry_equiv_pos_as_xyz
  x,y,z
_cell_length_a	12.645331
_cell_length_b	12.759400
_cell_length_c	12.759393
_cell_angle_alpha	90.031564
_cell_angle_beta	90.021878
_cell_angle_gamma	90.013663
loop_
_atom_site_label
_atom_site_type_symbol
_atom_site_fract_x
_atom_site_fract_y
_atom_site_fract_z
Zn1	Zn	1.620745	-0.418233	0.594076
Zn2	Zn	1.620639	-0.593952	0.418396
Zn3	Zn	1.443462	-0.418284	0.418405
Zn4	Zn	1.443451	-0.593867	0.594027
O5	O	1.532074	-0.506084	0.506226
O6	O	1.769078	-0.441556	0.570789
O7	O	1.597096	-0.570706	0.271376
O8	O	1.467028	-0.271256	0.441732
O9	O	1.769000	-0.570656	0.441717
O10	O	1.597277	-0.271219	0.570797
O11	O	1.466925	-0.441644	0.271383
O12	O	1.295113	-0.441562	0.441685
O13	O	1.467009	-0.570512	0.741055
O14	O	1.295105	-0.570562	0.570714
O15	O	1.597266	-0.441474	0.741091
O16	O	1.597085	-0.740962	0.441670
O17	O	1.466906	-0.740900	0.570705
C18	C	1.532011	-0.779051	0.506204
C19	C	1.532081	-0.895828	0.506230
C20	C	1.256644	-0.506059	0.506196
C21	C	1.138814	-0.506074	0.506208
C22	C	1.599941	-0.950687	0.439116
C23	C	1.600006	-1.060412	0.439148
C24	C	1.464343	-1.060407	0.573412
C25	C	1.464284	-0.950685	0.573384
C26	C	1.678262	-0.950691	0.361596
C27	C	1.678327	-1.060415	0.361628
C28	C	0.971220	-0.424546	0.425484
C29	C	1.093780	-0.424757	0.425128
C30	C	1.094300	-0.616752	0.475963
C31	C	0.971702	-0.616307	0.475412
C32	C	0.971662	-0.477976	0.617489
C33	C	1.094268	-0.475504	0.616871
C34	C	1.808579	-0.506110	0.506257
C35	C	1.926409	-0.506121	0.506271
C36	C	1.532148	-0.505978	0.780260
C37	C	1.532180	-0.505933	0.897036
C38	C	1.532166	-0.232051	0.506271
C39	C	1.532205	-0.115274	0.506290
C40	C	1.532061	-0.506114	0.233259
C41	C	1.532235	-0.505863	0.116483
C42	C	1.600014	-0.438737	0.951919
C43	C	1.600040	-0.438699	1.061643
C44	C	1.464393	-0.573062	1.061593
C45	C	1.464363	-0.573094	0.951871
C46	C	1.678332	-0.361166	0.951949
C47	C	1.678357	-0.361128	1.061673
H48	H	1.409037	-0.906019	0.628044
H49	H	0.940761	-0.398678	0.644994
H50	H	1.123367	-0.394057	0.639677
C51	C	0.820945	-0.701583	0.551623
C52	C	0.931676	-0.701142	0.551367
H53	H	0.796241	-0.753956	0.598514
H54	H	0.795782	-0.716124	0.482989
H55	H	0.795719	-0.634972	0.573558
H56	H	0.956902	-0.767752	0.529424
H57	H	0.956850	-0.686609	0.620016
H58	H	1.409146	-1.105085	0.628088
C59	C	1.852746	-0.426347	0.987728
C60	C	1.783589	-0.400527	0.905997
H61	H	1.917728	-0.450642	0.959356
H62	H	1.822058	-0.479829	1.029603
H63	H	1.865367	-0.366073	1.029645
H64	H	1.770962	-0.460803	0.864084
H65	H	1.814284	-0.347041	0.864105
H66	H	1.409177	-0.627741	1.106252
C67	C	1.449521	-0.714449	0.828441
C68	C	1.389786	-0.646949	0.891546
H69	H	1.403474	-0.760039	0.791197
H70	H	1.495693	-0.754633	0.871238
H71	H	1.489897	-0.674448	0.780079
H72	H	1.349416	-0.686949	0.939913
H73	H	1.343596	-0.606761	0.848745
H74	H	1.656393	-1.090277	0.280246
H75	H	1.760339	-0.920835	0.383452
C76	C	1.612615	-0.986657	0.188677
C77	C	1.638603	-0.904852	0.257206
H78	H	1.588137	-0.958355	0.124230
H79	H	1.558640	-1.028566	0.219044
H80	H	1.673451	-1.028521	0.176268
H81	H	1.577764	-0.862992	0.269621
H82	H	1.692581	-0.862926	0.226832
C83	C	1.192147	-0.492211	0.777278
C84	C	1.135659	-0.549859	0.702476
H85	H	1.217707	-0.538124	0.830119
H86	H	1.146949	-0.441317	0.808008
H87	H	1.250107	-0.458109	0.744435
H88	H	1.077694	-0.583955	0.735318
H89	H	1.180860	-0.600771	0.671743
H90	H	0.943059	-0.640173	0.394106
C91	C	0.973233	-0.532498	0.797568
C92	C	0.932543	-0.558175	0.698755
H93	H	0.949081	-0.582016	0.847729
H94	H	0.949913	-0.464426	0.816902
H95	H	1.048303	-0.533658	0.795089
H96	H	0.857472	-0.557008	0.701232
H97	H	0.955857	-0.626265	0.679417
C98	C	1.630701	-0.184688	0.997142
C99	C	1.648669	-0.251334	0.911767
H100	H	1.612381	-0.116888	0.972332
H101	H	1.693011	-0.180256	1.038502
H102	H	1.574510	-0.211714	1.038482
H103	H	1.704865	-0.224312	0.870431
H104	H	1.586351	-0.255763	0.870390
H105	H	1.756328	-1.094361	0.390845
H106	H	1.123876	-0.342685	0.444085
C107	C	0.820826	-0.311618	0.446283
C108	C	0.931449	-0.313416	0.450816
H109	H	0.796275	-0.243007	0.461926
H110	H	0.792911	-0.359676	0.495916
H111	H	0.798271	-0.330936	0.377925
H112	H	0.954005	-0.294106	0.519177
H113	H	0.959375	-0.265342	0.401181
H114	H	0.940374	-0.442943	0.343551
C115	C	1.046566	-0.464802	0.247278
C116	C	1.133318	-0.449878	0.313871
H117	H	1.070977	-0.480318	0.178592
H118	H	1.005022	-0.402815	0.245695
H119	H	1.004874	-0.521410	0.272377
H120	H	1.175005	-0.393265	0.288776
H121	H	1.174879	-0.511873	0.315449
H122	H	1.123472	-0.679156	0.532957
H123	H	1.124958	-0.641029	0.395529
H124	H	1.648981	-0.283818	1.095719
H125	H	1.760462	-0.382922	1.091456
