data_functionalizedCrystal
_audit_creation_method	'MofGen! by Chris Wilmer'
_symmetry_space_group_name_H-M	'P1'
_symmetry_Int_Tables_number	1
_symmetry_cell_setting	triclinic
loop_
_symmetry_equiv_pos_as_xyz
  x,y,z
_cell_length_a	27.440280
_cell_length_b	21.606444
_cell_length_c	27.440280
_cell_angle_alpha	119.992844
_cell_angle_beta	89.993636
_cell_angle_gamma	59.997270
loop_
_atom_site_label
_atom_site_type_symbol
_atom_site_fract_x
_atom_site_fract_y
_atom_site_fract_z
Zr1	Zr	0.469497	0.677368	0.063873
Zr2	Zr	0.969497	1.177368	0.563873
O3	O	0.391678	0.806486	0.141690
O4	O	0.891678	1.306486	0.641690
O5	O	0.493353	0.548250	0.040021
O6	O	0.993353	1.048250	0.540021
O7	O	0.493354	0.677353	0.141680
O8	O	0.993354	1.177353	0.641680
O9	O	0.391676	0.677395	-0.040163
O10	O	0.891676	1.177395	0.459837
O11	O	0.573556	0.677341	0.141670
O12	O	1.073556	1.177341	0.641670
O13	O	0.391677	0.677383	0.040030
O14	O	0.891677	1.177383	0.540030
O15	O	0.573556	0.446399	-0.040180
O16	O	1.073556	0.946399	0.459820
O17	O	0.391677	0.908337	0.141687
O18	O	0.891677	1.408337	0.641687
O19	O	0.563381	0.601349	0.029838
O20	O	1.063381	1.101349	0.529838
O21	O	0.503526	0.601367	-0.030002
O22	O	1.003526	1.101367	0.469998
O23	O	0.503526	0.753369	0.089689
O24	O	1.003526	1.253369	0.589689
O25	O	0.443671	0.753387	0.029849
O26	O	0.943671	1.253387	0.529849
Zr27	Zr	0.597409	0.677368	-0.064042
Zr28	Zr	1.097409	1.177368	0.435958
Zr29	Zr	0.597411	0.677349	0.063857
Zr30	Zr	1.097411	1.177349	0.563857
Zr31	Zr	0.469495	0.677387	-0.064026
Zr32	Zr	0.969495	1.177387	0.435974
Zr33	Zr	0.469495	0.839808	0.063869
Zr34	Zr	0.969495	1.339808	0.563869
Zr35	Zr	0.597410	0.514928	-0.064038
Zr36	Zr	1.097410	1.014928	0.435962
O37	O	0.573553	0.806487	-0.040189
O38	O	1.073553	1.306487	0.459811
O39	O	0.573555	0.806459	0.141667
O40	O	1.073555	1.306459	0.641667
O41	O	0.391675	0.806514	-0.040166
O42	O	0.891675	1.306514	0.459834
O43	O	0.675228	0.548250	-0.141858
O44	O	1.175228	1.048250	0.358142
O45	O	0.675231	0.548223	0.039998
O46	O	1.175231	1.048223	0.539998
O47	O	0.493351	0.548277	-0.141835
O48	O	0.993351	1.048277	0.358165
O49	O	0.675230	0.677341	0.039995
O50	O	1.175230	1.177341	0.539995
O51	O	0.573552	0.677383	-0.141849
O52	O	1.073552	1.177383	0.358151
O53	O	0.493349	0.677395	-0.141839
O54	O	0.993349	1.177395	0.358161
O55	O	0.675228	0.677353	-0.040199
O56	O	1.175228	1.177353	0.459801
O57	O	0.493352	0.908322	0.141674
O58	O	0.993352	1.408322	0.641674
O59	O	0.573554	0.446414	-0.141843
O60	O	1.073554	0.946414	0.358157
O61	O	0.675229	0.446399	-0.141855
O62	O	1.175229	0.946399	0.358145
O63	O	0.675230	0.446384	-0.040193
O64	O	1.175230	0.946384	0.459807
O65	O	0.391675	0.908352	0.040024
O66	O	0.891675	1.408352	0.540024
O67	O	0.493350	0.908337	0.040012
O68	O	0.993350	1.408337	0.540012
O69	O	0.563379	0.601367	-0.089857
O70	O	1.063379	1.101367	0.410143
O71	O	0.623235	0.601349	-0.030017
O72	O	1.123235	1.101349	0.469983
O73	O	0.563380	0.753369	0.029834
O74	O	1.063380	1.253369	0.529834
O75	O	0.503525	0.753387	-0.030006
O76	O	1.003525	1.253387	0.469994
C77	C	0.533455	0.474180	-0.000079
C78	C	1.033455	0.974180	0.499921
C79	C	0.533455	0.405220	-0.000077
C80	C	1.033455	0.905220	0.499923
C81	C	0.373452	0.677392	-0.000064
C82	C	0.873452	1.177392	0.499936
C83	C	0.319149	0.677400	-0.000057
C84	C	0.819149	1.177400	0.499943
C85	C	0.564698	0.372813	0.031159
C86	C	1.064698	0.872813	0.531159
C87	C	0.564700	0.308013	0.031155
C88	C	1.064700	0.808013	0.531155
C89	C	0.533456	0.275626	-0.000082
C90	C	1.033456	0.775626	0.499918
C91	C	0.502212	0.308035	-0.031323
C92	C	1.002212	0.808035	0.468677
C93	C	0.502214	0.372830	-0.031322
C94	C	1.002214	0.872830	0.468678
C95	C	0.502205	0.046726	-0.031328
C96	C	1.002205	0.546726	0.468672
C97	C	0.502204	-0.018071	-0.031325
C98	C	1.002204	0.481929	0.468675
C99	C	0.564691	-0.018091	0.031150
C100	C	1.064691	0.481909	0.531150
C101	C	0.564693	0.046704	0.031151
C102	C	1.064693	0.546704	0.531151
C103	C	0.533452	0.079104	-0.000092
C104	C	1.033452	0.579104	0.499908
C105	C	0.533451	0.149367	-0.000089
C106	C	1.033451	0.649367	0.499911
C107	C	0.533453	0.205369	-0.000083
C108	C	1.033453	0.705369	0.499917
C109	C	0.013695	0.598001	-0.031342
C110	C	0.513695	1.098001	0.468658
C111	C	-0.037324	0.597996	-0.031347
C112	C	0.462676	1.097996	0.468653
O113	O	-0.037140	0.530509	-0.057935
O114	O	0.462860	1.030509	0.442065
N115	N	-0.094084	0.677348	-0.000105
N116	N	0.405916	1.177348	0.499895
C117	C	-0.099825	0.756710	0.031139
C118	C	0.400175	1.256710	0.531139
O119	O	-0.152789	0.824205	0.057712
O120	O	0.347211	1.324205	0.557712
C121	C	-0.048807	0.756714	0.031141
C122	C	0.451193	1.256714	0.531141
C123	C	0.007952	0.677357	-0.000099
C124	C	0.507952	1.177357	0.499901
C125	C	0.070452	0.518650	-0.062579
C126	C	0.570452	1.018650	0.437421
C127	C	0.121467	0.518655	-0.062573
C128	C	0.621467	1.018655	0.437427
C129	C	0.115724	0.598011	-0.031330
C130	C	0.615724	1.098011	0.468670
C131	C	0.058967	0.677362	-0.000092
C132	C	0.558967	1.177362	0.499908
C133	C	-0.054549	0.836075	0.062381
C134	C	0.445451	1.336075	0.562381
C135	C	-0.003525	0.836072	0.062380
C136	C	0.496475	1.336072	0.562380
C137	C	0.053235	0.756715	0.031141
C138	C	0.553235	1.256715	0.531141
C139	C	0.104240	0.756723	0.031158
C140	C	0.604240	1.256723	0.531158
N141	N	0.161000	0.677371	-0.000084
N142	N	0.661000	1.177371	0.499916
C143	C	0.166742	0.598015	-0.031328
C144	C	0.666742	1.098015	0.468672
C145	C	-0.206964	0.756696	0.031133
C146	C	0.293036	1.256696	0.531133
C147	C	-0.257981	0.756693	0.031135
C148	C	0.242019	1.256693	0.531135
C149	C	-0.195476	0.597978	-0.031352
C150	C	0.304524	1.097978	0.468648
C151	C	-0.144458	0.597982	-0.031351
C152	C	0.355542	1.097982	0.468649
C153	C	-0.150204	0.677344	-0.000109
C154	C	0.349796	1.177344	0.499891
C155	C	0.273875	0.598032	-0.031312
C156	C	0.773875	1.098032	0.468688
C157	C	0.324891	0.598044	-0.031301
C158	C	0.824891	1.098044	0.468699
C159	C	0.262382	0.756758	0.031184
C160	C	0.762382	1.256758	0.531184
C161	C	0.211370	0.756746	0.031176
C162	C	0.711370	1.256746	0.531176
C163	C	0.217120	0.677376	-0.000077
C164	C	0.717120	1.177376	0.499923
O165	O	0.104102	0.824175	0.057730
O166	O	0.604102	1.324175	0.557730
O167	O	0.219708	0.530532	-0.057903
O168	O	0.719708	1.030532	0.442097
C169	C	0.693454	0.677344	-0.000104
C170	C	1.193454	1.177344	0.499896
C171	C	0.747757	0.677336	-0.000111
C172	C	1.247757	1.177336	0.499889
C173	C	0.533455	0.677344	0.159898
C174	C	1.033455	1.177344	0.659898
C175	C	0.533456	0.677336	0.214195
C176	C	1.033456	1.177336	0.714195
C177	C	0.533451	0.880556	-0.000089
C178	C	1.033451	1.380556	0.499911
C179	C	0.533451	0.949516	-0.000091
C180	C	1.033451	1.449516	0.499909
C181	C	0.564704	0.598001	0.417661
C182	C	1.064704	1.098001	0.917661
C183	C	0.564706	0.597996	0.366639
C184	C	1.064706	1.097996	0.866639
O185	O	0.591295	0.530509	0.313681
O186	O	1.091295	1.030509	0.813681
N187	N	0.533460	0.677348	0.372363
N188	N	1.033460	1.177348	0.872363
C189	C	0.502214	0.756710	0.429114
C190	C	1.002214	1.256710	0.929114
O191	O	0.475638	0.824205	0.429298
O192	O	0.975638	1.324205	0.929298
C193	C	0.502216	0.756714	0.480135
C194	C	1.002216	1.256714	0.980135
C195	C	0.533459	0.677357	0.474406
C196	C	1.033459	1.177357	0.974406
C197	C	0.595945	0.518650	0.411935
C198	C	1.095945	1.018650	0.911935
C199	C	0.595942	0.518655	0.462954
C200	C	1.095942	1.018655	0.962954
C201	C	0.564697	0.598011	0.519699
C202	C	1.064697	1.098011	1.019699
C203	C	0.533456	0.677362	0.525425
C204	C	1.033456	1.177362	1.025425
C205	C	0.470975	0.836075	0.536885
C206	C	0.970975	1.336075	1.036885
C207	C	0.470979	0.836072	0.587907
C208	C	0.970979	1.336072	1.087907
C209	C	0.502223	0.756715	0.582178
C210	C	1.002223	1.256715	1.082178
C211	C	0.502208	0.756723	0.633189
C212	C	1.002208	1.256723	1.133189
N213	N	0.533455	0.677371	0.627465
N214	N	1.033455	1.177371	1.127465
C215	C	0.564699	0.598015	0.570720
C216	C	1.064699	1.098015	1.070720
C217	C	0.502214	0.756696	0.321964
C218	C	1.002214	1.256696	0.821964
C219	C	0.502209	0.756693	0.270945
C220	C	1.002209	1.256693	0.770945
C221	C	0.564701	0.597978	0.208473
C222	C	1.064701	1.097978	0.708473
C223	C	0.564703	0.597982	0.259494
C224	C	1.064703	1.097982	0.759494
C225	C	0.533460	0.677344	0.316240
C226	C	1.033460	1.177344	0.816240
C227	C	0.564690	0.598032	0.677866
C228	C	1.064690	1.098032	1.177866
C229	C	0.564682	0.598044	0.728892
C230	C	1.064682	1.098044	1.228892
C231	C	0.502192	0.756758	0.791359
C232	C	1.002192	1.256758	1.291359
C233	C	0.502197	0.756746	0.740338
C234	C	1.002197	1.256746	1.240338
C235	C	0.533450	0.677376	0.683589
C236	C	1.033450	1.177376	1.183589
O237	O	0.475636	0.824175	0.686166
O238	O	0.975636	1.324175	1.186166
O239	O	0.591278	0.530532	0.570547
O240	O	1.091278	1.030532	1.070547
C241	C	0.533447	0.677392	0.839934
C242	C	1.033447	1.177392	1.339934
C243	C	0.533437	0.677400	0.785637
C244	C	1.033437	1.177400	1.285637
C245	C	0.693456	0.474156	-0.000099
C246	C	1.193456	0.974156	0.499901
C247	C	0.747759	0.405188	-0.000104
C248	C	1.247759	0.905188	0.499896
C249	C	0.533452	0.474204	-0.160061
C250	C	1.033452	0.974204	0.339939
C251	C	0.533452	0.405252	-0.214356
C252	C	1.033452	0.905252	0.285644
C253	C	0.693453	0.474180	-0.160081
C254	C	1.193453	0.974180	0.339919
C255	C	0.747756	0.405220	-0.214383
C256	C	1.247756	0.905220	0.285617
C257	C	0.373452	0.880556	0.159913
C258	C	0.873452	1.380556	0.659913
C259	C	0.319150	0.949516	0.214215
C260	C	0.819150	1.449516	0.714215
C261	C	0.373450	0.880580	-0.000069
C262	C	0.873450	1.380580	0.499931
C263	C	0.319147	0.949548	-0.000064
C264	C	0.819147	1.449548	0.499936
C265	C	0.533454	0.880532	0.159893
C266	C	1.033454	1.380532	0.659893
C267	C	0.533454	0.949484	0.214188
C268	C	1.033454	1.449484	0.714188
C269	C	0.742018	0.372800	0.031143
C270	C	1.242018	0.872800	0.531143
C271	C	0.793037	0.308006	0.031150
C272	C	1.293037	0.808006	0.531150
C273	C	0.849797	0.275597	-0.000093
C274	C	1.349797	0.775597	0.499907
C275	C	0.855537	0.307992	-0.031341
C276	C	1.355537	0.807992	0.468659
C277	C	0.804518	0.372789	-0.031344
C278	C	1.304518	0.872789	0.468656
C279	C	0.564695	0.372872	-0.271102
C280	C	1.064695	0.872872	0.228898
C281	C	0.564692	0.308093	-0.322123
C282	C	1.064692	0.808093	0.177877
C283	C	0.533450	0.275692	-0.316396
C284	C	1.033450	0.775692	0.183604
C285	C	0.502204	0.308078	-0.259644
C286	C	1.002204	0.808078	0.240356
C287	C	0.502203	0.372860	-0.208624
C288	C	1.002203	0.872860	0.291376
C289	C	0.804506	0.372827	-0.208648
C290	C	1.304506	0.872827	0.291352
C291	C	0.855534	0.308040	-0.259665
C292	C	1.355534	0.808040	0.240335
C293	C	0.849811	0.275644	-0.316417
C294	C	1.349811	0.775644	0.183583
C295	C	0.793055	0.308044	-0.322151
C296	C	1.293055	0.808044	0.177849
C297	C	0.742028	0.372834	-0.271134
C298	C	1.242028	0.872834	0.228866
C299	C	0.262399	0.981918	0.208479
C300	C	0.762399	1.481918	0.708479
C301	C	0.211371	1.046724	0.259497
C302	C	0.711371	1.546724	0.759497
C303	C	0.217095	1.079123	0.316248
C304	C	0.717095	1.579123	0.816248
C305	C	0.273851	1.046719	0.321983
C306	C	0.773851	1.546719	0.821983
C307	C	0.324878	0.981918	0.270966
C308	C	0.824878	1.481918	0.770966
C309	C	0.324888	0.981943	-0.031306
C310	C	0.824888	1.481943	0.468694
C311	C	0.273869	1.046755	-0.031299
C312	C	0.773869	1.546755	0.468701
C313	C	0.217109	1.079166	-0.000054
C314	C	0.717109	1.579166	0.499946
C315	C	0.211369	1.046769	0.031192
C316	C	0.711369	1.546769	0.531192
C317	C	0.262387	0.981962	0.031188
C318	C	0.762387	1.481962	0.531188
C319	C	0.564702	0.981865	0.208442
C320	C	1.064702	1.481865	0.708442
C321	C	0.564714	1.046644	0.259452
C322	C	1.064714	1.546644	0.759452
C323	C	0.533474	1.079046	0.316209
C324	C	1.033474	1.579046	0.816209
C325	C	0.502224	1.046659	0.321954
C326	C	1.002224	1.546659	0.821954
C327	C	0.502216	0.981876	0.270944
C328	C	1.002216	1.481876	0.770944
H329	H	0.590137	0.399183	0.056600
H330	H	1.090137	0.899183	0.556600
H331	H	0.476767	0.281688	-0.254989
H332	H	0.976767	0.781688	0.245011
H333	H	0.695806	0.399187	0.056592
H334	H	1.195806	0.899187	0.556592
Br335	Br	-0.131570	0.943782	0.104775
Br336	Br	0.368430	1.443782	0.604775
H337	H	0.165148	1.073168	0.056630
H338	H	0.665148	1.573168	0.556630
Br339	Br	0.459804	0.864446	0.748111
Br340	Br	0.959804	1.364446	1.248111
H341	H	0.476760	-0.044440	-0.056764
H342	H	0.976760	0.455560	0.443236
H343	H	0.533456	0.222942	-0.357944
H344	H	1.033456	0.722942	0.142056
H345	H	0.278504	1.073107	0.368196
H346	H	0.778504	1.573107	0.868196
Br347	Br	0.459789	0.864396	0.278728
Br348	Br	0.959789	1.364396	0.778728
H349	H	0.891365	0.222888	-0.357953
H350	H	1.391365	0.722888	0.142047
H351	H	0.175541	1.131888	0.357785
H352	H	0.675541	1.631888	0.857785
H353	H	0.476769	0.073096	-0.056770
H354	H	0.976769	0.573096	0.443230
H355	H	0.788351	0.281638	0.056595
H356	H	1.288351	0.781638	0.556595
Br357	Br	0.459820	0.264066	-0.073729
Br358	Br	0.959820	0.764066	0.426271
Br359	Br	0.607104	0.937906	0.131421
Br360	Br	1.107104	1.437906	0.631421
H361	H	-0.098245	0.533362	-0.056794
H362	H	0.401755	1.033362	0.443206
Br363	Br	0.401895	0.937948	0.278760
Br364	Br	0.901895	1.437948	0.778760
Br365	Br	0.459815	0.416807	-0.073720
Br366	Br	0.959815	0.916807	0.426280
H367	H	0.371108	0.533419	-0.056742
H368	H	0.871108	1.033419	0.443258
Br369	Br	-0.187692	0.490280	-0.073754
Br370	Br	0.312308	0.990280	0.426246
Br371	Br	0.638348	0.410950	0.455169
Br372	Br	1.138348	0.910950	0.955169
H373	H	0.901743	0.281667	-0.254985
H374	H	1.401743	0.781667	0.245015
H375	H	0.788403	0.281658	-0.368365
H376	H	1.288403	0.781658	0.131635
H377	H	0.590142	0.533362	0.162260
H378	H	1.090142	1.033362	0.662260
H379	H	0.590132	0.073075	0.056589
H380	H	1.090132	0.573075	0.556589
H381	H	0.075138	0.454025	-0.088025
H382	H	0.575138	0.954025	0.411975
Br383	Br	0.281687	0.490315	-0.073726
Br384	Br	0.781687	0.990315	0.426274
H385	H	0.695821	0.399201	-0.275812
H386	H	1.195821	0.899201	0.224188
Br387	Br	0.401913	0.937974	-0.073713
Br388	Br	0.901913	1.437974	0.426287
H389	H	0.533485	1.131796	0.357740
H390	H	1.033485	1.631796	0.857740
Br391	Br	0.254615	0.937959	0.131465
Br392	Br	0.754615	1.437959	0.631465
Br393	Br	0.134353	1.090686	0.251701
Br394	Br	0.634353	1.590686	0.751701
Br395	Br	0.459800	0.416794	-0.131613
Br396	Br	0.959800	0.916794	0.368387
H397	H	0.476752	0.821368	0.837569
H398	H	0.976752	1.321368	1.337569
Br399	Br	0.254584	0.938002	0.073588
Br400	Br	0.754584	1.438002	0.573588
H401	H	0.891334	0.222834	-0.000086
H402	H	1.391334	0.722834	0.499914
Br403	Br	0.198492	0.410950	-0.104976
Br404	Br	0.698492	0.910950	0.395024
H405	H	-0.304194	0.821314	0.056581
H406	H	0.195806	1.321314	0.556581
H407	H	0.165152	0.821365	0.056621
H408	H	0.665152	1.321365	0.556621
H409	H	0.590160	1.073007	0.254763
H410	H	1.090160	1.573007	0.754763
H411	H	0.809178	0.399194	-0.162442
H412	H	1.309178	0.899194	0.337558
Br413	Br	0.281673	1.090708	-0.073707
Br414	Br	0.781673	1.590708	0.426293
Br415	Br	0.932573	0.263996	-0.073742
Br416	Br	1.432573	0.763996	0.426258
Br417	Br	0.607083	0.490338	0.721111
Br418	Br	1.107083	0.990338	1.221111
H419	H	0.175571	1.131936	-0.000055
H420	H	0.675571	1.631936	0.499945
H421	H	0.590139	0.281731	-0.368328
H422	H	1.090139	0.781731	0.131672
H423	H	-0.211650	0.821326	0.056577
H424	H	0.288350	1.321326	0.556577
Br425	Br	0.459804	0.864411	0.398976
Br426	Br	0.959804	1.364411	0.898976
H427	H	0.621391	0.454025	0.365733
H428	H	1.121391	0.954025	0.865733
Br429	Br	0.812321	0.416732	-0.073758
Br430	Br	1.312321	0.916732	0.426242
H431	H	-0.008210	0.900700	0.087813
H432	H	0.491790	1.400700	0.587813
H433	H	0.590140	0.281627	0.056590
H434	H	1.090140	0.781627	0.556590
Br435	Br	0.428579	0.943784	0.664919
Br436	Br	0.928579	1.443784	1.164919
Br437	Br	0.459824	1.090649	0.398985
Br438	Br	0.959824	1.590649	0.898985
Br439	Br	0.459798	0.937946	0.278753
Br440	Br	0.959798	1.437946	0.778753
H441	H	0.590131	-0.044481	0.056587
H442	H	1.090131	0.455519	0.556587
Br443	Br	0.607103	0.416826	-0.278892
Br444	Br	1.107103	0.916826	0.221108
H445	H	0.257716	0.821368	0.056624
H446	H	0.757716	1.321368	0.556624
H447	H	0.590139	0.533401	0.631664
H448	H	1.090139	1.033401	1.131664
Br449	Br	0.607106	0.490280	0.251712
Br450	Br	1.107106	0.990280	0.751712
H451	H	0.445534	0.900696	0.541562
H452	H	0.945534	1.400696	1.041562
