data_functionalizedCrystal
_audit_creation_method	'MofGen! by Chris Wilmer'
_symmetry_space_group_name_H-M	'P1'
_symmetry_Int_Tables_number	1
_symmetry_cell_setting	triclinic
loop_
_symmetry_equiv_pos_as_xyz
  x,y,z
_cell_length_a	12.784905
_cell_length_b	27.731996
_cell_length_c	11.295483
_cell_angle_alpha	94.054077
_cell_angle_beta	86.327249
_cell_angle_gamma	77.864353
loop_
_atom_site_label
_atom_site_type_symbol
_atom_site_fract_x
_atom_site_fract_y
_atom_site_fract_z
O1	O	1.417484	-0.000528	-0.099032
O2	O	1.107680	0.020187	-0.099038
O3	O	1.272231	-0.060941	-0.099009
O4	O	1.252933	0.080600	-0.099061
O5	O	1.257778	-0.053826	0.099039
O6	O	1.093228	0.027303	0.099010
O7	O	1.403031	0.006587	0.099016
Cu8	Cu	1.246810	0.017595	0.117097
Cu9	Cu	1.263902	0.009180	-0.117118
O10	O	1.238481	0.087715	0.098987
C11	C	1.060832	0.025092	-0.000014
C12	C	0.942771	0.029101	-0.000015
C13	C	0.747761	-0.052571	-0.000007
C14	C	0.636833	-0.048807	-0.000008
C15	C	0.609985	0.040392	-0.000027
C16	C	0.720913	0.036628	-0.000026
C17	C	0.789798	-0.009855	-0.000014
C18	C	0.900727	-0.013619	-0.000004
C19	C	0.873878	0.075580	-0.000032
C20	C	0.762950	0.079344	-0.000034
C21	C	1.264608	-0.075375	0.000019
C22	C	1.263413	-0.128985	0.000031
C23	C	1.263781	-0.465292	-0.107983
C24	C	1.259248	-0.666776	-0.108004
O25	O	1.265316	-0.696120	-0.199817
N26	N	1.250806	-0.688092	-0.000049
C27	C	1.243491	-0.659034	0.107919
O28	O	1.236196	-0.681787	0.199741
C29	C	1.248017	-0.457550	0.107939
C30	C	1.256470	-0.436238	-0.000023
C31	C	1.272232	-0.443979	-0.215936
C32	C	1.273371	-0.393611	-0.215930
C33	C	1.266059	-0.364557	-0.107970
C34	C	1.257609	-0.385870	-0.000017
C35	C	1.240694	-0.428492	0.215906
C36	C	1.241823	-0.378118	0.215901
C37	C	1.250276	-0.356805	0.107939
C38	C	1.251436	-0.306449	0.107949
N39	N	1.259877	-0.285132	-0.000006
C40	C	1.267189	-0.314186	-0.107966
C41	C	1.241118	-0.764816	0.107901
C42	C	1.239988	-0.815187	0.107896
C43	C	1.255743	-0.822925	-0.108027
C44	C	1.256880	-0.772554	-0.108021
C45	C	1.249559	-0.743499	-0.000054
C46	C	1.269581	-0.208411	-0.107944
C47	C	1.270724	-0.158039	-0.107928
C48	C	1.254964	-0.150305	0.107994
C49	C	1.253827	-0.200673	0.107979
C50	C	1.261133	-0.229725	0.000000
O51	O	1.245360	-0.277073	0.199714
O52	O	1.274459	-0.291421	-0.199774
C53	C	1.262642	-0.515659	-0.107989
C54	C	1.254191	-0.536972	-0.000036
C55	C	1.246880	-0.507918	0.107924
C56	C	1.253062	-0.587343	-0.000041
C57	C	1.260374	-0.616397	-0.108000
C58	C	1.268815	-0.595081	-0.215955
C59	C	1.269954	-0.544713	-0.215949
C60	C	1.238438	-0.529235	0.215879
C61	C	1.237301	-0.579603	0.215864
C62	C	1.244613	-0.608657	0.107904
C63	C	1.449880	0.001682	-0.000010
C64	C	1.567941	-0.002327	-0.000016
C65	C	1.246104	0.102149	-0.000043
C66	C	1.247300	0.155759	-0.000063
N67	N	1.234796	0.023513	0.281831
N68	N	1.275924	0.003257	-0.281852
C69	C	1.362406	-0.039371	0.531143
C70	C	1.353335	-0.034896	0.655805
C71	C	1.207577	0.036937	0.655819
C72	C	1.216649	0.032461	0.531157
C73	C	1.294067	-0.005694	0.468823
C74	C	1.303143	-0.010167	0.344159
C75	C	1.157381	0.061663	0.344176
C76	C	1.148309	0.066139	0.468838
H77	H	0.803848	-0.090420	0.000011
Br78	Br	1.446080	-0.080605	0.740379
Br79	Br	0.579787	-0.106782	-0.000007
Br80	Br	1.102501	0.088709	0.740427
H81	H	0.706850	0.117190	-0.000048
Br82	Br	0.516485	0.103470	-0.000078
Br83	Br	1.408213	-0.061945	0.259564
H84	H	0.908114	0.110363	-0.000032
Br85	Br	1.281427	-0.515797	-0.362477
Br86	Br	1.282203	-0.129119	-0.254458
H87	H	1.085274	0.097203	0.519604
Br88	Br	1.279496	-0.247830	-0.254488
H89	H	1.280250	-0.376263	-0.303844
H90	H	1.101737	0.089087	0.293421
H91	H	0.956812	-0.051468	0.000008
Br92	Br	1.242380	-0.229601	0.254500
H93	H	1.278183	-0.467629	-0.303855
Br94	Br	1.228502	-0.489810	0.362411
Br95	Br	1.231171	-0.725391	0.254443
Br96	Br	1.268351	-0.743635	-0.254546
H97	H	1.261697	-0.846590	-0.195932
Br98	Br	1.228542	-0.844108	0.254422
Br99	Br	1.467485	-0.091145	0.446544
H100	H	1.233813	-0.445836	0.303820
Br101	Br	1.231885	-0.338689	0.362437
H102	H	1.249016	-0.126641	0.195893
H103	H	1.274773	-0.618746	-0.303860
H104	H	1.230426	-0.596951	0.303786
