data_functionalizedCrystal
_audit_creation_method	'MofGen! by Chris Wilmer'
_symmetry_space_group_name_H-M	'P1'
_symmetry_Int_Tables_number	1
_symmetry_cell_setting	triclinic
loop_
_symmetry_equiv_pos_as_xyz
  x,y,z
_cell_length_a	15.944551
_cell_length_b	14.519709
_cell_length_c	12.996460
_cell_angle_alpha	90.007090
_cell_angle_beta	90.001093
_cell_angle_gamma	83.589442
loop_
_atom_site_label
_atom_site_type_symbol
_atom_site_fract_x
_atom_site_fract_y
_atom_site_fract_z
O1	O	-1.114698	-0.118943	-0.085462
O2	O	-0.864698	0.131057	0.164538
O3	O	-0.614698	0.381057	0.414538
O4	O	-0.364698	0.631057	0.664538
O5	O	-0.870170	-0.133608	-0.085488
O6	O	-0.620170	0.116392	0.164512
O7	O	-0.370170	0.366392	0.414512
O8	O	-0.120170	0.616392	0.664512
O9	O	-0.998917	0.007974	-0.085465
O10	O	-0.748917	0.257974	0.164535
O11	O	-0.498917	0.507974	0.414535
O12	O	-0.248917	0.757974	0.664535
O13	O	-0.985950	-0.260525	-0.085485
O14	O	-0.735950	-0.010525	0.164515
O15	O	-0.485950	0.239475	0.414515
O16	O	-0.235950	0.489475	0.664515
O17	O	-0.998904	0.007982	0.085669
O18	O	-0.748904	0.257982	0.335669
O19	O	-0.498904	0.507982	0.585669
O20	O	-0.248904	0.757982	0.835669
O21	O	-0.870156	-0.133600	0.085646
O22	O	-0.620156	0.116400	0.335646
O23	O	-0.370156	0.366400	0.585646
O24	O	-0.120156	0.616400	0.835646
O25	O	-1.114684	-0.118935	0.085672
O26	O	-0.864684	0.131065	0.335672
O27	O	-0.614684	0.381065	0.585672
O28	O	-0.364684	0.631065	0.835672
Cu29	Cu	-0.992419	-0.126267	0.101285
Cu30	Cu	-0.742419	0.123733	0.351285
Cu31	Cu	-0.492419	0.373733	0.601285
Cu32	Cu	-0.242419	0.623733	0.851285
Cu33	Cu	-0.992435	-0.126276	-0.101101
Cu34	Cu	-0.742435	0.123724	0.148899
Cu35	Cu	-0.492435	0.373724	0.398899
Cu36	Cu	-0.242435	0.623724	0.648899
O37	O	-0.985937	-0.260517	0.085649
O38	O	-0.735937	-0.010517	0.335649
O39	O	-0.485937	0.239483	0.585649
O40	O	-0.235937	0.489483	0.835649
C41	C	-0.998306	0.042337	0.000102
C42	C	-0.748306	0.292337	0.250102
C43	C	-0.498306	0.542337	0.500102
C44	C	-0.248306	0.792337	0.750102
C45	C	-0.996495	0.144715	0.000103
C46	C	-0.746495	0.394715	0.250103
C47	C	-0.496495	0.644715	0.500103
C48	C	-0.246495	0.894715	0.750103
C49	C	-0.838868	-0.132995	0.000076
C50	C	-0.588868	0.117005	0.250076
C51	C	-0.338868	0.367005	0.500076
C52	C	-0.088868	0.617005	0.750076
C53	C	-0.745619	-0.131170	0.000066
C54	C	-0.495619	0.118830	0.250066
C55	C	-0.245619	0.368830	0.500066
C56	C	0.004381	0.618830	0.750066
C57	C	-1.145986	-0.119548	0.000106
C58	C	-0.895986	0.130452	0.250106
C59	C	-0.645986	0.380452	0.500106
C60	C	-0.395986	0.630452	0.750106
C61	C	-1.239235	-0.121373	0.000109
C62	C	-0.989235	0.128627	0.250109
C63	C	-0.739235	0.378627	0.500109
C64	C	-0.489235	0.628627	0.750109
C65	C	-0.530629	-0.039048	0.000093
C66	C	-0.280629	0.210952	0.250093
C67	C	-0.030629	0.460952	0.500093
C68	C	0.219371	0.710952	0.750093
C69	C	-0.469678	-0.081830	-0.084288
C70	C	-0.219678	0.168170	0.165712
C71	C	0.030322	0.418170	0.415712
C72	C	0.280322	0.668170	0.665712
C73	C	-0.574889	-0.127868	0.000079
C74	C	-0.324889	0.122132	0.250079
C75	C	-0.074889	0.372132	0.500079
C76	C	0.175111	0.622132	0.750079
C77	C	-0.469687	-0.081844	0.084437
C78	C	-0.219687	0.168156	0.334437
C79	C	0.030313	0.418156	0.584437
C80	C	0.280313	0.668156	0.834437
C81	C	-0.409971	-0.124672	0.000095
C82	C	-0.159971	0.125328	0.250095
C83	C	0.090029	0.375328	0.500095
C84	C	0.340029	0.625328	0.750095
C85	C	-0.515165	-0.170674	-0.084372
C86	C	-0.265165	0.079326	0.165628
C87	C	-0.015165	0.329326	0.415628
C88	C	0.234835	0.579326	0.665628
C89	C	-0.515181	-0.170675	0.084428
C90	C	-0.265181	0.079325	0.334428
C91	C	-0.015181	0.329325	0.584428
C92	C	0.234819	0.579325	0.834428
C93	C	-0.454247	-0.213522	0.000027
C94	C	-0.204247	0.036478	0.250027
C95	C	0.045753	0.286478	0.500027
C96	C	0.295753	0.536478	0.750027
C97	C	-0.669894	-0.129706	0.000069
C98	C	-0.419894	0.120294	0.250069
C99	C	-0.169894	0.370294	0.500069
C100	C	0.080106	0.620294	0.750069
C101	C	-0.314967	-0.122840	0.000098
C102	C	-0.064967	0.127160	0.250098
C103	C	0.185033	0.377160	0.500098
C104	C	0.435033	0.627160	0.750098
C105	C	-0.986548	-0.294880	0.000080
C106	C	-0.736548	-0.044880	0.250080
C107	C	-0.486548	0.205120	0.500080
C108	C	-0.236548	0.455120	0.750080
C109	C	-0.988359	-0.397258	0.000073
C110	C	-0.738359	-0.147258	0.250073
C111	C	-0.488359	0.102742	0.500073
C112	C	-0.238359	0.352742	0.750073
N113	N	-0.992414	-0.126260	0.243632
N114	N	-0.742414	0.123740	0.493632
N115	N	-0.492414	0.373740	0.743632
N116	N	-0.242414	0.623740	0.993632
C117	C	-0.989829	0.519599	0.000075
C118	C	-0.739829	0.769599	0.250075
C119	C	-0.489829	1.019599	0.500075
C120	C	-0.239829	1.269599	0.750075
C121	C	-0.991680	0.415295	0.000083
C122	C	-0.741680	0.665295	0.250083
C123	C	-0.491680	0.915295	0.500083
C124	C	-0.241680	1.165295	0.750083
C125	C	-0.993162	0.332161	0.000090
C126	C	-0.743162	0.582161	0.250090
C127	C	-0.493162	0.832161	0.500090
C128	C	-0.243162	1.082161	0.750090
C129	C	-0.995013	0.227849	0.000096
C130	C	-0.745013	0.477849	0.250096
C131	C	-0.495013	0.727849	0.500096
C132	C	-0.245013	0.977849	0.750096
N133	N	-0.992447	-0.126276	-0.243448
N134	N	-0.742447	0.123724	0.006552
N135	N	-0.492447	0.373724	0.256552
N136	N	-0.242447	0.623724	0.506552
C137	C	-0.992434	-0.126277	0.663446
C138	C	-0.742434	0.123723	0.913446
C139	C	-0.492434	0.373723	1.163446
C140	C	-0.242434	0.623723	1.413446
C141	C	-0.992426	-0.126275	0.546641
C142	C	-0.742426	0.123725	0.796641
C143	C	-0.492426	0.373725	1.046641
C144	C	-0.242426	0.623725	1.296641
C145	C	-0.992424	-0.126269	0.453543
C146	C	-0.742424	0.123731	0.703543
C147	C	-0.492424	0.373731	0.953543
C148	C	-0.242424	0.623731	1.203543
C149	C	-0.992415	-0.126266	0.336730
C150	C	-0.742415	0.123734	0.586730
C151	C	-0.492415	0.373734	0.836730
C152	C	-0.242415	0.623734	1.086730
H153	H	-0.449518	-0.044266	-0.155621
H154	H	-0.199518	0.205734	0.094379
H155	H	0.050482	0.455734	0.344379
H156	H	0.300482	0.705734	0.594379
H157	H	-0.535213	-0.208217	-0.155788
H158	H	-0.285213	0.041783	0.094212
H159	H	-0.035213	0.291783	0.344212
H160	H	0.214787	0.541783	0.594212
H161	H	-0.421196	-0.287311	-0.000026
H162	H	-0.171196	-0.037311	0.249974
H163	H	0.078804	0.212689	0.499974
H164	H	0.328804	0.462689	0.749974
H165	H	-0.535361	-0.208208	0.155765
H166	H	-0.285361	0.041792	0.405765
H167	H	-0.035361	0.291792	0.655765
H168	H	0.214639	0.541792	0.905765
H169	H	-0.563855	0.034665	-0.000006
H170	H	-0.313855	0.284665	0.249994
H171	H	-0.063855	0.534665	0.499994
H172	H	0.186145	0.784665	0.749994
H173	H	-0.449540	-0.044257	0.155772
H174	H	-0.199540	0.205743	0.405772
H175	H	0.050460	0.455743	0.655772
H176	H	0.300460	0.705743	0.905772
