data_functionalizedCrystal
_audit_creation_method	'MofGen! by Chris Wilmer'
_symmetry_space_group_name_H-M	'P1'
_symmetry_Int_Tables_number	1
_symmetry_cell_setting	triclinic
loop_
_symmetry_equiv_pos_as_xyz
  x,y,z
_cell_length_a	10.723023
_cell_length_b	10.723023
_cell_length_c	9.198806
_cell_angle_alpha	89.996191
_cell_angle_beta	90.001269
_cell_angle_gamma	95.532452
loop_
_atom_site_label
_atom_site_type_symbol
_atom_site_fract_x
_atom_site_fract_y
_atom_site_fract_z
O1	O	-0.175020	1.657188	-0.120882
O2	O	0.324980	2.157188	0.379118
O3	O	-0.191774	1.294035	-0.120885
O4	O	0.308226	1.794035	0.379115
O5	O	-0.001821	1.483989	-0.120881
O6	O	0.498179	1.983989	0.379119
O7	O	-0.364973	1.467234	-0.120886
O8	O	0.135027	1.967234	0.379114
O9	O	-0.001820	1.483974	0.120904
O10	O	0.498180	1.983974	0.620904
O11	O	-0.191774	1.294020	0.120900
O12	O	0.308226	1.794020	0.620900
O13	O	-0.175019	1.657173	0.120903
O14	O	0.324981	2.157173	0.620903
Cu15	Cu	-0.183396	1.475595	0.142979
Cu16	Cu	0.316604	1.975595	0.642979
Cu17	Cu	-0.183397	1.475613	-0.142960
Cu18	Cu	0.316603	1.975613	0.357040
O19	O	-0.364973	1.467219	0.120899
O20	O	0.135027	1.967219	0.620899
C21	C	-0.190555	1.247528	0.000007
C22	C	0.309445	1.747528	0.500007
C23	C	-0.186908	1.108974	0.000006
C24	C	0.313092	1.608974	0.500006
C25	C	-0.185282	1.047210	-0.125247
C26	C	0.314718	1.547210	0.374753
C27	C	-0.181512	0.904007	-0.125251
C28	C	0.318488	1.404007	0.374749
C29	C	-0.411473	1.468446	0.000006
C30	C	0.088527	1.968446	0.500006
C31	C	-0.550027	1.472093	0.000003
C32	C	-0.050027	1.972093	0.500003
C33	C	-0.611799	1.473711	0.125254
C34	C	-0.111799	1.973711	0.625254
C35	C	-0.755002	1.477481	0.125255
C36	C	-0.255002	1.977481	0.625255
C37	C	0.044679	1.482762	0.000009
C38	C	0.544679	1.982762	0.500009
C39	C	0.183233	1.479115	0.000002
C40	C	0.683233	1.979115	0.500002
C41	C	-0.176239	1.703680	0.000008
C42	C	0.323761	2.203680	0.500008
C43	C	-0.179886	1.842234	-0.000000
C44	C	0.320114	2.342234	0.500000
N45	N	-0.183395	1.475592	0.344093
N46	N	0.316605	1.975592	0.844093
N47	N	-0.183388	1.475626	-0.344074
N48	N	0.316612	1.975626	0.155926
C49	C	-0.103288	1.555347	0.416291
C50	C	0.396712	2.055347	0.916291
C51	C	-0.103283	1.555367	0.583704
C52	C	0.396717	2.055367	1.083704
H53	H	-0.181278	0.895342	0.107239
H54	H	0.318722	1.395342	0.607239
Br55	Br	-0.187619	1.135765	-0.303982
Br56	Br	0.312381	1.635765	0.196018
Br57	Br	-0.184591	1.020417	0.178741
Br58	Br	0.315409	1.520417	0.678741
H59	H	-0.251980	1.407345	0.593847
H60	H	0.248020	1.907345	1.093847
H61	H	-0.763652	1.477729	-0.107235
H62	H	-0.263652	1.977729	0.392765
H63	H	-0.180111	0.850892	-0.232484
H64	H	0.319889	1.350892	0.267516
Br65	Br	-0.523257	1.471347	0.303992
Br66	Br	-0.023257	1.971347	0.803992
H67	H	-0.808123	1.478879	0.232486
H68	H	-0.308123	1.978879	0.732486
H69	H	-0.603160	1.473488	-0.107228
H70	H	-0.103160	1.973488	0.392772
Br71	Br	0.011024	1.669192	0.687179
Br72	Br	0.511024	2.169192	1.187179
Br73	Br	0.011340	1.668820	0.312757
Br74	Br	0.511340	2.168820	0.812757
H75	H	-0.251971	1.407319	0.406219
H76	H	0.248029	1.907319	0.906219
