data_functionalizedCrystal
_audit_creation_method	'MofGen! by Chris Wilmer'
_symmetry_space_group_name_H-M	'P1'
_symmetry_Int_Tables_number	1
_symmetry_cell_setting	triclinic
loop_
_symmetry_equiv_pos_as_xyz
  x,y,z
_cell_length_a	6.817900
_cell_length_b	17.982959
_cell_length_c	16.255661
_cell_angle_alpha	95.649314
_cell_angle_beta	103.488922
_cell_angle_gamma	102.451857
loop_
_atom_site_label
_atom_site_type_symbol
_atom_site_fract_x
_atom_site_fract_y
_atom_site_fract_z
V1	V	-4.021547	-0.106029	-0.264227
O2	O	-4.014408	0.004462	-0.258833
O3	O	-3.968052	-0.209628	-0.262769
O4	O	-3.973175	-0.104676	-0.379305
O5	O	-4.009250	-0.101217	-0.141490
V6	V	-4.505831	-0.092780	-0.249504
O7	O	-4.281135	-0.135091	-0.296522
O8	O	-4.696441	-0.063718	-0.217208
O9	O	-4.336120	0.010819	-0.250961
O10	O	-4.630368	-0.203271	-0.254897
O11	O	-4.635526	-0.097592	-0.372240
O12	O	-4.330997	-0.094133	-0.134425
C13	C	-3.811813	-0.234875	-0.258691
C14	C	-3.849361	-0.319570	-0.258267
C15	C	-4.048920	-0.363251	-0.262302
C16	C	-4.084191	-0.442832	-0.261908
C17	C	-3.919899	-0.478730	-0.257473
C18	C	-3.720325	-0.435044	-0.253440
C19	C	-3.685060	-0.355465	-0.253840
C20	C	-3.862545	-0.755976	-0.251828
C21	C	-3.897826	-0.835560	-0.251426
C22	C	-4.261677	-0.843343	-0.259896
C23	C	-4.226411	-0.763764	-0.260296
C24	C	-4.026844	-0.720086	-0.256267
C25	C	-3.988602	-0.633795	-0.256696
C26	C	-3.958136	-0.565018	-0.257038
C27	C	-3.818346	-0.100997	-0.407343
C28	C	-3.860046	-0.100576	-0.501423
C29	C	-3.770848	-0.095550	-0.724225
C30	C	-3.924104	-0.160420	-0.793919
C31	C	-3.936469	-0.099787	-0.673669
C32	C	-3.857540	-0.034174	-0.771610
C33	C	-4.010275	-0.099021	-0.840050
C34	C	-4.089204	-0.164715	-0.742133
C35	C	-4.022581	-0.038412	-0.719809
C36	C	-4.175973	-0.103301	-0.789483
C37	C	-3.893947	-0.100229	-0.577821
C38	C	-4.052814	-0.098585	-0.935897
C39	C	-4.155701	0.036062	-0.255037
C40	C	-4.097391	0.120757	-0.255467
C41	C	-4.149168	-0.097815	-0.106382
C42	C	-4.086706	-0.098232	-0.012302
H43	H	-4.424178	-0.878916	-0.263177
H44	H	-4.182706	-0.334028	-0.265905
H45	H	-4.186730	-0.219944	-0.728851
C46	C	-3.868471	-0.230098	-0.837509
H47	H	-3.724877	-0.227280	-0.815045
H48	H	-3.949402	-0.276411	-0.826897
H49	H	-3.896772	-0.229576	-0.897479
H50	H	-3.586561	-0.464279	-0.249834
H51	H	-3.700049	-0.720422	-0.248543
C52	C	-4.078104	0.031273	-0.676190
H53	H	-3.995261	0.077598	-0.685906
H54	H	-4.221076	0.029005	-0.699385
H55	H	-4.052172	0.030218	-0.616356
H56	H	-3.759992	0.020981	-0.785035
C57	C	-4.407929	-0.107744	-0.827798
H58	H	-4.421046	-0.063188	-0.853413
H59	H	-4.467729	-0.152481	-0.869931
H60	H	-4.478108	-0.110290	-0.783678
C61	C	-3.465549	-0.307413	-0.249401
H62	H	-3.468079	-0.254879	-0.250283
H63	H	-3.371179	-0.311777	-0.197991
H64	H	-3.421981	-0.325934	-0.297208
C65	C	-4.303700	-0.490876	-0.266338
H66	H	-4.396488	-0.458098	-0.269024
H67	H	-4.350428	-0.529159	-0.315963
H68	H	-4.299612	-0.515003	-0.216746
H69	H	-3.599249	-0.092357	-0.695734
C70	C	-3.717100	-0.875048	-0.246556
H71	H	-3.593197	-0.837639	-0.244223
H72	H	-3.697894	-0.898853	-0.196619
H73	H	-3.748711	-0.913007	-0.295836
C74	C	-4.407135	-0.724280	-0.265177
H75	H	-4.531044	-0.761695	-0.267533
H76	H	-4.375558	-0.686320	-0.215907
H77	H	-4.426324	-0.700479	-0.315123
