data_functionalizedCrystal
_audit_creation_method	'MofGen! by Chris Wilmer'
_symmetry_space_group_name_H-M	'P1'
_symmetry_Int_Tables_number	1
_symmetry_cell_setting	triclinic
loop_
_symmetry_equiv_pos_as_xyz
  x,y,z
_cell_length_a	8.559649
_cell_length_b	22.610064
_cell_length_c	8.597304
_cell_angle_alpha	97.704140
_cell_angle_beta	77.624695
_cell_angle_gamma	90.014791
loop_
_atom_site_label
_atom_site_type_symbol
_atom_site_fract_x
_atom_site_fract_y
_atom_site_fract_z
O1	O	2.119321	0.046467	-0.053149
O2	O	1.655384	0.050592	0.027751
O3	O	1.896476	0.036830	-0.242265
O4	O	1.878229	0.060229	0.216867
O5	O	1.896404	-0.061539	-0.242257
O6	O	1.655312	-0.047777	0.027759
O7	O	2.119250	-0.051902	-0.053141
Zn8	Zn	1.887269	-0.065458	-0.012689
Zn9	Zn	1.887364	0.064147	-0.012700
O10	O	1.878158	-0.038140	0.216875
C11	C	1.595914	0.001720	0.033886
C12	C	1.418820	0.002651	0.052135
N13	N	1.887216	-0.153910	-0.012684
C14	C	1.985576	-0.558303	0.070689
C15	C	1.985595	-0.620223	0.070683
O16	O	2.069160	-0.648630	0.141566
N17	N	1.887394	-0.655449	-0.012722
C18	C	1.789179	-0.628752	-0.096139
O19	O	1.705654	-0.664401	-0.167083
C20	C	1.789168	-0.566834	-0.096141
C21	C	1.887364	-0.531610	-0.012718
C22	C	2.083764	-0.523079	0.154104
C23	C	2.083742	-0.461163	0.154112
C24	C	1.985530	-0.434471	0.070706
C25	C	1.887341	-0.469694	-0.012709
C26	C	1.690962	-0.540139	-0.179566
C27	C	1.690961	-0.478216	-0.179562
C28	C	1.789157	-0.442992	-0.096139
C29	C	1.789107	-0.381085	-0.096108
N30	N	1.887309	-0.345859	-0.012703
C31	C	1.985520	-0.372552	0.070703
C32	C	1.789210	-0.758786	-0.096130
C33	C	1.789211	-0.820703	-0.096119
C34	C	1.985630	-0.812169	0.070700
C35	C	1.985620	-0.750250	0.070698
C36	C	1.887411	-0.723560	-0.012726
C37	C	1.985464	-0.242524	0.070716
C38	C	1.985428	-0.180603	0.070722
C39	C	1.789016	-0.189142	-0.096103
C40	C	1.789045	-0.251058	-0.096103
C41	C	1.887282	-0.277747	-0.012691
O42	O	1.705590	-0.352638	-0.166961
O43	O	2.069046	-0.336898	0.141618
C44	C	2.178719	-0.003029	-0.059276
C45	C	2.355814	-0.003956	-0.077525
C46	C	1.894477	-0.015321	-0.300496
C47	C	1.888609	-0.024161	-0.474015
N48	N	1.887429	0.152599	-0.012719
C49	C	1.880157	0.014012	0.275106
C50	C	1.886025	0.022856	0.448625
H51	H	1.337270	0.009024	0.177112
H52	H	1.886313	-0.071183	-0.540535
O53	O	1.463820	-0.012398	-0.243065
H54	H	1.440064	0.024318	-0.309358
H55	H	1.610987	-0.456488	-0.247499
H56	H	2.065390	-0.151925	0.138663
O57	O	1.889038	0.085139	-0.463271
H58	H	1.886206	0.118188	-0.547222
H59	H	2.065459	-0.264247	0.138637
H60	H	2.163710	-0.432490	0.222036
O61	O	1.683196	-0.160353	-0.186182
H62	H	1.699740	-0.111383	-0.172211
H63	H	2.163748	-0.544806	0.222023
H64	H	2.065598	-0.833913	0.138616
O65	O	2.091538	-0.712260	0.160663
H66	H	2.159831	-0.741231	0.218651
H67	H	1.709231	-0.849376	-0.164030
H68	H	1.709222	-0.737058	-0.164056
O69	O	1.585099	-0.578111	-0.269629
H70	H	1.458154	-0.563726	-0.220318
O71	O	1.683134	-0.289055	-0.186073
H72	H	1.614844	-0.260088	-0.244074
