data_functionalizedCrystal
_audit_creation_method	'MofGen! by Chris Wilmer'
_symmetry_space_group_name_H-M	'P1'
_symmetry_Int_Tables_number	1
_symmetry_cell_setting	triclinic
loop_
_symmetry_equiv_pos_as_xyz
  x,y,z
_cell_length_a	18.050590
_cell_length_b	13.897449
_cell_length_c	18.050565
_cell_angle_alpha	90.068051
_cell_angle_beta	89.896661
_cell_angle_gamma	89.981520
loop_
_atom_site_label
_atom_site_type_symbol
_atom_site_fract_x
_atom_site_fract_y
_atom_site_fract_z
Zn1	Zn	-0.295121	-1.475097	-0.419993
Zn2	Zn	0.204879	-0.975097	0.080007
Zn3	Zn	-0.419478	-1.474870	-0.295800
Zn4	Zn	0.080522	-0.974870	0.204200
Zn5	Zn	-0.295306	-1.313668	-0.295807
Zn6	Zn	0.204694	-0.813668	0.204193
Zn7	Zn	-0.419274	-1.313765	-0.419940
Zn8	Zn	0.080726	-0.813765	0.080060
O9	O	-0.357295	-1.394350	-0.357885
O10	O	0.142705	-0.894350	0.142115
O11	O	-0.311626	-1.610048	-0.403537
O12	O	0.188374	-1.110048	0.096463
O13	O	-0.403169	-1.453351	-0.191876
O14	O	0.096831	-0.953351	0.308124
O15	O	-0.191357	-1.335136	-0.312305
O16	O	0.308643	-0.835136	0.187695
O17	O	-0.402990	-1.609882	-0.312294
O18	O	0.097010	-1.109882	0.187706
O19	O	-0.191221	-1.453737	-0.403544
O20	O	0.308779	-0.953737	0.096456
O21	O	-0.311941	-1.334916	-0.191881
O22	O	0.188059	-0.834916	0.308119
O23	O	-0.311743	-1.178699	-0.312255
O24	O	0.188257	-0.678699	0.187745
O25	O	-0.402642	-1.335302	-0.523872
O26	O	0.097358	-0.835302	-0.023872
O27	O	-0.402821	-1.178771	-0.403455
O28	O	0.097179	-0.678771	0.096545
O29	O	-0.311428	-1.453831	-0.523911
O30	O	0.188572	-0.953831	-0.023911
O31	O	-0.523376	-1.453445	-0.312243
O32	O	-0.023376	-0.953445	0.187757
O33	O	-0.523226	-1.335082	-0.403448
O34	O	-0.023226	-0.835082	0.096552
C35	C	-0.357281	-1.143736	-0.357850
C36	C	0.142719	-0.643736	0.142150
C37	C	-0.357292	-1.036522	-0.357853
C38	C	0.142708	-0.536522	0.142147
C39	C	-0.357294	-0.949452	-0.357862
C40	C	0.142706	-0.449452	0.142138
C41	C	-0.357298	-0.840219	-0.357881
C42	C	0.142702	-0.340219	0.142119
C43	C	-0.550247	-1.394276	-0.357856
C44	C	-0.050247	-0.894276	0.142144
C45	C	-0.632793	-1.394332	-0.357868
C46	C	-0.132793	-0.894332	0.142132
C47	C	-0.832298	-1.458832	-0.308340
C48	C	-0.332298	-0.958832	0.191660
C49	C	-0.881542	-1.482463	-0.376121
C50	C	-0.381542	-0.982463	0.123879
C51	C	-0.783923	-1.394387	-0.357897
C52	C	-0.283923	-0.894387	0.142103
C53	C	-0.881761	-1.370855	-0.290146
C54	C	-0.381761	-0.870855	0.209854
C55	C	-0.929908	-1.394442	-0.357920
C56	C	-0.429908	-0.894442	0.142080
C57	C	-0.832080	-1.418063	-0.425715
C58	C	-0.332080	-0.918063	0.074285
C59	C	-0.832295	-1.306414	-0.339694
C60	C	-0.332295	-0.806414	0.160306
C61	C	-0.881516	-1.330011	-0.407522
C62	C	-0.381516	-0.830011	0.092478
C63	C	-0.699825	-1.394358	-0.357883
C64	C	-0.199825	-0.894358	0.142117
C65	C	-1.014005	-1.394471	-0.357942
C66	C	-0.514005	-0.894471	0.142058
C67	C	-0.163589	-1.394451	-0.357931
C68	C	0.336411	-0.894451	0.142069
C69	C	-0.081044	-1.394494	-0.357951
C70	C	0.418956	-0.894494	0.142049
C71	C	-0.356992	-1.394603	-0.551591
C72	C	0.143008	-0.894603	-0.051591
C73	C	-0.356862	-1.394711	-0.634138
C74	C	0.143138	-0.894711	-0.134138
C75	C	-0.357307	-0.645943	-0.357912
C76	C	0.142693	-0.145943	0.142088
C77	C	-0.357304	-0.753157	-0.357900
C78	C	0.142696	-0.253157	0.142100
C79	C	-0.357544	-1.394154	-0.164932
C80	C	0.142456	-0.894154	0.335068
C81	C	-0.357464	-1.394233	-0.082387
C82	C	0.142536	-0.894233	0.417613
C83	C	-0.406452	-1.459327	0.117104
C84	C	0.093548	-0.959327	0.617104
C85	C	-0.425039	-1.371542	0.166687
C86	C	0.074961	-0.871542	0.666687
C87	C	-0.357261	-1.394392	0.068743
C88	C	0.142739	-0.894392	0.568743
C89	C	-0.338512	-1.482330	0.166240
C90	C	0.161488	-0.982330	0.666240
C91	C	-0.357067	-1.394553	0.214728
C92	C	0.142933	-0.894553	0.714728
C93	C	-0.375885	-1.306559	0.117240
C94	C	0.124115	-0.806559	0.617240
C95	C	-0.289326	-1.417406	0.116788
C96	C	0.210674	-0.917406	0.616788
C97	C	-0.307888	-1.329560	0.166350
C98	C	0.192112	-0.829560	0.666350
C99	C	-0.357375	-1.394300	-0.015355
C100	C	0.142625	-0.894300	0.484645
C101	C	-0.356953	-1.394635	0.298824
C102	C	0.143047	-0.894635	0.798824
H103	H	-0.810684	-1.513350	-0.266474
H104	H	-0.310684	-1.013350	0.233526
H105	H	-0.391725	-1.232236	0.095801
H106	H	0.108275	-0.732236	0.595801
C107	C	-0.802735	-1.445107	-0.503150
C108	C	-0.302735	-0.945107	-0.003150
H109	H	-0.750106	-1.444957	-0.502662
H110	H	-0.250106	-0.944957	-0.002662
H111	H	-0.819979	-1.399638	-0.538390
H112	H	-0.319979	-0.899638	-0.038390
H113	H	-0.820006	-1.507431	-0.516163
H114	H	-0.320006	-1.007431	-0.016163
C115	C	-0.910537	-1.256423	-0.464212
C116	C	-0.410537	-0.756423	0.035788
H117	H	-0.893430	-1.273317	-0.512305
H118	H	-0.393430	-0.773317	-0.012305
H119	H	-0.892928	-1.194098	-0.451684
H120	H	-0.392928	-0.694098	0.048316
H121	H	-0.963165	-1.256472	-0.463631
H122	H	-0.463165	-0.756472	0.036369
C123	C	-0.462801	-1.533322	0.087882
C124	C	0.037199	-1.033322	0.587882
H125	H	-0.510980	-1.516864	0.104975
H126	H	-0.010980	-1.016864	0.604975
H127	H	-0.450024	-1.595580	0.105381
H128	H	0.049976	-1.095580	0.605381
H129	H	-0.462170	-1.533152	0.035255
H130	H	0.037830	-1.033152	0.535255
H131	H	-0.810644	-1.232015	-0.324262
H132	H	-0.310644	-0.732015	0.175738
H133	H	-0.903177	-1.556883	-0.391533
H134	H	-0.403177	-1.056883	0.108467
C135	C	-0.911232	-1.343928	-0.212733
C136	C	-0.411232	-0.843928	0.287267
H137	H	-0.894371	-1.389762	-0.177578
H138	H	-0.394371	-0.889762	0.322422
H139	H	-0.963852	-1.343563	-0.213403
H140	H	-0.463852	-0.843563	0.286597
H141	H	-0.893638	-1.281853	-0.199455
H142	H	-0.393638	-0.781853	0.300545
H143	H	-0.482407	-1.352139	0.188598
H144	H	0.017593	-0.852139	0.688598
H145	H	-0.266206	-1.274652	0.187838
H146	H	0.233794	-0.774652	0.687838
H147	H	-0.231974	-1.436836	0.094862
H148	H	0.268026	-0.936836	0.594862
H149	H	-0.322734	-1.556631	0.187771
H150	H	0.177266	-1.056631	0.687771
