data_functionalizedCrystal
_audit_creation_method	'MofGen! by Chris Wilmer'
_symmetry_space_group_name_H-M	'P1'
_symmetry_Int_Tables_number	1
_symmetry_cell_setting	triclinic
loop_
_symmetry_equiv_pos_as_xyz
  x,y,z
_cell_length_a	16.793024
_cell_length_b	16.793047
_cell_length_c	33.586455
_cell_angle_alpha	113.253857
_cell_angle_beta	66.219990
_cell_angle_gamma	112.758327
loop_
_atom_site_label
_atom_site_type_symbol
_atom_site_fract_x
_atom_site_fract_y
_atom_site_fract_z
O1	O	0.005016	-0.570216	-0.583573
O2	O	-0.034529	-0.474528	-0.453458
O3	O	0.114723	-0.474535	-0.528082
O4	O	-0.144235	-0.570209	-0.508949
O5	O	0.108729	-0.346329	-0.530229
O6	O	-0.040523	-0.346322	-0.455605
O7	O	-0.000977	-0.442010	-0.585721
Cu8	Cu	-0.021297	-0.382459	-0.520859
Cu9	Cu	-0.014209	-0.534079	-0.518320
O10	O	-0.150229	-0.442003	-0.511097
C11	C	0.005100	-0.790970	-0.238461
C12	C	-0.040584	-0.395375	-0.435637
C13	C	-0.044693	-0.353446	-0.386631
C14	C	-0.039275	-0.401741	-0.363054
C15	C	-0.040566	-0.125547	-0.300731
C16	C	-0.044689	-0.223451	-0.321635
C17	C	-0.039266	-0.270752	-0.297563
C18	C	0.005118	-0.521142	-0.103554
C19	C	-0.046224	-0.263935	-0.366370
C20	C	-0.036476	-0.360146	-0.318399
C21	C	-0.030850	-0.408530	-0.294565
C22	C	-0.028014	-0.367522	-0.249895
C23	C	-0.030804	-0.278128	-0.229058
C24	C	-0.036430	-0.229743	-0.252892
C25	C	-0.027971	-0.237122	-0.184383
C26	C	-0.022345	-0.285507	-0.160550
C27	C	-0.019555	-0.374900	-0.181386
C28	C	-0.022391	-0.415909	-0.226057
C29	C	-0.019601	-0.505302	-0.246894
C30	C	-0.013975	-0.553687	-0.223060
C31	C	-0.011142	-0.512684	-0.178391
C32	C	-0.013932	-0.423291	-0.157554
C33	C	-0.005516	-0.561069	-0.154557
C34	C	-0.002726	-0.650463	-0.175394
C35	C	-0.005562	-0.691471	-0.220064
C36	C	-0.011185	-0.643081	-0.243897
C37	C	-0.022434	-0.546309	-0.291568
C38	C	-0.019644	-0.635702	-0.312405
C39	C	-0.014021	-0.684089	-0.288567
C40	C	-0.022480	-0.676711	-0.357076
C41	C	-0.028106	-0.628326	-0.380910
C42	C	-0.030896	-0.538933	-0.360073
C43	C	-0.028060	-0.497924	-0.315402
C44	C	-0.036522	-0.490548	-0.383907
C45	C	0.815184	-0.521162	-0.508596
C46	C	0.415541	-0.125553	-0.528781
C47	C	0.375032	-0.223457	-0.531493
C48	C	0.423813	-0.270761	-0.529101
C49	C	0.149318	-0.395376	-0.530584
C50	C	0.246774	-0.353455	-0.532364
C51	C	0.294574	-0.401748	-0.529976
C52	C	0.548961	-0.790984	-0.510398
C53	C	0.286104	-0.263940	-0.532530
C54	C	0.383336	-0.360149	-0.528302
C55	C	0.432207	-0.407971	-0.525810
C56	C	0.392316	-0.497392	-0.524993
C57	C	0.303554	-0.538991	-0.526667
C58	C	0.254683	-0.491169	-0.529159
C59	C	0.263666	-0.628421	-0.525851
C60	C	0.312537	-0.676243	-0.523359
C61	C	0.401299	-0.634644	-0.521685
C62	C	0.441190	-0.545223	-0.522502
C63	C	0.529952	-0.503624	-0.520828
C64	C	0.578823	-0.551446	-0.518336
C65	C	0.538939	-0.640864	-0.517520
C66	C	0.450177	-0.682463	-0.519194
C67	C	0.587810	-0.688687	-0.515028
C68	C	0.676572	-0.647088	-0.513354
C69	C	0.716463	-0.557666	-0.514172
C70	C	0.667586	-0.509847	-0.516662
C71	C	0.569840	-0.414195	-0.521644
C72	C	0.658602	-0.372596	-0.519970
C73	C	0.707476	-0.420426	-0.517480
C74	C	0.698493	-0.283174	-0.520788
C75	C	0.649622	-0.235352	-0.523280
C76	C	0.560860	-0.276951	-0.524954
C77	C	0.520969	-0.366372	-0.524136
C78	C	0.511989	-0.229129	-0.527446
C79	C	-0.040530	-0.395407	-0.935652
C80	C	0.005063	-0.791004	-0.738448
C81	C	0.009186	-0.693099	-0.717543
C82	C	0.003779	-0.645796	-0.741620
C83	C	0.005077	-0.521171	-0.603544
C84	C	0.009198	-0.563096	-0.652550
C85	C	0.003786	-0.514804	-0.676131
C86	C	-0.040516	-0.125574	-0.800747
C87	C	0.010719	-0.652613	-0.672809
C88	C	0.000994	-0.556406	-0.720789
C89	C	-0.004621	-0.508585	-0.744908
C90	C	-0.007444	-0.419162	-0.724369
C91	C	-0.004651	-0.377560	-0.679711
C92	C	0.000964	-0.425381	-0.655592
C93	C	-0.007471	-0.288129	-0.659174
C94	C	-0.013086	-0.240308	-0.683293
C95	C	-0.015878	-0.281910	-0.727951
C96	C	-0.013056	-0.371333	-0.748490
C97	C	-0.015848	-0.412935	-0.793148
C98	C	-0.021463	-0.365114	-0.817267
C99	C	-0.024282	-0.275694	-0.796731
C100	C	-0.021490	-0.234092	-0.752073
C101	C	-0.029897	-0.227873	-0.820850
C102	C	-0.032690	-0.269476	-0.865508
C103	C	-0.029867	-0.358899	-0.886047
C104	C	-0.024255	-0.406717	-0.861925
C105	C	-0.013028	-0.502367	-0.813685
C106	C	-0.015821	-0.543969	-0.858343
C107	C	-0.021433	-0.496140	-0.882464
C108	C	-0.012998	-0.633392	-0.878882
C109	C	-0.007383	-0.681213	-0.854763
C110	C	-0.004591	-0.639611	-0.810105
C111	C	-0.007414	-0.550188	-0.789566
C112	C	0.001024	-0.687432	-0.785986
O113	O	-0.000965	0.173549	-0.277957
O114	O	-0.040516	-0.085616	-0.325254
O115	O	0.108737	0.059592	-0.327284
O116	O	-0.150219	0.028341	-0.275927
O117	O	0.114753	0.055151	-0.263265
O118	O	-0.034500	-0.090057	-0.261234
O119	O	0.005051	0.169108	-0.213937
Cu120	Cu	-0.014175	0.039120	-0.231740
Cu121	Cu	-0.021290	0.044372	-0.307451
O122	O	-0.144202	0.023900	-0.211907
O123	O	-0.034458	-0.474571	0.046517
O124	O	0.005076	-0.570190	-0.083599
O125	O	-0.144170	-0.570237	-0.008972
O126	O	0.114787	-0.474523	-0.028110
O127	O	-0.150200	-0.442024	-0.011093
O128	O	-0.000954	-0.441976	-0.085720
O129	O	-0.040488	-0.346357	0.044396
Cu130	Cu	-0.021272	-0.382460	-0.020856
Cu131	Cu	-0.014141	-0.534087	-0.018347
O132	O	0.108757	-0.346309	-0.030231
C133	C	-0.850734	0.086244	-0.289716
C134	C	-0.450996	0.035117	-0.097351
C135	C	-0.410501	0.028587	-0.146852
C136	C	-0.459292	0.034683	-0.169840
C137	C	-0.184802	0.024283	-0.235878
C138	C	-0.282257	0.023363	-0.213592
C139	C	-0.330068	0.029423	-0.237088
C140	C	-0.584541	0.075410	-0.428242
C141	C	-0.321573	0.024104	-0.168302
C142	C	-0.418828	0.035176	-0.215083
C143	C	-0.467711	0.041476	-0.238329
C144	C	-0.427833	0.042022	-0.283580
C145	C	-0.339073	0.036269	-0.305586
C146	C	-0.290190	0.029970	-0.282340
C147	C	-0.299198	0.036812	-0.350842
C148	C	-0.348081	0.043111	-0.374088
C149	C	-0.436841	0.048864	-0.352082
C150	C	-0.476719	0.048318	-0.306830
C151	C	-0.565480	0.054071	-0.284825
C152	C	-0.614362	0.060370	-0.308071
C153	C	-0.574491	0.060913	-0.353321
C154	C	-0.485730	0.055160	-0.375326
C155	C	-0.623374	0.067212	-0.376567
C156	C	-0.712134	0.072965	-0.354561
C157	C	-0.752012	0.072419	-0.309309
C158	C	-0.703123	0.066123	-0.286065
C159	C	-0.605355	0.053528	-0.239569
C160	C	-0.694115	0.059281	-0.217564
C161	C	-0.743001	0.065577	-0.240813
C162	C	-0.733993	0.058735	-0.172312
C163	C	-0.685110	0.052436	-0.149066
C164	C	-0.596350	0.046683	-0.171072
C165	C	-0.556472	0.047229	-0.216323
C166	C	-0.547467	0.040383	-0.147826
O167	O	0.585213	0.169090	-0.504004
O168	O	0.494056	-0.090076	-0.525516
O169	O	0.488081	0.055124	-0.449918
O170	O	0.591189	0.023889	-0.579602
O171	O	0.359978	0.059584	-0.452885
O172	O	0.365953	-0.085616	-0.528483
O173	O	0.457110	0.173550	-0.506971
Cu174	Cu	0.399835	0.044374	-0.517998
Cu175	Cu	0.551332	0.039099	-0.514489
O176	O	0.463086	0.028349	-0.582569
C177	C	0.815354	-0.521094	-0.008709
C178	C	0.415547	-0.125494	-0.028771
C179	C	0.375059	-0.223405	-0.031498
C180	C	0.423859	-0.270708	-0.029121
C181	C	0.149365	-0.395355	-0.030599
C182	C	0.246820	-0.353421	-0.032381
C183	C	0.294640	-0.401713	-0.030008
C184	C	0.549171	-0.790955	-0.010537
C185	C	0.286131	-0.263897	-0.032533
C186	C	0.383402	-0.360104	-0.028335
C187	C	0.432293	-0.407926	-0.025859
C188	C	0.392422	-0.497356	-0.025055
C189	C	0.303660	-0.538965	-0.026727
C190	C	0.254769	-0.491143	-0.029204
C191	C	0.263791	-0.628403	-0.025925
C192	C	0.312683	-0.676224	-0.023448
C193	C	0.401445	-0.634615	-0.021775
C194	C	0.441316	-0.545185	-0.022579
C195	C	0.530078	-0.503576	-0.020906
C196	C	0.578969	-0.551398	-0.018429
C197	C	0.539104	-0.640825	-0.017627
C198	C	0.450342	-0.682434	-0.019300
C199	C	0.587995	-0.688646	-0.015150
C200	C	0.676757	-0.647037	-0.013477
C201	C	0.716628	-0.557607	-0.014281
C202	C	0.667731	-0.509789	-0.016757
C203	C	0.569946	-0.414138	-0.021709
C204	C	0.658708	-0.372530	-0.020036
C205	C	0.707602	-0.420359	-0.017561
C206	C	0.698579	-0.283100	-0.020840
C207	C	0.649688	-0.235278	-0.023317
C208	C	0.560926	-0.276887	-0.024990
C209	C	0.521055	-0.366317	-0.024186
C210	C	0.512035	-0.229066	-0.027467
O211	O	-0.620614	0.089309	0.052274
O212	O	-0.529507	0.043784	-0.078544
O213	O	-0.523494	0.194833	-0.006033
O214	O	-0.626628	-0.061740	-0.020236
O215	O	-0.395386	0.185419	-0.005549
O216	O	-0.401400	0.034370	-0.078059
O217	O	-0.492507	0.079895	0.052758
Cu218	Cu	-0.435256	0.056273	-0.012607
Cu219	Cu	-0.586758	0.067406	-0.013179
O220	O	-0.498521	-0.071154	-0.019752
C221	C	-0.437537	0.048335	0.402491
C222	C	-0.837226	0.099430	0.210091
C223	C	-0.739773	0.100339	0.187806
C224	C	-0.691967	0.094287	0.211308
C225	C	-0.571027	0.088563	0.071568
C226	C	-0.611521	0.095108	0.121070
C227	C	-0.562739	0.089011	0.144061
C228	C	-0.171338	0.037467	0.263967
C229	C	-0.700452	0.099593	0.142516
C230	C	-0.603213	0.088528	0.189308
C231	C	-0.554892	0.082255	0.212848
C232	C	-0.466098	0.076466	0.191141
C233	C	-0.425624	0.076949	0.145894
C234	C	-0.473945	0.083222	0.122354
C235	C	-0.336822	0.071163	0.124188
C236	C	-0.288502	0.064890	0.147728
C237	C	-0.328975	0.064407	0.192975
C238	C	-0.417770	0.070196	0.214682
C239	C	-0.458244	0.069713	0.259929
C240	C	-0.409923	0.063441	0.283469
C241	C	-0.321132	0.057655	0.261765
C242	C	-0.280658	0.058138	0.216518
C243	C	-0.272811	0.051382	0.285305
C244	C	-0.313285	0.050899	0.330552
C245	C	-0.402079	0.056688	0.352259
C246	C	-0.450397	0.062957	0.328716
C247	C	-0.547046	0.075500	0.281635
C248	C	-0.587520	0.075016	0.326882
C249	C	-0.539191	0.068747	0.350423
C250	C	-0.676314	0.080806	0.348589
C251	C	-0.724634	0.087078	0.325049
C252	C	-0.684160	0.087561	0.279802
C253	C	-0.595366	0.081772	0.258095
C254	C	-0.732481	0.093834	0.256262
O255	O	-0.040608	-1.085661	-0.825229
O256	O	-0.001018	-0.826491	-0.777938
O257	O	-0.150287	-0.971682	-0.775894
O258	O	0.108661	-0.940470	-0.827272
O259	O	-0.144253	-0.976123	-0.711878
O260	O	0.005016	-0.830932	-0.713922
O261	O	-0.034575	-1.090102	-0.761213
Cu262	Cu	-0.014228	-0.960923	-0.731722
Cu263	Cu	-0.021364	-0.955670	-0.807428
O264	O	0.114695	-0.944911	-0.763256
C265	C	-0.049547	-0.210620	-0.392935
C266	C	0.026656	-0.136368	-0.395287
C267	C	0.023636	-0.087239	-0.419760
H268	H	-0.102650	-0.190329	-0.378152
H269	H	-0.050169	-0.247954	-0.422731
H270	H	0.027269	-0.099041	-0.365496
H271	H	0.079771	-0.156633	-0.410074
H272	H	0.023014	-0.124573	-0.449556
H273	H	-0.029470	-0.066954	-0.404974
H274	H	0.075342	-0.036858	-0.421362
H275	H	-0.797237	0.091807	0.342798
C276	C	0.167086	-0.673934	-0.027821
C277	C	0.165744	-0.748549	-0.066237
C278	C	0.076674	-0.790535	-0.067998
H279	H	0.143473	-0.632599	-0.029443
H280	H	0.131190	-0.693153	-0.001334
H281	H	0.201626	-0.729329	-0.092717
H282	H	0.189339	-0.789904	-0.064623
H283	H	0.040778	-0.809753	-0.041512
H284	H	0.053068	-0.749193	-0.069619
H285	H	0.075750	-0.841170	-0.094061
C286	C	-0.030879	-0.139622	-0.161747
C287	C	0.043080	-0.084647	-0.186244
C288	C	0.040423	0.005175	-0.165405
H289	H	-0.028335	-0.121933	-0.131609
H290	H	-0.085393	-0.133668	-0.161138
H291	H	0.097581	-0.090596	-0.186847
H292	H	0.040552	-0.102307	-0.216381
H293	H	-0.014092	0.011129	-0.164796
H294	H	0.042964	0.022854	-0.135267
H295	H	0.090597	0.042485	-0.182025
C296	C	-0.267667	0.019713	-0.142503
C297	C	-0.240674	-0.059985	-0.163737
C298	C	-0.191002	-0.064052	-0.139988
H299	H	-0.304169	0.020787	-0.112211
H300	H	-0.215767	0.069941	-0.142287
H301	H	-0.292566	-0.110199	-0.163948
H302	H	-0.204160	-0.061077	-0.194027
H303	H	-0.139102	-0.013824	-0.139773
H304	H	-0.227510	-0.062975	-0.109697
H305	H	-0.172674	-0.118122	-0.154395
C306	C	-0.829202	0.100394	0.279968
C307	C	-0.830836	0.177338	0.317248
C308	C	-0.919906	0.183449	0.339089
H309	H	-0.865456	0.048473	0.290069
H310	H	-0.852256	0.104283	0.259393
H311	H	-0.807794	0.173442	0.337819
H312	H	-0.794600	0.229272	0.307159
H313	H	-0.942960	0.187337	0.318515
H314	H	-0.956153	0.131524	0.349188
H315	H	-0.921025	0.235659	0.364384
C316	C	-0.019314	-0.240656	-0.111846
C317	C	-0.022998	-0.151655	-0.098640
C318	C	-0.020217	-0.110316	-0.053776
H319	H	0.035212	-0.241030	-0.109679
H320	H	-0.069469	-0.272608	-0.092533
H321	H	0.027152	-0.119712	-0.117947
H322	H	-0.077520	-0.151255	-0.100796
H323	H	-0.070372	-0.142268	-0.034463
H324	H	0.034309	-0.110697	-0.051613
H325	H	-0.022725	-0.049928	-0.044809
H326	H	-0.315470	0.043557	-0.411085
C327	C	-0.757597	0.093862	-0.378890
C328	C	-0.708386	0.177263	-0.387519
C329	C	-0.750233	0.196540	-0.409933
H330	H	-0.817381	0.095949	-0.360383
H331	H	-0.759565	0.048280	-0.406755
H332	H	-0.706429	0.222834	-0.359658
H333	H	-0.648603	0.175197	-0.406030
H334	H	-0.752200	0.150958	-0.437797
H335	H	-0.810016	0.198622	-0.391423
H336	H	-0.716845	0.253124	-0.415794
H337	H	-0.303725	0.071562	0.087197
H338	H	0.182115	-0.525189	-0.530531
C339	C	0.166972	-0.673803	-0.527785
C340	C	0.160714	-0.673353	-0.568019
C341	C	0.071660	-0.715179	-0.569827
H342	H	0.127638	-0.642117	-0.502544
H343	H	0.150147	-0.734178	-0.526968
H344	H	0.177528	-0.612989	-0.568832
H345	H	0.200029	-0.705044	-0.593267
H346	H	0.054835	-0.775554	-0.569011
H347	H	0.032333	-0.683488	-0.544585
H348	H	0.067404	-0.714887	-0.597127
C349	C	0.017285	-0.695962	-0.150675
C350	C	-0.049057	-0.695894	-0.108722
C351	C	-0.030661	-0.737811	-0.085943
H352	H	0.074872	-0.664165	-0.145975
H353	H	0.017162	-0.756250	-0.168380
H354	H	-0.048925	-0.635617	-0.091021
H355	H	-0.106651	-0.727696	-0.113409
H356	H	-0.030783	-0.798099	-0.103648
H357	H	0.026928	-0.706010	-0.081246
H358	H	-0.075674	-0.737778	-0.057477
C359	C	-0.728756	0.051807	-0.099740
C360	C	-0.817321	0.058197	-0.085388
C361	C	-0.857562	0.057605	-0.039956
H362	H	-0.695005	0.101511	-0.081535
H363	H	-0.729741	-0.002648	-0.096864
H364	H	-0.816332	0.112646	-0.088261
H365	H	-0.851096	0.008498	-0.103581
H366	H	-0.858547	0.003151	-0.037079
H367	H	-0.823804	0.107311	-0.021754
H368	H	-0.917660	0.061933	-0.030213
C369	C	0.693139	-0.137812	-0.524076
C370	C	0.718377	-0.086578	-0.484443
C371	C	0.758465	0.003280	-0.485155
H372	H	0.651208	-0.115088	-0.525778
H373	H	0.745159	-0.134336	-0.549742
H374	H	0.666363	-0.090049	-0.458784
H375	H	0.760317	-0.109274	-0.482733
H376	H	0.810485	0.006756	-0.510821
H377	H	0.716529	0.025996	-0.486858
H378	H	0.775601	0.038052	-0.458267
C379	C	-0.010948	-0.781528	-0.311369
C380	C	-0.014631	-0.807188	-0.355777
C381	C	-0.011793	-0.896935	-0.376795
H382	H	-0.061068	-0.819060	-0.294859
H383	H	0.043610	-0.787464	-0.312021
H384	H	-0.069183	-0.801260	-0.355123
H385	H	0.035485	-0.769680	-0.372299
H386	H	0.042765	-0.902872	-0.377446
H387	H	-0.061914	-0.934459	-0.360281
H388	H	-0.014283	-0.914355	-0.406929
C389	C	0.014030	-0.705833	-0.646193
C390	C	-0.062173	-0.708460	-0.608036
C391	C	-0.059163	-0.757488	-0.583508
H392	H	0.067134	-0.677709	-0.636767
H393	H	0.014644	-0.765446	-0.664866
H394	H	-0.062777	-0.648858	-0.589366
H395	H	-0.115287	-0.736592	-0.617449
H396	H	-0.058550	-0.817101	-0.602181
H397	H	-0.006057	-0.729359	-0.574085
H398	H	-0.110869	-0.759284	-0.557618
C399	C	0.232166	-0.210681	-0.033820
C400	C	0.155818	-0.208081	0.004301
C401	C	0.106087	-0.159059	0.003137
H402	H	0.213685	-0.238798	-0.060558
H403	H	0.268703	-0.151062	-0.033722
H404	H	0.119287	-0.267690	0.004199
H405	H	0.174273	-0.179958	0.031044
H406	H	0.142624	-0.099439	0.003234
H407	H	0.087612	-0.187180	-0.023603
H408	H	0.054283	-0.157281	0.029003
H409	H	-0.740818	0.102779	0.123104
C410	C	-0.016183	-0.678677	-0.927549
C411	C	-0.096622	-0.678188	-0.930697
C412	C	-0.099586	-0.719888	-0.975521
H413	H	-0.013738	-0.739051	-0.936411
H414	H	0.033924	-0.646905	-0.946959
H415	H	-0.146716	-0.709961	-0.911293
H416	H	-0.099085	-0.617825	-0.921844
H417	H	-0.049478	-0.688117	-0.994931
H418	H	-0.097138	-0.780260	-0.984379
H419	H	-0.154159	-0.719555	-0.977663
C420	C	0.804221	-0.374902	-0.515635
C421	C	0.828793	-0.285983	-0.516878
C422	C	0.917900	-0.244021	-0.515174
H423	H	0.843538	-0.406560	-0.540906
H424	H	0.808677	-0.375083	-0.488357
H425	H	0.824345	-0.285808	-0.544153
H426	H	0.789500	-0.254301	-0.491610
H427	H	0.922356	-0.244201	-0.487896
H428	H	0.957208	-0.275686	-0.540445
H429	H	0.934580	-0.183683	-0.516013
C430	C	-0.004276	-0.778685	-0.877238
C431	C	-0.007919	-0.804985	-0.921695
C432	C	-0.005046	-0.894764	-0.942416
H433	H	-0.054398	-0.816009	-0.860613
H434	H	0.050280	-0.784416	-0.877770
H435	H	-0.062469	-0.799262	-0.921161
H436	H	0.042199	-0.767685	-0.938333
H437	H	0.049510	-0.900495	-0.942948
H438	H	-0.055169	-0.932080	-0.925787
H439	H	-0.007509	-0.912618	-0.972584
C440	C	-0.016104	-0.142812	-0.660831
C441	C	-0.012420	-0.116498	-0.616380
C442	C	-0.015190	-0.026689	-0.595677
H443	H	-0.070625	-0.136997	-0.660281
H444	H	0.034056	-0.105551	-0.677487
H445	H	-0.062575	-0.153749	-0.599728
H446	H	0.042098	-0.122292	-0.616917
H447	H	0.034970	0.010573	-0.612333
H448	H	-0.069712	-0.020882	-0.595130
H449	H	-0.012683	-0.008821	-0.565517
C450	C	-0.031206	-0.673195	-0.429604
C451	C	-0.027553	-0.762205	-0.442803
C452	C	-0.030410	-0.803568	-0.487656
H453	H	0.018918	-0.641294	-0.448941
H454	H	-0.085761	-0.672789	-0.431736
H455	H	0.026995	-0.762606	-0.440675
H456	H	-0.077674	-0.794130	-0.423478
H457	H	-0.084964	-0.803162	-0.489788
H458	H	0.019715	-0.771660	-0.506989
H459	H	-0.027940	-0.863968	-0.496616
H460	H	0.279916	-0.749353	-0.522691
C461	C	0.269202	-0.773667	-0.022480
C462	C	0.267939	-0.781843	0.017689
C463	C	0.227881	-0.871591	0.018601
H464	H	0.303006	-0.810971	-0.047769
H465	H	0.209068	-0.791693	-0.023811
H466	H	0.328062	-0.763828	0.019016
H467	H	0.234130	-0.744559	0.042985
H468	H	0.167747	-0.889618	0.017269
H469	H	0.261690	-0.908888	-0.006691
H470	H	0.227011	-0.877149	0.045856
C471	C	0.232322	-0.210581	-0.533851
C472	C	0.226507	-0.136413	-0.495216
C473	C	0.176974	-0.087233	-0.496415
H474	H	0.173259	-0.247885	-0.534474
H475	H	0.261743	-0.190211	-0.560248
H476	H	0.197084	-0.156784	-0.468826
H477	H	0.285555	-0.099088	-0.494585
H478	H	0.206395	-0.066864	-0.522812
H479	H	0.117915	-0.124545	-0.497039
H480	H	0.173029	-0.036901	-0.470205
H481	H	-0.011621	-0.389765	-0.121028
H482	H	-0.215904	0.060157	0.129977
C483	C	-0.004302	-0.242818	-0.610508
C484	C	0.076130	-0.243274	-0.607338
C485	C	0.079060	-0.201549	-0.562509
H486	H	-0.054396	-0.274567	-0.591092
H487	H	-0.006763	-0.182444	-0.601666
H488	H	0.078583	-0.303637	-0.616174
H489	H	0.126238	-0.211521	-0.626744
H490	H	0.076598	-0.141175	-0.553668
H491	H	0.028963	-0.233302	-0.543097
H492	H	0.133636	-0.201845	-0.560354
C493	C	-0.263327	0.029829	0.352545
C494	C	-0.250345	-0.056104	0.328815
C495	C	-0.204318	-0.075539	0.349058
H496	H	-0.297903	0.031591	0.383145
H497	H	-0.206323	0.073172	0.351766
H498	H	-0.307340	-0.099436	0.329598
H499	H	-0.215761	-0.057887	0.298216
H500	H	-0.147314	-0.032195	0.348280
H501	H	-0.238899	-0.073772	0.379657
H502	H	-0.195497	-0.133842	0.332958
H503	H	-0.023718	-0.530163	-0.918978
H504	H	-0.020209	-0.749804	-0.374113
H505	H	0.417564	-0.755580	-0.518528
H506	H	0.544602	-0.156012	-0.528109
H507	H	-0.038841	-0.524079	-0.420431
C508	C	0.722032	-0.696924	-0.503485
C509	C	0.672799	-0.712788	-0.461107
C510	C	0.714647	-0.758674	-0.451987
H511	H	0.781807	-0.661500	-0.503245
H512	H	0.724025	-0.752726	-0.526283
H513	H	0.670815	-0.656994	-0.438314
H514	H	0.613026	-0.748220	-0.461336
H515	H	0.716641	-0.814476	-0.474786
H516	H	0.774421	-0.723245	-0.451750
H517	H	0.681245	-0.769451	-0.423236
H518	H	0.771070	-0.249160	-0.519423
H519	H	-0.440845	0.083623	0.085362
C520	C	-0.052687	-0.219494	-0.887991
C521	C	0.013665	-0.137391	-0.888858
C522	C	-0.004718	-0.091331	-0.909571
H523	H	-0.110271	-0.208526	-0.871315
H524	H	-0.052567	-0.254911	-0.918136
H525	H	0.013536	-0.101981	-0.858719
H526	H	0.071256	-0.148333	-0.905537
H527	H	-0.004598	-0.126747	-0.939716
H528	H	-0.062303	-0.080369	-0.892893
H529	H	0.040303	-0.035622	-0.910167
H530	H	-0.572284	0.068372	0.387422
H531	H	-0.815575	0.070280	-0.222817
C532	C	-0.202490	0.030405	-0.374909
C533	C	-0.201131	-0.046452	-0.412241
C534	C	-0.112057	-0.052380	-0.434430
H535	H	-0.178893	0.026509	-0.354559
H536	H	-0.166588	0.082415	-0.384996
H537	H	-0.237019	-0.098449	-0.402154
H538	H	-0.224710	-0.042573	-0.432602
H539	H	-0.076155	-0.000370	-0.444517
H540	H	-0.088467	-0.056273	-0.414076
H541	H	-0.111122	-0.104522	-0.459765
H542	H	-0.709407	0.080425	0.385586
H543	H	-0.023809	-0.160979	-0.735279
C544	C	0.722239	-0.696877	-0.003625
C545	C	0.673019	-0.712770	0.038748
C546	C	0.714887	-0.758660	0.047852
H547	H	0.782012	-0.661446	-0.003384
H548	H	0.724241	-0.752670	-0.026431
H549	H	0.671027	-0.656987	0.061548
H550	H	0.613248	-0.748210	0.038518
H551	H	0.716889	-0.814453	0.025046
H552	H	0.774659	-0.723224	0.048090
H553	H	0.681493	-0.769457	0.076600
C554	C	0.804347	-0.374824	-0.015717
C555	C	0.828897	-0.285898	-0.016945
C556	C	0.918004	-0.243925	-0.015242
H557	H	0.843669	-0.406467	-0.040994
H558	H	0.808813	-0.375019	0.011555
H559	H	0.824439	-0.285708	-0.044215
H560	H	0.789599	-0.254232	0.008329
H561	H	0.922469	-0.244120	0.012030
H562	H	0.957317	-0.275575	-0.040519
H563	H	0.934670	-0.183582	-0.016071
H564	H	-0.038719	-0.156659	-0.235851
H565	H	0.003251	-0.391359	-0.619081
C566	C	0.693307	-0.137784	-0.024183
C567	C	0.781867	-0.111470	-0.022178
C568	C	0.822074	-0.021664	-0.022969
H569	H	0.659531	-0.100503	0.001140
H570	H	0.694299	-0.131998	-0.051411
H571	H	0.780871	-0.117248	0.005047
H572	H	0.815666	-0.148727	-0.047499
H573	H	0.823065	-0.015879	-0.050197
H574	H	0.788291	0.015609	0.002354
H575	H	0.882168	-0.003801	-0.021613
H576	H	0.003321	-0.760550	-0.802778
H577	H	-0.217624	0.025258	-0.300336
H578	H	-0.453130	0.055597	-0.412328
H579	H	-0.806568	0.063430	-0.154318
H580	H	-0.580066	0.039960	-0.110823
H581	H	0.182201	-0.525171	-0.030575
H582	H	0.417746	-0.755558	-0.018645
H583	H	0.771156	-0.249077	-0.019476
H584	H	0.544632	-0.155941	-0.028119
H585	H	-0.208057	0.053400	0.198770
