data_functionalizedCrystal
_audit_creation_method	'MofGen! by Chris Wilmer'
_symmetry_space_group_name_H-M	'P1'
_symmetry_Int_Tables_number	1
_symmetry_cell_setting	triclinic
loop_
_symmetry_equiv_pos_as_xyz
  x,y,z
_cell_length_a	15.944551
_cell_length_b	15.944551
_cell_length_c	9.730223
_cell_angle_alpha	90.001200
_cell_angle_beta	89.994648
_cell_angle_gamma	83.498738
loop_
_atom_site_label
_atom_site_type_symbol
_atom_site_fract_x
_atom_site_fract_y
_atom_site_fract_z
O1	O	0.108332	1.114523	-0.114150
O2	O	0.121688	0.869973	-0.114184
O3	O	-0.007265	0.998926	-0.114153
O4	O	0.237285	0.985570	-0.114180
O5	O	-0.007268	0.998918	0.114426
O6	O	0.121685	0.869965	0.114396
O7	O	0.108328	1.114514	0.114430
Zn8	Zn	0.115006	0.992238	0.150705
Zn9	Zn	0.115010	0.992249	-0.150459
O10	O	0.237281	0.985562	0.114400
C11	C	0.121132	0.838675	0.000102
C12	C	0.119470	0.745429	0.000089
C13	C	0.035565	0.530572	0.000125
C14	C	0.074529	0.469556	-0.112582
C15	C	0.116462	0.574703	0.000105
C16	C	0.074545	0.469570	0.112780
C17	C	0.113551	0.409790	0.000127
C18	C	0.155449	0.514915	-0.112694
C19	C	0.155453	0.514936	0.112769
C20	C	0.194476	0.453937	0.000035
C21	C	0.118137	0.669705	0.000091
C22	C	0.111883	0.314789	0.000131
C23	C	-0.038561	0.998367	0.000137
C24	C	-0.131807	0.996705	0.000137
C25	C	-0.346663	0.912801	0.000106
C26	C	-0.407682	0.951759	0.112816
C27	C	-0.302533	0.993698	0.000126
C28	C	-0.407662	0.951786	-0.112546
C29	C	-0.467445	0.990787	0.000110
C30	C	-0.362323	1.032678	0.112928
C31	C	-0.362297	1.032694	-0.112535
C32	C	-0.423298	1.071711	0.000202
C33	C	-0.207530	0.995372	0.000137
C34	C	-0.562446	0.989119	0.000109
C35	C	0.268577	0.986120	0.000107
C36	C	0.361823	0.987782	0.000097
C37	C	0.108885	1.145813	0.000142
C38	C	0.110547	1.239059	0.000145
N39	N	0.115002	0.992237	0.356242
N40	N	0.115007	0.992257	-0.355995
C41	C	0.057926	1.049357	0.428181
C42	C	0.057926	1.049365	0.572064
C43	C	0.172087	0.935131	0.572055
C44	C	0.172082	0.935120	0.428175
H45	H	0.189640	0.534906	-0.208082
H46	H	0.040312	0.449481	0.208061
H47	H	0.261683	0.420779	-0.000035
C48	C	-0.324433	0.779992	0.118406
C49	C	-0.301691	0.822157	0.000239
H50	H	-0.296663	0.724036	0.118494
H51	H	-0.383788	0.778315	0.119213
H52	H	-0.308257	0.809022	0.197652
H53	H	-0.317872	0.793130	-0.079007
H54	H	-0.242323	0.823829	-0.000580
C55	C	-0.490371	0.960754	0.319637
C56	C	-0.434839	0.905569	0.241434
H57	H	-0.507129	0.932234	0.399040
H58	H	-0.538734	0.979491	0.266199
H59	H	-0.462904	1.007957	0.346729
H60	H	-0.462308	0.858368	0.214334
H61	H	-0.386468	0.886819	0.294883
H62	H	-0.456457	1.138919	0.000275
H63	H	0.189639	0.535064	0.208052
C64	C	-0.247661	1.079922	0.240583
C65	C	-0.335346	1.078822	0.241711
H66	H	-0.231007	1.108402	0.320093
H67	H	-0.231771	1.108469	0.160664
H68	H	-0.220739	1.023638	0.240249
H69	H	-0.362268	1.135106	0.242035
H70	H	-0.351245	1.050276	0.321651
H71	H	0.218561	0.888629	0.630638
H72	H	-0.342165	1.066885	-0.207817
C73	C	-0.395694	0.822395	-0.240962
C74	C	-0.434774	0.905588	-0.241183
H75	H	-0.412426	0.793874	-0.320378
H76	H	-0.412000	0.794209	-0.160947
H77	H	-0.336150	0.822683	-0.241434
H78	H	-0.494319	0.905301	-0.240701
H79	H	-0.418473	0.933781	-0.321219
C80	C	-0.054923	1.162264	0.442647
C81	C	-0.004823	1.112131	0.349110
H82	H	-0.093667	1.201014	0.393832
H83	H	-0.019938	1.192481	0.498745
H84	H	-0.085154	1.127296	0.498784
H85	H	0.025413	1.147099	0.292980
H86	H	-0.039813	1.081912	0.292988
H87	H	0.040315	0.449449	-0.207860
H88	H	0.218560	0.888602	0.369598
C89	C	-0.097234	0.552816	-0.118190
C90	C	-0.055075	0.575552	-0.000020
H91	H	-0.153186	0.580593	-0.118287
H92	H	-0.098917	0.493462	-0.118993
H93	H	-0.068194	0.568989	-0.197434
H94	H	-0.084112	0.559374	0.079224
H95	H	-0.053396	0.634919	0.000795
C96	C	-0.056379	1.067612	0.733879
C97	C	-0.004814	1.112154	0.651138
H98	H	-0.095118	1.106378	0.782687
H99	H	-0.022387	1.033610	0.797310
H100	H	-0.086616	1.032650	0.677745
H101	H	0.025427	1.147111	0.707273
H102	H	-0.038811	1.146171	0.587700
