data_functionalizedCrystal
_audit_creation_method	'MofGen! by Chris Wilmer'
_symmetry_space_group_name_H-M	'P1'
_symmetry_Int_Tables_number	1
_symmetry_cell_setting	triclinic
loop_
_symmetry_equiv_pos_as_xyz
  x,y,z
_cell_length_a	18.101398
_cell_length_b	16.120484
_cell_length_c	16.120379
_cell_angle_alpha	90.213218
_cell_angle_beta	92.857794
_cell_angle_gamma	87.078898
loop_
_atom_site_label
_atom_site_type_symbol
_atom_site_fract_x
_atom_site_fract_y
_atom_site_fract_z
Zn1	Zn	1.096519	0.307004	-0.487081
Zn2	Zn	1.596519	0.807004	0.012919
Zn3	Zn	1.095751	0.453205	-0.355068
Zn4	Zn	1.595751	0.953205	0.144932
Zn5	Zn	0.978580	0.314161	-0.348026
Zn6	Zn	1.478580	0.814161	0.151974
Zn7	Zn	0.966067	0.446008	-0.494064
Zn8	Zn	1.466067	0.946008	0.005936
O9	O	1.034229	0.380095	-0.421060
O10	O	1.534229	0.880095	0.078940
O11	O	1.200048	0.326416	-0.469594
O12	O	1.700048	0.826416	0.030406
O13	O	1.085123	0.440768	-0.237768
O14	O	1.585123	0.940768	0.262232
O15	O	0.999783	0.196847	-0.360603
O16	O	1.499783	0.696847	0.139397
O17	O	1.199484	0.433829	-0.372604
O18	O	1.699484	0.933829	0.127396
O19	O	1.086432	0.191590	-0.462766
O20	O	1.586432	0.691590	0.037234
O21	O	0.999038	0.338612	-0.232595
O22	O	1.499038	0.838612	0.267405
O23	O	0.873289	0.331633	-0.367374
O24	O	1.373289	0.831633	0.132626
O25	O	0.978457	0.421562	-0.609503
O26	O	1.478457	0.921562	-0.109503
O27	O	0.864096	0.428501	-0.474667
O28	O	1.364096	0.928501	0.025333
O29	O	1.074299	0.319436	-0.604373
O30	O	1.574299	0.819436	-0.104373
O31	O	1.072990	0.568615	-0.379375
O32	O	1.572990	1.068615	0.120625
O33	O	0.977712	0.563327	-0.481495
O34	O	1.477712	1.063327	0.018505
C35	C	0.841822	0.380063	-0.421015
C36	C	1.341822	0.880063	0.078985
C37	C	0.759508	0.380069	-0.421016
C38	C	1.259508	0.880069	0.078984
C39	C	1.023929	0.596141	-0.431975
C40	C	1.523929	1.096141	0.068025
C41	C	1.019589	0.688566	-0.436672
C42	C	1.519589	1.188566	0.063328
C43	C	1.025068	0.368898	-0.637954
C44	C	1.525068	0.868898	-0.137954
C45	C	1.021164	0.364126	-0.730381
C46	C	1.521164	0.864126	-0.230381
C47	C	0.460411	0.380117	-0.421089
C48	C	0.960411	0.880117	0.078911
C49	C	0.497498	0.318833	-0.353880
C50	C	0.997498	0.818833	0.146120
C51	C	0.583119	0.319021	-0.353616
C52	C	1.083119	0.819021	0.146384
C53	C	0.608797	0.380092	-0.421052
C54	C	1.108797	0.880092	0.078948
C55	C	0.574558	0.468916	-0.401546
C56	C	1.074558	0.968916	0.098454
C57	C	0.488949	0.468580	-0.401083
C58	C	0.988949	0.968580	0.098917
C59	C	0.489341	0.353330	-0.507993
C60	C	0.989341	0.853330	-0.007993
C61	C	0.575104	0.351405	-0.507414
C62	C	1.075104	0.851405	-0.007414
C63	C	0.692657	0.380084	-0.421034
C64	C	1.192657	0.880084	0.078966
C65	C	0.376550	0.380132	-0.421105
C66	C	0.876550	0.880132	0.078895
C67	C	1.227388	0.380127	-0.421105
C68	C	1.727388	0.880127	0.078895
C69	C	1.309700	0.380141	-0.421125
C70	C	1.809700	0.880141	0.078875
C71	C	1.044589	0.163203	-0.410120
C72	C	1.544589	0.663203	0.089880
C73	C	1.049004	0.070777	-0.405458
C74	C	1.549004	0.570777	0.094542
C75	C	1.011669	0.857786	-0.445265
C76	C	1.511669	1.357786	0.054735
C77	C	1.056921	0.901562	-0.396868
C78	C	1.556921	1.401562	0.103132
C79	C	1.052515	0.995722	-0.401649
C80	C	1.552515	1.495722	0.098351
C81	C	1.016075	0.763617	-0.440485
C82	C	1.516075	1.263617	0.059515
C83	C	1.043400	0.391188	-0.205007
C84	C	1.543400	0.891188	0.294993
C85	C	1.047459	0.395725	-0.112568
C86	C	1.547459	0.895725	0.387432
C87	C	1.054879	0.404009	0.056679
C88	C	1.554879	0.904009	0.556679
C89	C	1.013746	0.355845	0.100378
C90	C	1.513746	0.855845	0.600378
C91	C	1.017874	0.360454	0.194552
C92	C	1.517874	0.860454	0.694552
C93	C	1.050752	0.399401	-0.037505
C94	C	1.550752	0.899401	0.462495
H95	H	0.606590	0.253295	-0.365334
H96	H	1.106590	0.753295	0.134666
Br97	Br	0.603791	0.419781	-0.594755
Br98	Br	1.103791	0.919781	-0.094755
H99	H	1.098972	0.868324	-0.351842
H100	H	1.598972	1.368324	0.148158
H101	H	1.093192	0.448702	0.089992
H102	H	1.593192	0.948702	0.589992
H103	H	0.479374	0.252918	-0.365423
H104	H	0.979374	0.752918	0.134577
H105	H	0.463988	0.516029	-0.448141
H106	H	0.963988	1.016029	0.051859
H107	H	0.478014	0.336717	-0.289765
H108	H	0.978014	0.836717	0.210235
H109	H	0.969621	0.891021	-0.490286
H110	H	1.469621	1.391021	0.009714
Br111	Br	0.620674	0.349130	-0.246133
Br112	Br	1.120674	0.849130	0.253867
Br113	Br	0.458657	0.505559	-0.295413
Br114	Br	0.958657	1.005559	0.204587
H115	H	0.590675	0.515996	-0.449160
H116	H	1.090675	1.015996	0.050840
H117	H	0.975430	0.311148	0.067062
H118	H	1.475430	0.811148	0.567062
Br119	Br	0.613239	0.506387	-0.297061
Br120	Br	1.113239	1.006387	0.202939
H121	H	0.469808	0.289451	-0.526584
H122	H	0.969808	0.789451	-0.026584
H123	H	0.464841	0.397912	-0.558015
H124	H	0.964841	0.897912	-0.058015
Br125	Br	0.612819	0.242429	-0.532078
Br126	Br	1.112819	0.742429	-0.032078
