data_functionalizedCrystal
_audit_creation_method	'MofGen! by Chris Wilmer'
_symmetry_space_group_name_H-M	'P1'
_symmetry_Int_Tables_number	1
_symmetry_cell_setting	triclinic
loop_
_symmetry_equiv_pos_as_xyz
  x,y,z
_cell_length_a	18.215407
_cell_length_b	14.908178
_cell_length_c	18.215399
_cell_angle_alpha	93.325522
_cell_angle_beta	90.019833
_cell_angle_gamma	93.314324
loop_
_atom_site_label
_atom_site_type_symbol
_atom_site_fract_x
_atom_site_fract_y
_atom_site_fract_z
Zn1	Zn	1.108200	-0.359185	0.399200
Zn2	Zn	1.101021	-0.510066	0.269028
Zn3	Zn	0.985131	-0.359215	0.276146
Zn4	Zn	0.978014	-0.510015	0.392055
O5	O	1.043092	-0.434620	0.334107
O6	O	1.210232	-0.379209	0.381944
O7	O	1.085623	-0.490088	0.166986
O8	O	1.007440	-0.232956	0.298438
O9	O	1.204957	-0.490060	0.286307
O10	O	1.097858	-0.232935	0.388846
O11	O	1.000479	-0.379259	0.172216
O12	O	0.881203	-0.379210	0.291510
O13	O	0.995309	-0.489974	0.495989
O14	O	0.875974	-0.490003	0.376669
O15	O	1.090956	-0.379160	0.501238
O16	O	1.078721	-0.636314	0.279379
O17	O	0.988348	-0.636277	0.369767
C18	C	0.851886	-0.434605	0.334087
C19	C	0.770086	-0.434620	0.334095
C20	C	0.579185	-0.492400	0.378373
C21	C	0.502326	-0.492403	0.378382
C22	C	0.507750	-0.376857	0.289857
C23	C	0.584607	-0.376850	0.289852
C24	C	0.620323	-0.434627	0.334109
C25	C	0.466606	-0.434636	0.334123
C26	C	0.383272	-0.434639	0.334132
C27	C	0.703662	-0.434623	0.334101
C28	C	1.032003	-0.669031	0.323041
C29	C	1.027327	-0.769314	0.318331
C30	C	1.112620	-0.957582	0.403724
C31	C	1.108229	-1.051806	0.399301
C32	C	1.014149	-1.051987	0.305068
C33	C	1.018541	-0.957763	0.309490
C34	C	1.067779	-0.910564	0.358819
C35	C	1.072173	-0.816338	0.363238
C36	C	0.978090	-0.816521	0.269009
C37	C	0.973699	-0.910745	0.264586
C38	C	1.235044	-0.434636	0.334128
C39	C	1.316842	-0.434643	0.334137
C40	C	1.043139	-0.434558	0.526063
C41	C	1.043160	-0.434532	0.607863
C42	C	1.054244	-0.199294	0.345233
C43	C	1.058996	-0.099012	0.349974
C44	C	1.043089	-0.434617	0.142901
C45	C	1.043224	-0.434389	0.061114
C46	C	1.092983	-0.376777	0.798795
C47	C	1.092993	-0.376750	0.875655
C48	C	0.993395	-0.492147	0.870177
C49	C	0.993382	-0.492168	0.793319
C50	C	1.043180	-0.434484	0.757629
C51	C	1.043203	-0.434437	0.911348
C52	C	1.043214	-0.434409	0.994683
C53	C	1.043169	-0.434511	0.674289
H54	H	0.618103	-0.329798	0.253807
O55	O	0.462448	-0.548483	0.421483
C56	C	0.482176	-0.528865	0.495782
H57	H	0.539620	-0.494180	0.498985
H58	H	0.441122	-0.482521	0.522824
C59	C	0.411031	-0.659491	0.532153
C60	C	0.481588	-0.616897	0.536087
H61	H	0.410666	-0.713792	0.557016
H62	H	0.397737	-0.672706	0.482097
H63	H	0.376828	-0.620862	0.554687
H64	H	0.515789	-0.655521	0.513545
H65	H	0.494888	-0.603690	0.586140
H66	H	0.933609	-0.949188	0.224426
O67	O	0.945030	-0.548145	0.753216
C68	C	0.955709	-0.535806	0.677726
H69	H	0.983108	-0.466182	0.670531
H70	H	0.992362	-0.589328	0.653390
C71	C	0.847199	-0.629592	0.646695
C72	C	0.880845	-0.544076	0.637858
H73	H	0.801020	-0.634697	0.622100
H74	H	0.840005	-0.637909	0.697553
H75	H	0.877750	-0.674184	0.626415
H76	H	0.850298	-0.499486	0.658145
H77	H	0.888032	-0.535752	0.587001
H78	H	1.152717	-0.919151	0.443884
O79	O	0.934557	-0.770708	0.225462
C80	C	0.949004	-0.677421	0.239925
H81	H	0.973673	-0.664476	0.297351
H82	H	0.989470	-0.650680	0.197567
C83	C	0.846500	-0.645030	0.164840
C84	C	0.876793	-0.629130	0.235374
H85	H	0.801958	-0.615240	0.162030
H86	H	0.836768	-0.707879	0.155093
H87	H	0.880229	-0.622745	0.129549
H88	H	0.843068	-0.651425	0.270662
H89	H	0.886517	-0.566284	0.245126
O90	O	0.472937	-0.320821	0.246886
C91	C	0.396279	-0.333198	0.256395
H92	H	0.382497	-0.402865	0.277114
H93	H	0.377013	-0.279747	0.298183
C94	C	0.374111	-0.239246	0.156895
C95	C	0.357184	-0.324815	0.182338
H96	H	0.349995	-0.234071	0.111215
H97	H	0.425757	-0.230904	0.150491
H98	H	0.358056	-0.194713	0.191725
H99	H	0.373248	-0.369345	0.147512
H100	H	0.305540	-0.333164	0.188735
O101	O	1.151821	-1.097576	0.442814
C102	C	1.196857	-1.152045	0.398408
H103	H	1.170278	-1.166240	0.341944
H104	H	1.253094	-1.115677	0.392083
C105	C	1.238634	-1.224063	0.504066
C106	C	1.205985	-1.241504	0.434719
H107	H	1.244268	-1.279244	0.526466
H108	H	1.208295	-1.187364	0.533985
H109	H	1.285494	-1.193754	0.498786
H110	H	1.159122	-1.271802	0.440001
H111	H	1.236317	-1.278210	0.404802
H112	H	0.974059	-1.090433	0.264910
O113	O	0.613966	-0.548390	0.421410
C114	C	0.660854	-0.497089	0.471439
H115	H	0.675593	-0.428677	0.448799
H116	H	0.631720	-0.487258	0.526455
C117	C	0.713416	-0.630769	0.510162
C118	C	0.731523	-0.546747	0.482351
H119	H	0.757007	-0.661401	0.516896
H120	H	0.681825	-0.665332	0.476459
H121	H	0.689136	-0.622564	0.556005
H122	H	0.755794	-0.554953	0.436505
H123	H	0.763120	-0.512186	0.516047
O124	O	1.119916	-0.770525	0.411259
C125	C	1.102719	-0.793524	0.483509
H126	H	1.042715	-0.819489	0.485942
H127	H	1.139616	-0.848158	0.500223
C128	C	1.188848	-0.677883	0.533577
C129	C	1.115148	-0.709766	0.536567
H130	H	1.196517	-0.626219	0.566307
H131	H	1.200437	-0.662390	0.484901
H132	H	1.219586	-0.723419	0.547504
H133	H	1.084411	-0.664235	0.522631
H134	H	1.103554	-0.725250	0.585242
H135	H	1.133530	-0.329804	0.769739
H136	H	1.133546	-0.329758	0.909168
H137	H	0.952853	-0.539113	0.899245
