data_functionalizedCrystal
_audit_creation_method	'MofGen! by Chris Wilmer'
_symmetry_space_group_name_H-M	'P1'
_symmetry_Int_Tables_number	1
_symmetry_cell_setting	triclinic
loop_
_symmetry_equiv_pos_as_xyz
  x,y,z
_cell_length_a	21.395364
_cell_length_b	16.959453
_cell_length_c	21.395355
_cell_angle_alpha	90.017325
_cell_angle_beta	90.024552
_cell_angle_gamma	90.034939
loop_
_atom_site_label
_atom_site_type_symbol
_atom_site_fract_x
_atom_site_fract_y
_atom_site_fract_z
Zn1	Zn	0.957906	-0.314458	0.354267
Zn2	Zn	1.207906	-0.064458	0.604267
Zn3	Zn	1.457906	0.185542	0.854267
Zn4	Zn	1.707906	0.435542	1.104267
Zn5	Zn	0.957828	-0.446619	0.249491
Zn6	Zn	1.207828	-0.196619	0.499491
Zn7	Zn	1.457828	0.053381	0.749491
Zn8	Zn	1.707828	0.303381	0.999491
Zn9	Zn	0.853121	-0.314492	0.249503
Zn10	Zn	1.103121	-0.064492	0.499503
Zn11	Zn	1.353121	0.185508	0.749503
Zn12	Zn	1.603121	0.435508	0.999503
Zn13	Zn	0.853110	-0.446633	0.354232
Zn14	Zn	1.103110	-0.196633	0.604232
Zn15	Zn	1.353110	0.053367	0.854232
Zn16	Zn	1.603110	0.303367	1.104232
O17	O	0.905491	-0.380550	0.301873
O18	O	1.155491	-0.130550	0.551873
O19	O	1.405491	0.119450	0.801873
O20	O	1.655491	0.369450	1.051873
O21	O	1.045573	-0.331969	0.340378
O22	O	1.295573	-0.081969	0.590378
O23	O	1.545573	0.168031	0.840378
O24	O	1.795573	0.418031	1.090378
O25	O	0.943910	-0.429100	0.161815
O26	O	1.193910	-0.179100	0.411815
O27	O	1.443910	0.070900	0.661815
O28	O	1.693910	0.320900	0.911815
O29	O	0.867058	-0.203877	0.263420
O30	O	1.117058	0.046123	0.513420
O31	O	1.367058	0.296123	0.763420
O32	O	1.617058	0.546123	1.013420
O33	O	1.045516	-0.429067	0.263400
O34	O	1.295516	-0.179067	0.513400
O35	O	1.545516	0.070933	0.763400
O36	O	1.795516	0.320933	1.013400
O37	O	0.944043	-0.203851	0.340389
O38	O	1.194043	0.046149	0.590389
O39	O	1.444043	0.296149	0.840389
O40	O	1.694043	0.546149	1.090389
O41	O	0.866983	-0.332028	0.161824
O42	O	1.116983	-0.082028	0.411824
O43	O	1.366983	0.167972	0.661824
O44	O	1.616983	0.417972	0.911824
O45	O	0.765441	-0.332041	0.263386
O46	O	1.015441	-0.082041	0.513386
O47	O	1.265441	0.167959	0.763386
O48	O	1.515441	0.417959	1.013386
O49	O	0.867039	-0.429091	0.441914
O50	O	1.117039	-0.179091	0.691914
O51	O	1.367039	0.070909	0.941914
O52	O	1.617039	0.320909	1.191914
O53	O	0.765433	-0.429124	0.340329
O54	O	1.015433	-0.179124	0.590329
O55	O	1.265433	0.070876	0.840329
O56	O	1.515433	0.320876	1.090329
O57	O	0.944032	-0.331982	0.441940
O58	O	1.194032	-0.081982	0.691940
O59	O	1.444032	0.168018	0.941940
O60	O	1.694032	0.418018	1.191940
O61	O	0.943900	-0.557231	0.263366
O62	O	1.193900	-0.307231	0.513366
O63	O	1.443900	-0.057231	0.763366
O64	O	1.693900	0.192769	1.013366
O65	O	0.866963	-0.557242	0.340318
O66	O	1.116963	-0.307242	0.590318
O67	O	1.366963	-0.057242	0.840318
O68	O	1.616963	0.192758	1.090318
C69	C	0.742703	-0.380589	0.301856
C70	C	0.992703	-0.130589	0.551856
C71	C	1.242703	0.119411	0.801856
C72	C	1.492703	0.369411	1.051856
C73	C	0.673062	-0.380624	0.301863
C74	C	0.923062	-0.130624	0.551863
C75	C	1.173062	0.119376	0.801863
C76	C	1.423062	0.369376	1.051863
C77	C	0.640401	-0.330148	0.342007
C78	C	0.890401	-0.080148	0.592007
C79	C	1.140401	0.169852	0.842007
C80	C	1.390401	0.419852	1.092007
C81	C	0.574966	-0.330127	0.342010
C82	C	0.824966	-0.080127	0.592010
C83	C	1.074966	0.169873	0.842010
C84	C	1.324966	0.419873	1.092010
C85	C	0.542194	-0.380596	0.301874
C86	C	0.792194	-0.130596	0.551874
C87	C	1.042194	0.119404	0.801874
C88	C	1.292194	0.369404	1.051874
C89	C	0.574863	-0.431076	0.261722
C90	C	0.824863	-0.181076	0.511722
C91	C	1.074863	0.068924	0.761722
C92	C	1.324863	0.318924	1.011722
C93	C	0.640297	-0.431090	0.261717
C94	C	0.890297	-0.181090	0.511717
C95	C	1.140297	0.068910	0.761717
C96	C	1.390297	0.318910	1.011717
C97	C	0.438480	-0.451779	0.296838
C98	C	0.688480	-0.201779	0.546838
C99	C	0.938480	0.048221	0.796838
C100	C	1.188480	0.298221	1.046838
C101	C	0.373047	-0.451767	0.296848
C102	C	0.623047	-0.201767	0.546848
C103	C	0.873047	0.048233	0.796848
C104	C	1.123047	0.298233	1.046848
C105	C	0.340373	-0.380553	0.301888
C106	C	0.590373	-0.130553	0.551888
C107	C	0.840373	0.119447	0.801888
C108	C	1.090373	0.369447	1.051888
C109	C	0.373140	-0.309349	0.306932
C110	C	0.623140	-0.059349	0.556932
C111	C	0.873140	0.190651	0.806932
C112	C	1.123140	0.440651	1.056932
C113	C	0.438574	-0.309363	0.306926
C114	C	0.688574	-0.059363	0.556926
C115	C	0.938574	0.190637	0.806926
C116	C	1.188574	0.440637	1.056926
C117	C	0.471242	-0.380586	0.301876
C118	C	0.721242	-0.130586	0.551876
C119	C	0.971242	0.119414	0.801876
C120	C	1.221242	0.369414	1.051876
C121	C	0.236760	-0.330050	0.342037
C122	C	0.486760	-0.080050	0.592037
C123	C	0.736760	0.169950	0.842037
C124	C	0.986760	0.419950	1.092037
C125	C	0.171323	-0.330027	0.342036
C126	C	0.421323	-0.080027	0.592036
C127	C	0.671323	0.169973	0.842036
C128	C	0.921323	0.419973	1.092036
C129	C	0.171221	-0.430983	0.261751
C130	C	0.421221	-0.180983	0.511751
C131	C	0.671221	0.069017	0.761751
C132	C	0.921221	0.319017	1.011751
C133	C	0.236657	-0.430999	0.261750
C134	C	0.486657	-0.180999	0.511750
C135	C	0.736657	0.069001	0.761750
C136	C	0.986657	0.319001	1.011750
C137	C	0.269422	-0.380533	0.301896
C138	C	0.519422	-0.130533	0.551896
C139	C	0.769422	0.119467	0.801896
C140	C	1.019422	0.369467	1.051896
C141	C	0.905439	-0.585917	0.301850
C142	C	1.155439	-0.335917	0.551850
C143	C	1.405439	-0.085917	0.801850
C144	C	1.655439	0.164083	1.051850
C145	C	0.905474	-0.673773	0.301861
C146	C	1.155474	-0.423773	0.551861
C147	C	1.405474	-0.173773	0.801861
C148	C	1.655474	0.076227	1.051861
C149	C	0.945629	-1.045177	0.342027
C150	C	1.195629	-0.795177	0.592027
C151	C	1.445629	-0.545177	0.842027
C152	C	1.695629	-0.295177	1.092027
C153	C	0.865529	-1.045320	0.261813
C154	C	1.115529	-0.795320	0.511813
C155	C	1.365529	-0.545320	0.761813
C156	C	1.615529	-0.295320	1.011813
C157	C	0.865505	-0.962775	0.261798
C158	C	1.115505	-0.712775	0.511798
C159	C	1.365505	-0.462775	0.761798
C160	C	1.615505	-0.212775	1.011798
C161	C	0.905544	-0.921426	0.301899
C162	C	1.155544	-0.671426	0.551899
C163	C	1.405544	-0.421426	0.801899
C164	C	1.655544	-0.171426	1.051899
C165	C	0.945605	-0.962623	0.342015
C166	C	1.195605	-0.712623	0.592015
C167	C	1.445605	-0.462623	0.842015
C168	C	1.695605	-0.212623	1.092015
C169	C	0.825440	-0.921571	0.221688
C170	C	1.075440	-0.671571	0.471688
C171	C	1.325440	-0.421571	0.721688
C172	C	1.575440	-0.171571	0.971688
C173	C	0.825415	-0.839020	0.221673
C174	C	1.075415	-0.589020	0.471673
C175	C	1.325415	-0.339020	0.721673
C176	C	1.575415	-0.089020	0.971673
C177	C	0.865457	-0.797670	0.261771
C178	C	1.115457	-0.547670	0.511771
C179	C	1.365457	-0.297670	0.761771
C180	C	1.615457	-0.047670	1.011771
C181	C	0.905520	-0.838873	0.301888
C182	C	1.155520	-0.588873	0.551888
C183	C	1.405520	-0.338873	0.801888
C184	C	1.655520	-0.088873	1.051888
C185	C	0.945559	-0.797524	0.341989
C186	C	1.195559	-0.547524	0.591989
C187	C	1.445559	-0.297524	0.841989
C188	C	1.695559	-0.047524	1.091989
C189	C	0.985626	-0.838725	0.382103
C190	C	1.235626	-0.588725	0.632103
C191	C	1.485626	-0.338725	0.882103
C192	C	1.735626	-0.088725	1.132103
C193	C	0.985647	-0.921273	0.382113
C194	C	1.235647	-0.671273	0.632113
C195	C	1.485647	-0.421273	0.882113
C196	C	1.735647	-0.171273	1.132113
C197	C	0.865435	-0.715122	0.261760
C198	C	1.115435	-0.465122	0.511760
C199	C	1.365435	-0.215122	0.761760
C200	C	1.615435	0.034878	1.011760
C201	C	0.945535	-0.714971	0.341977
C202	C	1.195535	-0.464971	0.591977
C203	C	1.445535	-0.214971	0.841977
C204	C	1.695535	0.035029	1.091977
C205	C	1.068914	-0.380512	0.301891
C206	C	1.318914	-0.130512	0.551891
C207	C	1.568914	0.119488	0.801891
C208	C	1.818914	0.369488	1.051891
C209	C	1.138556	-0.380496	0.301899
C210	C	1.388556	-0.130496	0.551899
C211	C	1.638556	0.119504	0.801899
C212	C	1.888556	0.369504	1.051899
C213	C	0.905543	-0.380534	0.465297
C214	C	1.155543	-0.130534	0.715297
C215	C	1.405543	0.119466	0.965297
C216	C	1.655543	0.369466	1.215297
C217	C	0.905565	-0.380527	0.534938
C218	C	1.155565	-0.130527	0.784938
C219	C	1.405565	0.119473	1.034938
C220	C	1.655565	0.369473	1.284938
C221	C	0.905561	-0.174382	0.301910
C222	C	1.155561	0.075618	0.551910
C223	C	1.405561	0.325618	0.801910
C224	C	1.655561	0.575618	1.051910
C225	C	0.905590	-0.086525	0.301926
C226	C	1.155590	0.163475	0.551926
C227	C	1.405590	0.413475	0.801926
C228	C	1.655590	0.663475	1.051926
C229	C	0.905475	-0.380509	0.139086
C230	C	1.155475	-0.130509	0.389086
C231	C	1.405475	0.119491	0.639086
C232	C	1.655475	0.369491	0.889086
C233	C	0.905575	-0.380293	0.069445
C234	C	1.155575	-0.130293	0.319445
C235	C	1.405575	0.119707	0.569445
C236	C	1.655575	0.369707	0.819445
C237	C	0.945654	-0.329961	0.567665
C238	C	1.195654	-0.079961	0.817665
C239	C	1.445654	0.170039	1.067665
C240	C	1.695654	0.420039	1.317665
C241	C	0.945653	-0.329927	0.633101
C242	C	1.195653	-0.079927	0.883101
C243	C	1.445653	0.170073	1.133101
C244	C	1.695653	0.420073	1.383101
C245	C	0.905570	-0.380474	0.665806
C246	C	1.155570	-0.130474	0.915806
C247	C	1.405570	0.119526	1.165806
C248	C	1.655570	0.369526	1.415806
C249	C	0.865474	-0.431044	0.633071
C250	C	1.115474	-0.181044	0.883071
C251	C	1.365474	0.068956	1.133071
C252	C	1.615474	0.318956	1.383071
C253	C	0.865471	-0.431071	0.567637
C254	C	1.115471	-0.181071	0.817637
C255	C	1.365471	0.068929	1.067637
C256	C	1.615471	0.318929	1.317637
C257	C	0.900605	-0.451647	0.769473
C258	C	1.150605	-0.201647	1.019473
C259	C	1.400605	0.048353	1.269473
C260	C	1.650605	0.298353	1.519473
C261	C	0.900612	-0.451621	0.834906
C262	C	1.150612	-0.201621	1.084906
C263	C	1.400612	0.048379	1.334906
C264	C	1.650612	0.298379	1.584906
C265	C	0.905574	-0.380390	0.867627
C266	C	1.155574	-0.130390	1.117627
C267	C	1.405574	0.119610	1.367627
C268	C	1.655574	0.369610	1.617627
C269	C	0.910543	-0.309183	0.834907
C270	C	1.160543	-0.059183	1.084907
C271	C	1.410543	0.190817	1.334907
C272	C	1.660543	0.440817	1.584907
C273	C	0.910540	-0.309210	0.769473
C274	C	1.160540	-0.059210	1.019473
C275	C	1.410540	0.190790	1.269473
C276	C	1.660540	0.440790	1.519473
C277	C	0.905568	-0.380450	0.736759
C278	C	1.155568	-0.130450	0.986759
C279	C	1.405568	0.119550	1.236759
C280	C	1.655568	0.369550	1.486759
C281	C	0.945664	-0.329783	0.971307
C282	C	1.195664	-0.079783	1.221307
C283	C	1.445664	0.170217	1.471307
C284	C	1.695664	0.420217	1.721307
C285	C	0.945659	-0.329747	1.036744
C286	C	1.195659	-0.079747	1.286744
C287	C	1.445659	0.170253	1.536744
C288	C	1.695659	0.420253	1.786744
C289	C	0.865482	-0.430871	1.036713
C290	C	1.115482	-0.180871	1.286713
C291	C	1.365482	0.069129	1.536713
C292	C	1.615482	0.319129	1.786713
C293	C	0.865484	-0.430899	0.971277
C294	C	1.115484	-0.180899	1.221277
C295	C	1.365484	0.069101	1.471277
C296	C	1.615484	0.319101	1.721277
C297	C	0.905578	-0.380356	0.938578
C298	C	1.155578	-0.130356	1.188578
C299	C	1.405578	0.119644	1.438578
C300	C	1.655578	0.369644	1.688578
H301	H	0.548176	-0.472168	0.229043
H302	H	0.798176	-0.222168	0.479043
H303	H	1.048176	0.027832	0.729043
H304	H	1.298176	0.277832	0.979043
F305	F	0.822813	-0.484836	0.667879
F306	F	1.072813	-0.234836	0.917879
F307	F	1.322813	0.015164	1.167879
F308	F	1.572813	0.265164	1.417879
H309	H	0.667075	-0.289054	0.374697
H310	H	0.917075	-0.039054	0.624697
H311	H	1.167075	0.210946	0.874697
H312	H	1.417075	0.460946	1.124697
F313	F	0.988336	-0.275934	1.071575
F314	F	1.238336	-0.025934	1.321575
F315	F	1.488336	0.224066	1.571575
F316	F	1.738336	0.474066	1.821575
F317	F	0.782821	-0.965581	0.179023
F318	F	1.032821	-0.715581	0.429023
F319	F	1.282821	-0.465581	0.679023
F320	F	1.532821	-0.215581	0.929023
F321	F	0.136347	-0.484692	0.219032
F322	F	0.386347	-0.234692	0.469032
F323	F	0.636347	0.015308	0.719032
F324	F	0.886347	0.265308	0.969032
H325	H	0.914585	-0.251180	0.861547
H326	H	1.164585	-0.001180	1.111547
H327	H	1.414585	0.248820	1.361547
H328	H	1.664585	0.498820	1.611547
F329	F	0.915825	-0.233428	0.734653
F330	F	1.165825	0.016572	0.984653
F331	F	1.415825	0.266572	1.234653
F332	F	1.665825	0.516572	1.484653
F333	F	0.271633	-0.276336	0.384760
F334	F	0.521633	-0.026336	0.634760
F335	F	0.771633	0.223664	0.884760
F336	F	1.021633	0.473664	1.134760
F337	F	0.675058	-0.484814	0.218986
F338	F	0.925058	-0.234814	0.468986
F339	F	1.175058	0.015186	0.718986
F340	F	1.425058	0.265186	0.968986
F341	F	0.988323	-0.276165	0.532869
F342	F	1.238323	-0.026165	0.782869
F343	F	1.488323	0.223835	1.032869
F344	F	1.738323	0.473835	1.282869
H345	H	0.346538	-0.251360	0.311036
H346	H	0.596538	-0.001360	0.561036
H347	H	0.846538	0.248640	0.811036
H348	H	1.096538	0.498640	1.061036
F349	F	0.271418	-0.484720	0.219020
F350	F	0.521418	-0.234720	0.469020
F351	F	0.771418	0.015280	0.719020
F352	F	1.021418	0.265280	0.969020
H353	H	0.978252	-1.078726	0.374685
H354	H	1.228252	-0.828726	0.624685
H355	H	1.478252	-0.578726	0.874685
H356	H	1.728252	-0.328726	1.124685
F357	F	0.822795	-0.671276	0.219073
F358	F	1.072795	-0.421276	0.469073
F359	F	1.322795	-0.171276	0.719073
F360	F	1.572795	0.078724	0.969073
F361	F	0.338180	-0.527548	0.291490
F362	F	0.588180	-0.277548	0.541490
F363	F	0.838180	-0.027548	0.791490
F364	F	1.088180	0.222452	1.041490
H365	H	1.018267	-0.954827	0.414772
H366	H	1.268267	-0.704827	0.664772
H367	H	1.518267	-0.454827	0.914772
H368	H	1.768267	-0.204827	1.164772
H369	H	0.978297	-0.288746	0.659753
H370	H	1.228297	-0.038746	0.909753
H371	H	1.478297	0.211254	1.159753
H372	H	1.728297	0.461254	1.409753
F373	F	0.136563	-0.276297	0.384762
F374	F	0.386563	-0.026297	0.634762
F375	F	0.636563	0.223703	0.884762
F376	F	0.886563	0.473703	1.134762
F377	F	0.822912	-1.089328	0.219145
F378	F	1.072912	-0.839328	0.469145
F379	F	1.322912	-0.589328	0.719145
F380	F	1.572912	-0.339328	0.969145
H381	H	0.465078	-0.509775	0.292733
H382	H	0.715078	-0.259775	0.542733
H383	H	0.965078	-0.009775	0.792733
H384	H	1.215078	0.240225	1.042733
H385	H	0.978307	-0.288623	0.944683
H386	H	1.228307	-0.038623	1.194683
H387	H	1.478307	0.211377	1.444683
H388	H	1.728307	0.461377	1.694683
F389	F	0.822801	-0.484893	0.532804
F390	F	1.072801	-0.234893	0.782804
F391	F	1.322801	0.015107	1.032804
F392	F	1.572801	0.265107	1.282804
F393	F	0.988154	-0.670971	0.384656
F394	F	1.238154	-0.420971	0.634656
F395	F	1.488154	-0.170971	0.884656
F396	F	1.738154	0.079029	1.134656
F397	F	0.822818	-0.484661	1.071516
F398	F	1.072818	-0.234661	1.321516
F399	F	1.322818	0.015339	1.571516
F400	F	1.572818	0.265339	1.821516
H401	H	0.832844	-0.472081	0.944630
H402	H	1.082844	-0.222081	1.194630
H403	H	1.332844	0.027919	1.444630
H404	H	1.582844	0.277919	1.694630
F405	F	0.895329	-0.527406	0.869723
F406	F	1.145329	-0.277406	1.119723
F407	F	1.395329	-0.027406	1.369723
F408	F	1.645329	0.222594	1.619723
H409	H	0.792791	-0.805479	0.189010
H410	H	1.042791	-0.555479	0.439010
H411	H	1.292791	-0.305479	0.689010
H412	H	1.542791	-0.055479	0.939010
H413	H	0.548368	-0.289019	0.374699
H414	H	0.798368	-0.039019	0.624699
H415	H	1.048368	0.210981	0.874699
H416	H	1.298368	0.460981	1.124699
F417	F	0.473445	-0.233586	0.312291
F418	F	0.723445	0.016414	0.562291
F419	F	0.973445	0.266414	0.812291
F420	F	1.223445	0.516414	1.062291
F421	F	0.895337	-0.527467	0.734655
F422	F	1.145337	-0.277467	0.984655
F423	F	1.395337	-0.027467	1.234655
F424	F	1.645337	0.222533	1.484655
H425	H	1.018223	-0.805050	0.414756
H426	H	1.268223	-0.555050	0.664756
H427	H	1.518223	-0.305050	0.914756
H428	H	1.768223	-0.055050	1.164756
