data_functionalizedCrystal
_audit_creation_method	'MofGen! by Chris Wilmer'
_symmetry_space_group_name_H-M	'P1'
_symmetry_Int_Tables_number	1
_symmetry_cell_setting	triclinic
loop_
_symmetry_equiv_pos_as_xyz
  x,y,z
_cell_length_a	12.759401
_cell_length_b	16.625546
_cell_length_c	12.759393
_cell_angle_alpha	89.963756
_cell_angle_beta	89.980163
_cell_angle_gamma	90.023993
loop_
_atom_site_label
_atom_site_type_symbol
_atom_site_fract_x
_atom_site_fract_y
_atom_site_fract_z
Zn1	Zn	1.606198	-0.320921	-0.593986
Zn2	Zn	2.106198	0.179079	-0.093986
Zn3	Zn	1.606069	-0.455778	-0.418292
Zn4	Zn	2.106069	0.044222	0.081708
Zn5	Zn	1.430500	-0.320966	-0.418322
Zn6	Zn	1.930500	0.179034	0.081678
Zn7	Zn	1.430465	-0.455719	-0.593930
Zn8	Zn	1.930465	0.044281	-0.093930
O9	O	1.518308	-0.388346	-0.506132
O10	O	2.018308	0.111654	-0.006132
O11	O	1.753202	-0.338816	-0.570692
O12	O	2.253202	0.161184	-0.070692
O13	O	1.582740	-0.437938	-0.271275
O14	O	2.082740	0.062062	0.228725
O15	O	1.453876	-0.208128	-0.441660
O16	O	1.953876	0.291872	0.058340
O17	O	1.753107	-0.437894	-0.441610
O18	O	2.253107	0.062106	0.058390
O19	O	1.582960	-0.208094	-0.570720
O20	O	2.082960	0.291906	-0.070720
O21	O	1.453751	-0.338893	-0.271297
O22	O	1.953751	0.161107	0.228703
O23	O	1.283475	-0.338836	-0.441605
O24	O	1.783475	0.161164	0.058395
O25	O	1.453816	-0.437794	-0.740958
O26	O	1.953816	0.062206	-0.240958
O27	O	1.283449	-0.437838	-0.570623
O28	O	1.783449	0.062162	-0.070623
O29	O	1.582926	-0.338758	-0.741000
O30	O	2.082926	0.161242	-0.241000
O31	O	1.582706	-0.568602	-0.441555
O32	O	2.082706	-0.068602	0.058445
O33	O	1.453690	-0.568559	-0.570595
O34	O	1.953690	-0.068559	-0.070595
C35	C	1.245341	-0.388336	-0.506112
C36	C	1.745341	0.111664	-0.006112
C37	C	1.128564	-0.388351	-0.506128
C38	C	1.628564	0.111649	-0.006128
C39	C	1.073716	-0.439980	-0.573202
C40	C	1.573716	0.060020	-0.073202
C41	C	0.963992	-0.439983	-0.573223
C42	C	1.463992	0.060017	-0.073223
C43	C	0.963974	-0.336726	-0.439086
C44	C	1.463974	0.163274	0.060914
C45	C	1.073696	-0.336720	-0.439071
C46	C	1.573696	0.163280	0.060929
C47	C	1.518209	-0.597837	-0.506088
C48	C	2.018209	-0.097837	-0.006088
C49	C	1.518262	-0.687458	-0.506105
C50	C	2.018262	-0.187458	-0.006105
C51	C	1.518446	-1.015633	-0.506214
C52	C	2.018446	-0.515633	-0.006214
C53	C	1.518391	-0.924325	-0.506187
C54	C	2.018391	-0.424325	-0.006187
C55	C	1.518353	-0.851549	-0.506159
C56	C	2.018353	-0.351549	-0.006159
C57	C	1.518300	-0.760234	-0.506132
C58	C	2.018300	-0.260234	-0.006132
C59	C	1.792341	-0.388356	-0.506154
C60	C	2.292341	0.111644	-0.006154
C61	C	1.909118	-0.388361	-0.506163
C62	C	2.409118	0.111639	-0.006163
C63	C	1.518382	-0.388264	-0.780166
C64	C	2.018382	0.111736	-0.280166
C65	C	1.518413	-0.388230	-0.896943
C66	C	2.018413	0.111770	-0.396943
C67	C	1.518437	-0.178037	-0.506200
C68	C	2.018437	0.321963	-0.006200
C69	C	1.518491	-0.088416	-0.506228
C70	C	2.018491	0.411584	-0.006228
C71	C	1.451272	-0.336647	-0.951815
C72	C	1.951272	0.163353	-0.451815
C73	C	1.451297	-0.336623	-1.061539
C74	C	1.951297	0.163377	-0.561539
C75	C	1.585611	-0.439765	-1.061509
C76	C	2.085611	0.060235	-0.561509
C77	C	1.585581	-0.439793	-0.951786
C78	C	2.085581	0.060207	-0.451786
C79	C	1.518296	-0.388369	-0.233165
C80	C	2.018296	0.111631	0.266835
C81	C	1.518468	-0.388177	-0.116389
C82	C	2.018468	0.111823	0.383611
H83	H	0.919340	-0.482023	-0.627843
H84	H	1.419340	0.017977	-0.127843
C85	C	1.659493	-0.496487	-1.121831
C86	C	2.159493	0.003513	-0.621831
C87	C	1.778930	-0.489933	-1.106750
C88	C	2.278930	0.010067	-0.606750
C89	C	1.852813	-0.546661	-1.167065
C90	C	2.352813	-0.046661	-0.667065
C91	C	1.807259	-0.609943	-1.242461
C92	C	2.307259	-0.109943	-0.742461
C93	C	1.687816	-0.616500	-1.257546
C94	C	2.187816	-0.116500	-0.757546
C95	C	1.613933	-0.559773	-1.197230
C96	C	2.113933	-0.059773	-0.697230
H97	H	1.812658	-0.443085	-1.050934
H98	H	2.312658	0.056915	-0.550934
H99	H	1.941232	-0.541806	-1.155899
H100	H	2.441232	-0.041806	-0.655899
H101	H	1.861951	-0.651936	-1.287110
H102	H	2.361951	-0.151936	-0.787110
H103	H	1.654088	-0.663348	-1.313361
H104	H	2.154088	-0.163348	-0.813361
H105	H	1.525513	-0.564627	-1.208397
H106	H	2.025513	-0.064627	-0.708397
H107	H	1.118387	-0.482020	-0.627806
H108	H	1.618387	0.017980	-0.127806
H109	H	1.118354	-0.294673	-0.384451
H110	H	1.618354	0.205327	0.115549
C111	C	0.903611	-0.279941	-0.365322
C112	C	1.403611	0.220059	0.134678
C113	C	0.828224	-0.216688	-0.411010
C114	C	1.328224	0.283312	0.088990
C115	C	0.767862	-0.159903	-0.337243
C116	C	1.267862	0.340097	0.162757
C117	C	0.782887	-0.166370	-0.217789
C118	C	1.282887	0.333630	0.282211
C119	C	0.858277	-0.229626	-0.172095
C120	C	1.358277	0.270374	0.327905
C121	C	0.918639	-0.286411	-0.245862
C122	C	1.418639	0.213589	0.254138
H123	H	0.817099	-0.211898	-0.499442
H124	H	1.317099	0.288102	0.000558
H125	H	0.712054	-0.113077	-0.371069
H126	H	1.212054	0.386923	0.128931
H127	H	0.738203	-0.124335	-0.163182
H128	H	1.238203	0.375665	0.336818
H129	H	0.869402	-0.234416	-0.083663
H130	H	1.369402	0.265584	0.416337
H131	H	0.974447	-0.333236	-0.212036
H132	H	1.474447	0.166764	0.287964
H133	H	1.396579	-0.294661	-0.907165
H134	H	1.896579	0.205339	-0.407165
C135	C	1.377444	-0.279877	-1.121898
C136	C	1.877444	0.220123	-0.621898
C137	C	1.258000	-0.286447	-1.106793
C138	C	1.758000	0.213553	-0.606793
C139	C	1.184143	-0.229699	-1.167151
C140	C	1.684143	0.270301	-0.667151
C141	C	1.229731	-0.166382	-1.242614
C142	C	1.729731	0.333618	-0.742614
C143	C	1.349181	-0.159810	-1.257722
C144	C	1.849181	0.340190	-0.757722
C145	C	1.423038	-0.216557	-1.197364
C146	C	1.923038	0.283443	-0.697364
H147	H	1.224248	-0.333320	-1.050928
H148	H	1.724248	0.166680	-0.550928
H149	H	1.095718	-0.234565	-1.155967
H150	H	1.595718	0.265435	-0.655967
H151	H	1.175057	-0.124374	-1.287294
H152	H	1.675057	0.375626	-0.787294
H153	H	1.382933	-0.112936	-1.313587
H154	H	1.882933	0.387064	-0.813587
H155	H	1.511463	-0.211692	-1.208549
H156	H	2.011463	0.288308	-0.708549
H157	H	1.640257	-0.481801	-0.907108
H158	H	2.140257	0.018199	-0.407108
