data_functionalizedCrystal
_audit_creation_method	'MofGen! by Chris Wilmer'
_symmetry_space_group_name_H-M	'P1'
_symmetry_Int_Tables_number	1
_symmetry_cell_setting	triclinic
loop_
_symmetry_equiv_pos_as_xyz
  x,y,z
_cell_length_a	18.050591
_cell_length_b	12.759400
_cell_length_c	12.759393
_cell_angle_alpha	90.026109
_cell_angle_beta	90.029475
_cell_angle_gamma	89.996541
loop_
_atom_site_label
_atom_site_type_symbol
_atom_site_fract_x
_atom_site_fract_y
_atom_site_fract_z
Zn1	Zn	-1.135472	0.418388	-0.594330
Zn2	Zn	-1.135422	0.594107	-0.418667
Zn3	Zn	-1.011276	0.418422	-0.418636
Zn4	Zn	-1.011293	0.594005	-0.594275
O5	O	-1.073366	0.506230	-0.506477
O6	O	-1.239390	0.441725	-0.571065
O7	O	-1.118926	0.570859	-0.271642
O8	O	-1.027765	0.271397	-0.441952
O9	O	-1.239353	0.570825	-0.442006
O10	O	-1.119010	0.271371	-0.571034
O11	O	-1.027717	0.441784	-0.271619
O12	O	-0.907354	0.441686	-0.441899
O13	O	-1.027794	0.570652	-0.741304
O14	O	-0.907366	0.570686	-0.570940
O15	O	-1.119027	0.441627	-0.741344
O16	O	-1.118943	0.741114	-0.441952
O17	O	-1.027746	0.741040	-0.570970
C18	C	-0.880414	0.506179	-0.506411
C19	C	-0.797868	0.506182	-0.506407
C20	C	-0.549014	0.435941	-0.436382
C21	C	-0.598446	0.410345	-0.532264
C22	C	-0.500747	0.506214	-0.506471
C23	C	-0.598397	0.531745	-0.410563
C24	C	-0.646733	0.506196	-0.506434
C25	C	-0.549092	0.480568	-0.602404
C26	C	-0.549039	0.602013	-0.480639
C27	C	-0.598449	0.576453	-0.576587
C28	C	-0.416649	0.506222	-0.506491
C29	C	-0.730829	0.506188	-0.506426
C30	C	-0.267071	0.506264	-0.506526
C31	C	-0.349617	0.506231	-0.506500
C32	C	-1.073391	0.232197	-0.506496
C33	C	-1.073402	0.115421	-0.506504
C34	C	-1.025925	0.060522	-0.573677
C35	C	-1.025939	-0.049202	-0.573687
C36	C	-1.120908	-0.049119	-0.439343
C37	C	-1.120898	0.060603	-0.439338
C38	C	-0.999441	-0.199211	-0.697589
C39	C	-0.951953	-0.254114	-0.764753
C40	C	-0.879488	-0.218530	-0.780855
C41	C	-0.854497	-0.128045	-0.729777
C42	C	-0.901981	-0.073149	-0.662605
C43	C	-0.974456	-0.108731	-0.646524
C44	C	-1.147388	0.210614	-0.315435
C45	C	-1.194869	0.265512	-0.248258
C46	C	-1.267335	0.229931	-0.232145
C47	C	-1.292324	0.139443	-0.283204
C48	C	-1.244843	0.084544	-0.350382
C49	C	-1.172377	0.120134	-0.366496
C50	C	-1.073361	0.779198	-0.506482
C51	C	-1.073426	0.895974	-0.506519
C52	C	-1.073418	0.506124	-0.780511
C53	C	-1.073440	0.506079	-0.897288
C54	C	-1.025964	0.438858	-0.952137
C55	C	-1.025981	0.438825	-1.061861
C56	C	-1.120956	0.573239	-1.061877
C57	C	-1.120935	0.573275	-0.952154
C58	C	-0.938430	0.401211	-1.211787
C59	C	-0.890961	0.333973	-1.266640
C60	C	-0.879562	0.231467	-1.231038
C61	C	-0.915644	0.196178	-1.140584
C62	C	-0.963119	0.263411	-1.085736
C63	C	-0.974503	0.365931	-1.121337
C64	C	-1.208487	0.610879	-0.802227
C65	C	-1.255966	0.678107	-0.747377
C66	C	-1.267372	0.780614	-0.782978
C67	C	-1.231303	0.815899	-0.873435
C68	C	-1.183824	0.748672	-0.928285
C69	C	-1.172417	0.646165	-0.892677
C70	C	-1.073357	0.506260	-0.233510
C71	C	-1.073479	0.506010	-0.116734
H72	H	-0.620016	0.635873	-0.635911
F73	F	-0.520904	0.452208	-0.708429
F74	F	-1.317911	0.852159	-0.724603
H75	H	-0.527311	0.376476	-0.377198
F76	F	-1.145436	0.786228	-1.024559
H77	H	-0.620057	0.553347	-0.329471
F78	F	-0.520648	0.707885	-0.452054
F79	F	-1.070260	0.248491	-0.332581
H80	H	-0.987290	0.384142	-0.907468
F81	F	-0.978553	-0.350409	-0.819113
H82	H	-0.992499	0.234677	-1.012094
H83	H	-0.947697	0.484683	-1.240775
H84	H	-0.987256	0.105151	-0.628375
H85	H	-0.881634	0.000522	-0.621020
H86	H	-1.265194	0.010862	-0.391953
H87	H	-0.620135	0.329318	-0.554117
F88	F	-1.076571	-0.237079	-0.680472
H89	H	-0.795489	-0.099077	-0.742897
F90	F	-1.294358	0.640548	-0.651107
H91	H	-0.861583	0.362715	-1.340288
F92	F	-1.243446	0.924998	-0.911331
H93	H	-1.199183	0.527420	-0.773211
H94	H	-1.159577	-0.093763	-0.384656
F95	F	-1.369449	0.101565	-0.266049
H96	H	-0.906366	0.112703	-1.111610
H97	H	-0.840823	-0.263240	-0.835540
F98	F	-0.829043	0.159909	-1.289421
H99	H	-1.305992	0.274635	-0.177435
H100	H	-1.174518	0.339195	-0.206686
F101	F	-1.171502	0.644748	-1.120279
