data_functionalizedCrystal
_audit_creation_method	'MofGen! by Chris Wilmer'
_symmetry_space_group_name_H-M	'P1'
_symmetry_Int_Tables_number	1
_symmetry_cell_setting	triclinic
loop_
_symmetry_equiv_pos_as_xyz
  x,y,z
_cell_length_a	11.792241
_cell_length_b	11.026607
_cell_length_c	10.065918
_cell_angle_alpha	82.291637
_cell_angle_beta	99.762002
_cell_angle_gamma	83.610284
loop_
_atom_site_label
_atom_site_type_symbol
_atom_site_fract_x
_atom_site_fract_y
_atom_site_fract_z
O1	O	0.494000	-1.629339	0.113506
O2	O	0.994000	-1.129339	0.613506
O3	O	0.439808	-1.275676	0.113506
O4	O	0.939808	-0.775676	0.613506
O5	O	0.303436	-1.461089	0.113496
O6	O	0.803436	-0.961089	0.613496
O7	O	0.630372	-1.443927	0.113516
O8	O	1.130372	-0.943927	0.613516
O9	O	0.267251	-1.428986	-0.113494
O10	O	0.767251	-0.928986	0.386506
O11	O	0.403623	-1.243574	-0.113484
O12	O	0.903623	-0.743574	0.386516
O13	O	0.457815	-1.597237	-0.113484
O14	O	0.957815	-1.097237	0.386516
Zn15	Zn	0.424974	-1.415309	-0.149524
Zn16	Zn	0.924974	-0.915309	0.350476
Zn17	Zn	0.472649	-1.457605	0.149545
Zn18	Zn	0.972649	-0.957605	0.649545
O19	O	0.594187	-1.411824	-0.113475
O20	O	1.094187	-0.911824	0.386525
C21	C	0.242839	-1.443960	0.000002
C22	C	0.742839	-0.943960	0.500002
C23	C	0.116184	-1.440732	0.000003
C24	C	0.616184	-0.940732	0.500003
C25	C	0.411718	-1.214349	0.000011
C26	C	0.911718	-0.714349	0.500011
C27	C	0.381915	-1.079439	0.000011
C28	C	0.881915	-0.579439	0.500011
C29	C	0.485905	-1.658565	0.000014
C30	C	0.985905	-1.158565	0.500014
C31	C	0.515709	-1.793476	0.000023
C32	C	1.015709	-1.293476	0.500023
C33	C	-0.115703	-1.434801	0.000026
C34	C	0.384297	-0.934801	0.500026
C35	C	0.013335	-1.438097	0.000013
C36	C	0.513335	-0.938097	0.500013
C37	C	0.654785	-1.428954	0.000023
C38	C	1.154785	-0.928954	0.500023
C39	C	0.781440	-1.432182	0.000031
C40	C	1.281440	-0.932182	0.500031
N41	N	0.392438	-1.386451	-0.353631
N42	N	0.892438	-0.886451	0.146369
C43	C	0.464207	-1.006175	0.000017
C44	C	0.964207	-0.506175	0.500017
C45	C	0.433406	-0.866738	0.000017
C46	C	0.933406	-0.366738	0.500017
C47	C	0.461327	-1.447556	-0.421407
C48	C	0.961327	-0.947556	0.078593
C49	C	0.436278	-1.425358	-0.578575
C50	C	0.936278	-0.925358	-0.078575
N51	N	0.505178	-1.486471	0.353652
N52	N	1.005178	-0.986471	0.853652
H53	H	0.557460	-1.046680	0.000015
H54	H	1.057460	-0.546680	0.500015
C55	C	0.641703	-0.848183	0.000031
C56	C	1.141703	-0.348183	0.500031
N57	N	0.736600	-0.889390	0.000040
N58	N	1.236600	-0.389390	0.500040
H59	H	0.288666	-1.038938	0.000041
H60	H	0.788666	-0.538938	0.500041
C61	C	0.609919	-1.579352	-0.567561
C62	C	1.109919	-1.079352	-0.067561
N63	N	0.688811	-1.649306	-0.508217
N64	N	1.188811	-1.149306	-0.008217
H65	H	0.340151	-0.826243	0.000046
H66	H	0.840151	-0.326243	0.500046
H67	H	0.538847	-1.516310	-0.363076
H68	H	1.038847	-1.016310	0.136924
H69	H	0.358748	-1.356608	-0.636900
H70	H	0.858748	-0.856608	-0.136900
H71	H	0.314913	-1.317706	-0.411961
H72	H	0.814913	-0.817706	0.088039
