data_functionalizedCrystal
_audit_creation_method	'MofGen! by Chris Wilmer'
_symmetry_space_group_name_H-M	'P1'
_symmetry_Int_Tables_number	1
_symmetry_cell_setting	triclinic
loop_
_symmetry_equiv_pos_as_xyz
  x,y,z
_cell_length_a	10.654550
_cell_length_b	13.339070
_cell_length_c	9.130313
_cell_angle_alpha	90.000326
_cell_angle_beta	89.996220
_cell_angle_gamma	100.057099
loop_
_atom_site_label
_atom_site_type_symbol
_atom_site_fract_x
_atom_site_fract_y
_atom_site_fract_z
O1	O	1.715926	0.142430	-0.121918
O2	O	1.355030	0.156000	-0.121894
O3	O	1.494059	0.001661	-0.121899
O4	O	1.576897	0.296769	-0.121913
O5	O	1.494058	0.001665	0.121700
O6	O	1.355029	0.156004	0.121705
O7	O	1.715925	0.142434	0.121681
Cu8	Cu	1.535477	0.149219	0.143935
Cu9	Cu	1.535478	0.149215	-0.144149
O10	O	1.576896	0.296773	0.121686
C11	C	1.307895	0.155006	-0.000092
C12	C	1.167445	0.152025	-0.000083
C13	C	1.118643	0.242897	-0.000108
C14	C	0.986674	0.240090	-0.000134
C15	C	0.952320	0.055530	-0.000113
C16	C	1.084286	0.058338	-0.000078
C17	C	1.138476	0.349452	-0.000126
C18	C	1.006507	0.346644	-0.000152
C19	C	1.480065	-0.036124	-0.000101
C20	C	1.438355	-0.148719	-0.000104
C21	C	1.762670	-0.511236	-0.000124
C22	C	1.801862	-0.405449	-0.000113
C23	C	1.710989	-0.341261	-0.000111
C24	C	1.580916	-0.382872	-0.000120
C25	C	1.541720	-0.488670	-0.000119
C26	C	1.490039	-0.318694	-0.000106
C27	C	1.359966	-0.360305	-0.000115
C28	C	1.320776	-0.466093	-0.000116
C29	C	1.411650	-0.530280	-0.000117
C30	C	1.529235	-0.212896	-0.000107
C31	C	1.308285	-0.190329	-0.000102
C32	C	1.269093	-0.296117	-0.000113
C33	C	1.763060	0.143428	-0.000125
C34	C	1.903510	0.146409	-0.000144
C35	C	1.590890	0.334559	-0.000116
C36	C	1.632600	0.447153	-0.000122
N37	N	1.535485	0.149222	0.346558
N38	N	1.535477	0.149204	-0.346771
C39	C	1.597077	0.080904	0.423208
C40	C	1.597069	0.080892	0.576545
C41	C	1.473877	0.217525	0.576568
C42	C	1.473878	0.217531	0.423234
C43	C	1.668206	0.002023	0.423195
C44	C	1.668198	0.002011	0.576532
H45	H	0.978331	0.386791	-0.102107
C46	C	1.137972	-0.041618	-0.000036
H47	H	1.228476	-0.026531	-0.000003
H48	H	1.109307	-0.080004	-0.084980
H49	H	1.109266	-0.079983	0.084927
C50	C	1.406137	0.292684	0.338917
H51	H	1.414955	0.282904	0.236614
H52	H	1.443389	0.360465	0.364059
H53	H	1.318264	0.281035	0.364044
C54	C	0.959486	0.390176	0.141888
H55	H	0.869768	0.386751	0.137022
H56	H	0.999861	0.459088	0.153084
H57	H	0.979802	0.351532	0.223185
H58	H	0.884597	-0.020747	-0.000132
C59	C	1.754099	-0.224898	-0.000118
H60	H	1.844578	-0.209309	-0.000128
H61	H	1.722159	-0.196789	0.084823
H62	H	1.722172	-0.196805	-0.085084
H63	H	1.181878	0.391127	0.101823
C64	C	1.202132	0.395292	-0.142193
H65	H	1.139161	0.413767	-0.205480
H66	H	1.243248	0.346414	-0.189383
H67	H	1.263248	0.453991	-0.119358
H68	H	1.770577	0.019386	0.618141
C69	C	1.802644	0.035387	0.358919
H70	H	1.798059	0.034262	0.255003
H71	H	1.856527	-0.009938	0.391035
H72	H	1.836276	0.102439	0.391049
H73	H	1.907767	-0.371577	-0.000104
H74	H	1.635141	-0.179028	-0.000099
H75	H	1.836644	-0.563506	-0.000114
C76	C	1.368541	-0.646648	-0.000121
H77	H	1.441293	-0.678911	-0.000117
H78	H	1.318873	-0.666414	-0.085065
H79	H	1.318878	-0.666413	0.084843
C80	C	1.593402	-0.097496	0.640784
H81	H	1.560103	-0.141803	0.563292
H82	H	1.525292	-0.082604	0.699356
H83	H	1.648687	-0.129480	0.699328
H84	H	1.214863	-0.499968	-0.000111
C85	C	1.126021	-0.341896	-0.000108
H86	H	1.115700	-0.414094	-0.000098
H87	H	1.087050	-0.319924	-0.085052
H88	H	1.087052	-0.319926	0.084855
H89	H	1.234288	-0.138068	-0.000093
H90	H	1.423717	0.273140	0.639014
H91	H	1.620444	-0.075923	0.381581
