data_functionalizedCrystal
_audit_creation_method	'MofGen! by Chris Wilmer'
_symmetry_space_group_name_H-M	'P1'
_symmetry_Int_Tables_number	1
_symmetry_cell_setting	triclinic
loop_
_symmetry_equiv_pos_as_xyz
  x,y,z
_cell_length_a	11.026607
_cell_length_b	14.519709
_cell_length_c	10.065875
_cell_angle_alpha	98.804604
_cell_angle_beta	79.302338
_cell_angle_gamma	96.133081
loop_
_atom_site_label
_atom_site_type_symbol
_atom_site_fract_x
_atom_site_fract_y
_atom_site_fract_z
O1	O	1.628737	0.375708	-0.113512
O2	O	1.275335	0.331718	-0.113511
O3	O	1.461404	0.221020	-0.113499
O4	O	1.442668	0.486407	-0.113524
O5	O	1.425923	0.242237	0.113487
O6	O	1.239855	0.352935	0.113475
O7	O	1.593256	0.396926	0.113475
Zn8	Zn	1.410922	0.378299	0.149514
Zn9	Zn	1.457669	0.350345	-0.149550
O10	O	1.407187	0.507624	0.113463
C11	C	1.212366	0.334211	-0.000018
C12	C	1.077600	0.310019	-0.000017
C13	C	1.003940	0.376818	-0.000024
C14	C	0.864652	0.351815	-0.000024
C15	C	1.442790	0.197125	-0.000006
C16	C	1.440173	0.094312	-0.000005
C17	C	1.430544	-0.282174	-0.000040
C18	C	1.433218	-0.177425	-0.000030
C19	C	1.435358	-0.093934	-0.000021
C20	C	1.438033	0.010822	-0.000014
C21	C	1.656225	0.394432	-0.000022
C22	C	1.790993	0.418624	-0.000031
C23	C	1.425802	0.531519	-0.000034
C24	C	1.428420	0.634330	-0.000043
N25	N	1.379027	0.397378	0.353617
N26	N	1.489574	0.331260	-0.353654
C27	C	1.446564	0.356976	0.421401
C28	C	1.422027	0.371668	0.578566
H29	H	1.037548	0.234317	-0.000045
H30	H	1.522548	0.311504	0.363081
O31	O	0.844018	0.518908	-0.000033
H32	H	0.915496	0.524476	-0.092553
O33	O	1.278373	0.457612	0.430852
H34	H	1.274903	0.459706	0.542176
O35	O	1.590227	0.271020	0.569110
H36	H	1.680713	0.300866	0.596436
O37	O	1.056980	0.477094	-0.000033
H38	H	1.158061	0.480995	-0.000040
H39	H	0.824606	0.276108	-0.000052
O40	O	1.321368	0.431905	0.655795
H41	H	1.317898	0.433999	0.767120
