data_functionalizedCrystal
_audit_creation_method	'MofGen! by Chris Wilmer'
_symmetry_space_group_name_H-M	'P1'
_symmetry_Int_Tables_number	1
_symmetry_cell_setting	triclinic
loop_
_symmetry_equiv_pos_as_xyz
  x,y,z
_cell_length_a	19.288840
_cell_length_b	9.065215
_cell_length_c	18.366186
_cell_angle_alpha	89.994788
_cell_angle_beta	89.983729
_cell_angle_gamma	84.070357
loop_
_atom_site_label
_atom_site_type_symbol
_atom_site_fract_x
_atom_site_fract_y
_atom_site_fract_z
O1	O	0.922790	0.183855	-0.060670
O2	O	0.720720	0.208720	-0.060645
O3	O	0.825933	-0.018502	-0.060655
O4	O	0.817578	0.411077	-0.060660
O5	O	0.825915	-0.018513	0.060445
O6	O	0.720702	0.208708	0.060455
O7	O	0.922772	0.183844	0.060429
Zn8	Zn	0.821734	0.196275	0.079669
Zn9	Zn	0.821758	0.196289	-0.079884
O10	O	0.817559	0.411066	0.060439
C11	C	0.694828	0.207920	-0.000092
C12	C	0.617705	0.205537	-0.000082
C13	C	0.581503	0.204398	-0.066095
C14	C	0.509038	0.202143	-0.066104
C15	C	0.472781	0.200996	-0.000096
C16	C	0.508992	0.202143	0.065926
C17	C	0.581454	0.204414	0.065933
C18	C	0.362747	0.110986	0.050466
C19	C	0.290287	0.108706	0.050457
C20	C	0.249283	0.194000	-0.000115
C21	C	0.280749	0.281554	-0.050689
C22	C	0.353212	0.283824	-0.050682
C23	C	0.394208	0.198535	-0.000096
C24	C	0.134506	0.190417	-0.066142
C25	C	0.062040	0.188171	-0.066148
C26	C	0.061995	0.188157	0.065883
C27	C	0.134459	0.190418	0.065888
C28	C	0.170711	0.191541	-0.000127
C29	C	0.825122	-0.073466	-0.000106
C30	C	0.822722	-0.237225	-0.000108
C31	C	0.948664	0.184644	-0.000125
C32	C	1.025787	0.187027	-0.000140
C33	C	0.818371	0.466030	-0.000111
C34	C	0.820771	0.629789	-0.000114
N35	N	0.821723	0.196264	0.188560
N36	N	0.821775	0.196288	-0.188776
C37	C	0.868327	0.095699	0.226656
C38	C	0.868331	0.095692	0.302884
C39	C	0.821738	0.196276	0.341013
C40	C	0.775126	0.296848	0.302908
C41	C	0.775118	0.296842	0.226682
C42	C	0.813483	0.330693	0.461772
C43	C	0.813496	0.330701	0.537997
C44	C	0.821758	0.196294	0.576121
C45	C	0.830023	0.061873	0.538009
C46	C	0.830015	0.061867	0.461783
C47	C	0.821741	0.196293	0.423668
C48	C	0.868370	0.095714	0.696871
C49	C	0.868369	0.095706	0.773101
C50	C	0.775167	0.296874	0.773123
C51	C	0.775164	0.296870	0.696895
C52	C	0.821769	0.196292	0.658774
H53	H	0.032475	0.187232	0.119628
C54	C	0.621282	0.205658	0.138548
H55	H	0.669630	0.207179	0.129098
H56	H	0.614159	0.119278	0.165674
H57	H	0.604635	0.291307	0.165668
H58	H	0.611014	0.205313	-0.119850
H59	H	0.906316	0.013813	0.665832
H60	H	0.396127	0.041526	0.091651
C61	C	0.723915	0.407514	0.815056
H62	H	0.730596	0.393121	0.865910
H63	H	0.677461	0.391754	0.802582
H64	H	0.732078	0.505934	0.802554
H65	H	0.378828	0.355117	-0.091859
C66	C	0.255680	0.012406	0.106086
H67	H	0.290476	-0.038044	0.136214
H68	H	0.231270	-0.057967	0.081047
H69	H	0.223951	0.073832	0.135327
H70	H	0.737166	0.378735	0.195663
C71	C	0.469204	0.200881	-0.138719
H72	H	0.420856	0.199376	-0.129267
H73	H	0.485853	0.115242	-0.165838
H74	H	0.476322	0.287272	-0.165846
H75	H	0.247365	0.351014	-0.091867
C76	C	0.469105	0.200994	0.138533
H77	H	0.420763	0.199498	0.129074
H78	H	0.476224	0.287409	0.165621
H79	H	0.485715	0.115378	0.165693
H80	H	0.164023	0.191347	-0.119895
C81	C	0.919583	-0.014948	0.184727
H82	H	0.947335	-0.074851	0.218337
H83	H	0.948824	0.037950	0.154972
H84	H	0.894206	-0.076229	0.155010
C85	C	0.174288	0.191652	0.138501
H86	H	0.222636	0.193179	0.129052
H87	H	0.167167	0.105269	0.165625
H88	H	0.157639	0.277299	0.165621
H89	H	0.806771	0.440155	0.569022
H90	H	0.906283	0.013798	0.333907
C91	C	0.839095	-0.085980	0.419861
H92	H	0.844112	-0.166030	0.453476
H93	H	0.879457	-0.089105	0.390026
H94	H	0.799304	-0.094025	0.390225
H95	H	0.737188	0.378742	0.333956
H96	H	0.836751	-0.047574	0.569048
H97	H	0.906318	0.013806	0.804119
C98	C	0.804399	0.478551	0.419844
H99	H	0.799490	0.558604	0.453457
H100	H	0.763975	0.481772	0.390122
H101	H	0.844140	0.486501	0.390095
H102	H	0.032565	0.187253	-0.119906
C103	C	0.723906	0.407508	0.654988
H104	H	0.696161	0.467421	0.688611
H105	H	0.694660	0.354604	0.625265
H106	H	0.749279	0.468781	0.625240
