data_functionalizedCrystal
_audit_creation_method	'MofGen! by Chris Wilmer'
_symmetry_space_group_name_H-M	'P1'
_symmetry_Int_Tables_number	1
_symmetry_cell_setting	triclinic
loop_
_symmetry_equiv_pos_as_xyz
  x,y,z
_cell_length_a	23.532407
_cell_length_b	23.532357
_cell_length_c	9.130313
_cell_angle_alpha	89.989961
_cell_angle_beta	89.999157
_cell_angle_gamma	82.838519
loop_
_atom_site_label
_atom_site_type_symbol
_atom_site_fract_x
_atom_site_fract_y
_atom_site_fract_z
O1	O	0.755246	0.069137	-0.121724
O2	O	0.589381	0.079140	-0.121750
O3	O	0.677330	-0.008795	-0.121706
O4	O	0.667297	0.157072	-0.121768
O5	O	0.677324	-0.008798	0.121892
O6	O	0.589375	0.079138	0.121849
O7	O	0.755240	0.069134	0.121874
Cu8	Cu	0.672307	0.074136	0.144104
Cu9	Cu	0.672314	0.074139	-0.143980
O10	O	0.667291	0.157070	0.121831
C11	C	0.568162	0.078884	0.000047
C12	C	0.504945	0.078118	0.000038
C13	C	0.238788	0.022922	0.000099
C14	C	0.298188	0.023633	0.000098
O15	O	0.334940	-0.020154	0.000165
N16	N	0.320805	0.075911	0.000068
C17	C	0.284018	0.127480	0.000055
O18	O	0.308710	0.172012	0.000031
C19	C	0.224619	0.126768	0.000066
C20	C	0.202006	0.074487	0.000080
C21	C	0.216174	-0.029355	0.000115
C22	C	0.156778	-0.030066	0.000113
C23	C	0.119996	0.021499	0.000094
C24	C	0.142610	0.073776	0.000078
C25	C	0.187833	0.178337	0.000062
C26	C	0.128431	0.177620	0.000075
C27	C	0.105818	0.125339	0.000089
C28	C	0.046431	0.124630	0.000058
N29	N	0.023815	0.072353	0.000087
C30	C	0.060597	0.020787	0.000106
C31	C	0.408760	0.128971	0.000034
C32	C	0.468158	0.129684	0.000012
C33	C	0.482324	0.025837	0.000058
C34	C	0.422925	0.025125	0.000069
C35	C	0.386143	0.076694	0.000063
C36	C	-0.064140	0.019297	0.000100
C37	C	-0.123542	0.018591	0.000092
C38	C	-0.137702	0.122438	0.000053
C39	C	-0.078306	0.123145	0.000054
C40	C	-0.041525	0.071570	0.000082
O41	O	0.009644	0.168394	-0.000003
O42	O	0.035897	-0.023737	0.000148
C43	C	0.677076	-0.030013	0.000098
C44	C	0.676322	-0.093232	0.000111
C45	C	0.671588	-0.485242	-0.132754
C46	C	0.670871	-0.544641	-0.132763
O47	O	0.670483	-0.575356	-0.245692
N48	N	0.670512	-0.574354	0.000021
C49	C	0.670865	-0.544663	0.132822
O50	O	0.670493	-0.575390	0.245764
C51	C	0.671578	-0.485264	0.132829
C52	C	0.671942	-0.455555	0.000036
C53	C	0.671952	-0.455533	-0.265536
C54	C	0.672671	-0.396138	-0.265527
C55	C	0.673025	-0.366451	-0.132736
C56	C	0.672661	-0.396160	0.000046
C57	C	0.671926	-0.455574	0.265628
C58	C	0.672639	-0.396171	0.265624
C59	C	0.673004	-0.366462	0.132831
C60	C	0.673733	-0.307078	0.132845
N61	N	0.674092	-0.277366	0.000061
C62	C	0.673738	-0.307052	-0.132729
C63	C	0.669366	-0.669404	0.132797
C64	C	0.668657	-0.728803	0.132792
C65	C	0.668662	-0.728777	-0.132793
C66	C	0.669375	-0.669378	-0.132786
C67	C	0.669725	-0.639692	0.000014
C68	C	0.675247	-0.182318	-0.132700
C69	C	0.675968	-0.122918	-0.132679
C70	C	0.675959	-0.122949	0.132905
C71	C	0.675241	-0.182344	0.132885
C72	C	0.674883	-0.212027	0.000071
O73	O	0.674119	-0.276325	0.245717
O74	O	0.674102	-0.276317	-0.245653
C75	C	0.776459	0.069390	0.000075
C76	C	0.839676	0.070156	0.000073
C77	C	0.667545	0.178288	0.000024
C78	C	0.668300	0.241506	0.000000
N79	N	0.672306	0.074133	0.346727
N80	N	0.672320	0.074137	-0.346602
C81	C	0.711263	0.035212	0.423398
C82	C	0.711269	0.035212	0.576735
C83	C	0.633359	0.113060	0.576716
C84	C	0.633351	0.113057	0.423382
H85	H	0.138372	-0.072639	0.000131
H86	H	0.742982	0.003517	0.360989
H87	H	0.601643	0.144752	0.639143
H88	H	0.742990	0.003518	0.639156
H89	H	0.668372	-0.752958	-0.240919
H90	H	0.246117	-0.071348	0.000134
H91	H	0.601625	0.144752	0.360952
H92	H	-0.141950	-0.023984	0.000100
H93	H	0.512283	-0.016151	0.000073
H94	H	0.486564	0.172256	-0.000020
H95	H	0.378815	0.170968	0.000018
O96	O	0.671565	-0.487538	-0.408785
H97	H	0.710059	-0.519901	-0.415159
H98	H	-0.034199	-0.022700	0.000122
O99	O	0.676342	-0.090921	0.276120
H100	H	0.675973	-0.121555	0.368464
O101	O	0.398535	-0.031263	0.000110
H102	H	0.434097	-0.066996	0.000132
H103	H	0.098485	0.219615	0.000076
O104	O	0.212215	0.234726	0.000084
H105	H	0.176651	0.270457	0.000103
O106	O	-0.177383	0.178051	0.000035
H107	H	-0.151684	0.214527	0.000013
H108	H	-0.059893	0.165716	0.000040
H109	H	0.674952	-0.206479	-0.240850
O110	O	0.676353	-0.090872	-0.275910
H111	H	0.675978	-0.121497	-0.368245
H112	H	0.669672	-0.645193	-0.240918
O113	O	0.673049	-0.364095	-0.408753
H114	H	0.672673	-0.394724	-0.501079
O115	O	0.668273	-0.760847	0.276014
H116	H	0.629585	-0.744154	0.339679
O117	O	0.669758	-0.637388	0.276040
H118	H	0.669396	-0.668034	0.368360
O119	O	0.671530	-0.487608	0.408856
H120	H	0.632838	-0.470910	0.472500
O121	O	0.673024	-0.364155	0.408865
H122	H	0.634065	-0.370264	0.472537
O123	O	0.674850	-0.214393	0.276105
H124	H	0.675214	-0.183768	0.368443
