data_functionalizedCrystal
_audit_creation_method	'MofGen! by Chris Wilmer'
_symmetry_space_group_name_H-M	'P1'
_symmetry_Int_Tables_number	1
_symmetry_cell_setting	triclinic
loop_
_symmetry_equiv_pos_as_xyz
  x,y,z
_cell_length_a	17.038272
_cell_length_b	17.038272
_cell_length_c	16.098538
_cell_angle_alpha	92.920305
_cell_angle_beta	87.069734
_cell_angle_gamma	91.111556
loop_
_atom_site_label
_atom_site_type_symbol
_atom_site_fract_x
_atom_site_fract_y
_atom_site_fract_z
O1	O	1.052033	0.167266	-0.069152
O2	O	0.824222	0.164557	-0.069177
O3	O	0.936773	0.052006	-0.069158
O4	O	0.939482	0.279817	-0.069171
O5	O	0.930197	0.058553	0.069354
O6	O	0.817646	0.171104	0.069335
O7	O	1.045456	0.173813	0.069359
Zn8	Zn	0.930507	0.173498	0.091339
Zn9	Zn	0.939172	0.164872	-0.091156
O10	O	0.932905	0.286364	0.069341
C11	C	0.791641	0.165367	0.000076
C12	C	0.704358	0.158019	0.000067
C13	C	0.931022	0.025987	0.000097
C14	C	0.923674	-0.061297	0.000096
C15	C	0.658749	0.225482	0.000064
C16	C	0.576737	0.218574	0.000075
C17	C	0.540335	0.144201	0.000085
C18	C	0.585950	0.076733	0.000090
C19	C	0.667961	0.083642	0.000084
C20	C	0.292946	0.119792	0.000108
C21	C	0.210929	0.112887	0.000112
C22	C	0.201722	0.254729	0.000098
C23	C	0.283734	0.261632	0.000088
C24	C	0.329342	0.194164	0.000098
C25	C	0.456505	0.137138	0.000094
C26	C	0.413170	0.201228	0.000094
C27	C	0.991137	-0.106906	0.000104
C28	C	0.984229	-0.188918	0.000096
C29	C	0.909856	-0.225320	0.000085
C30	C	0.842388	-0.179705	0.000074
C31	C	0.849297	-0.097694	0.000077
C32	C	0.885446	-0.472708	0.000071
C33	C	0.878541	-0.554725	0.000071
C34	C	1.020383	-0.563932	0.000091
C35	C	1.027286	-0.481920	0.000098
C36	C	0.959818	-0.436312	0.000083
C37	C	0.902792	-0.309149	0.000079
C38	C	0.966882	-0.352485	0.000084
C39	C	1.078037	0.173002	0.000105
C40	C	1.165320	0.180351	0.000108
C41	C	0.938656	0.312383	0.000083
C42	C	0.946005	0.399666	0.000079
N43	N	0.924599	0.179385	0.215887
N44	N	0.945085	0.158979	-0.215705
C45	C	0.972390	0.131633	0.259480
C46	C	0.968265	0.135759	0.346668
C47	C	0.916352	0.187642	0.390262
C48	C	0.868556	0.235395	0.346663
C49	C	0.872678	0.231265	0.259476
C50	C	0.901410	0.202602	0.653510
C51	C	0.897294	0.206731	0.740702
C52	C	0.997003	0.107093	0.740702
C53	C	1.001123	0.102971	0.653513
C54	C	0.953324	0.150721	0.609922
C55	C	0.912136	0.191862	0.479383
C56	C	0.957536	0.146496	0.520803
H57	H	0.688381	0.286045	0.000056
Br58	Br	1.092076	-0.057511	0.000131
Br59	Br	0.777600	-0.604126	0.000065
H60	H	1.087848	-0.452287	0.000107
H61	H	0.830508	-0.435584	0.000059
Br62	Br	0.741452	-0.229107	0.000046
H63	H	0.855019	0.248983	0.776192
H64	H	1.035918	0.068216	0.776202
H65	H	0.313367	0.322194	0.000070
Br66	Br	0.836544	0.267406	0.594354
Br67	Br	0.139822	0.346288	0.000086
H68	H	0.181294	0.052321	0.000118
H69	H	0.794361	-0.060560	0.000070
Br70	Br	0.536549	-0.024203	0.000111
H71	H	0.330070	0.064854	0.000117
Br72	Br	0.729860	-0.007919	0.000096
H73	H	0.999800	0.104250	0.485307
Br74	Br	0.798095	0.305803	0.405823
H75	H	1.039165	-0.226050	0.000104
Br76	Br	1.067814	-0.303082	0.000091
Br77	Br	1.033122	0.070950	0.405833
H78	H	1.043394	0.060724	0.618021
Br79	Br	0.462573	0.302160	0.000087
H80	H	0.833760	0.270148	0.223984
H81	H	0.869870	0.234107	0.514884
Br82	Br	0.407097	0.036205	0.000105
H83	H	0.842238	-0.338796	0.000072
H84	H	1.014666	0.089389	0.223992
H85	H	1.075312	-0.601075	0.000101
H86	H	0.539605	0.273510	0.000072
