data_functionalizedCrystal
_audit_creation_method	'MofGen! by Chris Wilmer'
_symmetry_space_group_name_H-M	'P1'
_symmetry_Int_Tables_number	1
_symmetry_cell_setting	triclinic
loop_
_symmetry_equiv_pos_as_xyz
  x,y,z
_cell_length_a	19.077105
_cell_length_b	19.121063
_cell_length_c	19.076919
_cell_angle_alpha	94.606347
_cell_angle_beta	90.076224
_cell_angle_gamma	90.263052
loop_
_atom_site_label
_atom_site_type_symbol
_atom_site_fract_x
_atom_site_fract_y
_atom_site_fract_z
Zn1	Zn	1.043169	-0.339734	-0.454309
Zn2	Zn	1.042790	-0.452646	-0.341419
Zn3	Zn	0.930805	-0.330327	-0.331718
Zn4	Zn	0.920631	-0.452222	-0.454155
O5	O	0.984349	-0.393732	-0.395400
O6	O	1.141268	-0.358826	-0.443459
O7	O	1.032035	-0.432660	-0.241647
O8	O	0.950127	-0.233307	-0.343985
O9	O	1.140989	-0.441782	-0.360519
O10	O	1.032681	-0.240219	-0.434052
O11	O	0.949760	-0.342793	-0.234520
O12	O	0.831307	-0.342382	-0.343835
O13	O	0.932786	-0.441060	-0.552660
O14	O	0.823831	-0.431938	-0.433788
O15	O	1.022815	-0.358416	-0.552774
O16	O	1.022169	-0.550857	-0.360369
O17	O	0.932419	-0.550546	-0.443195
C18	C	0.802120	-0.386094	-0.387742
C19	C	0.724160	-0.382844	-0.384484
C20	C	0.976167	-0.576182	-0.402834
C21	C	0.972730	-0.654239	-0.406041
C22	C	0.683661	-0.428009	-0.429719
C23	C	0.610410	-0.424946	-0.426660
C24	C	0.577659	-0.376721	-0.378362
C25	C	0.618164	-0.331551	-0.333125
C26	C	0.691414	-0.334611	-0.336188
C27	C	0.359002	-0.362559	-0.364190
C28	C	0.285746	-0.359503	-0.361130
C29	C	0.277998	-0.452898	-0.454666
C30	C	0.351249	-0.455957	-0.457722
C31	C	0.391747	-0.410784	-0.412487
N32	N	0.502785	-0.373590	-0.375233
N33	N	0.466620	-0.413912	-0.415620
C34	C	1.017877	-0.691052	-0.364463
C35	C	1.014648	-0.764395	-0.367483
C36	C	0.966269	-0.800923	-0.412078
C37	C	0.921120	-0.764105	-0.453660
C38	C	0.924353	-0.690764	-0.450644
C39	C	0.954173	-1.022359	-0.423346
C40	C	0.950942	-1.095705	-0.426358
C41	C	1.044471	-1.095990	-0.340181
C42	C	1.047697	-1.022647	-0.337165
C43	C	1.002551	-0.985836	-0.378750
C44	C	0.962966	-0.875891	-0.415164
C45	C	1.005857	-0.910869	-0.375667
C46	C	1.167289	-0.401401	-0.403088
C47	C	1.245247	-0.404669	-0.406365
C48	C	0.976708	-0.400740	-0.578967
C49	C	0.973452	-0.403726	-0.657192
C50	C	0.992581	-0.210571	-0.387953
C51	C	0.996089	-0.132518	-0.384780
C52	C	1.018793	-0.362103	-0.694003
C53	C	1.015725	-0.364906	-0.767503
C54	C	0.967319	-0.409336	-0.804192
C55	C	0.921973	-0.450962	-0.767376
C56	C	0.925038	-0.448154	-0.693877
C57	C	0.953123	-0.422342	-1.024005
C58	C	0.950063	-0.425148	-1.097510
C59	C	1.043814	-0.339090	-1.097632
C60	C	1.046877	-0.336290	-1.024131
C61	C	1.001529	-0.377913	-0.987321
N62	N	0.964183	-0.412204	-0.879321
N63	N	1.004662	-0.375041	-0.912193
C64	C	0.992003	-0.386702	-0.212547
C65	C	0.995403	-0.383524	-0.134320
H66	H	0.710321	-0.467281	-0.469046
C67	C	0.565864	-0.474669	-0.476377
H68	H	0.595860	-0.503846	-0.505562
H69	H	0.537196	-0.447874	-0.504816
H70	H	0.537061	-0.502987	-0.449412
C71	C	0.897729	-1.135886	-0.475420
H72	H	0.871309	-1.103460	-0.499761
H73	H	0.867048	-1.162227	-0.448372
H74	H	0.922008	-1.166754	-0.508406
H75	H	1.057269	-0.661315	-0.328146
H76	H	0.259084	-0.320225	-0.321804
C77	C	0.582140	-0.278506	-0.279996
H78	H	0.532715	-0.283157	-0.284644
H79	H	0.595826	-0.232236	-0.288950
H80	H	0.595649	-0.287413	-0.233609
C81	C	0.868726	-0.499835	-0.807728
H82	H	0.842158	-0.524218	-0.775276
H83	H	0.892985	-0.532652	-0.838773
H84	H	0.838176	-0.472783	-0.834022
H85	H	0.377909	-0.495228	-0.497049
H86	H	0.724388	-0.297829	-0.299356
H87	H	1.087091	-0.992907	-0.300852
C88	C	1.100118	-0.287413	-0.983775
H89	H	1.095453	-0.291707	-0.934729
H90	H	1.091472	-0.240261	-0.993471
H91	H	1.146282	-0.300129	-0.998221
C92	C	0.875165	-0.493939	-0.653382
H93	H	0.883918	-0.485899	-0.604354
H94	H	0.882803	-0.542012	-0.667775
H95	H	0.827998	-0.482139	-0.663027
C96	C	0.233449	-0.502576	-0.504425
H97	H	0.185133	-0.493845	-0.495691
H98	H	0.243769	-0.549849	-0.496476
H99	H	0.243954	-0.494672	-0.551816
C100	C	1.094132	-1.136484	-0.294447
H101	H	1.085284	-1.185395	-0.302633
H102	H	1.086406	-1.122259	-0.246229
H103	H	1.141352	-1.126786	-0.306276
C104	C	0.403540	-0.312883	-0.314423
H105	H	0.373542	-0.283732	-0.285213
H106	H	0.432371	-0.284546	-0.341335
H107	H	0.432181	-0.339729	-0.286000
C108	C	1.064306	-0.804885	-0.321744
H109	H	1.093575	-0.772626	-0.294746
H110	H	1.092467	-0.835765	-0.351145
H111	H	1.037509	-0.831237	-0.291108
H112	H	0.917412	-0.992393	-0.457205
C113	C	1.093687	-0.293305	-1.138123
H114	H	1.084927	-0.301334	-1.187151
H115	H	1.140852	-0.305095	-1.128479
H116	H	1.086038	-0.245230	-1.123726
H117	H	0.881732	-0.793853	-0.489974
H118	H	0.887591	-0.660792	-0.484502
C119	C	0.909749	-0.916072	-0.464215
H120	H	0.883323	-0.883646	-0.488550
H121	H	0.879074	-0.942416	-0.437163
H122	H	0.934026	-0.946936	-0.497205
C123	C	0.896812	-0.474022	-1.137866
H124	H	0.870239	-0.498404	-1.105417
H125	H	0.921071	-0.506839	-1.168910
H126	H	0.866266	-0.446966	-1.164161
C127	C	0.903228	-0.468110	-0.983522
H128	H	0.873962	-0.494972	-1.015901
H129	H	0.875076	-0.438856	-0.952482
H130	H	0.929863	-0.498746	-0.957213
C131	C	1.072037	-0.313225	-0.653651
H132	H	1.098595	-0.288831	-0.686104
H133	H	1.102587	-0.340268	-0.627355
H134	H	1.047770	-0.280406	-0.622609
H135	H	1.045250	-0.881126	-0.339361
H136	H	1.052648	-0.331013	-0.797471
