data_functionalizedCrystal
_audit_creation_method	'MofGen! by Chris Wilmer'
_symmetry_space_group_name_H-M	'P1'
_symmetry_Int_Tables_number	1
_symmetry_cell_setting	triclinic
loop_
_symmetry_equiv_pos_as_xyz
  x,y,z
_cell_length_a	17.077404
_cell_length_b	10.685194
_cell_length_c	17.077396
_cell_angle_alpha	85.602381
_cell_angle_beta	89.981638
_cell_angle_gamma	94.375067
loop_
_atom_site_label
_atom_site_type_symbol
_atom_site_fract_x
_atom_site_fract_y
_atom_site_fract_z
Zn1	Zn	1.176177	-0.502477	-0.419859
Zn2	Zn	1.676177	-0.002477	0.080141
Zn3	Zn	1.166055	-0.713523	-0.278530
Zn4	Zn	1.666055	-0.213523	0.221470
Zn5	Zn	1.044907	-0.502513	-0.288608
Zn6	Zn	1.544907	-0.002513	0.211392
Zn7	Zn	1.034852	-0.713439	-0.409760
Zn8	Zn	1.534852	-0.213439	0.090240
O9	O	1.105498	-0.607988	-0.349190
O10	O	1.605498	-0.107988	0.150810
O11	O	1.284680	-0.530492	-0.401121
O12	O	1.784680	-0.030492	0.098879
O13	O	1.149957	-0.685582	-0.170018
O14	O	1.649957	-0.185582	0.329982
O15	O	1.070764	-0.325911	-0.314463
O16	O	1.570764	0.174089	0.185537
O17	O	1.277244	-0.685547	-0.297287
O18	O	1.777244	-0.185547	0.202713
O19	O	1.167208	-0.325884	-0.410893
O20	O	1.667208	0.174116	0.089107
O21	O	1.060950	-0.530553	-0.177422
O22	O	1.560950	-0.030553	0.322578
O23	O	0.933727	-0.530473	-0.304671
O24	O	1.433727	-0.030473	0.195329
O25	O	1.053627	-0.685405	-0.520949
O26	O	1.553627	-0.185405	-0.020949
O27	O	0.926340	-0.685440	-0.393681
O28	O	1.426340	-0.185440	0.106319
O29	O	1.157458	-0.530411	-0.528369
O30	O	1.657458	-0.030411	-0.028369
O31	O	1.140207	-0.890109	-0.287494
O32	O	1.640207	-0.390109	0.212506
O33	O	1.043812	-0.890047	-0.383908
O34	O	1.543812	-0.390047	0.116092
C35	C	0.901552	-0.607952	-0.349174
C36	C	1.401552	-0.107952	0.150826
C37	C	0.814301	-0.607967	-0.349184
C38	C	1.314301	-0.107967	0.150816
C39	C	0.777177	-0.527374	-0.403320
C40	C	1.277177	-0.027374	0.096680
C41	C	0.695196	-0.527382	-0.403323
C42	C	1.195196	-0.027382	0.096677
C43	C	0.650341	-0.607991	-0.349194
C44	C	1.150341	-0.107991	0.150806
C45	C	0.687470	-0.688588	-0.295052
C46	C	1.187470	-0.188588	0.204948
C47	C	0.769450	-0.688572	-0.295045
C48	C	1.269450	-0.188572	0.204955
C49	C	0.516599	-0.688616	-0.295070
C50	C	1.016599	-0.188616	0.204930
C51	C	0.434613	-0.688634	-0.295077
C52	C	0.934613	-0.188634	0.204923
C53	C	0.442345	-0.527426	-0.403348
C54	C	0.942345	-0.027426	0.096652
C55	C	0.524325	-0.527411	-0.403342
C56	C	1.024325	-0.027411	0.096658
C57	C	0.561449	-0.608009	-0.349200
C58	C	1.061449	-0.108009	0.150800
C59	C	1.089841	-0.935868	-0.333529
C60	C	1.589841	-0.435868	0.166471
C61	C	1.083215	-1.076136	-0.326855
C62	C	1.583215	-0.576136	0.173145
C63	C	1.310240	-0.608025	-0.349206
C64	C	1.810240	-0.108025	0.150794
C65	C	1.397489	-0.608040	-0.349213
C66	C	1.897489	-0.108040	0.150787
C67	C	1.105550	-0.607895	-0.553938
C68	C	1.605550	-0.107895	-0.053938
C69	C	1.105572	-0.607855	-0.641190
C70	C	1.605572	-0.107855	-0.141190
C71	C	1.121237	-0.278828	-0.364929
C72	C	1.621237	0.221172	0.135071
C73	C	1.127944	-0.138559	-0.371636
C74	C	1.627944	0.361441	0.128364
C75	C	1.159639	-0.527143	-0.686045
C76	C	1.659639	-0.027143	-0.186045
C77	C	1.159650	-0.527101	-0.768028
C78	C	1.659650	-0.027101	-0.268028
C79	C	1.105598	-0.607779	-0.805153
C80	C	1.605598	-0.107779	-0.305153
C81	C	1.051525	-0.688494	-0.760292
C82	C	1.551525	-0.188494	-0.260292
C83	C	1.051511	-0.688529	-0.678312
C84	C	1.551511	-0.188529	-0.178312
C85	C	1.051560	-0.688418	-0.931166
C86	C	1.551560	-0.188418	-0.431166
C87	C	1.051576	-0.688385	-1.013152
C88	C	1.551576	-0.188385	-0.513152
C89	C	1.159700	-0.526991	-1.020882
C90	C	1.659700	-0.026991	-0.520882
C91	C	1.159685	-0.527026	-0.938902
C92	C	1.659685	-0.027026	-0.438902
C93	C	1.105613	-0.607743	-0.894046
C94	C	1.605613	-0.107743	-0.394046
C95	C	1.105496	-0.607989	-0.145242
C96	C	1.605496	-0.107989	0.354758
C97	C	1.105642	-0.607674	-0.058007
C98	C	1.605642	-0.107674	0.441993
H99	H	0.546822	-0.754245	-0.250980
H100	H	1.046822	-0.254245	0.249020
H101	H	1.203657	-0.461451	-0.655824
H102	H	1.703657	0.038549	-0.155824
Br103	Br	1.010920	-1.165916	-0.254444
Br104	Br	1.510920	-0.665916	0.245556
H105	H	1.171309	-1.084694	-0.415084
H106	H	1.671309	-0.584694	0.084916
Br107	Br	0.978211	-0.797864	-1.063537
Br108	Br	1.478211	-0.297864	-0.563537
H109	H	1.203679	-0.461381	-0.804546
H110	H	1.703679	0.038619	-0.304546
H111	H	0.398094	-0.754273	-0.251000
H112	H	0.898094	-0.254273	0.249000
Br113	Br	0.626596	-0.797977	-0.221583
Br114	Br	1.126596	-0.297977	0.278417
H115	H	1.203726	-0.461266	-1.057408
H116	H	1.703726	0.038734	-0.557408
Br117	Br	0.819834	-0.797951	-0.221571
Br118	Br	1.319834	-0.297951	0.278429
Br119	Br	1.233049	-0.417545	-0.888516
Br120	Br	1.733049	0.082455	-0.388516
H121	H	0.560844	-0.461779	-0.447423
H122	H	1.060844	0.038221	0.052577
Br123	Br	0.838044	-0.417979	-0.476792
Br124	Br	1.338044	0.082021	0.023208
Br125	Br	0.978174	-0.797960	-0.870291
Br126	Br	1.478174	-0.297960	-0.370291
H127	H	0.664974	-0.461757	-0.447408
H128	H	1.164974	0.038243	0.052592
Br129	Br	0.978163	-0.797978	-0.810676
Br130	Br	1.478163	-0.297978	-0.310676
H131	H	0.412115	-0.461797	-0.447430
H132	H	0.912115	0.038203	0.052570
Br133	Br	0.978127	-0.798063	-0.617436
Br134	Br	1.478127	-0.298063	-0.117436
