data_functionalizedCrystal
_audit_creation_method	'MofGen! by Chris Wilmer'
_symmetry_space_group_name_H-M	'P1'
_symmetry_Int_Tables_number	1
_symmetry_cell_setting	triclinic
loop_
_symmetry_equiv_pos_as_xyz
  x,y,z
_cell_length_a	12.759401
_cell_length_b	12.645330
_cell_length_c	12.759393
_cell_angle_alpha	90.031109
_cell_angle_beta	90.020938
_cell_angle_gamma	90.014171
loop_
_atom_site_label
_atom_site_type_symbol
_atom_site_fract_x
_atom_site_fract_y
_atom_site_fract_z
Zn1	Zn	1.606281	-0.421945	0.594016
Zn2	Zn	1.606179	-0.599246	0.418334
Zn3	Zn	1.430580	-0.422001	0.418351
Zn4	Zn	1.430578	-0.599171	0.593971
O5	O	1.518405	-0.510591	0.506168
O6	O	1.753289	-0.445472	0.570723
O7	O	1.582843	-0.575788	0.271315
O8	O	1.453931	-0.273647	0.441679
O9	O	1.753213	-0.575734	0.441650
O10	O	1.583018	-0.273605	0.570739
O11	O	1.453831	-0.445568	0.271327
O12	O	1.283559	-0.445496	0.441636
O13	O	1.453928	-0.575607	0.740998
O14	O	1.283557	-0.575662	0.570663
O15	O	1.583016	-0.445400	0.741031
O16	O	1.582841	-0.747583	0.441607
O17	O	1.453828	-0.747529	0.570647
C18	C	1.245437	-0.510578	0.506147
C19	C	1.128661	-0.510598	0.506163
C20	C	1.073825	-0.578479	0.573242
C21	C	0.964101	-0.578483	0.573263
C22	C	0.964057	-0.442722	0.439117
C23	C	1.073779	-0.442714	0.439102
C24	C	0.814207	-0.616521	0.697123
C25	C	0.759368	-0.684418	0.764192
C26	C	0.794969	-0.787874	0.780139
C27	C	0.885408	-0.823454	0.729001
C28	C	0.940241	-0.755562	0.661924
C29	C	0.904641	-0.652092	0.645997
C30	C	1.223676	-0.404686	0.315241
C31	C	1.278511	-0.336799	0.248157
C32	C	1.242912	-0.233341	0.232200
C33	C	1.152470	-0.197766	0.283319
C34	C	1.097635	-0.265653	0.350403
C35	C	1.133242	-0.369109	0.366362
C36	C	1.518352	-0.786021	0.506143
C37	C	1.518426	-0.903851	0.506168
C38	C	1.599457	-1.071405	0.424824
C39	C	1.599721	-0.948844	0.425023
C40	C	1.548455	-0.948224	0.616912
C41	C	1.549098	-1.070822	0.616481
C42	C	1.407332	-1.071183	0.477858
C43	C	1.407865	-0.948579	0.475374
C44	C	1.792438	-0.510605	0.506189
C45	C	1.909215	-0.510610	0.506199
C46	C	1.518483	-0.510489	0.780201
C47	C	1.518517	-0.510446	0.896978
C48	C	1.518486	-0.234086	0.506216
C49	C	1.518521	-0.116255	0.506236
C50	C	1.518387	-0.510616	0.233200
C51	C	1.518557	-0.510360	0.116424
C52	C	1.585738	-0.442636	0.951859
C53	C	1.585756	-0.442590	1.061583
C54	C	1.451328	-0.578173	1.061536
C55	C	1.451306	-0.578213	0.951814
C56	C	1.623363	-0.317515	1.211562
C57	C	1.690601	-0.249715	1.266447
C58	C	1.793113	-0.233459	1.230856
C59	C	1.828409	-0.285019	1.140382
C60	C	1.761177	-0.352827	1.085503
C61	C	1.658650	-0.369063	1.121093
C62	C	1.413709	-0.703289	0.801832
C63	C	1.346481	-0.771104	0.746952
C64	C	1.243967	-0.787370	0.782541
C65	C	1.208676	-0.735829	0.873018
C66	C	1.275903	-0.668014	0.927899
C67	C	1.378416	-0.651746	0.892302
H68	H	1.118507	-0.633751	0.627850
C69	C	1.941184	-0.267137	1.101241
N70	N	2.026127	-0.253663	1.071755
C71	C	0.659893	-0.645274	0.820449
N72	N	0.584968	-0.615795	0.862821
H73	H	1.630372	-1.099331	0.640519
C74	C	1.659663	-0.368081	0.891543
N75	N	1.715341	-0.311920	0.846117
H76	H	1.628811	-0.917432	0.641351
C77	C	1.378010	-0.375932	0.191937
N78	N	1.452958	-0.405404	0.149600
C79	C	1.325862	-1.110373	0.557960
N80	N	1.264507	-1.139896	0.618295
H81	H	1.492730	-1.100486	0.679229
H82	H	1.847859	-0.178253	1.275550
C83	C	1.574300	-0.908318	0.314097
N84	N	1.555142	-0.877798	0.230544
C85	C	0.775043	-0.502709	0.679597
N86	N	0.745539	-0.416986	0.666395
C87	C	1.039721	-0.794692	0.605678
N88	N	1.114655	-0.824166	0.563319
H89	H	1.252676	-0.488927	0.328237
H90	H	1.580903	-1.100964	0.342468
H91	H	1.385222	-0.919589	0.393875
C92	C	1.651768	-0.192991	1.365959
N93	N	1.622524	-0.150267	1.440911
C94	C	1.471247	-0.908840	0.701059
N95	N	1.413094	-0.879172	0.764438
H96	H	1.380025	-1.102199	0.398510
H97	H	1.287564	-0.178072	0.177565
C98	C	1.321998	-0.907216	0.549607
N99	N	1.257326	-0.876063	0.605528
C100	C	1.170020	-0.861975	0.722168
N101	N	1.114321	-0.918163	0.676698
C102	C	1.710114	-1.112934	0.449880
N103	N	1.793458	-1.144223	0.468749
H104	H	1.789915	-0.394811	1.011844
C105	C	1.526483	-0.685401	0.762677
N106	N	1.611425	-0.671935	0.733187
C107	C	1.510589	-0.335380	1.250714
N108	N	1.425647	-0.348836	1.280208
H109	H	1.396610	-0.633349	1.106197
C110	C	1.237076	-0.611312	1.027424
N111	N	1.207831	-0.568602	1.102384
C112	C	1.710980	-0.909106	0.450373
N113	N	1.794785	-0.879176	0.469467
H114	H	1.125202	-0.749078	0.901999
C115	C	1.385309	-0.827806	0.647427
N116	N	1.414553	-0.870512	0.572464
H117	H	0.914381	-0.907702	0.741982
H118	H	0.750312	-0.843156	0.834750
H119	H	0.919360	-0.387455	0.384517
C120	C	0.998149	-0.226512	0.406642
N121	N	0.923219	-0.197032	0.449002
H122	H	1.123472	-0.113529	0.270310
