data_functionalizedCrystal
_audit_creation_method	'MofGen! by Chris Wilmer'
_symmetry_space_group_name_H-M	'P1'
_symmetry_Int_Tables_number	1
_symmetry_cell_setting	triclinic
loop_
_symmetry_equiv_pos_as_xyz
  x,y,z
_cell_length_a	15.711995
_cell_length_b	11.892095
_cell_length_c	12.811442
_cell_angle_alpha	88.493659
_cell_angle_beta	101.731282
_cell_angle_gamma	84.926270
loop_
_atom_site_label
_atom_site_type_symbol
_atom_site_fract_x
_atom_site_fract_y
_atom_site_fract_z
O1	O	-1.157940	0.152669	-0.568888
O2	O	-0.905511	0.144434	-0.489284
O3	O	-1.037161	0.133213	-0.379476
O4	O	-1.026291	0.163890	-0.678696
O5	O	-1.026184	-0.053861	-0.388611
O6	O	-0.894534	-0.042640	-0.498419
O7	O	-1.146963	-0.034405	-0.578023
Zn8	Zn	-1.019006	-0.068225	-0.539671
Zn9	Zn	-1.033469	0.178253	-0.527636
O10	O	-1.015314	-0.023184	-0.687831
C11	C	-0.867694	0.049554	-0.480846
C12	C	-0.771362	0.045552	-0.442083
N13	N	-1.009142	-0.236439	-0.547887
C14	C	-0.407445	0.079347	-0.771225
C15	C	-0.316933	0.075631	-0.734774
C16	C	-0.335786	0.056909	-0.552126
C17	C	-0.426302	0.060629	-0.588561
C18	C	-0.462124	0.071847	-0.698111
C19	C	-0.480981	0.053129	-0.515448
C20	C	-0.571489	0.056843	-0.551881
C21	C	-0.607318	0.068057	-0.661427
C22	C	-0.552633	0.075561	-0.734544
C23	C	-0.445157	0.041903	-0.405898
C24	C	-0.499836	0.034402	-0.332785
C25	C	-0.590346	0.038124	-0.369217
C26	C	-0.626175	0.049338	-0.478763
C27	C	-0.645032	0.030620	-0.296100
C28	C	-0.735540	0.034334	-0.332533
C29	C	-0.716683	0.053052	-0.515196
C30	C	-1.111977	-0.481845	-0.462185
C31	C	-1.105088	-0.599599	-0.467937
C32	C	-0.988473	-0.589704	-0.565139
C33	C	-0.995362	-0.471950	-0.559386
C34	C	-1.057116	-0.418025	-0.507909
C35	C	-1.064008	-0.300268	-0.502163
C36	C	-0.947390	-0.290376	-0.599357
C37	C	-0.940501	-0.408130	-0.605110
C38	C	-0.184780	0.060458	-0.586466
C39	C	-0.281106	0.064411	-0.625247
C40	C	-1.030725	0.035660	-0.344862
C41	C	-1.027893	0.023696	-0.228112
N42	N	-1.043339	0.346467	-0.519414
C43	C	-1.021749	0.074371	-0.722445
C44	C	-1.024582	0.086343	-0.839195
C45	C	-1.017923	-0.095140	-0.068534
C46	C	-1.020580	-0.083900	-0.178231
C47	C	-1.032547	0.120060	-0.168286
C48	C	-1.029890	0.108820	-0.058589
C49	C	-1.022579	0.001217	-0.008718
C50	C	-1.019928	-0.010021	0.100980
C51	C	-1.031889	0.193938	0.110924
C52	C	-1.034546	0.205177	0.001227
H53	H	-0.745851	0.062185	-0.604403
H54	H	-1.114294	-0.256363	-0.460251
H55	H	-1.011975	-0.182754	-0.027929
N56	N	-1.164267	-0.668434	-0.418635
H57	H	-1.154765	-0.655950	-0.339594
H58	H	-1.227126	-0.644219	-0.453267
H59	H	-0.780062	0.028229	-0.272996
N60	N	-1.036920	0.297875	0.175438
H61	H	-1.034130	0.274431	0.252498
H62	H	-0.986331	0.343129	0.170446
N63	N	-1.178563	-0.423680	-0.406640
H64	H	-1.174596	-0.339400	-0.409925
H65	H	-1.239027	-0.440567	-0.443202
N66	N	-0.257959	0.083736	-0.813640
H67	H	-0.195186	0.079682	-0.773940
H68	H	-0.265571	0.019121	-0.863267
N69	N	-0.446095	0.091450	-0.889382
H70	H	-0.487317	0.162757	-0.905185
H71	H	-0.397673	0.095593	-0.930100
H72	H	-0.938188	-0.633627	-0.607041
H73	H	-0.306606	0.047762	-0.462930
H74	H	-1.013976	-0.097637	0.141583
H75	H	-0.890219	-0.452050	-0.647018
N76	N	-0.606397	0.018519	-0.177946
H77	H	-0.622185	-0.054275	-0.147740
H78	H	-0.540772	0.017350	-0.166042
N79	N	-1.015556	-0.187826	-0.242750
H80	H	-1.010522	-0.257693	-0.194507
H81	H	-1.070066	-0.186359	-0.300486
N82	N	-1.040231	0.236103	-0.222040
H83	H	-1.041141	0.228595	-0.300594
H84	H	-1.095997	0.280105	-0.212780
N85	N	-0.347537	0.037900	-0.366606
H86	H	-0.333530	0.102675	-0.318589
H87	H	-0.325410	-0.036063	-0.325405
N88	N	-0.888219	-0.221541	-0.648687
H89	H	-0.901954	-0.138761	-0.637237
H90	H	-0.825352	-0.245801	-0.614125
N91	N	-1.042325	0.321226	-0.052542
H92	H	-1.043266	0.313727	-0.131103
H93	H	-1.098115	0.365136	-0.043242
H94	H	-0.581800	0.084694	-0.823751
N95	N	-0.704937	0.072054	-0.700725
H96	H	-0.734535	0.138623	-0.670271
H97	H	-0.719257	0.080254	-0.781217
H98	H	-0.470656	0.025256	-0.243589
