data_functionalizedCrystal
_audit_creation_method	'MofGen! by Chris Wilmer'
_symmetry_space_group_name_H-M	'P1'
_symmetry_Int_Tables_number	1
_symmetry_cell_setting	triclinic
loop_
_symmetry_equiv_pos_as_xyz
  x,y,z
_cell_length_a	14.044220
_cell_length_b	16.109301
_cell_length_c	15.186229
_cell_angle_alpha	90.013398
_cell_angle_beta	90.002347
_cell_angle_gamma	88.325179
loop_
_atom_site_label
_atom_site_type_symbol
_atom_site_fract_x
_atom_site_fract_y
_atom_site_fract_z
O1	O	-1.257648	-0.200445	-0.073140
O2	O	-0.981681	-0.193213	-0.073163
O3	O	-1.127246	-0.076362	-0.073142
O4	O	-1.112084	-0.317296	-0.073161
O5	O	-1.127226	-0.076340	0.073315
O6	O	-0.981662	-0.193191	0.073295
O7	O	-1.257629	-0.200423	0.073317
Zn8	Zn	-1.119642	-0.196803	0.096559
Zn9	Zn	-1.119668	-0.196833	-0.096405
O10	O	-1.112064	-0.317274	0.073296
C11	C	-1.126622	-0.045330	0.000087
C12	C	-1.124780	0.047102	0.000088
C13	C	-0.946358	-0.190036	0.000063
C14	C	-0.841135	-0.180592	0.000055
C15	C	-1.292952	-0.203600	0.000089
C16	C	-1.398175	-0.213044	0.000091
C17	C	-0.648479	-0.163326	0.000074
C18	C	-0.590825	-0.230306	0.000072
C19	C	-0.483625	-0.220699	0.000083
C20	C	-0.755690	-0.172932	0.000064
C21	C	-1.112688	-0.348305	0.000065
C22	C	-1.114529	-0.440738	0.000058
N23	N	-1.119631	-0.196784	0.228252
C24	C	-1.206874	0.263266	0.000081
C25	C	-1.205137	0.350116	0.000073
C26	C	-1.032429	0.343091	0.000063
C27	C	-1.034168	0.256243	0.000064
C28	C	-1.121393	0.216333	0.000078
C29	C	-1.117917	0.390031	0.000069
C30	C	-1.116032	0.484197	0.000061
C31	C	-1.123278	0.122161	0.000084
N32	N	-1.119686	-0.196846	-0.228097
C33	C	-1.062193	-0.142107	0.546203
C34	C	-1.062185	-0.142095	0.454014
C35	C	-1.177131	-0.251525	0.453958
C36	C	-1.177143	-0.251533	0.546146
C37	C	-1.119669	-0.196825	0.592266
C38	C	-1.119648	-0.196805	0.407888
C39	C	-1.119640	-0.196791	0.307932
C40	C	-1.119678	-0.196837	0.692228
H41	H	-0.621976	-0.294863	0.000063
N42	N	-0.609393	-0.082349	0.000087
N43	N	-0.521100	-0.074564	0.000094
H44	H	-0.493484	-0.017374	0.000101
H45	H	-0.964554	0.218029	0.000059
N46	N	-1.235854	-0.307444	0.593186
N47	N	-1.224481	-0.384076	0.582863
H48	H	-1.265946	-0.423562	0.616083
H49	H	-1.015395	-0.097560	0.583752
N50	N	-1.295968	0.222497	0.000105
N51	N	-1.353585	0.234564	0.061845
H52	H	-1.416511	0.205772	0.061863
H53	H	-1.274744	0.388326	0.000074
H54	H	-0.961413	0.375597	0.000054
H55	H	-1.015384	-0.097537	0.416513
H56	H	-1.223923	-0.296067	0.416395
