data_functionalizedCrystal
_audit_creation_method	'MofGen! by Chris Wilmer'
_symmetry_space_group_name_H-M	'P1'
_symmetry_Int_Tables_number	1
_symmetry_cell_setting	triclinic
loop_
_symmetry_equiv_pos_as_xyz
  x,y,z
_cell_length_a	21.295418
_cell_length_b	12.759399
_cell_length_c	12.759386
_cell_angle_alpha	90.062858
_cell_angle_beta	89.936506
_cell_angle_gamma	89.969069
loop_
_atom_site_label
_atom_site_type_symbol
_atom_site_fract_x
_atom_site_fract_y
_atom_site_fract_z
Zn1	Zn	0.962546	0.417440	-0.594607
Zn2	Zn	0.962440	0.593254	-0.418925
Zn3	Zn	0.857233	0.417638	-0.418877
Zn4	Zn	0.857267	0.593126	-0.594498
O5	O	0.909872	0.505364	-0.506727
O6	O	1.050621	0.440733	-0.571368
O7	O	0.948426	0.570094	-0.271898
O8	O	0.871233	0.270591	-0.442213
O9	O	1.050544	0.569902	-0.442295
O10	O	0.948606	0.270445	-0.571321
O11	O	0.871130	0.441070	-0.271862
O12	O	0.769148	0.440946	-0.442108
O13	O	0.871291	0.569685	-0.741534
O14	O	0.769173	0.569877	-0.571136
O15	O	0.948639	0.440609	-0.741614
O16	O	0.948459	0.740258	-0.442190
O17	O	0.871188	0.740164	-0.571183
C18	C	0.746320	0.505420	-0.506606
C19	C	0.676352	0.505469	-0.506579
C20	C	0.909981	0.505111	-0.780761
C21	C	0.910027	0.505003	-0.897538
C22	C	0.909833	0.778332	-0.506703
C23	C	0.909874	0.895108	-0.506728
C24	C	0.643515	0.572692	-0.573664
C25	C	0.577772	0.572666	-0.573711
C26	C	0.544869	0.505428	-0.506655
C27	C	0.577714	0.438192	-0.439566
C28	C	0.643456	0.438212	-0.439528
N29	N	0.441573	0.497282	-0.414763
N30	N	0.379122	0.497269	-0.414801
C31	C	0.346795	0.505361	-0.506766
N32	N	0.379278	0.513487	-0.598693
N33	N	0.441736	0.513506	-0.598653
C34	C	0.473584	0.505398	-0.506689
C35	C	0.242672	0.572559	-0.573908
C36	C	0.176928	0.572526	-0.573957
C37	C	0.176872	0.438057	-0.439802
C38	C	0.242614	0.438085	-0.439762
C39	C	0.275510	0.505342	-0.506814
C40	C	1.074062	0.505310	-0.506849
C41	C	1.144030	0.505286	-0.506901
C42	C	0.909927	0.231331	-0.506774
C43	C	0.909951	0.114554	-0.506794
C44	C	0.950155	0.949984	-0.439638
C45	C	0.950195	1.059708	-0.439673
C46	C	0.869669	1.059671	-0.573892
C47	C	0.869632	0.949949	-0.573861
C48	C	1.024488	1.209574	-0.402331
C49	C	1.064763	1.264453	-0.335224
C50	C	1.074424	1.228966	-0.232720
C51	C	1.043801	1.138600	-0.197301
C52	C	1.003521	1.083727	-0.264402
C53	C	0.993872	1.119212	-0.366921
C54	C	0.795338	0.800082	-0.611192
C55	C	0.755055	0.745206	-0.678289
C56	C	0.745387	0.780691	-0.780795
C57	C	0.776000	0.871060	-0.816210
C58	C	0.816283	0.925936	-0.749113
C59	C	0.825952	0.890443	-0.646608
C60	C	0.909799	0.505541	-0.233759
C61	C	0.909875	0.505354	-0.116983
C62	C	0.869377	0.438583	-0.062152
C63	C	0.869454	0.438404	0.047572
C64	C	0.950529	0.571776	0.047624
C65	C	0.950455	0.571948	-0.062098
C66	C	0.846550	0.314548	0.197278
C67	C	0.806042	0.247786	0.252112
C68	C	0.744530	0.232479	0.216691
C69	C	0.723513	0.283949	0.126436
C70	C	0.764017	0.350718	0.071607
C71	C	0.825539	0.366005	0.107027
C72	C	0.973352	0.695807	-0.211806
C73	C	1.013854	0.762582	-0.266637
C74	C	1.075368	0.777900	-0.231218
C75	C	1.096383	0.726449	-0.140960
C76	C	1.055881	0.659674	-0.086129
C77	C	0.994368	0.644354	-0.121556
H78	H	0.670295	0.627456	-0.628264
O79	O	1.114796	0.842636	-0.284467
C80	C	1.167638	0.785475	-0.318846
H81	H	1.173951	0.713251	-0.267400
H82	H	1.160422	0.760053	-0.403664
C83	C	1.218822	0.943645	-0.374505
C84	C	1.226580	0.854943	-0.311312
H85	H	1.255180	0.986496	-0.369863
H86	H	1.183221	0.982156	-0.351347
H87	H	1.212808	0.922446	-0.445181
H88	H	1.232586	0.876142	-0.240637
H89	H	1.262183	0.816437	-0.334458
H90	H	0.670191	0.383468	-0.384899
O91	O	0.804625	0.765675	-0.511562
C92	C	0.746834	0.764341	-0.457554
H93	H	0.712833	0.821279	-0.496463
H94	H	0.726318	0.681864	-0.459925
C95	C	0.799110	0.727448	-0.295005
C96	C	0.757351	0.797387	-0.342789
H97	H	0.805598	0.747827	-0.224211
H98	H	0.838045	0.728343	-0.331392
H99	H	0.782008	0.658723	-0.296991
H100	H	0.774458	0.866108	-0.340814
H101	H	0.718419	0.796505	-0.306399
H102	H	0.711548	0.178119	0.261345
O103	O	0.663745	0.268934	0.092152
C104	C	0.632496	0.198987	0.159914
H105	H	0.668526	0.148906	0.202938
H106	H	0.603597	0.245322	0.219284
C107	C	0.544478	0.189152	0.042770
C108	C	0.588730	0.127636	0.095608
H109	H	0.517479	0.145142	0.003105
H110	H	0.565529	0.236280	-0.002880
H111	H	0.520402	0.227761	0.092255
H112	H	0.612810	0.089039	0.046123
H113	H	0.567682	0.080500	0.141249
H114	H	0.841212	0.999516	-0.777959
O115	O	0.706181	0.727382	-0.845848
C116	C	0.645393	0.724923	-0.802021
H117	H	0.648615	0.736580	-0.713597
H118	H	0.615764	0.790246	-0.837593
C119	C	0.610704	0.603932	-0.934144
C120	C	0.614662	0.618241	-0.825539
H121	H	0.591747	0.538128	-0.948655
H122	H	0.651658	0.605591	-0.963674
H123	H	0.586015	0.658375	-0.963775
H124	H	0.639357	0.563806	-0.795912
H125	H	0.573712	0.616570	-0.796004
O126	O	0.973846	0.995945	-0.229857
C127	C	0.990992	0.976405	-0.124979
H128	H	1.037971	1.015559	-0.107755
H129	H	0.953538	1.009551	-0.070290
C130	C	0.939152	0.809306	-0.128712
C131	C	0.996856	0.857388	-0.107560
H132	H	0.942767	0.735891	-0.117965
H133	H	0.927598	0.822471	-0.199369
H134	H	0.907946	0.836939	-0.083136
H135	H	1.028059	0.829765	-0.153145
H136	H	1.008415	0.844215	-0.036910
O137	O	0.545729	0.373031	-0.374308
C138	C	0.507609	0.432796	-0.306385
H139	H	0.527380	0.515544	-0.299747
H140	H	0.457810	0.436420	-0.338884
C141	C	0.482247	0.279771	-0.205404
C142	C	0.506534	0.381402	-0.197245
H143	H	0.481581	0.248068	-0.138083
H144	H	0.507927	0.239505	-0.251168
H145	H	0.440750	0.282805	-0.232491
H146	H	0.548033	0.378365	-0.170171
H147	H	0.480861	0.421666	-0.151474
H148	H	0.982923	0.905336	-0.384976
O149	O	0.766565	0.905367	-0.915832
C150	C	0.724435	0.837569	-0.967451
H151	H	0.725131	0.757581	-0.927751
H152	H	0.674989	0.871636	-0.963398
C153	C	0.743416	0.923784	-1.131700
C154	C	0.744274	0.825538	-1.082945
H155	H	0.755651	0.916366	-1.202943
H156	H	0.771797	0.969464	-1.096923
H157	H	0.702210	0.952162	-1.128312
H158	H	0.785481	0.797167	-1.086322
H159	H	0.715899	0.779853	-1.117725
H160	H	0.983567	0.625997	0.092324
O161	O	1.156110	0.741241	-0.106378
C162	C	1.165977	0.681490	-0.014973
H163	H	1.118911	0.664613	0.024153
H164	H	1.189814	0.604407	-0.036600
C165	C	1.265944	0.763872	0.013181
C166	C	1.208136	0.743152	0.061241
H167	H	1.291952	0.801905	0.060192
H168	H	1.259298	0.804126	-0.048403
H169	H	1.285799	0.699631	-0.004839
H170	H	1.188278	0.807393	0.079248
H171	H	1.214780	0.702911	0.122830
O172	O	1.113498	1.282437	-0.167585
C173	C	1.091120	1.385652	-0.154525
H174	H	1.060167	1.407564	-0.223975
H175	H	1.062530	1.390885	-0.079105
C176	C	1.185126	1.434818	-0.063021
C177	C	1.147112	1.461734	-0.148326
H178	H	1.219664	1.481749	-0.059192
H179	H	1.200202	1.365280	-0.071816
H180	H	1.161294	1.439179	-0.000180
H181	H	1.170942	1.457360	-0.211166
H182	H	1.132041	1.531274	-0.139541
H183	H	0.269457	0.627318	-0.628510
H184	H	0.551031	0.627407	-0.628343
O185	O	0.145125	0.637931	-0.639158
C186	C	0.188261	0.697277	-0.698343
H187	H	0.235084	0.700898	-0.655274
H188	H	0.195341	0.658867	-0.778203
C189	C	0.105058	0.804649	-0.766190
C190	C	0.162565	0.809104	-0.713288
H191	H	0.089207	0.873629	-0.775414
H192	H	0.075996	0.764665	-0.726320
H193	H	0.110965	0.772636	-0.832735
H194	H	0.156656	0.841105	-0.646740
H195	H	0.191626	0.849097	-0.753148
O196	O	0.274487	0.372904	-0.374436
C197	C	0.258309	0.395777	-0.269695
H198	H	0.240195	0.479700	-0.264257
H199	H	0.220149	0.339421	-0.242353
C200	C	0.338899	0.280449	-0.206243
C201	C	0.316657	0.383528	-0.199563
H202	H	0.374890	0.272889	-0.162980
H203	H	0.349798	0.265035	-0.276809
H204	H	0.307094	0.233497	-0.183459
H205	H	0.348459	0.430477	-0.222359
H206	H	0.305766	0.398950	-0.128999
H207	H	0.896641	0.326994	0.226120
H208	H	0.996738	0.804475	-0.340131
H209	H	0.150083	0.383306	-0.385208
O210	O	1.053272	1.104253	-0.097705
C211	C	1.095378	1.172077	-0.046066
H212	H	1.125084	1.215232	-0.106569
H213	H	1.067801	1.231333	0.002595
C214	C	1.102010	1.054821	0.100649
C215	C	1.138499	1.107819	0.026338
H216	H	1.128608	1.015186	0.145315
H217	H	1.073641	1.009128	0.065861
H218	H	1.079031	1.104211	0.141189
H219	H	1.161471	1.058429	-0.014209
H220	H	1.166873	1.153503	0.061120
H221	H	1.089697	1.338028	-0.364072
H222	H	1.016632	1.238469	-0.485802
O223	O	1.076249	0.609522	0.001481
C224	C	1.071991	0.500268	-0.013558
H225	H	1.035659	0.482768	-0.076742
H226	H	1.119647	0.468384	-0.039043
C227	C	1.096664	0.469128	0.167394
C228	C	1.052037	0.447633	0.089797
H229	H	1.084359	0.436658	0.231149
H230	H	1.099536	0.542734	0.177526
H231	H	1.136374	0.442558	0.146143
H232	H	1.012331	0.474215	0.111043
H233	H	1.049159	0.374030	0.079671
H234	H	0.836904	1.104335	-0.628547
O235	O	0.829896	0.374041	-0.115514
C236	C	0.789453	0.434458	-0.178687
H237	H	0.785931	0.517200	-0.145389
H238	H	0.808872	0.437964	-0.261908
C239	C	0.728126	0.282325	-0.221154
C240	C	0.723796	0.383947	-0.180251
H241	H	0.687627	0.251166	-0.222123
H242	H	0.755374	0.241619	-0.178596
H243	H	0.744311	0.285260	-0.290501
H244	H	0.707619	0.381010	-0.110901
H245	H	0.696544	0.424652	-0.222797
H246	H	0.730132	0.671618	-0.649447
H247	H	0.746906	0.392623	-0.001876
H248	H	0.823160	0.205880	0.325598
H249	H	0.923264	0.683331	-0.240660
