data_functionalizedCrystal
_audit_creation_method	'MofGen! by Chris Wilmer'
_symmetry_space_group_name_H-M	'P1'
_symmetry_Int_Tables_number	1
_symmetry_cell_setting	triclinic
loop_
_symmetry_equiv_pos_as_xyz
  x,y,z
_cell_length_a	15.944551
_cell_length_b	14.853567
_cell_length_c	13.330367
_cell_angle_alpha	90.000844
_cell_angle_beta	90.003063
_cell_angle_gamma	83.566834
loop_
_atom_site_label
_atom_site_type_symbol
_atom_site_fract_x
_atom_site_fract_y
_atom_site_fract_z
O1	O	-1.114658	-0.116273	-0.083310
O2	O	-0.614658	0.383727	0.416690
O3	O	-0.870124	-0.130608	-0.083334
O4	O	-0.370124	0.369392	0.416666
O5	O	-0.998923	0.007798	-0.083325
O6	O	-0.498923	0.507798	0.416675
O7	O	-0.985859	-0.254678	-0.083320
O8	O	-0.485859	0.245322	0.416680
O9	O	-0.998904	0.007801	0.083522
O10	O	-0.498904	0.507801	0.583522
O11	O	-0.870105	-0.130605	0.083513
O12	O	-0.370105	0.369395	0.583513
O13	O	-1.114639	-0.116270	0.083537
O14	O	-0.614639	0.383730	0.583537
Cu15	Cu	-0.992370	-0.123437	0.098759
Cu16	Cu	-0.492370	0.376563	0.598759
Cu17	Cu	-0.992392	-0.123441	-0.098557
Cu18	Cu	-0.492392	0.376559	0.401443
O19	O	-0.985840	-0.254675	0.083527
O20	O	-0.485840	0.245325	0.583527
C21	C	-0.838820	-0.130011	0.000086
C22	C	-0.338820	0.369989	0.500086
C23	C	-0.745572	-0.128227	0.000077
C24	C	-0.245572	0.371773	0.500077
C25	C	-1.145943	-0.116866	0.000114
C26	C	-0.645943	0.383134	0.500114
C27	C	-1.239191	-0.118650	0.000117
C28	C	-0.739191	0.381350	0.500117
C29	C	-0.998321	0.041387	0.000096
C30	C	-0.498321	0.541387	0.500096
C31	C	-0.996547	0.141469	0.000087
C32	C	-0.496547	0.641469	0.500087
C33	C	-0.530615	-0.038172	0.000094
C34	C	-0.030615	0.461828	0.500094
C35	C	-0.469651	-0.079992	-0.082169
C36	C	0.030349	0.420008	0.417831
C37	C	-0.574842	-0.124999	0.000088
C38	C	-0.074842	0.375001	0.500088
C39	C	-0.469654	-0.080010	0.082329
C40	C	0.030346	0.419990	0.582329
C41	C	-0.409926	-0.121875	0.000104
C42	C	0.090074	0.378125	0.500104
C43	C	-0.515106	-0.166843	-0.082243
C44	C	-0.015106	0.333157	0.417757
C45	C	-0.515116	-0.166849	0.082329
C46	C	-0.015116	0.333151	0.582329
C47	C	-0.454170	-0.208732	0.000045
C48	C	0.045830	0.291268	0.500045
C49	C	-0.669847	-0.126797	0.000078
C50	C	-0.169847	0.373203	0.500078
C51	C	-0.314923	-0.120085	0.000107
C52	C	0.185077	0.379915	0.500107
C53	C	-0.986441	-0.288265	0.000104
C54	C	-0.486441	0.211735	0.500104
C55	C	-0.988215	-0.388346	0.000107
C56	C	-0.488215	0.111654	0.500107
N57	N	-0.992361	-0.123434	0.237541
N58	N	-0.492361	0.376566	0.737541
C59	C	-0.912540	0.553895	0.000098
C60	C	-0.412540	1.053895	0.500098
C61	C	-1.065556	0.575372	0.000113
C62	C	-0.565556	1.075372	0.500113
C63	C	-1.067224	0.481341	0.000107
C64	C	-0.567224	0.981341	0.500107
C65	C	-0.991549	0.423582	0.000098
C66	C	-0.491549	0.923582	0.500098
C67	C	-0.914206	0.459854	0.000095
C68	C	-0.414206	0.959854	0.500095
C69	C	-1.144565	0.445061	0.000120
C70	C	-0.644565	0.945061	0.500120
C71	C	-1.146236	0.351024	0.000116
C72	C	-0.646236	0.851024	0.500116
C73	C	-1.070560	0.293263	0.000100
C74	C	-0.570560	0.793263	0.500100
C75	C	-0.993214	0.329541	0.000096
C76	C	-0.493214	0.829541	0.500096
C77	C	-0.917539	0.271782	0.000087
C78	C	-0.417539	0.771782	0.500087
C79	C	-0.840192	0.308058	0.000075
C80	C	-0.340192	0.808058	0.500075
C81	C	-0.838530	0.402093	0.000079
C82	C	-0.338530	0.902093	0.500079
C83	C	-1.072223	0.199228	0.000096
C84	C	-0.572223	0.699228	0.500096
C85	C	-0.919205	0.177741	0.000084
C86	C	-0.419205	0.677741	0.500084
N87	N	-0.992408	-0.123437	-0.237338
N88	N	-0.492408	0.376563	0.262662
C89	C	-0.935358	-0.184703	0.710159
C90	C	-0.435358	0.315297	1.210159
C91	C	-1.049450	-0.062172	0.710136
C92	C	-0.549450	0.437828	1.210136
C93	C	-1.049440	-0.062169	0.605118
C94	C	-0.549440	0.437831	1.105118
C95	C	-0.992389	-0.123435	0.552615
C96	C	-0.492389	0.376565	1.052615
C97	C	-0.935348	-0.184704	0.605131
C98	C	-0.435348	0.315296	1.105131
C99	C	-1.106486	-0.000907	0.552594
C100	C	-0.606486	0.499093	1.052594
C101	C	-1.106479	-0.000903	0.447569
C102	C	-0.606479	0.499097	0.947569
C103	C	-1.049424	-0.062165	0.395065
C104	C	-0.549424	0.437835	0.895065
C105	C	-0.992380	-0.123436	0.447587
C106	C	-0.492380	0.376564	0.947587
C107	C	-0.935329	-0.184702	0.395085
C108	C	-0.435329	0.315298	0.895085
C109	C	-0.878280	-0.245969	0.447606
C110	C	-0.378280	0.254031	0.947606
C111	C	-0.878293	-0.245966	0.552627
C112	C	-0.378293	0.254034	1.052627
C113	C	-1.049411	-0.062168	0.290043
C114	C	-0.549411	0.437832	0.790043
C115	C	-0.935320	-0.184703	0.290057
C116	C	-0.435320	0.315297	0.790057
H117	H	-0.563867	0.033887	-0.000009
H118	H	-0.063867	0.533887	0.499991
H119	H	-0.449507	-0.043269	-0.151719
H120	H	0.050493	0.456731	0.348281
H121	H	-0.449519	-0.043268	0.151874
H122	H	0.050481	0.456732	0.651874
H123	H	-1.152930	0.048984	0.404813
H124	H	-0.652930	0.548984	0.904813
H125	H	-1.206176	0.492094	0.000137
H126	H	-0.706176	0.992094	0.500137
H127	H	-0.857580	0.130719	0.000072
H128	H	-0.357580	0.630719	0.500072
H129	H	-1.135197	0.169696	0.000112
H130	H	-0.635197	0.669696	0.500112
F131	F	-1.167206	0.064288	0.608470
F132	F	-0.667206	0.564288	1.108470
F133	F	-0.817584	-0.311168	0.608527
F134	F	-0.317584	0.188832	1.108527
F135	F	-1.110169	0.003024	0.766012
F136	F	-0.610169	0.503024	1.266012
F137	F	-0.756219	0.440708	0.000064
F138	F	-0.256219	0.940708	0.500064
F139	F	-0.410931	-0.303014	-0.000011
F140	F	0.089069	0.196986	0.499989
F141	F	-1.110128	0.003028	0.234153
F142	F	-0.610128	0.503028	0.734153
H143	H	-0.888859	-0.234590	0.247316
H144	H	-0.388859	0.265410	0.747316
H145	H	-0.535143	-0.203541	-0.151866
H146	H	-0.035143	0.296459	0.348134
H147	H	-0.535281	-0.203541	0.151882
H148	H	-0.035281	0.296459	0.651882
F149	F	-0.759656	0.246576	0.000074
F150	F	-0.259656	0.746576	0.500074
F151	F	-0.830226	0.592502	0.000077
F152	F	-0.330226	1.092502	0.500077
F153	F	-1.146090	0.636845	0.000137
F154	F	-0.646090	1.136845	0.500137
F155	F	-1.228554	0.312425	0.000115
F156	F	-0.728554	0.812425	0.500115
F157	F	-0.817570	-0.311176	0.391718
F158	F	-0.317570	0.188824	0.891718
F159	F	-0.874642	-0.249902	0.766053
F160	F	-0.374642	0.250098	1.266053
