data_functionalizedCrystal
_audit_creation_method	'MofGen! by Chris Wilmer'
_symmetry_space_group_name_H-M	'P1'
_symmetry_Int_Tables_number	1
_symmetry_cell_setting	triclinic
loop_
_symmetry_equiv_pos_as_xyz
  x,y,z
_cell_length_a	18.050590
_cell_length_b	19.120786
_cell_length_c	18.050582
_cell_angle_alpha	87.534997
_cell_angle_beta	90.000767
_cell_angle_gamma	92.454965
loop_
_atom_site_label
_atom_site_type_symbol
_atom_site_fract_x
_atom_site_fract_y
_atom_site_fract_z
Zn1	Zn	1.122683	-0.279875	-0.406968
Zn2	Zn	1.456017	0.053459	-0.073634
Zn3	Zn	1.789350	0.386792	0.259699
Zn4	Zn	1.117303	-0.397324	-0.277476
Zn5	Zn	1.450636	-0.063991	0.055858
Zn6	Zn	1.783969	0.269343	0.389191
Zn7	Zn	0.998503	-0.279863	-0.282826
Zn8	Zn	1.331837	0.053470	0.050507
Zn9	Zn	1.665170	0.386803	0.383841
Zn10	Zn	0.993162	-0.397273	-0.401660
Zn11	Zn	1.326495	-0.063939	-0.068327
Zn12	Zn	1.659828	0.269394	0.265006
O13	O	1.057913	-0.338584	-0.342232
O14	O	1.391246	-0.005250	-0.008899
O15	O	1.724579	0.328083	0.324434
O16	O	1.225893	-0.295481	-0.389772
O17	O	1.559226	0.037853	-0.056439
O18	O	1.892560	0.371186	0.276895
O19	O	1.101527	-0.381759	-0.174260
O20	O	1.434861	-0.048426	0.159073
O21	O	1.768194	0.284907	0.492407
O22	O	1.019463	-0.181576	-0.303754
O23	O	1.352797	0.151758	0.029579
O24	O	1.686130	0.485091	0.362913
O25	O	1.221940	-0.381770	-0.294635
O26	O	1.555273	-0.048437	0.038699
O27	O	1.888607	0.284897	0.372032
O28	O	1.110698	-0.181584	-0.394960
O29	O	1.444031	0.151749	-0.061627
O30	O	1.777365	0.485083	0.271707
O31	O	1.014246	-0.295462	-0.178191
O32	O	1.347579	0.037872	0.155142
O33	O	1.680913	0.371205	0.488476
O34	O	0.893871	-0.295412	-0.298608
O35	O	1.227205	0.037921	0.034725
O36	O	1.560538	0.371255	0.368059
O37	O	1.010359	-0.381683	-0.506290
O38	O	1.343693	-0.048350	-0.172956
O39	O	1.677026	0.284984	0.160377
O40	O	0.889947	-0.381672	-0.385915
O41	O	1.223280	-0.048339	-0.052582
O42	O	1.556613	0.284995	0.280752
O43	O	1.105518	-0.295431	-0.510189
O44	O	1.438852	0.037902	-0.176856
O45	O	1.772185	0.371236	0.156478
O46	O	1.096348	-0.495606	-0.289489
O47	O	1.429681	-0.162273	0.043845
O48	O	1.763015	0.171060	0.377178
O49	O	1.005142	-0.495569	-0.380727
O50	O	1.338475	-0.162235	-0.047393
O51	O	1.671809	0.171098	0.285940
C52	C	0.864963	-0.338536	-0.342267
C53	C	1.198296	-0.005202	-0.008933
C54	C	1.531629	0.328131	0.324400
C55	C	0.782417	-0.338532	-0.342298
C56	C	1.115751	-0.005199	-0.008965
C57	C	1.449084	0.328135	0.324369
C58	C	0.580848	-0.385575	-0.389652
C59	C	0.914181	-0.052241	-0.056318
C60	C	1.247515	0.281092	0.277015
C61	C	0.534340	-0.321532	-0.410818
C62	C	0.867673	0.011802	-0.077485
C63	C	1.201007	0.345135	0.255849
C64	C	0.631285	-0.338571	-0.342260
C65	C	0.964618	-0.005238	-0.008927
C66	C	1.297952	0.328095	0.324407
C67	C	0.530710	-0.402651	-0.321091
C68	C	0.864043	-0.069318	0.012242
C69	C	1.197376	0.264016	0.345575
C70	C	0.485298	-0.338615	-0.342224
C71	C	0.818631	-0.005282	-0.008891
C72	C	1.151965	0.328052	0.324442
C73	C	0.585866	-0.274494	-0.363463
C74	C	0.919199	0.058839	-0.030130
C75	C	1.252533	0.392172	0.303204
C76	C	0.582238	-0.355657	-0.273703
C77	C	0.915571	-0.022323	0.059630
C78	C	1.248904	0.311010	0.392964
C79	C	0.535754	-0.291570	-0.294846
C80	C	0.869088	0.041764	0.038488
C81	C	1.202421	0.375097	0.371821
C82	C	0.715384	-0.338547	-0.342282
C83	C	1.048718	-0.005214	-0.008949
C84	C	1.382051	0.328119	0.324384
C85	C	0.401201	-0.338632	-0.342202
C86	C	0.734534	-0.005298	-0.008869
C87	C	1.067867	0.328035	0.324464
C88	C	1.049602	-0.521073	-0.333967
C89	C	1.382935	-0.187739	-0.000634
C90	C	1.716268	0.145594	0.332699
C91	C	1.046114	-0.599142	-0.330457
C92	C	1.379447	-0.265809	0.002877
C93	C	1.712781	0.067524	0.336210
C94	C	1.091941	-0.635763	-0.376332
C95	C	1.425274	-0.302430	-0.042998
C96	C	1.758608	0.030903	0.290335
C97	C	1.088661	-0.709118	-0.373034
C98	C	1.421994	-0.375785	-0.039701
C99	C	1.755328	-0.042451	0.293632
C100	C	1.039557	-0.745850	-0.323857
C101	C	1.372891	-0.412517	0.009476
C102	C	1.706224	-0.079184	0.342810
C103	C	0.993725	-0.709224	-0.277980
C104	C	1.327058	-0.375891	0.055353
C105	C	1.660392	-0.042557	0.388687
C106	C	0.997002	-0.635871	-0.281282
C107	C	1.330335	-0.302537	0.052052
C108	C	1.663668	0.030796	0.385385
C109	C	1.027285	-0.967333	-0.311513
C110	C	1.360619	-0.633999	0.021820
C111	C	1.693952	-0.300666	0.355153
C112	C	1.024014	-1.040691	-0.308213
C113	C	1.357347	-0.707358	0.025120
C114	C	1.690680	-0.374025	0.358453
C115	C	1.118949	-1.040580	-0.403269
C116	C	1.452282	-0.707247	-0.069936
C117	C	1.785616	-0.373914	0.263398
C118	C	1.122225	-0.967226	-0.406563
C119	C	1.455558	-0.633892	-0.073230
C120	C	1.788891	-0.300559	0.260103
C121	C	1.076390	-0.930606	-0.360689
C122	C	1.409723	-0.597272	-0.027356
C123	C	1.743057	-0.263939	0.305978
C124	C	1.036205	-0.820831	-0.320483
C125	C	1.369538	-0.487497	0.012850
C126	C	1.702872	-0.154164	0.346183
C127	C	1.079739	-0.855627	-0.364067
C128	C	1.413072	-0.522293	-0.030733
C129	C	1.746406	-0.188960	0.302600
C130	C	1.251616	-0.338632	-0.342199
C131	C	1.584949	-0.005299	-0.008865
C132	C	1.918283	0.328034	0.324468
C133	C	1.334161	-0.338653	-0.342184
C134	C	1.667494	-0.005320	-0.008851
C135	C	2.000828	0.328014	0.324483
C136	C	1.057943	-0.338553	-0.535939
C137	C	1.391277	-0.005219	-0.202606
C138	C	1.724610	0.328114	0.130727
C139	C	1.057956	-0.338539	-0.618486
C140	C	1.391290	-0.005206	-0.285153
C141	C	1.724623	0.328127	0.048181
C142	C	1.066277	-0.155382	-0.350546
C143	C	1.399610	0.177951	-0.017213
C144	C	1.732943	0.511285	0.316121
C145	C	1.069841	-0.077312	-0.354089
C146	C	1.403174	0.256021	-0.020755
C147	C	1.736507	0.589354	0.312578
C148	C	1.006250	-0.385379	-0.815819
C149	C	1.339583	-0.052046	-0.482486
C150	C	1.672916	0.281288	-0.149153
C151	C	1.073231	-0.402560	-0.864416
C152	C	1.406564	-0.069227	-0.531083
C153	C	1.739897	0.264106	-0.197750
C154	C	1.057995	-0.338486	-0.769619
C155	C	1.391329	-0.005152	-0.436285
C156	C	1.724662	0.328181	-0.102952
C157	C	0.991052	-0.321285	-0.868104
C158	C	1.324386	0.012048	-0.534771
C159	C	1.657719	0.345382	-0.201438
C160	C	1.058027	-0.338435	-0.915606
C161	C	1.391360	-0.005102	-0.582273
C162	C	1.724694	0.328231	-0.248940
C163	C	1.125011	-0.355700	-0.817127
C164	C	1.458344	-0.022367	-0.483794
C165	C	1.791677	0.310966	-0.150461
C166	C	1.042788	-0.274395	-0.820812
C167	C	1.376121	0.058938	-0.487479
C168	C	1.709454	0.392271	-0.154145
C169	C	1.109817	-0.291552	-0.869388
C170	C	1.443150	0.041781	-0.536055
C171	C	1.776483	0.375114	-0.202721
C172	C	1.057976	-0.338517	-0.685519
C173	C	1.391309	-0.005183	-0.352186
C174	C	1.724643	0.328150	-0.018852
C175	C	1.058054	-0.338404	-0.999704
C176	C	1.391387	-0.005071	-0.666371
C177	C	1.724721	0.328262	-0.333038
C178	C	1.057927	-0.338564	-0.149281
C179	C	1.391261	-0.005231	0.184052
C180	C	1.724594	0.328103	0.517385
C181	C	1.058067	-0.338379	-0.066744
C182	C	1.391401	-0.005046	0.266589
C183	C	1.724734	0.328287	0.599923
H184	H	0.603317	-0.370113	-0.215757
H185	H	0.936650	-0.036780	0.117577
H186	H	1.269984	0.296554	0.450910
F187	F	0.978498	-0.928369	-0.262695
F188	F	1.311831	-0.595035	0.070639
F189	F	1.645165	-0.261702	0.403972
H190	H	0.513276	-0.307095	-0.468780
H191	H	0.846610	0.026239	-0.135447
H192	H	1.179943	0.359572	0.197886
H193	H	1.162209	-0.937320	-0.446607
H194	H	1.495542	-0.603986	-0.113274
H195	H	1.828876	-0.270653	0.220059
H196	H	1.153638	-0.251875	-0.892704
H197	H	1.486972	0.081459	-0.559370
H198	H	1.820305	0.414792	-0.226037
H199	H	0.609908	-0.220305	-0.381418
H200	H	0.943242	0.113028	-0.048084
H201	H	1.276575	0.446361	0.285249
H202	H	0.962527	-0.425087	-0.792366
H203	H	1.295860	-0.091754	-0.459032
H204	H	1.629194	0.241580	-0.125699
F205	F	1.090069	-0.473374	-0.889578
F206	F	1.423403	-0.140041	-0.556244
F207	F	1.756736	0.193293	-0.222911
H208	H	0.953741	-0.739137	-0.237942
H209	H	1.287074	-0.405804	0.095392
H210	H	1.620407	-0.072471	0.428725
H211	H	1.125984	-0.738932	-0.410385
H212	H	1.459317	-0.405598	-0.077052
H213	H	1.792651	-0.072265	0.256282
H214	H	1.029885	-0.220233	-0.801546
H215	H	1.363218	0.113101	-0.468212
H216	H	1.696552	0.446434	-0.134879
F217	F	1.199042	-0.374775	-0.788013
F218	F	1.532375	-0.041442	-0.454679
F219	F	1.865709	0.291892	-0.121346
F220	F	1.167724	-1.079559	-0.452090
F221	F	1.501058	-0.746226	-0.118757
F222	F	1.834391	-0.412892	0.214576
F223	F	0.917039	-0.302296	-0.897338
F224	F	1.250372	0.031038	-0.564005
F225	F	1.583706	0.364371	-0.230671
H226	H	0.600722	-0.425254	-0.429779
H227	H	0.934055	-0.091921	-0.096446
H228	H	1.267389	0.241412	0.236887
H229	H	0.506573	-0.456824	-0.303204
H230	H	0.839907	-0.123490	0.030129
H231	H	1.173240	0.209843	0.363462
F232	F	1.144209	-0.596677	-0.428670
F233	F	1.477542	-0.263343	-0.095336
F234	F	1.810875	0.069990	0.237997
F235	F	0.509962	-0.239581	-0.242443
F236	F	0.843295	0.093752	0.090890
F237	F	1.176629	0.427086	0.424223
F238	F	0.971750	-1.079783	-0.255868
F239	F	1.305084	-0.746450	0.077466
F240	F	1.638417	-0.413116	0.410799
H241	H	0.959684	-0.606054	-0.243926
H242	H	1.293017	-0.272721	0.089407
H243	H	1.626350	0.060612	0.422740
F244	F	1.131993	-0.816532	-0.416407
F245	F	1.465326	-0.483199	-0.083074
F246	F	1.798660	-0.149866	0.250260
F247	F	0.983943	-0.859930	-0.268150
F248	F	1.317276	-0.526597	0.065183
F249	F	1.650610	-0.193263	0.398517
