data_functionalizedCrystal
_audit_creation_method	'MofGen! by Chris Wilmer'
_symmetry_space_group_name_H-M	'P1'
_symmetry_Int_Tables_number	1
_symmetry_cell_setting	triclinic
loop_
_symmetry_equiv_pos_as_xyz
  x,y,z
_cell_length_a	13.596369
_cell_length_b	11.792241
_cell_length_c	11.792241
_cell_angle_alpha	84.193416
_cell_angle_beta	89.993871
_cell_angle_gamma	89.998888
loop_
_atom_site_label
_atom_site_type_symbol
_atom_site_fract_x
_atom_site_fract_y
_atom_site_fract_z
O1	O	0.081696	-1.506910	-0.155570
O2	O	0.581696	-1.006910	0.344430
O3	O	0.081719	-1.176569	-0.171603
O4	O	0.581719	-0.676569	0.328397
O5	O	0.081700	-1.349756	0.001584
O6	O	0.581700	-0.849756	0.501584
O7	O	0.081715	-1.333723	-0.328757
O8	O	0.581715	-0.833723	0.171243
O9	O	-0.081883	-1.349738	0.001594
O10	O	0.418117	-0.849738	0.501594
O11	O	-0.081864	-1.176551	-0.171593
O12	O	0.418136	-0.676551	0.328407
O13	O	-0.081887	-1.506892	-0.155560
O14	O	0.418113	-1.006892	0.344440
Zn15	Zn	-0.107847	-1.341719	-0.163575
Zn16	Zn	0.392153	-0.841719	0.336425
Zn17	Zn	0.107680	-1.341742	-0.163588
Zn18	Zn	0.607680	-0.841742	0.336412
O19	O	-0.081868	-1.333706	-0.328747
O20	O	0.418132	-0.833706	0.171253
C21	C	-0.000069	-1.134269	-0.170591
C22	C	0.499931	-0.634269	0.329409
C23	C	-0.000061	-1.008255	-0.167576
C24	C	0.499939	-0.508255	0.332424
C25	C	-0.000091	-1.348740	0.043880
C26	C	0.499909	-0.848740	0.543880
C27	C	-0.000090	-1.345726	0.169894
C28	C	0.499910	-0.845726	0.669894
N29	N	-0.254939	-1.341712	-0.163566
N30	N	0.245061	-0.841712	0.336434
C31	C	-0.656230	-1.341741	-0.163589
C32	C	-0.156230	-0.841741	0.336411
C33	C	-0.544579	-1.341729	-0.163586
C34	C	-0.044579	-0.841729	0.336414
C35	C	-0.455588	-1.341727	-0.163578
C36	C	0.044412	-0.841727	0.336422
C37	C	-0.343930	-1.341714	-0.163574
C38	C	0.156070	-0.841714	0.336426
N39	N	0.254772	-1.341758	-0.163588
N40	N	0.754772	-0.841758	0.336412
C41	C	-0.000096	-1.549192	-0.156572
C42	C	0.499904	-1.049192	0.343428
C43	C	-0.000098	-1.675206	-0.159587
C44	C	0.499902	-1.175206	0.340413
C45	C	-0.000089	-0.777543	-0.162034
C46	C	0.499911	-0.277543	0.337966
C47	C	-0.000074	-0.905928	-0.165113
C48	C	0.499926	-0.405928	0.334887
C49	C	-0.000074	-1.334721	-0.371043
C50	C	0.499926	-0.834721	0.128957
C51	C	-0.000069	-1.337736	-0.497057
C52	C	0.499931	-0.837736	0.002943
C53	C	-0.000073	-1.340183	0.400606
C54	C	0.499927	-0.840183	0.900606
C55	C	-0.000082	-1.343262	0.272221
C56	C	0.499918	-0.843262	0.772221
