data_functionalizedCrystal
_audit_creation_method	'MofGen! by Chris Wilmer'
_symmetry_space_group_name_H-M	'P1'
_symmetry_Int_Tables_number	1
_symmetry_cell_setting	triclinic
loop_
_symmetry_equiv_pos_as_xyz
  x,y,z
_cell_length_a	16.109318
_cell_length_b	19.188924
_cell_length_c	14.586319
_cell_angle_alpha	89.994146
_cell_angle_beta	90.000075
_cell_angle_gamma	83.305264
loop_
_atom_site_label
_atom_site_type_symbol
_atom_site_fract_x
_atom_site_fract_y
_atom_site_fract_z
O1	O	1.102822	0.089802	-0.076168
O2	O	1.602822	0.589802	0.423832
O3	O	0.860724	0.100958	-0.076187
O4	O	1.360724	0.600958	0.423813
O5	O	0.988762	-0.006260	-0.076167
O6	O	1.488762	0.493740	0.423833
O7	O	0.974784	0.197019	-0.076189
O8	O	1.474784	0.697019	0.423811
O9	O	0.988753	-0.006261	0.076314
O10	O	1.488753	0.493739	0.576314
O11	O	0.860715	0.100956	0.076293
O12	O	1.360715	0.600956	0.576293
O13	O	1.102813	0.089800	0.076312
O14	O	1.602813	0.589800	0.576312
Cu15	Cu	0.981763	0.095378	0.090226
Cu16	Cu	1.481763	0.595378	0.590226
Cu17	Cu	0.981774	0.095380	-0.090101
Cu18	Cu	1.481774	0.595380	0.409899
O19	O	0.974775	0.197017	0.076292
O20	O	1.474775	0.697017	0.576292
C21	C	0.829747	0.100503	0.000051
C22	C	1.329747	0.600503	0.500051
C23	C	0.737457	0.099142	0.000044
C24	C	1.237457	0.599142	0.500044
C25	C	0.438403	0.094746	-0.083057
C26	C	0.938403	0.594746	0.416943
C27	C	0.525120	0.096021	-0.083063
C28	C	1.025120	0.596021	0.416937
C29	C	0.525129	0.096009	0.083180
C30	C	1.025129	0.596009	0.583180
C31	C	0.438414	0.094730	0.083185
C32	C	0.938414	0.594730	0.583185
C33	C	0.395053	0.094102	0.000064
C34	C	0.895053	0.594102	0.500064
C35	C	0.568484	0.096656	0.000053
C36	C	1.068484	0.596656	0.500053
C37	C	0.662507	0.098037	0.000048
C38	C	1.162507	0.598037	0.500048
C39	C	0.301024	0.092719	0.000069
C40	C	0.801024	0.592719	0.500069
C41	C	0.988306	-0.032272	0.000075
C42	C	1.488306	0.467728	0.500075
C43	C	0.986950	-0.109780	0.000077
C44	C	1.486950	0.390220	0.500077
C45	C	0.986322	-0.146180	-0.083040
C46	C	1.486322	0.353820	0.416960
C47	C	0.985036	-0.219006	-0.083048
C48	C	1.485036	0.280994	0.416952
C49	C	0.984395	-0.255431	0.000068
C50	C	1.484395	0.244569	0.500068
C51	C	0.985018	-0.219022	0.083196
C52	C	1.485018	0.280978	0.583196
C53	C	0.986296	-0.146197	0.083201
C54	C	1.486296	0.353803	0.583201
N55	N	1.029698	-0.374987	0.061932
N56	N	1.529698	0.125013	0.561932
N57	N	1.028486	-0.444168	0.061922
N58	N	1.528486	0.055832	0.561922
C59	C	0.980544	-0.474849	0.000058
C60	C	1.480544	0.025151	0.500058
N61	N	0.933870	-0.433737	-0.061808
N62	N	1.433870	0.066263	0.438192
N63	N	0.935086	-0.364550	-0.061801
N64	N	1.435086	0.135450	0.438199
C65	C	0.983009	-0.334398	0.000072
C66	C	1.483009	0.165602	0.500072
C67	C	0.978520	-0.590215	-0.083072
C68	C	1.478520	-0.090215	0.416928
C69	C	0.977229	-0.663041	-0.083076
C70	C	1.477229	-0.163041	0.416924
C71	C	0.977220	-0.663057	0.083170
C72	C	1.477220	-0.163057	0.583170
C73	C	0.978503	-0.590231	0.083171
C74	C	1.478503	-0.090231	0.583171
C75	C	0.979157	-0.553815	0.000047
C76	C	1.479157	-0.053815	0.500047
C77	C	1.133790	0.090255	0.000072
C78	C	1.633790	0.590255	0.500072
C79	C	1.226080	0.091616	0.000073
C80	C	1.726080	0.591616	0.500073
C81	C	0.975231	0.223030	0.000048
C82	C	1.475231	0.723030	0.500048
C83	C	0.976587	0.300538	0.000040
C84	C	1.476587	0.800538	0.500040
N85	N	0.981762	0.095376	0.217057
N86	N	1.481762	0.595376	0.717057
N87	N	0.981782	0.095376	-0.216932
N88	N	1.481782	0.595376	0.283068
C89	C	1.038476	0.047916	0.452073
C90	C	1.538476	0.547916	0.952073
C91	C	1.038478	0.047915	0.548054
C92	C	1.538478	0.547915	1.048054
C93	C	0.925062	0.142838	0.548045
C94	C	1.425062	0.642838	1.048045
C95	C	0.925056	0.142836	0.452066
C96	C	1.425056	0.642836	0.952066
C97	C	0.981768	0.095376	0.404082
C98	C	1.481768	0.595376	0.904082
C99	C	0.981776	0.095376	0.596043
C100	C	1.481776	0.595376	1.096043
C101	C	0.981778	0.095375	0.700110
C102	C	1.481778	0.595375	1.200110
C103	C	0.981765	0.095376	0.300008
C104	C	1.481765	0.595376	0.800008
H105	H	0.560444	0.096522	0.150855
H106	H	1.060444	0.596522	0.650855
H107	H	0.403118	0.094205	0.150876
H108	H	0.903118	0.594205	0.650876
O109	O	0.870011	0.189037	0.594555
O110	O	1.370011	0.689037	1.094555
C111	C	0.820876	0.310429	0.623939
C112	C	1.320876	0.810429	1.123939
C113	C	0.883256	0.258184	0.571198
C114	C	1.383256	0.758184	1.071198
H115	H	0.831575	0.366346	0.605089
H116	H	1.331575	0.866346	1.105089
H117	H	0.754305	0.301367	0.605054
H118	H	1.254305	0.801367	1.105054
H119	H	0.830607	0.302246	0.700778
H120	H	1.330607	0.802246	1.200778
H121	H	0.873602	0.266336	0.494347
H122	H	1.373602	0.766336	0.994347
H123	H	0.949805	0.267259	0.590159
H124	H	1.449805	0.767259	1.090159
O125	O	0.870082	0.188973	0.405342
O126	O	1.370082	0.688973	0.905342
C127	C	0.852033	0.284347	0.297002
C128	C	1.352033	0.784347	0.797002
C129	C	0.914379	0.232131	0.349842
C130	C	1.414379	0.732131	0.849842
H131	H	0.887822	0.319264	0.252132
H132	H	1.387822	0.819264	0.752132
H133	H	0.810621	0.254228	0.252013
H134	H	1.310621	0.754228	0.752013
H135	H	0.811490	0.318241	0.347801
H136	H	1.311490	0.818241	0.847801
H137	H	0.954977	0.198224	0.299109
H138	H	1.454977	0.698224	0.799109
H139	H	0.955733	0.262293	0.394845
H140	H	1.455733	0.762293	0.894845
O141	O	0.986910	-0.110909	-0.163866
O142	O	1.486910	0.389091	0.336134
C143	C	0.986837	-0.118588	-0.328756
C144	C	1.486837	0.381412	0.171244
C145	C	0.986153	-0.158619	-0.237289
C146	C	1.486153	0.341381	0.262711
H147	H	0.986242	-0.157146	-0.388143
H148	H	1.486242	0.342854	0.111857
H149	H	0.929249	-0.078111	-0.332980
H150	H	1.429249	0.421889	0.167020
H151	H	1.045591	-0.090872	-0.332856
H152	H	1.545591	0.409128	0.167144
H153	H	0.927437	-0.186377	-0.233128
H154	H	1.427437	0.313623	0.266872
H155	H	1.043780	-0.199056	-0.233104
H156	H	1.543780	0.300944	0.266896
H157	H	0.984520	-0.248648	-0.150734
H158	H	1.484520	0.251352	0.349266
H159	H	0.403100	0.094234	-0.150740
H160	H	0.903100	0.594234	0.349260
O161	O	0.984282	-0.254466	0.163877
O162	O	1.484282	0.245534	0.663877
C163	C	0.910794	-0.328737	0.260368
C164	C	1.410794	0.171263	0.760368
C165	C	0.911540	-0.288646	0.168952
C166	C	1.411540	0.211354	0.668952
H167	H	0.851979	-0.356370	0.264509
H168	H	1.351979	0.143630	0.764509
H169	H	0.968326	-0.369275	0.264546
H170	H	1.468326	0.130725	0.764546
H171	H	0.911503	-0.290198	0.319761
H172	H	1.411503	0.209802	0.819761
H173	H	0.910803	-0.327131	0.109506
H174	H	1.410803	0.172869	0.609506
H175	H	0.854013	-0.248097	0.164854
H176	H	1.354013	0.251903	0.664854
H177	H	0.560411	0.096544	-0.150748
H178	H	1.060411	0.596544	0.349252
O179	O	1.093486	0.001840	0.594814
O180	O	1.593486	0.501840	1.094814
C181	C	1.143794	-0.040202	0.742678
C182	C	1.643794	0.459798	1.242678
C183	C	1.081439	0.012007	0.689838
C184	C	1.581439	0.512007	1.189838
H185	H	1.134087	-0.031991	0.819513
H186	H	1.634087	0.468009	1.319513
H187	H	1.133169	-0.096144	0.723882
H188	H	1.633169	0.403856	1.223882
H189	H	1.210338	-0.031089	0.723746
H190	H	1.710338	0.468911	1.223746
H191	H	1.014871	0.002958	0.708741
H192	H	1.514871	0.502958	1.208741
H193	H	1.092136	0.067931	0.708637
H194	H	1.592136	0.567931	1.208637
H195	H	0.986804	-0.116560	0.150887
H196	H	1.486804	0.383440	0.650887
O197	O	0.979107	-0.554938	-0.163896
O198	O	1.479107	-0.054938	0.336104
C199	C	0.979027	-0.562611	-0.328787
C200	C	1.479027	-0.062611	0.171213
C201	C	0.978342	-0.602644	-0.237321
C202	C	1.478342	-0.102644	0.262679
H203	H	0.978426	-0.601166	-0.388175
H204	H	1.478426	-0.101166	0.111825
H205	H	0.921443	-0.522129	-0.333007
H206	H	1.421443	-0.022129	0.166993
H207	H	1.037785	-0.534900	-0.332887
H208	H	1.537785	-0.034900	0.167113
H209	H	0.919623	-0.630398	-0.233159
H210	H	1.419623	-0.130398	0.266841
H211	H	1.035965	-0.643086	-0.233140
H212	H	1.535965	-0.143086	0.266860
H213	H	0.976714	-0.692676	-0.150763
H214	H	1.476714	-0.192676	0.349237
O215	O	0.979162	-0.554982	0.163995
O216	O	1.479162	-0.054982	0.663995
C217	C	0.978977	-0.562681	0.328884
C218	C	1.478977	-0.062681	0.828884
C219	C	0.978250	-0.602689	0.237414
C220	C	1.478250	-0.102689	0.737414
H221	H	0.978222	-0.601233	0.388268
H222	H	1.478222	-0.101233	0.888268
H223	H	1.037761	-0.535011	0.333106
H224	H	1.537761	-0.035011	0.833106
H225	H	0.921420	-0.522166	0.332991
H226	H	1.421420	-0.022166	0.832991
H227	H	1.035766	-0.643238	0.233246
H228	H	1.535766	-0.143238	0.733246
H229	H	0.919428	-0.630311	0.233231
H230	H	1.419428	-0.130311	0.733231
O231	O	1.093590	0.001744	0.405603
O232	O	1.593590	0.501744	0.905603
C233	C	1.206112	-0.092383	0.415747
C234	C	1.706112	0.407617	0.915747
C235	C	1.143729	-0.040138	0.468484
C236	C	1.643729	0.459862	0.968484
H237	H	1.246677	-0.126248	0.466563
H238	H	1.746677	0.373752	0.966563
H239	H	1.170387	-0.127322	0.370846
H240	H	1.670387	0.372678	0.870846
H241	H	1.247494	-0.062216	0.370779
H242	H	1.747494	0.437784	0.870779
H243	H	1.102331	-0.070248	0.513503
H244	H	1.602331	0.429752	1.013503
H245	H	1.179505	-0.005200	0.513327
H246	H	1.679505	0.494800	1.013327
H247	H	0.976692	-0.692713	0.150844
H248	H	1.476692	-0.192713	0.650844
