data_functionalizedCrystal
_audit_creation_method	'MofGen! by Chris Wilmer'
_symmetry_space_group_name_H-M	'P1'
_symmetry_Int_Tables_number	1
_symmetry_cell_setting	triclinic
loop_
_symmetry_equiv_pos_as_xyz
  x,y,z
_cell_length_a	14.519709
_cell_length_b	10.654541
_cell_length_c	9.730217
_cell_angle_alpha	89.996959
_cell_angle_beta	90.004205
_cell_angle_gamma	84.082037
loop_
_atom_site_label
_atom_site_type_symbol
_atom_site_fract_x
_atom_site_fract_y
_atom_site_fract_z
O1	O	1.224716	0.164621	-0.114110
O2	O	0.956340	0.184008	-0.114152
O3	O	1.096699	-0.008484	-0.114122
O4	O	1.084356	0.357113	-0.114141
O5	O	1.096695	-0.008486	0.114458
O6	O	0.956335	0.184006	0.114428
O7	O	1.224712	0.164619	0.114470
Zn8	Zn	1.090523	0.174312	0.150741
Zn9	Zn	1.090528	0.174315	-0.150423
O10	O	1.084352	0.357112	0.114440
C11	C	1.095791	-0.055275	0.000167
C12	C	1.093081	-0.194692	0.000164
C13	C	0.921973	0.183103	0.000133
C14	C	0.819578	0.180396	0.000117
C15	C	1.260920	-0.224277	0.000208
C16	C	1.343562	-0.304566	0.000233
C17	C	1.341010	-0.435559	0.000228
C18	C	1.255806	-0.486265	0.000195
C19	C	1.173164	-0.405976	0.000170
C20	C	1.175725	-0.274981	0.000179
C21	C	1.005328	-0.376392	0.000117
C22	C	1.007878	-0.245398	0.000131
C23	C	0.920124	-0.427098	0.000084
C24	C	0.837480	-0.346809	0.000069
C25	C	0.840036	-0.215808	0.000075
C26	C	0.925236	-0.165109	0.000107
C27	C	0.444630	0.170429	0.000180
C28	C	0.548952	0.173197	0.000162
C29	C	0.632101	0.175412	0.000147
C30	C	0.736429	0.178181	0.000132
C31	C	1.259078	0.165524	0.000182
C32	C	1.361474	0.168231	0.000189
C33	C	1.085260	0.403902	0.000147
C34	C	1.087970	0.543319	0.000141
N35	N	1.090526	0.174310	0.356277
N36	N	1.090533	0.174307	-0.355960
C37	C	1.214865	0.003908	0.356295
C38	C	1.277042	-0.081290	0.428244
C39	C	1.277051	-0.081291	0.572123
C40	C	1.214876	0.003913	0.644058
C41	C	1.152700	0.089110	0.572109
C42	C	1.152699	0.089104	0.428226
C43	C	1.028357	0.259505	0.572092
C44	C	1.028350	0.259514	0.428212
C45	C	0.966181	0.344708	0.644026
C46	C	0.904008	0.429914	0.572077
C47	C	0.904002	0.429912	0.428189
C48	C	0.966174	0.344711	0.356263
H49	H	1.263006	-0.117616	0.000231
H50	H	1.327663	-0.150665	0.369662
H51	H	0.768114	-0.388105	0.000033
H52	H	1.412933	-0.263266	0.000272
C53	C	0.836464	0.522208	0.650355
C54	C	0.779611	0.455121	0.732977
C55	C	0.717386	0.540101	0.805126
H56	H	0.799344	0.572992	0.587064
H57	H	0.869944	0.574567	0.706567
H58	H	0.746133	0.402783	0.676770
H59	H	0.816705	0.404341	0.796294
H60	H	0.750866	0.592460	0.861338
H61	H	0.680273	0.590880	0.741824
H62	H	0.678810	0.494595	0.861202
H63	H	0.966188	0.344699	0.761181
C64	C	0.836388	0.522215	0.350005
C65	C	0.779498	0.455139	0.267430
C66	C	0.717192	0.540128	0.195407
H67	H	0.869777	0.574637	0.293765
H68	H	0.799310	0.572935	0.413414
H69	H	0.816571	0.404441	0.204028
H70	H	0.746088	0.402722	0.323636
H71	H	0.680114	0.590847	0.258816
H72	H	0.750589	0.592545	0.139175
H73	H	0.678579	0.494629	0.139381
H74	H	0.918052	-0.533761	0.000071
H75	H	0.927325	-0.058449	0.000120
H76	H	0.772738	-0.150442	0.000049
C77	C	1.430835	-0.522528	0.000321
C78	C	1.505998	-0.450094	0.000379
C79	C	1.588758	-0.530166	0.000482
H80	H	1.433460	-0.574267	-0.079369
H81	H	1.433368	-0.574230	0.080063
H82	H	1.503466	-0.398414	-0.079355
H83	H	1.503404	-0.398358	0.080063
H84	H	1.591292	-0.581868	0.080224
H85	H	1.591374	-0.581901	-0.079209
H86	H	1.639767	-0.481032	0.000534
H87	H	1.214880	0.003896	0.761212
C88	C	1.214750	0.004153	0.200082
C89	C	1.147007	0.097021	0.152469
C90	C	1.146883	0.097293	0.008574
H91	H	1.201591	-0.076079	0.167362
H92	H	1.273779	0.021597	0.167488
H93	H	1.087991	0.079568	0.185049
H94	H	1.160150	0.177266	0.185152
H95	H	1.205913	0.114737	-0.024020
H96	H	1.133727	0.017057	-0.024133
H97	H	1.100927	0.160310	-0.023750
C98	C	1.344652	-0.173854	0.649999
C99	C	1.399111	-0.248457	0.556217
C100	C	1.461400	-0.333731	0.627905
H101	H	1.311252	-0.226349	0.706134
H102	H	1.383378	-0.128589	0.706097
H103	H	1.360390	-0.293719	0.500142
H104	H	1.432531	-0.195997	0.500079
H105	H	1.500126	-0.288466	0.684003
H106	H	1.427992	-0.386217	0.684037
H107	H	1.498363	-0.384352	0.564285
H108	H	0.966178	0.344707	0.239109
H109	H	1.253736	-0.592928	0.000174
