data_functionalizedCrystal
_audit_creation_method	'MofGen! by Chris Wilmer'
_symmetry_space_group_name_H-M	'P1'
_symmetry_Int_Tables_number	1
_symmetry_cell_setting	triclinic
loop_
_symmetry_equiv_pos_as_xyz
  x,y,z
_cell_length_a	14.044191
_cell_length_b	10.540539
_cell_length_c	12.503572
_cell_angle_alpha	93.560877
_cell_angle_beta	86.162165
_cell_angle_gamma	88.858634
loop_
_atom_site_label
_atom_site_type_symbol
_atom_site_fract_x
_atom_site_fract_y
_atom_site_fract_z
O1	O	1.265199	0.299579	-0.089259
O2	O	1.598532	0.632912	0.244074
O3	O	1.931865	0.966246	0.577408
O4	O	0.989155	0.288517	-0.089273
O5	O	1.322488	0.621850	0.244061
O6	O	1.655822	0.955184	0.577394
O7	O	1.133475	0.109979	-0.089264
O8	O	1.466808	0.443312	0.244069
O9	O	1.800141	0.776645	0.577402
O10	O	1.120879	0.478118	-0.089267
O11	O	1.454212	0.811451	0.244066
O12	O	1.787546	1.144784	0.577399
O13	O	1.122621	0.123430	0.089377
O14	O	1.455954	0.456763	0.422710
O15	O	1.789288	0.790097	0.756044
O16	O	0.978301	0.301969	0.089368
O17	O	1.311635	0.635302	0.422702
O18	O	1.644968	0.968635	0.756035
O19	O	1.254345	0.313030	0.089382
O20	O	1.587678	0.646364	0.422716
O21	O	1.921012	0.979697	0.756049
Cu22	Cu	1.115332	0.308728	0.105687
Cu23	Cu	1.448666	0.642061	0.439020
Cu24	Cu	1.781999	0.975394	0.772353
Cu25	Cu	1.128168	0.292820	-0.105577
Cu26	Cu	1.461501	0.626153	0.227756
Cu27	Cu	1.794835	0.959487	0.561089
O28	O	1.110026	0.491569	0.089374
O29	O	1.443359	0.824902	0.422707
O30	O	1.776692	1.158236	0.756040
C31	C	0.948381	0.290404	0.000046
C32	C	1.281714	0.623737	0.333379
C33	C	1.615048	0.957071	0.666713
C34	C	0.843058	0.275970	0.000041
C35	C	1.176391	0.609303	0.333374
C36	C	1.509724	0.942637	0.666707
C37	C	0.593285	0.351949	0.000051
C38	C	0.926618	0.685282	0.333384
C39	C	1.259952	1.018615	0.666717
C40	C	0.650221	0.249604	0.000050
C41	C	0.983555	0.582937	0.333383
C42	C	1.316888	0.916271	0.666716
C43	C	0.757525	0.264278	0.000045
C44	C	1.090859	0.597611	0.333378
C45	C	1.424192	0.930944	0.666711
C46	C	0.485971	0.337277	0.000056
C47	C	0.819304	0.670610	0.333389
C48	C	1.152638	1.003944	0.666722
C49	C	1.127103	0.069306	0.000054
C50	C	1.460437	0.402639	0.333388
C51	C	1.793770	0.735972	0.666721
C52	C	1.124278	-0.071929	0.000049
C53	C	1.457611	0.261405	0.333382
C54	C	1.790944	0.594738	0.666715
C55	C	1.016013	-0.266338	-0.000358
C56	C	1.349346	0.066996	0.332975
C57	C	1.682679	0.400329	0.666309
C58	C	1.018853	-0.119399	0.000044
C59	C	1.352186	0.213934	0.333378
C60	C	1.685520	0.547267	0.666711
C61	C	1.168815	-0.120774	0.102064
C62	C	1.502148	0.212560	0.435397
C63	C	1.835481	0.545893	0.768731
C64	C	1.165211	-0.267676	0.102150
C65	C	1.498545	0.065658	0.435483
C66	C	1.831878	0.398991	0.768816
C67	C	1.179698	-0.283274	-0.100999
C68	C	1.513031	0.050059	0.232335
C69	C	1.846365	0.383393	0.565668
C70	C	1.180751	-0.136295	-0.102347
C71	C	1.514084	0.197038	0.230986
C72	C	1.847418	0.530371	0.564319
C73	C	1.295119	0.311144	0.000061
C74	C	1.628452	0.644477	0.333395
C75	C	1.961786	0.977810	0.666728
C76	C	1.400443	0.325577	0.000060
C77	C	1.733776	0.658910	0.333393
C78	C	2.067110	0.992243	0.666726
C79	C	1.116397	0.532242	0.000053
C80	C	1.449730	0.865575	0.333386
C81	C	1.783064	1.198908	0.666719
C82	C	1.119223	0.673476	0.000052
C83	C	1.452556	1.006809	0.333385
C84	C	1.785890	1.340142	0.666718
N85	N	1.106311	0.319917	0.254279
N86	N	1.439645	0.653250	0.587612
N87	N	1.772978	0.986583	0.920945
N88	N	1.137196	0.281622	-0.254169
N89	N	1.470530	0.614955	0.079164
N90	N	1.803863	0.948289	0.412498
C91	C	1.093041	0.336386	0.473393
C92	C	1.426375	0.669720	0.806726
C93	C	1.759708	1.003053	1.140060
C94	C	1.150463	0.265156	0.526724
C95	C	1.483797	0.598489	0.860057
C96	C	1.817130	0.931823	1.193390
C97	C	1.143080	0.274320	0.648646
C98	C	1.476413	0.607653	0.981980
C99	C	1.809746	0.940987	1.315313
C100	C	1.100424	0.327224	0.351459
C101	C	1.433757	0.660557	0.684793
C102	C	1.767090	0.993890	1.018126
H103	H	0.625127	0.450581	0.000046
H104	H	0.958460	0.783914	0.333380
H105	H	1.291793	1.117248	0.666713
F106	F	1.116722	-0.062284	0.201290
F107	F	1.450055	0.271049	0.534623
F108	F	1.783388	0.604382	0.867957
H109	H	0.974202	-0.076194	0.073291
H110	H	1.307535	0.257140	0.406624
H111	H	1.640869	0.590473	0.739958
F112	F	1.021542	0.425088	0.533394
F113	F	1.354876	0.758421	0.866727
F114	F	1.688209	1.091755	1.200061
F115	F	0.972481	-0.076184	-0.095540
F116	F	1.305814	0.257149	0.237793
F117	F	1.639147	0.590482	0.571127
H118	H	0.618383	0.150958	-0.000025
H119	H	0.951716	0.484291	0.333308
H120	H	1.285049	0.817624	0.666642
F121	F	1.263942	-0.319899	0.108215
F122	F	1.597276	0.013434	0.441549
F123	F	1.930609	0.346768	0.774882
F124	F	1.141234	-0.336623	-0.202064
F125	F	1.474567	-0.003289	0.131269
F126	F	1.807901	0.330044	0.464603
F127	F	0.967386	-0.316422	-0.095981
F128	F	1.300719	0.016912	0.237352
F129	F	1.634052	0.350245	0.570686
F130	F	0.955897	-0.304606	0.094462
F131	F	1.289231	0.028727	0.427795
F132	F	1.622564	0.362061	0.761128
F133	F	1.222255	0.176864	0.466721
F134	F	1.555588	0.510198	0.800054
F135	F	1.888921	0.843531	1.133387
H136	H	1.123083	-0.293925	0.178405
H137	H	1.456416	0.039408	0.511738
H138	H	1.789750	0.372741	0.845071
F139	F	1.269708	-0.080950	0.107031
F140	F	1.603042	0.252383	0.440364
F141	F	1.936375	0.585717	0.773697
F142	F	1.138604	-0.094593	-0.201005
F143	F	1.471937	0.238740	0.132329
F144	F	1.805271	0.572073	0.465662
F145	F	1.281705	-0.095077	-0.110401
F146	F	1.615038	0.238256	0.222932
F147	F	1.948372	0.571590	0.556266
F148	F	1.279282	-0.335004	-0.101893
F149	F	1.612615	-0.001671	0.231440
F150	F	1.945949	0.331663	0.564774
