data_functionalizedCrystal
_audit_creation_method	'MofGen! by Chris Wilmer'
_symmetry_space_group_name_H-M	'P1'
_symmetry_Int_Tables_number	1
_symmetry_cell_setting	triclinic
loop_
_symmetry_equiv_pos_as_xyz
  x,y,z
_cell_length_a	6.817900
_cell_length_b	17.458045
_cell_length_c	10.773894
_cell_angle_alpha	96.109298
_cell_angle_beta	96.645922
_cell_angle_gamma	106.367962
loop_
_atom_site_label
_atom_site_type_symbol
_atom_site_fract_x
_atom_site_fract_y
_atom_site_fract_z
V1	V	-3.963286	-0.107620	-0.390023
O2	O	-3.936847	0.008193	-0.381458
O3	O	-3.929817	-0.216299	-0.388453
O4	O	-3.880549	-0.104639	-0.559625
O5	O	-3.986457	-0.104240	-0.209101
V6	V	-4.449428	-0.093924	-0.368250
O7	O	-4.218798	-0.137664	-0.437784
O8	O	-4.644113	-0.063881	-0.320489
O9	O	-4.259690	0.014754	-0.369821
O10	O	-4.593264	-0.209738	-0.376815
O11	O	-4.543654	-0.097305	-0.549173
O12	O	-4.308958	-0.096906	-0.198648
C13	C	-3.779562	-0.242834	-0.382583
C14	C	-3.833255	-0.331672	-0.382429
C15	C	-3.677083	-0.369387	-0.376091
C16	C	-3.727543	-0.452859	-0.375932
C17	C	-3.934178	-0.498614	-0.382120
C18	C	-4.090360	-0.460893	-0.388455
C19	C	-4.039897	-0.377422	-0.388605
C20	C	-4.104552	-0.748686	-0.382334
C21	C	-4.155004	-0.832162	-0.382187
C22	C	-3.792183	-0.824123	-0.369661
C23	C	-3.741737	-0.740651	-0.369819
C24	C	-3.897921	-0.702937	-0.376148
N25	N	-3.985762	-0.583936	-0.381961
N26	N	-3.846335	-0.617616	-0.376298
C27	C	-3.716714	-0.100400	-0.600929
C28	C	-3.730450	-0.098681	-0.739587
C29	C	-3.908934	-0.101659	-0.807479
C30	C	-3.923135	-0.099883	-0.950789
C31	C	-4.073289	0.041285	-0.375687
C32	C	-3.998832	0.130122	-0.375849
C33	C	-4.136137	-0.101148	-0.157338
C34	C	-4.101639	-0.102862	-0.018679
H35	H	-3.573476	-0.703402	-0.364775
H36	H	-4.243949	-0.106730	-0.970715
O37	O	-3.541949	-0.093566	-0.803112
H38	H	-3.582689	-0.092981	-0.905707
H39	H	-4.051224	-0.105518	-0.759506
O40	O	-4.208353	-0.336746	-0.395465
H41	H	-4.290992	-0.346810	-0.312953
O42	O	-3.454212	-0.320041	-0.369430
H43	H	-3.408483	-0.273923	-0.283709
O44	O	-3.559107	-0.493543	-0.369114
H45	H	-3.406948	-0.447705	-0.364858
O46	O	-3.734621	-0.094768	-1.014310
H47	H	-3.775360	-0.094183	-1.116904
O48	O	-3.623730	-0.864798	-0.362832
H49	H	-3.693523	-0.930526	-0.363760
H50	H	-4.323276	-0.869415	-0.387226
H51	H	-4.258609	-0.498153	-0.393488
O52	O	-4.273009	-0.708017	-0.389225
H53	H	-4.425174	-0.753863	-0.393537
