data_functionalizedCrystal
_audit_creation_method	'MofGen! by Chris Wilmer'
_symmetry_space_group_name_H-M	'P1'
_symmetry_Int_Tables_number	1
_symmetry_cell_setting	triclinic
loop_
_symmetry_equiv_pos_as_xyz
  x,y,z
_cell_length_a	6.817900
_cell_length_b	15.300992
_cell_length_c	9.514088
_cell_angle_alpha	90.960074
_cell_angle_beta	118.843545
_cell_angle_gamma	104.175078
loop_
_atom_site_label
_atom_site_type_symbol
_atom_site_fract_x
_atom_site_fract_y
_atom_site_fract_z
V1	V	-4.221170	-0.126358	-0.501233
O2	O	-4.201233	0.004427	-0.491194
O3	O	-4.174963	-0.248965	-0.498283
O4	O	-4.255912	-0.125136	-0.719619
O5	O	-4.119724	-0.120259	-0.268326
V6	V	-4.693740	-0.110630	-0.473317
O7	O	-4.506454	-0.160860	-0.562468
O8	O	-4.858653	-0.076127	-0.412082
O9	O	-4.516740	0.011977	-0.476267
O10	O	-4.831074	-0.241415	-0.483356
O11	O	-4.912583	-0.116729	-0.706224
O12	O	-4.435791	-0.111851	-0.254931
C13	C	-4.017808	-0.278831	-0.490500
C14	C	-4.061870	-0.379069	-0.489544
C15	C	-3.985917	-0.412813	-0.341970
C16	C	-4.027339	-0.506998	-0.341077
C17	C	-4.144701	-0.567436	-0.487760
C18	C	-4.220664	-0.533686	-0.635346
C19	C	-4.179256	-0.439503	-0.636238
C20	C	-4.306961	-0.729991	-0.633477
C21	C	-4.348369	-0.824180	-0.632586
C22	C	-4.155045	-0.797486	-0.338317
C23	C	-4.113636	-0.703303	-0.339208
C24	C	-4.189599	-0.669560	-0.486795
C25	C	-4.121064	-0.120874	-0.772834
C26	C	-4.230767	-0.120687	-0.951369
C27	C	-4.337236	0.041839	-0.484046
C28	C	-4.272416	0.142075	-0.485012
C29	C	-4.233979	-0.116116	-0.201708
C30	C	-4.103513	-0.116299	-0.023171
H31	H	-4.443930	-0.873387	-0.752029
O32	O	-3.871980	-0.354237	-0.199337
C33	C	-3.684528	-0.337709	0.092634
C34	C	-3.813565	-0.404146	-0.068784
H35	H	-3.637218	-0.378034	0.198230
H36	H	-3.802556	-0.296511	0.093507
H37	H	-3.518122	-0.289385	0.105663
H38	H	-3.979967	-0.452527	-0.081917
H39	H	-3.695373	-0.445279	-0.069585
O40	O	-3.953994	-0.539818	-0.197770
C41	C	-4.064731	-0.635054	-0.033647
C42	C	-4.148096	-0.597945	-0.196008
H43	H	-4.221613	-0.682071	-0.032183
H44	H	-3.973861	-0.575706	0.071074
H45	H	-3.936953	-0.674907	-0.019678
H46	H	-4.275953	-0.558104	-0.210135
H47	H	-4.238831	-0.657332	-0.300648
O48	O	-4.081559	-0.830415	-0.195099
C49	C	-4.059672	-0.963678	-0.063301
C50	C	-4.143039	-0.926504	-0.225602
H51	H	-4.109302	-1.041368	-0.087904
H52	H	-4.146206	-0.942177	0.002902
H53	H	-3.861615	-0.934994	0.015273
H54	H	-4.341073	-0.955169	-0.304302
H55	H	-4.056332	-0.947996	-0.291677
O56	O	-4.380817	-0.697361	-0.776982
C57	C	-4.577042	-0.733775	-1.068766
C58	C	-4.493496	-0.770850	-0.906371
H59	H	-4.668204	-0.793173	-1.173422
H60	H	-4.420275	-0.686838	-1.070481
H61	H	-4.704649	-0.693858	-1.082619
H62	H	-4.365935	-0.810808	-0.892414
H63	H	-4.650377	-0.817738	-0.904729
O64	O	-4.252963	-0.406570	-0.779451
C65	C	-4.274737	-0.273302	-0.911236
C66	C	-4.191169	-0.310474	-0.748929
H67	H	-4.224766	-0.195603	-0.886614
H68	H	-4.472823	-0.301880	-0.989804
H69	H	-4.188339	-0.294909	-0.977454
H70	H	-4.277396	-0.288880	-0.682577
H71	H	-3.993067	-0.281900	-0.670480
O72	O	-3.873324	-0.111876	-0.933698
C73	C	-3.475962	-0.025632	-0.845806
C74	C	-3.736573	-0.030532	-0.947250
H75	H	-3.365321	0.040138	-0.856701
H76	H	-3.443991	-0.086773	-0.892525
H77	H	-3.425634	-0.026609	-0.712984
H78	H	-3.787080	-0.029527	-1.080093
H79	H	-3.768403	0.030605	-0.900398
O80	O	-4.460991	-0.125160	-1.040953
C81	C	-4.858299	-0.211374	-1.128631
C82	C	-4.597666	-0.206431	-1.027141
H83	H	-4.968873	-0.277067	-1.117471
H84	H	-4.908916	-0.210511	-1.261525
H85	H	-4.890045	-0.150159	-1.081936
H86	H	-4.565729	-0.267633	-1.073694
H87	H	-4.547177	-0.207250	-0.894262
H88	H	-4.018061	-0.654096	-0.219766
H89	H	-4.316239	-0.582902	-0.754778
