data_functionalizedCrystal
_audit_creation_method	'MofGen! by Chris Wilmer'
_symmetry_space_group_name_H-M	'P1'
_symmetry_Int_Tables_number	1
_symmetry_cell_setting	triclinic
loop_
_symmetry_equiv_pos_as_xyz
  x,y,z
_cell_length_a	14.908571
_cell_length_b	16.625545
_cell_length_c	14.908308
_cell_angle_alpha	86.733823
_cell_angle_beta	89.824947
_cell_angle_gamma	86.721711
loop_
_atom_site_label
_atom_site_type_symbol
_atom_site_fract_x
_atom_site_fract_y
_atom_site_fract_z
Zn1	Zn	1.345254	-0.420777	0.587574
Zn2	Zn	1.353821	-0.548312	0.437212
Zn3	Zn	1.203571	-0.405290	0.428572
Zn4	Zn	1.194849	-0.547354	0.578863
O5	O	1.274374	-0.480433	0.508055
O6	O	1.472216	-0.444577	0.574889
O7	O	1.341126	-0.523259	0.310241
O8	O	1.222429	-0.294517	0.449694
O9	O	1.478510	-0.538276	0.464419
O10	O	1.326523	-0.305895	0.566512
O11	O	1.230737	-0.418182	0.303894
O12	O	1.076588	-0.417253	0.441247
O13	O	1.207565	-0.536644	0.705843
O14	O	1.070181	-0.521626	0.551666
O15	O	1.318067	-0.443648	0.712243
O16	O	1.332669	-0.661012	0.455973
O17	O	1.215873	-0.660308	0.560043
C18	C	1.040760	-0.467656	0.494574
C19	C	0.940817	-0.462210	0.488829
C20	C	0.746400	-0.560813	0.592856
C21	C	0.652495	-0.555699	0.587460
C22	C	0.659100	-0.446864	0.472647
C23	C	0.753005	-0.451979	0.478042
C24	C	0.796652	-0.508956	0.538148
C25	C	0.890559	-0.514073	0.543538
C26	C	0.897162	-0.405235	0.428730
C27	C	0.803257	-0.400121	0.423335
C28	C	1.274278	-0.689917	0.508021
C29	C	1.274317	-0.779542	0.508042
C30	C	1.274351	-0.852327	0.508062
C31	C	1.274402	-0.943639	0.508084
C32	C	1.274448	-1.016419	0.508098
C33	C	1.274499	-1.107737	0.508120
C34	C	1.508900	-0.493261	0.521589
C35	C	1.608841	-0.498728	0.527357
C36	C	1.260888	-0.491767	0.742580
C37	C	1.255140	-0.496596	0.842521
C38	C	1.274494	-0.270133	0.508110
C39	C	1.274545	-0.180516	0.508134
C40	C	1.287859	-0.469089	0.274446
C41	C	1.293781	-0.464041	0.174516
C42	C	1.359404	-0.408817	1.036985
C43	C	1.354007	-0.413352	1.130889
C44	C	1.238945	-0.510197	1.124232
C45	C	1.244342	-0.505662	1.030329
C46	C	1.304575	-0.454971	0.986709
C47	C	1.309976	-0.450441	0.892804
C48	C	1.194910	-0.547281	0.886149
C49	C	1.189513	-0.551816	0.980053
H50	H	1.359021	-0.409167	0.857291
N51	N	0.614521	-0.388663	0.411252
N52	N	0.659397	-0.342362	0.362409
H53	H	0.627914	-0.301255	0.319049
N54	N	1.420915	-0.357031	0.992422
N55	N	1.392316	-0.301392	0.938212
H56	H	1.435759	-0.264816	0.906738
N57	N	0.758671	-0.341935	0.361928
N58	N	0.773906	-0.343739	0.279551
H59	H	0.742419	-0.302645	0.236178
H60	H	0.938087	-0.363010	0.384181
N61	N	1.410014	-0.366196	1.182231
N62	N	1.463782	-0.320939	1.143269
H63	H	1.503338	-0.287630	1.179529
N64	N	0.790992	-0.619025	0.654229
N65	N	0.780835	-0.692550	0.647510
H66	H	0.812328	-0.733664	0.690854
H67	H	1.189907	-0.551467	1.159764
N68	N	1.127978	-0.603575	1.024621
N69	N	1.067687	-0.574595	1.073718
H70	H	1.024226	-0.611148	1.105197
N71	N	0.935131	-0.572281	0.604930
N72	N	0.890248	-0.618577	0.653771
H73	H	0.921724	-0.659688	0.697132
N74	N	0.601177	-0.608673	0.643353
N75	N	0.640162	-0.659536	0.697014
H76	H	0.603919	-0.696951	0.736493
N77	N	1.138905	-0.594424	0.834779
N78	N	1.143731	-0.590370	0.750938
H79	H	1.104180	-0.623665	0.714656
