data_functionalizedCrystal
_audit_creation_method	'MofGen! by Chris Wilmer'
_symmetry_space_group_name_H-M	'P1'
_symmetry_Int_Tables_number	1
_symmetry_cell_setting	triclinic
loop_
_symmetry_equiv_pos_as_xyz
  x,y,z
_cell_length_a	12.759399
_cell_length_b	13.897449
_cell_length_c	12.759393
_cell_angle_alpha	90.022495
_cell_angle_beta	89.968212
_cell_angle_gamma	89.984513
loop_
_atom_site_label
_atom_site_type_symbol
_atom_site_fract_x
_atom_site_fract_y
_atom_site_fract_z
Zn1	Zn	-0.418205	-1.474713	-0.594099
Zn2	Zn	-0.593925	-1.474614	-0.418419
Zn3	Zn	-0.418260	-1.313403	-0.418425
Zn4	Zn	-0.593842	-1.313389	-0.594048
O5	O	-0.506058	-1.394030	-0.506248
O6	O	-0.441527	-1.609681	-0.570813
O7	O	-0.570681	-1.453193	-0.271399
O8	O	-0.271232	-1.334848	-0.441753
O9	O	-0.570627	-1.609608	-0.441742
O10	O	-0.271192	-1.453362	-0.570819
O11	O	-0.441621	-1.334752	-0.271404
O12	O	-0.441540	-1.178420	-0.441703
O13	O	-0.570486	-1.334825	-0.741076
O14	O	-0.570539	-1.178410	-0.570733
O15	O	-0.441446	-1.453349	-0.741113
O16	O	-0.740935	-1.453180	-0.441693
O17	O	-0.740874	-1.334729	-0.570727
C18	C	-0.779026	-1.393968	-0.506227
C19	C	-0.895802	-1.394030	-0.506253
C20	C	-0.506038	-1.143415	-0.506214
C21	C	-0.506054	-1.036201	-0.506224
C22	C	-1.060386	-1.455847	-0.439174
C23	C	-0.950662	-1.455782	-0.439141
C24	C	-0.950672	-1.332332	-0.573393
C25	C	-1.060395	-1.332392	-0.573420
C26	C	-1.060379	-1.527122	-0.361667
C27	C	-0.950655	-1.527058	-0.361635
C28	C	-0.506052	-0.839906	-0.506244
C29	C	-0.506050	-0.949139	-0.506230
C30	C	-0.232025	-1.394118	-0.506292
C31	C	-0.115248	-1.394155	-0.506311
C32	C	-0.505951	-1.394097	-0.780281
C33	C	-0.505905	-1.394125	-0.897058
C34	C	-0.506073	-0.645623	-0.506273
C35	C	-0.506062	-0.752837	-0.506257
C36	C	-0.438664	-1.332497	-1.061655
C37	C	-0.438694	-1.332473	-0.951931
C38	C	-0.573083	-1.455812	-0.951915
C39	C	-0.573048	-1.455840	-1.061637
C40	C	-0.361079	-1.261285	-1.061663
C41	C	-0.361108	-1.261261	-0.951939
C42	C	-0.506090	-1.394019	-0.233281
C43	C	-0.505840	-1.394177	-0.116504
H44	H	-0.905999	-1.282046	-0.628030
C45	C	-0.257964	-1.296936	-0.906783
C46	C	-0.189603	-1.320603	-0.988713
C47	C	-0.094578	-1.353460	-0.947154
H48	H	-0.270319	-1.352279	-0.864901
H49	H	-0.227508	-1.247813	-0.864909
H50	H	-0.220052	-1.369722	-1.030569
H51	H	-0.177218	-1.265274	-1.030602
H52	H	-0.064122	-1.304337	-0.905279
H53	H	-0.106944	-1.408801	-0.905272
H54	H	-0.048180	-1.369514	-1.002736
H55	H	-0.916713	-1.500322	-0.284300
C56	C	-1.120150	-1.265446	-0.646195
C57	C	-1.227981	-1.278699	-0.631839
C58	C	-1.283060	-1.217034	-0.698855
H59	H	-1.102224	-1.279452	-0.716839
H60	H	-1.102304	-1.200614	-0.630732
H61	H	-1.245821	-1.343516	-0.647309
H62	H	-1.245939	-1.264686	-0.561209
H63	H	-1.265214	-1.152202	-0.683393
H64	H	-1.265126	-1.231044	-0.769495
H65	H	-1.356229	-1.226011	-0.689117
C66	C	-1.099999	-1.500454	-0.253101
C67	C	-1.014540	-1.484081	-0.186664
C68	C	-1.050997	-1.459500	-0.086652
H69	H	-1.141308	-1.551570	-0.225992
H70	H	-1.141379	-1.443753	-0.257435
H71	H	-0.973178	-1.540776	-0.182326
H72	H	-0.973222	-1.432962	-0.213739
H73	H	-1.092377	-1.402799	-0.090986
H74	H	-1.092307	-1.510619	-0.059554
H75	H	-0.993020	-1.448379	-0.041565
H76	H	-1.094321	-1.598090	-0.390894
C77	C	-0.645843	-1.522793	-1.121379
C78	C	-0.631402	-1.509649	-1.229213
C79	C	-0.698426	-1.571329	-1.284279
H80	H	-0.716489	-1.508734	-1.103516
H81	H	-0.630442	-1.587617	-1.103459
H82	H	-0.646810	-1.444840	-1.247126
H83	H	-0.560770	-1.523715	-1.247108
H84	H	-0.683026	-1.636153	-1.266359
H85	H	-0.769068	-1.557265	-1.266407
H86	H	-0.688631	-1.562425	-1.357450
H87	H	-0.920787	-1.601737	-0.383500
C88	C	-0.646184	-1.522590	-0.892285
C89	C	-0.713555	-1.467936	-0.829288
C90	C	-0.780921	-1.529418	-0.774355
H91	H	-0.606133	-1.564640	-0.849413
H92	H	-0.686250	-1.559312	-0.940635
H93	H	-0.673493	-1.431231	-0.780945
H94	H	-0.753629	-1.425889	-0.872134
H95	H	-0.820987	-1.566140	-0.822705
H96	H	-0.740861	-1.571465	-0.731489
H97	H	-0.826646	-1.492344	-0.731613
C98	C	-0.399894	-1.166576	-1.106830
C99	C	-0.425655	-1.103808	-1.024907
C100	C	-0.461405	-1.016551	-1.066476
H101	H	-0.460174	-1.177898	-1.148707
H102	H	-0.346375	-1.138631	-1.148712
H103	H	-0.479170	-1.131747	-0.983043
H104	H	-0.365391	-1.092458	-0.983023
H105	H	-0.407885	-0.988606	-1.108358
H106	H	-0.521682	-1.027882	-1.108353
H107	H	-0.478879	-0.973949	-1.010899
H108	H	-0.279699	-1.281320	-1.091460
H109	H	-0.382897	-1.186538	-0.922145
