data_functionalizedCrystal
_audit_creation_method	'MofGen! by Chris Wilmer'
_symmetry_space_group_name_H-M	'P1'
_symmetry_Int_Tables_number	1
_symmetry_cell_setting	triclinic
loop_
_symmetry_equiv_pos_as_xyz
  x,y,z
_cell_length_a	15.944551
_cell_length_b	16.109301
_cell_length_c	14.586319
_cell_angle_alpha	90.003802
_cell_angle_beta	89.999016
_cell_angle_gamma	83.480161
loop_
_atom_site_label
_atom_site_type_symbol
_atom_site_fract_x
_atom_site_fract_y
_atom_site_fract_z
O1	O	-1.114488	-0.107227	-0.076145
O2	O	-0.614488	0.392773	0.423855
O3	O	-0.869934	-0.120447	-0.076168
O4	O	-0.369934	0.379553	0.423832
O5	O	-0.998929	0.007192	-0.076149
O6	O	-0.498929	0.507192	0.423851
O7	O	-0.985493	-0.234866	-0.076163
O8	O	-0.485493	0.265134	0.423837
O9	O	-0.998920	0.007194	0.076331
O10	O	-0.498920	0.507194	0.576331
O11	O	-0.869925	-0.120445	0.076313
O12	O	-0.369925	0.379555	0.576313
O13	O	-1.114479	-0.107225	0.076336
O14	O	-0.614479	0.392775	0.576336
Cu15	Cu	-0.992201	-0.113835	0.090247
Cu16	Cu	-0.492201	0.386165	0.590247
Cu17	Cu	-0.992212	-0.113837	-0.090079
Cu18	Cu	-0.492212	0.386163	0.409921
O19	O	-0.985484	-0.234864	0.076318
O20	O	-0.485484	0.265136	0.576318
C21	C	-0.838635	-0.119897	0.000070
C22	C	-0.338635	0.380103	0.500070
C23	C	-0.745390	-0.118252	0.000061
C24	C	-0.245390	0.381748	0.500061
C25	C	-0.998380	0.038168	0.000090
C26	C	-0.498380	0.538168	0.500090
C27	C	-0.996748	0.130463	0.000089
C28	C	-0.496748	0.630463	0.500089
C29	C	-1.145777	-0.107775	0.000096
C30	C	-0.645777	0.392225	0.500096
C31	C	-1.239023	-0.109420	0.000099
C32	C	-0.739023	0.390580	0.500099
C33	C	-0.530561	-0.035203	0.000084
C34	C	-0.030561	0.464797	0.500084
C35	C	-0.469532	-0.073769	-0.075099
C36	C	0.030468	0.426231	0.424901
C37	C	-0.574665	-0.115275	0.000072
C38	C	-0.074665	0.384725	0.500072
C39	C	-0.469546	-0.073786	0.075235
C40	C	0.030454	0.426214	0.575235
C41	C	-0.409753	-0.112394	0.000087
C42	C	0.090247	0.387606	0.500087
C43	C	-0.514865	-0.153864	-0.075173
C44	C	-0.014865	0.346136	0.424827
C45	C	-0.514885	-0.153870	0.075229
C46	C	-0.014885	0.346130	0.575229
C47	C	-0.453874	-0.192494	0.000027
C48	C	0.046126	0.307506	0.500027
C49	C	-0.669667	-0.116933	0.000063
C50	C	-0.169667	0.383067	0.500063
C51	C	-0.314753	-0.110743	0.000090
C52	C	0.185247	0.389257	0.500090
C53	C	-0.986032	-0.265840	0.000076
C54	C	-0.486032	0.234160	0.500076
C55	C	-0.987664	-0.358136	0.000071
C56	C	-0.487664	0.141864	0.500071
C57	C	-1.067957	0.439439	0.000080
C58	C	-0.567957	0.939439	0.500080
C59	C	-1.069498	0.352718	0.000085
C60	C	-0.569498	0.852718	0.500085
C61	C	-0.916450	0.332894	0.000083
C62	C	-0.416450	0.832894	0.500083
C63	C	-0.914909	0.419614	0.000084
C64	C	-0.414909	0.919614	0.500084
C65	C	-0.990666	0.472884	0.000078
C66	C	-0.490666	0.972884	0.500078
C67	C	-0.993747	0.299444	0.000082
C68	C	-0.493747	0.799444	0.500082
C69	C	-0.995417	0.205417	0.000088
C70	C	-0.495417	0.705417	0.500088
C71	C	-0.988995	0.566916	0.000074
C72	C	-0.488995	1.066916	0.500074
N73	N	-0.992200	-0.113833	0.217079
N74	N	-0.492200	0.386167	0.717079
N75	N	-0.992220	-0.113833	-0.216911
N76	N	-0.492220	0.386167	0.283089
C77	C	-1.049337	-0.057333	0.452094
C78	C	-0.549337	0.442667	0.952094
C79	C	-1.049340	-0.057331	0.548075
C80	C	-0.549340	0.442669	1.048075
C81	C	-0.935076	-0.170335	0.548068
C82	C	-0.435076	0.329665	1.048068
C83	C	-0.935070	-0.170332	0.452089
C84	C	-0.435070	0.329668	0.952089
C85	C	-0.992205	-0.113833	0.404104
C86	C	-0.492205	0.386167	0.904104
C87	C	-0.992214	-0.113833	0.596065
C88	C	-0.492214	0.386167	1.096065
C89	C	-0.992216	-0.113831	0.700132
C90	C	-0.492216	0.386169	1.200132
C91	C	-0.992202	-0.113833	0.300030
C92	C	-0.492202	0.386167	0.800030
H93	H	-0.563915	0.031251	-0.000006
H94	H	-0.063915	0.531251	0.499994
H95	H	-0.888542	-0.216341	0.413013
H96	H	-0.388542	0.283659	0.913013
H97	H	-0.535001	-0.187708	0.138790
H98	H	-0.035001	0.312292	0.638790
O99	O	-0.445607	-0.033236	-0.150855
O100	O	0.054393	0.466764	0.349145
C101	C	-0.485054	0.049654	-0.150598
C102	C	0.014946	0.549654	0.349402
H103	H	-0.503307	0.068950	-0.077436
H104	H	-0.003307	0.568950	0.422564
H105	H	-0.439619	0.093030	-0.178992
H106	H	0.060381	0.593030	0.321008
H107	H	-0.544133	0.054010	-0.195156
H108	H	-0.044133	0.554010	0.304844
O109	O	-1.104863	-0.002367	0.405622
O110	O	-0.604863	0.497633	0.905622
C111	C	-1.155302	0.047488	0.468566
C112	C	-0.655302	0.547488	0.968566
H113	H	-1.120869	0.048443	0.536985
H114	H	-0.620869	0.548443	1.036985
H115	H	-1.168132	0.113879	0.440843
H116	H	-0.668132	0.613879	0.940843
H117	H	-1.217691	0.020456	0.478768
H118	H	-0.717691	0.520456	0.978768
H119	H	-0.534845	-0.187707	-0.138804
H120	H	-0.034845	0.312293	0.361196
H121	H	-0.420693	-0.259016	-0.000019
H122	H	0.079307	0.240984	0.499981
O123	O	-0.842786	0.281265	0.000117
O124	O	-0.342786	0.781265	0.500117
C125	C	-0.774236	0.329384	0.000092
C126	C	-0.274236	0.829384	0.500092
H127	H	-0.795570	0.394105	0.028968
H128	H	-0.295570	0.894105	0.528968
H129	H	-0.721158	0.297395	0.044353
H130	H	-0.221158	0.797395	0.544353
H131	H	-0.750549	0.335560	-0.073063
H132	H	-0.250549	0.835560	0.426937
H133	H	-0.449467	-0.039903	0.138794
H134	H	0.050533	0.460097	0.638794
H135	H	-1.129643	0.482809	0.000075
H136	H	-0.629643	0.982809	0.500075
O137	O	-1.144600	0.320270	-0.000079
O138	O	-0.644600	0.820270	0.499921
C139	C	-1.190781	0.347502	-0.079041
C140	C	-0.690781	0.847502	0.420959
H141	H	-1.145581	0.365534	-0.134237
H142	H	-0.645581	0.865534	0.365763
H143	H	-1.226506	0.294967	-0.105547
H144	H	-0.726506	0.794967	0.394453
H145	H	-1.237601	0.404022	-0.061189
H146	H	-0.737601	0.904022	0.438811
O147	O	-0.839876	0.452205	-0.000042
O148	O	-0.339876	0.952205	0.499958
C149	C	-0.834399	0.501754	-0.079024
C150	C	-0.334399	1.001754	0.420976
H151	H	-0.900608	0.523347	-0.105350
H152	H	-0.400608	1.023347	0.394650
H153	H	-0.800932	0.558543	-0.061262
H154	H	-0.300932	1.058543	0.438738
H155	H	-0.797228	0.463441	-0.134324
H156	H	-0.297228	0.963441	0.365676
H157	H	-1.095861	-0.011324	0.587145
H158	H	-0.595861	0.488676	1.087145
O159	O	-0.879663	-0.225190	0.594825
O160	O	-0.379663	0.274810	1.094825
C161	C	-0.891906	-0.213067	0.689830
C162	C	-0.391906	0.286933	1.189830
H163	H	-0.958692	-0.182032	0.702938
H164	H	-0.458692	0.317968	1.202938
H165	H	-0.882547	-0.276026	0.726299
H166	H	-0.382547	0.223974	1.226299
H167	H	-0.844378	-0.171341	0.717077
H168	H	-0.344378	0.328659	1.217077
