data_functionalizedCrystal
_audit_creation_method	'MofGen! by Chris Wilmer'
_symmetry_space_group_name_H-M	'P1'
_symmetry_Int_Tables_number	1
_symmetry_cell_setting	triclinic
loop_
_symmetry_equiv_pos_as_xyz
  x,y,z
_cell_length_a	14.971506
_cell_length_b	14.586319
_cell_length_c	14.971486
_cell_angle_alpha	89.995999
_cell_angle_beta	96.381742
_cell_angle_gamma	90.003812
loop_
_atom_site_label
_atom_site_type_symbol
_atom_site_fract_x
_atom_site_fract_y
_atom_site_fract_z
O1	O	1.186932	0.076247	-0.116648
O2	O	0.926535	0.076248	-0.130588
O3	O	1.063713	0.076241	0.006582
O4	O	1.049754	0.076254	-0.253817
O5	O	1.063703	-0.076240	0.006584
O6	O	0.926525	-0.076233	-0.130586
O7	O	1.186923	-0.076234	-0.116646
Cu8	Cu	1.056723	-0.090156	-0.123615
Cu9	Cu	1.056734	0.090170	-0.123618
O10	O	1.049745	-0.076227	-0.253815
C11	C	0.893205	0.000007	-0.129960
C12	C	0.793909	0.000007	-0.128082
C13	C	0.355627	0.000020	-0.201500
C14	C	0.448927	0.000024	-0.203258
C15	C	0.506147	0.000016	-0.122665
C16	C	0.470062	0.000013	-0.040310
C17	C	0.376764	0.000016	-0.038553
C18	C	0.664525	0.000006	-0.043977
C19	C	0.757831	0.000002	-0.045733
C20	C	0.736689	0.000014	-0.208681
C21	C	0.643390	0.000017	-0.206924
C22	C	0.607312	0.000012	-0.124569
N23	N	1.056722	-0.216988	-0.123613
C24	C	1.117484	-0.451997	-0.062895
C25	C	1.117487	-0.547978	-0.062893
C26	C	0.995974	-0.547982	-0.184334
C27	C	0.995968	-0.452002	-0.184331
C28	C	1.056728	-0.404013	-0.123613
C29	C	1.056737	-0.595973	-0.123613
C30	C	1.056739	-0.700040	-0.123612
C31	C	1.056725	-0.299939	-0.123613
C32	C	1.220252	0.000009	-0.117273
C33	C	1.319548	0.000015	-0.119151
C34	C	1.063084	0.000001	0.039908
C35	C	1.061213	0.000002	0.139205
N36	N	1.056743	0.217002	-0.123613
C37	C	1.050374	0.000015	-0.287141
C38	C	1.052244	0.000021	-0.386438
C39	C	1.141802	0.000001	0.196424
C40	C	1.140038	0.000010	0.289724
C41	C	1.057686	0.000014	0.325802
C42	C	0.977091	0.000017	0.268575
C43	C	0.978855	0.000014	0.175278
C44	C	0.973420	0.000020	0.463038
C45	C	0.971656	0.000021	0.556342
C46	C	1.134603	0.000016	0.577485
C47	C	1.136367	0.000013	0.484187
C48	C	1.055772	0.000015	0.426966
H49	H	0.766067	0.000018	-0.275738
Br50	Br	1.199943	-0.386871	0.019510
H51	H	0.946488	-0.412931	-0.233775
Br52	Br	1.253572	-0.000017	0.147471
Br53	Br	0.547717	0.000008	0.069067
Br54	Br	0.497887	0.000041	-0.315022
Br55	Br	1.248133	0.000011	0.435223
Br56	Br	0.835486	-0.000004	0.063643
H57	H	1.205662	0.000007	0.336309
Br58	Br	0.913518	-0.613114	-0.266737
Br59	Br	1.243983	0.000015	0.655139
Br60	Br	0.615563	-0.000005	0.067792
H61	H	0.596803	0.000018	-0.272550
Br62	Br	0.327799	0.000012	0.073210
H63	H	0.309044	0.000020	-0.267128
Br64	Br	1.199941	-0.613099	0.019517
H65	H	0.904597	0.000009	0.585714
Br66	Br	0.864040	0.000026	0.385382
Br67	Br	0.865326	0.000037	0.317538
H68	H	0.913232	0.000015	0.128690
