data_functionalizedCrystal
_audit_creation_method	'MofGen! by Chris Wilmer'
_symmetry_space_group_name_H-M	'P1'
_symmetry_Int_Tables_number	1
_symmetry_cell_setting	triclinic
loop_
_symmetry_equiv_pos_as_xyz
  x,y,z
_cell_length_a	21.395362
_cell_length_b	19.805405
_cell_length_c	19.805399
_cell_angle_alpha	89.970699
_cell_angle_beta	89.961981
_cell_angle_gamma	90.042288
loop_
_atom_site_label
_atom_site_type_symbol
_atom_site_fract_x
_atom_site_fract_y
_atom_site_fract_z
Zn1	Zn	0.957842	-0.269192	-0.383045
Zn2	Zn	1.207842	-0.019192	-0.133045
Zn3	Zn	1.457842	0.230808	0.116955
Zn4	Zn	1.707842	0.480808	0.366955
Zn5	Zn	0.957763	-0.382380	-0.269853
Zn6	Zn	1.207763	-0.132380	-0.019853
Zn7	Zn	1.457763	0.117620	0.230147
Zn8	Zn	1.707763	0.367620	0.480147
Zn9	Zn	0.853067	-0.269242	-0.269833
Zn10	Zn	1.103067	-0.019242	-0.019833
Zn11	Zn	1.353067	0.230758	0.230167
Zn12	Zn	1.603067	0.480758	0.480167
Zn13	Zn	0.853034	-0.382376	-0.382963
Zn14	Zn	1.103034	-0.132376	-0.132963
Zn15	Zn	1.353034	0.117624	0.117037
Zn16	Zn	1.603034	0.367624	0.367037
O17	O	0.905426	-0.325798	-0.326424
O18	O	1.155426	-0.075798	-0.076424
O19	O	1.405426	0.174202	0.173576
O20	O	1.655426	0.424202	0.423576
O21	O	1.045509	-0.284188	-0.368072
O22	O	1.295509	-0.034188	-0.118072
O23	O	1.545509	0.215812	0.131928
O24	O	1.795509	0.465812	0.381928
O25	O	0.943856	-0.367395	-0.175134
O26	O	1.193856	-0.117395	0.074866
O27	O	1.443856	0.132605	0.324866
O28	O	1.693856	0.382605	0.574866
O29	O	0.867013	-0.174519	-0.284876
O30	O	1.117013	0.075481	-0.034876
O31	O	1.367013	0.325481	0.215124
O32	O	1.617013	0.575481	0.465124
O33	O	1.045451	-0.367347	-0.284911
O34	O	1.295451	-0.117347	-0.034911
O35	O	1.545451	0.132653	0.215089
O36	O	1.795451	0.382653	0.465089
O37	O	0.943990	-0.174482	-0.368053
O38	O	1.193990	0.075518	-0.118053
O39	O	1.443990	0.325518	0.131947
O40	O	1.693990	0.575518	0.381947
O41	O	0.866937	-0.284273	-0.175119
O42	O	1.116937	-0.034273	0.074881
O43	O	1.366937	0.215727	0.324881
O44	O	1.616937	0.465727	0.574881
O45	O	0.765385	-0.284268	-0.284797
O46	O	1.015385	-0.034268	-0.034797
O47	O	1.265385	0.215732	0.215203
O48	O	1.515385	0.465732	0.465203
O49	O	0.866955	-0.367339	-0.477691
O50	O	1.116955	-0.117339	-0.227691
O51	O	1.366955	0.132661	0.022309
O52	O	1.616955	0.382661	0.272309
O53	O	0.765360	-0.367387	-0.367914
O54	O	1.015360	-0.117387	-0.117914
O55	O	1.265360	0.132613	0.132086
O56	O	1.515360	0.382613	0.382086
O57	O	0.943957	-0.284183	-0.477751
O58	O	1.193957	-0.034183	-0.227751
O59	O	1.443957	0.215817	0.022249
O60	O	1.693957	0.465817	0.272249
O61	O	0.943823	-0.477096	-0.284832
O62	O	1.193823	-0.227096	-0.034832
O63	O	1.443823	0.022904	0.215168
O64	O	1.693823	0.272904	0.465168
O65	O	0.866879	-0.477093	-0.367934
O66	O	1.116879	-0.227093	-0.117934
O67	O	1.366879	0.022907	0.132066
O68	O	1.616879	0.272907	0.382066
C69	C	0.742639	-0.325833	-0.326345
C70	C	0.992639	-0.075833	-0.076345
C71	C	1.242639	0.174167	0.173655
C72	C	1.492639	0.424167	0.423655
C73	C	0.672997	-0.325865	-0.326328
C74	C	0.922997	-0.075865	-0.076328
C75	C	1.172997	0.174135	0.173672
C76	C	1.422997	0.424135	0.423672
C77	C	0.905356	-0.501654	-0.326391
C78	C	1.155356	-0.251654	-0.076391
C79	C	1.405356	-0.001654	0.173609
C80	C	1.655356	0.248346	0.423609
C81	C	0.905383	-0.576886	-0.326399
C82	C	1.155383	-0.326886	-0.076399
C83	C	1.405383	-0.076886	0.173601
C84	C	1.655383	0.173114	0.423601
C85	C	0.640288	-0.369202	-0.369541
C86	C	0.890288	-0.119202	-0.119541
C87	C	1.140288	0.130798	0.130459
C88	C	1.390288	0.380798	0.380459
C89	C	0.574852	-0.369186	-0.369572
C90	C	0.824852	-0.119186	-0.119572
C91	C	1.074852	0.130814	0.130428
C92	C	1.324852	0.380814	0.380428
C93	C	0.542129	-0.325839	-0.326376
C94	C	0.792129	-0.075839	-0.076376
C95	C	1.042129	0.174161	0.173624
C96	C	1.292129	0.424161	0.423624
C97	C	0.574847	-0.282493	-0.283159
C98	C	0.824847	-0.032493	-0.033159
C99	C	1.074847	0.217507	0.216841
C100	C	1.324847	0.467507	0.466841
C101	C	0.640281	-0.282506	-0.283135
C102	C	0.890281	-0.032506	-0.033135
C103	C	1.140281	0.217494	0.216865
C104	C	1.390281	0.467494	0.466865
C105	C	0.438410	-0.320396	-0.265443
C106	C	0.688410	-0.070396	-0.015443
C107	C	0.938410	0.179604	0.234557
C108	C	1.188410	0.429604	0.484557
C109	C	0.372977	-0.320388	-0.265465
C110	C	0.622977	-0.070388	-0.015465
C111	C	0.872977	0.179612	0.234535
C112	C	1.122977	0.429612	0.484535
C113	C	0.340308	-0.325795	-0.326450
C114	C	0.590308	-0.075795	-0.076450
C115	C	0.840308	0.174205	0.173550
C116	C	1.090308	0.424205	0.423550
C117	C	0.373081	-0.331224	-0.387414
C118	C	0.623081	-0.081224	-0.137414
C119	C	0.873081	0.168776	0.112586
C120	C	1.123081	0.418776	0.362586
C121	C	0.438515	-0.331237	-0.387390
C122	C	0.688515	-0.081237	-0.137390
C123	C	0.938515	0.168763	0.112610
C124	C	1.188515	0.418763	0.362610
C125	C	0.471177	-0.325820	-0.326397
C126	C	0.721177	-0.075820	-0.076397
C127	C	0.971177	0.174180	0.173603
C128	C	1.221177	0.424180	0.423603
C129	C	0.236646	-0.369116	-0.369701
C130	C	0.486646	-0.119116	-0.119701
C131	C	0.736646	0.130884	0.130299
C132	C	0.986646	0.380884	0.380299
C133	C	0.171210	-0.369095	-0.369732
C134	C	0.421210	-0.119095	-0.119732
C135	C	0.671210	0.130905	0.130268
C136	C	0.921210	0.380905	0.380268
C137	C	0.171205	-0.282406	-0.283313
C138	C	0.421205	-0.032406	-0.033313
C139	C	0.671205	0.217594	0.216687
C140	C	0.921205	0.467594	0.466687
C141	C	0.236641	-0.282424	-0.283288
C142	C	0.486641	-0.032424	-0.033288
C143	C	0.736641	0.217576	0.216712
C144	C	0.986641	0.467576	0.466712
C145	C	0.269357	-0.325783	-0.326481
C146	C	0.519357	-0.075783	-0.076481
C147	C	0.769357	0.174217	0.173519
C148	C	1.019357	0.424217	0.423519
C149	C	0.945487	-0.612209	-0.283174
C150	C	1.195487	-0.362209	-0.033174
C151	C	1.445487	-0.112209	0.216826
C152	C	1.695487	0.137791	0.466826
C153	C	0.945513	-0.682897	-0.283189
C154	C	1.195513	-0.432897	-0.033189
C155	C	1.445513	-0.182897	0.216811
C156	C	1.695513	0.067103	0.466811
C157	C	0.905433	-0.718261	-0.326426
C158	C	1.155433	-0.468261	-0.076426
C159	C	1.405433	-0.218261	0.173574
C160	C	1.655433	0.031739	0.423574
C161	C	0.865327	-0.682933	-0.369657
C162	C	1.115327	-0.432933	-0.119657
C163	C	1.365327	-0.182933	0.130343
C164	C	1.615327	0.067067	0.380343
C165	C	0.865304	-0.612246	-0.369645
C166	C	1.115304	-0.362246	-0.119645
C167	C	1.365304	-0.112246	0.130355
C168	C	1.615304	0.137754	0.380355
C169	C	0.865420	-0.968006	-0.369707
C170	C	1.115420	-0.718006	-0.119707
C171	C	1.365420	-0.468006	0.130293
C172	C	1.615420	-0.218006	0.380293
C173	C	0.865444	-1.038698	-0.369714
C174	C	1.115444	-0.788698	-0.119714
C175	C	1.365444	-0.538698	0.130286
C176	C	1.615444	-0.288698	0.380286
C177	C	0.945629	-1.038658	-0.283251
C178	C	1.195629	-0.788658	-0.033251
C179	C	1.445629	-0.538658	0.216749
C180	C	1.695629	-0.288658	0.466749
C181	C	0.945606	-0.967971	-0.283239
C182	C	1.195606	-0.717971	-0.033239
C183	C	1.445606	-0.467971	0.216761
C184	C	1.695606	-0.217971	0.466761
C185	C	0.905503	-0.932648	-0.326472
C186	C	1.155503	-0.682648	-0.076472
C187	C	1.405503	-0.432648	0.173528
C188	C	1.655503	-0.182648	0.423528
C189	C	0.905475	-0.856000	-0.326456
C190	C	1.155475	-0.606000	-0.076456
C191	C	1.405475	-0.356000	0.173544
C192	C	1.655475	-0.106000	0.423544
C193	C	0.905456	-0.794908	-0.326439
C194	C	1.155456	-0.544908	-0.076439
C195	C	1.405456	-0.294908	0.173561
C196	C	1.655456	-0.044908	0.423561
C197	C	1.068850	-0.325762	-0.326503
C198	C	1.318850	-0.075762	-0.076503
C199	C	1.568850	0.174238	0.173497
C200	C	1.818850	0.424238	0.423497
C201	C	1.138491	-0.325747	-0.326537
C202	C	1.388491	-0.075747	-0.076537
C203	C	1.638491	0.174253	0.173463
C204	C	1.888491	0.424253	0.423463
C205	C	0.905461	-0.325755	-0.502966
C206	C	1.155461	-0.075755	-0.252966
C207	C	1.405461	0.174245	-0.002966
C208	C	1.655461	0.424245	0.247034
C209	C	0.905476	-0.325737	-0.578198
C210	C	1.155476	-0.075737	-0.328198
C211	C	1.405476	0.174263	-0.078198
C212	C	1.655476	0.424263	0.171802
C213	C	0.905514	-0.149255	-0.326471
C214	C	1.155514	0.100745	-0.076471
C215	C	1.405514	0.350745	0.173529
C216	C	1.655514	0.600745	0.423529
C217	C	0.905552	-0.074023	-0.326492
C218	C	1.155552	0.175977	-0.076492
C219	C	1.405552	0.425977	0.173508
C220	C	1.655552	0.675977	0.423508
C221	C	0.945572	-0.282435	-0.613575
C222	C	1.195572	-0.032435	-0.363575
C223	C	1.445572	0.217565	-0.113575
C224	C	1.695572	0.467565	0.136425
C225	C	0.945579	-0.282416	-0.684263
C226	C	1.195579	-0.032416	-0.434263
C227	C	1.445579	0.217584	-0.184263
C228	C	1.695579	0.467584	0.065737
C229	C	0.905492	-0.325701	-0.719574
C230	C	1.155492	-0.075701	-0.469574
C231	C	1.405492	0.174299	-0.219574
C232	C	1.655492	0.424299	0.030426
C233	C	0.865392	-0.369005	-0.684193
C234	C	1.115392	-0.119005	-0.434193
C235	C	1.365392	0.130995	-0.184193
C236	C	1.615392	0.380995	0.065807
C237	C	0.865383	-0.369020	-0.613506
C238	C	1.115383	-0.119020	-0.363506
C239	C	1.365383	0.130980	-0.113506
C240	C	1.615383	0.380980	0.136494
C241	C	0.865427	-0.368941	-0.969266
C242	C	1.115427	-0.118941	-0.719266
C243	C	1.365427	0.131059	-0.469266
C244	C	1.615427	0.381059	-0.219266
C245	C	0.865441	-0.368924	-1.039958
C246	C	1.115441	-0.118924	-0.789958
C247	C	1.365441	0.131076	-0.539958
C248	C	1.615441	0.381076	-0.289958
C249	C	0.945623	-0.282337	-1.040024
C250	C	1.195623	-0.032337	-0.790024
C251	C	1.445623	0.217663	-0.540024
C252	C	1.695623	0.467663	-0.290024
C253	C	0.945614	-0.282353	-0.969337
C254	C	1.195614	-0.032353	-0.719337
C255	C	1.445614	0.217647	-0.469337
C256	C	1.695614	0.467647	-0.219337
C257	C	0.905512	-0.325653	-0.933962
C258	C	1.155512	-0.075653	-0.683962
C259	C	1.405512	0.174347	-0.433962
C260	C	1.655512	0.424347	-0.183962
C261	C	0.905504	-0.325673	-0.857313
C262	C	1.155504	-0.075673	-0.607313
C263	C	1.405504	0.174327	-0.357313
C264	C	1.655504	0.424327	-0.107313
C265	C	0.905502	-0.325685	-0.796221
C266	C	1.155502	-0.075685	-0.546221
C267	C	1.405502	0.174315	-0.296221
C268	C	1.655502	0.424315	-0.046221
C269	C	0.905427	-0.325791	-0.150568
C270	C	1.155427	-0.075791	0.099432
C271	C	1.405427	0.174209	0.349432
C272	C	1.655427	0.424209	0.599432
C273	C	0.905534	-0.325619	-0.075336
C274	C	1.155534	-0.075619	0.174664
C275	C	1.405534	0.174381	0.424664
C276	C	1.655534	0.424381	0.674664
H277	H	0.666922	-0.404508	-0.404713
H278	H	0.916922	-0.154508	-0.154713
H279	H	1.166922	0.095492	0.095287
H280	H	1.416922	0.345492	0.345287
H281	H	0.346484	-0.335626	-0.437074
H282	H	0.596484	-0.085626	-0.187074
H283	H	0.846484	0.164374	0.062926
H284	H	1.096484	0.414374	0.312926
H285	H	0.263286	-0.404418	-0.404874
H286	H	0.513286	-0.154418	-0.154874
H287	H	0.763286	0.095582	0.095126
H288	H	1.013286	0.345582	0.345126
O289	O	0.822209	-1.076839	-0.416352
O290	O	1.072209	-0.826839	-0.166352
O291	O	1.322209	-0.576839	0.083648
O292	O	1.572209	-0.326839	0.333648
H293	H	0.828958	-1.131926	-0.409088
H294	H	1.078958	-0.881926	-0.159088
H295	H	1.328958	-0.631926	0.090912
H296	H	1.578958	-0.381926	0.340912
H297	H	0.978259	-0.247107	-0.940590
H298	H	1.228259	0.002893	-0.690590
H299	H	1.478259	0.252893	-0.440590
H300	H	1.728259	0.502893	-0.190590
O301	O	0.539553	-0.235740	-0.236571
O302	O	0.789553	0.014260	0.013429
O303	O	1.039553	0.264260	0.263429
O304	O	1.289553	0.514260	0.513429
H305	H	0.573294	-0.205601	-0.206520
H306	H	0.823294	0.044399	0.043480
H307	H	1.073294	0.294399	0.293480
H308	H	1.323294	0.544399	0.543480
O309	O	0.988861	-0.235612	-1.078177
O310	O	1.238861	0.014388	-0.828177
O311	O	1.488861	0.264388	-0.578177
O312	O	1.738861	0.514388	-0.328177
H313	H	0.982126	-0.242859	-1.133263
H314	H	1.232126	0.007141	-0.883263
H315	H	1.482126	0.257141	-0.633263
H316	H	1.732126	0.507141	-0.383263
H317	H	0.978285	-1.067426	-0.248051
H318	H	1.228285	-0.817426	0.001949
H319	H	1.478285	-0.567426	0.251949
H320	H	1.728285	-0.317426	0.501949
O321	O	0.988719	-0.574067	-0.236541
O322	O	1.238719	-0.324067	0.013459
O323	O	1.488719	-0.074067	0.263459
O324	O	1.738719	0.175933	0.513459
H325	H	1.016615	-0.610509	-0.206492
H326	H	1.266615	-0.360509	0.043508
H327	H	1.516615	-0.110509	0.293508
H328	H	1.766615	0.139491	0.543508
H329	H	0.978169	-0.711655	-0.247990
H330	H	1.228169	-0.461655	0.002010
H331	H	1.478169	-0.211655	0.252010
H332	H	1.728169	0.038345	0.502010
O333	O	0.822088	-0.721070	-0.416286
O334	O	1.072088	-0.471070	-0.166286
O335	O	1.322088	-0.221070	0.083714
O336	O	1.572088	0.028930	0.333714
H337	H	0.828833	-0.776158	-0.409026
H338	H	1.078833	-0.526158	-0.159026
H339	H	1.328833	-0.276158	0.090974
H340	H	1.578833	-0.026158	0.340974
O341	O	0.822154	-0.929925	-0.416331
O342	O	1.072154	-0.679925	-0.166331
O343	O	1.322154	-0.429925	0.083669
O344	O	1.572154	-0.179925	0.333669
H345	H	0.850158	-0.897669	-0.450813
H346	H	1.100158	-0.647669	-0.200813
H347	H	1.350158	-0.397669	0.049187
H348	H	1.600158	-0.147669	0.299187
H349	H	0.978230	-0.247157	-0.713064
H350	H	1.228230	0.002843	-0.463064
H351	H	1.478230	0.252843	-0.213064
H352	H	1.728230	0.502843	0.036936
O353	O	0.473641	-0.314561	-0.199661
O354	O	0.723641	-0.064561	0.050339
O355	O	0.973641	0.185439	0.300339
O356	O	1.223641	0.435439	0.550339
H357	H	0.503412	-0.359896	-0.192663
H358	H	0.753412	-0.109896	0.057337
H359	H	1.003412	0.140104	0.307337
H360	H	1.253412	0.390104	0.557337
H361	H	0.832648	-0.583486	-0.404844
H362	H	1.082648	-0.333486	-0.154844
H363	H	1.332648	-0.083486	0.095156
H364	H	1.582648	0.166514	0.345156
H365	H	0.978241	-0.939180	-0.248028
H366	H	1.228241	-0.689180	0.001972
H367	H	1.478241	-0.439180	0.251972
H368	H	1.728241	-0.189180	0.501972
H369	H	0.978218	-0.247189	-0.584830
H370	H	1.228218	0.002811	-0.334830
H371	H	1.478218	0.252811	-0.084830
H372	H	1.728218	0.502811	0.165170
H373	H	0.263273	-0.247137	-0.248095
H374	H	0.513273	0.002863	0.001905
H375	H	0.763273	0.252863	0.251905
H376	H	1.013273	0.502863	0.501905
O377	O	0.822196	-0.415605	-1.078048
O378	O	1.072196	-0.165605	-0.828048
O379	O	1.322196	0.084395	-0.578048
O380	O	1.572196	0.334395	-0.328048
H381	H	0.794302	-0.445711	-1.041575
H382	H	1.044302	-0.195711	-0.791575
H383	H	1.294302	0.054289	-0.541575
H384	H	1.544302	0.304289	-0.291575
O385	O	0.822144	-0.415607	-0.931115
O386	O	1.072144	-0.165607	-0.681115
O387	O	1.322144	0.084393	-0.431115
O388	O	1.572144	0.334393	-0.181115
H389	H	0.794265	-0.445693	-0.967546
H390	H	1.044265	-0.195693	-0.717546
H391	H	1.294265	0.054307	-0.467546
H392	H	1.544265	0.304307	-0.217546
O393	O	0.822149	-0.415689	-0.722273
O394	O	1.072149	-0.165689	-0.472273
O395	O	1.322149	0.084311	-0.222273
O396	O	1.572149	0.334311	0.027727
H397	H	0.828894	-0.408408	-0.777370
H398	H	1.078894	-0.158408	-0.527370
H399	H	1.328894	0.091592	-0.277370
H400	H	1.578894	0.341592	-0.027370
O401	O	0.822126	-0.415716	-0.575350
O402	O	1.072126	-0.165716	-0.325350
O403	O	1.322126	0.084284	-0.075350
O404	O	1.572126	0.334284	0.174650
H405	H	0.832841	-0.468837	-0.588899
H406	H	1.082841	-0.218837	-0.338899
H407	H	1.332841	0.031163	-0.088899
H408	H	1.582841	0.281163	0.161101
O409	O	0.539560	-0.415956	-0.416156
O410	O	0.789560	-0.165956	-0.166156
O411	O	1.039560	0.084044	0.083844
O412	O	1.289560	0.334044	0.333844
H413	H	0.573303	-0.446118	-0.446175
H414	H	0.823303	-0.196118	-0.196175
H415	H	1.073303	0.053882	0.053825
H416	H	1.323303	0.303882	0.303825
H417	H	0.465196	-0.335656	-0.437029
H418	H	0.715196	-0.085656	-0.187029
H419	H	0.965196	0.164344	0.062971
H420	H	1.215196	0.414344	0.312971
H421	H	0.144563	-0.247109	-0.248145
H422	H	0.394563	0.002891	0.001855
H423	H	0.644563	0.252891	0.251855
H424	H	0.894563	0.502891	0.501855
O425	O	0.135925	-0.415929	-0.416254
O426	O	0.385925	-0.165929	-0.166254
O427	O	0.635925	0.084071	0.083746
O428	O	0.885925	0.334071	0.333746
H429	H	0.169670	-0.446116	-0.446244
H430	H	0.419670	-0.196116	-0.196244
H431	H	0.669670	0.053884	0.053756
H432	H	0.919670	0.303884	0.303756
H433	H	0.346298	-0.315971	-0.215825
H434	H	0.596298	-0.065971	0.034175
H435	H	0.846298	0.184029	0.284175
H436	H	1.096298	0.434029	0.534175
H437	H	0.666913	-0.247214	-0.247945
H438	H	0.916913	0.002786	0.002055
H439	H	1.166913	0.252786	0.252055
H440	H	1.416913	0.502786	0.502055
