data_functionalizedCrystal
_audit_creation_method	'MofGen! by Chris Wilmer'
_symmetry_space_group_name_H-M	'P1'
_symmetry_Int_Tables_number	1
_symmetry_cell_setting	triclinic
loop_
_symmetry_equiv_pos_as_xyz
  x,y,z
_cell_length_a	12.759395
_cell_length_b	16.120256
_cell_length_c	12.759394
_cell_angle_alpha	87.123590
_cell_angle_beta	89.983626
_cell_angle_gamma	92.880601
loop_
_atom_site_label
_atom_site_type_symbol
_atom_site_fract_x
_atom_site_fract_y
_atom_site_fract_z
Zn1	Zn	1.576120	-0.471348	0.448388
Zn2	Zn	1.584926	-0.331941	0.615167
Zn3	Zn	1.409333	-0.331956	0.439508
Zn4	Zn	1.400412	-0.471314	0.624028
O5	O	1.492698	-0.401640	0.531773
O6	O	1.724308	-0.452863	0.470520
O7	O	1.569053	-0.215279	0.584441
O8	O	1.431506	-0.350468	0.293667
O9	O	1.730779	-0.350442	0.593051
O10	O	1.554043	-0.452878	0.300191
O11	O	1.440046	-0.215291	0.455385
O12	O	1.261129	-0.350434	0.463978
O13	O	1.416300	-0.587982	0.608154
O14	O	1.254575	-0.452820	0.599544
O15	O	1.545392	-0.588007	0.479112
O16	O	1.560402	-0.350409	0.763362
O17	O	1.424840	-0.452805	0.769873
C18	C	1.219731	-0.401626	0.531759
C19	C	1.102954	-0.401639	0.531780
C20	C	1.096178	-0.508080	0.673151
C21	C	1.037929	-0.561304	0.743845
C22	C	0.928207	-0.561314	0.743858
C23	C	0.876731	-0.508097	0.673168
C24	C	0.934980	-0.454874	0.602474
C25	C	1.044705	-0.454868	0.602471
C26	C	0.941755	-0.348438	0.461100
C27	C	1.051478	-0.348422	0.461090
C28	C	0.890280	-0.295221	0.390410
C29	C	0.948529	-0.241993	0.319719
C30	C	1.058258	-0.241984	0.319709
C31	C	1.109727	-0.295199	0.390396
C32	C	1.478869	-0.619090	0.545612
C33	C	1.472976	-0.711754	0.551509
C34	C	1.523428	-0.922713	0.500993
C35	C	1.462181	-0.881408	0.562232
C36	C	1.468189	-0.787004	0.556264
C37	C	1.517421	-1.017125	0.506960
C38	C	1.766730	-0.401655	0.531788
C39	C	1.883507	-0.401661	0.531794
C40	C	1.492636	-0.401620	0.804739
C41	C	1.492704	-0.401639	0.921517
C42	C	1.506534	-0.185036	0.517912
C43	C	1.512630	-0.092372	0.511719
C44	C	1.492787	-0.401678	0.257742
C45	C	1.492825	-0.401695	0.140966
C46	C	1.633960	-0.295093	0.914690
C47	C	1.704615	-0.241830	0.966138
C48	C	1.704676	-0.241853	1.075861
C49	C	1.634075	-0.295146	1.134139
C50	C	1.563420	-0.348409	1.082691
C51	C	1.563366	-0.348379	0.972965
C52	C	1.422170	-0.454958	1.089519
C53	C	1.422104	-0.454932	0.979795
C54	C	1.351570	-0.508251	1.147797
C55	C	1.280908	-0.561511	1.096349
C56	C	1.280850	-0.561485	0.986619
C57	C	1.351449	-0.508195	0.928348
H58	H	0.906608	-0.198672	0.262164
O59	O	1.386752	-0.928471	0.637630
H60	H	1.393819	-0.996309	0.630555
O61	O	0.865410	-0.618689	0.820166
H62	H	0.882317	-0.684155	0.806498
O63	O	1.598874	-0.875651	0.425623
H64	H	1.591820	-0.807814	0.432721
O65	O	1.633890	-0.295068	0.796346
H66	H	1.694853	-0.249068	0.764465
H67	H	1.762100	-0.198441	0.918678
H68	H	1.762214	-0.198486	1.117749
H69	H	1.199068	-0.295195	0.390398
O70	O	1.634134	-0.295174	1.252483
H71	H	1.695122	-0.249181	1.278467
H72	H	1.351402	-0.508164	0.839005
O73	O	0.771937	-0.295212	0.390407
H74	H	0.747018	-0.232292	0.407493
O75	O	1.121084	-0.184570	0.243471
H76	H	1.066853	-0.147564	0.194331
H77	H	1.351628	-0.508269	1.237139
H78	H	1.223436	-0.604901	1.143808
H79	H	1.185520	-0.508071	0.673155
O80	O	1.093444	-0.618720	0.820066
H81	H	1.179527	-0.609777	0.808182
H82	H	0.787389	-0.508117	0.673177
O83	O	1.204633	-0.618925	0.931128
H84	H	1.155548	-0.655976	0.990089
