data_functionalizedCrystal
_audit_creation_method	'MofGen! by Chris Wilmer'
_symmetry_space_group_name_H-M	'P1'
_symmetry_Int_Tables_number	1
_symmetry_cell_setting	triclinic
loop_
_symmetry_equiv_pos_as_xyz
  x,y,z
_cell_length_a	6.817900
_cell_length_b	11.102288
_cell_length_c	16.015572
_cell_angle_alpha	76.744148
_cell_angle_beta	104.485554
_cell_angle_gamma	108.605689
loop_
_atom_site_label
_atom_site_type_symbol
_atom_site_fract_x
_atom_site_fract_y
_atom_site_fract_z
V1	V	-3.999220	-0.051261	-0.269393
O2	O	-3.960391	0.130656	-0.264265
O3	O	-3.976766	-0.224933	-0.267551
O4	O	-3.927019	0.005776	-0.386885
O5	O	-4.010482	-0.101651	-0.144105
V6	V	-4.482571	-0.036148	-0.254407
O7	O	-4.260858	-0.084413	-0.302265
O8	O	-4.671130	-0.002996	-0.221536
O9	O	-4.281819	0.137524	-0.256250
O10	O	-4.638797	-0.218065	-0.259536
O11	O	-4.588706	0.014242	-0.379696
O12	O	-4.331565	-0.093185	-0.136916
C13	C	-3.828848	-0.269029	-0.263301
C14	C	-3.891617	-0.410646	-0.262578
C15	C	-3.765391	0.025266	-0.415522
C16	C	-3.787814	0.070751	-0.511572
C17	C	-4.103316	-0.481658	-0.266549
C18	C	-4.162285	-0.614720	-0.265876
C19	C	-3.797832	-0.605747	-0.257258
C20	C	-3.738869	-0.472686	-0.257937
C21	C	-4.136761	-0.332975	-0.889205
C22	C	-4.157829	-0.290194	-0.979454
C23	C	-4.047775	-0.068856	-0.954747
C24	C	-4.026687	-0.111619	-0.864494
C25	C	-4.071187	-0.243680	-0.831730
C26	C	-3.961113	-0.022324	-0.807019
C27	C	-3.940038	-0.065084	-0.716774
C28	C	-3.984537	-0.197140	-0.684003
C29	C	-4.050112	-0.286440	-0.741485
C30	C	-3.916629	0.109736	-0.839785
C31	C	-3.851054	0.199031	-0.782310
C32	C	-3.829964	0.156272	-0.692063
C33	C	-3.874463	0.024216	-0.659292
C34	C	-3.764390	0.245572	-0.634581
C35	C	-3.743314	0.202812	-0.544335
C36	C	-3.853388	-0.018544	-0.569047
C37	C	-4.093080	0.181612	-0.260497
C38	C	-4.009548	0.323230	-0.261226
C39	C	-4.156537	-0.112681	-0.108274
C40	C	-4.113352	-0.158160	-0.012223
H41	H	-4.334667	-0.672532	-0.269111
O42	O	-4.221242	-0.376817	-1.035364
C43	C	-4.063619	-0.354641	-1.084117
H44	H	-3.961285	-0.250777	-1.085522
H45	H	-3.961454	-0.422870	-1.052509
C46	C	-4.293376	-0.506118	-1.176444
C47	C	-4.167698	-0.378548	-1.178177
H48	H	-4.357573	-0.520870	-1.234463
H49	H	-4.399567	-0.521064	-1.143597
H50	H	-4.208218	-0.562962	-1.150100
H51	H	-4.252860	-0.321707	-1.204510
H52	H	-4.061523	-0.363593	-1.211031
H53	H	-4.011557	0.038668	-0.981436
H54	H	-3.673477	-0.656277	-0.253477
O55	O	-4.179566	-0.461295	-0.857505
C56	C	-4.241582	-0.530939	-0.927574
H57	H	-4.304357	-0.469711	-0.989780
H58	H	-4.100082	-0.556168	-0.937209
C59	C	-4.338571	-0.730847	-0.830666
C60	C	-4.415688	-0.655649	-0.907067
H61	H	-4.445960	-0.807777	-0.818016
H62	H	-4.296782	-0.683927	-0.783458
H63	H	-4.220654	-0.751857	-0.838706
H64	H	-4.533585	-0.634627	-0.899023
H65	H	-4.457501	-0.702569	-0.954274
O66	O	-3.895899	-0.146813	-0.537197
C67	C	-3.761042	-0.199324	-0.562567
H68	H	-3.703460	-0.135496	-0.623292
H69	H	-3.620071	-0.204760	-0.507206
C70	C	-3.952667	-0.413959	-0.508452
C71	C	-3.881958	-0.335569	-0.583040
H72	H	-4.027248	-0.498003	-0.521077
H73	H	-4.043519	-0.378582	-0.491356
H74	H	-3.835176	-0.418474	-0.462325
H75	H	-3.999450	-0.331042	-0.629162
H76	H	-3.791129	-0.370949	-0.600144
O77	O	-3.720861	0.373890	-0.666301
C78	C	-3.509129	0.434876	-0.632585
H79	H	-3.451742	0.373729	-0.569186
H80	H	-3.407428	0.446479	-0.682173
C81	C	-3.563232	0.643521	-0.692278
C82	C	-3.492753	0.568425	-0.614406
H83	H	-3.553126	0.725903	-0.681067
H84	H	-3.705878	0.602435	-0.714996
H85	H	-3.478473	0.653177	-0.733594
H86	H	-3.577529	0.558757	-0.573095
H87	H	-3.350121	0.609513	-0.591680
O88	O	-3.937443	0.151119	-0.927472
C89	C	-4.147767	0.100624	-0.968575
H90	H	-4.225460	0.009985	-0.925178
H91	H	-4.237931	0.175299	-0.979696
C92	C	-4.055343	0.178350	-1.110371
C93	C	-4.150761	0.067020	-1.057074
H94	H	-4.057194	0.157627	-1.164964
H95	H	-3.913644	0.212375	-1.082681
H96	H	-4.130491	0.240570	-1.119630
H97	H	-4.075597	0.004810	-1.047808
H98	H	-4.292448	0.032985	-1.084765
H99	H	-3.814836	0.306556	-0.808999
H100	H	-3.566472	-0.414865	-0.254706
H101	H	-4.227697	-0.431149	-0.270326
O102	O	-3.679710	0.289374	-0.488379
C103	C	-3.670602	0.223313	-0.401701
H104	H	-3.778304	0.120862	-0.401523
H105	H	-3.501680	0.220208	-0.371641
C106	C	-3.611068	0.419570	-0.348082
C107	C	-3.743365	0.293741	-0.347862
H108	H	-3.655942	0.463015	-0.314869
H109	H	-3.617196	0.464078	-0.406478
H110	H	-3.470310	0.416965	-0.323034
H111	H	-3.884114	0.296348	-0.372919
H112	H	-3.737262	0.249235	-0.289468
O113	O	-3.964258	-0.238536	-0.596328
C114	C	-4.100156	-0.196240	-0.563574
H115	H	-4.137872	-0.108335	-0.609753
H116	H	-4.252409	-0.276657	-0.558298
C117	C	-3.945664	-0.268119	-0.415824
C118	C	-3.991973	-0.160146	-0.472539
H119	H	-3.878938	-0.245860	-0.359667
H120	H	-3.854111	-0.296619	-0.437890
H121	H	-4.072553	-0.335123	-0.411437
H122	H	-3.865083	-0.093150	-0.476933
H123	H	-4.083502	-0.131633	-0.450470
H124	H	-4.086320	-0.393977	-0.714807
