data_functionalizedCrystal
_audit_creation_method	'MofGen! by Chris Wilmer'
_symmetry_space_group_name_H-M	'P1'
_symmetry_Int_Tables_number	1
_symmetry_cell_setting	triclinic
loop_
_symmetry_equiv_pos_as_xyz
  x,y,z
_cell_length_a	18.215407
_cell_length_b	19.120904
_cell_length_c	19.121063
_cell_angle_alpha	94.741613
_cell_angle_beta	92.466335
_cell_angle_gamma	92.425671
loop_
_atom_site_label
_atom_site_type_symbol
_atom_site_fract_x
_atom_site_fract_y
_atom_site_fract_z
Zn1	Zn	1.093438	-0.409722	-0.297155
Zn2	Zn	1.093347	-0.297072	-0.409802
Zn3	Zn	0.975859	-0.292080	-0.292151
Zn4	Zn	0.964850	-0.414699	-0.414777
O5	O	1.031873	-0.353393	-0.353471
O6	O	1.196409	-0.394785	-0.312110
O7	O	1.082331	-0.197950	-0.390019
O8	O	0.996102	-0.303513	-0.194352
O9	O	1.196342	-0.312022	-0.394871
O10	O	1.082486	-0.389944	-0.198029
O11	O	0.996013	-0.194281	-0.303581
O12	O	0.871415	-0.308339	-0.308405
O13	O	0.977338	-0.512499	-0.403350
O14	O	0.863327	-0.398426	-0.398498
O15	O	1.071811	-0.508842	-0.316934
O16	O	1.071656	-0.316848	-0.508924
O17	O	0.977250	-0.403267	-0.512579
C18	C	0.840668	-0.353381	-0.353449
C19	C	0.758869	-0.353394	-0.353457
C20	C	0.489618	-0.400243	-0.400454
C21	C	0.566477	-0.400239	-0.400448
C22	C	0.574869	-0.306556	-0.306505
C23	C	0.498011	-0.306557	-0.306515
C24	C	0.455387	-0.353404	-0.353488
C25	C	0.609104	-0.353400	-0.353472
C26	C	0.692438	-0.353396	-0.353465
C27	C	0.372048	-0.353408	-0.353497
C28	C	1.023356	-0.536914	-0.361255
C29	C	1.019727	-0.615120	-0.364572
C30	C	1.067207	-0.649959	-0.321140
C31	C	1.063788	-0.723441	-0.324255
C32	C	1.012892	-0.762084	-0.370805
C33	C	0.965408	-0.727240	-0.414238
C34	C	0.968824	-0.653759	-0.411120
C35	C	1.000114	-0.984045	-0.382467
C36	C	0.996703	-1.057531	-0.385583
C37	C	1.095083	-1.053727	-0.295598
C38	C	1.098497	-0.980245	-0.292487
C39	C	1.051010	-0.945407	-0.335918
C40	C	1.009398	-0.837195	-0.373990
C41	C	1.054501	-0.870297	-0.332728
C42	C	1.223825	-0.353405	-0.353494
C43	C	1.305623	-0.353410	-0.353503
C44	C	1.023267	-0.361155	-0.536283
C45	C	1.019652	-0.364499	-0.614491
C46	C	1.040402	-0.170584	-0.345667
C47	C	1.044183	-0.092370	-0.342151
C48	C	1.067140	-0.321113	-0.649309
C49	C	1.063744	-0.324263	-0.722795
C50	C	1.012856	-0.370794	-0.761461
C51	C	0.965365	-0.414185	-0.726638
C52	C	0.968765	-0.411039	-0.653154
C53	C	1.000132	-0.382546	-0.983432
C54	C	0.996734	-0.385688	-1.056921
C55	C	1.095114	-0.295766	-1.053073
C56	C	1.098507	-0.292621	-0.979587
C57	C	1.051019	-0.336014	-0.944771
C58	C	1.009381	-0.374013	-0.836575
C59	C	1.054497	-0.332799	-0.869658
C60	C	1.040532	-0.345616	-0.169946
C61	C	1.044222	-0.342302	-0.091739
H62	H	1.108653	-0.618501	-0.283236
C63	C	1.151400	-0.244226	-0.873234
C64	C	1.110432	-0.281650	-0.827159
H65	H	1.185932	-0.212651	-0.846991
H66	H	1.119280	-0.218517	-0.900787
H67	H	1.176780	-0.276133	-0.903164
H68	H	1.085047	-0.249743	-0.797232
H69	H	1.142556	-0.307361	-0.799594
C70	C	1.135500	-1.071300	-0.177419
C71	C	1.147274	-1.092020	-0.247854
H72	H	1.167724	-1.094938	-0.147942
H73	H	1.085986	-1.082905	-0.167633
H74	H	1.144818	-1.022006	-0.168911
H75	H	1.137950	-1.141313	-0.256363
H76	H	1.196799	-1.080420	-0.257644
H77	H	0.955302	-0.423592	-1.088402
C78	C	1.170415	-0.307876	-0.566188
C79	C	1.123078	-0.269963	-0.606809
H80	H	1.204947	-0.276296	-0.539949
H81	H	1.195789	-0.339774	-0.596121
H82	H	1.142611	-0.333260	-0.534935
H83	H	1.150882	-0.244583	-0.638066
H84	H	1.097702	-0.238052	-0.576873
C85	C	1.220302	-0.262564	-1.074156
C86	C	1.147320	-0.248075	-1.091340
H87	H	1.252534	-0.233118	-1.097777
H88	H	1.228275	-0.310356	-1.088182
H89	H	1.229596	-0.254033	-1.024856
H90	H	1.138024	-0.256611	-1.140639
H91	H	1.139344	-0.200272	-1.077318
H92	H	1.102452	-0.751803	-0.288889
H93	H	1.102414	-0.288933	-0.751140
H94	H	0.923965	-0.758709	-0.452138
H95	H	0.930096	-0.446369	-0.624806
C96	C	0.575444	-0.213945	-0.213658
C97	C	0.621723	-0.255062	-0.254874
H98	H	0.604370	-0.182151	-0.181786
H99	H	0.545309	-0.243500	-0.188092
H100	H	0.545275	-0.188290	-0.243144
H101	H	0.651887	-0.280721	-0.225387
H102	H	0.651871	-0.225503	-0.280442
C103	C	0.902529	-0.471726	-0.994627
C104	C	0.947920	-0.430230	-0.945168
H105	H	0.870289	-0.501159	-0.971000
H106	H	0.931993	-0.499897	-1.024391
H107	H	0.874513	-0.442263	-1.022025
H108	H	0.975940	-0.459694	-0.917773
H109	H	0.918452	-0.402056	-0.915392
H110	H	0.594343	-0.438379	-0.438692
H111	H	1.139944	-0.254731	-0.948106
C112	C	0.871257	-0.664896	-0.500398
C113	C	0.916645	-0.615462	-0.458874
H114	H	0.839048	-0.641252	-0.529884
H115	H	0.843214	-0.692248	-0.470958
H116	H	0.900730	-0.694706	-0.528523
H117	H	0.887172	-0.585655	-0.430745
H118	H	0.944691	-0.588098	-0.488318
C119	C	0.916463	-0.458929	-0.840991
C120	C	0.909425	-0.465332	-0.769139
H121	H	0.881922	-0.490502	-0.867226
H122	H	0.964859	-0.469784	-0.853430
H123	H	0.907369	-0.412159	-0.851048
H124	H	0.918524	-0.512101	-0.759081
H125	H	0.861017	-0.454482	-0.756695
H126	H	0.470141	-0.268412	-0.268269
C127	C	0.989244	-0.905429	-0.473611
C128	C	0.947916	-0.945765	-0.430211
H129	H	0.957014	-0.881794	-0.503084
H130	H	1.018704	-0.935236	-0.501742
H131	H	1.020035	-0.871893	-0.445438
H132	H	0.917129	-0.979304	-0.458384
H133	H	0.918444	-0.915955	-0.402077
C134	C	1.073029	-0.783654	-0.234581
C135	C	1.110444	-0.827824	-0.281560
H136	H	1.107569	-0.757426	-0.202997
H137	H	1.040915	-0.811177	-0.208878
H138	H	1.045240	-0.752394	-0.260011
H139	H	1.138230	-0.859087	-0.256131
H140	H	1.142572	-0.800298	-0.307266
C141	C	1.116985	-0.893632	-0.194310
C142	C	1.154423	-0.937784	-0.241286
H143	H	1.151509	-0.867421	-0.162696
H144	H	1.084849	-0.921167	-0.168639
H145	H	1.089216	-0.862357	-0.219738
H146	H	1.182188	-0.969064	-0.215858
H147	H	1.186572	-0.910247	-0.266959
H148	H	0.454915	-0.438389	-0.438703
H149	H	0.967946	-0.411898	-0.868065
H150	H	0.967962	-0.868666	-0.411895
H151	H	0.955256	-1.088992	-0.423492
