data_functionalizedCrystal
_audit_creation_method	'MofGen! by Chris Wilmer'
_symmetry_space_group_name_H-M	'P1'
_symmetry_Int_Tables_number	1
_symmetry_cell_setting	triclinic
loop_
_symmetry_equiv_pos_as_xyz
  x,y,z
_cell_length_a	18.100771
_cell_length_b	18.101398
_cell_length_c	16.625539
_cell_angle_alpha	89.984069
_cell_angle_beta	89.716699
_cell_angle_gamma	89.690946
loop_
_atom_site_label
_atom_site_type_symbol
_atom_site_fract_x
_atom_site_fract_y
_atom_site_fract_z
Zn1	Zn	0.294883	1.130693	-0.457555
Zn2	Zn	0.628216	1.464026	-0.124222
Zn3	Zn	0.961550	1.797360	0.209112
Zn4	Zn	0.418739	1.129981	-0.323456
Zn5	Zn	0.752073	1.463314	0.009878
Zn6	Zn	1.085406	1.796647	0.343211
Zn7	Zn	0.294905	1.006848	-0.322747
Zn8	Zn	0.628238	1.340182	0.010587
Zn9	Zn	0.961571	1.673515	0.343920
Zn10	Zn	0.418691	1.006198	-0.458256
Zn11	Zn	0.752024	1.339532	-0.124923
Zn12	Zn	1.085357	1.672865	0.208411
O13	O	0.356804	1.068430	-0.390503
O14	O	0.690138	1.401763	-0.057170
O15	O	1.023471	1.735097	0.276163
O16	O	0.311324	1.234231	-0.439770
O17	O	0.644657	1.567565	-0.106437
O18	O	0.977991	1.900898	0.226897
O19	O	0.402342	1.113621	-0.210529
O20	O	0.735675	1.446954	0.122804
O21	O	1.069009	1.780288	0.456137
O22	O	0.191263	1.023847	-0.340039
O23	O	0.524596	1.357180	-0.006706
O24	O	0.857929	1.690513	0.326627
O25	O	0.402321	1.233708	-0.341247
O26	O	0.735654	1.567041	-0.007914
O27	O	1.068988	1.900375	0.325419
O28	O	0.191247	1.114835	-0.439083
O29	O	0.524580	1.448168	-0.105749
O30	O	0.857913	1.781502	0.227584
O31	O	0.311361	1.023156	-0.210008
O32	O	0.644695	1.356490	0.123325
O33	O	0.978028	1.689823	0.456658
O34	O	0.311314	0.903129	-0.340719
O35	O	0.644647	1.236463	-0.007386
O36	O	0.977981	1.569796	0.325948
O37	O	0.402238	1.022739	-0.570995
O38	O	0.735571	1.356072	-0.237662
O39	O	1.068904	1.689405	0.095671
O40	O	0.402259	0.902652	-0.440277
O41	O	0.735592	1.235985	-0.106944
O42	O	1.068926	1.569318	0.226390
O43	O	0.311277	1.114205	-0.570480
O44	O	0.644610	1.447538	-0.237147
O45	O	0.977943	1.780871	0.096186
O46	O	0.522372	1.112991	-0.341927
O47	O	0.855706	1.446324	-0.008594
O48	O	1.189039	1.779657	0.324740
O49	O	0.522336	1.022048	-0.440964
O50	O	0.855670	1.355382	-0.107631
O51	O	1.189003	1.688715	0.225702
C52	C	0.356784	0.876020	-0.390498
C53	C	0.690117	1.209353	-0.057164
C54	C	1.023451	1.542686	0.276169
C55	C	0.356793	0.793706	-0.390514
C56	C	0.690126	1.127039	-0.057181
C57	C	1.023460	1.460372	0.276152
C58	C	0.163631	1.069493	-0.389404
C59	C	0.496964	1.402826	-0.056070
C60	C	0.830297	1.736159	0.277263
C61	C	0.081312	1.069946	-0.388935
C62	C	0.414645	1.403279	-0.055602
C63	C	0.747978	1.736612	0.277732
C64	C	0.356807	0.642997	-0.390513
C65	C	0.690140	0.976330	-0.057180
C66	C	1.023474	1.309664	0.276153
C67	C	0.414115	0.611367	-0.453057
C68	C	0.747448	0.944701	-0.119723
C69	C	1.080782	1.278034	0.213610
C70	C	0.414347	0.525748	-0.452874
C71	C	0.747680	0.859081	-0.119540
C72	C	1.081014	1.192414	0.213793
C73	C	0.356821	0.494614	-0.390513
C74	C	0.690154	0.827948	-0.057180
C75	C	1.023487	1.161281	0.276153
C76	C	0.377650	0.525563	-0.305559
C77	C	0.710983	0.858897	0.027775
C78	C	1.044316	1.192230	0.361108
C79	C	0.378058	0.611206	-0.305921
C80	C	0.711391	0.944540	0.027413
C81	C	1.044724	1.277873	0.360746
C82	C	0.278527	0.611859	-0.412181
C83	C	0.611861	0.945192	-0.078848
C84	C	0.945194	1.278525	0.254486
C85	C	0.278956	0.526206	-0.414057
C86	C	0.612290	0.859540	-0.080724
C87	C	0.945623	1.192873	0.252609
C88	C	0.356827	0.410755	-0.390508
C89	C	0.690160	0.744088	-0.057175
C90	C	1.023494	1.077422	0.276158
C91	C	0.356802	0.726857	-0.390513
C92	C	0.690136	1.060190	-0.057179
C93	C	1.023469	1.393523	0.276154
C94	C	-0.217757	1.067997	-0.391052
C95	C	0.115576	1.401330	-0.057719
C96	C	0.448910	1.734664	0.275615
C97	C	-0.186440	1.125252	-0.453355
C98	C	0.146894	1.458585	-0.120022
C99	C	0.480227	1.791919	0.213311
C100	C	-0.100832	1.126035	-0.452567
C101	C	0.232501	1.459368	-0.119233
C102	C	0.565834	1.792701	0.214100
C103	C	-0.069386	1.068964	-0.390002
C104	C	0.263948	1.402297	-0.056669
C105	C	0.597281	1.735630	0.276664
C106	C	-0.101610	1.089934	-0.305263
C107	C	0.231724	1.423267	0.028070
C108	C	0.565057	1.756600	0.361404
C109	C	-0.187249	1.089790	-0.306231
C110	C	0.146084	1.423123	0.027102
C111	C	0.479417	1.756457	0.360436
C112	C	-0.185039	0.989838	-0.412519
C113	C	0.148294	1.323171	-0.079186
C114	C	0.481628	1.656504	0.254147
C115	C	-0.099380	0.990809	-0.413790
C116	C	0.233953	1.324142	-0.080456
C117	C	0.567287	1.657476	0.252877
C118	C	0.014468	1.069509	-0.389404
C119	C	0.347801	1.402842	-0.056071
C120	C	0.681134	1.736176	0.277263
C121	C	-0.301610	1.067454	-0.391645
C122	C	0.031723	1.400787	-0.058311
C123	C	0.365056	1.734120	0.275022
C124	C	0.549227	1.067392	-0.391616
C125	C	0.882560	1.400725	-0.058283
C126	C	1.215893	1.734058	0.275050
C127	C	0.631546	1.067015	-0.392119
C128	C	0.964879	1.400349	-0.058786
C129	C	1.298213	1.733682	0.274547
C130	C	0.356749	1.068479	-0.600812
C131	C	0.690083	1.401812	-0.267479
C132	C	1.023416	1.735145	0.065855
C133	C	0.356726	1.068499	-0.690433
C134	C	0.690059	1.401833	-0.357100
C135	C	1.023392	1.735166	-0.023766
C136	C	0.356825	1.261592	-0.390510
C137	C	0.690159	1.594925	-0.057176
C138	C	1.023492	1.928259	0.276157
C139	C	0.356834	1.343906	-0.390512
C140	C	0.690168	1.677239	-0.057179
C141	C	1.023501	2.010573	0.276154
C142	C	0.356643	1.068534	-1.018608
C143	C	0.689976	1.401867	-0.685275
C144	C	1.023309	1.735200	-0.351942
C145	C	0.356668	1.068522	-0.927300
C146	C	0.690002	1.401855	-0.593967
C147	C	1.023335	1.735189	-0.260633
C148	C	0.356685	1.068517	-0.854524
C149	C	0.690018	1.401850	-0.521190
C150	C	1.023352	1.735184	-0.187857
C151	C	0.356709	1.068504	-0.763209
C152	C	0.690042	1.401838	-0.429876
C153	C	1.023376	1.735171	-0.096543
C154	C	0.356806	1.068425	-0.181013
C155	C	0.690139	1.401758	0.152321
C156	C	1.023473	1.735091	0.485654
C157	C	0.356621	1.068549	-0.091391
C158	C	0.689954	1.401882	0.241943
C159	C	1.023287	1.735215	0.575276
H160	H	0.401354	0.504818	-0.515870
H161	H	0.734687	0.838151	-0.182537
H162	H	1.068020	1.171485	0.150796
H163	H	-0.077903	0.946167	-0.371418
H164	H	0.255430	1.279500	-0.038085
H165	H	0.588763	1.612834	0.295249
H166	H	-0.081182	1.184229	-0.438064
H167	H	0.252151	1.517563	-0.104731
H168	H	0.585484	1.850896	0.228603
F169	F	0.222724	0.638630	-0.352637
F170	F	0.556057	0.971963	-0.019304
F171	F	0.889390	1.305296	0.314030
H172	H	0.434237	0.503807	-0.286870
H173	H	0.767571	0.837141	0.046463
H174	H	1.100904	1.170474	0.379797
F175	F	-0.215658	1.200528	-0.435027
F176	F	0.117675	1.533861	-0.101694
F177	F	0.451008	1.867195	0.231640
H178	H	-0.208094	1.146943	-0.287989
H179	H	0.125240	1.480277	0.045344
H180	H	0.458573	1.813610	0.378678
H181	H	-0.206212	1.112019	-0.516699
H182	H	0.127122	1.445352	-0.183366
H183	H	0.460455	1.778685	0.149968
F184	F	-0.071722	0.970111	-0.495323
F185	F	0.261612	1.303444	-0.161990
F186	F	0.594945	1.636777	0.171344
H187	H	0.471791	0.632573	-0.438893
H188	H	0.805124	0.965907	-0.105559
H189	H	1.138458	1.299240	0.227774
F190	F	-0.214393	1.037671	-0.243450
F191	F	0.118940	1.371005	0.089883
F192	F	0.452273	1.704338	0.423216
F193	F	0.324766	0.499227	-0.243000
F194	F	0.658099	0.832560	0.090333
F195	F	0.991433	1.165894	0.423666
H196	H	0.435269	0.630869	-0.287554
H197	H	0.768602	0.964202	0.045779
H198	H	1.101935	1.297535	0.379112
F199	F	-0.075042	1.037475	-0.242534
F200	F	0.258292	1.370808	0.090800
F201	F	0.591625	1.704141	0.424133
F202	F	-0.074710	1.164170	-0.280611
F203	F	0.258624	1.497503	0.052722
F204	F	0.591957	1.830836	0.386055
H205	H	0.472356	0.504942	-0.438534
H206	H	0.805689	0.838275	-0.105201
H207	H	1.139023	1.171609	0.228132
F208	F	-0.212138	0.964463	-0.492301
F209	F	0.121196	1.297797	-0.158967
F210	F	0.454529	1.631130	0.174366
H211	H	0.401273	0.632052	-0.516250
H212	H	0.734606	0.965385	-0.182917
H213	H	1.067939	1.298719	0.150416
F214	F	0.325852	0.638570	-0.242936
F215	F	0.659186	0.971903	0.090397
F216	F	0.992519	1.305237	0.423731
H217	H	-0.205282	0.947198	-0.367124
H218	H	0.128052	1.280532	-0.033790
H219	H	0.461385	1.613865	0.299543
H220	H	0.263244	0.505992	-0.476577
H221	H	0.596577	0.839325	-0.143244
H222	H	0.929910	1.172659	0.190089
F223	F	0.253654	0.640247	-0.491757
F224	F	0.586987	0.973580	-0.158424
F225	F	0.920320	1.306914	0.174909
H226	H	0.234004	0.505044	-0.371824
H227	H	0.567338	0.838377	-0.038491
H228	H	0.900671	1.171711	0.294843
F229	F	-0.072293	1.108937	-0.534727
F230	F	0.261040	1.442270	-0.201394
F231	F	0.594373	1.775603	0.131940
