data_functionalizedCrystal
_audit_creation_method	'MofGen! by Chris Wilmer'
_symmetry_space_group_name_H-M	'P1'
_symmetry_Int_Tables_number	1
_symmetry_cell_setting	triclinic
loop_
_symmetry_equiv_pos_as_xyz
  x,y,z
_cell_length_a	13.032831
_cell_length_b	21.295417
_cell_length_c	13.033109
_cell_angle_alpha	97.148977
_cell_angle_beta	76.665514
_cell_angle_gamma	82.834379
loop_
_atom_site_label
_atom_site_type_symbol
_atom_site_fract_x
_atom_site_fract_y
_atom_site_fract_z
Zn1	Zn	1.699936	-0.442513	-0.806304
Zn2	Zn	1.677232	-0.532462	-0.628666
Zn3	Zn	1.499773	-0.411896	-0.606204
Zn4	Zn	1.522247	-0.532406	-0.783710
O5	O	1.599797	-0.479819	-0.706221
O6	O	1.845556	-0.467281	-0.801596
O7	O	1.634785	-0.503679	-0.477057
O8	O	1.526421	-0.327880	-0.632804
O9	O	1.828875	-0.533366	-0.671086
O10	O	1.673480	-0.350374	-0.779816
O11	O	1.504406	-0.415100	-0.460555
O12	O	1.354123	-0.415046	-0.610895
O13	O	1.564725	-0.533272	-0.935336
O14	O	1.370635	-0.503584	-0.741307
O15	O	1.695273	-0.467227	-0.951935
O16	O	1.656577	-0.620532	-0.649177
O17	O	1.542710	-0.620491	-0.763087
C18	C	1.323841	-0.455987	-0.671213
C19	C	1.205789	-0.445809	-0.656261
C20	C	1.161342	-0.485131	-0.714024
C21	C	1.039329	-0.474613	-0.698572
C22	C	1.599650	-0.643354	-0.706144
C23	C	1.599689	-0.713326	-0.706159
C24	C	1.659049	-0.746204	-0.646924
C25	C	1.659102	-0.811953	-0.646954
C26	C	1.599775	-0.844819	-0.706206
C27	C	1.540412	-0.811933	-0.765455
C28	C	1.540369	-0.746187	-0.765431
N29	N	1.507889	-0.940762	-0.702516
N30	N	1.507932	-1.003218	-0.702532
C31	C	1.599901	-1.042909	-0.706282
N32	N	1.691826	-1.017783	-0.709995
N33	N	1.691782	-0.955320	-0.709973
C34	C	1.599815	-0.916110	-0.706239
C35	C	1.659324	-1.147080	-0.647076
C36	C	1.659379	-1.212830	-0.647114
C37	C	1.540679	-1.212808	-0.765608
C38	C	1.540634	-1.147060	-0.765577
C39	C	1.599954	-1.114199	-0.706305
C40	C	1.876831	-0.503745	-0.741366
C41	C	1.994887	-0.513941	-0.756343
C42	C	1.635039	-0.503658	-0.983251
C43	C	1.650057	-0.513817	-1.101304
C44	C	1.599976	-0.315651	-0.706324
C45	C	1.600053	-0.245692	-0.706369
C46	C	1.592243	-0.474519	-1.145772
C47	C	1.607763	-0.485018	-1.267786
C48	C	1.564754	-0.456033	-0.430276
C49	C	1.549942	-0.445714	-0.312249
H50	H	1.153512	-0.404355	-0.595373
H51	H	1.707354	-0.719451	-0.598664
N52	N	1.688545	-0.539889	-1.336994
H53	H	1.688178	-0.539613	-1.414346
H54	H	1.761972	-0.534995	-1.327295
H55	H	1.707443	-0.838728	-0.598718
H56	H	0.987056	-0.433155	-0.637680
H57	H	1.707724	-1.239600	-0.598880
N58	N	1.730848	-0.568677	-1.170521
H59	H	1.767298	-0.593460	-1.124083
H60	H	1.693395	-0.598004	-1.211040
H61	H	1.531253	-0.433105	-1.093510
H62	H	1.492292	-1.120288	-0.813807
N63	N	1.476679	-1.248241	-0.829513
H64	H	1.502759	-1.244719	-0.907495
H65	H	1.485731	-1.294865	-0.820459
N66	N	1.230576	-0.540043	-0.794685
H67	H	1.307924	-0.539774	-0.794288
H68	H	1.209087	-0.581891	-0.775571
N69	N	1.064116	-0.568851	-0.837017
H70	H	1.141465	-0.568582	-0.836625
H71	H	1.042632	-0.610702	-0.817912
H72	H	1.492109	-0.838697	-0.813700
H73	H	1.488949	-0.404296	-1.259993
H74	H	1.492031	-0.719417	-0.813669
H75	H	1.707630	-1.120324	-0.598817
