data_functionalizedCrystal
_audit_creation_method	'MofGen! by Chris Wilmer'
_symmetry_space_group_name_H-M	'P1'
_symmetry_Int_Tables_number	1
_symmetry_cell_setting	triclinic
loop_
_symmetry_equiv_pos_as_xyz
  x,y,z
_cell_length_a	16.120530
_cell_length_b	12.645330
_cell_length_c	16.120297
_cell_angle_alpha	92.876762
_cell_angle_beta	90.128140
_cell_angle_gamma	87.113442
loop_
_atom_site_label
_atom_site_type_symbol
_atom_site_fract_x
_atom_site_fract_y
_atom_site_fract_z
Zn1	Zn	1.247482	-0.537081	-0.534595
Zn2	Zn	1.747482	-0.037081	-0.034595
Zn3	Zn	1.254445	-0.705843	-0.395547
Zn4	Zn	1.754445	-0.205843	0.104453
Zn5	Zn	1.115471	-0.519167	-0.388512
Zn6	Zn	1.615471	-0.019167	0.111488
Zn7	Zn	1.108402	-0.704866	-0.527517
Zn8	Zn	1.608402	-0.204866	-0.027517
O9	O	1.181450	-0.616739	-0.461543
O10	O	1.681450	-0.116739	0.038457
O11	O	1.364772	-0.567373	-0.522057
O12	O	1.864772	-0.067373	-0.022057
O13	O	1.241883	-0.673991	-0.278248
O14	O	1.741883	-0.173991	0.221752
O15	O	1.133026	-0.373200	-0.407909
O16	O	1.633026	0.126800	0.092091
O17	O	1.369888	-0.691362	-0.419899
O18	O	1.869888	-0.191362	0.080101
O19	O	1.230014	-0.386361	-0.515235
O20	O	1.730014	0.113639	-0.015235
O21	O	1.139779	-0.536842	-0.273080
O22	O	1.639779	-0.036842	0.226920
O23	O	0.998166	-0.535895	-0.401045
O24	O	1.498166	-0.035895	0.098955
O25	O	1.120978	-0.689698	-0.644821
O26	O	1.620978	-0.189698	-0.144821
O27	O	0.992972	-0.672327	-0.503171
O28	O	1.492972	-0.172327	-0.003171
O29	O	1.223160	-0.566427	-0.650022
O30	O	1.723160	-0.066427	-0.150022
O31	O	1.235028	-0.854056	-0.413035
O32	O	1.735028	-0.354056	0.086965
O33	O	1.127731	-0.853339	-0.509992
O34	O	1.627731	-0.353339	-0.009992
C35	C	0.965397	-0.602062	-0.450577
C36	C	1.465397	-0.102062	0.049423
C37	C	0.872967	-0.595810	-0.445905
C38	C	1.372967	-0.095810	0.054095
C39	C	0.703737	-0.584371	-0.437383
C40	C	1.203737	-0.084371	0.062617
C41	C	0.660000	-0.649190	-0.485763
C42	C	1.160000	-0.149190	0.014237
C43	C	0.565835	-0.642825	-0.481022
C44	C	1.065835	-0.142825	0.018978
C45	C	0.797911	-0.590734	-0.442124
C46	C	1.297911	-0.090734	0.057876
C47	C	1.181390	-0.892164	-0.461528
C48	C	1.681390	-0.392164	0.038472
C49	C	1.181439	-1.009999	-0.461554
C50	C	1.681439	-0.509999	0.038446
C51	C	1.114193	-1.177186	-0.522761
C52	C	1.614193	-0.677186	-0.022761
C53	C	1.113876	-1.054592	-0.522537
C54	C	1.613876	-0.554592	-0.022537
C55	C	1.162161	-1.047614	-0.372717
C56	C	1.662161	-0.547614	0.127283
C57	C	1.161751	-1.170210	-0.373088
C58	C	1.661751	-0.670210	0.126912
C59	C	1.268390	-1.184441	-0.488492
C60	C	1.768390	-0.684441	0.011508
C61	C	1.267753	-1.061915	-0.490381
C62	C	1.767753	-0.561915	0.009619
C63	C	1.398347	-0.631475	-0.472552
C64	C	1.898347	-0.131475	0.027448
C65	C	1.490775	-0.637754	-0.477244
C66	C	1.990775	-0.137754	0.022756
C67	C	1.170504	-0.629952	-0.678438
C68	C	1.670504	-0.129952	-0.178438
C69	C	1.165839	-0.635582	-0.770865
C70	C	1.665839	-0.135582	-0.270865
C71	C	1.181532	-0.340242	-0.461577
C72	C	1.681532	0.159758	0.038423
C73	C	1.181567	-0.222415	-0.461592
C74	C	1.681567	0.277585	0.038408
C75	C	1.157292	-0.645836	-0.940091
C76	C	1.657292	-0.145836	-0.440091
C77	C	1.205771	-0.587337	-0.983855
C78	C	1.705771	-0.087337	-0.483855
C79	C	1.201016	-0.593042	-1.078018
C80	C	1.701016	-0.093042	-0.578018
C81	C	1.162047	-0.640132	-0.845919
C82	C	1.662047	-0.140132	-0.345919
C83	C	1.192401	-0.603505	-0.245494
C84	C	1.692401	-0.103505	0.254506
C85	C	1.197227	-0.597587	-0.153075
C86	C	1.697227	-0.097587	0.346925
H87	H	1.125422	-1.029426	-0.588270
H88	H	1.625422	-0.529426	-0.088270
C89	C	1.367972	-1.293875	-0.568589
C90	C	1.867972	-0.793875	-0.068589
C91	C	1.293304	-1.233253	-0.574773
C92	C	1.793304	-0.733253	-0.074773
H93	H	1.383342	-1.324014	-0.621857
H94	H	1.883342	-0.824014	-0.121857
H95	H	1.410270	-1.249859	-0.548144
H96	H	1.910270	-0.749859	-0.048144
H97	H	1.360939	-1.348876	-0.531581
H98	H	1.860939	-0.848876	-0.031581
H99	H	1.300340	-1.178247	-0.611777
H100	H	1.800340	-0.678247	-0.111777
H101	H	1.250997	-1.277272	-0.595230
H102	H	1.750997	-0.777272	-0.095230
H103	H	1.250846	-0.532968	-0.950605
H104	H	1.750846	-0.032968	-0.450605
H105	H	0.693277	-0.709462	-0.530745
H106	H	1.193277	-0.209462	-0.030745
H107	H	1.112221	-0.700199	-0.973339
H108	H	1.612221	-0.200199	-0.473339
H109	H	1.125592	-1.211590	-0.588700
H110	H	1.625592	-0.711590	-0.088700
C111	C	0.611552	-0.556146	-0.320719
C112	C	1.111552	-0.056146	0.179281
C113	C	0.658821	-0.503013	-0.376657
C114	C	1.158821	-0.003013	0.123343
H115	H	0.583821	-0.505920	-0.283226
H116	H	1.083821	-0.005920	0.216774
H117	H	0.571744	-0.595969	-0.350457
H118	H	1.071744	-0.095969	0.149543
H119	H	0.647040	-0.602571	-0.290527
H120	H	1.147040	-0.102571	0.209473
H121	H	0.623333	-0.456594	-0.406854
H122	H	1.123333	0.043406	0.093146
H123	H	0.698634	-0.463172	-0.346916
H124	H	1.198634	0.036828	0.153084
C125	C	1.027424	-1.322596	-0.502550
C126	C	1.527424	-0.822596	-0.002550
C127	C	1.027714	-1.211745	-0.498510
C128	C	1.527714	-0.711745	0.001490
H129	H	0.974038	-1.343929	-0.487570
H130	H	1.474038	-0.843929	0.012430
H131	H	1.040261	-1.348795	-0.557516
H132	H	1.540261	-0.848795	-0.057516
H133	H	1.067770	-1.350239	-0.465290
H134	H	1.567770	-0.850239	0.034710
H135	H	0.987372	-1.184102	-0.535774
H136	H	1.487372	-0.684102	-0.035774
H137	H	1.014868	-1.185534	-0.443535
H138	H	1.514868	-0.685534	0.056465
C139	C	0.994081	-0.948468	-0.562475
C140	C	1.494081	-0.448468	-0.062475
C141	C	1.026863	-1.007919	-0.497999
C142	C	1.526863	-0.507919	0.002001
H143	H	0.940359	-0.919662	-0.547324
H144	H	1.440359	-0.419662	-0.047324
H145	H	1.029392	-0.892519	-0.572346
H146	H	1.529392	-0.392519	-0.072346
H147	H	0.990247	-0.992912	-0.611478
H148	H	1.490247	-0.492912	-0.111478
H149	H	1.030703	-0.963473	-0.448998
H150	H	1.530703	-0.463473	0.051002
H151	H	0.991543	-1.063874	-0.488118
H152	H	1.491543	-0.563874	0.011882
H153	H	1.098415	-1.193374	-0.350817
H154	H	1.598415	-0.693374	0.149183
C155	C	1.305880	-1.048690	-0.333213
C156	C	1.805880	-0.548690	0.166787
C157	C	1.226582	-1.008311	-0.309257
C158	C	1.726582	-0.508311	0.190743
H159	H	1.345655	-1.024418	-0.294043
H160	H	1.845655	-0.524418	0.205957
H161	H	1.307093	-1.123952	-0.335339
H162	H	1.807093	-0.623952	0.164661
H163	H	1.318676	-1.025068	-0.386500
H164	H	1.818676	-0.525068	0.113500
H165	H	1.213784	-1.031939	-0.255973
H166	H	1.713784	-0.531939	0.244027
H167	H	1.225367	-0.933033	-0.307122
H168	H	1.725367	-0.433033	0.192878
H169	H	1.099513	-1.011500	-0.350136
H170	H	1.599513	-0.511500	0.149864
H171	H	1.208935	-1.199856	-0.325719
H172	H	1.708935	-0.699856	0.174281
H173	H	1.282372	-1.037930	-0.555782
H174	H	1.782372	-0.537930	-0.055782
H175	H	1.318531	-1.213794	-0.443994
H176	H	1.818531	-0.713794	0.056006
H177	H	1.320237	-1.032010	-0.449427
H178	H	1.820237	-0.532010	0.050573
