data_functionalizedCrystal
_audit_creation_method	'MofGen! by Chris Wilmer'
_symmetry_space_group_name_H-M	'P1'
_symmetry_Int_Tables_number	1
_symmetry_cell_setting	triclinic
loop_
_symmetry_equiv_pos_as_xyz
  x,y,z
_cell_length_a	17.077404
_cell_length_b	16.625545
_cell_length_c	17.077396
_cell_angle_alpha	89.971947
_cell_angle_beta	90.019501
_cell_angle_gamma	89.975738
loop_
_atom_site_label
_atom_site_type_symbol
_atom_site_fract_x
_atom_site_fract_y
_atom_site_fract_z
Zn1	Zn	1.200048	0.320997	0.443845
Zn2	Zn	1.700048	0.820997	0.943845
Zn3	Zn	1.199953	0.455839	0.312580
Zn4	Zn	1.699953	0.955839	0.812580
Zn5	Zn	1.068780	0.321025	0.312593
Zn6	Zn	1.568780	0.821025	0.812593
Zn7	Zn	1.068746	0.455792	0.443804
Zn8	Zn	1.568746	0.955792	0.943804
O9	O	1.134382	0.388413	0.378205
O10	O	1.634382	0.888413	0.878205
O11	O	1.309883	0.338892	0.426444
O12	O	1.809883	0.838892	0.926444
O13	O	1.182527	0.437988	0.202735
O14	O	1.682527	0.937988	0.702735
O15	O	1.086248	0.208189	0.330027
O16	O	1.586248	0.708189	0.830027
O17	O	1.309812	0.437960	0.330005
O18	O	1.809812	0.937960	0.830005
O19	O	1.182690	0.208168	0.426457
O20	O	1.682690	0.708168	0.926457
O21	O	1.086155	0.338940	0.202744
O22	O	1.586155	0.838940	0.702744
O23	O	0.958929	0.338894	0.329986
O24	O	1.458929	0.838894	0.829986
O25	O	1.086189	0.437879	0.553656
O26	O	1.586189	0.937879	1.053656
O27	O	0.958903	0.437906	0.426386
O28	O	1.458903	0.937906	0.926386
O29	O	1.182656	0.338846	0.553687
O30	O	1.682656	0.838846	1.053687
O31	O	1.182493	0.568666	0.329964
O32	O	1.682493	1.068666	0.829964
O33	O	1.086096	0.568630	0.426374
O34	O	1.586096	1.068630	0.926374
C35	C	0.930434	0.388399	0.378184
C36	C	1.430434	0.888399	0.878184
C37	C	0.843184	0.388412	0.378193
C38	C	1.343184	0.888412	0.878193
C39	C	0.802201	0.440045	0.428308
C40	C	1.302201	0.940045	0.928308
C41	C	0.720221	0.440047	0.428321
C42	C	1.220221	0.940047	0.928321
C43	C	0.679225	0.388419	0.378214
C44	C	1.179225	0.888419	0.878214
C45	C	0.720213	0.336780	0.328097
C46	C	1.220213	0.836780	0.828097
C47	C	0.802192	0.336774	0.328089
C48	C	1.302192	0.836774	0.828089
C49	C	0.549343	0.336795	0.328115
C50	C	1.049343	0.836795	0.828115
C51	C	0.467359	0.336801	0.328122
C52	C	0.967359	0.836801	0.828122
C53	C	0.467372	0.440068	0.428347
C54	C	0.967372	0.940068	0.928347
C55	C	0.549351	0.440063	0.428339
C56	C	1.049351	0.940063	0.928339
C57	C	0.590334	0.388425	0.378221
C58	C	1.090334	0.888425	0.878221
C59	C	1.134302	0.597904	0.378180
C60	C	1.634302	1.097904	0.878180
C61	C	1.134339	0.687525	0.378196
C62	C	1.634339	1.187525	0.878196
C63	C	1.134468	1.015701	0.378290
C64	C	1.634468	1.515701	0.878290
C65	C	1.134429	0.924392	0.378266
C66	C	1.634429	1.424392	0.878266
C67	C	1.134403	0.851616	0.378242
C68	C	1.634403	1.351616	0.878242
C69	C	1.134366	0.760302	0.378219
C70	C	1.634366	1.260302	0.878219
C71	C	1.339126	0.388428	0.378228
C72	C	1.839126	0.888428	0.878228
C73	C	1.426376	0.388435	0.378237
C74	C	1.926376	0.888435	0.878237
C75	C	1.134429	0.388354	0.582950
C76	C	1.634429	0.888354	1.082950
C77	C	1.134449	0.388329	0.670200
C78	C	1.634449	0.888329	1.170200
C79	C	1.134477	1.178104	0.378257
C80	C	1.634477	1.678104	0.878257
C81	C	1.134500	1.088483	0.378303
C82	C	1.634500	1.588483	0.878303
C83	C	1.134380	0.388414	0.174258
C84	C	1.634380	0.888414	0.674258
C85	C	1.134511	0.388212	0.087008
C86	C	1.634511	0.888212	0.587008
C87	C	1.184682	0.336758	0.711207
C88	C	1.684682	0.836758	1.211207
C89	C	1.184691	0.336731	0.793187
C90	C	1.684691	0.836731	1.293187
C91	C	1.134472	0.388280	0.834159
C92	C	1.634472	0.888280	1.334159
C93	C	1.084234	0.439853	0.793146
C94	C	1.584234	0.939853	1.293146
C95	C	1.084221	0.439875	0.711167
C96	C	1.584221	0.939875	1.211167
C97	C	1.084265	0.439804	0.964016
C98	C	1.584265	0.939804	1.464016
C99	C	1.084279	0.439783	1.046001
C100	C	1.584279	0.939783	1.546001
C101	C	1.184736	0.336660	1.046037
C102	C	1.684736	0.836660	1.546037
C103	C	1.184723	0.336682	0.964058
C104	C	1.684723	0.836682	1.464058
C105	C	1.134486	0.388257	0.923050
C106	C	1.634486	0.888257	1.423050
H107	H	1.225579	0.294783	0.677854
H108	H	1.725579	0.794783	1.177854
O109	O	1.030074	0.495424	0.919785
O110	O	1.530074	0.995424	1.419785
H111	H	1.043510	0.558705	0.935501
H112	H	1.543510	1.058705	1.435501
O113	O	1.030066	0.495451	0.837335
O114	O	1.530066	0.995451	1.337335
H115	H	0.968463	0.481613	0.821597
H116	H	1.468463	0.981613	1.321597
O117	O	0.593546	0.281107	0.274051
O118	O	1.093546	0.781107	0.774051
H119	H	0.577836	0.217842	0.287612
H120	H	1.077836	0.717842	0.787612
H121	H	0.433982	0.294752	0.287330
H122	H	0.933982	0.794752	0.787330
H123	H	0.686828	0.294739	0.287302
H124	H	1.186828	0.794739	0.787302
H125	H	0.835574	0.482090	0.469108
H126	H	1.335574	0.982090	0.969108
O127	O	0.846402	0.281094	0.274028
O128	O	1.346402	0.781094	0.774028
H129	H	0.804124	0.245202	0.239178
H130	H	1.304124	0.745202	0.739178
H131	H	1.225598	0.294739	0.826572
H132	H	1.725598	0.794739	1.326572
H133	H	1.225621	0.294711	0.930701
H134	H	1.725621	0.794711	1.430701
H135	H	1.225640	0.294665	1.079429
H136	H	1.725640	0.794665	1.579429
H137	H	1.043384	0.481757	1.079358
H138	H	1.543384	0.981757	1.579358
O139	O	1.030032	0.495486	0.666931
O140	O	1.530032	0.995486	1.166931
H141	H	0.995113	0.531329	0.709193
H142	H	1.495113	1.031329	1.209193
O143	O	0.593567	0.495744	0.482387
O144	O	1.093567	0.995744	0.982387
H145	H	0.630884	0.536722	0.447181
H146	H	1.130884	1.036722	0.947181
H147	H	0.433999	0.482112	0.469158
H148	H	0.933999	0.982112	0.969158
O149	O	0.676015	0.495891	0.482222
O150	O	1.176015	0.995891	0.982222
H151	H	0.718294	0.531853	0.517000
H152	H	1.218294	1.031853	1.017000
