data_functionalizedCrystal
_audit_creation_method	'MofGen! by Chris Wilmer'
_symmetry_space_group_name_H-M	'P1'
_symmetry_Int_Tables_number	1
_symmetry_cell_setting	triclinic
loop_
_symmetry_equiv_pos_as_xyz
  x,y,z
_cell_length_a	12.759401
_cell_length_b	12.759400
_cell_length_c	12.827885
_cell_angle_alpha	89.970623
_cell_angle_beta	89.980966
_cell_angle_gamma	90.012838
loop_
_atom_site_label
_atom_site_type_symbol
_atom_site_fract_x
_atom_site_fract_y
_atom_site_fract_z
Zn1	Zn	1.606262	-0.418225	-0.590845
Zn2	Zn	1.606162	-0.593940	-0.416107
Zn3	Zn	1.430565	-0.418275	-0.416119
Zn4	Zn	1.430557	-0.593861	-0.590807
O5	O	1.518387	-0.506075	-0.503470
O6	O	1.753270	-0.441546	-0.567676
O7	O	1.582831	-0.570692	-0.269872
O8	O	1.453917	-0.271247	-0.439318
O9	O	1.753197	-0.570643	-0.439296
O10	O	1.583001	-0.271210	-0.567688
O11	O	1.453820	-0.441631	-0.269882
O12	O	1.283543	-0.441555	-0.439282
O13	O	1.453903	-0.570508	-0.737048
O14	O	1.283537	-0.570557	-0.567624
O15	O	1.582993	-0.441469	-0.737076
O16	O	1.582823	-0.740951	-0.439260
O17	O	1.453807	-0.740893	-0.567612
C18	C	1.245420	-0.506054	-0.503451
C19	C	1.128643	-0.506070	-0.503468
C20	C	0.964019	-0.573209	-0.436549
C21	C	1.073744	-0.573188	-0.436531
C22	C	1.073812	-0.438960	-0.570419
C23	C	0.964090	-0.438977	-0.570431
C24	C	0.909126	-0.640340	-0.369616
C25	C	0.963949	-0.707448	-0.302663
C26	C	1.073673	-0.707427	-0.302645
C27	C	1.128574	-0.640297	-0.369580
C28	C	1.518332	-0.779043	-0.503453
C29	C	1.518404	-0.895819	-0.503481
C30	C	1.585585	-0.950582	-0.570378
C31	C	1.585633	-1.060306	-0.570403
C32	C	1.451319	-1.060494	-0.436626
C33	C	1.451266	-0.950772	-0.436606
C34	C	1.652723	-0.895629	-0.637253
C35	C	1.719910	-0.950392	-0.704154
C36	C	1.719959	-1.060116	-0.704180
C37	C	1.652821	-1.115077	-0.637303
C38	C	1.792420	-0.506098	-0.503489
C39	C	1.909197	-0.506107	-0.503497
C40	C	1.518458	-0.505974	-0.776040
C41	C	1.518489	-0.505931	-0.892193
C42	C	1.518471	-0.232042	-0.503509
C43	C	1.518507	-0.115265	-0.503526
C44	C	1.582373	-0.442066	-0.943992
C45	C	1.582406	-0.442020	-1.064042
C46	C	1.518376	-0.506100	-0.231960
C47	C	1.518549	-0.505847	-0.115807
H48	H	1.118522	-0.384307	-0.624915
H49	H	1.652854	-1.204422	-0.637342
H50	H	1.652693	-0.806286	-0.637237
Br51	Br	1.360209	-1.135084	-0.345872
H52	H	1.463813	-0.560568	-0.936723
Br53	Br	1.277487	-0.640252	-0.369536
Br54	Br	1.811005	-0.875806	-0.794925
Br55	Br	1.427389	-0.596997	-1.041576
H56	H	1.396560	-0.906184	-0.382134
H57	H	1.637104	-0.387346	-1.108587
Br58	Br	1.673467	-0.350953	-0.869783
H59	H	0.819783	-0.640367	-0.369625
H60	H	1.118306	-0.762062	-0.248121
H61	H	0.919241	-0.762097	-0.248162
H62	H	0.919453	-0.384332	-0.624941
H63	H	1.774657	-1.104701	-0.758662
