data_functionalizedCrystal
_audit_creation_method	'MofGen! by Chris Wilmer'
_symmetry_space_group_name_H-M	'P1'
_symmetry_Int_Tables_number	1
_symmetry_cell_setting	triclinic
loop_
_symmetry_equiv_pos_as_xyz
  x,y,z
_cell_length_a	14.853566
_cell_length_b	11.792254
_cell_length_c	13.330367
_cell_angle_alpha	89.995204
_cell_angle_beta	89.995295
_cell_angle_gamma	83.916506
loop_
_atom_site_label
_atom_site_type_symbol
_atom_site_fract_x
_atom_site_fract_y
_atom_site_fract_z
O1	O	1.196952	0.148174	-0.083358
O2	O	0.934561	0.165827	-0.083374
O3	O	1.072118	-0.008209	-0.083358
O4	O	1.059395	0.322209	-0.083373
O5	O	1.072098	-0.008213	0.083489
O6	O	0.934541	0.165823	0.083473
O7	O	1.196932	0.148170	0.083490
Cu8	Cu	1.065735	0.156996	0.098716
Cu9	Cu	1.065758	0.157001	-0.098600
O10	O	1.059375	0.322205	0.083474
C11	C	0.900960	0.165025	0.000047
C12	C	0.800866	0.162629	0.000041
C13	C	0.377653	0.152496	-0.090889
C14	C	0.377652	0.152493	0.091014
C15	C	0.471695	0.154743	0.091011
C16	C	0.518721	0.155871	0.000056
C17	C	0.471704	0.154750	-0.090895
C18	C	0.518718	0.155876	0.181961
C19	C	0.612766	0.158128	0.181961
C20	C	0.659795	0.159248	0.091005
C21	C	0.612772	0.158125	0.000050
C22	C	0.659798	0.159254	-0.090904
C23	C	0.612778	0.158123	-0.181861
C24	C	0.518732	0.155870	-0.181851
C25	C	0.753840	0.161501	0.090996
C26	C	0.753849	0.161508	-0.090910
C27	C	1.071307	-0.050496	0.000065
C28	C	1.068908	-0.176495	0.000064
C29	C	1.066959	-0.278819	0.000060
C30	C	1.064521	-0.407191	0.000051
C31	C	1.230534	0.148971	0.000066
C32	C	1.330627	0.151367	0.000065
C33	C	1.060186	0.364493	0.000048
C34	C	1.062585	0.490491	0.000043
N35	N	1.065725	0.156992	0.237497
N36	N	1.065776	0.156996	-0.237382
C37	C	1.004846	0.234033	0.710113
C38	C	1.126696	0.079959	0.710095
C39	C	1.126685	0.079956	0.605077
C40	C	1.065755	0.156993	0.552572
C41	C	1.004835	0.234034	0.605085
C42	C	1.187610	0.002924	0.552556
C43	C	1.187603	0.002918	0.447531
C44	C	1.126668	0.079951	0.395024
C45	C	1.065745	0.156994	0.447544
C46	C	1.004815	0.234032	0.395039
C47	C	0.943887	0.311071	0.447556
C48	C	0.943900	0.311068	0.552578
C49	C	1.126655	0.079954	0.290002
C50	C	1.004805	0.234033	0.290010
H51	H	0.480422	0.154965	0.256011
H52	H	0.651043	0.159046	0.256023
H53	H	0.480440	0.154948	-0.255902
H54	H	0.792119	0.162433	0.165051
O55	O	0.878169	0.394166	0.390929
H56	H	0.807824	0.379541	0.411105
H57	H	0.955184	0.296763	0.247267
H58	H	0.894295	0.373791	0.595345
H59	H	1.237222	-0.059793	0.595308
O60	O	0.663507	0.159346	-0.279957
H61	H	0.615017	0.158189	-0.343205
H62	H	0.955236	0.296754	0.752876
H63	H	0.339365	0.151571	-0.164943
O64	O	1.192412	-0.003128	0.766717
H65	H	1.182182	0.009811	0.848569
O66	O	1.253304	-0.080180	0.390887
H67	H	1.295668	-0.133755	0.445043
O68	O	1.192358	-0.003128	0.233354
H69	H	1.234726	-0.056699	0.287508
H70	H	0.792132	0.162423	-0.164978
H71	H	0.339357	0.151581	0.165065
