data_functionalizedCrystal
_audit_creation_method	'MofGen! by Chris Wilmer'
_symmetry_space_group_name_H-M	'P1'
_symmetry_Int_Tables_number	1
_symmetry_cell_setting	triclinic
loop_
_symmetry_equiv_pos_as_xyz
  x,y,z
_cell_length_a	12.759395
_cell_length_b	21.295417
_cell_length_c	12.759387
_cell_angle_alpha	89.961464
_cell_angle_beta	89.979491
_cell_angle_gamma	90.032044
loop_
_atom_site_label
_atom_site_type_symbol
_atom_site_fract_x
_atom_site_fract_y
_atom_site_fract_z
Zn1	Zn	1.606153	-0.250550	-0.593949
Zn2	Zn	1.605995	-0.355833	-0.418245
Zn3	Zn	1.430451	-0.250585	-0.418285
Zn4	Zn	1.430395	-0.355788	-0.593884
O5	O	1.518249	-0.303189	-0.506091
O6	O	1.753153	-0.264521	-0.570651
O7	O	1.582667	-0.341905	-0.271229
O8	O	1.453848	-0.162491	-0.441631
O9	O	1.753037	-0.341871	-0.441563
O10	O	1.582936	-0.162465	-0.570690
O11	O	1.453695	-0.264579	-0.271259
O12	O	1.283423	-0.264536	-0.441569
O13	O	1.453753	-0.341795	-0.740914
O14	O	1.283382	-0.341828	-0.570581
O15	O	1.582881	-0.264477	-0.740961
O16	O	1.582612	-0.443917	-0.441501
O17	O	1.453600	-0.443884	-0.570542
C18	C	1.245281	-0.303181	-0.506073
C19	C	1.128505	-0.303193	-0.506090
C20	C	1.518111	-0.466741	-0.506033
C21	C	1.518148	-0.536709	-0.506043
C22	C	1.128500	-0.383808	-0.640213
C23	C	1.073637	-0.424121	-0.707277
C24	C	0.963916	-0.424129	-0.707290
C25	C	0.909055	-0.383818	-0.640233
C26	C	0.963918	-0.343506	-0.573169
C27	C	1.073642	-0.343504	-0.573161
C28	C	0.963922	-0.262888	-0.439053
C29	C	1.073644	-0.262883	-0.439034
C30	C	0.909061	-0.222578	-0.371997
C31	C	0.963924	-0.182267	-0.304926
C32	C	1.073652	-0.182262	-0.304915
C33	C	1.128507	-0.222570	-0.371969
C34	C	1.585385	-0.569572	-0.438920
C35	C	1.585434	-0.635314	-0.438944
C36	C	1.518228	-0.668191	-0.506079
C37	C	1.450987	-0.635320	-0.573215
C38	C	1.450947	-0.569579	-0.573197
N39	N	1.426321	-0.771458	-0.514083
N40	N	1.426362	-0.833909	-0.514094
C41	C	1.518346	-0.866266	-0.506139
N42	N	1.610289	-0.833812	-0.498153
N43	N	1.610247	-0.771355	-0.498137
C44	C	1.518264	-0.739477	-0.506107
C45	C	1.585641	-0.970414	-0.439039
C46	C	1.585692	-1.036158	-0.439070
C47	C	1.451236	-1.036163	-0.573336
C48	C	1.451194	-0.970421	-0.573310
C49	C	1.518395	-0.937550	-0.506156
C50	C	1.792282	-0.303197	-0.506110
C51	C	1.909059	-0.303201	-0.506118
C52	C	1.518328	-0.303127	-0.780125
C53	C	1.518362	-0.303101	-0.896901
C54	C	1.518416	-0.138999	-0.506172
C55	C	1.518487	-0.069031	-0.506207
C56	C	1.652833	-0.222595	-0.896970
C57	C	1.720083	-0.182333	-0.951865
C58	C	1.720108	-0.182310	-1.061587
C59	C	1.652874	-0.222552	-1.116416
C60	C	1.585624	-0.262815	-1.061521
C61	C	1.585608	-0.262835	-0.951797
C62	C	1.451150	-0.343316	-1.061452
C63	C	1.451128	-0.343344	-0.951730
C64	C	1.383916	-0.383559	-1.116281
C65	C	1.316670	-0.423825	-1.061386
C66	C	1.316648	-0.423847	-0.951657
C67	C	1.383878	-0.383606	-0.896835
C68	C	1.518230	-0.303205	-0.233123
C69	C	1.518400	-0.303054	-0.116347
H70	H	1.217841	-0.383811	-0.640201
H71	H	1.640364	-0.943650	-0.384361
Cl72	Cl	1.804635	-0.131684	-1.130602
H73	H	1.396520	-1.062931	-0.628003
H74	H	1.640107	-0.542810	-0.384242
H75	H	1.396269	-0.662093	-0.627879
Cl76	Cl	0.894942	-0.474804	-0.791606
H77	H	1.396194	-0.542822	-0.627858
H78	H	1.652892	-0.222525	-1.205757
Cl79	Cl	0.894952	-0.131593	-0.220644
Cl80	Cl	1.232152	-0.474407	-1.130318
H81	H	1.640190	-0.662076	-0.384284
H82	H	0.819713	-0.383822	-0.640259
H83	H	1.383938	-0.383535	-1.205622
Cl84	Cl	1.232094	-0.474463	-0.882655
Cl85	Cl	1.383861	-0.383633	-0.758898
H86	H	1.118315	-0.149430	-0.250310
Cl87	Cl	1.142610	-0.474799	-0.791565
H88	H	0.819720	-0.222584	-0.372017
H89	H	1.640451	-1.062914	-0.384412
Cl90	Cl	1.266443	-0.222569	-0.371957
Cl91	Cl	1.804576	-0.131730	-0.882933
Cl92	Cl	1.366658	-0.929105	-0.657693
H93	H	1.652829	-0.222616	-0.807629
