data_functionalizedCrystal
_audit_creation_method	'MofGen! by Chris Wilmer'
_symmetry_space_group_name_H-M	'P1'
_symmetry_Int_Tables_number	1
_symmetry_cell_setting	triclinic
loop_
_symmetry_equiv_pos_as_xyz
  x,y,z
_cell_length_a	16.120530
_cell_length_b	10.686285
_cell_length_c	10.685314
_cell_angle_alpha	89.696502
_cell_angle_beta	91.675659
_cell_angle_gamma	97.480717
loop_
_atom_site_label
_atom_site_type_symbol
_atom_site_fract_x
_atom_site_fract_y
_atom_site_fract_z
Zn1	Zn	1.269519	0.658092	-0.760424
Zn2	Zn	1.769519	1.158092	-0.260424
Zn3	Zn	1.290724	0.853577	-0.536090
Zn4	Zn	1.790724	1.353577	-0.036090
Zn5	Zn	1.139829	0.631421	-0.541541
Zn6	Zn	1.639829	1.131421	-0.041541
Zn7	Zn	1.141472	0.857274	-0.735302
Zn8	Zn	1.641472	1.357274	-0.235302
O9	O	1.210386	0.750091	-0.643339
O10	O	1.710386	1.250091	-0.143339
O11	O	1.389070	0.693638	-0.738897
O12	O	1.889070	1.193638	-0.238897
O13	O	1.278895	0.811398	-0.361839
O14	O	1.778895	1.311398	0.138161
O15	O	1.147471	0.458628	-0.583372
O16	O	1.647471	0.958628	-0.083372
O17	O	1.404649	0.837260	-0.574080
O18	O	1.904649	1.337260	-0.074080
O19	O	1.242753	0.478223	-0.744183
O20	O	1.742753	0.978223	-0.244183
O21	O	1.168033	0.648182	-0.365844
O22	O	1.668033	1.148182	0.134156
O23	O	1.023309	0.651767	-0.559012
O24	O	1.523309	1.151767	-0.059012
O25	O	1.150271	0.843561	-0.913608
O26	O	1.650271	1.343561	-0.413608
O27	O	1.024516	0.817700	-0.701367
O28	O	1.524516	1.317700	-0.201367
O29	O	1.244346	0.697223	-0.932065
O30	O	1.744346	1.197223	-0.432065
O31	O	1.280488	1.030399	-0.549721
O32	O	1.780488	1.530399	-0.049721
O33	O	1.170833	1.033115	-0.696081
O34	O	1.670833	1.533115	-0.196081
C35	C	0.993644	0.732241	-0.628056
C36	C	1.493644	1.232241	-0.128056
C37	C	0.900921	0.724637	-0.621545
C38	C	1.400921	1.224637	-0.121545
C39	C	1.228161	1.077481	-0.619612
C40	C	1.728161	1.577481	-0.119612
C41	C	1.235840	1.217549	-0.609509
C42	C	1.735840	1.717549	-0.109509
C43	C	1.195126	0.773780	-0.969474
C44	C	1.695126	1.273780	-0.469474
C45	C	1.188623	0.783874	-1.108453
C46	C	1.688623	1.283874	-0.608453
C47	C	0.731153	0.710726	-0.609670
C48	C	1.231153	1.210726	-0.109670
C49	C	0.690461	0.789556	-0.677093
C50	C	1.190461	1.289556	-0.177093
C51	C	0.595996	0.781815	-0.670486
C52	C	1.095996	1.281815	-0.170486
C53	C	0.825626	0.718465	-0.616276
C54	C	1.325626	1.218465	-0.116276
C55	C	1.427975	0.768012	-0.658683
C56	C	1.927975	1.268012	-0.158683
C57	C	1.520698	0.775649	-0.665222
C58	C	2.020698	1.275649	-0.165222
C59	C	1.192563	0.421426	-0.667188
C60	C	1.692563	0.921426	-0.167188
C61	C	1.184968	0.281369	-0.677351
C62	C	1.684968	0.781369	-0.177351
C63	C	1.225630	0.726408	-0.318483
C64	C	1.725630	1.226408	0.181517
C65	C	1.232275	0.715971	-0.179542
C66	C	1.732275	1.215971	0.320458
H67	H	0.726568	0.862856	-0.739778
H68	H	1.226568	1.362856	-0.239778
H69	H	1.285265	1.270072	-0.543682
H70	H	1.785265	1.770072	-0.043682
H71	H	1.146272	0.849734	-1.153919
H72	H	1.646272	1.349734	-0.653919
H73	H	1.274613	0.650101	-1.134082
H74	H	1.774613	1.150101	-0.634082
H75	H	0.695047	0.637431	-0.546991
H76	H	1.195047	1.137431	-0.046991
C77	C	1.118200	1.210432	-0.766271
C78	C	1.618200	1.710432	-0.266271
H79	H	1.121632	1.122440	-0.761638
H80	H	1.621632	1.622440	-0.261638
H81	H	1.064187	1.226071	-0.742417
H82	H	1.564187	1.726071	-0.242417
H83	H	1.127603	1.239003	-0.849628
H84	H	1.627603	1.739003	-0.349628
