data_functionalizedCrystal
_audit_creation_method	'MofGen! by Chris Wilmer'
_symmetry_space_group_name_H-M	'P1'
_symmetry_Int_Tables_number	1
_symmetry_cell_setting	triclinic
loop_
_symmetry_equiv_pos_as_xyz
  x,y,z
_cell_length_a	16.109301
_cell_length_b	14.472310
_cell_length_c	15.995350
_cell_angle_alpha	89.998838
_cell_angle_beta	83.476928
_cell_angle_gamma	90.010306
loop_
_atom_site_label
_atom_site_type_symbol
_atom_site_fract_x
_atom_site_fract_y
_atom_site_fract_z
O1	O	1.103172	0.076778	0.107619
O2	O	0.861113	0.076792	0.121013
O3	O	0.988759	0.076784	-0.007573
O4	O	0.975526	0.076786	0.236206
O5	O	0.988727	-0.076898	-0.007566
O6	O	0.861081	-0.076890	0.121021
O7	O	1.103139	-0.076904	0.107627
Cu8	Cu	0.982107	-0.090929	0.114324
Cu9	Cu	0.982146	0.090817	0.114316
O10	O	0.975493	-0.076896	0.236213
C11	C	0.830122	-0.000047	0.120474
C12	C	0.737826	-0.000042	0.118848
N13	N	0.982085	-0.218760	0.114330
C14	C	0.515573	-0.000052	0.191366
C15	C	0.428853	-0.000058	0.189831
C16	C	0.448686	-0.000055	0.037268
C17	C	0.535405	-0.000056	0.038804
C18	C	0.568846	-0.000049	0.115855
C19	C	0.395406	-0.000055	0.112785
C20	C	0.301380	-0.000061	0.111120
C21	C	0.662879	-0.000045	0.117520
C22	C	0.982144	-0.592852	0.114312
C23	C	0.913615	-0.553681	0.182885
C24	C	0.913773	-0.446593	0.183135
C25	C	0.982114	-0.407261	0.114321
C26	C	1.068864	-0.446103	0.133379
C27	C	1.068479	-0.553224	0.133867
C28	C	0.964699	-0.553380	0.026477
C29	C	0.962709	-0.446253	0.027064
C30	C	0.982103	-0.302372	0.114324
C31	C	0.982162	-0.697740	0.114311
C32	C	1.134130	-0.000063	0.108166
C33	C	1.226426	-0.000062	0.109792
C34	C	0.988196	-0.000056	-0.038764
C35	C	0.986556	-0.000050	-0.131714
N36	N	0.982173	0.218648	0.114303
C37	C	0.980665	-0.000053	-0.469460
C38	C	0.889758	0.000297	-0.422001
C39	C	0.891399	-0.000049	-0.325311
C40	C	0.983587	-0.000051	-0.301900
C41	C	1.028407	-0.087812	-0.342986
C42	C	1.026123	-0.087885	-0.439621
C43	C	1.028039	0.086880	-0.439988
C44	C	1.028017	0.088040	-0.343043
C45	C	0.985243	-0.000053	-0.207203
C46	C	0.979012	-0.000057	-0.564157
C47	C	0.976056	-0.000055	0.267404
C48	C	0.977697	-0.000054	0.360354
H49	H	0.542798	-0.000053	0.254106
H50	H	0.995248	0.152963	-0.315788
H51	H	1.095246	0.093337	-0.327699
H52	H	0.385481	-0.000061	0.251320
H53	H	1.095064	0.087468	-0.471767
H54	H	0.578782	-0.000057	-0.022690
H55	H	0.855902	-0.063063	-0.297434
H56	H	1.083852	-0.578200	0.197923
H57	H	0.421447	-0.000066	-0.025465
H58	H	0.849290	-0.420334	0.171784
H59	H	0.848923	-0.579465	0.171721
H60	H	0.924601	-0.580591	0.247700
H61	H	0.998331	0.153397	-0.460523
H62	H	0.924913	-0.420959	0.248317
H63	H	1.121067	-0.579133	0.085889
H64	H	1.121078	-0.420623	0.084761
H65	H	1.084604	-0.419266	0.196705
H66	H	0.902815	-0.580445	0.008146
H67	H	0.898896	-0.420867	0.012600
H68	H	1.014675	-0.578710	-0.024552
H69	H	1.009381	-0.419482	-0.026355
H70	H	0.856166	0.062861	-0.296883
H71	H	0.853437	0.063232	-0.440526
H72	H	0.853571	-0.062283	-0.441582
H73	H	0.993413	-0.153487	-0.457910
H74	H	1.092865	-0.091868	-0.471887
H75	H	1.096135	-0.091077	-0.328878
H76	H	0.997250	-0.153119	-0.314593
