data_functionalizedCrystal
_audit_creation_method	'MofGen! by Chris Wilmer'
_symmetry_space_group_name_H-M	'P1'
_symmetry_Int_Tables_number	1
_symmetry_cell_setting	triclinic
loop_
_symmetry_equiv_pos_as_xyz
  x,y,z
_cell_length_a	13.033293
_cell_length_b	25.639240
_cell_length_c	13.032328
_cell_angle_alpha	97.134257
_cell_angle_beta	89.079697
_cell_angle_gamma	97.200942
loop_
_atom_site_label
_atom_site_type_symbol
_atom_site_fract_x
_atom_site_fract_y
_atom_site_fract_z
Zn1	Zn	1.498380	-0.162657	-0.781403
Zn2	Zn	1.520089	-0.237795	-0.609397
Zn3	Zn	1.348243	-0.159898	-0.587581
Zn4	Zn	1.326328	-0.259589	-0.759426
O5	O	1.423260	-0.204985	-0.684452
O6	O	1.645182	-0.164658	-0.776914
O7	O	1.515550	-0.217186	-0.462601
O8	O	1.368246	-0.087098	-0.613360
O9	O	1.661132	-0.219862	-0.650542
O10	O	1.478551	-0.089125	-0.755760
O11	O	1.389295	-0.159956	-0.446573
O12	O	1.201414	-0.181089	-0.592050
O13	O	1.330895	-0.257007	-0.906245
O14	O	1.185313	-0.254331	-0.718303
O15	O	1.457301	-0.185791	-0.922391
O16	O	1.494300	-0.313852	-0.629232
O17	O	1.351945	-0.329865	-0.739457
C18	C	1.156046	-0.219776	-0.650425
C19	C	1.041727	-0.226118	-0.635893
C20	C	0.982857	-0.201688	-0.692037
C21	C	0.864702	-0.208242	-0.677018
C22	C	1.423125	-0.340830	-0.684353
C23	C	1.423157	-0.398942	-0.684357
C24	C	1.480714	-0.760328	-0.758723
C25	C	1.480741	-0.814933	-0.758747
O26	O	1.529516	-0.844043	-0.821871
N27	N	1.423390	-0.841223	-0.684570
C28	C	1.366000	-0.812908	-0.610369
O29	O	1.317220	-0.840284	-0.547278
C30	C	1.365967	-0.758305	-0.610349
C31	C	1.423330	-0.732017	-0.684526
C32	C	1.538071	-0.734040	-0.832893
C33	C	1.538045	-0.679439	-0.832867
C34	C	1.480661	-0.651127	-0.758670
C35	C	1.423303	-0.677416	-0.684499
C36	C	1.308571	-0.729992	-0.536154
C37	C	1.308542	-0.675386	-0.536141
C38	C	1.365905	-0.649097	-0.610318
C39	C	1.365893	-0.594504	-0.610276
N40	N	1.423244	-0.568213	-0.684454
C41	C	1.480628	-0.596525	-0.758651
C42	C	1.366072	-0.927577	-0.610416
C43	C	1.366110	-0.982178	-0.610430
C44	C	1.480850	-0.984199	-0.758810
C45	C	1.480817	-0.929596	-0.758791
C46	C	1.423423	-0.901286	-0.684594
C47	C	1.480569	-0.481860	-0.758590
C48	C	1.480541	-0.427254	-0.758554
C49	C	1.365797	-0.425238	-0.610178
C50	C	1.365829	-0.479839	-0.610209
C51	C	1.423217	-0.508149	-0.684424
O52	O	1.317140	-0.565360	-0.547187
O53	O	1.529389	-0.569143	-0.821740
C54	C	1.691518	-0.190137	-0.718613
C55	C	1.805833	-0.183809	-0.733170
C56	C	1.389232	-0.224138	-0.952673
C57	C	1.374731	-0.232300	-1.066973
C58	C	1.423421	-0.068610	-0.684578
C59	C	1.423490	-0.010495	-0.684631
C60	C	1.415836	-0.209140	-1.244058
C61	C	1.430818	-0.200701	-1.125922
C62	C	1.457216	-0.185865	-0.417282
C63	C	1.471916	-0.177545	-0.303008
H64	H	0.827635	-0.234010	-0.617826
O65	O	1.027038	-0.170868	-0.762536
C66	C	1.053764	-0.083744	-0.817026
C67	C	1.003700	-0.118584	-0.737096
H68	H	1.034896	-0.041467	-0.796499
H69	H	1.141190	-0.083888	-0.816560
H70	H	1.022207	-0.100098	-0.897246
H71	H	1.035175	-0.102255	-0.656838
H72	H	0.916277	-0.118439	-0.737654
H73	H	1.356730	-0.242437	-1.281047
O74	O	1.501348	-0.160933	-1.081972
C75	C	1.630554	-0.088187	-1.109758
C76	C	1.550702	-0.133193	-1.159664
H77	H	1.670495	-0.065753	-1.172550
H78	H	1.589745	-0.059858	-1.053520
H79	H	1.690594	-0.105657	-1.066251
H80	H	1.490641	-0.115770	-1.203224
H81	H	1.591584	-0.161515	-1.215845
O82	O	1.542441	-0.137780	-1.259054
C83	C	1.671647	-0.065034	-1.286839
C84	C	1.591795	-0.110040	-1.336745
H85	H	1.711588	-0.042600	-1.349632
H86	H	1.630838	-0.036705	-1.230602
H87	H	1.731687	-0.082504	-1.243333
H88	H	1.531735	-0.092617	-1.380306
H89	H	1.632677	-0.138362	-1.392926
O90	O	0.849910	-0.153107	-0.803914
C91	C	0.860882	-0.138557	-0.983122
C92	C	0.810870	-0.173363	-0.903113
H93	H	0.829354	-0.154926	-1.063346
H94	H	0.842087	-0.096263	-0.962652
H95	H	0.948297	-0.138733	-0.982603
H96	H	0.723446	-0.173230	-0.903590
H97	H	0.829747	-0.215639	-0.923612
O98	O	1.304300	-0.272021	-1.111257
C99	C	1.225091	-0.316621	-1.269371
C100	C	1.304897	-0.271623	-1.219356
H101	H	1.225531	-0.316307	-1.356774
H102	H	1.245761	-0.356300	-1.250638
H103	H	1.144836	-0.310545	-1.237708
H104	H	1.385180	-0.277649	-1.250991
H105	H	1.284138	-0.231960	-1.238084
O106	O	0.997340	-0.256859	-0.565360
C107	C	0.839117	-0.291378	-0.486008
C108	C	0.889245	-0.256557	-0.565940
H109	H	0.751717	-0.291136	-0.486435
H110	H	0.857799	-0.333687	-0.506554
H111	H	0.870746	-0.275057	-0.405799
H112	H	0.857645	-0.272830	-0.646178
H113	H	0.870569	-0.214252	-0.545305
O114	O	1.536283	-0.401804	-0.830717
C115	C	1.650139	-0.409576	-0.977855
C116	C	1.587044	-0.438463	-0.896207
H117	H	1.691213	-0.439200	-1.030812
H118	H	1.596088	-0.390488	-1.025633
H119	H	1.709888	-0.377641	-0.937510
H120	H	1.527291	-0.470421	-0.936468
H121	H	1.641159	-0.457514	-0.848434
H122	H	1.261860	-0.751387	-0.475751
O123	O	1.536388	-0.509397	-0.830544
C124	C	1.673558	-0.564245	-0.862220
C125	C	1.610401	-0.533093	-0.780628
H126	H	1.733426	-0.583403	-0.821896
H127	H	1.619560	-0.596299	-0.909949
H128	H	1.714491	-0.536061	-0.915234
H129	H	1.569461	-0.561236	-0.727546
H130	H	1.664449	-0.501033	-0.732975
O131	O	1.593782	-0.653993	-0.905028
C132	C	1.707637	-0.661775	-1.052165
C133	C	1.644540	-0.690656	-0.970511
H134	H	1.748709	-0.691403	-1.105116
H135	H	1.653588	-0.642690	-1.099950
H136	H	1.767387	-0.629839	-1.011827
H137	H	1.584786	-0.722615	-1.010765
H138	H	1.698654	-0.709705	-0.922732
O139	O	1.593730	-0.761620	-0.904927
C140	C	1.644720	-0.846619	-0.970698
C141	C	1.581609	-0.815457	-0.889077
H142	H	1.634961	-0.890150	-0.957899
H143	H	1.616068	-0.842830	-1.051313
H144	H	1.729924	-0.829933	-0.963264
H145	H	1.496393	-0.832121	-0.896416
H146	H	1.610348	-0.819245	-0.808496
O147	O	1.536495	-1.011791	-0.830848
C148	C	1.587420	-1.096808	-0.896594
C149	C	1.524343	-1.065625	-0.814974
H150	H	1.577635	-1.140336	-0.883774
H151	H	1.558760	-1.093023	-0.977208
H152	H	1.672632	-1.080136	-0.889179
H153	H	1.439119	-1.082275	-0.822293
H154	H	1.553089	-1.069408	-0.734393
O155	O	1.310303	-1.007633	-0.538323
C156	C	1.196543	-0.999844	-0.391112
C157	C	1.259687	-0.970955	-0.472726
H158	H	1.155621	-0.970202	-0.338042
H159	H	1.136689	-1.031752	-0.431375
H160	H	1.250643	-1.018965	-0.343452
H161	H	1.205668	-0.951803	-0.520411
H162	H	1.319553	-0.939076	-0.432399
O163	O	1.310475	-0.900008	-0.538294
C164	C	1.314337	-0.829279	-0.397617
C165	C	1.377421	-0.860445	-0.479258
H166	H	1.368439	-0.797292	-0.349850
H167	H	1.254539	-0.810036	-0.437858
H168	H	1.273330	-0.857468	-0.344654
H169	H	1.418494	-0.832291	-0.532245
H170	H	1.437159	-0.879696	-0.438949
O171	O	1.252765	-0.647962	-0.463964
C172	C	1.138894	-0.651733	-0.316847
C173	C	1.202033	-0.682850	-0.398512
H174	H	1.097843	-0.679928	-0.263922
H175	H	1.192911	-0.619721	-0.269039
H176	H	1.079124	-0.632513	-0.357179
H177	H	1.261807	-0.702103	-0.358266
H178	H	1.147952	-0.714833	-0.446315
H179	H	1.527526	-0.908195	-0.819192
H180	H	1.319128	-0.501243	-0.549802
H181	H	1.319079	-0.402178	-0.549765
