data_functionalizedCrystal
_audit_creation_method	'MofGen! by Chris Wilmer'
_symmetry_space_group_name_H-M	'P1'
_symmetry_Int_Tables_number	1
_symmetry_cell_setting	triclinic
loop_
_symmetry_equiv_pos_as_xyz
  x,y,z
_cell_length_a	6.817900
_cell_length_b	16.417825
_cell_length_c	9.514088
_cell_angle_alpha	91.373231
_cell_angle_beta	118.843545
_cell_angle_gamma	103.385495
loop_
_atom_site_label
_atom_site_type_symbol
_atom_site_fract_x
_atom_site_fract_y
_atom_site_fract_z
V1	V	-4.217210	-0.117372	-0.501313
O2	O	-4.201371	0.004112	-0.491191
O3	O	-4.167162	-0.231259	-0.498441
O4	O	-4.251991	-0.116237	-0.719699
O5	O	-4.115956	-0.111706	-0.268402
V6	V	-4.690274	-0.102762	-0.473387
O7	O	-4.501413	-0.149420	-0.562570
O8	O	-4.856268	-0.070713	-0.412130
O9	O	-4.517115	0.011126	-0.476259
O10	O	-4.823510	-0.224246	-0.483509
O11	O	-4.908925	-0.108427	-0.706299
O12	O	-4.432287	-0.103897	-0.255001
C13	C	-4.009071	-0.259002	-0.490677
C14	C	-4.049992	-0.352110	-0.489784
C15	C	-4.047966	-0.553932	-0.340629
C16	C	-4.086443	-0.641419	-0.339804
C17	C	-4.278905	-0.666202	-0.634089
C18	C	-4.240442	-0.578717	-0.634913
C19	C	-4.124960	-0.522583	-0.488178
C20	C	-4.201900	-0.697556	-0.486528
C21	C	-4.243619	-0.792413	-0.485634
C22	C	-4.083242	-0.427720	-0.489072
C23	C	-4.117276	-0.112278	-0.772910
C24	C	-4.226986	-0.112104	-0.951446
C25	C	-4.338547	0.038863	-0.484019
C26	C	-4.276868	0.131971	-0.484922
C27	C	-4.230340	-0.107858	-0.201781
C28	C	-4.099869	-0.108028	-0.023245
H29	H	-3.953934	-0.508230	-0.221148
Br30	Br	-4.344963	-0.536168	-0.835174
H31	H	-4.419762	-0.115461	-1.026569
Br32	Br	-4.435620	-0.742387	-0.833219
Br33	Br	-3.981963	-0.683960	-0.139551
Br34	Br	-3.778588	-0.102451	-0.898059
