data_functionalizedCrystal
_audit_creation_method	'MofGen! by Chris Wilmer'
_symmetry_space_group_name_H-M	'P1'
_symmetry_Int_Tables_number	1
_symmetry_cell_setting	triclinic
loop_
_symmetry_equiv_pos_as_xyz
  x,y,z
_cell_length_a	18.215407
_cell_length_b	12.645330
_cell_length_c	18.215407
_cell_angle_alpha	90.007295
_cell_angle_beta	90.010236
_cell_angle_gamma	90.018140
loop_
_atom_site_label
_atom_site_type_symbol
_atom_site_fract_x
_atom_site_fract_y
_atom_site_fract_z
Zn1	Zn	1.125039	-0.422202	0.416141
Zn2	Zn	1.625039	0.077798	0.916141
Zn3	Zn	1.124983	-0.599436	0.293085
Zn4	Zn	1.624983	-0.099436	0.793085
Zn5	Zn	1.001992	-0.422188	0.293088
Zn6	Zn	1.501992	0.077812	0.793088
Zn7	Zn	1.001953	-0.599425	0.416110
Zn8	Zn	1.501953	-0.099425	0.916110
O9	O	1.063492	-0.510813	0.354606
O10	O	1.563492	-0.010813	0.854606
O11	O	1.228016	-0.445723	0.399829
O12	O	1.728016	0.054277	0.899829
O13	O	1.108662	-0.575922	0.190101
O14	O	1.608662	-0.075922	0.690101
O15	O	1.018354	-0.273843	0.309426
O16	O	1.518354	0.226157	0.809426
O17	O	1.227975	-0.575936	0.309420
O18	O	1.727975	-0.075936	0.809420
O19	O	1.108756	-0.273853	0.399832
O20	O	1.608756	0.226147	0.899832
O21	O	1.018300	-0.445699	0.190104
O22	O	1.518300	0.054301	0.690104
O23	O	0.899003	-0.445689	0.309396
O24	O	1.399003	0.054311	0.809396
O25	O	1.018287	-0.575918	0.519098
O26	O	1.518287	-0.075918	1.019098
O27	O	0.898974	-0.575904	0.399779
O28	O	1.398974	-0.075904	0.899779
O29	O	1.108718	-0.445713	0.519121
O30	O	1.608718	0.054287	1.019121
O31	O	1.108624	-0.747782	0.309390
O32	O	1.608624	-0.247782	0.809390
O33	O	1.018233	-0.747774	0.399776
O34	O	1.518233	-0.247774	0.899776
C35	C	0.872286	-0.510795	0.354585
C36	C	1.372286	-0.010795	0.854585
C37	C	0.790487	-0.510813	0.354593
C38	C	1.290487	-0.010813	0.854593
C39	C	0.602297	-0.578722	0.401597
C40	C	1.102297	-0.078722	0.901597
C41	C	0.525438	-0.578726	0.401606
C42	C	1.025438	-0.078726	0.901606
C43	C	0.525439	-0.442923	0.307631
C44	C	1.025439	0.057077	0.807631
C45	C	0.602296	-0.442915	0.307626
C46	C	1.102296	0.057085	0.807626
C47	C	0.640723	-0.510821	0.354608
C48	C	1.140723	-0.010821	0.854608
C49	C	0.487007	-0.510832	0.354622
C50	C	0.987007	-0.010832	0.854622
C51	C	0.403674	-0.510835	0.354632
C52	C	0.903674	-0.010835	0.854632
C53	C	0.724062	-0.510816	0.354600
C54	C	1.224062	-0.010816	0.854600
C55	C	1.063438	-0.786243	0.354596
C56	C	1.563438	-0.286243	0.854596
C57	C	1.063483	-0.904073	0.354616
C58	C	1.563483	-0.404073	0.854616
C59	C	1.006853	-1.071676	0.411653
C60	C	1.506853	-0.571676	0.911653
C61	C	1.006563	-0.949117	0.411470
C62	C	1.506563	-0.449117	0.911470
C63	C	1.042503	-0.948633	0.277057
C64	C	1.542503	-0.448633	0.777057
C65	C	1.042157	-1.071231	0.277404
C66	C	1.542157	-0.571231	0.777404
C67	C	1.141439	-1.071170	0.374508
C68	C	1.641439	-0.571170	0.874508
C69	C	1.140961	-0.948564	0.376204
C70	C	1.640961	-0.448564	0.876204
C71	C	1.255445	-0.510832	0.354628
C72	C	1.755445	-0.010832	0.854628
C73	C	1.337244	-0.510840	0.354637
C74	C	1.837244	-0.010840	0.854637
C75	C	1.063505	-0.510816	0.546559
C76	C	1.563505	-0.010816	1.046559
C77	C	1.063510	-0.510817	0.628358
C78	C	1.563510	-0.010817	1.128358
C79	C	1.063566	-0.234308	0.354632
C80	C	1.563566	0.265692	0.854632
C81	C	1.063597	-0.116478	0.354644
C82	C	1.563597	0.383522	0.854644
C83	C	1.110583	-0.443030	0.816565
C84	C	1.610583	0.056970	1.316565
C85	C	1.110579	-0.443030	0.893423
C86	C	1.610579	0.056970	1.393423
C87	C	1.016413	-0.578619	0.893389
C88	C	1.516413	-0.078619	1.393389
C89	C	1.016414	-0.578613	0.816531
C90	C	1.516414	-0.078613	1.316531
C91	C	1.063503	-0.510821	0.778121
C92	C	1.563503	-0.010821	1.278121
C93	C	1.063498	-0.510826	0.931837
C94	C	1.563498	-0.010826	1.431837
C95	C	1.063493	-0.510826	1.015171
C96	C	1.563493	-0.010826	1.515171
C97	C	1.063507	-0.510819	0.694782
C98	C	1.563507	-0.010819	1.194782
C99	C	1.063480	-0.510833	1.163400
C100	C	1.563480	-0.010833	1.663400
C101	C	1.063491	-0.510829	1.081601
C102	C	1.563491	-0.010829	1.581601
H103	H	1.019687	-0.918988	0.468979
H104	H	1.519687	-0.418988	0.968979
Br105	Br	1.174487	-0.351024	0.764439
Br106	Br	1.674487	0.148976	1.264439
Br107	Br	1.174480	-0.351032	0.945594
Br108	Br	1.674480	0.148968	1.445594
H109	H	0.978071	-0.633816	0.785230
H110	H	1.478071	-0.133816	1.285230
H111	H	0.978077	-0.633816	0.924671
H112	H	1.478077	-0.133816	1.424671
Br113	Br	0.473291	-0.670877	0.465383
Br114	Br	0.973291	-0.170877	0.965383
H115	H	0.633584	-0.387615	0.269362
H116	H	1.133584	0.112385	0.769362
Br117	Br	0.654446	-0.670877	0.465359
Br118	Br	1.154446	-0.170877	0.965359
H119	H	1.019856	-1.101113	0.469351
H120	H	1.519856	-0.601113	0.969351
H121	H	0.494142	-0.387638	0.269379
H122	H	0.994142	0.112362	0.769379
H123	H	0.986194	-0.918015	0.259925
H124	H	1.486194	-0.418015	0.759925
Br125	Br	1.211906	-1.119474	0.305315
Br126	Br	1.711906	-0.619474	0.805315
Br127	Br	1.167335	-0.900024	0.471341
Br128	Br	1.667335	-0.400024	0.971341
Br129	Br	0.911271	-1.123198	0.390019
Br130	Br	1.411271	-0.623198	0.890019
H131	H	0.985255	-1.099916	0.260576
H132	H	1.485255	-0.599916	0.760576
Br133	Br	1.108047	-1.120636	0.204189
Br134	Br	1.608047	-0.620636	0.704189
Br135	Br	0.910377	-0.900371	0.389540
Br136	Br	1.410377	-0.400371	0.889540
H137	H	1.082523	-0.919455	0.233420
H138	H	1.582523	-0.419455	0.733420
H139	H	1.185464	-0.917896	0.337706
H140	H	1.685464	-0.417896	0.837706
Br141	Br	1.173344	-1.122618	0.467169
Br142	Br	1.673344	-0.622618	0.967169
