data_functionalizedCrystal
_audit_creation_method	'MofGen! by Chris Wilmer'
_symmetry_space_group_name_H-M	'P1'
_symmetry_Int_Tables_number	1
_symmetry_cell_setting	triclinic
loop_
_symmetry_equiv_pos_as_xyz
  x,y,z
_cell_length_a	10.685976
_cell_length_b	13.032721
_cell_length_c	13.034356
_cell_angle_alpha	90.866507
_cell_angle_beta	86.618628
_cell_angle_gamma	92.306968
loop_
_atom_site_label
_atom_site_type_symbol
_atom_site_fract_x
_atom_site_fract_y
_atom_site_fract_z
Zn1	Zn	1.937575	-0.471856	-0.527429
Zn2	Zn	2.437575	0.028144	-0.027429
Zn3	Zn	1.885660	-0.662053	-0.380130
Zn4	Zn	2.385660	-0.162053	0.119870
Zn5	Zn	1.701359	-0.477127	-0.368402
Zn6	Zn	2.201359	0.022873	0.131598
Zn7	Zn	1.707913	-0.627631	-0.561777
Zn8	Zn	2.207913	-0.127631	-0.061777
O9	O	1.808127	-0.559667	-0.459434
O10	O	2.308127	-0.059667	0.040566
O11	O	2.103933	-0.509285	-0.498423
O12	O	2.603933	-0.009285	0.001577
O13	O	1.836742	-0.654134	-0.236001
O14	O	2.336742	-0.154134	0.263999
O15	O	1.751678	-0.333844	-0.370215
O16	O	2.251678	0.166156	0.129785
O17	O	2.065791	-0.649022	-0.390202
O18	O	2.565791	-0.149022	0.109798
O19	O	1.925224	-0.329971	-0.487051
O20	O	2.425224	0.170029	0.012949
O21	O	1.701338	-0.518270	-0.227385
O22	O	2.201338	-0.018270	0.272615
O23	O	1.528984	-0.484893	-0.403521
O24	O	2.028984	0.015107	0.096479
O25	O	1.762848	-0.590355	-0.699794
O26	O	2.262848	-0.090355	-0.199794
O27	O	1.533800	-0.595467	-0.545592
O28	O	2.033800	-0.095467	-0.045592
O29	O	1.931580	-0.475908	-0.674559
O30	O	2.431580	0.024092	-0.174559
O31	O	1.843097	-0.800071	-0.423508
O32	O	2.343097	-0.300071	0.076492
O33	O	1.712508	-0.774781	-0.556963
O34	O	2.212508	-0.274781	-0.056963
C35	C	1.486472	-0.537018	-0.477012
C36	C	1.986472	-0.037018	0.022988
C37	C	1.348867	-0.527350	-0.484559
C38	C	1.848867	-0.027350	0.015441
C39	C	1.772918	-0.824396	-0.495256
C40	C	2.272918	-0.324396	0.004744
C41	C	1.757974	-0.937653	-0.510608
C42	C	2.257974	-0.437653	-0.010608
C43	C	1.816000	-1.000624	-0.451464
C44	C	2.316000	-0.500624	0.048536
C45	C	1.800556	-1.117681	-0.467330
C46	C	2.300556	-0.617681	0.032670
C47	C	2.131038	-0.582405	-0.441789
C48	C	2.631038	-0.082405	0.058211
C49	C	2.268644	-0.592095	-0.434270
C50	C	2.768644	-0.092095	0.065730
C51	C	1.853736	-0.528704	-0.725178
C52	C	2.353736	-0.028704	-0.225178
C53	C	1.873172	-0.515509	-0.838421
C54	C	2.373172	-0.015509	-0.338421
C55	C	1.843511	-0.293903	-0.423494
C56	C	2.343511	0.206097	0.076506
C57	C	1.858590	-0.180650	-0.408178
C58	C	2.358590	0.319350	0.091822
C59	C	1.818435	-0.552622	-1.018440
C60	C	2.318435	-0.052622	-0.518440
C61	C	1.798344	-0.566259	-0.901397
C62	C	2.298344	-0.066259	-0.401397
C63	C	1.762776	-0.590441	-0.194711
C64	C	2.262776	-0.090441	0.305289
C65	C	1.743618	-0.603365	-0.081416
C66	C	2.243618	-0.103365	0.418584
H67	H	1.312279	-0.464524	-0.533394
H68	H	1.812279	0.035476	-0.033394
H69	H	1.952108	-0.461969	-0.871149
H70	H	2.452108	0.038031	-0.371149
C71	C	1.925066	-0.480295	-1.062645
C72	C	2.425066	0.019705	-0.562645
H73	H	1.969407	-0.450234	-1.007957
H74	H	2.469407	0.049766	-0.507957
H75	H	1.890700	-0.427764	-1.100754
H76	H	2.390700	0.072236	-0.600754
H77	H	1.980897	-0.518278	-1.106484
H78	H	2.480897	-0.018278	-0.606484
C79	C	1.941155	-1.136432	-0.323900
C80	C	2.441155	-0.636432	0.176100
H81	H	1.975563	-1.191120	-0.288857
H82	H	2.475563	-0.691120	0.211143
H83	H	1.891653	-1.096801	-0.276481
H84	H	2.391653	-0.596801	0.223519
H85	H	2.007207	-1.094105	-0.354377
H86	H	2.507207	-0.594105	0.145623
H87	H	1.305238	-0.654932	-0.385442
H88	H	1.805238	-0.154932	0.114558
H89	H	1.877116	-0.967877	-0.389086
H90	H	2.377116	-0.467877	0.110914
H91	H	1.739447	-1.150425	-0.529720
H92	H	2.239447	-0.650425	-0.029720
H93	H	1.696869	-0.970402	-0.572993
H94	H	2.196869	-0.470402	-0.072993
H95	H	1.719415	-0.619806	-0.868668
H96	H	2.219415	-0.119806	-0.368668
C97	C	1.636990	-0.675691	-1.037206
C98	C	2.136990	-0.175691	-0.537206
H99	H	1.637469	-0.675363	-0.964338
H100	H	2.137469	-0.175363	-0.464338
H101	H	1.648952	-0.743416	-1.062866
H102	H	2.148952	-0.243416	-0.562866
H103	H	1.558755	-0.652900	-1.057127
H104	H	2.058755	-0.152900	-0.557127
