data_functionalizedCrystal
_audit_creation_method	'MofGen! by Chris Wilmer'
_symmetry_space_group_name_H-M	'P1'
_symmetry_Int_Tables_number	1
_symmetry_cell_setting	triclinic
loop_
_symmetry_equiv_pos_as_xyz
  x,y,z
_cell_length_a	33.592126
_cell_length_b	33.591377
_cell_length_c	33.588093
_cell_angle_alpha	60.004089
_cell_angle_beta	60.008299
_cell_angle_gamma	59.994549
loop_
_atom_site_label
_atom_site_type_symbol
_atom_site_fract_x
_atom_site_fract_y
_atom_site_fract_z
O1	O	0.055297	-0.581666	0.486338
O2	O	0.020882	-0.452873	0.391864
O3	O	0.102445	-0.534352	0.391775
O4	O	-0.026266	-0.500187	0.486427
O5	O	0.129510	-0.507292	0.418747
O6	O	0.047947	-0.425814	0.418835
O7	O	0.082362	-0.554606	0.513309
Cu8	Cu	0.067626	-0.487739	0.468535
Cu9	Cu	0.035618	-0.519740	0.436638
O10	O	0.000799	-0.473128	0.513398
N11	N	0.090139	-0.465235	0.490972
N12	N	0.013110	-0.542249	0.414202
C13	C	0.124394	-0.431229	0.734914
C14	C	0.334265	-0.431145	0.524799
C15	C	0.124204	-0.431200	0.524965
C16	C	0.124184	-0.221175	0.524955
C17	C	0.158017	-0.322536	0.558710
C18	C	0.158027	-0.397406	0.558711
C19	C	0.176763	-0.378688	0.577408
C20	C	0.258412	-0.364594	0.534386
C21	C	0.309454	-0.381596	0.517340
C22	C	0.309485	-0.464188	0.548836
C23	C	0.258444	-0.447186	0.565883
C24	C	0.170304	-0.297002	0.508532
C25	C	0.153260	-0.245956	0.491537
C26	C	0.111648	-0.245983	0.574901
C27	C	0.128691	-0.297029	0.591896
C28	C	0.107841	-0.385091	0.571080
C29	C	0.090813	-0.402108	0.554078
C30	C	0.174153	-0.443755	0.512351
C31	C	0.191183	-0.426739	0.529347
C32	C	0.107923	-0.385106	0.659111
C33	C	0.090955	-0.402138	0.710156
C34	C	0.174335	-0.443795	0.710087
C35	C	0.191302	-0.426764	0.659041
C36	C	0.158095	-0.397418	0.633555
C37	C	0.232909	-0.397388	0.558656
C38	C	0.105069	-0.449619	0.791057
C39	C	0.390406	-0.449193	0.505789
C40	C	0.104813	-0.449599	0.506607
C41	C	0.105125	-0.165028	0.506915
C42	C	-0.020560	-0.576246	0.169890
C43	C	-0.020889	-0.786183	0.379970
C44	C	-0.020859	-0.576235	0.380063
C45	C	-0.230772	-0.576015	0.379658
C46	C	-0.129417	-0.609898	0.346025
C47	C	-0.054587	-0.609979	0.346172
C48	C	-0.073269	-0.628671	0.327396
C49	C	-0.087401	-0.710299	0.370335
C50	C	-0.070424	-0.761345	0.387369
C51	C	0.012165	-0.761428	0.356003
C52	C	-0.004813	-0.710383	0.338967
C53	C	-0.155001	-0.622196	0.396191
C54	C	-0.206043	-0.605128	0.413125
C55	C	-0.205914	-0.563467	0.329724
C56	C	-0.154872	-0.580535	0.312790
C57	C	-0.066886	-0.559797	0.333828
C58	C	-0.049903	-0.542809	0.350903
C59	C	-0.008321	-0.626180	0.392654
C60	C	-0.025304	-0.643170	0.375585
C61	C	-0.066758	-0.559805	0.245702
C62	C	-0.049671	-0.542819	0.194658
C63	C	-0.008026	-0.626194	0.194706
C64	C	-0.025111	-0.643179	0.245752
C65	C	-0.054479	-0.609983	0.271248
C66	C	-0.054597	-0.684821	0.346135
C67	C	-0.002109	-0.556901	0.113746
C68	C	-0.002869	-0.842328	0.398966
C69	C	-0.002496	-0.556887	0.398501
C70	C	-0.286914	-0.556929	0.397631
N71	N	0.436349	-0.465146	0.490703
O72	O	0.592194	-0.469605	0.374236
O73	O	0.592389	-0.564393	0.502890
O74	O	0.592305	-0.564176	0.421300
O75	O	0.592277	-0.469822	0.455826
O76	O	0.511216	-0.537214	0.448415
O77	O	0.511300	-0.537431	0.530004
O78	O	0.511104	-0.442643	0.401350
Cu79	Cu	0.503798	-0.487575	0.468153
Cu80	Cu	0.599695	-0.519461	0.436087
O81	O	0.511188	-0.442860	0.482940
N82	N	0.667145	-0.541890	0.413532
N83	N	0.090108	-0.119085	0.490958
O84	O	-0.026275	0.036848	0.486394
O85	O	0.102381	0.036888	0.391584
O86	O	0.020751	0.036852	0.391854
O87	O	0.055356	0.036884	0.486124
O88	O	0.047821	-0.044242	0.418876
O89	O	0.129452	-0.044207	0.418606
O90	O	0.000796	-0.044246	0.513417
Cu91	Cu	0.067596	-0.051631	0.468479
Cu92	Cu	0.035582	0.044273	0.436522
O93	O	0.082426	-0.044211	0.513146
N94	N	0.013063	0.111726	0.414043
N95	N	0.090453	-0.465282	0.837001
O96	O	0.085913	-0.581648	0.992925
O97	O	-0.008857	-0.452947	0.992970
O98	O	-0.008635	-0.534562	0.992946
O99	O	0.085691	-0.500033	0.992949
O100	O	0.018365	-0.507512	0.911855
O101	O	0.018143	-0.425898	0.911878
O102	O	0.112912	-0.554598	0.911834
Cu103	Cu	0.067993	-0.487778	0.904452
Cu104	Cu	0.036063	-0.519767	1.000352
O105	O	0.112691	-0.472984	0.911857
N106	N	0.013602	-0.542269	1.067803
C107	C	0.031188	-0.423114	0.392334
C108	C	0.132194	-0.524016	0.392223
C109	C	0.072056	-0.584366	0.512840
C110	C	-0.028950	-0.483464	0.512950
C111	C	0.551868	-0.563965	0.532655
C112	C	0.551766	-0.563697	0.431617
C113	C	0.551623	-0.443070	0.371586
C114	C	0.551728	-0.443339	0.472623
C115	C	0.132090	-0.003555	0.392006
C116	C	0.031035	-0.003698	0.392374
C117	C	-0.028947	-0.003703	0.512961
C118	C	0.072143	-0.003661	0.512626
C119	C	-0.008408	-0.423209	0.952430
C120	C	-0.008128	-0.524272	0.952385
C121	C	0.112464	-0.584336	0.952374
C122	C	0.112190	-0.483267	0.952401
H123	H	0.080878	-0.361206	0.638363
N124	N	-0.077918	-0.473826	0.552319
H125	H	-0.084241	-0.445565	0.560441
H126	H	-0.077986	-0.503851	0.582424
H127	H	0.551779	-0.593338	0.424228
N128	N	-0.047819	-0.374248	0.952443
H129	H	-0.055980	-0.367908	0.982508
H130	H	-0.077895	-0.374210	0.952427
H131	H	0.551560	-0.413310	0.334638
N132	N	-0.047368	-0.534038	0.952342
H133	H	-0.034714	-0.568358	0.952321
H134	H	-0.056798	-0.510091	0.922275
N135	N	0.551719	-0.404076	0.482402
H136	H	0.551764	-0.416728	0.516712
H137	H	0.521632	-0.374613	0.478547
H138	H	0.023621	-0.003702	0.362756
N139	N	-0.077885	-0.003721	0.552391
H140	H	-0.099697	-0.003733	0.539911
H141	H	-0.093368	0.026343	0.561808
N142	N	0.151873	-0.633299	0.952364
H143	H	0.181337	-0.628780	0.922302
H144	H	0.139328	-0.655069	0.952378
N145	N	0.181158	-0.533650	0.352848
H146	H	0.187478	-0.561910	0.344726
H147	H	0.207515	-0.541826	0.364749
N148	N	0.081796	-0.633371	0.552146
H149	H	0.090007	-0.659734	0.540234
H150	H	0.051820	-0.633495	0.582297
H151	H	0.141823	-0.475877	0.952395
N152	N	0.081960	-0.003642	0.551852
H153	H	0.110252	-0.033693	0.559917
H154	H	0.052000	-0.003629	0.582018
N155	N	0.036838	-0.388853	0.737716
H156	H	0.018379	-0.367677	0.713822
H157	H	0.027981	-0.370464	0.758894
N158	N	0.030567	-0.682896	0.312867
H159	H	0.055456	-0.691803	0.282722
H160	H	0.047657	-0.691802	0.335264
N161	N	0.180930	-0.003243	0.352479
H162	H	0.202719	-0.003164	0.364937
H163	H	0.176174	0.026886	0.323122
N164	N	0.551935	-0.603384	0.581599
H165	H	0.551948	-0.590881	0.603392
H166	H	0.582014	-0.632825	0.577008
H167	H	0.201378	-0.467681	0.730833
H168	H	0.330218	-0.354891	0.497577
H169	H	0.232159	-0.436796	0.638236
H170	H	0.080840	-0.361208	0.594989
H171	H	0.201155	-0.467643	0.488446
N172	N	0.036685	-0.388830	0.567416
H173	H	0.018263	-0.367669	0.588600
H174	H	0.027835	-0.419538	0.585809
H175	H	0.237680	-0.473893	0.585645
N176	N	0.245310	-0.440007	0.516010
H177	H	0.260537	-0.427518	0.479392
H178	H	0.260559	-0.476624	0.528495
H179	H	0.330277	-0.504737	0.554712
H180	H	0.237625	-0.324046	0.528499
H181	H	0.194180	-0.317769	0.481510
H182	H	0.163263	-0.225165	0.450676
N183	N	0.021446	-0.374108	0.353029
H184	H	0.025306	-0.378581	0.323559
H185	H	0.045377	-0.358545	0.343596
N186	N	0.115443	-0.324577	0.646019
H187	H	0.078832	-0.315709	0.661302
H188	H	0.127962	-0.315684	0.661227
H189	H	0.087777	-0.225214	0.601924
H190	H	-0.090673	-0.532769	0.266460
N191	N	-0.062923	-0.488693	0.167114
H192	H	-0.099533	-0.473403	0.175941
H193	H	-0.047615	-0.483006	0.130918
N194	N	0.023638	-0.661998	0.167209
H195	H	0.028821	-0.696363	0.191140
H196	H	0.056169	-0.656796	0.146081
H197	H	-0.015108	-0.684041	0.266548
H198	H	-0.090726	-0.532768	0.309877
H199	H	0.015526	-0.653210	0.416597
N200	N	-0.063166	-0.488687	0.337602
H201	H	-0.099780	-0.473392	0.350021
H202	H	-0.050611	-0.473480	0.300988
N203	N	-0.012034	-0.697292	0.388879
H204	H	-0.042720	-0.706177	0.407238
H205	H	0.009110	-0.715712	0.410081
N206	N	0.065860	-0.789001	0.348279
H207	H	0.084840	-0.780143	0.312205
H208	H	0.071593	-0.825195	0.362771
N209	N	-0.105810	-0.788821	0.413464
H210	H	-0.130699	-0.779917	0.443610
H211	H	-0.087467	-0.825029	0.423134
N212	N	-0.141095	-0.682730	0.378067
H213	H	-0.159299	-0.706619	0.395983
H214	H	-0.146059	-0.661554	0.345429
H215	H	-0.226875	-0.615140	0.453976
N216	N	-0.127545	-0.653867	0.432034
H217	H	-0.151499	-0.659064	0.466385
H218	H	-0.106364	-0.637319	0.426834
H219	H	-0.226640	-0.539563	0.302661
H220	H	-0.134040	-0.570516	0.271939
