data_functionalizedCrystal
_audit_creation_method	'MofGen! by Chris Wilmer'
_symmetry_space_group_name_H-M	'P1'
_symmetry_Int_Tables_number	1
_symmetry_cell_setting	triclinic
loop_
_symmetry_equiv_pos_as_xyz
  x,y,z
_cell_length_a	13.635800
_cell_length_b	13.563541
_cell_length_c	17.982968
_cell_angle_alpha	69.847093
_cell_angle_beta	102.451960
_cell_angle_gamma	75.295376
loop_
_atom_site_label
_atom_site_type_symbol
_atom_site_fract_x
_atom_site_fract_y
_atom_site_fract_z
V1	V	2.023037	-0.154798	0.270091
O2	O	2.000774	0.006367	0.231688
O3	O	2.013961	-0.305908	0.300233
O4	O	1.996100	-0.152887	0.373292
O5	O	2.018758	-0.147713	0.158123
V6	V	2.263246	-0.135465	0.252813
O7	O	2.157072	-0.197206	0.307992
O8	O	2.354310	-0.093057	0.214911
O9	O	2.160720	0.015645	0.222670
O10	O	2.344209	-0.296630	0.291216
O11	O	2.326224	-0.142550	0.364780
O12	O	2.178581	-0.137376	0.149611
V13	V	2.523037	-0.154798	0.270091
O14	O	2.500774	0.006367	0.231688
O15	O	2.513961	-0.305908	0.300233
O16	O	2.496100	-0.152887	0.373292
O17	O	2.518758	-0.147713	0.158123
V18	V	2.763246	-0.135465	0.252813
O19	O	2.657072	-0.197206	0.307992
O20	O	2.854310	-0.093057	0.214911
O21	O	2.660720	0.015645	0.222670
O22	O	2.844209	-0.296630	0.291216
O23	O	2.826224	-0.142550	0.364780
O24	O	2.678581	-0.137376	0.149611
C25	C	1.940229	-0.342730	0.304227
C26	C	1.973433	-0.466268	0.329560
C27	C	1.986908	-0.749790	0.108271
C28	C	1.955704	-0.633720	0.084468
C29	C	1.960135	-0.591851	0.145739
C30	C	1.995773	-0.666064	0.230817
C31	C	2.026972	-0.782145	0.254623
C32	C	2.000199	-0.624206	0.292090
C33	C	2.035837	-0.698419	0.377169
C34	C	2.067033	-0.814488	0.400970
C35	C	2.062602	-0.856357	0.339699
C36	C	1.969000	-0.508125	0.268285
C37	C	2.009064	-0.540480	0.414636
C38	C	2.040268	-0.656550	0.438440
C39	C	1.917445	-0.147535	0.397420
C40	C	1.936162	-0.146973	0.481997
C41	C	2.066123	0.052462	0.218676
C42	C	2.022538	0.175998	0.193348
C43	C	2.088907	-0.142731	0.125481
C44	C	2.059809	-0.143288	0.040901
C45	C	2.440229	-0.342730	0.304227
C46	C	2.473433	-0.466268	0.329560
C47	C	2.417445	-0.147535	0.397420
C48	C	2.436162	-0.146973	0.481997
C49	C	2.036473	-0.152277	0.526784
C50	C	2.054054	-0.151748	0.606254
C51	C	1.971325	-0.145922	0.640937
C52	C	1.871005	-0.140614	0.596143
C53	C	1.853423	-0.141135	0.516673
C54	C	1.941908	-0.138509	0.916638
C55	C	1.959499	-0.137991	0.996115
C56	C	2.142539	-0.149122	1.006218
C57	C	2.124957	-0.149643	0.926748
C58	C	2.024637	-0.144329	0.881959
C59	C	2.005575	-0.144901	0.795789
C60	C	1.990388	-0.145358	0.727108
C61	C	2.566123	0.052462	0.218676
C62	C	2.522538	0.175998	0.193348
C63	C	2.588907	-0.142731	0.125481
C64	C	2.559809	-0.143288	0.040901
C65	C	2.580568	-0.529965	0.346458
C66	C	2.611784	-0.646045	0.370274
C67	C	2.535863	-0.698424	0.377185
C68	C	2.428720	-0.634718	0.360287
C69	C	2.397507	-0.518642	0.336478
C70	C	2.536477	-0.152266	0.526768
C71	C	2.554074	-0.151723	0.606234
C72	C	2.471357	-0.145894	0.640930
C73	C	2.371033	-0.140597	0.596152
C74	C	2.353435	-0.141132	0.516686
C75	C	2.587897	0.239695	0.176452
C76	C	2.546953	0.355774	0.152640
C77	C	2.440651	0.408153	0.145731
C78	C	2.375287	0.344448	0.162626
C79	C	2.416230	0.228372	0.186432
C80	C	2.460294	-0.149104	0.006222
C81	C	2.432933	-0.149614	-0.073254
C82	C	2.505093	-0.144316	-0.118046
C83	C	2.604615	-0.138496	-0.083362
C84	C	2.631971	-0.137978	-0.003891
H85	H	1.934722	-0.497340	0.126353
H86	H	2.485700	-0.145460	0.705638
C87	C	2.664436	-0.157569	0.655481
H88	H	2.711179	-0.161139	0.623438
H89	H	2.655917	-0.092459	0.666036
H90	H	2.694309	-0.222739	0.707348
H91	H	2.482810	-0.144753	-0.182751
C92	C	2.704826	0.182095	0.184045
H93	H	2.719866	0.103839	0.200649
H94	H	2.714337	0.213800	0.131279
H95	H	2.752418	0.193104	0.224906
C96	C	2.106210	-0.896123	0.494551
H97	H	2.124142	-0.971247	0.499951
H98	H	2.167882	-0.887386	0.523921
H99	H	2.050754	-0.880105	0.517509
C100	C	2.683985	-0.132682	-0.132636
H101	H	2.653435	-0.133838	-0.184927
H102	H	2.698322	-0.065181	-0.142348
H103	H	2.749162	-0.195464	-0.101034
C104	C	2.741445	-0.131595	0.034256
H105	H	2.747412	-0.132039	0.088000
H106	H	2.797651	-0.194536	0.039800
H107	H	2.746802	-0.064253	-0.001499
C108	C	1.929808	-0.426500	0.174708
H109	H	1.911853	-0.351372	0.169301
H110	H	1.985245	-0.442511	0.151737
H111	H	1.868128	-0.435249	0.145352
C112	C	2.280059	-0.134199	0.634330
H113	H	2.304922	-0.134654	0.688074
H114	H	2.220351	-0.066870	0.598589
H115	H	2.258794	-0.197153	0.639899
C116	C	2.344330	0.158312	0.205018
H117	H	2.383925	0.081678	0.220180
H118	H	2.321387	0.164668	0.249977
H119	H	2.283318	0.185363	0.156350
C120	C	2.345212	-0.692339	0.367883
H121	H	2.276930	-0.637786	0.354414
H122	H	2.340785	-0.727039	0.330151
H123	H	2.366396	-0.747733	0.423778
C124	C	2.258365	0.402073	0.155034
H125	H	2.243357	0.480322	0.138447
H126	H	2.210755	0.391082	0.114179
H127	H	2.248857	0.370375	0.207807
H128	H	1.926691	-0.573303	0.015197
H129	H	2.271747	-0.136824	0.480240
H130	H	2.600191	0.407627	0.138888
H131	H	2.012670	-0.506391	0.464529
H132	H	2.069287	-0.716990	0.507712
H133	H	1.983298	-0.783891	0.058394
H134	H	2.351894	-0.154353	-0.101481
C135	C	2.215957	-0.156055	0.888597
H136	H	2.191121	-0.155616	0.834856
H137	H	2.237239	-0.093120	0.883045
H138	H	2.275650	-0.223401	0.924353
C139	C	2.096920	-0.984035	0.365881
H140	H	2.089173	-0.998336	0.317203
H141	H	2.169930	-1.019901	0.401488
H142	H	2.052809	-1.012633	0.395091
H143	H	2.642400	-0.487333	0.340830
C144	C	1.831567	-0.132678	0.867385
H145	H	1.784823	-0.129148	0.899430
H146	H	1.801689	-0.067514	0.815521
H147	H	1.840115	-0.197796	0.856830
C148	C	2.279652	-0.448583	0.317878
H149	H	2.238912	-0.496409	0.325397
H150	H	2.276462	-0.413401	0.355186
H151	H	2.250863	-0.392729	0.261565
C152	C	2.127478	-0.158686	0.488639
H153	H	2.189735	-0.161760	0.526694
H154	H	2.143634	-0.224257	0.478500
H155	H	2.105214	-0.093975	0.437195
H156	H	2.401524	-0.153418	0.042682
H157	H	2.135734	-0.156061	0.642714
C158	C	1.743083	-0.135307	0.467409
H159	H	1.696333	-0.131773	0.499450
H160	H	1.713211	-0.070143	0.415545
H161	H	1.751632	-0.200425	0.456854
H162	H	2.224224	-0.153444	1.042694
C163	C	1.868517	-0.131666	1.034292
H164	H	1.806256	-0.128593	0.996242
H165	H	1.890831	-0.196400	1.085724
H166	H	1.852332	-0.066113	1.044459
H167	H	1.803645	-0.135863	0.624387
H168	H	2.407326	0.502670	0.126346
C169	C	2.729637	-0.716098	0.388846
H170	H	2.770371	-0.668268	0.381303
H171	H	2.758446	-0.771960	0.445151
H172	H	2.732798	-0.751267	0.351524
H173	H	2.561293	-0.792942	0.396573
H174	H	2.603843	-0.157016	0.498530
