data_functionalizedCrystal
_audit_creation_method	'MofGen! by Chris Wilmer'
_symmetry_space_group_name_H-M	'P1'
_symmetry_Int_Tables_number	1
_symmetry_cell_setting	triclinic
loop_
_symmetry_equiv_pos_as_xyz
  x,y,z
_cell_length_a	12.759401
_cell_length_b	12.759399
_cell_length_c	11.169409
_cell_angle_alpha	89.967562
_cell_angle_beta	89.980019
_cell_angle_gamma	90.015597
loop_
_atom_site_label
_atom_site_type_symbol
_atom_site_fract_x
_atom_site_fract_y
_atom_site_fract_z
Zn1	Zn	1.606265	-0.418177	-0.678547
Zn2	Zn	1.606153	-0.593902	-0.477863
Zn3	Zn	1.430563	-0.418239	-0.477881
Zn4	Zn	1.430554	-0.593815	-0.678508
O5	O	1.518384	-0.506033	-0.578200
O6	O	1.753272	-0.441498	-0.651935
O7	O	1.582817	-0.570663	-0.309916
O8	O	1.453921	-0.271209	-0.504523
O9	O	1.753189	-0.570603	-0.504494
O10	O	1.583009	-0.271164	-0.651952
O11	O	1.453812	-0.441603	-0.309929
O12	O	1.283541	-0.441518	-0.504485
O13	O	1.453906	-0.570453	-0.846463
O14	O	1.283534	-0.570513	-0.651885
O15	O	1.583000	-0.441413	-0.846492
O16	O	1.582808	-0.740912	-0.504456
O17	O	1.453797	-0.740847	-0.651868
C18	C	1.245416	-0.506014	-0.578183
C19	C	1.128640	-0.506031	-0.578205
C20	C	1.073802	-0.573306	-0.654829
C21	C	0.964078	-0.573319	-0.654842
C22	C	0.964039	-0.438779	-0.501597
C23	C	1.073761	-0.438761	-0.501590
C24	C	1.128680	-0.640575	-0.731444
C25	C	1.073842	-0.707857	-0.808073
C26	C	0.964118	-0.707870	-0.808086
C27	C	0.909232	-0.640602	-0.731470
C28	C	1.518318	-0.779000	-0.578182
C29	C	1.518386	-0.895777	-0.578215
C30	C	1.451334	-1.060475	-0.501428
C31	C	1.451265	-0.950751	-0.501407
C32	C	1.585573	-0.950533	-0.655057
C33	C	1.585637	-1.060255	-0.655084
C34	C	1.384216	-1.115444	-0.424607
C35	C	1.317027	-1.060696	-0.347765
C36	C	1.316958	-0.950972	-0.347744
C37	C	1.384077	-0.895996	-0.424564
C38	C	1.792417	-0.506053	-0.578217
C39	C	1.909194	-0.506062	-0.578224
C40	C	1.518464	-0.505916	-0.891242
C41	C	1.518499	-0.505867	-1.024642
C42	C	1.518479	-0.232000	-0.578244
C43	C	1.518519	-0.115223	-0.578262
C44	C	1.518364	-0.506073	-0.266375
C45	C	1.518533	-0.505827	-0.132976
H46	H	1.118412	-0.383972	-0.439205
O47	O	1.251879	-1.113979	-0.272984
C48	C	1.274894	-1.087245	-0.153382
H49	H	1.315234	-1.007545	-0.150918
H50	H	1.328966	-1.148976	-0.113023
C51	C	1.122956	-1.180202	-0.083607
C52	C	1.172493	-1.082309	-0.080580
H53	H	1.059791	-1.177162	-0.038696
H54	H	1.107451	-1.198218	-0.164184
H55	H	1.168026	-1.231634	-0.049977
H56	H	1.127428	-1.030882	-0.114223
H57	H	1.187988	-1.064285	-0.000006
H58	H	1.640332	-1.104831	-0.717663
H59	H	1.218023	-0.640574	-0.731439
O60	O	1.251578	-0.897742	-0.273281
C61	C	1.183663	-0.834270	-0.341523
H62	H	1.177147	-0.867278	-0.436049
H63	H	1.216092	-0.751082	-0.345672
C64	C	1.082477	-0.792182	-0.166673
C65	C	1.074466	-0.832728	-0.282769
H66	H	1.015120	-0.791226	-0.130430
H67	H	1.128234	-0.834941	-0.120695
H68	H	1.109505	-0.722862	-0.170146
H69	H	1.047451	-0.902051	-0.279293
H70	H	1.028701	-0.789981	-0.328745
O71	O	1.650741	-0.896970	-0.729555
C72	C	1.636260	-0.788386	-0.713075
H73	H	1.601884	-0.773496	-0.620416
H74	H	1.580263	-0.757247	-0.784201
C75	C	1.784747	-0.750243	-0.837966
C76	C	1.742533	-0.731954	-0.724156
H77	H	1.850299	-0.715431	-0.844806
H78	H	1.794501	-0.823398	-0.849074
H79	H	1.738072	-0.724293	-0.897225
H80	H	1.789201	-0.757916	-0.664900
H81	H	1.732789	-0.658802	-0.713039
H82	H	1.384268	-1.204787	-0.424613
H83	H	1.384012	-0.806651	-0.424543
H84	H	1.118537	-0.762618	-0.870459
H85	H	0.919472	-0.762647	-0.870490
H86	H	0.819887	-0.640609	-0.731497
H87	H	0.919342	-0.384013	-0.439218
