data_functionalizedCrystal
_audit_creation_method	'MofGen! by Chris Wilmer'
_symmetry_space_group_name_H-M	'P1'
_symmetry_Int_Tables_number	1
_symmetry_cell_setting	triclinic
loop_
_symmetry_equiv_pos_as_xyz
  x,y,z
_cell_length_a	16.992694
_cell_length_b	15.455313
_cell_length_c	16.992695
_cell_angle_alpha	87.152573
_cell_angle_beta	90.668223
_cell_angle_gamma	92.857794
loop_
_atom_site_label
_atom_site_type_symbol
_atom_site_fract_x
_atom_site_fract_y
_atom_site_fract_z
O1	O	1.054080	0.072023	0.163694
O2	O	0.825681	0.072048	0.161862
O3	O	0.938965	0.072029	0.048579
O4	O	0.940797	0.072042	0.276978
O5	O	0.932485	-0.072232	0.055028
O6	O	0.819202	-0.072213	0.168312
O7	O	1.047601	-0.072238	0.170144
Cu8	Cu	0.932809	-0.085398	0.169817
Cu9	Cu	0.940473	0.085207	0.162189
O10	O	0.934317	-0.072219	0.283428
C11	C	0.793081	-0.000079	0.162731
C12	C	0.705597	-0.000070	0.155702
N13	N	0.927425	-0.205392	0.175181
C14	C	0.659607	-0.000066	0.223520
C15	C	0.577405	-0.000079	0.216911
C16	C	0.541197	-0.000088	0.142484
C17	C	0.587193	-0.000094	0.074661
C18	C	0.669393	-0.000088	0.081271
C19	C	0.295881	-0.000113	0.115091
C20	C	0.213676	-0.000116	0.108486
C21	C	0.203893	-0.000103	0.250737
C22	C	0.286095	-0.000091	0.257340
C23	C	0.332084	-0.000102	0.189517
N24	N	0.457174	-0.000098	0.135727
N25	N	0.416105	-0.000098	0.196275
C26	C	0.975571	-0.250795	0.127074
C27	C	0.971507	-0.341602	0.131139
C28	C	0.919301	-0.387005	0.183315
C29	C	0.871149	-0.341596	0.231424
C30	C	0.875210	-0.250791	0.227355
C31	C	0.901772	-0.658584	0.200858
C32	C	0.897717	-0.749395	0.204926
C33	C	0.998074	-0.749395	0.104639
C34	C	1.002133	-0.658588	0.100578
C35	C	0.953979	-0.613187	0.148684
N36	N	0.915147	-0.479825	0.187473
N37	N	0.958129	-0.520369	0.144522
C38	C	1.080201	-0.000109	0.169275
C39	C	1.167685	-0.000113	0.176304
C40	C	0.933369	-0.000102	0.022443
C41	C	0.926341	-0.000101	-0.065041
N42	N	0.945863	0.205202	0.156819
C43	C	0.994158	-0.000109	-0.111032
C44	C	0.987550	-0.000100	-0.193233
C45	C	0.913123	-0.000089	-0.229442
C46	C	0.845300	-0.000078	-0.183445
C47	C	0.851910	-0.000081	-0.101246
C48	C	0.885729	-0.000074	-0.474757
C49	C	0.879124	-0.000074	-0.556962
C50	C	1.021375	-0.000094	-0.566744
C51	C	1.027977	-0.000102	-0.484543
C52	C	0.960155	-0.000087	-0.438554
N53	N	0.906366	-0.000082	-0.313464
N54	N	0.966913	-0.000087	-0.354533
C55	C	0.939913	-0.000087	0.309563
C56	C	0.946942	-0.000082	0.397047
H57	H	0.689081	-0.000058	0.284126
H58	H	1.088584	-0.000112	-0.455068
H59	H	1.076591	-0.000106	-0.604197
H60	H	0.796685	-0.000073	-0.063801
H61	H	0.706838	-0.000090	0.026046
H62	H	0.539963	-0.000075	0.272136
N63	N	0.765022	-0.000072	-0.222492
H64	H	0.737480	0.053409	-0.208437
H65	H	0.771186	-0.000109	-0.281532
N66	N	0.154288	-0.000122	0.323884
H67	H	0.189699	-0.000121	0.372036
H68	H	0.122356	0.053349	0.321862
N69	N	0.174619	-0.000121	0.028207
H70	H	0.216226	-0.000128	-0.013756
H71	H	0.138328	-0.053600	0.024762
N72	N	0.345478	-0.000130	0.041943
H73	H	0.310064	-0.000135	-0.006207
H74	H	0.382195	0.053348	0.039188
H75	H	0.315570	-0.000074	0.317946
N76	N	0.798846	-0.000060	-0.596019
H77	H	0.756883	-0.000048	-0.554413
H78	H	0.795415	0.053419	-0.632301
H79	H	0.862564	-0.621625	0.240030
N80	N	1.023456	-0.390558	0.079261
H81	H	0.989526	-0.428246	0.044178
H82	H	1.057136	-0.347949	0.045655
H83	H	0.557705	-0.000114	0.014061
H84	H	1.054764	-0.000124	-0.081557
H85	H	1.018087	-0.213834	0.084591
H86	H	1.044644	-0.621622	0.058092
H87	H	1.037278	-0.786369	0.065473
H88	H	0.855202	-0.786359	0.247417
H89	H	0.828638	-0.378569	0.273904
N90	N	0.823278	-0.201816	0.279236
H91	H	0.789589	-0.244356	0.312908
H92	H	0.857274	-0.164127	0.314256
N93	N	1.060695	-0.000114	-0.242838
H94	H	1.108846	-0.000130	-0.207426
H95	H	1.058642	-0.053594	-0.274768
N96	N	0.812581	-0.000061	-0.425160
H97	H	0.764431	-0.000058	-0.460574
H98	H	0.809821	-0.053540	-0.388454
