data_functionalizedCrystal
_audit_creation_method	'MofGen! by Chris Wilmer'
_symmetry_space_group_name_H-M	'P1'
_symmetry_Int_Tables_number	1
_symmetry_cell_setting	triclinic
loop_
_symmetry_equiv_pos_as_xyz
  x,y,z
_cell_length_a	19.288864
_cell_length_b	16.109301
_cell_length_c	17.766277
_cell_angle_alpha	89.992214
_cell_angle_beta	89.976791
_cell_angle_gamma	83.298863
loop_
_atom_site_label
_atom_site_type_symbol
_atom_site_fract_x
_atom_site_fract_y
_atom_site_fract_z
O1	O	0.921601	0.103716	-0.062838
O2	O	0.719373	0.117707	-0.062787
O3	O	0.826042	-0.010338	-0.062806
O4	O	0.814932	0.231761	-0.062819
O5	O	0.826024	-0.010345	0.062382
O6	O	0.719355	0.117701	0.062402
O7	O	0.921582	0.103710	0.062351
Cu8	Cu	0.820467	0.110704	0.073807
Cu9	Cu	0.820489	0.110712	-0.074243
O10	O	0.814913	0.231755	0.062370
C11	C	0.693487	0.117254	-0.000186
C12	C	0.616380	0.115902	-0.000166
C13	C	0.571863	0.191034	-0.000182
C14	C	0.499413	0.189764	-0.000190
C15	C	0.471483	0.113359	-0.000198
C16	C	0.516009	0.038218	-0.000178
C17	C	0.588458	0.039489	-0.000162
C18	C	0.363084	0.053298	-0.044079
C19	C	0.290636	0.052029	-0.044100
C20	C	0.248028	0.109433	-0.000243
C21	C	0.277874	0.168120	0.043624
C22	C	0.350323	0.169391	0.043640
C23	C	0.392925	0.111971	-0.000214
C24	C	0.124952	0.183193	-0.000267
C25	C	0.052501	0.181920	-0.000270
C26	C	0.069099	0.030372	-0.000266
C27	C	0.141548	0.031647	-0.000254
C28	C	0.169470	0.108060	-0.000259
C29	C	0.825583	-0.041315	-0.000211
C30	C	0.824234	-0.133606	-0.000210
C31	C	0.884391	-0.356084	-0.000237
C32	C	0.883118	-0.442800	-0.000243
C33	C	0.756559	-0.422493	-0.000208
C34	C	0.757833	-0.335778	-0.000208
C35	C	0.821751	-0.302577	-0.000218
C36	C	0.819204	-0.476007	-0.000225
C37	C	0.817823	-0.570028	-0.000231
C38	C	0.823133	-0.208549	-0.000213
C39	C	0.947469	0.104163	-0.000252
C40	C	1.024576	0.105514	-0.000277
C41	C	0.815372	0.262732	-0.000227
C42	C	0.816722	0.355022	-0.000233
N43	N	0.820456	0.110699	0.177937
N44	N	0.820505	0.110711	-0.178373
C45	C	0.867704	0.054028	0.217315
C46	C	0.867708	0.054024	0.296117
C47	C	0.820471	0.110705	0.335538
C48	C	0.773214	0.167380	0.296150
C49	C	0.773206	0.167377	0.217350
C50	C	0.811353	0.186459	0.460373
C51	C	0.811365	0.186463	0.539172
C52	C	0.820489	0.110715	0.578584
C53	C	0.829616	0.034960	0.539188
C54	C	0.829609	0.034956	0.460387
C55	C	0.820473	0.110715	0.420983
C56	C	0.867745	0.054035	0.703408
C57	C	0.867744	0.054030	0.782212
C58	C	0.773252	0.167394	0.782243
C59	C	0.773250	0.167392	0.703441
C60	C	0.820500	0.110713	0.664028
H61	H	0.243183	0.214863	0.079337
H62	H	0.906217	0.007878	0.814274
N63	N	0.690264	-0.278067	-0.000181
H64	H	0.687968	-0.241644	0.046227
H65	H	0.688015	-0.241684	-0.046619
H66	H	0.803938	0.248147	0.571243
H67	H	0.906176	0.007875	0.185228
N68	N	0.722266	0.228514	0.338668
H69	H	0.730244	0.287498	0.324939
H70	H	0.672996	0.219011	0.324969
H71	H	0.734778	0.213542	0.671377
N72	N	0.687622	-0.458304	-0.000193
H73	H	0.696318	-0.521356	-0.000194
H74	H	0.660207	-0.438717	0.046224
H75	H	0.463160	0.250947	-0.000201
N76	N	0.189566	-0.049390	-0.000255
H77	H	0.239700	-0.036991	-0.000245
H78	H	0.180503	-0.082706	0.046151
N79	N	0.409034	-0.008622	-0.091386
H80	H	0.435771	0.022442	-0.128885
H81	H	0.442942	-0.043790	-0.057731
H82	H	0.906185	0.007874	0.328185
N83	N	0.155072	0.265606	-0.000257
H84	H	0.207723	0.255012	-0.000250
H85	H	0.138807	0.298476	-0.046668
N86	N	0.801512	0.268163	0.417868
H87	H	0.795740	0.316152	0.454780
H88	H	0.843704	0.272883	0.385151
N89	N	0.950679	-0.500515	-0.000254
H90	H	0.952981	-0.536937	-0.046663
H91	H	0.991322	-0.466263	-0.000231
H92	H	0.016255	0.243104	-0.000279
H93	H	0.734730	0.213526	0.185287
H94	H	0.594592	0.253255	-0.000187
N95	N	0.839450	-0.046743	0.417894
H96	H	0.845232	-0.094732	0.454812
H97	H	0.797253	-0.051468	0.385224
H98	H	0.837046	-0.026722	0.571275
H99	H	0.046359	-0.031839	-0.000318
N100	N	0.636476	-0.041550	-0.000157
H101	H	0.686609	-0.029150	-0.000149
H102	H	0.627414	-0.074864	0.046251
N103	N	0.918701	-0.007094	0.660892
H104	H	0.948631	-0.043002	0.697799
H105	H	0.892120	-0.043769	0.628215
H106	H	0.936438	-0.329054	-0.000247
H107	H	0.734788	0.213542	0.814338
H108	H	0.374621	0.217173	0.079360
H109	H	0.266341	0.004247	-0.079822
H110	H	0.493264	-0.023992	-0.000194
