data_functionalizedCrystal
_audit_creation_method	'MofGen! by Chris Wilmer'
_symmetry_space_group_name_H-M	'P1'
_symmetry_Int_Tables_number	1
_symmetry_cell_setting	triclinic
loop_
_symmetry_equiv_pos_as_xyz
  x,y,z
_cell_length_a	12.837943
_cell_length_b	10.540539
_cell_length_c	11.295483
_cell_angle_alpha	94.138588
_cell_angle_beta	85.461227
_cell_angle_gamma	89.677216
loop_
_atom_site_label
_atom_site_type_symbol
_atom_site_fract_x
_atom_site_fract_y
_atom_site_fract_z
O1	O	1.384822	0.322576	-0.098993
O2	O	1.082896	0.306260	-0.099000
O3	O	1.240747	0.130469	-0.098995
O4	O	1.226971	0.498368	-0.098998
O5	O	1.226883	0.145882	0.099055
O6	O	1.069032	0.321674	0.099050
O7	O	1.370958	0.337990	0.099057
Cu8	Cu	1.218729	0.331239	0.117137
Cu9	Cu	1.235125	0.313011	-0.117080
O10	O	1.213106	0.513782	0.099052
C11	C	1.037303	0.308455	0.000024
C12	C	0.922104	0.292017	0.000021
C13	C	0.682608	0.489637	0.000036
C14	C	0.574368	0.474197	0.000034
C15	C	0.597381	0.245700	0.000023
C16	C	0.705621	0.261140	0.000025
C17	C	0.748230	0.383112	0.000030
C18	C	0.856473	0.398549	0.000023
C19	C	0.879484	0.170054	0.000021
C20	C	0.771244	0.154615	0.000019
C21	C	1.232782	0.090759	0.000028
C22	C	1.229692	-0.050529	0.000022
C23	C	1.111280	-0.247004	-0.000426
C24	C	1.114382	-0.100007	0.000020
C25	C	1.277266	-0.097288	0.113119
C26	C	1.273324	-0.244258	0.113215
C27	C	1.291436	-0.262047	-0.112006
C28	C	1.292603	-0.115064	-0.113501
C29	C	1.416551	0.335795	0.000031
C30	C	1.531750	0.352233	0.000026
C31	C	1.221072	0.553491	0.000026
C32	C	1.224163	0.694779	0.000025
N33	N	1.207204	0.344061	0.281873
N34	N	1.246658	0.300181	-0.281816
C35	C	1.329620	0.207816	0.531167
C36	C	1.320918	0.217515	0.655830
C37	C	1.181093	0.373150	0.655866
C38	C	1.189795	0.363451	0.531202
C39	C	1.264062	0.280783	0.468857
C40	C	1.272769	0.271091	0.344192
C41	C	1.132940	0.426719	0.344229
C42	C	1.124238	0.436418	0.468892
H43	H	0.520940	0.560942	0.000042
Cl44	Cl	1.422992	0.103907	0.452789
Cl45	Cl	0.736179	0.642966	0.000025
H46	H	1.260117	-0.304371	-0.197726
H47	H	0.562663	0.146404	0.000118
H48	H	1.071408	-0.286920	-0.081530
Cl49	Cl	1.050527	0.518460	0.265886
Cl50	Cl	0.717668	0.001287	0.000016
H51	H	0.891163	0.497865	0.000029
H52	H	0.932927	0.083313	0.000008
H53	H	1.076394	-0.068510	-0.081053
Cl54	Cl	1.032350	-0.292240	0.123720
H55	H	1.377150	-0.082138	-0.120328
Cl56	Cl	1.200863	-0.284600	0.243734
Cl57	Cl	1.037716	-0.033230	0.125394
Cl58	Cl	1.403335	0.125778	0.734159
H59	H	1.063768	0.503721	0.519668
Cl60	Cl	1.087724	0.477055	0.734254
H61	H	1.361652	-0.065303	0.117326
Cl62	Cl	1.400799	-0.303639	0.121157
H63	H	1.232827	-0.052374	0.197281
H64	H	1.257857	-0.085178	-0.197168
Cl65	Cl	1.420105	-0.320926	-0.113181
H66	H	1.333243	0.203782	0.293431
