data_functionalizedCrystal
_audit_creation_method	'MofGen! by Chris Wilmer'
_symmetry_space_group_name_H-M	'P1'
_symmetry_Int_Tables_number	1
_symmetry_cell_setting	triclinic
loop_
_symmetry_equiv_pos_as_xyz
  x,y,z
_cell_length_a	14.971482
_cell_length_b	11.026607
_cell_length_c	14.048226
_cell_angle_alpha	89.996210
_cell_angle_beta	89.994098
_cell_angle_gamma	96.099312
loop_
_atom_site_label
_atom_site_type_symbol
_atom_site_fract_x
_atom_site_fract_y
_atom_site_fract_z
O1	O	1.212290	0.158158	-0.079145
O2	O	0.954926	0.177105	-0.079150
O3	O	1.062278	-0.009052	-0.079144
O4	O	1.104938	0.344316	-0.079151
O5	O	1.062260	-0.009063	0.079177
O6	O	0.954907	0.177094	0.079172
O7	O	1.212272	0.158147	0.079176
Zn8	Zn	1.083587	0.167619	0.104311
Zn9	Zn	1.083611	0.167634	-0.104284
O10	O	1.104920	0.344305	0.079171
C11	C	0.921456	0.176254	0.000010
C12	C	0.821752	0.173717	0.000009
C13	C	0.774906	0.172516	0.086311
C14	C	0.681223	0.170113	0.086312
C15	C	0.634388	0.168919	0.000010
C16	C	0.681240	0.170117	-0.086299
C17	C	0.774921	0.172511	-0.086299
C18	C	0.485979	0.165129	-0.086293
C19	C	0.392291	0.162737	-0.086293
C20	C	0.392281	0.162731	0.086318
C21	C	0.485962	0.165125	0.086318
C22	C	0.532808	0.166325	0.000009
C23	C	1.054399	-0.054279	0.000015
C24	C	1.030938	-0.189027	0.000011
C25	C	1.095717	-0.262740	0.000011
C26	C	1.071471	-0.402009	0.000007
C27	C	1.245742	0.158999	0.000014
C28	C	1.345445	0.161536	0.000009
C29	C	1.112799	0.389532	0.000009
C30	C	1.136260	0.524280	0.000007
N31	N	1.083577	0.167609	0.246671
N32	N	1.083626	0.167635	-0.246645
C33	C	1.131137	0.085212	0.296492
C34	C	1.131143	0.085212	0.396149
C35	C	1.083593	0.167614	0.445985
C36	C	1.036027	0.250014	0.396158
C37	C	1.036017	0.250008	0.296502
C38	C	1.036055	0.250023	0.603872
C39	C	1.036066	0.250031	0.703535
C40	C	1.131181	0.085227	0.703520
C41	C	1.131170	0.085220	0.603864
C42	C	1.083605	0.167623	0.554043
H43	H	0.813033	0.173498	0.156588
H44	H	0.997306	0.317104	0.436739
C45	C	0.983753	0.340671	0.758352
N46	N	0.944348	0.408940	0.799640
C47	C	1.235442	-0.421701	0.000010
N48	N	1.310145	-0.381013	0.000013
H49	H	1.169909	0.018132	0.744089
H50	H	0.643084	0.169115	0.156588
C51	C	0.537479	0.166440	0.181255
N52	N	0.576281	0.167425	0.252762
H53	H	0.997287	0.317102	0.255939
C54	C	0.629718	0.168800	-0.181232
N55	N	0.590912	0.167813	-0.252738
H56	H	0.354134	0.161755	0.156594
C57	C	0.826451	0.173835	-0.181238
N58	N	0.865263	0.174828	-0.252749
C59	C	1.183477	-0.005426	0.549047
N60	N	1.222872	-0.073706	0.507758
C61	C	1.194894	-0.208713	0.000020
N62	N	1.269596	-0.168021	0.000030
H63	H	0.957527	-0.229024	0.000004
H64	H	1.169862	0.018116	0.255922
H65	H	0.354161	0.161766	-0.156567
C66	C	0.983719	0.340658	0.549072
N67	N	0.944301	0.408922	0.507796
C68	C	0.972289	-0.456030	0.000007
N69	N	0.897587	-0.496722	0.000009
H70	H	0.524118	0.166106	-0.156575
H71	H	1.169869	0.018118	0.436713
