data_functionalizedCrystal
_audit_creation_method	'MofGen! by Chris Wilmer'
_symmetry_space_group_name_H-M	'P1'
_symmetry_Int_Tables_number	1
_symmetry_cell_setting	triclinic
loop_
_symmetry_equiv_pos_as_xyz
  x,y,z
_cell_length_a	15.298068
_cell_length_b	16.120444
_cell_length_c	16.120256
_cell_angle_alpha	84.383140
_cell_angle_beta	97.332148
_cell_angle_gamma	103.030534
loop_
_atom_site_label
_atom_site_type_symbol
_atom_site_fract_x
_atom_site_fract_y
_atom_site_fract_z
Zn1	Zn	1.332865	-0.154192	0.692750
Zn2	Zn	1.332749	-0.286896	0.560044
Zn3	Zn	1.190045	-0.168830	0.531212
Zn4	Zn	1.173887	-0.318086	0.675537
O5	O	1.257387	-0.232001	0.614886
O6	O	1.459105	-0.152617	0.694416
O7	O	1.320532	-0.264308	0.440280
O8	O	1.215801	-0.048888	0.547778
O9	O	1.459020	-0.250114	0.596917
O10	O	1.320730	-0.038133	0.666459
O11	O	1.215688	-0.177565	0.419098
O12	O	1.061646	-0.207808	0.531088
O13	O	1.188263	-0.303272	0.793759
O14	O	1.049775	-0.317466	0.637123
O15	O	1.305063	-0.182860	0.806405
O16	O	1.304865	-0.409035	0.580227
O17	O	1.188150	-0.431950	0.665080
C18	C	1.022974	-0.267611	0.579109
C19	C	0.922689	-0.282866	0.563824
C20	C	0.640144	-0.123180	0.724140
C21	C	0.734366	-0.108850	0.738505
C22	C	0.781451	-0.152352	0.694836
C23	C	0.734305	-0.210188	0.636799
C24	C	0.640073	-0.224525	0.622437
C25	C	0.781381	-0.253697	0.593133
C26	C	0.734235	-0.311533	0.535096
C27	C	0.640012	-0.325867	0.520736
C28	C	0.592926	-0.282365	0.564405
C29	C	0.875613	-0.239360	0.607496
C30	C	0.875542	-0.340705	0.505793
C31	C	0.781320	-0.355036	0.491427
C32	C	1.244765	-0.451086	0.623936
C33	C	1.239447	-0.544800	0.627848
C34	C	1.285187	-0.746757	0.594804
C35	C	1.229752	-0.716369	0.635001
C36	C	1.235148	-0.620899	0.631020
C37	C	1.279793	-0.842236	0.598785
C38	C	1.492714	-0.196253	0.650803
C39	C	1.592997	-0.181020	0.666108
C40	C	1.244873	-0.244913	0.830985
C41	C	1.239541	-0.250415	0.923073
C42	C	1.270081	-0.012058	0.605822
C43	C	1.275490	0.081668	0.601960
C44	C	1.269906	-0.219072	0.399633
C45	C	1.275427	-0.213305	0.307562
C46	C	1.285194	-0.203288	1.138961
C47	C	1.229777	-0.260429	1.091669
C48	C	1.235212	-0.254855	0.997853
C49	C	1.279761	-0.208860	1.232785
H50	H	0.772746	-0.061762	0.785762
O51	O	1.346587	-0.692357	0.550058
C52	C	1.400106	-0.650105	0.414735
C53	C	1.330538	-0.711794	0.465316
H54	H	1.387144	-0.665786	0.346208
H55	H	1.471071	-0.657100	0.441065
H56	H	1.393568	-0.581711	0.419480
H57	H	1.336994	-0.780213	0.460591
H58	H	1.259601	-0.704724	0.438972
O59	O	1.346782	-0.139966	1.103329
C60	C	1.504136	-0.074218	1.098359
C61	C	1.434481	-0.145952	1.138806
H62	H	1.575057	-0.079044	1.127012
H63	H	1.491340	-0.009587	1.110101
H64	H	1.497575	-0.080951	1.027966
H65	H	1.441002	-0.139300	1.209208
H66	H	1.447298	-0.210555	1.126997
H67	H	0.742920	-0.402127	0.444174
O68	O	0.594269	-0.080973	0.766457
C69	C	0.449127	-0.058194	0.789440
C70	C	0.500969	-0.106040	0.741439
H71	H	0.373683	-0.078457	0.769244
H72	H	0.472323	0.013511	0.775004
H73	H	0.463000	-0.074261	0.859663
H74	H	0.487121	-0.090044	0.671204
H75	H	0.477766	-0.177733	0.755945
O76	O	1.168399	-0.323766	1.127557
C77	C	1.106913	-0.387099	1.255138
C78	C	1.176467	-0.315336	1.214599
H79	H	1.113399	-0.380297	1.325514
H80	H	1.119812	-0.451713	1.243476
H81	H	1.035985	-0.382379	1.226415
H82	H	1.247423	-0.319975	1.243296
H83	H	1.163490	-0.250752	1.226254
O84	O	0.594355	-0.382053	0.464308
C85	C	0.604228	-0.481096	0.364984
C86	C	0.656045	-0.417476	0.428851
H87	H	0.654080	-0.509767	0.336311
H88	H	0.564862	-0.446474	0.313349
H89	H	0.555363	-0.534195	0.398060
H90	H	0.704956	-0.364362	0.395848
H91	H	0.695351	-0.452159	0.480481
H92	H	0.913990	-0.192269	0.654749
O93	O	1.168384	-0.770817	0.679752
C94	C	1.114746	-0.812999	0.815036
C95	C	1.184312	-0.751291	0.764468
H96	H	1.127588	-0.797222	0.883535
H97	H	1.121283	-0.881415	0.810411
H98	H	1.043817	-0.806004	0.788579
H99	H	1.255272	-0.758209	0.790889
H100	H	1.177696	-0.682899	0.769092
O101	O	0.872982	-0.138302	0.708858
C102	C	1.008234	-0.062159	0.785307
C103	C	0.904574	-0.077984	0.769495
H104	H	1.033806	-0.013406	0.834345
H105	H	1.038574	-0.036778	0.724375
H106	H	1.029059	-0.124636	0.808949
H107	H	0.883669	-0.015541	0.745878
H108	H	0.874292	-0.103404	0.830445
O109	O	0.921360	-0.383001	0.463499
C110	C	1.021817	-0.480003	0.473088
C111	C	0.969986	-0.432140	0.521083
H112	H	1.061129	-0.519758	0.519623
H113	H	1.070712	-0.431964	0.434973
H114	H	0.971921	-0.523770	0.429124
H115	H	1.019815	-0.388374	0.565090
H116	H	0.921078	-0.480226	0.559144
H117	H	0.516202	-0.294036	0.552718
