data_functionalizedCrystal
_audit_creation_method	'MofGen! by Chris Wilmer'
_symmetry_space_group_name_H-M	'P1'
_symmetry_Int_Tables_number	1
_symmetry_cell_setting	triclinic
loop_
_symmetry_equiv_pos_as_xyz
  x,y,z
_cell_length_a	14.853567
_cell_length_b	15.995350
_cell_length_c	13.930277
_cell_angle_alpha	89.997676
_cell_angle_beta	89.995755
_cell_angle_gamma	83.563653
loop_
_atom_site_label
_atom_site_type_symbol
_atom_site_fract_x
_atom_site_fract_y
_atom_site_fract_z
O1	O	1.196221	0.109317	-0.079760
O2	O	0.933744	0.122339	-0.079776
O3	O	1.072157	-0.006051	-0.079766
O4	O	1.057808	0.237707	-0.079769
O5	O	1.072138	-0.006054	0.079895
O6	O	0.933725	0.122336	0.079886
O7	O	1.196202	0.109314	0.079902
Zn8	Zn	1.064960	0.115825	0.105244
Zn9	Zn	1.064986	0.115828	-0.105117
O10	O	1.057788	0.237705	0.079893
C11	C	0.900146	0.121748	0.000053
C12	C	0.800065	0.119980	0.000047
C13	C	0.387644	0.036238	0.000069
C14	C	0.366158	0.188769	0.000067
C15	C	0.460189	0.190432	0.000064
C16	C	0.517953	0.114996	0.000062
C17	C	0.481685	0.037899	0.000063
C18	C	0.496464	0.267528	0.000053
C19	C	0.590501	0.269194	0.000048
C20	C	0.648266	0.193758	0.000054
C21	C	0.611993	0.116657	0.000056
C22	C	0.669757	0.041221	0.000054
C23	C	0.633485	-0.035880	0.000064
C24	C	0.539450	-0.037538	0.000069
C25	C	0.742302	0.195415	0.000049
C26	C	0.763797	0.042882	0.000048
C27	C	1.071555	-0.037248	0.000063
C28	C	1.069776	-0.130201	0.000057
C29	C	1.063389	-0.467956	0.000060
C30	C	0.964813	-0.420636	-0.000304
C31	C	0.966592	-0.323944	0.000056
C32	C	1.066557	-0.300391	0.000058
C33	C	1.115167	-0.341414	0.091234
C34	C	1.112691	-0.438052	0.091310
C35	C	1.114749	-0.438405	-0.090255
C36	C	1.114726	-0.341460	-0.091460
C37	C	1.068353	-0.205692	0.000060
C38	C	1.061596	-0.562655	0.000064
C39	C	1.229799	0.109906	0.000071
C40	C	1.329881	0.111674	0.000071
C41	C	1.058391	0.268901	0.000062
C42	C	1.060170	0.361854	0.000061
N43	N	1.064950	0.115822	0.248810
N44	N	1.065003	0.115825	-0.248684
C45	C	1.003694	0.172657	0.701075
C46	C	1.126302	0.058993	0.701053
C47	C	1.126292	0.058990	0.600557
C48	C	1.064982	0.115823	0.550316
C49	C	1.003683	0.172658	0.600570
C50	C	1.187595	0.002162	0.550295
C51	C	1.187588	0.002158	0.449793
C52	C	1.126273	0.058987	0.399550
C53	C	1.064971	0.115824	0.449811
C54	C	1.003661	0.172656	0.399569
C55	C	0.942354	0.229490	0.449828
C56	C	0.942368	0.229487	0.550327
C57	C	1.126259	0.058989	0.299051
C58	C	1.003651	0.172657	0.299064
H59	H	0.810823	-0.018548	0.000051
H60	H	0.892439	0.275767	0.408910
H61	H	0.319121	0.250185	0.000060
C62	C	0.696162	-0.117806	-0.000140
C63	C	0.679788	-0.164213	-0.082290
C64	C	0.737521	-0.239679	-0.082519
H65	H	0.685229	-0.149517	0.055475
H66	H	0.757372	-0.105803	-0.000202
H67	H	0.618593	-0.176218	-0.082220
H68	H	0.690727	-0.132527	-0.137919
H69	H	0.798731	-0.227676	-0.082581
H70	H	0.726583	-0.271382	-0.026900
H71	H	0.726425	-0.271172	-0.138261
C72	C	0.433862	0.349491	0.000199
C73	C	0.450270	0.395921	0.082321
C74	C	0.392623	0.471438	0.082482
H75	H	0.372632	0.337581	0.000256
H76	H	0.444870	0.381142	-0.055455
H77	H	0.439254	0.364276	0.137961
H78	H	0.511489	0.407853	0.082281
H79	H	0.403632	0.503089	0.026828
H80	H	0.331397	0.459520	0.082537
H81	H	0.403754	0.502953	0.138196
C82	C	1.211703	-0.480526	-0.091224
C83	C	1.256735	-0.453698	-0.171950
C84	C	1.346049	-0.492477	-0.172859
H85	H	1.211482	-0.539852	-0.093614
H86	H	1.241971	-0.465690	-0.034691
H87	H	1.226476	-0.468540	-0.228469
H88	H	1.256982	-0.394378	-0.169577
H89	H	1.376317	-0.477641	-0.116326
H90	H	1.345819	-0.551801	-0.175247
H91	H	1.376617	-0.474274	-0.227626
C92	C	0.912123	-0.445422	-0.087362
C93	C	0.835347	-0.481465	-0.056892
C94	C	0.786779	-0.504301	-0.137065
H95	H	0.949419	-0.485014	-0.124871
H96	H	0.893946	-0.396863	-0.124900
H97	H	0.853525	-0.530017	-0.019369
H98	H	0.798029	-0.441888	-0.019393
H99	H	0.768602	-0.455742	-0.174603
H100	H	0.824083	-0.543890	-0.174568
H101	H	0.734677	-0.528751	-0.116402
H102	H	0.620025	0.331975	0.000041
C103	C	0.937043	0.234458	0.244694
C104	C	0.883376	0.284238	0.310221
C105	C	0.822017	0.341185	0.260170
H106	H	0.899431	0.204372	0.205490
H107	H	0.969444	0.269418	0.205505
H108	H	0.850978	0.249283	0.349393
H109	H	0.920964	0.314342	0.349426
H110	H	0.854417	0.376145	0.220982
H111	H	0.784411	0.311092	0.220969
H112	H	0.785602	0.374973	0.304623
C113	C	1.254057	-0.059500	0.605015
C114	C	1.240925	-0.047352	0.703784
C115	C	1.302126	-0.104149	0.754226
H116	H	1.314261	-0.050356	0.588654
H117	H	1.244265	-0.115418	0.588604
H118	H	1.250725	0.008553	0.720188
H119	H	1.180733	-0.056502	0.720174
H120	H	1.292333	-0.160067	0.737816
H121	H	1.362326	-0.095001	0.737857
H122	H	1.293218	-0.095920	0.821246
C123	C	0.781509	0.279200	0.000085
C124	C	0.710795	0.344907	0.000104
C125	C	0.746876	0.422106	0.000151
H126	H	0.817735	0.283135	-0.055579
H127	H	0.817716	0.283067	0.055784
H128	H	0.674603	0.341042	-0.055589
H129	H	0.674563	0.341001	0.055763
H130	H	0.783083	0.425973	0.055850
H131	H	0.783102	0.426032	-0.055513
H132	H	0.698903	0.466697	0.000173
H133	H	1.185063	-0.470216	0.095448
H134	H	0.928381	-0.295565	-0.065303
H135	H	0.892455	0.275760	0.591254
H136	H	0.953776	0.218928	0.741998
H137	H	1.077228	-0.456396	0.159464
C138	C	1.070279	-0.303709	0.181820
C139	C	1.114509	-0.341014	0.262415
C140	C	1.073185	-0.306296	0.345876
H141	H	1.008452	-0.313737	0.182770
H142	H	1.074086	-0.244820	0.182820
H143	H	1.110692	-0.399889	0.261416
H144	H	1.176333	-0.330988	0.261497
H145	H	1.076992	-0.247406	0.346877
H146	H	1.011359	-0.316325	0.346816
H147	H	1.103194	-0.331596	0.400570
C148	C	1.254181	-0.059644	0.395405
C149	C	1.307859	-0.109428	0.460916
C150	C	1.369204	-0.166378	0.410847
H151	H	1.291787	-0.029561	0.356182
H152	H	1.221769	-0.094602	0.356234
H153	H	1.340269	-0.074475	0.500070
H154	H	1.270278	-0.139529	0.500140
H155	H	1.336792	-0.201336	0.371676
H156	H	1.406804	-0.136288	0.371627
H157	H	1.405626	-0.200168	0.455289
H158	H	0.925581	-0.440277	0.064711
H159	H	0.928108	-0.296125	0.065521
H160	H	1.176223	0.012726	0.741962
C161	C	0.500015	-0.121216	-0.000128
C162	C	0.446681	-0.126626	-0.082284
C163	C	0.410345	-0.203700	-0.082508
H164	H	0.463712	-0.125117	0.055483
H165	H	0.547856	-0.165933	-0.000180
H166	H	0.398847	-0.081921	-0.082223
H167	H	0.482964	-0.122740	-0.137909
H168	H	0.458186	-0.248417	-0.082560
H169	H	0.374045	-0.207595	-0.026893
H170	H	0.374160	-0.207384	-0.138253
H171	H	1.188608	-0.327203	0.094626
C172	C	0.348218	-0.047444	-0.000121
C173	C	0.294876	-0.052864	-0.082269
C174	C	0.258551	-0.129944	-0.082483
H175	H	0.311921	-0.051347	0.055496
H176	H	0.396064	-0.092156	-0.000176
H177	H	0.247036	-0.008164	-0.082205
H178	H	0.331153	-0.048975	-0.137899
H179	H	0.306398	-0.174656	-0.082538
H180	H	0.222259	-0.133841	-0.026863
H181	H	0.222362	-0.133635	-0.138224
C182	C	1.071793	-0.465669	-0.182482
C183	C	1.041739	-0.394533	-0.237166
C184	C	1.002165	-0.419615	-0.322131
H185	H	1.021845	-0.495535	-0.167386
H186	H	1.115295	-0.501063	-0.218132
H187	H	0.998241	-0.359152	-0.201524
H188	H	1.091670	-0.364658	-0.252288
H189	H	1.045666	-0.455010	-0.357780
H190	H	0.952220	-0.449482	-0.307025
H191	H	0.981776	-0.371355	-0.359248
C192	C	1.192682	-0.002728	0.244348
C193	C	1.144679	-0.054059	0.186632
C194	C	1.205844	-0.110910	0.136212
H195	H	1.229238	-0.036655	0.288542
H196	H	1.230172	0.027460	0.205086
H197	H	1.107204	-0.084244	0.225891
H198	H	1.108126	-0.020156	0.142420
H199	H	1.243335	-0.080722	0.096949
H200	H	1.242397	-0.144831	0.180412
H201	H	1.173283	-0.145740	0.097039
H202	H	1.187625	-0.326013	-0.096963
H203	H	1.079186	-0.314251	-0.158910
