data_functionalizedCrystal
_audit_creation_method	'MofGen! by Chris Wilmer'
_symmetry_space_group_name_H-M	'P1'
_symmetry_Int_Tables_number	1
_symmetry_cell_setting	triclinic
loop_
_symmetry_equiv_pos_as_xyz
  x,y,z
_cell_length_a	9.565339
_cell_length_b	8.559649
_cell_length_c	8.559649
_cell_angle_alpha	110.221336
_cell_angle_beta	89.996695
_cell_angle_gamma	89.997746
loop_
_atom_site_label
_atom_site_type_symbol
_atom_site_fract_x
_atom_site_fract_y
_atom_site_fract_z
O1	O	-0.116238	-2.126864	-0.055029
O2	O	-0.116243	-1.651380	0.028753
O3	O	-0.116239	-1.931013	-0.250880
O4	O	-0.116243	-1.847231	0.224604
O5	O	0.116281	-1.931026	-0.250898
O6	O	0.116277	-1.651393	0.028735
O7	O	0.116282	-2.126878	-0.055046
Zn8	Zn	0.153197	-1.889138	-0.013159
Zn9	Zn	-0.153158	-1.889120	-0.013135
O10	O	0.116277	-1.847245	0.224587
C11	C	0.000016	-1.591077	0.035093
C12	C	0.000014	-1.411378	0.053992
N13	N	-0.362238	-1.889110	-0.013131
C14	C	0.000019	-1.937369	-0.311198
C15	C	0.000011	-1.956268	-0.490898
C16	C	-0.453434	-1.759591	0.115996
C17	C	-0.546616	-1.746493	-0.026903
C18	C	-0.546611	-1.902189	0.129718
C19	C	-0.453368	-1.875949	-0.156096
C20	C	-0.453355	-2.031696	0.000614
C21	C	-0.546495	-2.018674	-0.142398
N22	N	0.362276	-1.889162	-0.013177
C23	C	0.000020	-2.187180	-0.061387
C24	C	0.000013	-2.366879	-0.080286
C25	C	0.000017	-1.840889	0.284904
C26	C	0.000015	-1.821990	0.464604
H27	H	-0.412571	-1.649989	0.225110
H28	H	-0.587590	-1.625937	-0.038557
N29	N	-0.000001	-1.286730	0.216375
N30	N	-0.098013	-1.280370	0.314982
H31	H	-0.098024	-1.192338	0.429665
N32	N	0.000018	-1.659614	-0.410761
N33	N	0.098029	-1.561018	-0.404404
H34	H	0.098031	-1.446335	-0.316373
N35	N	0.000034	-2.118652	-0.615543
N36	N	0.098048	-2.217252	-0.621892
H37	H	0.098067	-2.331936	-0.709921
H38	H	0.000007	-1.466258	-0.209705
H39	H	-0.412582	-1.864763	-0.276929
H40	H	-0.587098	-2.128246	-0.251724
H41	H	-0.587544	-1.913253	0.250544
N42	N	-0.401936	-2.182878	0.015318
N43	N	-0.431758	-2.219483	0.140633
H44	H	-0.395443	-2.326254	0.151035
