data_functionalizedCrystal
_audit_creation_method	'MofGen! by Chris Wilmer'
_symmetry_space_group_name_H-M	'P1'
_symmetry_Int_Tables_number	1
_symmetry_cell_setting	triclinic
loop_
_symmetry_equiv_pos_as_xyz
  x,y,z
_cell_length_a	6.394989
_cell_length_b	16.992695
_cell_length_c	15.455313
_cell_angle_alpha	87.152573
_cell_angle_beta	92.758373
_cell_angle_gamma	88.582967
loop_
_atom_site_label
_atom_site_type_symbol
_atom_site_fract_x
_atom_site_fract_y
_atom_site_fract_z
O1	O	-2.801569	-0.125324	-0.072123
O2	O	-2.194523	-0.131806	-0.072127
O3	O	-2.495611	-0.014398	-0.072118
O4	O	-2.500480	-0.242731	-0.072132
O5	O	-2.478389	-0.021084	0.072143
O6	O	-2.177300	-0.138491	0.072135
O7	O	-2.784346	-0.132009	0.072138
Cu8	Cu	-2.479251	-0.135861	0.085309
Cu9	Cu	-2.499618	-0.127954	-0.085297
O10	O	-2.483258	-0.249416	0.072130
C11	C	-2.480739	0.011533	0.000012
C12	C	-2.462058	0.098762	0.000012
C13	C	-2.498130	-0.275348	-0.000003
C14	C	-2.516812	-0.362577	-0.000008
N15	N	-2.464941	-0.141421	0.205304
C16	C	-2.107876	-0.133867	0.000008
C17	C	-1.870987	-0.129950	0.000012
N18	N	-2.513944	-0.122388	-0.205292
C19	C	-2.642306	0.147221	0.000014
C20	C	-2.624741	0.229182	0.000006
C21	C	-2.426927	0.262682	0.000002
C22	C	-2.246666	0.214216	-0.000003
C23	C	-2.264233	0.132257	-0.000001
C24	C	-2.354118	0.506999	-0.000011
C25	C	-2.336564	0.588964	-0.000010
C26	C	-2.714642	0.603925	-0.000003
C27	C	-2.732191	0.521963	0.000004
C28	C	-2.551931	0.473505	-0.000005
N29	N	-2.408968	0.346458	-0.000004
N30	N	-2.569892	0.389731	-0.000005
C31	C	-2.592904	-0.091562	0.250702
C32	C	-2.582103	-0.095774	0.341509
C33	C	-2.443347	-0.149851	0.386917
C34	C	-2.315369	-0.199712	0.341513
C35	C	-2.326161	-0.195495	0.250707
C36	C	-2.396759	-0.168032	0.658497
C37	C	-2.385980	-0.172247	0.749310
C38	C	-2.652713	-0.068307	0.749300
C39	C	-2.663502	-0.064098	0.658492
C40	C	-2.535516	-0.113957	0.613096
N41	N	-2.432307	-0.154160	0.479737
N42	N	-2.546547	-0.109644	0.520277
H43	H	-2.803387	0.119953	0.000023
C44	C	-2.233342	-0.231731	0.799261
H45	H	-2.245269	-0.227106	0.859843
H46	H	-2.094052	-0.221100	0.784401
H47	H	-2.266580	-0.283690	0.784366
C48	C	-2.255999	-0.222881	0.608573
H49	H	-2.171838	-0.255696	0.648624
H50	H	-2.168396	-0.192108	0.573163
H51	H	-2.340937	-0.254694	0.573138
H52	H	-2.207336	0.467554	-0.000018
C53	C	-2.162744	-0.259197	0.391460
H54	H	-2.174658	-0.254574	0.452043
H55	H	-2.023455	-0.248568	0.376595
H56	H	-2.195996	-0.311154	0.376563
C57	C	-2.793462	-0.013461	0.799237
H58	H	-2.767155	-0.023710	0.859821
H59	H	-2.936288	-0.022705	0.784342
H60	H	-2.763742	0.039878	0.784365
H61	H	-2.705903	-0.047530	0.213736
H62	H	-2.221957	-0.236095	0.213745
H63	H	-2.117455	0.092802	-0.000003
C64	C	-2.029074	0.251063	-0.000005
H65	H	-2.044422	0.306815	0.000004
H66	H	-1.960281	0.236887	-0.050312
H67	H	-1.948283	0.232227	0.050309
C68	C	-2.816120	-0.004610	0.608549
H69	H	-2.890773	0.024487	0.648593
H70	H	-2.912134	-0.032095	0.573110
H71	H	-2.739595	0.030491	0.573142
H72	H	-2.893273	0.494694	0.000008
C73	C	-2.118961	0.625813	-0.000030
H74	H	-2.014120	0.585216	-0.000046
H75	H	-2.098222	0.655147	0.050275
H76	H	-2.110292	0.659801	-0.050346
C77	C	-2.722884	-0.040936	0.391443
H78	H	-2.807090	-0.008135	0.351395
H79	H	-2.637981	-0.009122	0.426882
H80	H	-2.810476	-0.071725	0.426850
H81	H	-2.771519	0.268635	0.000009
H82	H	-2.861400	0.643388	0.000003
