data_functionalizedCrystal
_audit_creation_method	'MofGen! by Chris Wilmer'
_symmetry_space_group_name_H-M	'P1'
_symmetry_Int_Tables_number	1
_symmetry_cell_setting	triclinic
loop_
_symmetry_equiv_pos_as_xyz
  x,y,z
_cell_length_a	10.654543
_cell_length_b	10.654550
_cell_length_c	10.268362
_cell_angle_alpha	89.994874
_cell_angle_beta	90.004424
_cell_angle_gamma	95.516525
loop_
_atom_site_label
_atom_site_type_symbol
_atom_site_fract_x
_atom_site_fract_y
_atom_site_fract_z
O1	O	-1.667846	0.176357	-0.108296
O2	O	-1.167846	0.676357	0.391704
O3	O	-1.302367	0.193173	-0.108299
O4	O	-0.802367	0.693173	0.391701
O5	O	-1.493510	0.002026	-0.108290
O6	O	-0.993510	0.502026	0.391710
O7	O	-1.476704	0.367505	-0.108306
O8	O	-0.976704	0.867505	0.391694
O9	O	-1.493493	0.002018	0.108311
O10	O	-0.993493	0.502018	0.608311
O11	O	-1.302350	0.193165	0.108301
O12	O	-0.802350	0.693165	0.608301
O13	O	-1.667830	0.176349	0.108305
O14	O	-1.167830	0.676349	0.608305
Cu15	Cu	-1.485088	0.184756	0.128080
Cu16	Cu	-0.985088	0.684756	0.628080
Cu17	Cu	-1.485108	0.184766	-0.128075
Cu18	Cu	-0.985108	0.684766	0.371925
O19	O	-1.476687	0.367497	0.108295
O20	O	-0.976687	0.867497	0.608295
C21	C	-1.255560	0.191936	0.000000
C22	C	-0.755560	0.691936	0.500000
C23	C	-1.116117	0.188248	-0.000001
C24	C	-0.616117	0.688248	0.499999
C25	C	-0.905601	0.297316	0.000003
C26	C	-0.405601	0.797316	0.500003
C27	C	-1.036622	0.300791	-0.000007
C28	C	-0.536622	0.800791	0.499993
C29	C	-1.064584	0.072221	0.000003
C30	C	-0.564584	0.572221	0.500003
C31	C	-0.933565	0.068747	0.000003
C32	C	-0.433565	0.568747	0.500003
C33	C	-1.492267	-0.044776	0.000010
C34	C	-0.992267	0.455224	0.500010
C35	C	-1.488575	-0.184219	0.000008
C36	C	-0.988575	0.315781	0.500008
C37	C	-1.601117	-0.263708	0.000009
C38	C	-1.101117	0.236292	0.500009
C39	C	-1.597641	-0.394729	-0.000007
C40	C	-1.097641	0.105271	0.499993
C41	C	-1.369071	-0.366760	-0.000019
C42	C	-0.869071	0.133240	0.499981
C43	C	-1.372548	-0.235741	-0.000012
C44	C	-0.872548	0.264259	0.499988
C45	C	-0.714635	0.177592	0.000006
C46	C	-0.214635	0.677592	0.500006
C47	C	-0.854077	0.181299	0.000010
C48	C	-0.354077	0.681299	0.500010
C49	C	-1.477929	0.414299	-0.000008
C50	C	-0.977929	0.914299	0.499992
C51	C	-1.481621	0.553742	-0.000014
C52	C	-0.981621	1.053742	0.499986
N53	N	-1.485083	0.184749	0.308246
N54	N	-0.985083	0.684749	0.808246
N55	N	-1.485123	0.184763	-0.308241
N56	N	-0.985123	0.684763	0.191759
C57	C	-1.485102	0.184763	0.573917
C58	C	-0.985102	0.684763	1.073917
C59	C	-1.485088	0.184759	0.426079
C60	C	-0.985088	0.684759	0.926079
H61	H	-0.840885	0.388963	0.000008
H62	H	-0.340885	0.888963	0.500008
H63	H	-0.891615	-0.025733	0.000005
H64	H	-0.391615	0.474267	0.500005
C65	C	-1.248750	-0.148293	-0.000019
C66	C	-0.748750	0.351707	0.499981
H67	H	-1.267441	-0.062885	-0.000029
H68	H	-0.767441	0.437115	0.499971
H69	H	-1.201206	-0.164019	0.075507
H70	H	-0.701206	0.335981	0.575507
H71	H	-1.201239	-0.164012	-0.075569
H72	H	-0.701239	0.335988	0.424431
C73	C	-1.093294	0.428410	-0.000007
C74	C	-0.593294	0.928410	0.499993
H75	H	-1.027185	0.494939	0.000006
H76	H	-0.527185	0.994939	0.500006
H77	H	-1.143827	0.434526	-0.075541
H78	H	-0.643827	0.934526	0.424459
H79	H	-1.143818	0.434509	0.075535
H80	H	-0.643818	0.934509	0.575535
H81	H	-1.129319	-0.019414	0.000000
H82	H	-0.629319	0.480586	0.500000
C83	C	-1.728737	-0.207031	0.000021
C84	C	-1.228737	0.292969	0.500021
H85	H	-1.714694	-0.117616	0.000038
H86	H	-1.214694	0.382384	0.500038
H87	H	-1.775133	-0.234238	-0.075511
H88	H	-1.275133	0.265762	0.424489
H89	H	-1.775113	-0.234260	0.075565
H90	H	-1.275113	0.265740	0.575565
H91	H	-1.689284	-0.459444	-0.000010
H92	H	-1.189284	0.040556	0.499990
H93	H	-1.274605	-0.408725	-0.000033
H94	H	-0.774605	0.091275	0.499967
