data_functionalizedCrystal
_audit_creation_method	'MofGen! by Chris Wilmer'
_symmetry_space_group_name_H-M	'P1'
_symmetry_Int_Tables_number	1
_symmetry_cell_setting	triclinic
loop_
_symmetry_equiv_pos_as_xyz
  x,y,z
_cell_length_a	19.188930
_cell_length_b	12.811457
_cell_length_c	18.266242
_cell_angle_alpha	95.423010
_cell_angle_beta	89.989745
_cell_angle_gamma	83.596719
loop_
_atom_site_label
_atom_site_type_symbol
_atom_site_fract_x
_atom_site_fract_y
_atom_site_fract_z
O1	O	0.094033	1.392223	0.031546
O2	O	0.104260	1.086598	0.011252
O3	O	-0.002466	1.248230	0.021999
O4	O	0.200758	1.230591	0.020799
O5	O	-0.002469	1.248203	0.143759
O6	O	0.104257	1.086570	0.133012
O7	O	0.094030	1.392196	0.153306
Zn8	Zn	0.099143	1.239379	0.162491
Zn9	Zn	0.099147	1.239415	0.002067
O10	O	0.200755	1.230563	0.142559
C11	C	0.103686	1.047483	0.069536
C12	C	0.101970	0.930976	0.061800
C13	C	0.098731	0.712016	0.180021
C14	C	0.097119	0.602547	0.172757
C15	C	0.097130	0.602566	0.040006
C16	C	0.098742	0.712036	0.047271
C17	C	0.099543	0.766757	0.117281
C18	C	0.101160	0.876227	0.124545
C19	C	0.101166	0.876246	-0.008205
C20	C	0.099554	0.766776	-0.015469
C21	C	-0.028481	1.247645	0.082843
C22	C	-0.105994	1.245930	0.082735
C23	C	-0.150450	1.340771	0.089037
C24	C	-0.223282	1.339160	0.088918
C25	C	-0.251654	1.242703	0.082512
C26	C	-0.207188	1.147850	0.076206
C27	C	-0.134358	1.149464	0.076318
N28	N	-0.360024	1.168964	0.119054
N29	N	-0.429210	1.167437	0.118950
C30	C	-0.471087	1.237835	0.082174
N31	N	-0.441166	1.309833	0.045517
N32	N	-0.371973	1.311363	0.045624
C33	C	-0.330626	1.240943	0.082390
C34	C	-0.594516	1.330936	0.088346
C35	C	-0.667349	1.329321	0.088223
C36	C	-0.651254	1.138008	0.075518
C37	C	-0.578423	1.139626	0.075635
C38	C	-0.550059	1.236092	0.082052
C39	C	0.226771	1.231148	0.081713
C40	C	0.304284	1.232863	0.081816
C41	C	0.094604	1.431310	0.095021
C42	C	0.096319	1.547818	0.102752
N43	N	0.099139	1.239362	0.271977
N44	N	0.099145	1.239440	-0.107418
C45	C	0.141698	1.302812	0.314487
C46	C	0.141696	1.302829	0.391133
C47	C	0.099144	1.239377	0.425265
C48	C	0.056577	1.175922	0.382746
C49	C	0.056575	1.175915	0.306102
N50	N	0.096970	1.147457	0.539514
N51	N	0.096976	1.147467	0.612323
C52	C	0.099146	1.239398	0.656189
N53	N	0.101324	1.331319	0.624495
N54	N	0.101321	1.331307	0.551679
C55	C	0.099141	1.239379	0.508372
C56	C	0.141705	1.302872	0.781807
C57	C	0.141698	1.302892	0.858455
C58	C	0.056583	1.175975	0.850065
C59	C	0.056586	1.175965	0.773420
C60	C	0.099151	1.239412	0.739295
H61	H	-0.127362	1.419322	0.094260
N62	N	-0.088943	1.052582	0.069870
N63	N	-0.091674	0.988372	0.014276
H64	H	-0.059597	0.919948	0.009722
N65	N	0.185163	1.367644	0.434577
N66	N	0.158131	1.437162	0.481958
H67	H	0.188830	1.482938	0.512640
H68	H	0.101817	0.920778	0.181550
H69	H	0.099392	0.756569	0.237026
H70	H	0.176355	1.354480	0.286707
N71	N	0.096284	0.546647	0.236852
N72	N	0.096997	0.595523	0.299353
H73	H	0.096406	0.556045	0.344624
N74	N	0.013116	1.111171	0.884933
N75	N	0.013122	1.111187	0.953365
H76	H	-0.017579	1.065419	0.977994
H77	H	-0.230294	1.069314	0.070989
H78	H	-0.259485	1.416393	0.094046
N79	N	-0.680226	1.039478	0.068989
N80	N	-0.666716	0.975602	0.116075
H81	H	-0.687180	0.906011	0.111462
H82	H	0.021918	1.124244	0.271490
H83	H	0.096465	0.557996	-0.016992
N84	N	0.098729	0.710861	-0.086973
N85	N	0.097287	0.613122	-0.093452
H86	H	0.096706	0.573632	-0.143952
N87	N	0.013114	1.111137	0.730003
N88	N	-0.024877	1.054486	0.760484
H89	H	-0.055582	1.008698	0.729822
H90	H	0.176352	1.354568	0.893066
N91	N	0.013110	1.111120	0.417619
N92	N	0.013118	1.111134	0.486051
H93	H	-0.017584	1.065368	0.510681
N94	N	0.101987	0.932180	-0.072290
N95	N	0.103421	1.029921	-0.065796
H96	H	0.103998	1.069428	-0.111055
H97	H	-0.703545	1.406555	0.093350
N98	N	-0.565549	1.429478	0.094904
N99	N	-0.605255	1.514153	0.100525
H100	H	-0.584799	1.583751	0.105158
N101	N	-0.533017	1.042737	0.069200
N102	N	-0.558355	0.956620	0.063478
H103	H	-0.526288	0.888187	0.058931
H104	H	0.176363	1.354535	0.754021
