data_functionalizedCrystal
_audit_creation_method	'MofGen! by Chris Wilmer'
_symmetry_space_group_name_H-M	'P1'
_symmetry_Int_Tables_number	1
_symmetry_cell_setting	triclinic
loop_
_symmetry_equiv_pos_as_xyz
  x,y,z
_cell_length_a	19.188930
_cell_length_b	15.944551
_cell_length_c	14.421503
_cell_angle_alpha	90.010022
_cell_angle_beta	90.014354
_cell_angle_gamma	96.678240
loop_
_atom_site_label
_atom_site_type_symbol
_atom_site_fract_x
_atom_site_fract_y
_atom_site_fract_z
O1	O	0.090054	-1.114174	0.077026
O2	O	0.423387	-0.780841	0.410359
O3	O	0.756720	-0.447508	0.743692
O4	O	0.101156	-0.869583	0.077050
O5	O	0.434489	-0.536250	0.410383
O6	O	0.767822	-0.202916	0.743717
O7	O	-0.006033	-0.998937	0.077019
O8	O	0.327301	-0.665604	0.410352
O9	O	0.660634	-0.332270	0.743686
O10	O	0.197242	-0.984820	0.077057
O11	O	0.530575	-0.651487	0.410390
O12	O	0.863909	-0.318154	0.743723
O13	O	-0.006048	-0.998952	-0.077204
O14	O	0.327286	-0.665619	0.256129
O15	O	0.660619	-0.332285	0.589462
O16	O	0.101141	-0.869598	-0.077173
O17	O	0.434474	-0.536265	0.256160
O18	O	0.767807	-0.202931	0.589493
O19	O	0.090039	-1.114189	-0.077198
O20	O	0.423372	-0.780856	0.256136
O21	O	0.756705	-0.447522	0.589469
Cu22	Cu	0.095588	-0.991895	-0.091267
Cu23	Cu	0.428922	-0.658562	0.242066
Cu24	Cu	0.762255	-0.325228	0.575399
Cu25	Cu	0.095606	-0.991877	0.091120
Cu26	Cu	0.428939	-0.658544	0.424453
Cu27	Cu	0.762273	-0.325211	0.757786
O28	O	0.197227	-0.984835	-0.077167
O29	O	0.530560	-0.651502	0.256167
O30	O	0.863894	-0.318169	0.589500
C31	C	0.100687	-0.838298	-0.000059
C32	C	0.434021	-0.504965	0.333275
C33	C	0.767354	-0.171632	0.666608
C34	C	0.099306	-0.745057	-0.000050
C35	C	0.432639	-0.411724	0.333283
C36	C	0.765972	-0.078391	0.666616
C37	C	-0.032052	-0.998487	-0.000095
C38	C	0.301281	-0.665154	0.333238
C39	C	0.634614	-0.331821	0.666571
C40	C	-0.109560	-0.997115	-0.000103
C41	C	0.223773	-0.663782	0.333230
C42	C	0.557106	-0.330448	0.666564
N43	N	0.095613	-0.991865	0.219401
N44	N	0.428947	-0.658532	0.552734
N45	N	0.762280	-0.325199	0.886068
C46	C	-0.154288	-1.073016	-0.000115
C47	C	0.179045	-0.739682	0.333218
C48	C	0.512379	-0.406349	0.666552
C49	C	-0.227115	-1.071726	-0.000100
C50	C	0.106218	-0.738393	0.333233
C51	C	0.439551	-0.405060	0.666567
C52	C	-0.255211	-0.994532	-0.000092
C53	C	0.078122	-0.661199	0.333242
C54	C	0.411455	-0.327866	0.666575
C55	C	-0.210474	-0.918622	-0.000075
C56	C	0.122859	-0.585288	0.333259
C57	C	0.456193	-0.251955	0.666592
C58	C	-0.137648	-0.919913	-0.000080
C59	C	0.195685	-0.586580	0.333253
C60	C	0.529018	-0.253246	0.666586
N61	N	-0.363374	-0.935531	-0.052571
N62	N	-0.030041	-0.602198	0.280762
N63	N	0.303293	-0.268865	0.614096
N64	N	-0.432556	-0.934310	-0.052568
N65	N	-0.099222	-0.600977	0.280766
N66	N	0.234111	-0.267643	0.614099
C67	C	-0.474630	-0.990637	-0.000073
C68	C	-0.141297	-0.657303	0.333261
C69	C	0.192037	-0.323970	0.666594
N70	N	-0.444911	-1.048244	0.052407
N71	N	-0.111577	-0.714911	0.385741
N72	N	0.221756	-0.381577	0.719074
N73	N	-0.375723	-1.049468	0.052400
N74	N	-0.042389	-0.716135	0.385733
N75	N	0.290944	-0.382801	0.719066
C76	C	-0.334178	-0.993123	-0.000085
C77	C	-0.000844	-0.659790	0.333248
C78	C	0.332489	-0.326457	0.666582
C79	C	-0.598326	-1.065145	-0.000067
C80	C	-0.264993	-0.731811	0.333266
C81	C	0.068341	-0.398478	0.666600
C82	C	-0.671154	-1.063852	-0.000046
C83	C	-0.337821	-0.730519	0.333287
C84	C	-0.004487	-0.397185	0.666620
C85	C	-0.654511	-0.910745	-0.000030
C86	C	-0.321178	-0.577412	0.333303
C87	C	0.012156	-0.244078	0.666637
C88	C	-0.581685	-0.912040	-0.000041
C89	C	-0.248351	-0.578706	0.333292
C90	C	0.084982	-0.245373	0.666625
C91	C	-0.553597	-0.989242	-0.000064
C92	C	-0.220263	-0.655908	0.333269
C93	C	0.113070	-0.322575	0.666602
C94	C	0.223247	-0.985285	-0.000050
C95	C	0.556580	-0.651952	0.333283
C96	C	0.889913	-0.318618	0.666616
C97	C	0.300755	-0.986657	-0.000036
C98	C	0.634088	-0.653324	0.333297
C99	C	0.967422	-0.319991	0.666630
C100	C	0.090507	-1.145474	-0.000087
C101	C	0.423840	-0.812141	0.333246
C102	C	0.757174	-0.478807	0.666580
C103	C	0.091889	-1.238715	-0.000089
C104	C	0.425222	-0.905381	0.333244
C105	C	0.758555	-0.572048	0.666577
C106	C	0.029562	-0.530462	-0.000081
C107	C	0.362896	-0.197128	0.333252
C108	C	0.696229	0.136205	0.666585
C109	C	0.061956	-0.469313	0.075965
C110	C	0.395289	-0.135980	0.409298
C111	C	0.728623	0.197354	0.742632
C112	C	0.096806	-0.574341	-0.000062
C113	C	0.430139	-0.241008	0.333272
C114	C	0.763473	0.092326	0.666605
C115	C	0.061957	-0.469350	-0.076087
C116	C	0.395291	-0.136017	0.257246
C117	C	0.728624	0.197317	0.590580
C118	C	0.094386	-0.409437	-0.000077
C119	C	0.427720	-0.076104	0.333257
C120	C	0.761053	0.257229	0.666590
C121	C	0.129218	-0.514420	0.076047
C122	C	0.462551	-0.181087	0.409381
C123	C	0.795885	0.152246	0.742714
C124	C	0.129210	-0.514464	-0.076073
C125	C	0.462543	-0.181130	0.257260
C126	C	0.795876	0.152203	0.590594
C127	C	0.161652	-0.453332	-0.000008
C128	C	0.494986	-0.119999	0.333325
C129	C	0.828319	0.213334	0.666658
C130	C	0.098198	-0.669338	-0.000052
C131	C	0.431531	-0.336005	0.333281
C132	C	0.764864	-0.002671	0.666614
C133	C	0.093000	-0.314441	-0.000080
C134	C	0.426333	0.018892	0.333254
C135	C	0.759666	0.352225	0.666587
N136	N	0.095576	-0.991913	-0.219549
N137	N	0.428909	-0.658580	0.113785
N138	N	0.762242	-0.325247	0.447118
C139	C	0.145078	-0.931940	0.469063
C140	C	0.478411	-0.598606	0.802396
C141	C	0.811745	-0.265273	1.135730
C142	C	0.081937	-0.916065	0.530858
C143	C	0.415270	-0.582731	0.864192
C144	C	0.748603	-0.249398	1.197525
C145	C	0.095599	-0.991881	0.408562
C146	C	0.428932	-0.658548	0.741896
C147	C	0.762266	-0.325215	1.075229
C148	C	0.158727	-1.007733	0.530861
C149	C	0.492060	-0.674399	0.864194
C150	C	0.825393	-0.341066	1.197528
C151	C	0.095591	-0.991895	0.591284
C152	C	0.428924	-0.658562	0.924617
C153	C	0.762258	-0.325228	1.257950
C154	C	0.032426	-0.975969	0.468997
C155	C	0.365759	-0.642636	0.802330
C156	C	0.699093	-0.309302	1.135663
C157	C	0.109257	-1.067670	0.468994
C158	C	0.442591	-0.734336	0.802327
C159	C	0.775924	-0.401003	1.135661
C160	C	0.046071	-1.051827	0.530761
C161	C	0.379404	-0.718494	0.864095
C162	C	0.712737	-0.385161	1.197428
C163	C	0.095605	-0.991871	0.303301
C164	C	0.428938	-0.658538	0.636635
C165	C	0.762271	-0.325205	0.969968
C166	C	0.095578	-0.991905	0.696543
C167	C	0.428911	-0.658572	1.029876
C168	C	0.762245	-0.325239	1.363209
H169	H	-0.131424	-1.135880	-0.000131
H170	H	0.201909	-0.802546	0.333203
H171	H	0.535243	-0.469213	0.666536
H172	H	0.157644	-0.534295	0.140409
H173	H	0.490977	-0.200962	0.473742
H174	H	0.824311	0.132371	0.807075
H175	H	0.157621	-0.534495	-0.140358
H176	H	0.490955	-0.201162	0.192976
H177	H	0.824288	0.132172	0.526309
O178	O	0.235652	-0.409137	0.000043
O179	O	0.568985	-0.075804	0.333376
O180	O	0.902318	0.257529	0.666709
H181	H	0.263396	-0.427185	0.063225
H182	H	0.596730	-0.093852	0.396558
H183	H	0.930063	0.239481	0.729891
H184	H	0.212118	-1.021145	0.558018
H185	H	0.545451	-0.687812	0.891352
H186	H	0.878785	-0.354479	1.224685
H187	H	-0.233354	-0.855769	-0.000066
H188	H	0.099979	-0.522436	0.333268
H189	H	0.433312	-0.189103	0.666601
O190	O	-0.275372	-1.153593	-0.000126
O191	O	0.057962	-0.820259	0.333208
O192	O	0.391295	-0.486926	0.666541
H193	H	-0.243605	-1.207492	-0.000150
H194	H	0.089728	-0.874159	0.333183
H195	H	0.423062	-0.540825	0.666517
O196	O	-0.038317	-0.958118	0.433177
O197	O	0.295017	-0.624784	0.766511
O198	O	0.628350	-0.291451	1.099844
H199	H	-0.031860	-0.899888	0.390370
H200	H	0.301474	-0.566554	0.723703
H201	H	0.634807	-0.233221	1.057036
O202	O	-0.009413	-1.118986	0.566435
O203	O	0.323921	-0.785652	0.899768
O204	O	0.657254	-0.452319	1.233101
H205	H	-0.061734	-1.105629	0.541523
H206	H	0.271600	-0.772295	0.874857
H207	H	0.604933	-0.438962	1.208190
H208	H	0.033498	-0.449376	-0.140376
H209	H	0.366831	-0.116043	0.192957
H210	H	0.700164	0.217290	0.526290
H211	H	-0.575456	-1.128007	-0.000081
H212	H	-0.242122	-0.794674	0.333252
H213	H	0.091211	-0.461340	0.666585
H214	H	-0.101230	-0.858103	-0.000071
H215	H	0.232103	-0.524770	0.333263
H216	H	0.565436	-0.191437	0.666596
O217	O	0.124586	-1.152534	0.432961
O218	O	0.457920	-0.819201	0.766294
O219	O	0.791253	-0.485868	1.099628
H220	H	0.172645	-1.144190	0.389543
H221	H	0.505978	-0.810857	0.722877
H222	H	0.839311	-0.477524	1.056210
O223	O	-0.719402	-1.145720	-0.000067
O224	O	-0.386069	-0.812387	0.333266
O225	O	-0.052736	-0.479053	0.666600
H226	H	-0.687633	-1.199616	-0.000096
H227	H	-0.354299	-0.866283	0.333238
H228	H	-0.020966	-0.532949	0.666571
O229	O	0.024292	-0.442803	0.161111
O230	O	0.357626	-0.109469	0.494445
O231	O	0.690959	0.223864	0.827778
H232	H	0.060689	-0.398651	0.202907
H233	H	0.394022	-0.065317	0.536240
H234	H	0.727356	0.268016	0.869574
H235	H	-0.677386	-0.847892	-0.000019
H236	H	-0.344053	-0.514559	0.333315
H237	H	-0.010719	-0.181225	0.666648
H238	H	0.186876	-0.881210	0.441971
H239	H	0.520209	-0.547877	0.775304
H240	H	0.853542	-0.214544	1.108638
H241	H	0.070379	-0.851979	0.558038
H242	H	0.403712	-0.518646	0.891372
H243	H	0.737045	-0.185313	1.224705
H244	H	-0.026244	-0.564003	0.000003
H245	H	0.307089	-0.230670	0.333336
H246	H	0.640423	0.102663	0.666669
O247	O	-0.533435	-0.830175	-0.000052
O248	O	-0.200102	-0.496842	0.333282
O249	O	0.133232	-0.163509	0.666615
H250	H	-0.565204	-0.776279	-0.000054
H251	H	-0.231871	-0.442946	0.333279
H252	H	0.101462	-0.109612	0.666612
