data_functionalizedCrystal
_audit_creation_method	'MofGen! by Chris Wilmer'
_symmetry_space_group_name_H-M	'P1'
_symmetry_Int_Tables_number	1
_symmetry_cell_setting	triclinic
loop_
_symmetry_equiv_pos_as_xyz
  x,y,z
_cell_length_a	8.559649
_cell_length_b	14.044220
_cell_length_c	7.088929
_cell_angle_alpha	83.206932
_cell_angle_beta	95.325015
_cell_angle_gamma	81.483771
loop_
_atom_site_label
_atom_site_type_symbol
_atom_site_fract_x
_atom_site_fract_y
_atom_site_fract_z
O1	O	2.100735	-0.021003	-0.158955
O2	O	1.642435	0.027448	-0.158968
O3	O	1.864708	-0.134262	-0.158943
O4	O	1.878463	0.140708	-0.158981
O5	O	1.894406	-0.155917	0.159035
O6	O	1.672134	0.005793	0.159010
O7	O	2.130433	-0.042657	0.159023
Cu8	Cu	1.903995	-0.020409	0.188051
Cu9	Cu	1.868874	0.005200	-0.187996
O10	O	1.908161	0.119053	0.158998
C11	C	1.598278	0.020292	0.000019
C12	C	1.422455	0.031222	0.000015
C13	C	1.873535	-0.179966	0.000047
C14	C	1.855571	-0.283884	0.000048
C15	C	1.822727	-0.474153	0.000020
C16	C	1.950133	-0.541060	0.000018
C17	C	1.931858	-0.646933	0.000002
C18	C	1.841000	-0.368270	0.000036
C19	C	2.174590	-0.035501	0.000031
C20	C	2.350412	-0.046430	0.000023
C21	C	1.899334	0.164757	0.000004
C22	C	1.917296	0.268676	-0.000011
N23	N	1.928709	-0.038422	0.452541
N24	N	1.844171	0.023205	-0.452487
H25	H	1.423242	-0.121272	0.000024
O26	O	2.033142	-0.114726	0.549745
C27	C	1.989431	-0.202386	0.501028
H28	H	1.914993	-0.187975	0.355652
H29	H	1.916960	-0.233229	0.613665
C30	C	2.231558	-0.293643	0.670586
C31	C	2.140143	-0.275945	0.492026
H32	H	2.324523	-0.339020	0.665041
H33	H	2.261005	-0.234586	0.703415
H34	H	2.171148	-0.319340	0.764432
H35	H	2.200546	-0.250236	0.398189
H36	H	2.110709	-0.334999	0.459181
O37	O	1.739435	0.099357	0.450320
C38	C	1.585195	0.092273	0.499084
H39	H	1.593645	0.046282	0.644476
H40	H	1.519078	0.056784	0.386480
C41	C	1.484228	0.251091	0.329487
C42	C	1.494608	0.194610	0.508068
H43	H	1.428346	0.314217	0.335021
H44	H	1.588142	0.255863	0.296627
H45	H	1.429135	0.221506	0.235669
H46	H	1.549717	0.224189	0.601877
H47	H	1.390701	0.189846	0.540944
O48	O	1.335343	0.120442	0.000080
C49	C	1.173292	0.111867	0.000021
H50	H	1.162234	0.034515	0.060232
H51	H	1.111848	0.129250	-0.152534
C52	C	1.107796	0.278515	0.050748
C53	C	1.094214	0.183511	0.124716
H54	H	1.059013	0.322711	0.127658
H55	H	1.216971	0.284294	0.050781
H56	H	1.056593	0.292987	-0.076380
H57	H	1.145433	0.169037	0.251832
H58	H	0.985045	0.177732	0.124707
O59	O	2.096531	-0.514388	0.000126
C60	C	2.082428	-0.413081	0.000093
H61	H	1.967849	-0.385333	0.060278
H62	H	2.079666	-0.375984	-0.152451
C63	C	2.366258	-0.424095	0.050902
C64	C	2.225537	-0.390016	0.124837
H65	H	2.454537	-0.409865	0.127841
H66	H	2.375762	-0.492347	0.050917
H67	H	2.363934	-0.393177	-0.076217
H68	H	2.227855	-0.420942	0.251943
H69	H	2.216038	-0.321768	0.124846
O70	O	1.676294	-0.500769	-0.000231
C71	C	1.642750	-0.544737	-0.164941
H72	H	1.758851	-0.574318	-0.219861
H73	H	1.568047	-0.488608	-0.280249
C74	C	1.407590	-0.592295	-0.047459
C75	C	1.550188	-0.628635	-0.114903
H76	H	1.350487	-0.644044	-0.016598
H77	H	1.430185	-0.562670	0.063506
H78	H	1.345357	-0.545520	-0.143560
H79	H	1.612427	-0.675399	-0.018794
H80	H	1.527601	-0.658270	-0.225852
