data_functionalizedCrystal
_audit_creation_method	'MofGen! by Chris Wilmer'
_symmetry_space_group_name_H-M	'P1'
_symmetry_Int_Tables_number	1
_symmetry_cell_setting	triclinic
loop_
_symmetry_equiv_pos_as_xyz
  x,y,z
_cell_length_a	18.050591
_cell_length_b	13.897448
_cell_length_c	13.897441
_cell_angle_alpha	90.030599
_cell_angle_beta	90.027901
_cell_angle_gamma	90.013698
loop_
_atom_site_label
_atom_site_type_symbol
_atom_site_fract_x
_atom_site_fract_y
_atom_site_fract_z
Zn1	Zn	1.135398	-0.384087	0.545566
Zn2	Zn	1.385398	-0.134087	0.795566
Zn3	Zn	1.635398	0.115913	1.045566
Zn4	Zn	1.885398	0.365913	1.295566
Zn5	Zn	1.135316	-0.545409	0.384267
Zn6	Zn	1.385316	-0.295409	0.634267
Zn7	Zn	1.635316	-0.045409	0.884267
Zn8	Zn	1.885316	0.204591	1.134267
Zn9	Zn	1.011202	-0.384118	0.384264
Zn10	Zn	1.261202	-0.134118	0.634264
Zn11	Zn	1.511202	0.115882	0.884264
Zn12	Zn	1.761202	0.365882	1.134264
Zn13	Zn	1.011188	-0.545330	0.545499
Zn14	Zn	1.261188	-0.295330	0.795499
Zn15	Zn	1.511188	-0.045330	1.045499
Zn16	Zn	1.761188	0.204670	1.295499
O17	O	1.073276	-0.464736	0.464899
O18	O	1.323276	-0.214736	0.714899
O19	O	1.573276	0.035264	0.964899
O20	O	1.823276	0.285264	1.214899
O21	O	1.239312	-0.405506	0.524198
O22	O	1.489312	-0.155506	0.774198
O23	O	1.739312	0.094494	1.024198
O24	O	1.989312	0.344494	1.274198
O25	O	1.118824	-0.524059	0.249285
O26	O	1.368824	-0.274059	0.499285
O27	O	1.618824	-0.024059	0.749285
O28	O	1.868824	0.225941	0.999285
O29	O	1.027717	-0.249132	0.405687
O30	O	1.277717	0.000868	0.655687
O31	O	1.527717	0.250868	0.905687
O32	O	1.777717	0.500868	1.155687
O33	O	1.239252	-0.524029	0.405693
O34	O	1.489252	-0.274029	0.655693
O35	O	1.739252	-0.024029	0.905693
O36	O	1.989252	0.225971	1.155693
O37	O	1.118963	-0.249109	0.524195
O38	O	1.368963	0.000891	0.774195
O39	O	1.618963	0.250891	1.024195
O40	O	1.868963	0.500891	1.274195
O41	O	1.027638	-0.405559	0.249282
O42	O	1.277638	-0.155559	0.499282
O43	O	1.527638	0.094441	0.749282
O44	O	1.777638	0.344441	0.999282
O45	O	0.907276	-0.405483	0.405623
O46	O	1.157276	-0.155483	0.655623
O47	O	1.407276	0.094517	0.905623
O48	O	1.657276	0.344517	1.155623
O49	O	1.027693	-0.523895	0.680490
O50	O	1.277693	-0.273895	0.930490
O51	O	1.527693	-0.023895	1.180490
O52	O	1.777693	0.226105	1.430490
O53	O	0.907265	-0.523925	0.524082
O54	O	1.157265	-0.273925	0.774082
O55	O	1.407265	-0.023925	1.024082
O56	O	1.657265	0.226075	1.274082
O57	O	1.118950	-0.405430	0.680539
O58	O	1.368950	-0.155430	0.930539
O59	O	1.618950	0.094570	1.180539
O60	O	1.868950	0.344570	1.430539
O61	O	1.118810	-0.680380	0.405628
O62	O	1.368810	-0.430380	0.655628
O63	O	1.618810	-0.180380	0.905628
O64	O	1.868810	0.069620	1.155628
O65	O	1.027614	-0.680322	0.524085
O66	O	1.277614	-0.430322	0.774085
O67	O	1.527614	-0.180322	1.024085
O68	O	1.777614	0.069678	1.274085
C69	C	0.880324	-0.464700	0.464846
C70	C	1.130324	-0.214700	0.714846
C71	C	1.380324	0.035300	0.964846
C72	C	1.630324	0.285300	1.214846
C73	C	0.797778	-0.464708	0.464846
C74	C	1.047778	-0.214708	0.714846
C75	C	1.297778	0.035292	0.964846
C76	C	1.547778	0.285292	1.214846
C77	C	1.073222	-0.715350	0.464871
C78	C	1.323222	-0.465350	0.714871
C79	C	1.573222	-0.215350	0.964871
C80	C	1.823222	0.034650	1.214871
C81	C	1.073267	-0.822564	0.464891
C82	C	1.323267	-0.572564	0.714891
C83	C	1.573267	-0.322564	0.964891
C84	C	1.823267	-0.072564	1.214891
C85	C	1.073345	-1.018859	0.464952
C86	C	1.323345	-0.768859	0.714952
C87	C	1.573345	-0.518859	0.964952
C88	C	1.823345	-0.268859	1.214952
C89	C	1.073299	-0.909627	0.464921
C90	C	1.323299	-0.659627	0.714921
C91	C	1.573299	-0.409627	0.964921
C92	C	1.823299	-0.159627	1.214921
C93	C	0.598312	-0.400224	0.400576
C94	C	0.848312	-0.150224	0.650576
C95	C	1.098312	0.099776	0.900576
C96	C	1.348312	0.349776	1.150576
C97	C	0.548902	-0.488207	0.376841
C98	C	0.798902	-0.238207	0.626841
C99	C	1.048902	0.011793	0.876841
C100	C	1.298902	0.261793	1.126841
C101	C	0.646648	-0.464737	0.464889
C102	C	0.896648	-0.214737	0.714889
C103	C	1.146648	0.035263	0.964889
C104	C	1.396648	0.285263	1.214889
C105	C	0.548976	-0.376785	0.488622
C106	C	0.798976	-0.126785	0.738622
C107	C	1.048976	0.123215	0.988622
C108	C	1.298976	0.373215	1.238622
C109	C	0.500663	-0.464758	0.464930
C110	C	0.750663	-0.214758	0.714930
C111	C	1.000663	0.035242	0.964930
C112	C	1.250663	0.285242	1.214930
C113	C	0.598326	-0.552766	0.441108
C114	C	0.848326	-0.302766	0.691108
C115	C	1.098326	-0.052766	0.941108
C116	C	1.348326	0.197234	1.191108
C117	C	0.598403	-0.441285	0.552930
C118	C	0.848403	-0.191285	0.802930
C119	C	1.098403	0.058715	1.052930
C120	C	1.348403	0.308715	1.302930
C121	C	0.549016	-0.529328	0.529228
C122	C	0.799016	-0.279328	0.779228
C123	C	1.049016	-0.029328	1.029228
C124	C	1.299016	0.220672	1.279228
C125	C	0.730746	-0.464724	0.464864
C126	C	0.980746	-0.214724	0.714864
C127	C	1.230746	0.035276	0.964864
C128	C	1.480746	0.285276	1.214864
C129	C	0.416566	-0.464781	0.464955
C130	C	0.666566	-0.214781	0.714955
C131	C	0.916566	0.035219	0.964955
C132	C	1.166566	0.285219	1.214955
C133	C	1.266982	-0.464773	0.464953
C134	C	1.516982	-0.214773	0.714953
C135	C	1.766982	0.035227	0.964953
C136	C	2.016982	0.285227	1.214953
C137	C	1.349528	-0.464788	0.464976
C138	C	1.599528	-0.214788	0.714976
C139	C	1.849528	0.035212	0.964976
C140	C	2.099528	0.285212	1.214976
C141	C	1.073329	-0.464651	0.716492
C142	C	1.323329	-0.214651	0.966492
C143	C	1.573329	0.035349	1.216492
C144	C	1.823329	0.285349	1.466492
C145	C	1.073351	-0.464614	0.823706
C146	C	1.323351	-0.214614	1.073706
C147	C	1.573351	0.035386	1.323706
C148	C	1.823351	0.285386	1.573706
C149	C	1.073351	-0.213143	0.464948
C150	C	1.323351	0.036857	0.714948
C151	C	1.573351	0.286857	0.964948
C152	C	1.823351	0.536857	1.214948
C153	C	1.073383	-0.105929	0.464969
C154	C	1.323383	0.144071	0.714969
C155	C	1.573383	0.394071	0.964969
C156	C	1.823383	0.644071	1.214969
C157	C	1.073266	-0.464751	0.214285
C158	C	1.323266	-0.214751	0.464285
C159	C	1.573266	0.035249	0.714285
C160	C	1.823266	0.285249	0.964285
C161	C	1.073388	-0.464516	0.107071
C162	C	1.323388	-0.214516	0.357071
C163	C	1.573388	0.035484	0.607071
C164	C	1.823388	0.285484	0.857071
C165	C	1.073371	-0.464549	1.020001
C166	C	1.323371	-0.214549	1.270001
C167	C	1.573371	0.035451	1.520001
C168	C	1.823371	0.285451	1.770001
C169	C	1.073358	-0.464588	0.910769
C170	C	1.323358	-0.214588	1.160769
C171	C	1.573358	0.035412	1.410769
C172	C	1.823358	0.285412	1.660769
H173	H	0.527160	-0.508058	0.302403
H174	H	0.777160	-0.258058	0.552403
H175	H	1.027160	-0.008058	0.802403
H176	H	1.277160	0.241942	1.052403
H177	H	0.619957	-0.345727	0.346129
H178	H	0.869957	-0.095727	0.596129
H179	H	1.119957	0.154273	0.846129
H180	H	1.369957	0.404273	1.096129
C181	C	0.627572	-0.414845	0.652097
C182	C	0.877572	-0.164845	0.902097
C183	C	1.127572	0.085155	1.152097
C184	C	1.377572	0.335155	1.402097
C185	C	0.705127	-0.416075	0.650946
C186	C	0.955127	-0.166075	0.900946
C187	C	1.205127	0.083925	1.150946
C188	C	1.455127	0.333925	1.400946
C189	C	0.732025	-0.391722	0.742282
C190	C	0.982025	-0.141722	0.992282
C191	C	1.232025	0.108278	1.242282
C192	C	1.482025	0.358278	1.492282
H193	H	0.610786	-0.352295	0.668948
H194	H	0.860786	-0.102295	0.918948
H195	H	1.110786	0.147705	1.168948
H196	H	1.360786	0.397705	1.418948
H197	H	0.610004	-0.460057	0.697986
H198	H	0.860004	-0.210057	0.947986
H199	H	1.110004	0.039943	1.197986
H200	H	1.360004	0.289943	1.447986
H201	H	0.722688	-0.370865	0.605071
H202	H	0.972688	-0.120865	0.855071
H203	H	1.222688	0.129135	1.105071
H204	H	1.472688	0.379135	1.355071
H205	H	0.721933	-0.478617	0.634112
H206	H	0.971933	-0.228617	0.884112
H207	H	1.221933	0.021383	1.134112
H208	H	1.471933	0.271383	1.384112
H209	H	0.714457	-0.436934	0.788172
H210	H	0.964457	-0.186934	1.038172
H211	H	1.214457	0.063066	1.288172
H212	H	1.464457	0.313066	1.538172
H213	H	0.715234	-0.329173	0.759126
H214	H	0.965234	-0.079173	1.009126
H215	H	1.215234	0.170827	1.259126
H216	H	1.465234	0.420827	1.509126
H217	H	0.784648	-0.392562	0.741516
H218	H	1.034648	-0.142562	0.991516
H219	H	1.284648	0.107438	1.241516
H220	H	1.534648	0.357438	1.491516
H221	H	0.527508	-0.583956	0.583633
H222	H	0.777508	-0.333956	0.833633
H223	H	1.027508	-0.083956	1.083633
H224	H	1.277508	0.166044	1.333633
H225	H	0.527259	-0.302407	0.508645
H226	H	0.777259	-0.052407	0.758645
H227	H	1.027259	0.197593	1.008645
H228	H	1.277259	0.447593	1.258645
H229	H	0.619913	-0.627176	0.420969
H230	H	0.869913	-0.377176	0.670969
H231	H	1.119913	-0.127176	0.920969
H232	H	1.369913	0.122824	1.170969
