data_functionalizedCrystal
_audit_creation_method	'MofGen! by Chris Wilmer'
_symmetry_space_group_name_H-M	'P1'
_symmetry_Int_Tables_number	1
_symmetry_cell_setting	triclinic
loop_
_symmetry_equiv_pos_as_xyz
  x,y,z
_cell_length_a	12.759401
_cell_length_b	12.759394
_cell_length_c	12.759393
_cell_angle_alpha	89.967655
_cell_angle_beta	89.981425
_cell_angle_gamma	90.015263
loop_
_atom_site_label
_atom_site_type_symbol
_atom_site_fract_x
_atom_site_fract_y
_atom_site_fract_z
Zn1	Zn	1.606254	-0.418192	-0.593979
Zn2	Zn	1.606148	-0.593911	-0.418297
Zn3	Zn	1.430556	-0.418248	-0.418318
Zn4	Zn	1.430544	-0.593831	-0.593938
O5	O	1.518376	-0.506046	-0.506133
O6	O	1.753261	-0.441512	-0.570683
O7	O	1.582816	-0.570666	-0.271279
O8	O	1.453912	-0.271220	-0.441646
O9	O	1.753183	-0.570612	-0.441610
O10	O	1.582997	-0.271178	-0.570704
O11	O	1.453809	-0.441607	-0.271295
O12	O	1.283533	-0.441529	-0.441607
O13	O	1.453892	-0.570475	-0.740965
O14	O	1.283525	-0.570529	-0.570634
O15	O	1.582985	-0.441434	-0.740995
O16	O	1.582804	-0.740922	-0.441570
O17	O	1.453789	-0.740863	-0.570613
C18	C	1.245408	-0.506027	-0.506119
C19	C	1.128632	-0.506045	-0.506137
C20	C	1.073811	-0.438944	-0.573449
C21	C	0.964087	-0.438955	-0.573456
C22	C	0.964014	-0.573176	-0.438836
C23	C	1.073736	-0.573160	-0.438825
C24	C	0.814167	-0.315117	-0.611226
C25	C	0.759342	-0.248025	-0.678554
C26	C	0.794999	-0.232010	-0.781093
C27	C	0.885478	-0.283103	-0.816324
C28	C	0.940297	-0.350202	-0.749002
C29	C	0.904642	-0.366197	-0.646448
C30	C	1.223658	-0.696999	-0.401066
C31	C	1.278479	-0.764105	-0.333747
C32	C	1.242824	-0.780130	-0.231207
C33	C	1.152341	-0.729056	-0.195979
C34	C	1.097521	-0.661951	-0.263298
C35	C	1.133183	-0.645924	-0.365837
C36	C	1.518312	-0.779013	-0.506108
C37	C	1.518382	-0.895790	-0.506132
C38	C	1.652826	-0.895798	-0.371861
C39	C	1.720076	-0.950663	-0.304737
C40	C	1.720137	-1.060384	-0.304766
C41	C	1.652944	-1.115243	-0.371927
C42	C	1.585695	-1.060379	-0.439051
C43	C	1.585638	-0.950655	-0.439013
C44	C	1.451257	-1.060371	-0.573326
C45	C	1.451188	-0.950649	-0.573294
C46	C	1.384064	-1.115230	-0.640487
C47	C	1.316807	-1.060365	-0.707607
C48	C	1.316748	-0.950637	-0.707575
C49	C	1.383939	-0.895784	-0.640417
C50	C	1.792409	-0.506064	-0.506149
C51	C	1.909185	-0.506073	-0.506156
C52	C	1.518449	-0.505939	-0.780167
C53	C	1.518480	-0.505894	-0.896944
C54	C	1.518467	-0.232012	-0.506182
C55	C	1.518507	-0.115235	-0.506203
C56	C	1.451331	-0.438681	-0.951813
C57	C	1.451355	-0.438648	-1.061537
C58	C	1.585688	-0.573046	-1.061513
C59	C	1.585657	-0.573082	-0.951790
C60	C	1.327505	-0.401049	-1.211491
C61	C	1.260364	-0.333819	-1.266364
C62	C	1.244260	-0.231316	-1.230776
C63	C	1.295312	-0.196021	-1.140316
C64	C	1.362460	-0.263245	-1.085448
C65	C	1.378544	-0.365763	-1.121035
C66	C	1.709509	-0.610671	-0.801835
C67	C	1.776663	-0.677890	-0.746966
C68	C	1.792778	-0.780396	-0.782552
C69	C	1.741745	-0.815687	-0.873015
C70	C	1.674590	-0.748468	-0.927885
C71	C	1.658474	-0.645963	-0.892291
C72	C	1.518363	-0.506076	-0.233166
C73	C	1.518535	-0.505825	-0.116390
H74	H	1.352165	-0.805678	-0.362433
C75	C	1.618441	-0.787289	-1.027389
C76	C	1.636157	-0.900045	-1.066539
C77	C	1.580006	-0.938866	-1.166040
C78	C	1.506138	-0.864930	-1.226392
C79	C	1.488418	-0.752167	-1.187244
C80	C	1.544569	-0.713347	-1.087742
H81	H	1.690842	-0.954783	-1.021862
H82	H	1.593124	-1.022341	-1.195020
H83	H	1.464571	-0.893668	-1.300049
H84	H	1.433733	-0.697430	-1.231921
H85	H	1.531451	-0.629872	-1.058762
C86	C	1.794111	-1.120741	-0.230930
C87	C	1.876612	-1.196069	-0.276543
C88	C	1.950585	-1.256425	-0.202708
C89	C	1.942057	-1.241452	-0.083260
C90	C	1.859552	-1.166121	-0.037641
C91	C	1.785579	-1.105765	-0.111477
H92	H	1.882929	-1.207155	-0.364971
H93	H	2.011661	-1.312190	-0.236479
H94	H	1.996816	-1.286132	-0.028603
H95	H	1.853236	-1.155034	0.050786
H96	H	1.724504	-1.049999	-0.077706
C97	C	1.866646	-0.854342	-0.722192
C98	C	1.922791	-0.815533	-0.622689
C99	C	1.996649	-0.889482	-0.562331
C100	C	2.014363	-1.002240	-0.601476
C101	C	1.958216	-1.041055	-0.700984
C102	C	1.884358	-0.967106	-0.761342
H103	H	1.909679	-0.732058	-0.593707
H104	H	2.038213	-0.860748	-0.488668
H105	H	2.069037	-1.056981	-0.556795
H106	H	1.971327	-1.124530	-0.729966
H107	H	1.842794	-0.995840	-0.835005
H108	H	1.384123	-1.204571	-0.640510
C109	C	0.903624	-0.647008	-0.364805
C110	C	0.828156	-0.601400	-0.282412
C111	C	0.767768	-0.675236	-0.208383
C112	C	0.782848	-0.794680	-0.216746
C113	C	0.858319	-0.840293	-0.299143
C114	C	0.918707	-0.766457	-0.373172
H115	H	0.816991	-0.512976	-0.276218
H116	H	0.711900	-0.641469	-0.147387
H117	H	0.738145	-0.849337	-0.161945
H118	H	0.869485	-0.928718	-0.305337
H119	H	0.974576	-0.800224	-0.434168
C120	C	1.113112	-0.746680	-0.083183
C121	C	1.013584	-0.690503	-0.044435
C122	C	0.974356	-0.708134	0.068362
C123	C	1.034655	-0.781942	0.142411
C124	C	1.134190	-0.838124	0.103665
C125	C	1.173418	-0.820493	-0.009132
H126	H	0.968941	-0.635862	-0.099252
H127	H	0.900673	-0.666544	0.097044
H128	H	1.005616	-0.794994	0.225910
H129	H	1.178833	-0.892765	0.158481
H130	H	1.247101	-0.862083	-0.037814
C131	C	1.377430	-0.364784	-0.891480
C132	C	1.303562	-0.290855	-0.951841
C133	C	1.229657	-0.216959	-0.891512
C134	C	1.229619	-0.216991	-0.770822
C135	C	1.303490	-0.290922	-0.710454
C136	C	1.377395	-0.364819	-0.770784
H137	H	1.303588	-0.290829	-1.041189
H138	H	1.174973	-0.162230	-0.936201
H139	H	1.174910	-0.162289	-0.726163
H140	H	1.303464	-0.290949	-0.621106
H141	H	1.432079	-0.419548	-0.726095
H142	H	1.261989	-0.905972	-0.762239
C143	C	1.418602	-0.224439	-0.985938
C144	C	1.400889	-0.111685	-0.946783
C145	C	1.457019	-0.072881	-0.847263
C146	C	1.530861	-0.146831	-0.786898
C147	C	1.548577	-0.259593	-0.826052
C148	C	1.492448	-0.298397	-0.925573
H149	H	1.346224	-0.056936	-0.991470
H150	H	1.443904	0.010593	-0.818279
H151	H	1.572412	-0.118106	-0.713227
H152	H	1.603243	-0.314342	-0.781366
H153	H	1.505563	-0.381871	-0.954557
C154	C	0.734696	-0.158206	-0.855153
C155	C	0.688839	-0.200589	-0.958400
C156	C	0.628533	-0.126780	-1.032453
C157	C	0.614084	-0.010589	-1.003258
C158	C	0.659941	0.031800	-0.900006
C159	C	0.720247	-0.042008	-0.825953
H160	H	0.699534	-0.286606	-0.980016
H161	H	0.594587	-0.158160	-1.108887
H162	H	0.569442	0.044049	-1.058076
H163	H	0.649246	0.117818	-0.878390
H164	H	0.754194	-0.010628	-0.749519
H165	H	1.774786	-0.905987	-0.250057
H166	H	1.383890	-0.806443	-0.640378
H167	H	1.653010	-1.204584	-0.371954
H168	H	1.282204	-0.112547	-1.111354
H169	H	1.118503	-0.384292	-0.628256
H170	H	1.754870	-0.899154	-0.901994
H171	H	1.189593	-0.176577	-1.275462
H172	H	1.218798	-0.362566	-1.340017
H173	H	1.652769	-0.806457	-0.371817
H174	H	1.818228	-0.649143	-0.673314
H175	H	1.023844	-0.620364	-0.234607
H176	H	0.685674	-0.206425	-0.649859
C177	C	1.303120	-0.853955	-0.157155
C178	C	1.348968	-0.811586	-0.053898
C179	C	1.409256	-0.885407	0.020156
C180	C	1.423697	-1.001598	-0.009047
C181	C	1.377847	-1.043973	-0.112308
C182	C	1.317559	-0.970152	-0.186362
H183	H	1.338279	-0.725569	-0.032277
H184	H	1.443197	-0.854037	0.096597
H185	H	1.468326	-1.056245	0.045773
H186	H	1.388536	-1.129990	-0.133930
H187	H	1.283618	-1.001522	-0.262803
H188	H	1.340598	-0.484520	-1.240467
H189	H	1.640382	-0.627747	-1.106182
H190	H	1.013967	-0.391795	-0.777684
C191	C	1.262871	-0.679383	-0.513872
C192	C	1.362382	-0.735584	-0.552630
C193	C	1.401590	-0.717980	-0.665438
C194	C	1.341288	-0.644174	-0.739487
C195	C	1.241772	-0.587967	-0.700730
C196	C	1.202563	-0.605572	-0.587923
H197	H	1.407026	-0.790225	-0.497813
H198	H	1.475259	-0.759588	-0.694128
H199	H	1.370313	-0.631142	-0.822995
H200	H	1.197128	-0.533327	-0.755548
H201	H	1.128895	-0.563964	-0.559232
H202	H	0.914496	-0.270066	-0.899826
H203	H	1.696364	-0.527213	-0.772831
H204	H	0.785134	-0.328138	-0.527727
H205	H	1.262109	-1.105040	-0.762289
