data_functionalizedCrystal
_audit_creation_method	'MofGen! by Chris Wilmer'
_symmetry_space_group_name_H-M	'P1'
_symmetry_Int_Tables_number	1
_symmetry_cell_setting	triclinic
loop_
_symmetry_equiv_pos_as_xyz
  x,y,z
_cell_length_a	19.077105
_cell_length_b	17.639789
_cell_length_c	19.076919
_cell_angle_alpha	81.481054
_cell_angle_beta	90.076224
_cell_angle_gamma	76.100290
loop_
_atom_site_label
_atom_site_type_symbol
_atom_site_fract_x
_atom_site_fract_y
_atom_site_fract_z
Zn1	Zn	-1.129833	0.382643	0.374434
Zn2	Zn	-1.158257	0.509816	0.234997
Zn3	Zn	-1.015069	0.372048	0.254054
Zn4	Zn	-1.035990	0.509339	0.347832
O5	O	-1.084787	0.443461	0.302829
O6	O	-1.232802	0.404147	0.359095
O7	O	-1.142403	0.487306	0.139924
O8	O	-1.009642	0.262774	0.289131
O9	O	-1.253685	0.497580	0.256651
O10	O	-1.093959	0.270559	0.377574
O11	O	-1.037204	0.386088	0.153925
O12	O	-0.918646	0.385626	0.263337
O13	O	-1.045298	0.496767	0.448962
O14	O	-0.934016	0.486493	0.332235
O15	O	-1.114244	0.403684	0.468506
O16	O	-1.162689	0.620431	0.230856
O17	O	-1.072859	0.620081	0.313756
C18	C	-1.123147	0.648956	0.267367
C19	C	-1.139622	0.736871	0.252222
C20	C	-1.078934	0.451354	0.484748
C21	C	-1.076440	0.454718	0.562271
C22	C	-0.900610	0.434858	0.296967
C23	C	-0.821821	0.431198	0.294473
C24	C	-1.269684	0.452098	0.308714
C25	C	-1.348476	0.455779	0.311222
C26	C	-0.792843	0.482067	0.329089
C27	C	-0.718811	0.478618	0.326750
C28	C	-0.673758	0.424301	0.289791
C29	C	-0.702740	0.373426	0.255173
C30	C	-0.776771	0.376873	0.257517
C31	C	-0.451488	0.408351	0.278949
C32	C	-0.377453	0.404910	0.276606
C33	C	-0.393529	0.510100	0.348184
C34	C	-0.467561	0.513545	0.350521
C35	C	-0.496536	0.462667	0.315907
N36	N	-0.598086	0.420776	0.287397
N37	N	-0.572206	0.466190	0.318305
C38	C	-1.209639	0.860943	0.187760
C39	C	-1.194153	0.778333	0.201997
C40	C	-1.100558	0.778009	0.288233
C41	C	-1.116039	0.860621	0.274006
C42	C	-1.170579	0.902081	0.223769
C43	C	-1.076980	0.901759	0.310015
C44	C	-1.092457	0.984363	0.295787
C45	C	-1.146993	1.025830	0.245550
C46	C	-1.186057	0.984686	0.209541
C47	C	-1.022436	0.860297	0.360249
C48	C	-0.983377	0.901435	0.396257
C49	C	-0.998857	0.984041	0.382033
C50	C	-1.053394	1.025507	0.331796
C51	C	-0.959794	1.025185	0.418042
C52	C	-0.975271	1.107789	0.403814
C53	C	-1.068871	1.108112	0.317568
C54	C	-1.046276	1.237165	0.338434
C55	C	-1.029812	1.149250	0.353576
C56	C	-1.090648	0.435544	0.121629
C57	C	-1.093238	0.431964	0.044149
C58	C	-1.111163	0.407837	0.608868
C59	C	-1.108810	0.410994	0.681710
C60	C	-1.071738	0.461036	0.707952
C61	C	-1.037010	0.507919	0.661350
C62	C	-1.039359	0.504757	0.588510
C63	C	-1.060859	0.475685	0.924707
C64	C	-1.058515	0.478845	0.997552
C65	C	-1.130313	0.381918	1.017907
C66	C	-1.132663	0.378765	0.945065
C67	C	-1.097932	0.425644	0.898470
N68	N	-1.069334	0.464266	0.782407
N69	N	-1.100332	0.422409	0.824016
H70	H	-0.829521	0.526300	0.359183
H71	H	-1.028325	0.519597	1.018915
H72	H	-0.938968	0.867668	0.437159
Br73	Br	-0.922253	1.163624	0.452673
Br74	Br	-1.155976	0.347405	0.744941
H75	H	-1.032592	0.513870	0.886776
Br76	Br	-0.316312	0.331198	0.226434
Br77	Br	-0.816098	0.307829	0.210540
H78	H	-1.009830	0.793034	0.371825
H79	H	-0.475071	0.366928	0.250757
H80	H	-1.006823	0.548662	0.682722
H81	H	-1.159594	1.093091	0.233966
H82	H	-1.141353	0.367090	0.587508
Br83	Br	-1.247157	0.722503	0.153111
Br84	Br	-1.182979	0.310850	0.909455
Br85	Br	-1.177443	0.318298	1.081147
Br86	Br	-1.283667	0.917220	0.119589
Br87	Br	-0.641597	0.299703	0.205021
Br88	Br	-0.679486	0.547656	0.373734
Br89	Br	-1.260085	1.040962	0.141369
H90	H	-0.504239	0.557777	0.380615
Br91	Br	-1.142900	1.164388	0.249396
Br92	Br	-0.354202	0.579148	0.395155
Br93	Br	-0.885772	0.968907	0.486212
Br94	Br	-1.026543	0.721735	0.356411
Br95	Br	-0.992228	0.568379	0.525271
