data_functionalizedCrystal
_audit_creation_method	'MofGen! by Chris Wilmer'
_symmetry_space_group_name_H-M	'P1'
_symmetry_Int_Tables_number	1
_symmetry_cell_setting	triclinic
loop_
_symmetry_equiv_pos_as_xyz
  x,y,z
_cell_length_a	18.050590
_cell_length_b	29.839132
_cell_length_c	18.050591
_cell_angle_alpha	89.989906
_cell_angle_beta	89.986577
_cell_angle_gamma	89.965569
loop_
_atom_site_label
_atom_site_type_symbol
_atom_site_fract_x
_atom_site_fract_y
_atom_site_fract_z
Zn1	Zn	1.135112	0.179090	0.419575
Zn2	Zn	1.135013	0.254189	0.295374
Zn3	Zn	1.010958	0.179060	0.295433
Zn4	Zn	1.010842	0.254179	0.419556
O5	O	1.072981	0.216629	0.357485
O6	O	1.239023	0.189069	0.403082
O7	O	1.118564	0.244214	0.191457
O8	O	1.027518	0.116196	0.311933
O9	O	1.238951	0.244244	0.311832
O10	O	1.118732	0.116219	0.403140
O11	O	1.027422	0.189017	0.191501
O12	O	0.907018	0.189008	0.311915
O13	O	1.027319	0.244227	0.523483
O14	O	0.906933	0.244198	0.403108
O15	O	1.118620	0.189059	0.523497
O16	O	1.118451	0.317055	0.311814
O17	O	1.027223	0.317048	0.403051
C18	C	0.880029	0.216599	0.357517
C19	C	0.797483	0.216596	0.357548
C20	C	0.598008	0.246695	0.407021
C21	C	0.548631	0.205735	0.425302
C22	C	0.646353	0.216622	0.357512
C23	C	0.548648	0.257604	0.339230
C24	C	0.500368	0.216649	0.357478
C25	C	0.598063	0.175640	0.375828
C26	C	0.598085	0.227537	0.289724
C27	C	0.548730	0.186549	0.307980
C28	C	0.730451	0.216606	0.357533
C29	C	0.416271	0.216660	0.357457
C30	C	1.072834	0.333352	0.357440
C31	C	1.072839	0.383286	0.357446
C32	C	1.120517	0.692921	0.310017
C33	C	1.120588	0.880594	0.310034
O34	O	1.161045	0.904851	0.269694
N35	N	1.073059	0.904071	0.357497
C36	C	1.025512	0.880628	0.404962
O37	O	0.985093	0.904903	0.445338
C38	C	1.025446	0.692956	0.404949
C39	C	1.072973	0.669481	0.357477
C40	C	1.168040	0.669446	0.262550
C41	C	1.168019	0.622530	0.262543
C42	C	1.120475	0.599090	0.310004
C43	C	1.072951	0.622565	0.357471
C44	C	0.977903	0.669513	0.452417
C45	C	0.977892	0.622592	0.452411
C46	C	1.025419	0.599117	0.404940
C47	C	1.025386	0.552209	0.404924
N48	N	1.072915	0.528732	0.357461
C49	C	1.120459	0.552172	0.310001
C50	C	1.025550	0.979159	0.404965
C51	C	1.025565	1.026076	0.404968
C52	C	1.120642	1.026039	0.310040
C53	C	1.120622	0.979120	0.310034
C54	C	1.073079	0.955681	0.357502
C55	C	1.120411	0.453646	0.309990
C56	C	1.120384	0.406727	0.309986
C57	C	1.025310	0.406768	0.404916
C58	C	1.025334	0.453684	0.404918
C59	C	1.072891	0.477121	0.357453
O60	O	0.984955	0.527923	0.445248
O61	O	1.160884	0.527889	0.269643
C62	C	1.120538	0.739836	0.310023
C63	C	1.073015	0.763311	0.357490
C64	C	1.025470	0.739871	0.404951
C65	C	1.073030	0.810229	0.357493
C66	C	1.120575	0.833670	0.310033
C67	C	1.168104	0.810192	0.262570
C68	C	1.168083	0.763277	0.262563
C69	C	0.977941	0.763349	0.452414
C70	C	0.977965	0.810264	0.452416
C71	C	1.025510	0.833705	0.404955
C72	C	1.266687	0.216661	0.357453
C73	C	1.349232	0.216674	0.357439
C74	C	1.072967	0.216645	0.551190
C75	C	1.072962	0.216652	0.633736
C76	C	1.073121	1.099451	0.357529
C77	C	1.073110	1.049517	0.357507
C78	C	1.023306	0.246649	0.833179
C79	C	1.091045	0.257647	0.882550
C80	C	1.072965	0.216646	0.784866
C81	C	1.005231	0.205663	0.882577
C82	C	1.072962	0.216641	0.930851
C83	C	1.140740	0.227666	0.833150
C84	C	1.054879	0.175662	0.833172
C85	C	1.122665	0.186645	0.882521
C86	C	1.072965	0.216650	0.700768
C87	C	1.072969	0.216637	1.014948
C88	C	1.072982	0.216628	1.164532
C89	C	1.072966	0.216633	1.081987
H90	H	0.526939	0.292251	0.323783
H91	H	0.619824	0.236773	0.232429
N92	N	0.974262	0.953879	0.456159
H93	H	0.985747	0.962034	0.509229
H94	H	0.921237	0.962085	0.444519
N95	N	0.967756	0.280285	0.804471
H96	H	0.967818	0.279846	0.748523
H97	H	0.916746	0.272289	0.823274
N98	N	0.974073	0.479007	0.456114
H99	H	0.939693	0.498498	0.425916
H100	H	0.943998	0.457008	0.486166
N101	N	1.178351	0.153037	0.911051
H102	H	1.152106	0.129673	0.941872
H103	H	1.203818	0.138062	0.867807
N104	N	0.626682	0.280321	0.462538
H105	H	0.657480	0.303637	0.436155
H106	H	0.583502	0.295355	0.488035
H107	H	1.106346	0.292305	0.904240
H108	H	1.198037	0.236993	0.811531
H109	H	1.159086	0.387615	0.271326
N110	N	1.171892	0.953806	0.258838
H111	H	1.206277	0.934321	0.289040
H112	H	1.141689	0.934383	0.224408
N113	N	0.926638	0.694825	0.503616
H114	H	0.896523	0.672850	0.533678
H115	H	0.956842	0.714271	0.538009
H116	H	0.939177	0.603510	0.491068
N117	N	0.974039	0.381476	0.456104
H118	H	0.985533	0.389626	0.509174
H119	H	0.921006	0.389675	0.444481
H120	H	1.206783	0.744166	0.223907
N121	N	0.519849	0.193519	0.501214
H122	H	0.463901	0.193335	0.500513
H123	H	0.538648	0.162802	0.515356
H124	H	1.159138	0.472724	0.271341
N125	N	0.626685	0.129732	0.396377
H126	H	0.682636	0.130007	0.396284
H127	H	0.608205	0.121455	0.447389
N128	N	1.219292	0.597214	0.211353
H129	H	1.249414	0.619188	0.181296
H130	H	1.253625	0.577730	0.241611
H131	H	1.039558	0.141015	0.811466
N132	N	1.219378	0.835479	0.211373
H133	H	1.212173	0.868762	0.218584
H134	H	1.272406	0.827252	0.222962
N135	N	0.929360	0.193357	0.911340
H136	H	0.891895	0.216044	0.893391
H137	H	0.915380	0.162614	0.892601
N138	N	0.926694	0.835581	0.503614
H139	H	0.896575	0.813608	0.533676
H140	H	0.956901	0.855026	0.538007
H141	H	0.527229	0.161100	0.266098
N142	N	1.219326	0.694723	0.211357
H143	H	1.249424	0.672726	0.181291
H144	H	1.189133	0.714207	0.176967
N145	N	1.171921	1.051325	0.258847
H146	H	1.164715	1.084609	0.266056
H147	H	1.224948	1.043099	0.270444
N148	N	0.974292	1.051393	0.456156
H149	H	0.944173	1.029420	0.486219
H150	H	1.004493	1.070841	0.490548
N151	N	0.926656	0.738070	0.503604
H152	H	0.896553	0.760066	0.533668
H153	H	0.892305	0.718629	0.473346
