data_functionalizedCrystal
_audit_creation_method	'MofGen! by Chris Wilmer'
_symmetry_space_group_name_H-M	'P1'
_symmetry_Int_Tables_number	1
_symmetry_cell_setting	triclinic
loop_
_symmetry_equiv_pos_as_xyz
  x,y,z
_cell_length_a	10.654550
_cell_length_b	11.792241
_cell_length_c	9.130313
_cell_angle_alpha	89.998583
_cell_angle_beta	89.996220
_cell_angle_gamma	84.339159
loop_
_atom_site_label
_atom_site_type_symbol
_atom_site_fract_x
_atom_site_fract_y
_atom_site_fract_z
O1	O	1.667383	0.159415	-0.121920
O2	O	1.301862	0.174603	-0.121897
O3	O	1.493493	0.001859	-0.121899
O4	O	1.475752	0.332159	-0.121918
O5	O	1.493490	0.001864	0.121700
O6	O	1.301859	0.174608	0.121702
O7	O	1.667381	0.159419	0.121678
Cu8	Cu	1.484620	0.167014	0.143933
Cu9	Cu	1.484623	0.167008	-0.144151
O10	O	1.475750	0.332164	0.121680
C11	C	1.255066	0.173490	-0.000095
C12	C	1.115632	0.170154	-0.000085
C13	C	1.035858	0.271863	-0.000113
C14	C	0.904847	0.268721	-0.000138
C15	C	0.933394	0.062152	-0.000114
C16	C	1.064404	0.065295	-0.000079
C17	C	1.019376	0.391124	-0.000133
C18	C	0.888364	0.387982	-0.000158
C19	C	1.492377	-0.040432	-0.000100
C20	C	1.489042	-0.166454	-0.000101
C21	C	1.482908	-0.397180	-0.000125
C22	C	1.486316	-0.268787	-0.000112
C23	C	1.714177	0.160532	-0.000127
C24	C	1.853611	0.163869	-0.000146
C25	C	1.476865	0.374455	-0.000122
C26	C	1.480201	0.500476	-0.000130
N27	N	1.484627	0.167017	0.346555
N28	N	1.484625	0.166996	-0.346774
C29	C	1.569503	0.090552	0.423206
C30	C	1.569500	0.090539	0.576543
C31	C	1.399740	0.243465	0.576564
C32	C	1.399739	0.243472	0.423230
C33	C	1.667516	0.002265	0.423195
C34	C	1.667513	0.002251	0.576532
H35	H	1.048574	0.437769	0.101816
H36	H	1.129352	-0.017527	-0.000036
H37	H	1.763969	0.021698	0.618141
C38	C	1.307522	0.326610	0.340272
C39	C	1.233207	0.393580	0.440244
C40	C	1.148250	0.470191	0.363878
H41	H	1.254857	0.285466	0.280455
H42	H	1.352974	0.374311	0.280485
H43	H	1.187758	0.345885	0.500006
H44	H	1.285837	0.434748	0.500065
H45	H	1.193703	0.517892	0.304091
H46	H	1.095594	0.429038	0.304063
H47	H	1.097826	0.515646	0.431697
H48	H	1.758622	0.029909	0.375629
H49	H	1.637233	-0.080191	0.624086
H50	H	0.891668	-0.023221	-0.000132
C51	C	0.827289	0.435799	0.140170
C52	C	0.765056	0.351402	0.209449
C53	C	0.708799	0.395392	0.338736
H54	H	0.768260	0.499066	0.117540
H55	H	0.890384	0.459606	0.203524
H56	H	0.701968	0.327611	0.146109
H57	H	0.824058	0.288129	0.232114
H58	H	0.771894	0.419199	0.402089
H59	H	0.649776	0.458659	0.316092
H60	H	0.666577	0.338133	0.385764
C61	C	0.832433	0.448074	-0.135925
C62	C	0.746776	0.539987	-0.093809
C63	C	0.695239	0.595374	-0.218830
H64	H	0.789987	0.396156	-0.192654
H65	H	0.898031	0.475236	-0.192563
H66	H	0.681188	0.512824	-0.037194
H67	H	0.789192	0.591929	-0.037097
H68	H	0.760837	0.622536	-0.275468
H69	H	0.652799	0.543448	-0.275550
H70	H	0.637124	0.657749	-0.190272
C71	C	1.639166	-0.114112	0.367981
C72	C	1.621827	-0.185307	0.487501
C73	C	1.595691	-0.292512	0.436694
H74	H	1.707698	-0.146509	0.310207
H75	H	1.564645	-0.106141	0.310230
H76	H	1.696339	-0.193282	0.545227
H77	H	1.553291	-0.152947	0.545286
H78	H	1.521170	-0.284541	0.378943
H79	H	1.664227	-0.324898	0.378920
H80	H	1.583912	-0.340828	0.517779
H81	H	1.054925	0.429096	-0.105307
H82	H	1.330625	0.305712	0.639010
