data_functionalizedCrystal
_audit_creation_method	'MofGen! by Chris Wilmer'
_symmetry_space_group_name_H-M	'P1'
_symmetry_Int_Tables_number	1
_symmetry_cell_setting	triclinic
loop_
_symmetry_equiv_pos_as_xyz
  x,y,z
_cell_length_a	27.732048
_cell_length_b	11.792241
_cell_length_c	10.268362
_cell_angle_alpha	89.998512
_cell_angle_beta	90.000913
_cell_angle_gamma	83.418035
loop_
_atom_site_label
_atom_site_type_symbol
_atom_site_fract_x
_atom_site_fract_y
_atom_site_fract_z
O1	O	-0.641711	-0.135035	0.108133
O2	O	-0.141711	0.364965	0.608133
O3	O	-0.501037	-0.155567	0.108173
O4	O	-0.001037	0.344433	0.608173
O5	O	-0.574788	0.019979	0.108143
O6	O	-0.074788	0.519979	0.608143
O7	O	-0.567960	-0.310581	0.108163
O8	O	-0.067960	0.189419	0.608163
O9	O	-0.574780	0.019973	-0.108458
O10	O	-0.074780	0.519973	0.391542
O11	O	-0.501030	-0.155574	-0.108428
O12	O	-0.001030	0.344426	0.391572
O13	O	-0.641704	-0.135041	-0.108467
O14	O	-0.141704	0.364959	0.391533
Cu15	Cu	-0.571366	-0.145308	-0.128225
Cu16	Cu	-0.071366	0.354692	0.371775
Cu17	Cu	-0.571374	-0.145300	0.127930
Cu18	Cu	-0.071374	0.354700	0.627930
O19	O	-0.567953	-0.310587	-0.108438
O20	O	-0.067953	0.189413	0.391562
C21	C	-0.483024	-0.155140	-0.000123
C22	C	0.016976	0.344860	0.499877
C23	C	-0.429361	-0.153842	-0.000108
C24	C	0.070639	0.346158	0.499892
C25	C	-0.574355	0.062253	-0.000157
C26	C	-0.074355	0.562253	0.499843
C27	C	-0.573071	0.188226	-0.000155
C28	C	-0.073071	0.688226	0.499845
C29	C	-0.659717	-0.135469	-0.000169
C30	C	-0.159717	0.364531	0.499831
C31	C	-0.713379	-0.136766	-0.000175
C32	C	-0.213379	0.363234	0.499825
C33	C	-0.091101	-0.249407	-0.000158
C34	C	0.408899	0.250593	0.499842
C35	C	0.110587	-0.244592	-0.000170
C36	C	0.610587	0.255408	0.499830
O37	O	0.141335	-0.331980	-0.000221
O38	O	0.641335	0.168020	0.499779
N39	N	0.130315	-0.140500	-0.000174
N40	N	0.630315	0.359500	0.499826
C41	C	0.099617	-0.037605	-0.000184
C42	C	0.599617	0.462395	0.499816
O43	O	0.121024	0.051042	-0.000201
O44	O	0.621024	0.551042	0.499799
C45	C	-0.102070	-0.042422	-0.000181
C46	C	0.397930	0.457578	0.499819
C47	C	-0.121794	-0.146520	-0.000164
C48	C	0.378206	0.353480	0.499836
C49	C	-0.110826	-0.353497	-0.000143
C50	C	0.389174	0.146503	0.499857
C51	C	-0.161245	-0.354700	-0.000133
C52	C	0.338755	0.145300	0.499867
C53	C	-0.191939	-0.251813	-0.000138
C54	C	0.308061	0.248187	0.499862
C55	C	-0.172213	-0.147723	-0.000154
C56	C	0.327787	0.352277	0.499846
C57	C	-0.132766	0.060472	-0.000200
C58	C	0.367234	0.560472	0.499800
C59	C	-0.183191	0.059259	-0.000203
C60	C	0.316809	0.559259	0.499797
C61	C	-0.202915	-0.044840	-0.000186
C62	C	0.297085	0.455160	0.499814
C63	C	-0.253326	-0.046038	-0.000150
C64	C	0.246674	0.453962	0.499850
N65	N	-0.273054	-0.150130	-0.000146
N66	N	0.226946	0.349870	0.499854
C67	C	-0.242360	-0.253017	-0.000140
C68	C	0.257640	0.246983	0.499860
C69	C	0.205506	-0.035084	-0.000183
C70	C	0.705506	0.464916	0.499817
C71	C	0.255927	-0.033879	-0.000181
C72	C	0.755927	0.466121	0.499819
C73	C	0.266894	-0.240867	-0.000170
C74	C	0.766894	0.259133	0.499830
C75	C	0.216471	-0.242070	-0.000162
C76	C	0.716471	0.257930	0.499838
C77	C	0.185778	-0.139175	-0.000179
C78	C	0.685778	0.360825	0.499821
C79	C	-0.348244	-0.255535	-0.000118
C80	C	0.151756	0.244465	0.499882
C81	C	-0.398668	-0.256729	-0.000102
C82	C	0.101332	0.243271	0.499898
C83	C	-0.409630	-0.049742	-0.000120
C84	C	0.090370	0.450258	0.499880
C85	C	-0.359210	-0.048548	-0.000129
C86	C	0.140790	0.451452	0.499871
C87	C	-0.328518	-0.151454	-0.000132
C88	C	0.171482	0.348546	0.499868
O89	O	-0.284103	0.041303	-0.000113
O90	O	0.215897	0.541303	0.499887
O91	O	-0.263777	-0.341651	-0.000152
O92	O	0.236223	0.158349	0.499848
C93	C	-0.040682	-0.248205	-0.000169
C94	C	0.459318	0.251795	0.499831
C95	C	-0.020957	-0.144115	-0.000184
C96	C	0.479043	0.355885	0.499816
C97	C	-0.051650	-0.041227	-0.000190
C98	C	0.448350	0.458773	0.499810
C99	C	0.029465	-0.142910	-0.000183
C100	C	0.529465	0.357090	0.499817
C101	C	0.060159	-0.245797	-0.000177
C102	C	0.560159	0.254203	0.499823
C103	C	0.040431	-0.349889	-0.000173
C104	C	0.540431	0.150111	0.499827
C105	C	-0.009988	-0.351092	-0.000163
C106	C	0.490012	0.148908	0.499837
C107	C	-0.031923	0.062864	-0.000194
C108	C	0.468077	0.562864	0.499806
C109	C	0.018497	0.064058	-0.000203
C110	C	0.518497	0.564058	0.499797
C111	C	0.049191	-0.038829	-0.000197
C112	C	0.549191	0.461171	0.499803
C113	C	-0.568385	-0.352861	-0.000135
C114	C	-0.068385	0.147139	0.499865
C115	C	-0.569669	-0.478834	-0.000128
C116	C	-0.069669	0.021166	0.499872
N117	N	-0.571364	-0.145312	-0.308391
N118	N	-0.071364	0.354688	0.191609
C119	C	-0.570711	0.418862	-0.000133
C120	C	-0.070711	0.918862	0.499867
C121	C	-0.572023	0.290519	-0.000145
C122	C	-0.072023	0.790519	0.499855
C123	C	-0.571367	-0.145312	-0.426233
C124	C	-0.071367	0.354688	0.073767
C125	C	-0.571373	-0.145302	-0.574071
C126	C	-0.071373	0.354698	-0.074071
N127	N	-0.571381	-0.145287	0.308096
N128	N	-0.071381	0.354713	0.808096
H129	H	-0.323260	-0.339331	-0.000124
H130	H	0.176740	0.160669	0.499876
O131	O	0.197393	-0.343290	-0.000212
O132	O	0.697393	0.156710	0.499788
C133	C	0.235302	-0.433834	-0.000168
C134	C	0.735302	0.066166	0.499832
H135	H	0.269635	-0.402627	-0.041172
H136	H	0.769635	0.097373	0.458828
H137	H	0.224574	-0.506570	-0.063049
H138	H	0.724574	-0.006570	0.436951
H139	H	0.242351	-0.465522	0.103750
H140	H	0.742351	0.034478	0.603750
H141	H	-0.177300	-0.439467	-0.000118
H142	H	0.322700	0.060533	0.499882
H143	H	-0.085840	-0.437285	-0.000143
H144	H	0.414160	0.062715	0.499857
H145	H	-0.414724	-0.341502	-0.000087
H146	H	0.085276	0.158498	0.499913
O147	O	0.175763	0.064979	-0.000133
O148	O	0.675763	0.564979	0.499867
C149	C	0.203994	0.157098	-0.000166
C150	C	0.703994	0.657098	0.499834
H151	H	0.241542	0.127601	0.040842
H152	H	0.741542	0.627601	0.540842
H153	H	0.185595	0.229137	0.062718
H154	H	0.685595	0.729137	0.562718
H155	H	0.207671	0.189047	-0.104081
H156	H	0.707671	0.689047	0.395919
H157	H	-0.056909	0.146649	-0.000202
H158	H	0.443091	0.646649	0.499798
O159	O	-0.439520	0.050094	-0.000188
O160	O	0.060480	0.550094	0.499812
C161	C	-0.488251	0.026697	-0.000151
C162	C	0.011749	0.526697	0.499849
H163	H	-0.490418	-0.062418	-0.041139
H164	H	0.009582	0.437582	0.458861
H165	H	-0.510920	0.092319	-0.063050
H166	H	-0.010920	0.592319	0.436950
H167	H	-0.502820	0.031271	0.103762
H168	H	-0.002820	0.531271	0.603762
H169	H	-0.116716	0.145240	-0.000215
H170	H	0.383284	0.645240	0.499785
O171	O	-0.212936	0.159318	-0.000154
O172	O	0.287064	0.659318	0.499846
C173	C	-0.184710	0.251445	-0.000202
C174	C	0.315290	0.751445	0.499798
H175	H	-0.147159	0.221958	0.040800
H176	H	0.352841	0.721958	0.540800
H177	H	-0.203109	0.323484	0.062681
H178	H	0.296891	0.823484	0.562681
H179	H	-0.181036	0.283389	-0.104120
H180	H	0.318964	0.783389	0.395880
O181	O	0.275107	0.067213	0.000049
O182	O	0.775107	0.567213	0.500049
C183	C	0.303954	0.074104	0.112212
C184	C	0.803954	0.574104	0.612212
H185	H	0.291876	0.015011	0.190624
H186	H	0.791876	0.515011	0.690624
H187	H	0.299670	0.165652	0.149859
H188	H	0.799670	0.665652	0.649859
H189	H	0.343642	0.047224	0.086851
H190	H	0.843642	0.547224	0.586851
O191	O	0.296783	-0.340709	-0.000225
O192	O	0.796783	0.159291	0.499775
C193	C	0.345514	-0.317310	-0.000192
C194	C	0.845514	0.182690	0.499808
H195	H	0.347681	-0.228198	-0.041194
H196	H	0.847681	0.271802	0.458806
H197	H	0.368183	-0.382936	-0.063081
H198	H	0.868183	0.117064	0.436919
H199	H	0.360084	-0.321876	0.103722
H200	H	0.860084	0.178124	0.603722
H201	H	0.065431	-0.433663	-0.000163
H202	H	0.565431	0.066337	0.499837
H203	H	-0.026043	-0.435859	-0.000151
H204	H	0.473957	0.064141	0.499849
O205	O	-0.340127	0.052671	-0.000186
O206	O	0.159873	0.552671	0.499814
C207	C	-0.378033	0.143222	-0.000144
C208	C	0.121967	0.643222	0.499856
H209	H	-0.412369	0.112022	-0.041138
H210	H	0.087631	0.612022	0.458862
H211	H	-0.367305	0.215953	-0.063035
H212	H	0.132695	0.715953	0.436965
H213	H	-0.385076	0.174914	0.103772
H214	H	0.114924	0.674914	0.603772
O215	O	0.037574	0.165288	-0.000275
O216	O	0.537574	0.665288	0.499725
C217	C	-0.000335	0.255832	-0.000248
C218	C	0.499665	0.755832	0.499752
H219	H	-0.034669	0.224619	-0.041236
H220	H	0.465331	0.724619	0.458764
H221	H	0.010390	0.328558	-0.063152
H222	H	0.510390	0.828558	0.436848
H223	H	-0.007380	0.287537	0.103662
H224	H	0.492620	0.787537	0.603662
