data_functionalizedCrystal
_audit_creation_method	'MofGen! by Chris Wilmer'
_symmetry_space_group_name_H-M	'P1'
_symmetry_Int_Tables_number	1
_symmetry_cell_setting	triclinic
loop_
_symmetry_equiv_pos_as_xyz
  x,y,z
_cell_length_a	13.897441
_cell_length_b	12.759395
_cell_length_c	12.759394
_cell_angle_alpha	89.988668
_cell_angle_beta	89.972147
_cell_angle_gamma	90.019667
loop_
_atom_site_label
_atom_site_type_symbol
_atom_site_fract_x
_atom_site_fract_y
_atom_site_fract_z
Zn1	Zn	-0.545372	-1.606264	-0.418304
Zn2	Zn	-0.384081	-1.606161	-0.594014
Zn3	Zn	-0.384093	-1.430566	-0.418342
Zn4	Zn	-0.545337	-1.430558	-0.593934
O5	O	-0.464721	-1.518387	-0.506148
O6	O	-0.523986	-1.753272	-0.441630
O7	O	-0.249101	-1.582828	-0.570761
O8	O	-0.405507	-1.453919	-0.271316
O9	O	-0.405486	-1.753196	-0.570724
O10	O	-0.523998	-1.583004	-0.271288
O11	O	-0.249110	-1.453819	-0.441695
O12	O	-0.405473	-1.283543	-0.441617
O13	O	-0.680323	-1.453905	-0.570586
O14	O	-0.523938	-1.283538	-0.570623
O15	O	-0.680349	-1.582996	-0.441552
O16	O	-0.405452	-1.582820	-0.741025
O17	O	-0.523926	-1.453805	-0.740965
C18	C	-0.464704	-1.245420	-0.506116
C19	C	-0.464719	-1.128643	-0.506128
C20	C	-0.588312	-1.128703	-0.371920
C21	C	-0.650115	-1.073872	-0.304826
C22	C	-0.650125	-0.964151	-0.304840
C23	C	-0.588323	-0.909257	-0.371953
C24	C	-0.526520	-0.964088	-0.439047
C25	C	-0.526519	-1.073812	-0.439027
C26	C	-0.402923	-0.964028	-0.573248
C27	C	-0.402917	-1.073750	-0.573241
C28	C	-0.341121	-0.909135	-0.640360
C29	C	-0.279321	-0.963965	-0.707461
C30	C	-0.279315	-1.073694	-0.707445
C31	C	-0.341114	-1.128580	-0.640334
C32	C	-0.716314	-1.518462	-0.506056
C33	C	-0.823528	-1.518493	-0.506016
C34	C	-1.019823	-1.518522	-0.505945
C35	C	-0.910591	-1.518503	-0.505987
C36	C	-0.214107	-1.518373	-0.506165
C37	C	-0.106893	-1.518545	-0.505909
C38	C	-0.464705	-1.518329	-0.779116
C39	C	-0.464730	-1.518400	-0.895893
C40	C	-0.464734	-0.792420	-0.506171
C41	C	-0.464727	-0.909197	-0.506154
C42	C	-0.588207	-1.652716	-0.895705
C43	C	-0.649953	-1.719906	-0.950472
C44	C	-0.649974	-1.719969	-1.060194
C45	C	-0.588244	-1.652831	-1.115151
C46	C	-0.526499	-1.585640	-1.060384
C47	C	-0.526482	-1.585587	-0.950660
C48	C	-0.403028	-1.451321	-1.060571
C49	C	-0.403001	-1.451262	-0.950850
C50	C	-0.341299	-1.384183	-1.115528
C51	C	-0.279546	-1.316995	-1.060761
C52	C	-0.279527	-1.316936	-0.951033
C53	C	-0.341255	-1.384071	-0.896083
C54	C	-0.464758	-1.518474	-0.232115
C55	C	-0.464774	-1.518511	-0.115338
H56	H	-0.588188	-1.652681	-0.806364
O57	O	-0.709822	-1.785090	-0.896924
C58	C	-0.696584	-1.770615	-0.788337
H59	H	-0.622117	-1.736232	-0.773430
H60	H	-0.753754	-1.714624	-0.757198
C61	C	-0.796949	-1.919113	-0.750230
C62	C	-0.705484	-1.876892	-0.731921
H63	H	-0.802443	-1.984668	-0.715428
H64	H	-0.805871	-1.928864	-0.823387
H65	H	-0.844581	-1.872445	-0.724281
H66	H	-0.657855	-1.923554	-0.757881
H67	H	-0.696554	-1.867152	-0.658766
H68	H	-0.341242	-1.384034	-0.806742
H69	H	-0.341324	-1.384234	-1.204869
O70	O	-0.219621	-1.251882	-1.114307
C71	C	-0.232906	-1.266318	-1.222893
H72	H	-0.264561	-1.347390	-1.237794
H73	H	-0.284235	-1.203990	-1.254029
C74	C	-0.096438	-1.157195	-1.261014
C75	C	-0.135310	-1.256772	-1.279317
H76	H	-0.036238	-1.151302	-1.295821
H77	H	-0.087489	-1.147465	-1.187858
H78	H	-0.139222	-1.105266	-1.286961
H79	H	-0.092532	-1.308698	-1.253358
H80	H	-0.144249	-1.266510	-1.352470
H81	H	-0.229003	-0.919263	-0.762094
O82	O	-0.219248	-1.126791	-0.772721
C83	C	-0.164690	-1.054808	-0.831933
H84	H	-0.204198	-0.976611	-0.835633
H85	H	-0.091496	-1.043111	-0.793354
C86	C	-0.102075	-1.193651	-0.939183
C87	C	-0.150603	-1.097611	-0.943735
H88	H	-0.093381	-1.220055	-1.008146
H89	H	-0.138828	-1.242149	-0.899289
H90	H	-0.041085	-1.183891	-0.907029
H91	H	-0.211596	-1.107375	-0.975875
H92	H	-0.113860	-1.049116	-0.983637
H93	H	-0.341110	-1.217921	-0.640309
O94	O	-0.710207	-0.910766	-0.239814
C95	C	-0.772425	-0.847345	-0.299736
H96	H	-0.738274	-0.830898	-0.379310
H97	H	-0.843888	-0.889660	-0.311371
C98	C	-0.831932	-0.763325	-0.144245
C99	C	-0.789983	-0.743117	-0.241977
H100	H	-0.842768	-0.699034	-0.108616
H101	H	-0.790018	-0.806056	-0.103874
H102	H	-0.891480	-0.798590	-0.153955
H103	H	-0.730432	-0.707865	-0.232265
H104	H	-0.831889	-0.700378	-0.282345
H105	H	-0.700263	-1.774671	-1.104785
H106	H	-0.229250	-1.262217	-0.906448
H107	H	-0.588306	-1.218044	-0.371897
H108	H	-0.700432	-1.118578	-0.250183
H109	H	-0.341131	-0.819793	-0.640364
H110	H	-0.588329	-0.819916	-0.371950
H111	H	-0.588275	-1.652879	-1.204492
