data_functionalizedCrystal
_audit_creation_method	'MofGen! by Chris Wilmer'
_symmetry_space_group_name_H-M	'P1'
_symmetry_Int_Tables_number	1
_symmetry_cell_setting	triclinic
loop_
_symmetry_equiv_pos_as_xyz
  x,y,z
_cell_length_a	17.699097
_cell_length_b	17.699091
_cell_length_c	16.776229
_cell_angle_alpha	89.993740
_cell_angle_beta	89.995199
_cell_angle_gamma	83.287253
loop_
_atom_site_label
_atom_site_type_symbol
_atom_site_fract_x
_atom_site_fract_y
_atom_site_fract_z
O1	O	-1.004068	-0.095762	0.066352
O2	O	-0.504068	0.404238	0.566352
O3	O	-0.783691	-0.108204	0.066339
O4	O	-0.283691	0.391796	0.566339
O5	O	-0.900103	0.008206	0.066343
O6	O	-0.400103	0.508206	0.566343
O7	O	-0.887656	-0.212171	0.066348
O8	O	-0.387656	0.287829	0.566348
O9	O	-0.900101	0.008216	-0.066233
O10	O	-0.400101	0.508216	0.433767
O11	O	-0.783689	-0.108194	-0.066237
O12	O	-0.283689	0.391806	0.433763
O13	O	-1.004066	-0.095752	-0.066224
O14	O	-0.504066	0.404248	0.433776
Zn15	Zn	-0.893877	-0.101971	-0.087280
Zn16	Zn	-0.393877	0.398029	0.412720
Zn17	Zn	-0.893880	-0.101985	0.087395
Zn18	Zn	-0.393880	0.398015	0.587395
O19	O	-0.887654	-0.212161	-0.066228
O20	O	-0.387654	0.287839	0.433772
C21	C	-0.755494	-0.107751	0.000049
C22	C	-0.255494	0.392249	0.500049
C23	C	-0.671476	-0.106409	0.000044
C24	C	-0.171476	0.393591	0.500044
C25	C	-0.899655	0.036408	0.000056
C26	C	-0.399655	0.536408	0.500056
C27	C	-0.898314	0.120425	0.000059
C28	C	-0.398314	0.620425	0.500059
C29	C	-1.032264	-0.096204	0.000068
C30	C	-0.532264	0.403796	0.500068
C31	C	-1.116281	-0.097547	0.000078
C32	C	-0.616281	0.402453	0.500078
C33	C	-0.155759	-0.098185	0.072344
C34	C	0.344241	0.401815	0.572344
C35	C	-0.234703	-0.099441	0.072340
C36	C	0.265297	0.400559	0.572340
C37	C	-0.274168	-0.100065	0.000069
C38	C	0.225832	0.399935	0.500069
C39	C	-0.234685	-0.099425	-0.072202
C40	C	0.265315	0.400575	0.427798
C41	C	-0.155743	-0.098163	-0.072198
C42	C	0.344257	0.401837	0.427802
C43	C	-0.553049	-0.104512	-0.072223
C44	C	-0.053049	0.395488	0.427777
C45	C	-0.631997	-0.105776	-0.072222
C46	C	-0.131997	0.394224	0.427778
C47	C	-0.632009	-0.105790	0.072314
C48	C	-0.132009	0.394210	0.572314
C49	C	-0.553067	-0.104529	0.072319
C50	C	-0.053067	0.395471	0.572319
C51	C	-0.513592	-0.103884	0.000048
C52	C	-0.013592	0.396116	0.500048
C53	C	-0.427992	-0.102521	0.000053
C54	C	0.072008	0.397479	0.500053
C55	C	-0.359765	-0.101434	0.000063
C56	C	0.140235	0.398566	0.500063
C57	C	-0.897687	0.159887	0.072327
C58	C	-0.397687	0.659887	0.572327
C59	C	-0.896422	0.238830	0.072327
C60	C	-0.396422	0.738830	0.572327
C61	C	-0.895790	0.278311	0.000058
C62	C	-0.395790	0.778311	0.500058
C63	C	-0.896415	0.238843	-0.072216
C64	C	-0.396415	0.738843	0.427784
C65	C	-0.897674	0.159901	-0.072215
C66	C	-0.397674	0.659901	0.427785
C67	C	-0.891335	0.557209	-0.072220
C68	C	-0.391335	1.057209	0.427780
C69	C	-0.890078	0.636157	-0.072215
C70	C	-0.390078	1.136157	0.427785
C71	C	-0.890083	0.636138	0.072321
C72	C	-0.390083	1.136138	0.572321
C73	C	-0.891343	0.557196	0.072322
C74	C	-0.391343	1.057196	0.572322
C75	C	-0.891964	0.517734	0.000049
C76	C	-0.391964	1.017734	0.500049
C77	C	-0.893333	0.432135	0.000050
C78	C	-0.393333	0.932135	0.500050
C79	C	-0.894426	0.363909	0.000056
C80	C	-0.394426	0.863909	0.500056
C81	C	-0.888103	0.759637	0.000058
C82	C	-0.388103	1.259637	0.500058
C83	C	-0.889446	0.675619	0.000053
C84	C	-0.389446	1.175619	0.500053
N85	N	-0.893882	-0.101988	0.206606
N86	N	-0.393882	0.398012	0.706606
N87	N	-0.893881	-0.101961	-0.206491
N88	N	-0.393881	0.398039	0.293509
C89	C	-0.945525	-0.050543	0.248325
C90	C	-0.445525	0.449457	0.748325
C91	C	-0.945528	-0.050542	0.331778
C92	C	-0.445528	0.449458	0.831778
C93	C	-0.893884	-0.101981	0.373509
C94	C	-0.393884	0.398019	0.873509
C95	C	-0.842239	-0.153432	0.331785
C96	C	-0.342239	0.346568	0.831785
C97	C	-0.842240	-0.153437	0.248334
C98	C	-0.342240	0.346563	0.748334
C99	C	-0.842233	-0.153414	0.668332
C100	C	-0.342233	0.346586	1.168332
C101	C	-0.842234	-0.153403	0.751788
C102	C	-0.342234	0.346597	1.251788
C103	C	-0.945521	-0.050518	0.751775
C104	C	-0.445521	0.449482	1.251775
C105	C	-0.945522	-0.050523	0.668325
C106	C	-0.445522	0.449477	1.168325
C107	C	-0.893880	-0.101976	0.626607
C108	C	-0.393880	0.398024	1.126607
C109	C	-0.893878	-0.101978	0.536119
C110	C	-0.393878	0.398022	1.036119
C111	C	-0.893881	-0.101976	0.463996
C112	C	-0.393881	0.398024	0.963996
H113	H	-0.266842	-0.099956	0.131186
H114	H	0.233158	0.400044	0.631186
H115	H	-0.891856	0.525091	-0.131069
H116	H	-0.391856	1.025091	0.368931
H117	H	-0.987573	-0.008625	0.785751
H118	H	-0.487573	0.491375	1.285751
H119	H	-0.520938	-0.104025	0.131169
H120	H	-0.020938	0.395975	0.631169
H121	H	-0.895896	0.270994	-0.131058
H122	H	-0.395896	0.770994	0.368942
C123	C	-1.002330	0.006052	0.377665
C124	C	-0.502330	0.506052	0.877665
H125	H	-1.033080	0.036694	0.340859
H126	H	-0.533080	0.536694	0.840859
H127	H	-1.033729	-0.021195	0.410228
H128	H	-0.533729	0.478805	0.910228
H129	H	-0.975222	0.037586	0.410209
H130	H	-0.475222	0.537586	0.910209
C131	C	-0.675409	-0.106447	-0.151724
C132	C	-0.175409	0.393553	0.348276
H133	H	-0.640595	-0.105872	-0.194766
H134	H	-0.140595	0.394128	0.305234
H135	H	-0.700356	-0.151055	-0.154739
H136	H	-0.200356	0.348945	0.345261
H137	H	-0.712053	-0.062812	-0.154716
H138	H	-0.212053	0.437188	0.345284
C139	C	-0.509569	-0.104296	-0.151714
C140	C	-0.009569	0.395704	0.348286
H141	H	-0.456883	-0.103594	-0.141365
H142	H	0.043117	0.396406	0.358635
H143	H	-0.516812	-0.148768	-0.181079
H144	H	-0.016812	0.351232	0.318921
H145	H	-0.528160	-0.060522	-0.181735
H146	H	-0.028160	0.439478	0.318265
C147	C	-0.785432	-0.209995	0.797696
C148	C	-0.285432	0.290005	1.297696
H149	H	-0.792825	-0.202617	0.853370
H150	H	-0.292825	0.297383	1.353370
H151	H	-0.793467	-0.260525	0.784032
H152	H	-0.293467	0.239475	1.284032
H153	H	-0.734959	-0.201744	0.784015
H154	H	-0.234959	0.298256	1.284015
C155	C	-0.898382	0.116466	0.151823
C156	C	-0.398382	0.616466	0.651823
H157	H	-0.897820	0.151276	0.194863
H158	H	-0.397820	0.651276	0.694863
H159	H	-0.942991	0.091519	0.154833
H160	H	-0.442991	0.591519	0.654833
H161	H	-0.854748	0.079821	0.154824
H162	H	-0.354748	0.579821	0.654824
H163	H	-0.895915	0.270957	0.131174
H164	H	-0.395915	0.770957	0.631174
H165	H	-0.800183	-0.195307	0.634372
H166	H	-0.300183	0.304693	1.134372
H167	H	-0.664159	-0.106312	0.131161
H168	H	-0.164159	0.393688	0.631161
C169	C	-1.002333	0.006042	0.202428
C170	C	-0.502333	0.506042	0.702428
H171	H	-1.033094	0.036676	0.239229
H172	H	-0.533094	0.536676	0.739229
H173	H	-0.975235	0.037573	0.169864
H174	H	-0.475235	0.537573	0.669864
H175	H	-1.033732	-0.021218	0.169883
H176	H	-0.533732	0.478782	0.669883
H177	H	-0.987573	-0.008634	0.634349
H178	H	-0.487573	0.491366	1.134349
C179	C	-0.889374	0.679583	-0.151715
C180	C	-0.389374	1.179583	0.348285
H181	H	-0.889916	0.644774	-0.194758
H182	H	-0.389916	1.144774	0.305242
H183	H	-0.933001	0.716229	-0.154722
H184	H	-0.433001	1.216229	0.345278
H185	H	-0.844758	0.704527	-0.154711
H186	H	-0.344758	1.204527	0.345289
H187	H	-0.800192	-0.195319	0.365767
H188	H	-0.300192	0.304681	0.865767
C189	C	-0.112309	-0.097506	-0.151688
C190	C	0.387691	0.402494	0.348312
H191	H	-0.059642	-0.096670	-0.141335
H192	H	0.440358	0.403330	0.358665
H193	H	-0.119404	-0.141841	-0.181356
H194	H	0.380596	0.358159	0.318644
H195	H	-0.131079	-0.053597	-0.181409
H196	H	0.368921	0.446403	0.318591
H197	H	-0.800189	-0.195329	0.214367
H198	H	-0.300189	0.304671	0.714367
H199	H	-0.891861	0.525055	0.131171
H200	H	-0.391861	1.025055	0.631171
C201	C	-0.112353	-0.097505	0.151843
C202	C	0.387647	0.402495	0.651843
H203	H	-0.147174	-0.098060	0.194880
H204	H	0.352826	0.401940	0.694880
H205	H	-0.075708	-0.141133	0.154848
H206	H	0.424292	0.358867	0.654848
H207	H	-0.087409	-0.052890	0.154852
H208	H	0.412591	0.447110	0.654852
H209	H	-0.889574	0.668276	0.131169
H210	H	-0.389574	1.168276	0.631169
C211	C	-0.278094	-0.100113	-0.151699
C212	C	0.221906	0.399887	0.348301
H213	H	-0.330762	-0.100964	-0.141353
H214	H	0.169238	0.399036	0.358647
H215	H	-0.271007	-0.055786	-0.181395
H216	H	0.228993	0.444214	0.318605
H217	H	-0.259298	-0.144029	-0.181388
H218	H	0.240702	0.355971	0.318612
H219	H	-0.898174	0.127771	-0.131063
H220	H	-0.398174	0.627771	0.368937
