data_functionalizedCrystal
_audit_creation_method	'MofGen! by Chris Wilmer'
_symmetry_space_group_name_H-M	'P1'
_symmetry_Int_Tables_number	1
_symmetry_cell_setting	triclinic
loop_
_symmetry_equiv_pos_as_xyz
  x,y,z
_cell_length_a	19.805405
_cell_length_b	19.805407
_cell_length_c	19.805399
_cell_angle_alpha	89.978936
_cell_angle_beta	90.026615
_cell_angle_gamma	89.974289
loop_
_atom_site_label
_atom_site_type_symbol
_atom_site_fract_x
_atom_site_fract_y
_atom_site_fract_z
Zn1	Zn	-0.269497	-1.034734	0.382751
Zn2	Zn	-0.382686	-1.034648	0.269565
Zn3	Zn	-0.269514	-0.921549	0.269573
Zn4	Zn	-0.382648	-0.921512	0.382709
O5	O	-0.326086	-0.978111	0.326149
O6	O	-0.284521	-1.129439	0.367751
O7	O	-0.367696	-1.019625	0.174849
O8	O	-0.174795	-0.936615	0.284607
O9	O	-0.367680	-1.129376	0.284594
O10	O	-0.174783	-1.019771	0.367759
O11	O	-0.284549	-0.936531	0.174855
O12	O	-0.284512	-0.826827	0.284566
O13	O	-0.367615	-0.936551	0.477431
O14	O	-0.367631	-0.826800	0.367686
O15	O	-0.284484	-1.019735	0.477462
O16	O	-0.477397	-1.019589	0.284552
O17	O	-0.477369	-0.936468	0.367679
C18	C	-0.326070	-0.802255	0.326123
C19	C	-0.326079	-0.727023	0.326128
C20	C	-0.369424	-0.691682	0.369337
C21	C	-0.369424	-0.620994	0.369345
C22	C	-0.326082	-0.585647	0.326139
C23	C	-0.282733	-0.620993	0.282927
C24	C	-0.282730	-0.691680	0.282924
C25	C	-0.282743	-0.335920	0.282942
C26	C	-0.282750	-0.265227	0.282948
C27	C	-0.369437	-0.265233	0.369364
C28	C	-0.369434	-0.335920	0.369360
C29	C	-0.326082	-0.371260	0.326151
C30	C	-0.326082	-0.447908	0.326144
C31	C	-0.326085	-0.509000	0.326142
C32	C	-0.501942	-0.978034	0.326125
C33	C	-0.577174	-0.978063	0.326137
C34	C	-0.612454	-1.021337	0.369468
C35	C	-0.683142	-1.021361	0.369481
C36	C	-0.718550	-0.978114	0.326158
C37	C	-0.683265	-0.934835	0.282825
C38	C	-0.612578	-0.934808	0.282817
C39	C	-0.968338	-0.934944	0.282860
C40	C	-1.039030	-0.934976	0.282871
C41	C	-1.038902	-1.021497	0.369524
C42	C	-0.968215	-1.021470	0.369515
C43	C	-0.932937	-0.978189	0.326185
C44	C	-0.856289	-0.978162	0.326173
C45	C	-0.795197	-0.978144	0.326167
C46	C	-0.149543	-0.978207	0.326189
C47	C	-0.074311	-0.978248	0.326206
C48	C	-0.326043	-0.978149	0.502692
C49	C	-0.326025	-0.978165	0.577924
C50	C	-0.326098	-0.154653	0.326170
C51	C	-0.326092	-0.229885	0.326162
C52	C	-0.326080	-0.978112	0.150293
C53	C	-0.325907	-0.978227	0.075062
C54	C	-0.282737	-1.021480	0.613286
C55	C	-0.282717	-1.021487	0.683974
C56	C	-0.325990	-0.978182	0.719300
C57	C	-0.369280	-0.934862	0.683933
C58	C	-0.369296	-0.934852	0.613246
C59	C	-0.369217	-0.934900	0.969007
C60	C	-0.369200	-0.934915	1.039699
C61	C	-0.282638	-1.021535	1.039735
C62	C	-0.282654	-1.021525	0.969048
C63	C	-0.325942	-0.978203	0.933687
C64	C	-0.325961	-0.978195	0.857039
C65	C	-0.325974	-0.978193	0.795947
H66	H	-0.247448	-0.364684	0.247754
H67	H	-0.247501	-1.056746	0.584529
O68	O	-0.240690	-0.586555	0.240982
C69	C	-0.202241	-0.477657	0.202721
C70	C	-0.249900	-0.516572	0.250247
H71	H	-0.209660	-0.421069	0.210205
H72	H	-0.214050	-0.491476	0.148105
H73	H	-0.147687	-0.491625	0.214700
H74	H	-0.304470	-0.502625	0.238329
H75	H	-0.238032	-0.502749	0.304849
H76	H	-0.404729	-0.364696	0.404541
H77	H	-0.247452	-0.236450	0.247764
O78	O	-0.411598	-0.726045	0.411212
C79	C	-0.502964	-0.805848	0.420159
C80	C	-0.455255	-0.766966	0.372655
H81	H	-0.538262	-0.838953	0.389006
H82	H	-0.533991	-0.768474	0.451033
H83	H	-0.471918	-0.838939	0.455617
H84	H	-0.486248	-0.733874	0.337157
H85	H	-0.424226	-0.804377	0.341829
H86	H	-0.711864	-1.056605	0.404760
H87	H	-0.247431	-0.720453	0.247741
H88	H	-0.939389	-1.056688	0.404790
O89	O	-0.411481	-0.230799	0.411322
C90	C	-0.449937	-0.121905	0.449605
C91	C	-0.402277	-0.160815	0.402069
H92	H	-0.442523	-0.065316	0.442130
H93	H	-0.438124	-0.135784	0.504218
H94	H	-0.504490	-0.135817	0.437626
H95	H	-0.347708	-0.146924	0.413988
H96	H	-0.414149	-0.146933	0.347471
O97	O	-0.578166	-1.063367	0.411618
C98	C	-0.585508	-1.149211	0.497549
C99	C	-0.624420	-1.101637	0.449856
H100	H	-0.622887	-1.180175	0.528467
H101	H	-0.552440	-1.118132	0.532951
H102	H	-0.552383	-1.184582	0.466497
H103	H	-0.657581	-1.066257	0.480853
H104	H	-0.657446	-1.132758	0.414452
H105	H	-0.404720	-0.592222	0.404530
O106	O	-1.073322	-0.892896	0.240767
C107	C	-1.065994	-0.807093	0.154793
C108	C	-1.027075	-0.854698	0.202449
H109	H	-1.028620	-0.776208	0.123791
H110	H	-1.099082	-0.771657	0.185811
H111	H	-1.099100	-0.838212	0.119463
H112	H	-0.993932	-0.823634	0.237789
H113	H	-0.994029	-0.890137	0.171390
H114	H	-1.067635	-1.056737	0.404808
H115	H	-0.939620	-0.899705	0.247578
O116	O	-0.240648	-1.063630	0.718219
C117	C	-0.154767	-1.149525	0.710795
C118	C	-0.202390	-1.101842	0.671929
H119	H	-0.123813	-1.180422	0.673387
H120	H	-0.185808	-1.184946	0.743873
H121	H	-0.119390	-1.118465	0.743908
H122	H	-0.237776	-1.132846	0.638780
H123	H	-0.171307	-1.066418	0.638895
H124	H	-0.247419	-1.056791	0.940289
O125	O	-0.717762	-0.892889	0.240763
C126	C	-0.826714	-0.854560	0.202394
C127	C	-0.787732	-0.902108	0.250056
H128	H	-0.883291	-0.861986	0.209902
H129	H	-0.812886	-0.866475	0.147812
H130	H	-0.812816	-0.799977	0.214218
H131	H	-0.801610	-0.956707	0.238294
H132	H	-0.801564	-0.890135	0.304624
O133	O	-0.578410	-0.892749	0.240662
C134	C	-0.585992	-0.806896	0.154747
C135	C	-0.624770	-0.854510	0.202438
H136	H	-0.623458	-0.775958	0.123840
H137	H	-0.552909	-0.837942	0.119335
H138	H	-0.552895	-0.771504	0.185800
H139	H	-0.657905	-0.889912	0.171439
H140	H	-0.657812	-0.823422	0.237852
H141	H	-0.247389	-1.056807	1.068534
H142	H	-0.404439	-0.899648	1.068459
H143	H	-0.404475	-0.899635	0.940225
O144	O	-0.411293	-0.892857	0.718351
C145	C	-0.449605	-0.854453	0.827230
C146	C	-0.402001	-0.902068	0.788339
H147	H	-0.442099	-0.861873	0.883822
H148	H	-0.504202	-0.866306	0.813371
H149	H	-0.437722	-0.799888	0.813282
H150	H	-0.413823	-0.956649	0.802266
H151	H	-0.347418	-0.890157	0.802201
H152	H	-0.404539	-0.899574	0.584456
