data_functionalizedCrystal
_audit_creation_method	'MofGen! by Chris Wilmer'
_symmetry_space_group_name_H-M	'P1'
_symmetry_Int_Tables_number	1
_symmetry_cell_setting	triclinic
loop_
_symmetry_equiv_pos_as_xyz
  x,y,z
_cell_length_a	18.050591
_cell_length_b	21.295412
_cell_length_c	18.050588
_cell_angle_alpha	89.974935
_cell_angle_beta	90.025567
_cell_angle_gamma	89.970494
loop_
_atom_site_label
_atom_site_type_symbol
_atom_site_fract_x
_atom_site_fract_y
_atom_site_fract_z
Zn1	Zn	1.135349	-0.356037	-0.295757
Zn2	Zn	1.468682	-0.022703	0.037576
Zn3	Zn	1.802015	0.310630	0.370910
Zn4	Zn	1.135238	-0.250772	-0.419949
Zn5	Zn	1.468571	0.082561	-0.086615
Zn6	Zn	1.801904	0.415894	0.246718
Zn7	Zn	1.011149	-0.250771	-0.295768
Zn8	Zn	1.344482	0.082563	0.037565
Zn9	Zn	1.677816	0.415896	0.370898
Zn10	Zn	1.011113	-0.355993	-0.419901
Zn11	Zn	1.344446	-0.022660	-0.086568
Zn12	Zn	1.677779	0.310674	0.246766
O13	O	1.073212	-0.303393	-0.357844
O14	O	1.406545	0.029940	-0.024511
O15	O	1.739879	0.363274	0.308823
O16	O	1.239258	-0.342092	-0.312247
O17	O	1.572592	-0.008759	0.021087
O18	O	1.905925	0.324575	0.354420
O19	O	1.118746	-0.162683	-0.403501
O20	O	1.452079	0.170651	-0.070167
O21	O	1.785413	0.503984	0.263166
O22	O	1.027686	-0.264752	-0.191842
O23	O	1.361019	0.068581	0.141491
O24	O	1.694353	0.401915	0.474824
O25	O	1.239177	-0.264755	-0.403490
O26	O	1.572510	0.068579	-0.070156
O27	O	1.905844	0.401912	0.263177
O28	O	1.118935	-0.342090	-0.191834
O29	O	1.452268	-0.008757	0.141499
O30	O	1.785601	0.324576	0.474833
O31	O	1.027579	-0.162681	-0.312266
O32	O	1.360912	0.170652	0.021067
O33	O	1.694245	0.503985	0.354401
O34	O	0.907220	-0.264710	-0.312220
O35	O	1.240553	0.068624	0.021114
O36	O	1.573886	0.401957	0.354447
O37	O	1.027624	-0.444088	-0.403408
O38	O	1.360957	-0.110755	-0.070075
O39	O	1.694291	0.222579	0.263258
O40	O	0.907193	-0.342016	-0.403419
O41	O	1.240526	-0.008683	-0.070086
O42	O	1.573860	0.324651	0.263247
O43	O	1.118900	-0.444120	-0.312200
O44	O	1.452233	-0.110787	0.021133
O45	O	1.785566	0.222547	0.354466
O46	O	1.118711	-0.264712	-0.523867
O47	O	1.452044	0.068621	-0.190534
O48	O	1.785377	0.401954	0.142800
O49	O	1.027517	-0.342018	-0.523832
O50	O	1.360850	-0.008684	-0.190499
O51	O	1.694183	0.324649	0.142835
C52	C	0.880260	-0.303358	-0.357816
C53	C	1.213593	0.029975	-0.024483
C54	C	1.546927	0.363308	0.308850
C55	C	0.797714	-0.303358	-0.357822
C56	C	1.131047	0.029975	-0.024489
C57	C	1.464381	0.363308	0.308844
C58	C	0.598256	-0.261416	-0.308170
C59	C	0.931590	0.071917	0.025163
C60	C	1.264923	0.405251	0.358496
C61	C	0.548832	-0.245926	-0.375908
C62	C	0.882166	0.087407	-0.042574
C63	C	1.215499	0.420741	0.290759
C64	C	0.646584	-0.303387	-0.357845
C65	C	0.979917	0.029947	-0.024511
C66	C	1.313250	0.363280	0.308822
C67	C	0.548926	-0.318875	-0.290131
C68	C	0.882259	0.014458	0.043202
C69	C	1.215593	0.347792	0.376536
C70	C	0.500599	-0.303413	-0.357861
C71	C	0.833932	0.029920	-0.024527
C72	C	1.167265	0.363254	0.308806
C73	C	0.598247	-0.287867	-0.425618
C74	C	0.931580	0.045466	-0.092284
C75	C	1.264914	0.378800	0.241049
C76	C	0.598345	-0.360843	-0.339796
C77	C	0.931678	-0.027509	-0.006462
C78	C	1.265012	0.305824	0.326871
C79	C	0.548943	-0.345375	-0.407579
C80	C	0.882277	-0.012041	-0.074246
C81	C	1.215610	0.321292	0.259087
C82	C	0.730682	-0.303370	-0.357835
C83	C	1.064015	0.029963	-0.024501
C84	C	1.397349	0.363297	0.308832
C85	C	0.416502	-0.303430	-0.357878
C86	C	0.749836	0.029903	-0.024545
C87	C	1.083169	0.363237	0.308788
C88	C	1.073270	-0.467583	-0.357798
C89	C	1.406604	-0.134250	-0.024464
C90	C	1.739937	0.199083	0.308869
C91	C	1.073295	-0.537552	-0.357778
C92	C	1.406628	-0.204218	-0.024445
C93	C	1.739962	0.129115	0.308889
C94	C	1.025837	-0.570408	-0.310267
C95	C	1.359170	-0.237074	0.023067
C96	C	1.692503	0.096259	0.356400
C97	C	1.025834	-0.636150	-0.310253
C98	C	1.359167	-0.302817	0.023080
C99	C	1.692501	0.030516	0.356414
C100	C	1.073303	-0.669034	-0.357743
C101	C	1.406636	-0.335701	-0.024409
C102	C	1.739970	-0.002367	0.308924
C103	C	1.120764	-0.636170	-0.405263
C104	C	1.454098	-0.302837	-0.071930
C105	C	1.787431	0.030497	0.261404
C106	C	1.120760	-0.570429	-0.405281
C107	C	1.454094	-0.237095	-0.071947
C108	C	1.787427	0.096238	0.261386
N109	N	1.138313	-0.772279	-0.363419
N110	N	1.471647	-0.438945	-0.030086
N111	N	1.804980	-0.105612	0.303248
N112	N	1.138315	-0.834730	-0.363398
N113	N	1.471648	-0.501397	-0.030064
N114	N	1.804982	-0.168063	0.303269
C115	C	1.073317	-0.867109	-0.357693
C116	C	1.406650	-0.533776	-0.024360
C117	C	1.739983	-0.200442	0.308974
N118	N	1.008315	-0.834677	-0.351996
N119	N	1.341649	-0.501344	-0.018663
N120	N	1.674982	-0.168010	0.314671
N121	N	1.008314	-0.772220	-0.352013
N122	N	1.341648	-0.438887	-0.018680
N123	N	1.674981	-0.105553	0.314653
C124	C	1.073312	-0.740320	-0.357729
C125	C	1.406646	-0.406986	-0.024396
C126	C	1.739979	-0.073653	0.308938
C127	C	1.025852	-0.971251	-0.310164
C128	C	1.359185	-0.637917	0.023169
C129	C	1.692518	-0.304584	0.356502
C130	C	1.025848	-1.036994	-0.310156
C131	C	1.359181	-0.703661	0.023178
C132	C	1.692514	-0.370328	0.356511
C133	C	1.120785	-1.037013	-0.405162
C134	C	1.454118	-0.703680	-0.071829
C135	C	1.787451	-0.370346	0.261505
C136	C	1.120782	-0.971270	-0.405175
C137	C	1.454115	-0.637937	-0.071841
C138	C	1.787449	-0.304604	0.261492
C139	C	1.073316	-0.938393	-0.357672
C140	C	1.406650	-0.605060	-0.024338
C141	C	1.739983	-0.271727	0.308995
C142	C	1.266918	-0.303428	-0.357872
C143	C	1.600251	0.029905	-0.024539
C144	C	1.933584	0.363238	0.308795
C145	C	1.349463	-0.303443	-0.357884
C146	C	1.682797	0.029890	-0.024551
C147	C	2.016130	0.363223	0.308782
C148	C	1.073118	-0.303374	-0.550796
C149	C	1.406451	0.029959	-0.217463
C150	C	1.739785	0.363292	0.115871
C151	C	1.073146	-0.303387	-0.633342
C152	C	1.406479	0.029946	-0.300008
C153	C	1.739812	0.363280	0.033325
C154	C	1.073197	-0.139841	-0.357836
C155	C	1.406530	0.193492	-0.024503
C156	C	1.739864	0.526825	0.308830
C157	C	1.073316	-0.069874	-0.357647
C158	C	1.406649	0.263460	-0.024313
C159	C	1.739983	0.596793	0.309020
C160	C	1.023632	-0.345426	-0.882175
C161	C	1.356966	-0.012093	-0.548842
C162	C	1.690299	0.321241	-0.215509
C163	C	1.091351	-0.360879	-0.832710
C164	C	1.424685	-0.027546	-0.499377
C165	C	1.758018	0.305787	-0.166043
C166	C	1.073300	-0.303422	-0.930462
C167	C	1.406633	0.029911	-0.597129
C168	C	1.739966	0.363244	-0.263795
C169	C	1.005508	-0.287981	-0.832846
C170	C	1.338842	0.045352	-0.499512
C171	C	1.672175	0.378685	-0.166179
C172	C	1.073220	-0.303407	-0.784477
C173	C	1.406554	0.029927	-0.451144
C174	C	1.739887	0.363260	-0.117810
C175	C	1.141055	-0.318906	-0.882084
C176	C	1.474389	0.014428	-0.548751
C177	C	1.807722	0.347761	-0.215417
C178	C	1.055166	-0.245981	-0.882224
C179	C	1.388500	0.087353	-0.548891
C180	C	1.721833	0.420686	-0.215557
C181	C	1.122932	-0.261412	-0.832781
C182	C	1.456266	0.071921	-0.499448
C183	C	1.789599	0.405255	-0.166114
C184	C	1.073344	-0.303433	-1.014560
C185	C	1.406678	0.029900	-0.681227
C186	C	1.740011	0.363234	-0.347894
C187	C	1.073183	-0.303396	-0.700381
C188	C	1.406517	0.029938	-0.367047
C189	C	1.739850	0.363271	-0.033714
C190	C	1.073327	-0.303426	-0.164138
C191	C	1.406660	0.029908	0.169195
C192	C	1.739993	0.363241	0.502528
C193	C	1.073376	-0.303440	-0.081592
C194	C	1.406709	0.029894	0.251741
C195	C	1.740042	0.363227	0.585074
H196	H	0.619822	-0.274724	-0.482906
H197	H	0.953155	0.058609	-0.149572
H198	H	1.286488	0.391943	0.183761
H199	H	0.527086	-0.197348	-0.391186
H200	H	0.860419	0.135985	-0.057852
H201	H	1.193752	0.469319	0.275481
C202	C	1.112030	-0.426490	-0.803323
C203	C	1.445364	-0.093157	-0.469990
C204	C	1.778697	0.240177	-0.136657
H205	H	1.076721	-0.456293	-0.820231
H206	H	1.410054	-0.122959	-0.486897
H207	H	1.743388	0.210374	-0.153564
H208	H	1.159819	-0.437744	-0.820906
H209	H	1.493152	-0.104411	-0.487572
H210	H	1.826486	0.228922	-0.154239
H211	H	1.112290	-0.425912	-0.750698
H212	H	1.445623	-0.092579	-0.417365
H213	H	1.778957	0.240755	-0.084032
C214	C	0.519867	-0.393335	-0.464399
C215	C	0.853201	-0.060002	-0.131066
C216	C	1.186534	0.273331	0.202268
H217	H	0.536846	-0.382239	-0.512462
H218	H	0.870179	-0.048906	-0.179129
H219	H	1.203513	0.284427	0.154205
H220	H	0.537569	-0.434018	-0.451983
H221	H	0.870903	-0.100684	-0.118649
H222	H	1.204236	0.232649	0.214684
H223	H	0.467241	-0.393326	-0.463815
H224	H	0.800574	-0.059992	-0.130482
H225	H	1.133908	0.273341	0.202851
H226	H	0.987202	-0.944481	-0.271485
H227	H	1.320535	-0.611147	0.061848
H228	H	1.653868	-0.277814	0.395181
C229	C	0.973633	-0.672300	-0.257984
C230	C	1.306966	-0.338966	0.075350
C231	C	1.640300	-0.005633	0.408683
H232	H	0.945368	-0.643303	-0.229693
H233	H	1.278701	-0.309970	0.103641
H234	H	1.612035	0.023363	0.436974
H235	H	0.941258	-0.697931	-0.286375
H236	H	1.274591	-0.364597	0.046959
H237	H	1.607925	-0.031264	0.380292
H238	H	1.002075	-0.697959	-0.225624
H239	H	1.335409	-0.364625	0.107709
H240	H	1.668742	-0.031292	0.441042
H241	H	1.159436	-1.063786	-0.443828
H242	H	1.492770	-0.730453	-0.110494
H243	H	1.826103	-0.397120	0.222839
C244	C	0.627754	-0.426445	-0.319129
C245	C	0.961087	-0.093112	0.014204
C246	C	1.294421	0.240221	0.347537
H247	H	0.610898	-0.437380	-0.270971
H248	H	0.944232	-0.104046	0.062362
H249	H	1.277565	0.229287	0.395696
H250	H	0.610136	-0.456377	-0.353929
H251	H	0.943470	-0.123043	-0.020596
H252	H	1.276803	0.210290	0.312738
H253	H	0.680378	-0.426047	-0.319718
H254	H	1.013711	-0.092714	0.013615
H255	H	1.347045	0.240619	0.346948
C256	C	1.034459	-0.180388	-0.911635
C257	C	1.367792	0.152945	-0.578301
C258	C	1.701125	0.486278	-0.244968
H259	H	0.986280	-0.169484	-0.894809
H260	H	1.319613	0.163849	-0.561476
H261	H	1.652946	0.497183	-0.228142
H262	H	1.069219	-0.150437	-0.893989
H263	H	1.402553	0.182896	-0.560656
H264	H	1.735886	0.516229	-0.227323
H265	H	1.035083	-0.180783	-0.964258
H266	H	1.368416	0.152550	-0.630925
H267	H	1.701749	0.485884	-0.297592
H268	H	1.198369	-0.332015	-0.903624
H269	H	1.531702	0.001318	-0.570291
H270	H	1.865035	0.334652	-0.236957
H271	H	0.527222	-0.331942	-0.232867
H272	H	0.860555	0.001391	0.100466
H273	H	1.193889	0.334724	0.433799
H274	H	0.987184	-0.543643	-0.271589
H275	H	1.320517	-0.210310	0.061744
H276	H	1.653850	0.123024	0.395078
H277	H	1.159414	-0.662948	-0.443930
H278	H	1.492747	-0.329615	-0.110596
H279	H	1.826080	0.003718	0.222737
C280	C	1.172971	-0.534286	-0.457541
C281	C	1.506304	-0.200952	-0.124208
C282	C	1.839638	0.132381	0.209126
H283	H	1.201245	-0.563283	-0.485821
H284	H	1.534578	-0.229950	-0.152488
H285	H	1.867912	0.103383	0.180845
H286	H	1.144543	-0.508620	-0.489899
H287	H	1.477877	-0.175286	-0.156566
H288	H	1.811210	0.158047	0.176767
H289	H	1.205349	-0.508661	-0.429137
H290	H	1.538682	-0.175328	-0.095803
H291	H	1.872015	0.158005	0.237530
H292	H	0.987196	-1.063745	-0.271469
H293	H	1.320529	-0.730411	0.061865
H294	H	1.653863	-0.397078	0.395198
H295	H	1.159429	-0.944519	-0.443862
H296	H	1.492763	-0.611185	-0.110528
H297	H	1.826096	-0.277852	0.222805
H298	H	0.981716	-0.380981	-0.903861
H299	H	1.315049	-0.047648	-0.570528
H300	H	1.648382	0.285686	-0.237194
C301	C	1.179687	-0.213422	-0.803651
C302	C	1.513020	0.119912	-0.470318
C303	C	1.846354	0.453245	-0.136984
H304	H	1.154943	-0.182622	-0.774722
H305	H	1.488277	0.150712	-0.441389
H306	H	1.821610	0.484045	-0.108055
H307	H	1.215472	-0.234362	-0.773968
H308	H	1.548806	0.098971	-0.440634
H309	H	1.882139	0.432305	-0.107301
H310	H	1.203653	-0.193668	-0.844294
H311	H	1.536986	0.139665	-0.510961
H312	H	1.870319	0.472998	-0.177627
C313	C	0.627516	-0.213419	-0.251486
C314	C	0.960849	0.119914	0.081848
C315	C	1.294183	0.453247	0.415181
H316	H	0.610561	-0.172624	-0.264440
H317	H	0.943894	0.160709	0.068893
H318	H	1.277227	0.494043	0.402227
H319	H	0.609904	-0.224011	-0.203499
H320	H	0.943238	0.109322	0.129834
H321	H	1.276571	0.442655	0.463168
H322	H	0.680142	-0.214004	-0.251562
H323	H	1.013475	0.119329	0.081772
H324	H	1.346808	0.452662	0.415105
C325	C	0.928113	-0.270358	-0.803599
C326	C	1.261446	0.062975	-0.470266
C327	C	1.594779	0.396309	-0.136932
H328	H	0.892917	-0.300254	-0.820513
H329	H	1.226250	0.033079	-0.487180
H330	H	1.559584	0.366412	-0.153847
H331	H	0.928771	-0.270112	-0.750978
H332	H	1.262104	0.063222	-0.417645
H333	H	1.595437	0.396555	-0.084311
H334	H	0.914898	-0.229844	-0.821271
H335	H	1.248231	0.103490	-0.487938
H336	H	1.581565	0.436823	-0.154605
