data_functionalizedCrystal
_audit_creation_method	'MofGen! by Chris Wilmer'
_symmetry_space_group_name_H-M	'P1'
_symmetry_Int_Tables_number	1
_symmetry_cell_setting	triclinic
loop_
_symmetry_equiv_pos_as_xyz
  x,y,z
_cell_length_a	19.077105
_cell_length_b	12.759399
_cell_length_c	19.077174
_cell_angle_alpha	92.274913
_cell_angle_beta	85.483752
_cell_angle_gamma	87.711582
loop_
_atom_site_label
_atom_site_type_symbol
_atom_site_fract_x
_atom_site_fract_y
_atom_site_fract_z
Zn1	Zn	1.093763	-0.510482	-0.441860
Zn2	Zn	1.088967	-0.678820	-0.323978
Zn3	Zn	0.971146	-0.495795	-0.319257
Zn4	Zn	0.975861	-0.678751	-0.437096
O5	O	1.032434	-0.590962	-0.380548
O6	O	1.191778	-0.538988	-0.430192
O7	O	1.069358	-0.648424	-0.224702
O8	O	0.987446	-0.350726	-0.335539
O9	O	1.188254	-0.662665	-0.343585
O10	O	1.077532	-0.361516	-0.425615
O11	O	0.982795	-0.513956	-0.221233
O12	O	0.873121	-0.513890	-0.330919
O13	O	0.995481	-0.662548	-0.536378
O14	O	0.876585	-0.648307	-0.417495
O15	O	1.082103	-0.538921	-0.539878
O16	O	1.073929	-0.825829	-0.338965
O17	O	0.990830	-0.825778	-0.422072
C18	C	0.849274	-0.579498	-0.373178
C19	C	0.770918	-0.574620	-0.370042
C20	C	1.032390	-0.863926	-0.380530
C21	C	1.032437	-0.980706	-0.380549
C22	C	0.735924	-0.642409	-0.413573
C23	C	0.662301	-0.637811	-0.410630
C24	C	0.623671	-0.565430	-0.364151
C25	C	0.658669	-0.497634	-0.320619
C26	C	0.732292	-0.502227	-0.323566
C27	C	0.403288	-0.544174	-0.350514
C28	C	0.329660	-0.539588	-0.347569
C29	C	0.333297	-0.679765	-0.437581
C30	C	0.406920	-0.684356	-0.440521
C31	C	0.441912	-0.616556	-0.396991
N32	N	0.548415	-0.560731	-0.361140
N33	N	0.517167	-0.621250	-0.400006
C34	C	1.075760	-1.035566	-0.337328
C35	C	1.075806	-1.145295	-0.337353
C36	C	0.989201	-1.145293	-0.423822
C37	C	0.989159	-1.035568	-0.423800
C38	C	1.158010	-1.298803	-0.315609
C39	C	1.201327	-1.353665	-0.272377
C40	C	1.209416	-1.314501	-0.204030
C41	C	1.174179	-1.220474	-0.178900
C42	C	1.130857	-1.165617	-0.222128
C43	C	1.122781	-1.204781	-0.290485
C44	C	0.906953	-0.882057	-0.445537
C45	C	0.863627	-0.827197	-0.488762
C46	C	0.855530	-0.866359	-0.557110
C47	C	0.890755	-0.960388	-0.582236
C48	C	0.934081	-1.015248	-0.539012
C49	C	0.942179	-0.976078	-0.470664
C50	C	1.216310	-0.602472	-0.387947
C51	C	1.294667	-0.607377	-0.391100
C52	C	1.039853	-0.602365	-0.564422
C53	C	1.043014	-0.607224	-0.642778
C54	C	1.032498	-0.316935	-0.380582
C55	C	1.032525	-0.200161	-0.380596
C56	C	0.999433	-0.539498	-0.677784
C57	C	1.002401	-0.544072	-0.751408
C58	C	1.048954	-0.616368	-0.790025
C59	C	1.092537	-0.684101	-0.755014
C60	C	1.089565	-0.679531	-0.681391
C61	C	1.062671	-0.637547	-1.010407
C62	C	1.065641	-0.642110	-1.084035
C63	C	0.975504	-0.502082	-1.080423
C64	C	0.972540	-0.497514	-1.006799
C65	C	1.016120	-0.565251	-0.971795
N66	N	1.051990	-0.621043	-0.865280
N67	N	1.013079	-0.560580	-0.896541
C68	C	1.025085	-0.579531	-0.197391
C69	C	1.022060	-0.574384	-0.119040
H70	H	0.767372	-0.701353	-0.451418
H71	H	1.180763	-1.188599	-0.123242
O72	O	0.947177	-1.198747	-0.465763
C73	C	0.956514	-1.307360	-0.456527
H74	H	0.977458	-1.320426	-0.403076
H75	H	0.995720	-1.343365	-0.499888
C76	C	0.859735	-1.343666	-0.525719
C77	C	0.885453	-1.359714	-0.460066
H78	H	0.815903	-1.375963	-0.527905
H79	H	0.853446	-1.270492	-0.531944
H80	H	0.892414	-1.373670	-0.561845
H81	H	0.852779	-1.329699	-0.423942
H82	H	0.891735	-1.432885	-0.453835
O83	O	0.927374	-0.427325	-0.969182
C84	C	0.934083	-0.437834	-0.896694
H85	H	0.988075	-0.475018	-0.888823
H86	H	0.891414	-0.489873	-0.874114
C87	C	0.859803	-0.283115	-0.868316
C88	C	0.926120	-0.328778	-0.858648
H89	H	0.854888	-0.215847	-0.844846
H90	H	0.855281	-0.276037	-0.917152
H91	H	0.824253	-0.326492	-0.849499
H92	H	0.961668	-0.285409	-0.877472
H93	H	0.930648	-0.335847	-0.809813
H94	H	0.633813	-0.693013	-0.446077
O95	O	0.968283	-1.106541	-0.563543
C96	C	0.951837	-1.129360	-0.633134
H97	H	0.934264	-1.053833	-0.657899
H98	H	0.907580	-1.186843	-0.632700
C99	C	1.038979	-1.271425	-0.645866
C100	C	1.017402	-1.178660	-0.676285
H101	H	1.079421	-1.301839	-0.672483
H102	H	1.050058	-1.256054	-0.598980
H103	H	1.002092	-1.319315	-0.645506
H104	H	1.054285	-1.130767	-0.676636
H105	H	1.006331	-1.194023	-0.723172
H106	H	0.884163	-0.992275	-0.637891
O107	O	1.150235	-1.336708	-0.382054
C108	C	1.173293	-1.262715	-0.430796
H109	H	1.211716	-1.209141	-0.405882
H110	H	1.126120	-1.213700	-0.446271
C111	C	1.163109	-1.386273	-0.527392
C112	C	1.210305	-1.320477	-0.496793
H113	H	1.185937	-1.421902	-0.568103
H114	H	1.147571	-1.436122	-0.494554
H115	H	1.123801	-1.345416	-0.540281
H116	H	1.249607	-1.361336	-0.483896
H117	H	1.225850	-1.270636	-0.529631
O118	O	0.299385	-0.745569	-0.479971
C119	C	0.320218	-0.728223	-0.550977
H120	H	0.373741	-0.691271	-0.554621
H121	H	0.279758	-0.673147	-0.573123
C122	C	0.259593	-0.878975	-0.589230
C123	C	0.325333	-0.833598	-0.593706
H124	H	0.262745	-0.943973	-0.615588
H125	H	0.245554	-0.890659	-0.541392
H126	H	0.225882	-0.833068	-0.607684
H127	H	0.359040	-0.879499	-0.575244
H128	H	0.339377	-0.821924	-0.641542
H129	H	0.940023	-0.446936	-1.108932
H130	H	0.966910	-0.488927	-0.779906
H131	H	0.431769	-0.488974	-0.315063
H132	H	1.103553	-0.700983	-1.115475
H133	H	1.125059	-0.734673	-0.652891
O134	O	0.444519	-0.754523	-0.485716
C135	C	0.488947	-0.700293	-0.533033
H136	H	0.498985	-0.619771	-0.508701
H137	H	0.462690	-0.690334	-0.584150
C138	C	0.547058	-0.862176	-0.578423
C139	C	0.559392	-0.763281	-0.548535
H140	H	0.590510	-0.901031	-0.587989
H141	H	0.517124	-0.898713	-0.546547
H142	H	0.525175	-0.853863	-0.621018
H143	H	0.581266	-0.771595	-0.505938
H144	H	0.589331	-0.726747	-0.580405
O145	O	0.813438	-0.812915	-0.599017
C146	C	0.784059	-0.721544	-0.562179
H147	H	0.818636	-0.698540	-0.518459
H148	H	0.729016	-0.737325	-0.538290
C149	C	0.737147	-0.659746	-0.666963
C150	C	0.779619	-0.631487	-0.613270
H151	H	0.734405	-0.604195	-0.698479
H152	H	0.756937	-0.721306	-0.691782
H153	H	0.691282	-0.672898	-0.647048
H154	H	0.825485	-0.618349	-0.633185
H155	H	0.759836	-0.569922	-0.588456
H156	H	1.244687	-1.359177	-0.168830
H157	H	1.130438	-0.742971	-0.786462
O158	O	0.621039	-0.427410	-0.275491
C159	C	0.548554	-0.437872	-0.282236
H160	H	0.539418	-0.519806	-0.304822
H161	H	0.529196	-0.376676	-0.319017
C162	C	0.519083	-0.320654	-0.181666
C163	C	0.507863	-0.421290	-0.209401
H164	H	0.493982	-0.310421	-0.136739
H165	H	0.567918	-0.313601	-0.177123
H166	H	0.502952	-0.269669	-0.212324
H167	H	0.524002	-0.472272	-0.178747
H168	H	0.459030	-0.428350	-0.213937
H169	H	1.102169	-1.089061	-0.201668
O170	O	1.105083	-0.703376	-0.976522
C171	C	1.146800	-0.768172	-1.026396
H172	H	1.151360	-0.728548	-1.078980
H173	H	1.121289	-0.846839	-1.033175
C174	C	1.215069	-0.834880	-0.936099
C175	C	1.220675	-0.786208	-1.000684
H176	H	1.260638	-0.846011	-0.920239
H177	H	1.186962	-0.791229	-0.902498
H178	H	1.193807	-0.900431	-0.941757
H179	H	1.241929	-0.720654	-0.995023
H180	H	1.248787	-0.829850	-1.034284
H181	H	0.298210	-0.480634	-0.309725
O182	O	0.766175	-0.436338	-0.281205
C183	C	0.716294	-0.371451	-0.239560
H184	H	0.663706	-0.411049	-0.234970
H185	H	0.709527	-0.292836	-0.265153
C186	C	0.806577	-0.304646	-0.171336
C187	C	0.741989	-0.353285	-0.165693
H188	H	0.822427	-0.293435	-0.125772
H189	H	0.840183	-0.348358	-0.199394
H190	H	0.800929	-0.239139	-0.192666
H191	H	0.747639	-0.418797	-0.144371
H192	H	0.708384	-0.309583	-0.137629
H193	H	0.913548	-0.850156	-0.389884
O194	O	1.117699	-0.982215	-0.295241
C195	C	1.075740	-0.913476	-0.248061
H196	H	1.020055	-0.942872	-0.241434
H197	H	1.074141	-0.831503	-0.269740
C198	C	1.175677	-0.873307	-0.184333
C199	C	1.107286	-0.909416	-0.176188
H200	H	1.195137	-0.870798	-0.139999
H201	H	1.203947	-0.919614	-0.216120
H202	H	1.174336	-0.804999	-0.202400
H203	H	1.108630	-0.977727	-0.158129
H204	H	1.079017	-0.863120	-0.144396
H205	H	1.230018	-1.430222	-0.292844
H206	H	0.961529	-0.480621	-0.646347
H207	H	0.834949	-0.750629	-0.468299
