data_functionalizedCrystal
_audit_creation_method	'MofGen! by Chris Wilmer'
_symmetry_space_group_name_H-M	'P1'
_symmetry_Int_Tables_number	1
_symmetry_cell_setting	triclinic
loop_
_symmetry_equiv_pos_as_xyz
  x,y,z
_cell_length_a	18.050590
_cell_length_b	18.050590
_cell_length_c	18.050583
_cell_angle_alpha	89.962959
_cell_angle_beta	89.999666
_cell_angle_gamma	90.007719
loop_
_atom_site_label
_atom_site_type_symbol
_atom_site_fract_x
_atom_site_fract_y
_atom_site_fract_z
Zn1	Zn	1.135350	-0.295821	-0.419598
Zn2	Zn	1.135280	-0.420034	-0.295406
Zn3	Zn	1.011167	-0.295839	-0.295456
Zn4	Zn	1.011139	-0.419950	-0.419589
O5	O	1.073234	-0.357911	-0.357512
O6	O	1.239266	-0.312326	-0.403106
O7	O	1.118798	-0.403602	-0.191488
O8	O	1.027682	-0.191912	-0.311948
O9	O	1.239214	-0.403585	-0.311863
O10	O	1.118919	-0.191899	-0.403155
O11	O	1.027613	-0.312356	-0.191525
O12	O	0.907239	-0.312275	-0.311939
O13	O	1.027633	-0.403442	-0.523514
O14	O	0.907218	-0.403459	-0.403139
O15	O	1.118891	-0.312245	-0.523521
O16	O	1.118771	-0.523948	-0.311854
O17	O	1.027565	-0.523886	-0.403091
C18	C	0.880282	-0.357860	-0.357544
C19	C	0.797736	-0.357856	-0.357575
C20	C	0.598296	-0.407584	-0.407052
C21	C	0.548891	-0.339865	-0.425328
C22	C	0.646606	-0.357898	-0.357539
C23	C	0.548928	-0.425656	-0.339262
C24	C	0.500621	-0.357944	-0.357505
C25	C	0.598289	-0.290143	-0.375851
C26	C	0.598330	-0.375979	-0.289753
C27	C	0.548948	-0.308213	-0.308004
C28	C	0.730704	-0.357872	-0.357560
C29	C	0.416524	-0.357962	-0.357484
C30	C	1.073177	-0.550863	-0.357482
C31	C	1.073220	-0.633409	-0.357495
C32	C	1.122921	-0.832866	-0.307949
C33	C	1.141058	-0.882192	-0.375725
C34	C	1.073263	-0.784539	-0.357524
C35	C	1.055201	-0.882295	-0.289779
C36	C	1.073305	-0.930524	-0.357547
C37	C	1.091434	-0.832778	-0.425335
C38	C	1.005546	-0.832877	-0.339344
C39	C	1.023657	-0.882180	-0.407166
C40	C	1.073240	-0.700441	-0.357510
C41	C	1.073327	-1.014621	-0.357568
C42	C	1.266940	-0.357963	-0.357480
C43	C	1.349485	-0.357984	-0.357467
C44	C	1.073267	-0.357832	-0.551218
C45	C	1.073281	-0.357798	-0.633764
C46	C	1.073312	-0.164205	-0.357558
C47	C	1.073345	-0.081660	-0.357578
C48	C	1.122957	-0.308181	-0.833218
C49	C	1.055220	-0.289992	-0.882632
C50	C	1.073311	-0.357785	-0.784894
C51	C	1.141075	-0.375927	-0.882562
C52	C	1.073345	-0.357772	-0.930879
C53	C	1.005538	-0.339561	-0.833220
C54	C	1.091438	-0.425528	-0.833147
C55	C	1.023655	-0.407365	-0.882538
C56	C	1.073292	-0.357791	-0.700796
C57	C	1.073357	-0.357766	-1.014976
C58	C	1.073244	-0.357936	-0.164560
C59	C	1.073374	-0.357761	-0.082014
H60	H	0.619880	-0.232843	-0.391360
F61	F	1.111492	-0.500395	-0.804713
F62	F	0.930689	-0.804543	-0.319203
F63	F	1.111519	-0.804472	-0.500251
F64	F	0.626716	-0.395965	-0.214854
F65	F	0.968790	-0.910307	-0.462037
F66	F	0.520803	-0.253257	-0.253255
H67	H	0.619965	-0.449529	-0.448970
F68	F	0.520507	-0.319894	-0.500236
H69	H	1.039908	-0.904045	-0.232479
F70	F	1.177828	-0.804561	-0.253208
F71	F	0.520586	-0.500528	-0.319074
F72	F	1.177745	-0.253319	-0.804910
F73	F	1.035193	-0.215106	-0.911045
F74	F	0.930628	-0.319419	-0.805012
F75	F	0.968735	-0.462181	-0.910677
F76	F	1.215960	-0.395993	-0.910892
F77	F	1.215935	-0.910495	-0.395853
