data_functionalizedCrystal
_audit_creation_method	'MofGen! by Chris Wilmer'
_symmetry_space_group_name_H-M	'P1'
_symmetry_Int_Tables_number	1
_symmetry_cell_setting	triclinic
loop_
_symmetry_equiv_pos_as_xyz
  x,y,z
_cell_length_a	16.120484
_cell_length_b	16.625548
_cell_length_c	16.625539
_cell_angle_alpha	89.977655
_cell_angle_beta	87.131385
_cell_angle_gamma	87.074492
loop_
_atom_site_label
_atom_site_type_symbol
_atom_site_fract_x
_atom_site_fract_y
_atom_site_fract_z
Zn1	Zn	-0.331909	-1.216387	0.472206
Zn2	Zn	0.001424	-0.883053	0.805539
Zn3	Zn	0.334758	-0.549720	1.138873
Zn4	Zn	-0.471333	-1.209445	0.344203
Zn5	Zn	-0.138000	-0.876112	0.677536
Zn6	Zn	0.195333	-0.542779	1.010869
Zn7	Zn	-0.331938	-1.081547	0.337384
Zn8	Zn	0.001396	-0.748214	0.670717
Zn9	Zn	0.334729	-0.414880	1.004050
Zn10	Zn	-0.471282	-1.074677	0.478986
Zn11	Zn	-0.137949	-0.741344	0.812319
Zn12	Zn	0.195384	-0.408010	1.145653
O13	O	-0.401616	-1.145514	0.408194
O14	O	-0.068282	-0.812181	0.741528
O15	O	0.265051	-0.478847	1.074861
O16	O	-0.350413	-1.328298	0.455242
O17	O	-0.017080	-0.994964	0.788576
O18	O	0.316254	-0.661631	1.121909
O19	O	-0.452875	-1.192450	0.230467
O20	O	-0.119542	-0.859116	0.563801
O21	O	0.213791	-0.525783	0.897134
O22	O	-0.215268	-1.105214	0.349577
O23	O	0.118065	-0.771881	0.682910
O24	O	0.451398	-0.438547	1.016243
O25	O	-0.452848	-1.323198	0.361199
O26	O	-0.119514	-0.989865	0.694532
O27	O	0.213819	-0.656531	1.027866
O28	O	-0.215247	-1.204280	0.448630
O29	O	0.118086	-0.870947	0.781963
O30	O	0.451420	-0.537613	1.115297
O31	O	-0.350462	-1.098483	0.225457
O32	O	-0.017129	-0.765150	0.558791
O33	O	0.316204	-0.431817	0.892124
O34	O	-0.350413	-0.967804	0.356151
O35	O	-0.017080	-0.634470	0.689484
O36	O	0.316254	-0.301137	1.022818
O37	O	-0.452761	-1.093505	0.590917
O38	O	-0.119428	-0.760171	0.924251
O39	O	0.213906	-0.426838	1.257584
O40	O	-0.452789	-0.962756	0.460186
O41	O	-0.119456	-0.629423	0.793519
O42	O	0.213878	-0.296090	1.126852
O43	O	-0.350364	-1.197618	0.585936
O44	O	-0.017031	-0.864285	0.919269
O45	O	0.316303	-0.530952	1.252603
O46	O	-0.587992	-1.185788	0.367773
O47	O	-0.254659	-0.852455	0.701107
O48	O	0.078674	-0.519121	1.034440
O49	O	-0.587955	-1.086774	0.466798
O50	O	-0.254622	-0.753441	0.800131
O51	O	0.078712	-0.420107	1.133464
C52	C	-0.401599	-0.936024	0.408165
C53	C	-0.068266	-0.602691	0.741498
C54	C	0.265068	-0.269357	1.074831
C55	C	-0.401612	-0.846402	0.408172
C56	C	-0.068279	-0.513069	0.741505
C57	C	0.265055	-0.179736	1.074839
C58	C	-0.401610	-0.518227	0.408196
C59	C	-0.068277	-0.184893	0.741530
C60	C	0.265056	0.148440	1.074863
C61	C	-0.401609	-0.609535	0.408187
C62	C	-0.068275	-0.276202	0.741520
C63	C	0.265058	0.057131	1.074853
C64	C	-0.401612	-0.682312	0.408183
C65	C	-0.068278	-0.348978	0.741517
C66	C	0.265055	-0.015645	1.074850
C67	C	-0.401609	-0.773626	0.408175
C68	C	-0.068276	-0.440293	0.741509
C69	C	0.265058	-0.106959	1.074842
C70	C	-0.618224	-1.134804	0.418779
C71	C	-0.284890	-0.801471	0.752112
C72	C	0.048443	-0.468138	1.085445
C73	C	-0.710890	-1.130296	0.423334
C74	C	-0.377556	-0.796963	0.756667
C75	C	-0.044223	-0.463630	1.090000
C76	C	-0.880551	-1.122071	0.431666
C77	C	-0.547218	-0.788737	0.765000
C78	C	-0.213885	-0.455404	1.098333
C79	C	-0.921839	-1.169102	0.384736
C80	C	-0.588506	-0.835769	0.718069
C81	C	-0.255173	-0.502435	1.051402
C82	C	-1.016245	-1.164525	0.389372
C83	C	-0.682912	-0.831192	0.722706
C84	C	-0.349578	-0.497858	1.056039
C85	C	-0.786137	-1.126646	0.427031
C86	C	-0.452804	-0.793313	0.760364
C87	C	-0.119471	-0.459980	1.093698
C88	C	-0.184162	-1.156288	0.397587
C89	C	0.149172	-0.822954	0.730920
C90	C	0.482505	-0.489621	1.064253
C91	C	-0.091496	-1.160879	0.393066
C92	C	0.241838	-0.827545	0.726399
C93	C	0.575171	-0.494212	1.059733
C94	C	-0.401554	-1.145569	0.618500
C95	C	-0.068220	-0.812236	0.951834
C96	C	0.265113	-0.478903	1.285167
C97	C	-0.401527	-1.145593	0.708120
C98	C	-0.068194	-0.812260	1.041454
C99	C	0.265140	-0.478926	1.374787
C100	C	-0.401627	-0.355822	0.408217
C101	C	-0.068294	-0.022489	0.741550
C102	C	0.265039	0.310844	1.074884
C103	C	-0.401618	-0.445444	0.408206
C104	C	-0.068285	-0.112111	0.741539
C105	C	0.265048	0.221223	1.074873
C106	C	-0.401617	-1.145508	0.198704
C107	C	-0.068284	-0.812175	0.532037
C108	C	0.265049	-0.478841	0.865370
C109	C	-0.401409	-1.145652	0.109073
C110	C	-0.068076	-0.812319	0.442406
C111	C	0.265258	-0.478986	0.775740
C112	C	-0.401434	-1.145635	1.036292
C113	C	-0.068100	-0.812302	1.369625
C114	C	0.265233	-0.478968	1.702958
C115	C	-0.401462	-1.145621	0.944984
C116	C	-0.068129	-0.812288	1.278318
C117	C	0.265204	-0.478954	1.611651
C118	C	-0.401481	-1.145614	0.872209
C119	C	-0.068148	-0.812281	1.205542
C120	C	0.265186	-0.478948	1.538876
C121	C	-0.401508	-1.145600	0.780896
C122	C	-0.068175	-0.812266	1.114229
C123	C	0.265158	-0.478933	1.447563
H124	H	-0.886286	-1.212803	0.341075
H125	H	-0.552953	-0.879470	0.674408
H126	H	-0.219620	-0.546137	1.007741
H127	H	-0.916102	-1.078371	0.475323
H128	H	-0.582769	-0.745038	0.808656
H129	H	-0.249435	-0.411705	1.141990
