data_functionalizedCrystal
_audit_creation_method	'MofGen! by Chris Wilmer'
_symmetry_space_group_name_H-M	'P1'
_symmetry_Int_Tables_number	1
_symmetry_cell_setting	triclinic
loop_
_symmetry_equiv_pos_as_xyz
  x,y,z
_cell_length_a	18.101398
_cell_length_b	25.639239
_cell_length_c	18.101389
_cell_angle_alpha	89.979551
_cell_angle_beta	89.975673
_cell_angle_gamma	90.033952
loop_
_atom_site_label
_atom_site_type_symbol
_atom_site_fract_x
_atom_site_fract_y
_atom_site_fract_z
Zn1	Zn	1.132082	-0.208272	-0.418828
Zn2	Zn	1.131961	-0.295693	-0.294982
Zn3	Zn	1.008241	-0.208266	-0.294989
Zn4	Zn	1.008175	-0.295671	-0.418771
O5	O	1.070115	-0.251975	-0.356893
O6	O	1.235699	-0.219880	-0.402421
O7	O	1.115527	-0.284103	-0.191350
O8	O	1.024747	-0.135102	-0.311444
O9	O	1.235610	-0.284108	-0.311432
O10	O	1.115732	-0.135106	-0.402428
O11	O	1.024630	-0.219871	-0.191356
O12	O	0.904599	-0.219849	-0.311388
O13	O	1.024635	-0.284070	-0.522411
O14	O	0.904551	-0.284065	-0.402330
O15	O	1.115668	-0.219858	-0.522454
O16	O	1.115463	-0.368855	-0.311376
O17	O	1.024518	-0.368839	-0.402323
C18	C	0.877704	-0.251954	-0.356854
C19	C	0.795390	-0.251958	-0.356855
C20	C	0.496299	-0.251990	-0.356917
C21	C	0.527630	-0.211386	-0.299978
C22	C	0.613248	-0.211495	-0.299735
C23	C	0.644682	-0.251974	-0.356886
C24	C	0.613553	-0.307048	-0.335559
C25	C	0.527908	-0.306822	-0.335163
C26	C	0.527917	-0.238000	-0.435317
C27	C	0.613568	-0.236773	-0.434890
C28	C	0.728541	-0.251968	-0.356870
C29	C	0.412440	-0.252000	-0.356932
C30	C	1.069990	-0.387818	-0.356859
C31	C	1.070005	-0.445932	-0.356869
C32	C	1.117594	-0.806291	-0.309617
C33	C	1.117622	-0.860895	-0.309627
O34	O	1.157955	-0.889129	-0.269415
N35	N	1.070245	-0.888214	-0.356942
C36	C	1.022841	-0.860926	-0.404255
O37	O	0.982546	-0.889177	-0.444501
C38	C	1.022817	-0.806323	-0.404248
C39	C	1.070192	-0.779007	-0.356925
C40	C	1.164965	-0.778975	-0.262299
C41	C	1.164936	-0.724374	-0.262288
C42	C	1.117534	-0.697090	-0.309596
C43	C	1.070162	-0.724406	-0.356914
C44	C	0.975417	-0.779036	-0.451564
C45	C	0.975397	-0.724429	-0.451554
C46	C	1.022773	-0.697113	-0.404231
C47	C	1.022731	-0.642522	-0.404212
N48	N	1.070108	-0.615202	-0.356897
C49	C	1.117509	-0.642487	-0.309589
C50	C	1.022897	-0.975597	-0.404266
C51	C	1.022917	-1.030199	-0.404270
C52	C	1.117699	-1.030164	-0.309643
C53	C	1.117675	-0.975561	-0.309636
C54	C	1.070274	-0.948278	-0.356952
C55	C	1.117443	-0.527822	-0.309570
C56	C	1.117406	-0.473216	-0.309561
C57	C	1.022627	-0.473256	-0.404190
C58	C	1.022661	-0.527856	-0.404197
C59	C	1.070074	-0.555138	-0.356884
O60	O	0.982421	-0.614254	-0.444405
O61	O	1.157804	-0.614229	-0.269357
C62	C	1.263277	-0.251997	-0.356932
C63	C	1.345591	-0.252006	-0.356949
C64	C	1.070158	-0.251962	-0.550055
C65	C	1.070176	-0.251957	-0.632369
C66	C	1.070260	-0.115602	-0.356943
C67	C	1.070322	-0.057488	-0.356964
C68	C	1.070219	-0.251859	-0.931460
C69	C	1.012746	-0.292130	-0.900108
C70	C	1.012901	-0.292317	-0.814490
C71	C	1.070197	-0.251907	-0.783077
C72	C	1.148220	-0.266868	-0.814182
C73	C	1.147899	-0.267132	-0.899827
C74	C	1.050348	-0.196537	-0.899887
C75	C	1.048612	-0.196856	-0.814236
C76	C	1.070189	-0.251934	-0.699218
C77	C	1.070232	-0.251833	-1.015320
C78	C	1.070115	-0.251951	-0.164482
C79	C	1.070240	-0.251809	-0.082169
H80	H	0.506352	-0.198540	-0.454708
H81	H	1.087419	-0.165258	-0.792854
H82	H	0.633919	-0.196245	-0.450971
H83	H	1.025734	-0.332886	-0.921632
N84	N	0.501398	-0.322533	-0.259242
H85	H	0.470789	-0.293448	-0.237386
H86	H	0.470331	-0.355146	-0.263179
N87	N	0.501082	-0.277164	-0.491530
H88	H	0.518364	-0.313195	-0.477064
H89	H	0.445327	-0.276519	-0.493375
H90	H	0.936799	-0.702218	-0.490086
H91	H	1.156299	-1.052389	-0.271125
H92	H	1.156252	-0.953323	-0.271102
H93	H	0.634966	-0.319119	-0.278864
H94	H	0.507180	-0.338099	-0.374826
N95	N	1.216044	-0.694915	-0.211258
H96	H	1.246077	-0.720492	-0.181299
H97	H	1.250286	-0.672232	-0.241443
N98	N	1.206461	-0.229231	-0.787239
H99	H	1.208424	-0.230088	-0.731491
H100	H	1.256133	-0.239612	-0.807960
H101	H	0.984031	-0.451032	-0.442706
N102	N	1.168576	-0.557236	-0.258530
H103	H	1.138510	-0.579921	-0.224183
H104	H	1.202889	-0.579828	-0.288704
N105	N	0.641902	-0.273095	-0.494101
H106	H	0.670381	-0.252436	-0.532161
H107	H	0.675427	-0.300031	-0.471037
N108	N	1.105794	-0.156789	-0.926742
H109	H	1.143604	-0.174502	-0.959200
H110	H	1.079461	-0.128886	-0.956007
H111	H	0.634297	-0.170655	-0.313104
N112	N	0.640490	-0.348196	-0.388787
H113	H	0.673214	-0.331492	-0.427327
H114	H	0.669494	-0.375471	-0.360895
N115	N	0.971757	-0.946170	-0.455288
H116	H	1.001814	-0.923484	-0.489640
H117	H	0.941758	-0.971797	-0.485208
N118	N	0.972561	-0.181906	-0.787299
H119	H	0.958984	-0.146465	-0.807517
H120	H	0.935443	-0.208599	-0.804805
H121	H	1.165358	-0.306879	-0.792738
N122	N	1.168507	-0.443754	-0.258520
H123	H	1.198542	-0.469327	-0.228557
H124	H	1.202749	-0.421066	-0.288698
N125	N	0.976297	-0.178479	-0.928476
H126	H	0.954879	-0.205981	-0.962189
H127	H	0.941716	-0.172505	-0.885508
N128	N	0.924329	-0.808488	-0.502618
H129	H	0.931531	-0.847221	-0.495455
H130	H	0.871439	-0.798981	-0.491044
H131	H	0.984086	-0.550098	-0.442733
H132	H	0.954715	-0.282864	-0.920695
H133	H	0.984333	-1.052436	-0.442798
N134	N	0.500385	-0.157122	-0.317477
H135	H	0.517122	-0.146878	-0.368703
H136	H	0.444646	-0.156498	-0.315125
N137	N	0.498817	-0.223349	-0.223529
H138	H	0.465588	-0.254973	-0.225611
H139	H	0.541659	-0.230538	-0.189289
N140	N	1.216097	-0.808397	-0.211271
H141	H	1.246098	-0.782799	-0.181299
H142	H	1.185983	-0.831081	-0.176968
N143	N	0.936273	-0.279893	-0.786623
H144	H	0.902088	-0.274248	-0.829974
H145	H	0.917497	-0.309899	-0.755694
N146	N	0.640345	-0.223755	-0.222789
H147	H	0.696139	-0.223876	-0.222311
H148	H	0.621548	-0.196422	-0.187298
H149	H	1.026019	-0.333323	-0.794005
N150	N	1.170214	-0.320699	-0.926303
H151	H	1.180164	-0.343918	-0.882338
H152	H	1.129013	-0.336128	-0.956921
N153	N	1.206551	-0.229976	-0.927310
H154	H	1.232501	-0.213499	-0.883787
H155	H	1.243591	-0.249729	-0.958252
