data_functionalizedCrystal
_audit_creation_method	'MofGen! by Chris Wilmer'
_symmetry_space_group_name_H-M	'P1'
_symmetry_Int_Tables_number	1
_symmetry_cell_setting	triclinic
loop_
_symmetry_equiv_pos_as_xyz
  x,y,z
_cell_length_a	13.897449
_cell_length_b	19.121063
_cell_length_c	13.897441
_cell_angle_alpha	87.593450
_cell_angle_beta	90.018596
_cell_angle_gamma	92.470221
loop_
_atom_site_label
_atom_site_type_symbol
_atom_site_fract_x
_atom_site_fract_y
_atom_site_fract_z
Zn1	Zn	1.458236	-0.279574	0.561726
Zn2	Zn	1.451226	-0.397036	0.407295
Zn3	Zn	1.296929	-0.279605	0.400446
Zn4	Zn	1.290000	-0.396991	0.568545
O5	O	1.374098	-0.338302	0.484503
O6	O	1.592287	-0.295161	0.541253
O7	O	1.430725	-0.381490	0.271406
O8	O	1.324161	-0.181317	0.416121
O9	O	1.587137	-0.381459	0.427793
O10	O	1.442672	-0.181294	0.534612
O11	O	1.317364	-0.295214	0.266375
O12	O	1.161029	-0.295172	0.422732
O13	O	1.312350	-0.381384	0.702620
O14	O	1.155937	-0.381415	0.546234
O15	O	1.435953	-0.295118	0.697610
O16	O	1.424005	-0.495314	0.434405
O17	O	1.305553	-0.495282	0.552874
C18	C	1.123484	-0.338292	0.484480
C19	C	1.016269	-0.338305	0.484495
C20	C	0.819974	-0.338308	0.484520
C21	C	0.929207	-0.338304	0.484503
C22	C	1.363293	-0.520782	0.495144
C23	C	1.358758	-0.598848	0.499728
C24	C	1.418348	-0.635517	0.440252
C25	C	1.414089	-0.708868	0.444569
C26	C	1.350236	-0.745549	0.508358
C27	C	1.290643	-0.708875	0.567841
C28	C	1.294908	-0.635525	0.563528
C29	C	1.334277	-0.967019	0.524468
C30	C	1.330015	-1.040374	0.528775
C31	C	1.453463	-1.040362	0.405504
C32	C	1.457717	-0.967011	0.401193
C33	C	1.398129	-0.930343	0.460679
C34	C	1.345879	-0.820526	0.512770
C35	C	1.402491	-0.855368	0.456271
C36	C	1.625690	-0.338312	0.484526
C37	C	1.732904	-0.338316	0.484536
C38	C	1.374160	-0.338243	0.736093
C39	C	1.374187	-0.338218	0.843305
C40	C	1.384971	-0.155109	0.473842
C41	C	1.389605	-0.077043	0.469299
C42	C	1.374094	-0.338310	0.233889
C43	C	1.374266	-0.338137	0.126666
C44	C	1.374208	-0.338198	0.930374
C45	C	1.374237	-0.338166	1.039605
H46	H	1.470340	-0.605656	0.388304
O47	O	1.519798	-0.931301	0.339361
C48	C	1.584549	-0.888815	0.391840
H49	H	1.551127	-0.877813	0.464263
H50	H	1.654389	-0.917030	0.404157
C51	C	1.647134	-0.832669	0.245741
C52	C	1.606081	-0.819151	0.334690
H53	H	1.660420	-0.789698	0.210488
H54	H	1.603513	-0.861294	0.210384
H55	H	1.705329	-0.856183	0.256018
H56	H	1.547881	-0.795645	0.324412
H57	H	1.649693	-0.790520	0.370044
O58	O	1.283976	-0.856238	0.574778
C59	C	1.336399	-0.898584	0.639633
H60	H	1.408886	-0.909538	0.606328
H61	H	1.348590	-0.870274	0.709466
C62	C	1.190245	-0.954835	0.702041
C63	C	1.279272	-0.968293	0.661131
H64	H	1.155006	-0.997833	0.715306
H65	H	1.154926	-0.926303	0.658350
H66	H	1.200417	-0.931241	0.760230
H67	H	1.269099	-0.991878	0.602938
H68	H	1.314588	-0.996830	0.704813
O69	O	1.236978	-0.599827	0.621164
C70	C	1.177152	-0.557477	0.563706
H71	H	1.211848	-0.546506	0.489991
H72	H	1.104028	-0.585795	0.554711
C73	C	1.121097	-0.501261	0.703209
C74	C	1.163715	-0.487781	0.612674
H75	H	1.112804	-0.458271	0.733416
H76	H	1.161399	-0.529795	0.741921
H77	H	1.060165	-0.524861	0.695700
H78	H	1.224650	-0.464190	0.620185
H79	H	1.123422	-0.459242	0.573965
H80	H	1.501978	-1.070225	0.357075
O81	O	1.276347	-0.931325	0.582103
C82	C	1.216528	-0.888977	0.524635
H83	H	1.251231	-0.878009	0.450923
H84	H	1.143405	-0.917294	0.515634
C85	C	1.160459	-0.832755	0.664127
C86	C	1.203086	-0.819278	0.573595
H87	H	1.152163	-0.789763	0.694329
H88	H	1.200757	-0.861287	0.702845
H89	H	1.099528	-0.856354	0.656613
H90	H	1.264021	-0.795688	0.581111
H91	H	1.162798	-0.790741	0.534879
O92	O	1.268095	-1.075977	0.590884
C93	C	1.290159	-1.057982	0.685982
H94	H	1.368389	-1.037765	0.689728
H95	H	1.240901	-1.015429	0.708660
C96	C	1.179041	-1.147950	0.749566
C97	C	1.275127	-1.123124	0.754168
H98	H	1.169765	-1.188131	0.791628
H99	H	1.164173	-1.160072	0.685497
H100	H	1.138004	-1.112483	0.768462
H101	H	1.316161	-1.158588	0.735261
H102	H	1.290001	-1.111009	0.818236
H103	H	1.462613	-0.738721	0.396137
O104	O	1.228487	-0.744426	0.629756
C105	C	1.133398	-0.726584	0.607526
H106	H	1.134516	-0.673349	0.567313
H107	H	1.098532	-0.767913	0.560337
C108	C	1.073743	-0.788560	0.750701
C109	C	1.075116	-0.723173	0.701318
H110	H	1.037790	-0.786459	0.808554
H111	H	1.137806	-0.800583	0.765676
H112	H	1.044690	-0.822994	0.711366
H113	H	1.104179	-0.688742	0.740647
H114	H	1.011057	-0.711144	0.686351
H115	H	1.454485	-0.825500	0.404337
