data_functionalizedCrystal
_audit_creation_method	'MofGen! by Chris Wilmer'
_symmetry_space_group_name_H-M	'P1'
_symmetry_Int_Tables_number	1
_symmetry_cell_setting	triclinic
loop_
_symmetry_equiv_pos_as_xyz
  x,y,z
_cell_length_a	14.519709
_cell_length_b	19.288862
_cell_length_c	18.366186
_cell_angle_alpha	89.974265
_cell_angle_beta	90.006066
_cell_angle_gamma	96.592287
loop_
_atom_site_label
_atom_site_type_symbol
_atom_site_fract_x
_atom_site_fract_y
_atom_site_fract_z
O1	O	0.115033	-0.921768	0.060832
O2	O	0.615033	-0.421768	0.560832
O3	O	0.130555	-0.719563	0.060772
O4	O	0.630555	-0.219563	0.560772
O5	O	-0.011479	-0.826027	0.060797
O6	O	0.488521	-0.326027	0.560797
O7	O	0.257066	-0.815304	0.060807
O8	O	0.757066	-0.315304	0.560807
O9	O	-0.011483	-0.826008	-0.060302
O10	O	0.488517	-0.326008	0.439698
O11	O	0.130551	-0.719544	-0.060327
O12	O	0.630551	-0.219544	0.439673
O13	O	0.115029	-0.921749	-0.060267
O14	O	0.615029	-0.421749	0.439733
Zn15	Zn	0.122789	-0.820644	-0.079524
Zn16	Zn	0.622789	-0.320644	0.420476
Zn17	Zn	0.122794	-0.820668	0.080029
Zn18	Zn	0.622794	-0.320668	0.580029
O19	O	0.257062	-0.815286	-0.060292
O20	O	0.757062	-0.315286	0.439708
C21	C	0.130054	-0.693675	0.000215
C22	C	0.630054	-0.193675	0.500215
C23	C	0.128555	-0.616566	0.000192
C24	C	0.628555	-0.116566	0.500192
C25	C	-0.045837	-0.825518	0.000247
C26	C	0.454163	-0.325518	0.500247
C27	C	-0.148209	-0.824020	0.000246
C28	C	0.351791	-0.324020	0.500246
N29	N	0.122785	-0.820632	-0.188415
N30	N	0.622785	-0.320632	0.311585
C31	C	-0.523070	-0.818508	0.000264
C32	C	-0.023070	-0.318508	0.500264
C33	C	-0.418772	-0.820038	0.000259
C34	C	0.081228	-0.320038	0.500259
C35	C	-0.335643	-0.821264	0.000254
C36	C	0.164357	-0.321264	0.500254
C37	C	-0.231338	-0.822795	0.000251
C38	C	0.268662	-0.322795	0.500251
C39	C	0.291421	-0.815795	0.000259
C40	C	0.791421	-0.315795	0.500259
C41	C	0.393793	-0.817292	0.000265
C42	C	0.893793	-0.317292	0.500265
C43	C	0.211894	-0.572170	0.000204
C44	C	0.711894	-0.072170	0.500204
C45	C	0.210487	-0.499718	0.000208
C46	C	0.710487	0.000282	0.500208
C47	C	0.125736	-0.471665	0.000215
C48	C	0.625736	0.028335	0.500215
C49	C	0.042386	-0.516071	0.000198
C50	C	0.542386	-0.016071	0.500198
C51	C	0.043796	-0.588522	0.000187
C52	C	0.543796	-0.088522	0.500187
C53	C	0.059115	-0.363170	0.042658
C54	C	0.559115	0.136830	0.542658
C55	C	0.057708	-0.290720	0.042674
C56	C	0.557708	0.209280	0.542674
C57	C	0.121384	-0.248204	0.000247
C58	C	0.621384	0.251796	0.500247
C59	C	0.186481	-0.278144	-0.042186
C60	C	0.686481	0.221856	0.457814
C61	C	0.187891	-0.350595	-0.042197
C62	C	0.687891	0.149405	0.457803
C63	C	0.124198	-0.393106	0.000227
C64	C	0.624198	0.106894	0.500227
C65	C	0.203202	-0.125246	0.000263
C66	C	0.703202	0.374754	0.500263
C67	C	0.201791	-0.052792	0.000263
C68	C	0.701791	0.447208	0.500263
C69	C	0.033688	-0.069148	0.000260
C70	C	0.533688	0.430852	0.500260
C71	C	0.035102	-0.141599	0.000253
C72	C	0.535102	0.358401	0.500253
C73	C	0.119861	-0.169644	0.000258
C74	C	0.619861	0.330356	0.500258
C75	C	0.115533	0.052363	0.000279
C76	C	0.615533	0.552363	0.500279
C77	C	0.117040	-0.024745	0.000268
C78	C	0.617040	0.475255	0.500268
C79	C	0.178580	-0.862821	-0.226494
C80	C	0.678580	-0.362821	0.273506
C81	C	0.178578	-0.862832	-0.302722
C82	C	0.678578	-0.362832	0.197278
C83	C	0.122791	-0.820642	-0.340868
C84	C	0.622791	-0.320642	0.159132
C85	C	0.066984	-0.778451	-0.302780
C86	C	0.566984	-0.278451	0.197220
C87	C	0.066981	-0.778446	-0.226554
C88	C	0.566981	-0.278446	0.273446
C89	C	0.120459	-0.758022	-0.461668
C90	C	0.620459	-0.258022	0.038332
C91	C	0.120468	-0.758025	-0.537893
C92	C	0.620468	-0.258025	-0.037893
C93	C	0.122794	-0.820658	-0.575976
C94	C	0.622794	-0.320658	-0.075976
C95	C	0.125129	-0.883288	-0.537824
C96	C	0.625129	-0.383288	-0.037824
C97	C	0.125127	-0.883283	-0.461598
C98	C	0.625127	-0.383283	0.038402
C99	C	0.122787	-0.820643	-0.423523
C100	C	0.622787	-0.320643	0.076477
C101	C	0.178589	-0.862862	-0.696710
C102	C	0.678589	-0.362862	-0.196710
C103	C	0.178580	-0.862875	-0.772939
C104	C	0.678580	-0.362875	-0.272939
C105	C	0.066992	-0.778487	-0.772995
C106	C	0.566992	-0.278487	-0.272995
C107	C	0.066996	-0.778481	-0.696767
C108	C	0.566996	-0.278481	-0.196767
C109	C	0.122799	-0.820667	-0.658629
C110	C	0.622799	-0.320667	-0.158629
N111	N	0.122791	-0.820685	0.188920
N112	N	0.622791	-0.320685	0.688920
H113	H	0.280912	-0.594999	0.000210
H114	H	0.780912	-0.094999	0.500210
H115	H	0.224027	-0.897213	-0.665656
H116	H	0.724027	-0.397213	-0.165656
H117	H	0.224013	-0.897235	-0.803941
H118	H	0.724013	-0.397235	-0.303941
C119	C	0.259484	-0.383532	-0.088873
C120	C	0.759484	0.116468	0.411127
H121	H	0.251205	-0.432769	-0.082798
H122	H	0.751205	0.067231	0.417202
H123	H	0.251147	-0.372420	-0.138657
H124	H	0.751147	0.127580	0.361343
H125	H	0.320274	-0.365733	-0.073950
H126	H	0.820274	0.134267	0.426050
H127	H	0.118572	-0.707028	-0.568950
H128	H	0.618572	-0.207028	-0.068950
C129	C	0.302162	-0.450873	0.000233
C130	C	0.802162	0.049127	0.500233
H131	H	0.352842	-0.477952	0.000241
H132	H	0.852842	0.022048	0.500241
H133	H	0.305115	-0.422240	-0.041988
H134	H	0.805115	0.077760	0.458012
H135	H	0.305092	-0.422301	0.042477
H136	H	0.805092	0.077699	0.542477
H137	H	0.127026	-0.934279	-0.430538
H138	H	0.627026	-0.434279	0.069462
C139	C	0.005627	-0.732079	-0.814947
C140	C	0.505627	-0.232079	-0.314947
H141	H	0.013623	-0.738120	-0.865799
H142	H	0.513623	-0.238120	-0.365799
H143	H	-0.057517	-0.744905	-0.802453
H144	H	0.442483	-0.244905	-0.302453
H145	H	0.022931	-0.684574	-0.802479
H146	H	0.522931	-0.184574	-0.302479
C147	C	0.117885	-0.689126	-0.419781
C148	C	0.617885	-0.189126	0.080219
H149	H	0.118204	-0.698093	-0.368920
H150	H	0.618204	-0.198093	0.131080
H151	H	0.170676	-0.657626	-0.432279
H152	H	0.670676	-0.157626	0.067721
H153	H	0.063165	-0.669161	-0.432295
H154	H	0.563165	-0.169161	0.067705
H155	H	0.007260	-0.397782	0.077211
H156	H	0.507260	0.102218	0.577211
C157	C	-0.047880	-0.637360	0.000182
C158	C	0.452120	-0.137360	0.500182
H159	H	-0.098559	-0.610279	0.000190
H160	H	0.401441	-0.110279	0.500190
H161	H	-0.050828	-0.665944	-0.042049
H162	H	0.449172	-0.165944	0.457951
H163	H	-0.050818	-0.665982	0.042416
H164	H	0.449182	-0.165982	0.542416
H165	H	0.021561	-0.744100	-0.333843
H166	H	0.521561	-0.244100	0.166157
C167	C	0.239954	-0.909230	-0.184546
C168	C	0.739954	-0.409230	0.315454
H169	H	0.273178	-0.934362	-0.218147
H170	H	0.773178	-0.434362	0.281853
H171	H	0.282492	-0.880819	-0.154819
H172	H	0.782492	-0.380819	0.345181
H173	H	0.202047	-0.941152	-0.154800
H174	H	0.702047	-0.441152	0.345200
C175	C	-0.050837	-0.485217	0.000210
C176	C	0.449163	0.014783	0.500210
H177	H	-0.039741	-0.435709	0.000227
H178	H	0.460259	0.064291	0.500227
H179	H	-0.085144	-0.500423	-0.042022
H180	H	0.414856	-0.000423	0.457978
H181	H	-0.085135	-0.500476	0.042443
H182	H	0.414865	-0.000476	0.542443
H183	H	0.224016	-0.897187	-0.333732
H184	H	0.724016	-0.397187	0.166268
H185	H	0.127028	-0.934289	-0.568829
H186	H	0.627028	-0.434289	-0.068829
C187	C	0.005631	-0.732065	-0.654879
C188	C	0.505631	-0.232065	-0.154879
H189	H	-0.027589	-0.706934	-0.688512
H190	H	0.472411	-0.206934	-0.188512
H191	H	-0.036910	-0.760471	-0.625130
H192	H	0.463090	-0.260471	-0.125130
H193	H	0.043540	-0.700141	-0.625159
H194	H	0.543540	-0.200141	-0.125159
C195	C	0.005611	-0.732032	-0.184665
C196	C	0.505611	-0.232032	0.315335
H197	H	-0.027612	-0.706903	-0.218298
H198	H	0.472388	-0.206903	0.281702
H199	H	-0.036927	-0.760438	-0.154914
H200	H	0.463073	-0.260438	0.345086
H201	H	0.043521	-0.700106	-0.154947
H202	H	0.543521	-0.200106	0.345053
H203	H	0.238332	-0.243528	-0.076734
H204	H	0.738332	0.256472	0.423266
H205	H	0.272218	-0.148080	0.000257
H206	H	0.772218	0.351920	0.500257
H207	H	0.269658	-0.016645	0.000269
H208	H	0.769658	0.483355	0.500269
H209	H	-0.035317	-0.046308	0.000311
H210	H	0.464683	0.453692	0.500311
H211	H	-0.032762	-0.177748	0.000247
H212	H	0.467238	0.322252	0.500247
C213	C	-0.013898	-0.257792	0.089344
C214	C	0.486102	0.242208	0.589344
H215	H	-0.051631	-0.293489	0.114599
H216	H	0.448369	0.206511	0.614599
H217	H	0.017428	-0.226447	0.123469
H218	H	0.517428	0.273553	0.623469
H219	H	-0.051683	-0.233135	0.058751
H220	H	0.448317	0.266865	0.558751
