data_functionalizedCrystal
_audit_creation_method	'MofGen! by Chris Wilmer'
_symmetry_space_group_name_H-M	'P1'
_symmetry_Int_Tables_number	1
_symmetry_cell_setting	triclinic
loop_
_symmetry_equiv_pos_as_xyz
  x,y,z
_cell_length_a	14.519709
_cell_length_b	19.188930
_cell_length_c	13.596369
_cell_angle_alpha	89.988893
_cell_angle_beta	90.000291
_cell_angle_gamma	83.412464
loop_
_atom_site_label
_atom_site_type_symbol
_atom_site_fract_x
_atom_site_fract_y
_atom_site_fract_z
O1	O	1.223300	0.091524	-0.081675
O2	O	1.723300	0.591524	0.418325
O3	O	0.954756	0.102302	-0.081706
O4	O	1.454756	0.602302	0.418294
O5	O	1.096778	-0.004715	-0.081670
O6	O	1.596778	0.495285	0.418330
O7	O	1.081278	0.198542	-0.081711
O8	O	1.581278	0.698542	0.418289
O9	O	1.096763	-0.004720	0.081912
O10	O	1.596763	0.495280	0.581912
O11	O	0.954742	0.102297	0.081877
O12	O	1.454742	0.602297	0.581877
O13	O	1.223286	0.091519	0.081908
O14	O	1.723286	0.591519	0.581908
Zn15	Zn	1.089012	0.096907	0.107865
Zn16	Zn	1.589012	0.596907	0.607865
Zn17	Zn	1.089030	0.096914	-0.107663
Zn18	Zn	1.589030	0.596914	0.392337
O19	O	1.081264	0.198536	0.081872
O20	O	1.581264	0.698536	0.581872
C21	C	0.920392	0.101797	0.000081
C22	C	1.420392	0.601797	0.500081
C23	C	0.818020	0.100292	0.000070
C24	C	1.318020	0.600292	0.500070
C25	C	0.443159	0.094751	0.000116
C26	C	0.943159	0.594751	0.500116
C27	C	0.547457	0.096290	0.000103
C28	C	1.047457	0.596290	0.500103
C29	C	0.630586	0.097521	0.000092
C30	C	1.130586	0.597521	0.500092
C31	C	0.734891	0.099060	0.000081
C32	C	1.234891	0.599060	0.500081
C33	C	1.096269	-0.030730	0.000124
C34	C	1.596269	0.469270	0.500124
C35	C	1.094762	-0.108240	0.000132
C36	C	1.594762	0.391760	0.500132
C37	C	1.178095	-0.152867	0.000146
C38	C	1.678095	0.347133	0.500146
C39	C	1.176680	-0.225696	0.000131
C40	C	1.676680	0.274304	0.500131
C41	C	1.091926	-0.253895	0.000120
C42	C	1.591926	0.246105	0.500120
C43	C	1.008582	-0.209257	0.000100
C44	C	1.508582	0.290743	0.500100
C45	C	1.009999	-0.136430	0.000106
C46	C	1.509999	0.363570	0.500106
N47	N	1.027137	-0.362132	0.055783
N48	N	1.527137	0.137868	0.555783
N49	N	1.025796	-0.431316	0.055779
N50	N	1.525796	0.068684	0.555779
C51	C	1.087649	-0.473318	0.000100
C52	C	1.587649	0.026682	0.500100
N53	N	1.150908	-0.443526	-0.055564
N54	N	1.650908	0.056474	0.444436
N55	N	1.152252	-0.374336	-0.055556
N56	N	1.652252	0.125664	0.444444
C57	C	1.090379	-0.332863	0.000113
C58	C	1.590379	0.167137	0.500113
C59	C	1.169454	-0.596916	0.000095
C60	C	1.669454	-0.096916	0.500095
C61	C	1.168035	-0.669745	0.000073
C62	C	1.668035	-0.169745	0.500073
C63	C	0.999934	-0.653305	0.000053
C64	C	1.499934	-0.153305	0.500053
C65	C	1.001355	-0.580477	0.000065
C66	C	1.501355	-0.080477	0.500065
C67	C	1.086118	-0.552287	0.000091
C68	C	1.586118	-0.052287	0.500091
C69	C	1.257649	0.092024	0.000118
C70	C	1.757649	0.592024	0.500118
C71	C	1.360021	0.093529	0.000123
C72	C	1.860021	0.593529	0.500123
C73	C	1.081773	0.224551	0.000076
C74	C	1.581773	0.724551	0.500076
C75	C	1.083280	0.302061	0.000061
C76	C	1.583280	0.802061	0.500061
N77	N	1.089006	0.096901	0.254956
N78	N	1.589006	0.596901	0.754956
N79	N	1.089043	0.096914	-0.254755
N80	N	1.589043	0.596914	0.245245
C81	C	1.089029	0.096915	0.656247
C82	C	1.589029	0.596915	1.156247
C83	C	1.089020	0.096914	0.544596
C84	C	1.589020	0.596914	1.044596
C85	C	1.089018	0.096909	0.455605
C86	C	1.589018	0.596909	0.955605
C87	C	1.089008	0.096906	0.343947
C88	C	1.589008	0.596906	0.843947
H89	H	1.247116	-0.129920	0.000164
H90	H	1.747116	0.370080	0.500164
H91	H	0.942137	-0.100094	0.000095
H92	H	1.442137	0.399906	0.500095
C93	C	0.906704	-0.684317	0.000040
C94	C	1.406704	-0.184317	0.500040
C95	C	0.837568	-0.667510	-0.084912
C96	C	1.337568	-0.167510	0.415088
C97	C	0.744335	-0.698527	-0.084928
C98	C	1.244335	-0.198527	0.415072
C99	C	0.720239	-0.746349	0.000008
C100	C	1.220239	-0.246349	0.500008
C101	C	0.789377	-0.763158	0.084967
C102	C	1.289377	-0.263158	0.584967
C103	C	0.882609	-0.732141	0.084983
C104	C	1.382609	-0.232141	0.584983
H105	H	0.855403	-0.632107	-0.147793
H106	H	1.355403	-0.132107	0.352207
H107	H	0.693155	-0.686084	-0.147821
H108	H	1.193155	-0.186084	0.352179
H109	H	0.651223	-0.769309	-0.000004
H110	H	1.151223	-0.269309	0.499996
H111	H	0.771541	-0.798561	0.147848
H112	H	1.271541	-0.298561	0.647848
H113	H	0.933789	-0.744584	0.147876
H114	H	1.433789	-0.244584	0.647876
H115	H	1.244542	-0.262039	0.000138
H116	H	1.744542	0.237961	0.500138
C117	C	1.262687	-0.565898	0.000111
C118	C	1.762687	-0.065898	0.500111
C119	C	1.286771	-0.518110	0.085066
C120	C	1.786771	-0.018110	0.585066
C121	C	1.380004	-0.487094	0.085081
C122	C	1.880004	0.012906	0.585081
C123	C	1.449151	-0.503866	0.000140
C124	C	1.949151	-0.003866	0.500140
C125	C	1.425068	-0.551657	-0.084822
C126	C	1.925068	-0.051657	0.415178
C127	C	1.331836	-0.582673	-0.084837
C128	C	1.831836	-0.082673	0.415163
H129	H	1.235582	-0.505692	0.147950
H130	H	1.735582	-0.005692	0.647950
H131	H	1.397831	-0.451716	0.147975
H132	H	1.897831	0.048284	0.647975
H133	H	1.518167	-0.480906	0.000151
H134	H	2.018167	0.019094	0.500151
H135	H	1.476257	-0.564074	-0.147706
H136	H	1.976257	-0.064074	0.352294
H137	H	1.314009	-0.618050	-0.147731
H138	H	1.814009	-0.118050	0.352269
C139	C	0.915351	-0.240272	0.000087
C140	C	1.415351	0.259728	0.500087
C141	C	0.913787	-0.320379	0.000085
C142	C	1.413787	0.179621	0.500085
C143	C	0.820552	-0.351392	0.000065
C144	C	1.320552	0.148608	0.500065
C145	C	0.728882	-0.302298	0.000047
C146	C	1.228882	0.197702	0.500047
C147	C	0.730443	-0.222187	0.000050
C148	C	1.230443	0.277813	0.500050
C149	C	0.823677	-0.191174	0.000070
C150	C	1.323677	0.308826	0.500070
H151	H	0.981649	-0.356725	0.000098
H152	H	1.481649	0.143275	0.500098
H153	H	0.819397	-0.410696	0.000063
H154	H	1.319397	0.089304	0.500063
H155	H	0.659864	-0.325256	0.000033
H156	H	1.159864	0.174744	0.500033
H157	H	0.662580	-0.185841	0.000037
H158	H	1.162580	0.314159	0.500037
H159	H	0.824832	-0.131870	0.000071
H160	H	1.324832	0.368130	0.500071
C161	C	1.259709	-0.718838	0.000087
C162	C	1.759709	-0.218838	0.500087
C163	C	1.329227	-0.715622	0.085050
C164	C	1.829227	-0.215622	0.585050
C165	C	1.420903	-0.764715	0.085063
C166	C	1.920903	-0.264715	0.585063
C167	C	1.443063	-0.817024	0.000114
C168	C	1.943063	-0.317024	0.500114
C169	C	1.373543	-0.820241	-0.084855
C170	C	1.873543	-0.320241	0.415145
C171	C	1.281867	-0.771148	-0.084868
C172	C	1.781867	-0.271148	0.415132
H173	H	1.312825	-0.676899	0.147940
H174	H	1.812825	-0.176899	0.647940
H175	H	1.472366	-0.762333	0.147963
H176	H	1.972366	-0.262333	0.647963
H177	H	1.510927	-0.853365	0.000124
H178	H	2.010927	-0.353365	0.500124
H179	H	1.389946	-0.858965	-0.147745
H180	H	1.889946	-0.358965	0.352255
H181	H	1.230404	-0.773530	-0.147768
H182	H	1.730404	-0.273530	0.352232
H183	H	0.933496	-0.544140	0.000058
H184	H	1.433496	-0.044140	0.500058
