data_functionalizedCrystal
_audit_creation_method	'MofGen! by Chris Wilmer'
_symmetry_space_group_name_H-M	'P1'
_symmetry_Int_Tables_number	1
_symmetry_cell_setting	triclinic
loop_
_symmetry_equiv_pos_as_xyz
  x,y,z
_cell_length_a	15.698487
_cell_length_b	14.809374
_cell_length_c	14.809374
_cell_angle_alpha	60.797835
_cell_angle_beta	89.999658
_cell_angle_gamma	67.426642
loop_
_atom_site_label
_atom_site_type_symbol
_atom_site_fract_x
_atom_site_fract_y
_atom_site_fract_z
Zr1	Zr	0.940906	0.955222	-0.203689
O2	O	0.836558	1.113140	-0.350847
O3	O	0.958121	0.777456	-0.145613
O4	O	0.992965	0.926604	-0.332153
O5	O	0.791032	0.993488	-0.031908
O6	O	1.133147	0.926607	-0.332156
O7	O	0.801713	0.963992	-0.164306
O8	O	1.070817	0.659808	0.001531
O9	O	0.853363	1.260287	-0.365595
O10	O	1.087927	0.857927	-0.136510
O11	O	0.975340	0.879937	-0.037700
O12	O	1.016365	1.055539	-0.257328
O13	O	0.903777	1.077549	-0.158519
Zr14	Zr	1.147444	1.002269	0.007467
Zr15	Zr	1.164479	0.955227	-0.203693
Zr16	Zr	0.923870	1.002264	0.007471
Zr17	Zr	0.967707	1.189903	-0.227211
Zr18	Zr	1.120642	0.767587	0.030988
O19	O	1.130228	1.180035	-0.050610
O20	O	1.154451	1.113147	-0.350852
O21	O	0.812336	1.180028	-0.050605
O22	O	1.251791	0.844350	0.154624
O23	O	1.276014	0.777463	-0.145618
O24	O	0.933899	0.844343	0.154630
O25	O	1.297317	0.964003	-0.164315
O26	O	1.095384	1.030887	0.135931
O27	O	0.955202	1.030883	0.135933
O28	O	1.286636	0.993498	-0.031916
O29	O	1.031074	1.260291	-0.365598
O30	O	1.057276	0.697200	0.169375
O31	O	1.234987	0.697204	0.169372
O32	O	1.248528	0.659812	0.001528
O33	O	0.839822	1.297679	-0.197751
O34	O	1.017533	1.297683	-0.197754
O35	O	1.071984	0.901951	0.061105
O36	O	1.184572	0.879941	-0.037704
O37	O	1.113009	1.077554	-0.158522
O38	O	1.000422	1.099564	-0.059713
C39	C	1.010650	0.685195	-0.068689
C40	C	0.999272	0.585566	-0.058704
C41	C	1.050050	0.530230	-0.103268
C42	C	1.038292	0.427259	-0.092949
C43	C	0.764518	0.978739	-0.098107
C44	C	0.669605	0.978737	-0.098105
C45	C	0.495823	0.978757	-0.098117
C46	C	0.592526	0.978751	-0.098113
C47	C	1.323831	0.978751	-0.098116
C48	C	1.418744	0.978753	-0.098118
C49	C	1.065483	0.919903	-0.362240
C50	C	1.072715	0.899932	-0.451883
C51	C	1.077699	1.272296	-0.127533
C52	C	1.089077	1.371924	-0.137519
C53	C	1.040440	0.989058	-0.551783
C54	C	1.047914	0.968420	-0.644435
C55	C	1.022866	1.037587	0.166018
C56	C	1.015634	1.057558	0.255660
C57	C	1.290307	0.685201	-0.068694
C58	C	1.373841	0.585574	-0.058710
C59	C	0.989341	0.744037	0.195439
C60	C	0.970731	0.664379	0.295068
C61	C	1.268998	0.744043	0.195435
C62	C	1.345301	0.664387	0.295062
C63	C	0.819352	1.213447	-0.391657
C64	C	0.743049	1.293103	-0.491284
C65	C	0.798043	1.272290	-0.127528
C66	C	0.714508	1.371916	-0.137512
C67	C	1.099008	1.213454	-0.391662
C68	C	1.117618	1.293111	-0.491291
C69	C	1.362623	0.527296	-0.105606
C70	C	1.441108	0.433695	-0.096246
C71	C	1.530808	0.398369	-0.039984
C72	C	1.542025	0.456658	0.006913
C73	C	1.463543	0.550262	-0.002454
C74	C	1.012439	0.638464	0.393439
C75	C	0.994949	0.563632	0.487057
C76	C	0.935758	0.514710	0.482303
C77	C	0.894046	0.540631	0.383921
C78	C	0.911530	0.615469	0.290304
C79	C	1.439912	0.615491	0.290270
C80	C	1.511617	0.540657	0.383871
C81	C	1.488709	0.514715	0.482262
C82	C	1.394088	0.563620	0.487051
C83	C	1.322385	0.638458	0.393451
C84	C	0.648438	1.342011	-0.486494
C85	C	0.576736	1.416874	-0.580097
C86	C	0.599646	1.442821	-0.678489
C87	C	0.694266	1.393910	-0.683278
C88	C	0.765967	1.319055	-0.589676
C89	C	0.725728	1.430203	-0.090626
C90	C	0.647248	1.523824	-0.100012
C91	C	0.557548	1.559152	-0.156278
C92	C	0.546331	1.500860	-0.203170
C93	C	0.624811	1.407246	-0.193790
C94	C	1.176814	1.342011	-0.486502
C95	C	1.194318	1.416848	-0.580104
C96	C	1.152620	1.442789	-0.678494
C97	C	1.093421	1.393881	-0.683281
C98	C	1.075923	1.319039	-0.589679
H99	H	1.102233	0.559082	-0.149056
H100	H	1.081084	0.876830	-0.627493
H101	H	1.615070	0.427882	0.052721
H102	H	1.245349	0.678261	0.397367
C103	C	0.659599	1.587933	-0.048429
H104	H	0.600020	1.648759	-0.062081
H105	H	0.683501	1.535846	0.026161
H106	H	0.702890	1.618764	-0.077566
H107	H	0.493653	1.635381	-0.163908
H108	H	0.541253	1.503774	-0.754698
H109	H	1.060636	0.678291	0.397330
H110	H	1.594706	0.322148	-0.032364
H111	H	1.472689	0.597703	0.035742
H112	H	0.499698	1.456685	-0.576178
H113	H	0.712909	1.415047	-0.763400
C114	C	0.870033	1.265249	-0.594957
H115	H	0.873397	1.291419	-0.666963
H116	H	0.906387	1.287416	-0.565784
H117	H	0.894510	1.183709	-0.555399
H118	H	0.982468	1.149148	-0.761283
H119	H	1.289594	0.556052	-0.151433
H120	H	1.105884	0.808350	-0.434948
C121	C	1.428751	0.369583	-0.147823
H122	H	1.364084	0.404020	-0.182652
H123	H	1.466944	0.374055	-0.198182
H124	H	1.447585	0.291119	-0.094440
H125	H	1.028923	0.542536	0.567154
C126	C	0.916539	0.432384	0.585287
H127	H	0.949868	0.423954	0.644552
H128	H	0.850471	0.463057	0.582232
H129	H	0.937447	0.359337	0.592623
H130	H	0.986112	0.398403	-0.047150
H131	H	1.166876	1.503732	-0.754703
H132	H	0.845851	0.500788	0.380066
H133	H	0.877567	0.636556	0.210211
H134	H	1.458583	0.636600	0.210164
C135	C	1.567587	0.432382	0.585214
H136	H	1.627213	0.406972	0.568260
H137	H	1.568035	0.471541	0.620253
H138	H	1.556185	0.367821	0.630636
H139	H	1.588656	0.500844	0.379953
H140	H	0.798758	1.401449	-0.044803
C141	C	0.447657	1.539724	-0.265049
H142	H	0.402530	1.603816	-0.263903
H143	H	0.449460	1.561131	-0.336569
H144	H	0.430098	1.478196	-0.232829
H145	H	0.615661	1.359790	-0.231968
C146	C	1.368899	0.535063	0.595286
H147	H	1.425158	0.483477	0.650338
H148	H	1.338921	0.603896	0.595963
H149	H	1.327089	0.500169	0.606341
H150	H	0.629766	1.320889	-0.406386
H151	H	1.210773	1.320903	-0.406396
H152	H	1.242520	1.456663	-0.576187
H153	H	1.059475	1.415014	-0.763403
H154	H	1.141263	0.400773	-0.183310
C155	C	0.928781	0.546593	0.003158
H156	H	0.930120	0.482502	0.001971
H157	H	0.946080	0.525153	0.074690
H158	H	0.866643	0.608084	-0.029041
H159	H	1.027717	1.279232	-0.593593
H160	H	1.007279	1.080641	-0.568718
