data_functionalizedCrystal
_audit_creation_method	'MofGen! by Chris Wilmer'
_symmetry_space_group_name_H-M	'P1'
_symmetry_Int_Tables_number	1
_symmetry_cell_setting	triclinic
loop_
_symmetry_equiv_pos_as_xyz
  x,y,z
_cell_length_a	18.050591
_cell_length_b	14.908520
_cell_length_c	14.908694
_cell_angle_alpha	83.255478
_cell_angle_beta	86.678552
_cell_angle_gamma	86.682549
loop_
_atom_site_label
_atom_site_type_symbol
_atom_site_fract_x
_atom_site_fract_y
_atom_site_fract_z
Zn1	Zn	1.142128	0.389966	-0.532703
Zn2	Zn	1.642128	0.889966	-0.032703
Zn3	Zn	1.128492	0.532611	-0.390070
Zn4	Zn	1.628492	1.032611	0.109930
Zn5	Zn	1.011163	0.381259	-0.381344
Zn6	Zn	1.511163	0.881259	0.118656
Zn7	Zn	1.011132	0.541274	-0.541368
Zn8	Zn	1.511132	1.041274	-0.041368
O9	O	1.073229	0.461278	-0.461371
O10	O	1.573229	0.961278	0.038629
O11	O	1.244244	0.408908	-0.513808
O12	O	1.744244	0.908908	-0.013808
O13	O	1.107234	0.505265	-0.262250
O14	O	1.607234	1.005265	0.237750
O15	O	1.034256	0.255750	-0.394144
O16	O	1.534256	0.755750	0.105856
O17	O	1.234226	0.513708	-0.409016
O18	O	1.734226	1.013708	0.090984
O19	O	1.130475	0.262147	-0.505347
O20	O	1.630475	0.762147	-0.005347
O21	O	1.021034	0.394067	-0.255839
O22	O	1.521034	0.894067	0.244161
O23	O	0.907234	0.402466	-0.402546
O24	O	1.407234	0.902466	0.097454
O25	O	1.034202	0.528472	-0.666881
O26	O	1.534202	1.028472	-0.166881
O27	O	0.907211	0.520028	-0.520115
O28	O	1.407211	1.020028	-0.020115
O29	O	1.130445	0.417307	-0.660515
O30	O	1.630445	0.917307	-0.160515
O31	O	1.107204	0.660425	-0.417418
O32	O	1.607204	1.160425	0.082582
O33	O	1.020980	0.666789	-0.528576
O34	O	1.520980	1.166789	-0.028576
C35	C	1.062630	0.696450	-0.474904
C36	C	1.562630	1.196450	0.025096
C37	C	1.058165	0.797060	-0.480723
C38	C	1.558165	1.297060	0.019277
C39	C	0.880276	0.461243	-0.461324
C40	C	1.380276	0.961243	0.038676
C41	C	0.797730	0.461251	-0.461327
C42	C	1.297730	0.961251	0.038673
C43	C	1.083841	0.474827	-0.697459
C44	C	1.583841	0.974827	-0.197459
C45	C	1.088363	0.480601	-0.798065
C46	C	1.588363	0.980601	-0.298065
C47	C	0.548905	0.397267	-0.397532
C48	C	1.048905	0.897267	0.102468
C49	C	0.603024	0.379984	-0.478867
C50	C	1.103024	0.879984	0.021133
C51	C	0.500611	0.461302	-0.461404
C52	C	1.000611	0.961302	0.038596
C53	C	0.593575	0.478517	-0.380033
C54	C	1.093575	0.978517	0.119967
C55	C	0.646595	0.461275	-0.461361
C56	C	1.146595	0.961275	0.038639
C57	C	0.553646	0.443979	-0.542780
C58	C	1.053646	0.943979	-0.042780
C59	C	0.544189	0.542548	-0.443892
C60	C	1.044189	1.042548	0.056108
C61	C	0.598287	0.525300	-0.525286
C62	C	1.098287	1.025300	-0.025286
C63	C	0.416513	0.461315	-0.461427
C64	C	0.916513	0.961315	0.038573
C65	C	0.730692	0.461262	-0.461348
C66	C	1.230692	0.961262	0.038652
C67	C	1.266935	0.461313	-0.461419
C68	C	1.766935	0.961313	0.038581
C69	C	1.349481	0.461328	-0.461440
C70	C	1.849481	0.961328	0.038560
C71	C	1.083890	0.225187	-0.447806
C72	C	1.583890	0.725187	0.052194
C73	C	1.088434	0.124580	-0.442025
C74	C	1.588434	0.624580	0.057975
C75	C	1.139661	0.979434	-0.376004
C76	C	1.639661	1.479434	0.123996
C77	C	1.135468	1.073965	-0.381469
C78	C	1.635468	1.573965	0.118531
C79	C	1.045590	1.080657	-0.497122
C80	C	1.545590	1.580657	0.002878
C81	C	1.049783	0.986125	-0.491657
C82	C	1.549783	1.486125	0.008343
C83	C	1.096819	0.935517	-0.431095
C84	C	1.596819	1.435517	0.068905
C85	C	1.101008	0.840983	-0.425626
C86	C	1.601008	1.340983	0.074374
C87	C	1.011134	0.847677	-0.541284
C88	C	1.511134	1.347677	-0.041284
C89	C	1.006941	0.942208	-0.546749
C90	C	1.506941	1.442208	-0.046749
C91	C	1.007083	0.375663	-0.980441
C92	C	1.507083	0.875663	-0.480441
C93	C	1.011329	0.381085	-1.074969
C94	C	1.511329	0.881085	-0.574969
C95	C	1.101099	0.496872	-1.081652
C96	C	1.601099	0.996872	-0.581652
C97	C	1.096852	0.491449	-0.987124
C98	C	1.596852	0.991449	-0.487124
C99	C	1.049843	0.430842	-0.936521
C100	C	1.549843	0.930842	-0.436521
C101	C	1.045601	0.425416	-0.841991
C102	C	1.545601	0.925416	-0.341991
C103	C	1.135366	0.541206	-0.848676
C104	C	1.635366	1.041206	-0.348676
C105	C	1.139613	0.546629	-0.943204
C106	C	1.639613	1.046629	-0.443204
C107	C	1.062703	0.447715	-0.226199
C108	C	1.562703	0.947715	0.273801
C109	C	1.058337	0.441686	-0.125578
C110	C	1.558337	0.941686	0.374422
H111	H	0.527230	0.343091	-0.343597
H112	H	1.027230	0.843091	0.156403
H113	H	0.536045	0.429326	-0.611591
H114	H	1.036045	0.929326	-0.111591
H115	H	0.628699	0.311262	-0.493678
H116	H	1.128699	0.811262	0.006322
H117	H	0.976509	0.336152	-1.110725
H118	H	1.476509	0.836152	-0.610725
F119	F	1.151064	0.787123	-0.361168
F120	F	1.651064	1.287123	0.138832
F121	F	0.956887	0.996079	-0.611203
F122	F	1.456887	1.496079	-0.111203
F123	F	1.180879	0.599935	-0.801927
F124	F	1.680879	1.099935	-0.301927
H125	H	0.611273	0.493090	-0.311237
H126	H	1.111273	0.993090	0.188763
F127	F	0.510588	0.632340	-0.424514
F128	F	1.010588	1.132340	0.075486
F129	F	0.965527	0.800930	-0.599910
F130	F	1.465527	1.300930	-0.099910
F131	F	1.189710	0.925570	-0.311538
F132	F	1.689710	1.425570	0.188462
F133	F	0.626451	0.596072	-0.595936
F134	F	1.126451	1.096072	-0.095936
F135	F	1.151115	0.561380	-1.135522
F136	F	1.651115	1.061380	-0.635522
H137	H	1.007301	1.121879	-0.546435
H138	H	1.507301	1.621879	-0.046435
F139	F	1.181068	1.120702	-0.322835
F140	F	1.681068	1.620702	0.177165
F141	F	0.995573	0.360911	-0.788137
F142	F	1.495573	0.860911	-0.288137
H143	H	0.968813	0.326306	-0.939239
H144	H	1.468813	0.826306	-0.439239
H145	H	1.177883	0.595976	-0.984418
H146	H	1.677883	1.095976	-0.484418
