data_functionalizedCrystal
_audit_creation_method	'MofGen! by Chris Wilmer'
_symmetry_space_group_name_H-M	'P1'
_symmetry_Int_Tables_number	1
_symmetry_cell_setting	triclinic
loop_
_symmetry_equiv_pos_as_xyz
  x,y,z
_cell_length_a	14.044220
_cell_length_b	10.723024
_cell_length_c	13.101018
_cell_angle_alpha	86.607993
_cell_angle_beta	86.331207
_cell_angle_gamma	91.171627
loop_
_atom_site_label
_atom_site_type_symbol
_atom_site_fract_x
_atom_site_fract_y
_atom_site_fract_z
O1	O	1.264843	-0.294748	-0.085208
O2	O	0.988804	-0.283884	-0.085210
O3	O	1.133190	-0.108377	-0.085205
O4	O	1.120456	-0.470255	-0.085213
O5	O	1.122819	-0.120980	0.085225
O6	O	0.978432	-0.296487	0.085220
O7	O	1.254472	-0.307351	0.085222
Zn8	Zn	1.114805	-0.303920	0.112280
Zn9	Zn	1.128470	-0.287315	-0.112269
O10	O	1.110085	-0.482858	0.085217
C11	C	0.948273	-0.285430	0.000004
C12	C	0.842955	-0.271246	0.000003
C13	C	1.295003	-0.305805	0.000005
C14	C	1.400321	-0.319989	-0.000000
C15	C	1.127078	-0.068086	0.000009
C16	C	1.124306	0.070746	0.000005
C17	C	1.593151	-0.345921	0.000000
C18	C	1.650130	-0.245319	0.000003
C19	C	1.757427	-0.259748	0.000003
C20	C	1.485844	-0.331494	-0.000000
C21	C	1.116197	-0.523149	0.000001
C22	C	1.118970	-0.661980	-0.000002
N23	N	1.105486	-0.315253	0.265529
C24	C	1.205097	0.137646	0.000004
C25	C	1.202234	0.281136	0.000001
N26	N	1.137797	-0.275973	-0.265517
C27	C	1.150471	-0.260549	0.525440
C28	C	1.092815	-0.330673	0.474565
C29	C	1.099867	-0.322091	0.358247
C30	C	1.143420	-0.269130	0.641769
H31	H	1.624951	-0.442877	-0.000003
N32	N	1.027347	0.261855	-0.000010
H33	H	0.971388	0.319538	-0.000014
H34	H	1.020873	0.202833	0.063172
H35	H	1.276385	0.088691	0.000011
N36	N	1.020415	-0.418736	0.532576
H37	H	1.025575	-0.412467	0.608652
H38	H	1.033109	-0.507181	0.513884
H39	H	1.618333	-0.148349	-0.000070
H40	H	1.053017	0.119701	-0.000002
N41	N	1.293855	0.357303	0.000011
H42	H	1.278822	0.449010	0.000011
H43	H	1.335872	0.341537	-0.063167
H44	H	1.205124	-0.194075	0.481642
