data_functionalizedCrystal
_audit_creation_method	'MofGen! by Chris Wilmer'
_symmetry_space_group_name_H-M	'P1'
_symmetry_Int_Tables_number	1
_symmetry_cell_setting	triclinic
loop_
_symmetry_equiv_pos_as_xyz
  x,y,z
_cell_length_a	13.033293
_cell_length_b	25.639233
_cell_length_c	13.031981
_cell_angle_alpha	82.799365
_cell_angle_beta	103.320033
_cell_angle_gamma	82.795700
loop_
_atom_site_label
_atom_site_type_symbol
_atom_site_fract_x
_atom_site_fract_y
_atom_site_fract_z
Zn1	Zn	1.570126	-0.381768	-0.217037
Zn2	Zn	2.070126	0.118232	0.282963
Zn3	Zn	1.547495	-0.281601	-0.394661
Zn4	Zn	2.047495	0.218399	0.105339
Zn5	Zn	1.392521	-0.281608	-0.239567
Zn6	Zn	1.892521	0.218392	0.260433
Zn7	Zn	1.369937	-0.356272	-0.417161
Zn8	Zn	1.869937	0.143728	0.082839
O9	O	1.470020	-0.325312	-0.317106
O10	O	1.970020	0.174688	0.182894
O11	O	1.715760	-0.379147	-0.221754
O12	O	2.215760	0.120853	0.278246
O13	O	1.526917	-0.208435	-0.374100
O14	O	2.026917	0.291565	0.125900
O15	O	1.435003	-0.305567	-0.087918
O16	O	1.935003	0.194433	0.412082
O17	O	1.699133	-0.305556	-0.352253
O18	O	2.199133	0.194444	0.147747
O19	O	1.565488	-0.379154	-0.071365
O20	O	2.065488	0.120846	0.428635
O21	O	1.413059	-0.208440	-0.260152
O22	O	1.913059	0.291560	0.239848
O23	O	1.240889	-0.280845	-0.281970
O24	O	1.740889	0.219155	0.218030
O25	O	1.396512	-0.432822	-0.390602
O26	O	1.896512	0.067178	0.109398
O27	O	1.224296	-0.335701	-0.412448
O28	O	1.724296	0.164299	0.087552
O29	O	1.543590	-0.451553	-0.243571
O30	O	2.043590	0.048447	0.256429
O31	O	1.505019	-0.280834	-0.546306
O32	O	2.005019	0.219166	-0.046306
O33	O	1.374568	-0.335695	-0.562837
O34	O	1.874568	0.164305	-0.062837
C35	C	1.194053	-0.305508	-0.352096
C36	C	1.694053	0.194492	0.147904
C37	C	1.075990	-0.297046	-0.367091
C38	C	1.575990	0.202954	0.132909
C39	C	1.031567	-0.329727	-0.309307
C40	C	1.531567	0.170273	0.190693
C41	C	0.909543	-0.320982	-0.324803
C42	C	1.409543	0.179018	0.175197
C43	C	1.470056	-0.461689	-0.317083
C44	C	1.970056	0.038311	0.182917
C45	C	1.470072	-0.519805	-0.317074
C46	C	1.970072	-0.019805	0.182926
C47	C	1.546767	-0.889948	-0.240302
C48	C	2.046767	-0.389948	0.259698
C49	C	1.546784	-0.944555	-0.240271
C50	C	2.046784	-0.444555	0.259729
O51	O	1.611891	-0.981092	-0.175133
O52	O	2.111891	-0.481092	0.324867
N53	N	1.470220	-0.962114	-0.316810
N54	N	1.970220	-0.462114	0.183190
C55	C	1.393629	-0.925062	-0.393378
C56	C	1.893629	-0.425062	0.106622
O57	O	1.328507	-0.945011	-0.458477
O58	O	1.828507	-0.445011	0.041523
C59	C	1.393608	-0.870455	-0.393403
C60	C	1.893608	-0.370455	0.106597
C61	C	1.470183	-0.852900	-0.316866
C62	C	1.970183	-0.352900	0.183134
C63	C	1.623335	-0.872392	-0.163770
C64	C	2.123335	-0.372392	0.336230
C65	C	1.623319	-0.817788	-0.163803
C66	C	2.123319	-0.317788	0.336197
C67	C	1.546735	-0.780740	-0.240367
C68	C	2.046735	-0.280740	0.259633
C69	C	1.470167	-0.798297	-0.316899
C70	C	1.970167	-0.298297	0.183101
C71	C	1.317013	-0.833404	-0.469966
C72	C	1.817013	-0.333404	0.030034
C73	C	1.316998	-0.778795	-0.469984
C74	C	1.816998	-0.278795	0.030016
C75	C	1.393573	-0.761240	-0.393447
C76	C	1.893573	-0.261240	0.106553
C77	C	1.393567	-0.706645	-0.393496
C78	C	1.893567	-0.206645	0.106504
N79	N	1.470131	-0.689087	-0.316957
N80	N	1.970131	-0.189087	0.183043
C81	C	1.546714	-0.726134	-0.240393
C82	C	2.046714	-0.226134	0.259607
C83	C	1.393677	-1.039739	-0.393317
C84	C	1.893677	-0.539739	0.106683
C85	C	1.393701	-1.094344	-0.393298
C86	C	1.893701	-0.594344	0.106702
C87	C	1.546855	-1.113834	-0.240189
C88	C	2.046855	-0.613834	0.259811
C89	C	1.546835	-1.059228	-0.240214
C90	C	2.046835	-0.559228	0.259786
C91	C	1.470240	-1.022181	-0.316779
C92	C	1.970240	-0.522181	0.183221
C93	C	1.546676	-0.611462	-0.240467
C94	C	2.046676	-0.111462	0.259533
C95	C	1.546656	-0.556852	-0.240509
C96	C	2.046656	-0.056852	0.259491
C97	C	1.393499	-0.537368	-0.393614
C98	C	1.893499	-0.037368	0.106386
C99	C	1.393522	-0.591972	-0.393576
C100	C	1.893522	-0.091972	0.106424
C101	C	1.470115	-0.629019	-0.316993
C102	C	1.970115	-0.129019	0.183007
O103	O	1.328491	-0.670078	-0.458598
O104	O	1.828491	-0.170078	0.041402
O105	O	1.611817	-0.706177	-0.175296
O106	O	2.111817	-0.206177	0.324704
C107	C	1.747064	-0.345195	-0.281980
C108	C	2.247064	0.154805	0.218020
C109	C	1.865124	-0.353667	-0.267012
C110	C	2.365124	0.146333	0.232988
C111	C	1.434916	-0.305511	-0.593114
C112	C	1.934916	0.194489	-0.093114
C113	C	1.419995	-0.297064	-0.711178
C114	C	1.919995	0.202936	-0.211178
C115	C	1.470054	-0.189476	-0.317045
C116	C	1.970054	0.310524	0.182955
C117	C	1.470282	-0.131397	-0.316729
C118	C	1.970282	0.368603	0.183271
C119	C	1.477863	-0.329735	-0.755548
C120	C	1.977863	0.170265	-0.255548
C121	C	1.462444	-0.321006	-0.877574
C122	C	1.962444	0.178994	-0.377574
C123	C	1.505289	-0.345205	-0.040018
C124	C	2.005289	0.154795	0.459982
C125	C	1.520319	-0.353682	0.078061
C126	C	2.020319	0.146318	0.578061
H127	H	1.083874	-0.364179	-0.248361
H128	H	1.583874	0.135821	0.251639
Br129	Br	0.952289	-0.411093	-0.165415
Br130	Br	1.452289	0.088907	0.334585
H131	H	1.538818	-0.364171	-0.703197
H132	H	2.038818	0.135829	-0.203197
H133	H	1.609042	-0.641620	-0.178104
H134	H	2.109042	-0.141620	0.321896
Br135	Br	1.213039	-0.728519	-0.573896
Br136	Br	1.713039	-0.228519	-0.073896
H137	H	1.401476	-0.286572	-0.929924
H138	H	1.901476	0.213428	-0.429924
H139	H	1.685672	-0.803500	-0.101477
H140	H	2.185672	-0.303500	0.398523
Br141	Br	1.621927	-0.411081	-0.834697
Br142	Br	2.121927	0.088919	-0.334697
Br143	Br	1.318381	-0.239673	-0.798428
Br144	Br	1.818381	0.260327	-0.298428
Br145	Br	1.213088	-0.857215	-0.573850
Br146	Br	1.713088	-0.357215	-0.073850
Br147	Br	1.650761	-1.035409	-0.136339
Br148	Br	2.150761	-0.535409	0.363661
Br149	Br	1.650589	-0.533031	-0.136634
Br150	Br	2.150589	-0.033031	0.363366
Br151	Br	1.289567	-0.487079	-0.497516
Br152	Br	1.789567	0.012921	0.002484
Br153	Br	0.822377	-0.263548	-0.426378
Br154	Br	1.322377	0.236452	0.073622
H155	H	1.685699	-0.902552	-0.101417
H156	H	2.185699	-0.402552	0.398583
Br157	Br	0.988821	-0.239614	-0.468662
Br158	Br	1.488821	0.260386	0.031338
Br159	Br	1.289723	-0.989465	-0.497242
Br160	Br	1.789723	-0.489465	0.002758
H161	H	1.331356	-1.108632	-0.455632
H162	H	1.831356	-0.608632	0.044368
Br163	Br	1.650791	-1.164124	-0.136279
Br164	Br	2.150791	-0.664124	0.363721
H165	H	1.331177	-0.606266	-0.455907
H166	H	1.831177	-0.106266	0.044093
