data_functionalizedCrystal
_audit_creation_method	'MofGen! by Chris Wilmer'
_symmetry_space_group_name_H-M	'P1'
_symmetry_Int_Tables_number	1
_symmetry_cell_setting	triclinic
loop_
_symmetry_equiv_pos_as_xyz
  x,y,z
_cell_length_a	23.196402
_cell_length_b	31.640172
_cell_length_c	23.196401
_cell_angle_alpha	90.017286
_cell_angle_beta	60.007332
_cell_angle_gamma	60.002544
loop_
_atom_site_label
_atom_site_type_symbol
_atom_site_fract_x
_atom_site_fract_y
_atom_site_fract_z
Zr1	Zr	0.630908	0.407215	-0.075557
O2	O	0.751182	0.339718	-0.167616
O3	O	0.510642	0.427901	-0.047339
O4	O	0.630905	0.427888	-0.167605
O5	O	0.630917	0.339747	0.047521
O6	O	0.630893	0.497446	-0.167592
O7	O	0.630919	0.339731	-0.047350
O8	O	0.415765	0.497467	0.047542
O9	O	0.846046	0.339726	-0.167613
O10	O	0.560097	0.488640	-0.035291
O11	O	0.560105	0.436743	0.035501
O12	O	0.701699	0.436728	-0.106097
O13	O	0.701707	0.384831	-0.035305
Zr14	Zr	0.630886	0.518177	0.075772
Zr15	Zr	0.630888	0.518151	-0.075537
Zr16	Zr	0.630905	0.407242	0.075752
Zr17	Zr	0.782205	0.407227	-0.075551
Zr18	Zr	0.479589	0.518166	0.075767
O19	O	0.751151	0.497492	0.047554
O20	O	0.751155	0.497454	-0.167588
O21	O	0.751178	0.339756	0.047526
O22	O	0.510612	0.585674	0.167832
O23	O	0.510615	0.585637	-0.047310
O24	O	0.510639	0.427938	0.167803
O25	O	0.630876	0.585645	-0.047306
O26	O	0.630888	0.497504	0.167820
O27	O	0.630900	0.427947	0.167807
O28	O	0.630875	0.585662	0.047566
O29	O	0.846031	0.427904	-0.167597
O30	O	0.415763	0.497488	0.167812
O31	O	0.415748	0.585667	0.167828
O32	O	0.415750	0.585646	0.047558
O33	O	0.846044	0.339747	-0.047342
O34	O	0.846029	0.427925	-0.047326
O35	O	0.560095	0.488665	0.106312
O36	O	0.560087	0.540562	0.035520
O37	O	0.701689	0.488650	-0.035286
O38	O	0.701697	0.436753	0.035506
C39	C	0.441647	0.462682	0.000101
C40	C	0.377417	0.462678	0.000098
C41	C	0.294981	0.501007	0.052366
C42	C	0.234621	0.501010	0.052372
C43	C	0.256702	0.462689	0.000100
C44	C	0.339152	0.424353	-0.052172
C45	C	0.399509	0.424347	-0.052173
C46	C	0.201117	0.450746	-0.063694
C47	C	0.140758	0.450755	-0.063693
C48	C	0.070540	0.462702	0.000103
C49	C	0.060678	0.474652	0.063903
C50	C	0.121036	0.474647	0.063902
C51	C	0.191259	0.462690	0.000096
C52	C	-0.077350	0.501038	0.052382
C53	C	-0.137709	0.501038	0.052389
C54	C	-0.033176	0.424382	-0.052161
C55	C	0.027181	0.424380	-0.052162
C56	C	0.005089	0.462710	0.000109
C57	C	0.630921	0.323933	0.000082
C58	C	0.630929	0.276838	0.000074
C59	C	0.556974	0.011929	0.037082
C60	C	0.556960	-0.165056	0.037096
O61	O	0.494098	-0.164896	0.068554
N62	N	0.630874	-0.214283	0.000135
C63	C	0.704797	-0.219263	-0.036828
O64	O	0.767666	-0.265194	-0.068259
C65	C	0.704811	-0.042278	-0.036837
C66	C	0.630892	0.006948	0.000120
C67	C	0.483061	0.061154	0.074037
C68	C	0.483066	0.105397	0.074030
C69	C	0.556983	0.100416	0.037068
C70	C	0.630896	0.051192	0.000113
C71	C	0.778733	-0.047259	-0.073796
C72	C	0.778730	-0.003007	-0.073794
C73	C	0.704811	0.046219	-0.036836
C74	C	0.704818	0.090454	-0.036856
N75	N	0.630903	0.139681	0.000105
C76	C	0.556986	0.144662	0.037067
C77	C	0.704785	-0.312180	-0.036822
C78	C	0.704782	-0.356426	-0.036820
C79	C	0.556945	-0.302216	0.037105
C80	C	0.556949	-0.257970	0.037099
C81	C	0.630871	-0.262953	0.000139
C82	C	0.557001	0.237574	0.037049
C83	C	0.557011	0.281819	0.037036
C84	C	0.704848	0.227605	-0.036886
C85	C	0.704838	0.183364	-0.036876
C86	C	0.630908	0.188352	0.000096
O87	O	0.767647	0.090334	-0.068292
O88	O	0.494127	0.190598	0.068506
C89	C	0.556970	-0.032314	0.037089
C90	C	0.630883	-0.081538	0.000134
C91	C	0.704800	-0.086519	-0.036828
C92	C	0.630880	-0.125784	0.000135
C93	C	0.556963	-0.120803	0.037097
C94	C	0.483048	-0.071576	0.074058
C95	C	0.483053	-0.027333	0.074051
C96	C	0.778715	-0.135746	-0.073789
C97	C	0.778704	-0.179987	-0.073779
C98	C	0.704787	-0.175007	-0.036818
C99	C	0.820147	0.462710	0.000115
C100	C	0.884376	0.462715	0.000117
C101	C	0.630900	0.462663	-0.189157
C102	C	0.630901	0.462652	-0.253391
C103	C	0.630873	0.601460	0.000133
C104	C	0.630865	0.648555	0.000141
C105	C	0.704813	0.435557	-0.320524
C106	C	0.704814	0.435570	-0.380879
C107	C	0.630899	0.462671	-0.374098
C108	C	0.556976	0.489772	-0.306953
C109	C	0.556977	0.489762	-0.246600
C110	C	0.574273	0.458818	-0.441418
C111	C	0.574275	0.458824	-0.501771
C112	C	0.630892	0.462704	-0.560245
C113	C	0.687521	0.466568	-0.558365
C114	C	0.687522	0.466558	-0.498012
C115	C	0.630889	0.462685	-0.439536
C116	C	0.704811	0.435622	-0.692825
C117	C	0.704809	0.435639	-0.753180
C118	C	0.556969	0.489837	-0.679251
C119	C	0.556973	0.489824	-0.618898
C120	C	0.630897	0.462713	-0.625690
C121	C	0.630894	0.462730	0.189372
C122	C	0.630893	0.462741	0.253607
C123	C	0.441623	0.601446	0.000126
C124	C	0.377385	0.648536	0.000132
C125	C	0.441644	0.462716	0.189365
C126	C	0.377413	0.462722	0.253597
C127	C	0.441620	0.601479	0.189390
C128	C	0.377381	0.648580	0.253631
C129	C	0.820173	0.323914	-0.189175
C130	C	0.884412	0.276812	-0.253416
C131	C	0.820170	0.323947	0.000090
C132	C	0.884408	0.276857	0.000083
C133	C	0.820150	0.462677	-0.189150
C134	C	0.884380	0.462671	-0.253382
C135	C	0.347224	0.643547	-0.036834
C136	C	0.286874	0.687789	-0.036842
C137	C	0.256683	0.737020	0.000120
C138	C	0.286850	0.742007	0.037087
C139	C	0.347203	0.697766	0.037091
C140	C	0.347245	0.489828	0.320730
C141	C	0.286902	0.489832	0.381089
C142	C	0.256724	0.462733	0.374313
C143	C	0.286899	0.435624	0.307173
C144	C	0.347245	0.435617	0.246816
C145	C	0.347210	0.697794	0.246846
C146	C	0.286859	0.742055	0.307202
C147	C	0.256677	0.737102	0.374341
C148	C	0.286854	0.687883	0.381124
C149	C	0.347208	0.643623	0.320769
C150	C	0.914591	0.227599	-0.246631
C151	C	0.974960	0.183337	-0.306986
C152	C	1.005146	0.188291	-0.374125
C153	C	0.974965	0.237510	-0.380909
C154	C	0.914601	0.281770	-0.320554
C155	C	0.914576	0.281846	0.037043
C156	C	0.974943	0.237603	0.037035
C157	C	1.005136	0.188373	0.000070
C158	C	0.974966	0.183386	-0.036894
C159	C	0.914604	0.227627	-0.036889
C160	C	0.914539	0.489775	-0.246583
C161	C	0.974882	0.489779	-0.306931
C162	C	1.005070	0.462675	-0.374076
C163	C	0.974906	0.435570	-0.380873
C164	C	0.914559	0.435570	-0.320526
H165	H	0.113004	0.484375	0.115850
H166	H	0.148793	0.441027	-0.115642
O167	O	0.379772	0.406383	0.174410
H168	H	0.426809	0.410924	0.133572
H169	H	0.262295	0.782128	0.301666
H170	H	0.466636	0.393133	-0.094735
O171	O	1.070170	0.462671	-0.439160
H172	H	1.047001	0.503021	-0.439105
H173	H	0.890011	0.413496	-0.326071
O174	O	1.007407	0.519016	-0.299587
H175	H	1.073987	0.491665	-0.325324
O176	O	0.191628	0.462752	0.439422
H177	H	0.214789	0.422408	0.439392
H178	H	0.838903	-0.220069	-0.103881
H179	H	0.496787	0.511827	-0.191935
H180	H	0.258295	0.441012	-0.115649
H181	H	0.999523	0.143266	-0.301449
H182	H	0.371766	0.603552	0.326303
O183	O	0.271158	0.542343	0.108746
H184	H	0.203690	0.568993	0.145096
O185	O	0.145695	0.542357	0.108742
H186	H	0.140474	0.569011	0.145085
H187	H	0.371776	0.701838	0.192184
H188	H	0.357126	0.393150	-0.094731
O189	O	1.007443	0.406348	-0.453290
H190	H	1.034943	0.364701	-0.459449
H191	H	0.889969	0.511846	-0.191916
O192	O	1.070252	0.140552	-0.439221
H193	H	1.125246	0.140577	-0.471083
H194	H	0.207539	0.773040	0.000112
H195	H	0.496786	0.511904	-0.673728
O196	O	0.784538	0.406385	-0.700141
H197	H	0.788067	0.433734	-0.674381
H198	H	0.999559	0.143296	-0.066989
H199	H	0.003506	0.484377	0.115852
H200	H	0.371753	0.701835	0.067197
H201	H	0.371809	0.511895	0.326261
H202	H	-0.095339	0.532246	0.094948
O203	O	0.882063	0.222244	-0.076751
H204	H	0.854576	0.200758	-0.055388
O205	O	-0.226627	0.542387	0.108763
H206	H	-0.240110	0.540521	0.161463
O207	O	-0.009347	0.383049	-0.108545
H208	H	-0.065167	0.389493	-0.099768
H209	H	0.496799	0.241643	0.067156
O210	O	0.254277	0.795107	0.076959
H211	H	0.207236	0.825028	0.070749
H212	H	0.262341	0.511909	0.435751
O213	O	0.191574	0.784843	0.439433
H214	H	0.136581	0.784817	0.471300
H215	H	0.838926	-0.087334	-0.103890
H216	H	0.890017	0.223555	-0.191968
O217	O	0.116101	0.383047	-0.108547
H218	H	0.121317	0.356403	-0.144901
H219	H	1.054286	0.152353	0.000073
O220	O	0.513170	0.454664	-0.378336
H221	H	0.522666	0.455323	-0.336044
H222	H	0.496815	0.321902	0.067133
H223	H	0.422873	0.145476	0.104121
H224	H	0.999497	0.241675	0.067138
O225	O	0.882041	0.334851	-0.327875
H226	H	0.913170	0.330855	-0.384702
H227	H	0.262319	0.683718	-0.066945
H228	H	0.262319	0.413561	0.301667
O229	O	0.254286	0.682542	0.453540
H230	H	0.207241	0.721590	0.494362
H231	H	0.765007	0.413484	-0.326061
H232	H	0.999550	0.241538	-0.435580
O233	O	0.477224	-0.204876	0.076960
H234	H	0.441780	-0.200363	0.133765
H235	H	0.889997	0.321927	0.067149
H236	H	0.765005	0.413505	-0.435549
H237	H	0.422866	0.065218	0.104139
O238	O	0.784573	0.222237	-0.076836
H239	H	0.772150	0.261276	-0.070653
O240	O	0.477216	-0.296846	0.076977
H241	H	0.489640	-0.335885	0.070771
O242	O	0.784508	-0.409519	-0.076687
H243	H	0.835903	-0.405543	-0.102382
H244	H	0.764985	-0.316246	-0.066924
H245	H	0.838928	-0.007071	-0.103882
H246	H	0.765029	0.143281	-0.066979
H247	H	0.422860	0.012746	0.104147
O248	O	0.403320	-0.066206	0.113926
H249	H	0.415745	-0.105246	0.107721
H250	H	0.838908	-0.139810	-0.103890
H251	H	0.371805	0.603466	-0.066942
O252	O	0.477245	0.519051	-0.546490
H253	H	0.473704	0.549000	-0.517211
H254	H	0.733627	0.469725	-0.605978
O255	O	0.748584	0.470737	-0.495977
H256	H	0.811267	0.437628	-0.538912
O257	O	0.784532	0.406417	-0.825594
H258	H	0.819975	0.364767	-0.831761
O259	O	0.513105	0.454752	-0.503752
H260	H	0.473690	0.452097	-0.452931
O261	O	0.477250	0.519001	-0.299631
H262	H	0.489666	0.514451	-0.352877
