data_functionalizedCrystal
_audit_creation_method	'MofGen! by Chris Wilmer'
_symmetry_space_group_name_H-M	'P1'
_symmetry_Int_Tables_number	1
_symmetry_cell_setting	triclinic
loop_
_symmetry_equiv_pos_as_xyz
  x,y,z
_cell_length_a	12.759401
_cell_length_b	12.759399
_cell_length_c	12.759393
_cell_angle_alpha	90.028113
_cell_angle_beta	90.019465
_cell_angle_gamma	90.012552
loop_
_atom_site_label
_atom_site_type_symbol
_atom_site_fract_x
_atom_site_fract_y
_atom_site_fract_z
Zn1	Zn	-1.606258	0.418254	-0.594035
Zn2	Zn	-1.606153	0.593973	-0.418366
Zn3	Zn	-1.430560	0.418303	-0.418372
Zn4	Zn	-1.430549	0.593886	-0.594004
O5	O	-1.518380	0.506104	-0.506194
O6	O	-1.753265	0.441579	-0.570743
O7	O	-1.582821	0.570727	-0.271346
O8	O	-1.453914	0.271276	-0.441689
O9	O	-1.753188	0.570679	-0.441680
O10	O	-1.582999	0.271240	-0.570748
O11	O	-1.453813	0.441663	-0.271350
O12	O	-1.283537	0.441579	-0.441659
O13	O	-1.453897	0.570531	-0.741030
O14	O	-1.283530	0.570579	-0.570696
O15	O	-1.582989	0.441495	-0.741052
O16	O	-1.582811	0.740983	-0.441650
O17	O	-1.453795	0.740919	-0.570691
C18	C	-1.245413	0.506075	-0.506175
C19	C	-1.128636	0.506088	-0.506192
C20	C	-1.073815	0.438985	-0.573498
C21	C	-0.964090	0.438992	-0.573503
C22	C	-0.964019	0.573213	-0.438894
C23	C	-1.073741	0.573201	-0.438884
C24	C	-1.518319	0.779071	-0.506189
C25	C	-1.518389	0.895848	-0.506222
C26	C	-0.792413	0.506124	-0.506210
C27	C	-0.909190	0.506107	-0.506207
C28	C	-1.585707	1.060439	-0.439148
C29	C	-1.585644	0.950715	-0.439109
C30	C	-1.451187	0.950710	-0.573372
C31	C	-1.451246	1.060432	-0.573405
C32	C	-1.518453	0.505998	-0.780228
C33	C	-1.518485	0.505953	-0.897005
C34	C	-1.518470	1.232071	-0.506238
C35	C	-1.518512	1.115294	-0.506295
C36	C	-1.451334	0.438737	-0.951868
C37	C	-1.451359	0.438704	-1.061592
C38	C	-1.585693	0.573107	-1.061580
C39	C	-1.585662	0.573143	-0.951857
C40	C	-1.518367	0.506134	-0.233227
C41	C	-1.518540	0.505883	-0.116451
H42	H	-1.118507	0.384335	-0.628302
Br43	Br	-1.360040	1.134885	-0.664535
H44	H	-1.640387	0.627810	-1.106254
Br45	Br	-0.889694	0.347915	-0.664847
Br46	Br	-1.360163	0.347552	-0.877428
H47	H	-1.396677	0.383971	-1.106257
Br48	Br	-1.676794	0.664380	-0.877392
H49	H	-1.118378	0.627845	-0.384069
Br50	Br	-0.889512	0.664292	-0.347553
H51	H	-1.640479	1.105105	-0.384502
H52	H	-1.396422	0.906031	-0.628013
Br53	Br	-1.676839	0.876273	-0.347975
