data_functionalizedCrystal
_audit_creation_method	'MofGen! by Chris Wilmer'
_symmetry_space_group_name_H-M	'P1'
_symmetry_Int_Tables_number	1
_symmetry_cell_setting	triclinic
loop_
_symmetry_equiv_pos_as_xyz
  x,y,z
_cell_length_a	15.625950
_cell_length_b	14.044190
_cell_length_c	14.750779
_cell_angle_alpha	76.178157
_cell_angle_beta	120.090508
_cell_angle_gamma	88.497992
loop_
_atom_site_label
_atom_site_type_symbol
_atom_site_fract_x
_atom_site_fract_y
_atom_site_fract_z
O1	O	1.288760	0.028993	0.368632
O2	O	1.005367	0.069096	0.270012
O3	O	1.142811	-0.088570	0.317861
O4	O	1.151316	0.186658	0.320783
O5	O	1.181665	-0.133136	0.491037
O6	O	1.044221	0.024530	0.443188
O7	O	1.327614	-0.015573	0.541808
Zn8	Zn	1.192086	-0.002597	0.519994
Zn9	Zn	1.140894	0.056120	0.291826
O10	O	1.190170	0.142093	0.493959
C11	C	0.988307	0.049410	0.343903
C12	C	0.879585	0.057136	0.306069
C13	C	0.627794	-0.038831	0.653505
C14	C	0.525622	-0.031539	0.617906
C15	C	0.483315	0.017041	0.429133
C16	C	0.585486	0.009758	0.464716
C17	C	0.657718	-0.018179	0.576903
C18	C	0.615409	0.030410	0.388115
C19	C	0.717571	0.023122	0.423696
C20	C	0.789808	-0.004817	0.535878
C21	C	0.759879	-0.025467	0.612484
C22	C	0.543176	0.058340	0.275928
C23	C	0.573100	0.078992	0.199327
C24	C	0.675262	0.071711	0.234907
C25	C	0.747500	0.043772	0.347089
C26	C	0.705192	0.092361	0.158301
C27	C	0.807353	0.085074	0.193882
C28	C	0.849662	0.036485	0.382670
C29	C	1.158513	-0.145840	0.403156
C30	C	1.147405	-0.250087	0.399298
C31	C	1.205883	-0.505526	0.419611
C32	C	1.127100	-0.440944	0.392201
C33	C	1.138400	-0.334742	0.396151
C34	C	1.194584	-0.611738	0.415662
C35	C	1.344674	0.004113	0.467915
C36	C	1.453393	-0.003612	0.505742
C37	C	1.174467	0.199363	0.408662
C38	C	1.185574	0.303612	0.412513
N39	N	1.227030	-0.042672	0.675715
N40	N	1.105957	0.096186	0.136108
C41	C	1.008359	0.208066	0.951406
C42	C	1.032854	0.179990	1.060432
C43	C	1.154592	0.040422	1.102776
C44	C	1.130104	0.068483	0.993750
C45	C	1.056988	0.152306	0.918073
C46	C	1.178733	0.012724	0.960417
C47	C	1.154250	0.040786	0.851402
C48	C	1.081140	0.124608	0.775719
C49	C	1.032506	0.180369	0.809057
C50	C	1.251853	-0.071095	1.036098
C51	C	1.300482	-0.126855	1.002765
C52	C	1.275995	-0.098797	0.893746
C53	C	1.202884	-0.014975	0.818063
C54	C	1.324629	-0.154558	0.860408
C55	C	1.300146	-0.126495	0.751392
C56	C	1.178402	0.013088	0.709048
H57	H	0.818695	-0.048202	0.703838
O58	O	0.443936	0.065571	0.241395
C59	C	0.305011	0.145069	0.240757
C60	C	0.417406	0.136999	0.279926
H61	H	0.283531	0.202800	0.271911
H62	H	0.258490	0.168633	0.147417
H63	H	0.289819	0.069683	0.274009
H64	H	0.432692	0.212355	0.246753
H65	H	0.463868	0.113383	0.373267
H66	H	1.281813	-0.481057	0.446044
H67	H	1.271787	-0.093938	1.124865
H68	H	1.118856	0.081339	0.647424
O69	O	0.697996	-0.065791	0.762471
C70	C	0.834032	-0.019819	0.910818
C71	C	0.754563	0.010846	0.787409
H72	H	0.879802	0.042116	0.931014
H73	H	0.795146	-0.033275	0.959514
H74	H	0.886027	-0.091044	0.933274
H75	H	0.702544	0.082086	0.764850
H76	H	0.793515	0.024235	0.738781
H77	H	1.051165	-0.465415	0.365771
O78	O	1.395520	-0.236071	0.933926
C79	C	1.432705	-0.398004	1.060396
C80	C	1.352319	-0.305761	0.977143
H81	H	1.397813	-0.454365	1.095377
H82	H	1.463251	-0.433123	1.017891
H83	H	1.496592	-0.374777	1.129615
H84	H	1.288375	-0.328907	0.907903
H85	H	1.321854	-0.270664	1.019728
H86	H	0.831716	0.101895	0.131505
H87	H	1.061210	0.147458	0.686954
O88	O	0.961484	0.261847	0.735686
C89	C	0.843259	0.397295	0.705159
C90	C	0.923681	0.305063	0.788368
H91	H	0.812657	0.432251	0.747714
H92	H	0.878107	0.453785	0.670249
H93	H	0.779422	0.374085	0.635881
H94	H	0.987543	0.328181	0.857706
H95	H	0.888758	0.248596	0.823190
H96	H	0.948814	0.276317	0.889783
O97	O	0.502799	0.106159	0.090393
C98	C	0.326666	0.138863	-0.048091
C99	C	0.406172	0.108104	0.075309
H100	H	0.248527	0.140425	-0.060325
H101	H	0.333090	0.216011	-0.088785
H102	H	0.339533	0.082851	-0.086522
H103	H	0.393356	0.164046	0.113835
H104	H	0.399728	0.030932	0.115923
H105	H	0.501264	-0.048336	0.680292
O106	O	0.985475	0.234237	1.092615
C107	C	0.862166	0.375671	1.039117
C108	C	0.915727	0.314316	1.002518
H109	H	0.805778	0.440439	0.966299
H110	H	0.821140	0.326260	1.071874
H111	H	0.919989	0.405772	1.106305
H112	H	0.857969	0.284204	0.935300
H113	H	0.956772	0.363768	0.969828
O114	O	1.225528	-0.041102	1.176160
C115	C	1.275884	-0.218282	1.224484
C116	C	1.195489	-0.126029	1.141280
H117	H	1.251617	-0.286971	1.196326
H118	H	1.350482	-0.207465	1.230652
H119	H	1.285041	-0.228710	1.308125
H120	H	1.186243	-0.115548	1.057596
H121	H	1.120935	-0.136889	1.135208
H122	H	0.646367	0.115098	0.066958
H123	H	1.360017	-0.195103	1.064394
H124	H	1.339746	-0.171900	0.724254
H125	H	0.908478	0.013750	0.474024
H126	H	0.872994	-0.010751	0.564846
H127	H	0.424491	0.039783	0.337790
