data_functionalizedCrystal
_audit_creation_method	'MofGen! by Chris Wilmer'
_symmetry_space_group_name_H-M	'P1'
_symmetry_Int_Tables_number	1
_symmetry_cell_setting	triclinic
loop_
_symmetry_equiv_pos_as_xyz
  x,y,z
_cell_length_a	15.995292
_cell_length_b	15.995292
_cell_length_c	13.930277
_cell_angle_alpha	90.007830
_cell_angle_beta	89.992232
_cell_angle_gamma	83.468616
loop_
_atom_site_label
_atom_site_type_symbol
_atom_site_fract_x
_atom_site_fract_y
_atom_site_fract_z
O1	O	1.110997	0.107686	-0.079850
O2	O	1.610997	0.607686	0.420150
O3	O	0.867213	0.121065	-0.079845
O4	O	1.367213	0.621065	0.420155
O5	O	0.995794	-0.007517	-0.079849
O6	O	1.495794	0.492483	0.420151
O7	O	0.982416	0.236268	-0.079846
O8	O	1.482416	0.736268	0.420154
O9	O	0.995775	-0.007497	0.079813
O10	O	1.495775	0.492503	0.579813
O11	O	0.867194	0.121084	0.079817
O12	O	1.367194	0.621084	0.579817
O13	O	1.110978	0.107706	0.079812
O14	O	1.610978	0.607706	0.579812
Zn15	Zn	0.989083	0.114398	0.105164
Zn16	Zn	1.489083	0.614398	0.605164
Zn17	Zn	0.989108	0.114372	-0.105197
Zn18	Zn	1.489108	0.614372	0.394803
O19	O	0.982397	0.236287	0.079816
O20	O	1.482397	0.736287	0.579816
C21	C	0.836008	0.120530	-0.000014
C22	C	1.336008	0.620530	0.499986
C23	C	0.743055	0.118898	-0.000012
C24	C	1.243055	0.618898	0.499988
C25	C	0.405318	0.112896	-0.000023
C26	C	0.905318	0.612896	0.499977
C27	C	0.428611	0.205703	-0.000379
C28	C	0.928611	0.705703	0.499621
C29	C	0.525286	0.207467	-0.000015
C30	C	1.025286	0.707467	0.499985
C31	C	0.572873	0.115874	-0.000018
C32	C	1.072873	0.615874	0.499982
C33	C	0.543770	0.069486	0.091152
C34	C	1.043770	0.569486	0.591152
C35	C	0.446980	0.068369	0.091225
C36	C	0.946980	0.568369	0.591225
C37	C	0.447146	0.066451	-0.090341
C38	C	0.947146	0.566451	0.409659
C39	C	0.543638	0.069891	-0.091542
C40	C	1.043638	0.569891	0.408458
C41	C	0.667569	0.117552	-0.000013
C42	C	1.167569	0.617552	0.499987
C43	C	0.310622	0.111215	-0.000023
C44	C	0.810622	0.611215	0.499977
C45	C	0.995240	-0.038703	-0.000021
C46	C	1.495240	0.461297	0.499979
C47	C	0.993608	-0.131655	-0.000028
C48	C	1.493608	0.368345	0.499972
C49	C	0.987607	-0.469393	-0.000019
C50	C	1.487607	0.030607	0.499981
C51	C	1.080413	-0.446100	0.000336
C52	C	1.580413	0.053900	0.500336
C53	C	1.082177	-0.349424	-0.000027
C54	C	1.582177	0.150576	0.499973
C55	C	0.990584	-0.301837	-0.000023
C56	C	1.490584	0.198163	0.499977
C57	C	0.944196	-0.330940	-0.091194
C58	C	1.444196	0.169060	0.408806
C59	C	0.943079	-0.427730	-0.091267
C60	C	1.443079	0.072270	0.408733
C61	C	0.941162	-0.427564	0.090299
C62	C	1.441162	0.072436	0.590299
C63	C	0.944601	-0.331072	0.091500
C64	C	1.444601	0.168928	0.591500
C65	C	0.992263	-0.207141	-0.000028
C66	C	1.492263	0.292859	0.499972
C67	C	0.985926	-0.564088	-0.000020
C68	C	1.485926	-0.064088	0.499980
C69	C	1.142183	0.108240	-0.000022
C70	C	1.642183	0.608240	0.499978
C71	C	1.235136	0.109873	-0.000029
C72	C	1.735136	0.609873	0.499971
C73	C	0.982951	0.267473	-0.000015
C74	C	1.482951	0.767473	0.499985
C75	C	0.984583	0.360426	-0.000014
C76	C	1.484583	0.860426	0.499986
N77	N	0.989072	0.114415	0.248730
N78	N	1.489072	0.614415	0.748730
N79	N	0.989125	0.114348	-0.248763
N80	N	1.489125	0.614348	0.251237
C81	C	1.039889	0.165160	0.700989
C82	C	1.539889	0.665160	1.200989
C83	C	0.938352	0.063550	0.700979
C84	C	1.438352	0.563550	1.200979
C85	C	0.938340	0.063563	0.600483
C86	C	1.438340	0.563563	1.100483
C87	C	0.989103	0.114375	0.550236
C88	C	1.489103	0.614375	1.050236
C89	C	1.039880	0.165173	0.600484
C90	C	1.539880	0.665173	1.100484
C91	C	0.887570	0.012759	0.550228
C92	C	1.387570	0.512759	1.050228
C93	C	0.887556	0.012770	0.449726
C94	C	1.387556	0.512770	0.949726
C95	C	0.938316	0.063587	0.399476
C96	C	1.438316	0.563587	0.899476
C97	C	0.989094	0.114388	0.449731
C98	C	1.489094	0.614388	0.949731
C99	C	1.039858	0.165200	0.399483
C100	C	1.539858	0.665200	0.899483
C101	C	1.090632	0.216007	0.449736
C102	C	1.590632	0.716007	0.949736
C103	C	1.090640	0.215991	0.550234
C104	C	1.590640	0.715991	1.050234
C105	C	0.938308	0.063603	0.298978
C106	C	1.438308	0.563603	0.798978
C107	C	1.039849	0.165214	0.298978
C108	C	1.539849	0.665214	0.798978
H109	H	0.433168	-0.001861	-0.090960
H110	H	0.933168	0.498139	0.409040
C111	C	1.128483	-0.485318	-0.087501
C112	C	1.628483	0.014682	0.412499
N113	N	1.164687	-0.514859	-0.153661
N114	N	1.664687	-0.014859	0.346339
H115	H	1.131979	0.257352	0.591159
H116	H	1.631979	0.757352	1.091159
C117	C	0.851154	-0.447371	-0.096871
C118	C	1.351154	0.052629	0.403129
N119	N	0.781918	-0.462161	-0.101101
N120	N	1.281918	0.037839	0.398899
C121	C	0.853144	-0.287864	-0.095777
C122	C	1.353144	0.212136	0.404223
N123	N	0.784564	-0.255416	-0.099229
N124	N	1.284564	0.244584	0.400771
C125	C	1.146476	0.271892	0.394450
C126	C	1.646476	0.771892	0.894450
N127	N	1.188538	0.313983	0.352805
N128	N	1.688538	0.813983	0.852805
H129	H	0.400615	0.241467	-0.065762
H130	H	0.900615	0.741467	0.434238
H131	H	0.575652	0.002087	0.094540
H132	H	1.075652	0.502087	0.594540
H133	H	0.418821	0.095451	-0.159443
H134	H	0.918821	0.595451	0.340557
C135	C	0.848879	-0.446459	0.091143
C136	C	1.348879	0.053541	0.591143
N137	N	0.779376	-0.460699	0.091775
N138	N	1.279376	0.039301	0.591775
H139	H	0.877747	-0.298088	0.097010
H140	H	1.377747	0.201912	0.597010
H141	H	0.563814	0.101716	0.159004
H142	H	1.063814	0.601716	0.659004
H143	H	0.399577	0.241284	0.064638
H144	H	0.899577	0.741284	0.564638
H145	H	0.846212	-0.028599	0.408819
H146	H	1.346212	0.471401	0.908819
C147	C	0.986514	-0.463982	-0.183333
C148	C	1.486514	0.036018	0.316667
N149	N	1.019236	-0.491283	-0.252677
N150	N	1.519236	0.008717	0.247323
C151	C	0.882461	0.007720	0.243705
C152	C	1.382461	0.507720	0.743705
N153	N	0.840392	-0.034373	0.202074
N154	N	1.340392	0.465627	0.702074
H155	H	0.562209	0.103666	-0.158989
H156	H	1.062209	0.603666	0.341011
C157	C	1.131565	-0.324578	-0.088479
C158	C	1.631565	0.175422	0.411521
N159	N	1.168764	-0.305864	-0.155106
N160	N	1.668764	0.194136	0.344894
H161	H	0.544313	0.243792	-0.065372
H162	H	1.044313	0.743792	0.434628
C163	C	0.990213	-0.305961	0.182622
C164	C	1.490213	0.194039	0.682622
N165	N	1.024563	-0.287032	0.251254
N166	N	1.524563	0.212968	0.751254
C167	C	0.427339	-0.023556	0.096820
C168	C	0.927339	0.476444	0.596820
N169	N	0.412549	-0.092793	0.101041
N170	N	0.912549	0.407207	0.601041
H171	H	0.846248	-0.028616	0.591147
H172	H	1.346248	0.471384	1.091147
C173	C	1.095739	0.221043	0.756267
C174	C	1.595739	0.721043	1.256267
N175	N	1.137807	0.263134	0.797903
N176	N	1.637807	0.763134	1.297903
H177	H	0.543674	0.244032	0.065453
H178	H	1.043674	0.744032	0.565453
C179	C	0.410727	0.111808	0.183289
C180	C	0.910727	0.611808	0.683289
N181	N	0.383425	0.144534	0.252630
N182	N	0.883425	0.644534	0.752630
C183	C	1.131259	-0.323720	0.088262
C184	C	1.631259	0.176280	0.588262
N185	N	1.168233	-0.304364	0.154763
N186	N	1.668233	0.195636	0.654763
C187	C	1.095695	0.221111	0.243714
C188	C	1.595695	0.721111	0.743714
N189	N	1.137760	0.263213	0.202089
N190	N	1.637760	0.763213	0.702089
H191	H	0.576623	0.003036	-0.097051
H192	H	1.076623	0.503036	0.402949
H193	H	1.116178	-0.474096	0.065718
H194	H	1.616178	0.025904	0.565718
H195	H	0.976425	-0.310894	-0.159046
H196	H	1.476425	0.189106	0.340954
H197	H	0.970381	-0.455651	0.159406
H198	H	1.470381	0.044349	0.659406
H199	H	0.897028	0.022175	0.741897
H200	H	1.397028	0.522175	1.241897
