data_functionalizedCrystal
_audit_creation_method	'MofGen! by Chris Wilmer'
_symmetry_space_group_name_H-M	'P1'
_symmetry_Int_Tables_number	1
_symmetry_cell_setting	triclinic
loop_
_symmetry_equiv_pos_as_xyz
  x,y,z
_cell_length_a	17.699083
_cell_length_b	19.188940
_cell_length_c	16.176319
_cell_angle_alpha	89.992753
_cell_angle_beta	89.998611
_cell_angle_gamma	83.215865
loop_
_atom_site_label
_atom_site_type_symbol
_atom_site_fract_x
_atom_site_fract_y
_atom_site_fract_z
O1	O	1.003966	0.088294	-0.068631
O2	O	0.783573	0.099781	-0.068659
O3	O	0.900126	-0.007610	-0.068638
O4	O	0.887413	0.195686	-0.068652
O5	O	0.900110	-0.007617	0.068855
O6	O	0.783557	0.099774	0.068835
O7	O	1.003950	0.088287	0.068862
Cu8	Cu	0.893752	0.094030	0.081402
Cu9	Cu	0.893771	0.094038	-0.081199
O10	O	0.887397	0.195679	0.068841
C11	C	0.755368	0.099366	0.000085
C12	C	0.671352	0.098131	0.000074
C13	C	0.899705	-0.033625	0.000108
C14	C	0.898465	-0.111131	0.000108
C15	C	0.622650	0.161168	0.000070
C16	C	0.543708	0.160004	0.000081
C17	C	0.513470	0.095802	0.000090
C18	C	0.562178	0.032760	0.000097
C19	C	0.641118	0.033926	0.000092
C20	C	0.243820	0.028060	0.000117
C21	C	0.164874	0.026900	0.000120
C22	C	0.146411	0.154138	0.000107
C23	C	0.225351	0.155303	0.000102
C24	C	0.274052	0.092262	0.000113
C25	C	0.359650	0.093526	0.000103
C26	C	0.427874	0.094538	0.000094
C27	C	0.889638	-0.664404	0.075035
C28	C	0.890795	-0.591578	0.075040
C29	C	0.891385	-0.555154	0.000093
C30	C	0.890800	-0.591559	-0.074864
C31	C	0.889636	-0.664383	-0.074866
N32	N	0.936288	-0.446077	-0.055686
N33	N	0.937395	-0.376898	-0.055678
C34	C	0.894891	-0.335741	0.000096
N35	N	0.851246	-0.366377	0.055876
N36	N	0.850142	-0.435563	0.055870
C37	C	0.892647	-0.476189	0.000088
C38	C	0.896724	-0.220377	0.075054
C39	C	0.897876	-0.147550	0.075055
C40	C	0.897889	-0.147534	-0.074850
C41	C	0.896729	-0.220359	-0.074850
C42	C	0.896151	-0.256777	0.000104
C43	C	1.032154	0.088702	0.000117
C44	C	1.116171	0.089937	0.000122
C45	C	0.887818	0.221694	0.000093
C46	C	0.889057	0.299199	0.000088
N47	N	0.893744	0.094024	0.195768
N48	N	0.893785	0.094039	-0.195564
C49	C	0.945369	0.046490	0.239041
C50	C	0.945373	0.046490	0.325588
C51	C	0.893755	0.094027	0.368860
C52	C	0.842124	0.141562	0.325581
C53	C	0.842117	0.141559	0.239035
C54	C	0.842150	0.141576	0.674609
C55	C	0.842162	0.141576	0.761161
C56	C	0.945406	0.046506	0.761162
C57	C	0.945399	0.046503	0.674616
C58	C	0.893766	0.094036	0.631344
C59	C	0.893762	0.094035	0.537500
C60	C	0.893762	0.094031	0.462703
H61	H	0.647264	0.213449	0.000062
O62	O	0.792107	0.187786	0.632496
C63	C	0.832494	0.230825	0.582440
H64	H	0.891803	0.202942	0.569462
H65	H	0.837479	0.282416	0.615791
C66	C	0.716918	0.280058	0.516179
C67	C	0.789760	0.245809	0.500233
H68	H	0.690556	0.289304	0.465471
H69	H	0.689707	0.251064	0.549904
H70	H	0.721081	0.323047	0.543974
H71	H	0.785595	0.202817	0.472448
H72	H	0.816968	0.274796	0.466501
O73	O	0.995569	0.000258	0.632711
C74	C	1.041149	-0.041687	0.689465
H75	H	1.010129	-0.042438	0.751163
H76	H	1.097297	-0.019083	0.698655
C77	C	1.095092	-0.116106	0.579922
C78	C	1.056990	-0.117032	0.655699
H79	H	1.104867	-0.162582	0.559093
H80	H	1.064386	-0.087846	0.541685
H81	H	1.141878	-0.097265	0.587591
H82	H	1.010201	-0.135864	0.648027
H83	H	1.087688	-0.145298	0.693934
O84	O	0.791939	0.187778	0.803069
C85	C	0.746376	0.229742	0.746319
H86	H	0.745611	0.201117	0.684631
H87	H	0.770767	0.281586	0.737101
C88	C	0.665627	0.279375	0.855876
C89	C	0.664682	0.244214	0.780112
H90	H	0.615235	0.288305	0.876722
H91	H	0.696325	0.251105	0.894111
H92	H	0.685956	0.322574	0.848184
H93	H	0.644362	0.201013	0.787806
H94	H	0.633978	0.272477	0.741879
H95	H	0.504058	0.211335	0.000077
O96	O	0.898308	-0.112197	-0.147692
C97	C	0.832493	-0.122019	-0.193268
H98	H	0.786382	-0.136428	-0.149387
H99	H	0.846633	-0.166119	-0.239975
C100	C	0.860420	-0.036017	-0.293127
C101	C	0.803783	-0.053708	-0.239232
H102	H	0.842711	0.006119	-0.321484
H103	H	0.904762	-0.029401	-0.262425
H104	H	0.872198	-0.072772	-0.332043
H105	H	0.792013	-0.016957	-0.200312
H106	H	0.759438	-0.060316	-0.269929
O107	O	0.254598	0.217730	0.000130
C108	C	0.194684	0.273120	0.000110
H109	H	0.141119	0.253638	0.026143
H110	H	0.183448	0.292563	-0.065853
C111	C	0.282560	0.357605	0.022051
C112	C	0.216773	0.333679	0.054032
H113	H	0.296186	0.394963	0.055309
H114	H	0.322926	0.320289	0.022061
H115	H	0.273189	0.373803	-0.032918
H116	H	0.226148	0.317474	0.108995
H117	H	0.176409	0.370994	0.054032
O118	O	0.889175	-0.699830	-0.147622
C119	C	0.954048	-0.749957	-0.152116
H120	H	0.975720	-0.763547	-0.087041
H121	H	1.000387	-0.727498	-0.189099
C122	C	0.906424	-0.799999	-0.274897
C123	C	0.933038	-0.816696	-0.194970
H124	H	0.893466	-0.841166	-0.301335
H125	H	0.862719	-0.766227	-0.271872
H126	H	0.945044	-0.781282	-0.305705
H127	H	0.894415	-0.835404	-0.164160
H128	H	0.976736	-0.850473	-0.197991
H129	H	0.891278	-0.561898	-0.135886
O130	O	0.532932	-0.029667	0.000139
C131	C	0.592848	-0.085055	0.000121
H132	H	0.646412	-0.065576	0.026151
H133	H	0.604084	-0.104488	-0.065841
C134	C	0.504976	-0.169547	0.022072
C135	C	0.570762	-0.145624	0.054049
H136	H	0.491352	-0.206911	0.055333
H137	H	0.464608	-0.132232	0.022081
H138	H	0.514348	-0.185736	-0.032896
H139	H	0.561387	-0.129428	0.109011
H140	H	0.611128	-0.182938	0.054050
H141	H	0.896261	-0.249995	-0.135880
H142	H	0.680771	-0.017406	0.000095
H143	H	0.106749	0.205469	0.000102
H144	H	0.889166	-0.694051	0.136069
H145	H	0.896247	-0.250030	0.136086
O146	O	0.135625	-0.035531	0.000170
C147	C	0.195536	-0.090924	0.000160
H148	H	0.249103	-0.071446	0.026186
H149	H	0.206771	-0.110365	-0.065799
C150	C	0.107654	-0.175405	0.022126
C151	C	0.173444	-0.151483	0.054099
H152	H	0.094026	-0.212762	0.055395
H153	H	0.067290	-0.138086	0.022130
H154	H	0.117025	-0.191601	-0.032839
H155	H	0.164070	-0.135280	0.109058
H156	H	0.213806	-0.188800	0.054105
O157	O	0.891380	-0.556322	0.147920
C158	C	0.890590	-0.604078	0.214075
H159	H	0.913727	-0.658917	0.192110
H160	H	0.829756	-0.604404	0.237106
C161	C	0.912231	-0.514371	0.311873
C162	C	0.940654	-0.581724	0.284898
H163	H	0.943110	-0.500581	0.355563
H164	H	0.912760	-0.482196	0.267305
H165	H	0.861536	-0.514651	0.331060
H166	H	0.991344	-0.581441	0.265703
H167	H	0.940135	-0.613899	0.329466
H168	H	0.987446	0.007800	0.796403
O169	O	0.791942	0.187803	0.197125
C170	C	0.746371	0.229750	0.253874
H171	H	0.777403	0.230507	0.315562
H172	H	0.690227	0.207143	0.263091
C173	C	0.692403	0.304158	0.144315
C174	C	0.730519	0.305092	0.220080
H175	H	0.682620	0.350632	0.123468
H176	H	0.723102	0.275896	0.106081
H177	H	0.645620	0.285316	0.152006
H178	H	0.777305	0.323926	0.212385
H179	H	0.699827	0.333360	0.258312
O180	O	0.898476	-0.112303	0.147937
C181	C	0.897700	-0.160065	0.214087
H182	H	0.920825	-0.214904	0.192111
H183	H	0.836872	-0.160387	0.237139
C184	C	0.919379	-0.070370	0.311887
C185	C	0.947788	-0.137723	0.284896
H186	H	0.950273	-0.056587	0.355567
H187	H	0.919899	-0.038191	0.267321
H188	H	0.868690	-0.070647	0.331091
H189	H	0.998473	-0.137443	0.265683
H190	H	0.947278	-0.169901	0.329461
H191	H	0.283464	-0.023272	0.000127
H192	H	0.987406	0.007783	0.203814
H193	H	0.987409	0.007784	0.360821
H194	H	0.800092	0.180265	0.360818
