data_functionalizedCrystal
_audit_creation_method	'MofGen! by Chris Wilmer'
_symmetry_space_group_name_H-M	'P1'
_symmetry_Int_Tables_number	1
_symmetry_cell_setting	triclinic
loop_
_symmetry_equiv_pos_as_xyz
  x,y,z
_cell_length_a	13.897449
_cell_length_b	12.827893
_cell_length_c	12.827885
_cell_angle_alpha	90.019272
_cell_angle_beta	89.976701
_cell_angle_gamma	89.997220
loop_
_atom_site_label
_atom_site_type_symbol
_atom_site_fract_x
_atom_site_fract_y
_atom_site_fract_z
Zn1	Zn	0.383964	1.597762	0.590896
Zn2	Zn	0.717297	1.931096	0.924229
Zn3	Zn	1.050631	2.264429	1.257562
Zn4	Zn	0.545290	1.597695	0.416176
Zn5	Zn	0.878624	1.931029	0.749509
Zn6	Zn	1.211957	2.264362	1.082843
Zn7	Zn	0.384011	1.423004	0.416169
Zn8	Zn	0.717345	1.756337	0.749503
Zn9	Zn	1.050678	2.089670	1.082836
Zn10	Zn	0.545219	1.423028	0.590876
Zn11	Zn	0.878552	1.756361	0.924209
Zn12	Zn	1.211886	2.089695	1.257543
O13	O	0.464621	1.510372	0.503529
O14	O	0.797955	1.843706	0.836863
O15	O	1.131288	2.177039	1.170196
O16	O	0.405374	1.743989	0.567730
O17	O	0.738708	2.077323	0.901063
O18	O	1.072041	2.410656	1.234397
O19	O	0.523946	1.574484	0.269939
O20	O	0.857279	1.907817	0.603272
O21	O	1.190613	2.241151	0.936606
O22	O	0.249024	1.446204	0.439353
O23	O	0.582357	1.779537	0.772686
O24	O	0.915690	2.112870	1.106020
O25	O	0.523900	1.743940	0.439364
O26	O	0.857233	2.077274	0.772697
O27	O	1.190567	2.410607	1.106031
O28	O	0.248989	1.574598	0.567724
O29	O	0.582322	1.907931	0.901057
O30	O	0.915655	2.241265	1.234390
O31	O	0.405455	1.446139	0.269934
O32	O	0.738788	1.779472	0.603268
O33	O	1.072122	2.112805	0.936601
O34	O	0.405386	1.276771	0.439334
O35	O	0.738719	1.610104	0.772667
O36	O	1.072053	1.943438	1.106000
O37	O	0.523779	1.446245	0.737115
O38	O	0.857112	1.779578	1.070448
O39	O	1.190445	2.112912	1.403781
O40	O	0.523825	1.276789	0.567690
O41	O	0.857158	1.610122	0.901023
O42	O	1.190491	1.943455	1.234356
O43	O	0.405305	1.574622	0.737129
O44	O	0.738638	1.907955	1.070463
O45	O	1.071972	2.241288	1.403796
O46	O	0.680263	1.574508	0.439345
O47	O	1.013596	1.907841	0.772678
O48	O	1.346929	2.241174	1.106011
O49	O	0.680210	1.446180	0.567696
O50	O	1.013544	1.779513	0.901029
O51	O	1.346877	2.112847	1.234363
C52	C	0.464603	1.238862	0.503509
C53	C	0.797937	1.572196	0.836843
C54	C	1.131270	1.905529	1.170176
C55	C	0.464619	1.122709	0.503526
C56	C	0.797952	1.456043	0.836859
C57	C	1.131286	1.789376	1.170192
C58	C	0.406073	1.070949	0.567144
C59	C	0.739406	1.404282	0.900478
C60	C	1.072739	1.737615	1.233811
C61	C	0.406088	0.950898	0.567162
C62	C	0.739421	1.284232	0.900496
C63	C	1.072754	1.617565	1.233829
C64	C	0.213028	1.510406	0.503540
C65	C	0.546362	1.843739	0.836873
C66	C	0.879695	2.177072	1.170206
C67	C	0.105814	1.510420	0.503544
C68	C	0.439148	1.843753	0.836878
C69	C	0.772481	2.177087	1.170211
C70	C	-0.090481	1.510452	0.503577
C71	C	0.242853	1.843785	0.836911
C72	C	0.576186	2.177118	1.170244
C73	C	0.018752	1.510437	0.503562
C74	C	0.352085	1.843770	0.836896
C75	C	0.685418	2.177104	1.170229
C76	C	0.715236	1.510368	0.503542
C77	C	1.048569	1.843701	0.836875
C78	C	1.381902	2.177034	1.170208
C79	C	0.822449	1.510461	0.503582
C80	C	1.155783	1.843794	0.836915
C81	C	1.489116	2.177128	1.170248
C82	C	0.464529	1.510443	0.776100
C83	C	0.797862	1.843777	1.109433
C84	C	1.131195	2.177110	1.442766
C85	C	0.464489	1.510474	0.892253
C86	C	0.797822	1.843807	1.225586
C87	C	1.131156	2.177140	1.558919
C88	C	0.464640	1.782942	0.503550
C89	C	0.797973	2.116276	0.836883
C90	C	1.131306	2.449609	1.170217
C91	C	0.464648	1.899096	0.503559
C92	C	0.797981	2.232429	0.836892
C93	C	1.131314	2.565762	1.170225
C94	C	0.464644	1.510362	0.232019
C95	C	0.797977	1.843695	0.565353
C96	C	1.131311	2.177028	0.898686
C97	C	0.464412	1.510534	0.115867
C98	C	0.797745	1.843867	0.449200
C99	C	1.131078	2.177200	0.782533
C100	C	0.405853	1.574005	0.944045
C101	C	0.739187	1.907339	1.277378
C102	C	1.072520	2.240672	1.610711
C103	C	0.405811	1.574038	1.064095
C104	C	0.739144	1.907372	1.397429
C105	C	1.072478	2.240705	1.730762
H106	H	0.514752	1.078147	0.449071
H107	H	0.848085	1.411480	0.782404
H108	H	1.181418	1.744813	1.115738
H109	H	0.355967	0.906385	0.621632
H110	H	0.689300	1.239719	0.954965
H111	H	1.022634	1.573052	1.288299
H112	H	0.355614	1.628434	1.108635
H113	H	0.688947	1.961767	1.441968
H114	H	1.022281	2.295100	1.775302
Cl115	Cl	0.541930	1.426555	1.047113
Cl116	Cl	0.875263	1.759889	1.380447
Cl117	Cl	1.208596	2.093222	1.713780
Cl118	Cl	0.542047	0.967807	0.419465
Cl119	Cl	0.875380	1.301141	0.752799
Cl120	Cl	1.208714	1.634474	1.086132
Cl121	Cl	0.328662	1.139741	0.651217
Cl122	Cl	0.661995	1.473074	0.984550
Cl123	Cl	0.995329	1.806408	1.317883
Cl124	Cl	0.328368	1.657923	0.875294
Cl125	Cl	0.661701	1.991257	1.208627
Cl126	Cl	0.995034	2.324590	1.541961
Cl127	Cl	0.541945	1.426524	0.961004
Cl128	Cl	0.875279	1.759858	1.294337
Cl129	Cl	1.208612	2.093191	1.627670
