data_functionalizedCrystal
_audit_creation_method	'MofGen! by Chris Wilmer'
_symmetry_space_group_name_H-M	'P1'
_symmetry_Int_Tables_number	1
_symmetry_cell_setting	triclinic
loop_
_symmetry_equiv_pos_as_xyz
  x,y,z
_cell_length_a	18.760490
_cell_length_b	14.560438
_cell_length_c	14.560438
_cell_angle_alpha	60.000905
_cell_angle_beta	90.019469
_cell_angle_gamma	60.024159
loop_
_atom_site_label
_atom_site_type_symbol
_atom_site_fract_x
_atom_site_fract_y
_atom_site_fract_z
Zr1	Zr	0.686539	1.005643	-0.120405
O2	O	0.572744	1.197185	-0.267067
O3	O	0.721424	0.814060	-0.075447
O4	O	0.721420	1.005664	-0.267048
O5	O	0.572750	1.005579	0.075675
O6	O	0.838699	1.005727	-0.267031
O7	O	0.572747	1.005582	-0.075466
O8	O	0.838705	0.662982	0.075708
O9	O	0.572744	1.348323	-0.267064
O10	O	0.823825	0.892923	-0.056258
O11	O	0.736304	0.892874	0.056524
O12	O	0.736300	1.118463	-0.169061
O13	O	0.648778	1.118414	-0.056280
Zr14	Zr	0.873590	1.005739	0.120675
Zr15	Zr	0.873585	1.005743	-0.120377
Zr16	Zr	0.686544	1.005639	0.120647
Zr17	Zr	0.686540	1.246691	-0.120400
Zr18	Zr	0.873589	0.764691	0.120671
O19	O	0.838706	1.197322	0.075718
O20	O	0.838699	1.197327	-0.267027
O21	O	0.572751	1.197180	0.075678
O22	O	0.987385	0.814196	0.267337
O23	O	0.987378	0.814202	-0.075408
O24	O	0.721430	0.814054	0.267298
O25	O	0.987379	1.005803	-0.075404
O26	O	0.838709	1.005718	0.267319
O27	O	0.721431	1.005655	0.267301
O28	O	0.987382	1.005800	0.075737
O29	O	0.721421	1.348403	-0.267042
O30	O	0.838709	0.662979	0.267312
O31	O	0.987385	0.663058	0.267334
O32	O	0.987381	0.663062	0.075730
O33	O	0.572748	1.348320	-0.075460
O34	O	0.721424	1.348400	-0.075437
O35	O	0.823830	0.892919	0.169332
O36	O	0.911351	0.892967	0.056550
O37	O	0.823825	1.118508	-0.056253
O38	O	0.736304	1.118459	0.056528
C39	C	0.780064	0.704177	0.000130
C40	C	0.780064	0.601846	0.000128
C41	C	0.546099	1.005566	0.000100
C42	C	0.466693	1.005524	0.000089
C43	C	0.825747	0.553795	-0.058743
C44	C	0.825751	0.457636	-0.058733
C45	C	0.734380	0.457590	0.059021
C46	C	0.734383	0.553741	0.059017
C47	C	0.130704	1.005825	-0.083096
C48	C	0.130823	1.005822	0.083441
C49	C	0.205469	1.005758	0.083423
C50	C	0.242737	1.005725	0.000145
C51	C	0.205359	1.005757	-0.083115
C52	C	0.242859	1.005713	0.166688
C53	C	0.317510	1.005647	0.166674
C54	C	0.354776	1.005623	0.083390
C55	C	0.317392	1.005657	0.000126
C56	C	0.354660	1.005624	-0.083152
C57	C	0.317274	1.005667	-0.166422
C58	C	0.242624	1.005733	-0.166399
C59	C	0.429425	1.005556	0.083367
C60	C	0.429315	1.005556	-0.083171
C61	C	1.014030	1.005816	0.000170
C62	C	1.093436	1.005858	0.000182
C63	C	0.780059	1.005696	-0.301384
C64	C	0.780057	1.005698	-0.403717
C65	C	0.780065	1.307205	0.000141
C66	C	0.780065	1.409536	0.000143
C67	C	0.734370	1.123425	-0.510676
C68	C	0.734380	1.123419	-0.606824
C69	C	0.825765	0.887947	-0.489043
C70	C	0.825759	0.887955	-0.392896
C71	C	0.780071	1.005686	0.301655
C72	C	0.780073	1.005684	0.403988
C73	C	1.014030	0.704302	0.000165
C74	C	1.093435	0.602013	0.000174
C75	C	0.780070	0.704172	0.301649
C76	C	0.780072	0.601839	0.403980
C77	C	1.014036	0.704297	0.301684
C78	C	1.093443	0.602006	0.404027
C79	C	0.546093	1.307085	-0.301413
C80	C	0.466686	1.409375	-0.403756
C81	C	0.546099	1.307080	0.000106
C82	C	0.466694	1.409369	0.000096
C83	C	0.780059	1.307210	-0.301379
C84	C	0.780057	1.409542	-0.403710
C85	C	1.085038	0.553954	-0.058715
C86	C	1.159641	0.457856	-0.058729
C87	C	1.242640	0.409813	0.000155
C88	C	1.251037	0.457882	0.059047
C89	C	1.176435	0.553984	0.059053
C90	C	1.176427	0.553995	0.393217
C91	C	1.251046	0.457896	0.489370
C92	C	1.242680	0.409803	0.596331
C93	C	1.159687	0.457824	0.607139
C94	C	1.085070	0.553928	0.510987
C95	C	0.383702	1.457398	-0.392947
C96	C	0.309083	1.553527	-0.489100
C97	C	0.317449	1.601625	-0.596061
C98	C	0.400442	1.553598	-0.606868
C99	C	0.475059	1.457478	-0.510716
C100	C	0.475092	1.457438	0.058976
C101	C	0.400489	1.553562	0.058963
C102	C	0.317489	1.601609	0.000075
C103	C	0.309093	1.553536	-0.058812
C104	C	0.383695	1.457420	-0.058804
C105	C	0.825760	0.553785	0.510940
C106	C	0.825751	0.457641	0.607087
C107	C	0.734367	0.457612	0.489301
C108	C	0.734370	0.553760	0.393156
H109	H	0.862946	0.592958	-0.106692
H110	H	0.862952	0.418514	-0.106669
H111	H	0.212517	1.005730	0.234495
F112	F	0.874396	0.762644	-0.477538
F113	F	0.357293	1.005605	0.255292
F114	F	1.150686	0.406711	-0.121408
H115	H	1.303379	0.331559	0.000142
F116	F	0.409443	1.604704	0.121645
F117	F	0.468968	1.005530	-0.171814
H118	H	1.183284	0.593102	0.107015
H119	H	0.256684	1.679893	-0.674345
F120	F	0.685756	1.248721	-0.720657
H121	H	0.697187	0.418413	0.106965
F122	F	1.339379	0.406734	0.121715
F123	F	0.685763	0.604877	0.121686
F124	F	1.322103	0.307518	0.698656
H125	H	0.459865	1.005513	0.151168
F126	F	0.356949	1.005620	-0.255044
F127	F	0.202834	1.005775	-0.255012
F128	F	0.220751	1.604681	-0.121477
H129	H	0.376845	1.418284	-0.106748
F130	F	0.874386	0.762646	-0.279053
H131	H	0.862954	0.418521	0.694175
F132	F	1.339365	0.406802	0.477844
F133	F	0.685735	1.248737	-0.522196
H134	H	1.017462	0.593070	-0.106680
F135	F	0.220765	1.604621	-0.477574
F136	F	0.874398	0.604953	0.522464
F137	F	0.996754	0.605009	0.522509
F138	F	0.090914	1.005877	-0.171717
F139	F	1.185351	0.605168	0.279390
H140	H	0.407244	1.592772	-0.693967
H141	H	1.152888	0.418652	0.694239
F142	F	0.374778	1.406224	-0.279119
H143	H	0.542626	1.418378	-0.519531
H144	H	0.697160	0.418452	0.480501
F145	F	0.238097	1.703904	0.000079
H146	H	0.542668	1.418325	0.106937
H147	H	0.697162	0.592890	0.306058
H148	H	0.100481	1.005840	0.151249
