data_functionalizedCrystal
_audit_creation_method	'MofGen! by Chris Wilmer'
_symmetry_space_group_name_H-M	'P1'
_symmetry_Int_Tables_number	1
_symmetry_cell_setting	triclinic
loop_
_symmetry_equiv_pos_as_xyz
  x,y,z
_cell_length_a	13.033293
_cell_length_b	14.908178
_cell_length_c	13.033288
_cell_angle_alpha	100.031737
_cell_angle_beta	103.342055
_cell_angle_gamma	100.025217
loop_
_atom_site_label
_atom_site_type_symbol
_atom_site_fract_x
_atom_site_fract_y
_atom_site_fract_z
Zn1	Zn	1.693543	-0.086104	0.800592
Zn2	Zn	2.193543	0.413896	1.300592
Zn3	Zn	1.657448	-0.261847	0.609489
Zn4	Zn	2.157448	0.238153	1.109489
Zn5	Zn	1.489968	-0.130709	0.596972
Zn6	Zn	1.989968	0.369291	1.096972
Zn7	Zn	1.502421	-0.261819	0.764468
Zn8	Zn	2.002421	0.238181	1.264468
O9	O	1.585845	-0.185120	0.692880
O10	O	2.085845	0.314880	1.192880
O11	O	1.838831	-0.090761	0.795599
O12	O	2.338831	0.409239	1.295599
O13	O	1.614914	-0.263130	0.457754
O14	O	2.114914	0.236870	0.957754
O15	O	1.526867	0.003627	0.633862
O16	O	2.026867	0.503627	1.133862
O17	O	1.812312	-0.219878	0.655196
O18	O	2.312312	0.280122	1.155196
O19	O	1.676432	0.036398	0.783461
O20	O	2.176432	0.536398	1.283461
O21	O	1.491867	-0.166783	0.448557
O22	O	1.991867	0.333217	0.948557
O23	O	1.341544	-0.166757	0.598834
O24	O	1.841544	0.333243	1.098834
O25	O	1.548091	-0.219832	0.919335
O26	O	2.048091	0.280168	1.419335
O27	O	1.350693	-0.263083	0.721892
O28	O	1.850693	0.236917	1.221892
O29	O	1.688507	-0.090734	0.945875
O30	O	2.188507	0.409266	1.445875
O31	O	1.626989	-0.390262	0.620168
O32	O	2.126989	0.109738	1.120168
O33	O	1.513091	-0.390242	0.734030
O34	O	2.013091	0.109758	1.234030
C35	C	1.307205	-0.219758	0.655085
C36	C	1.807205	0.280242	1.155085
C37	C	1.188004	-0.234595	0.638940
C38	C	1.688004	0.265405	1.138940
C39	C	1.147988	-0.177399	0.701305
C40	C	1.647988	0.322601	1.201305
C41	C	1.024787	-0.192733	0.684619
C42	C	1.524787	0.307267	1.184619
C43	C	1.567507	-0.423543	0.674564
C44	C	2.067507	0.076457	1.174564
C45	C	1.559764	-0.525525	0.666778
C46	C	2.059764	-0.025525	1.166778
C47	C	1.700875	-0.682881	0.808057
C48	C	2.200875	-0.182881	1.308057
C49	C	1.693604	-0.778701	0.800745
C50	C	2.193604	-0.278701	1.300745
C51	C	1.537950	-0.812988	0.644848
C52	C	2.037950	-0.312988	1.144848
C53	C	1.545220	-0.717167	0.652160
C54	C	2.045220	-0.217167	1.152160
C55	C	1.626686	-0.652117	0.733766
C56	C	2.126686	-0.152117	1.233766
C57	C	1.633960	-0.556295	0.741073
C58	C	2.133960	-0.056295	1.241073
C59	C	1.478302	-0.590583	0.585181
C60	C	1.978302	-0.090583	1.085181
C61	C	1.471032	-0.686403	0.577869
C62	C	1.971032	-0.186403	1.077869
C63	C	1.865572	-0.150347	0.730824
C64	C	2.365572	0.349653	1.230824
C65	C	1.984776	-0.135529	0.746993
C66	C	2.484776	0.364471	1.246993
C67	C	1.623714	-0.150305	0.972606
C68	C	2.123714	0.349695	1.472606
C69	C	1.639852	-0.135468	1.091808
C70	C	2.139852	0.364532	1.591808
C71	C	1.604287	0.054241	0.711295
C72	C	2.104287	0.554241	1.211295
C73	C	1.612146	0.156243	0.719142
C74	C	2.112146	0.656243	1.219142
C75	C	1.594247	-0.177401	1.255021
C76	C	2.094247	0.322599	1.755021
C77	C	1.577565	-0.192735	1.131819
C78	C	2.077565	0.307265	1.631819
C79	C	1.548111	-0.219822	1.414240
C80	C	2.048111	0.280178	1.914240
C81	C	1.531969	-0.234660	1.295037
C82	C	2.031969	0.265340	1.795037
H83	H	0.967840	-0.253055	0.618868
H84	H	1.467840	0.246945	1.118868
Cl85	Cl	1.072687	-0.042386	0.848499
Cl86	Cl	1.572687	0.457614	1.348499
H87	H	1.700296	-0.503330	0.807518
H88	H	2.200296	-0.003330	1.307518
H89	H	1.767214	-0.629915	0.874498
H90	H	2.267214	-0.129915	1.374498
Cl91	Cl	1.235906	-0.084265	0.802811
Cl92	Cl	1.735906	0.415735	1.302811
H93	H	1.659920	-0.117030	1.311973
H94	H	2.159920	0.382970	1.811973
H95	H	1.131054	-0.294913	0.573193
H96	H	1.631054	0.205087	1.073193
Cl97	Cl	1.786872	-0.817372	0.894146
Cl98	Cl	2.286872	-0.317372	1.394146
H99	H	1.471620	-0.865967	0.578412
H100	H	1.971620	-0.365967	1.078412
H101	H	1.404702	-0.739380	0.511430
H102	H	1.904702	-0.239380	1.011430
H103	H	1.417895	-0.565525	0.524685
H104	H	1.917895	-0.065525	1.024685
H105	H	1.511896	-0.253117	1.074872
H106	H	2.011896	0.246883	1.574872
Cl107	Cl	1.741254	-0.042251	1.179722
Cl108	Cl	2.241254	0.457749	1.679722
H109	H	1.466304	-0.295037	1.238086
H110	H	1.966304	0.204963	1.738086
