data_functionalizedCrystal
_audit_creation_method	'MofGen! by Chris Wilmer'
_symmetry_space_group_name_H-M	'P1'
_symmetry_Int_Tables_number	1
_symmetry_cell_setting	triclinic
loop_
_symmetry_equiv_pos_as_xyz
  x,y,z
_cell_length_a	14.908795
_cell_length_b	14.909042
_cell_length_c	17.077395
_cell_angle_alpha	93.320244
_cell_angle_beta	93.316031
_cell_angle_gamma	89.820018
loop_
_atom_site_label
_atom_site_type_symbol
_atom_site_fract_x
_atom_site_fract_y
_atom_site_fract_z
Zn1	Zn	1.395314	-0.278772	0.500029
Zn2	Zn	1.403910	-0.429142	0.361656
Zn3	Zn	1.244959	-0.287463	0.360780
Zn4	Zn	1.253600	-0.437751	0.484890
O5	O	1.324446	-0.358282	0.426839
O6	O	1.522284	-0.291479	0.488375
O7	O	1.382806	-0.410382	0.251690
O8	O	1.257690	-0.160483	0.385221
O9	O	1.528599	-0.401955	0.386714
O10	O	1.368155	-0.154099	0.487526
O11	O	1.266025	-0.306291	0.251047
O12	O	1.120276	-0.314639	0.370542
O13	O	1.272417	-0.416628	0.596748
O14	O	1.126624	-0.425055	0.461724
O15	O	1.376534	-0.299827	0.607870
O16	O	1.391185	-0.556110	0.372034
O17	O	1.280752	-0.562435	0.462573
C18	C	1.090824	-0.371725	0.414396
C19	C	0.990881	-0.377497	0.409090
C20	C	0.853299	-0.443056	0.348609
C21	C	0.947205	-0.437636	0.353594
C22	C	0.940643	-0.322773	0.459604
C23	C	0.846738	-0.328193	0.454619
C24	C	0.803069	-0.388337	0.399121
C25	C	0.709162	-0.393762	0.394140
C26	C	0.702602	-0.278894	0.500146
C27	C	0.796507	-0.273474	0.505131
C28	C	1.337863	-0.591897	0.415774
C29	C	1.343686	-0.691834	0.411071
C30	C	1.239523	-0.886282	0.496420
C31	C	1.244991	-0.980182	0.492004
C32	C	1.360084	-0.973534	0.397819
C33	C	1.354616	-0.879635	0.402235
C34	C	1.294335	-0.836012	0.451538
C35	C	1.288872	-0.742111	0.455958
C36	C	1.403960	-0.735465	0.361770
C37	C	1.409428	-0.829364	0.357354
C38	C	1.558980	-0.344787	0.439331
C39	C	1.658924	-0.339037	0.444654
C40	C	1.324481	-0.358219	0.631588
C41	C	1.324496	-0.358192	0.718840
C42	C	1.311000	-0.123753	0.437965
C43	C	1.305270	-0.023811	0.442706
C44	C	1.324459	-0.358277	0.222892
C45	C	1.324603	-0.358041	0.135661
C46	C	1.378802	-0.297246	1.100458
C47	C	1.378786	-0.297278	1.018475
C48	C	1.324565	-0.358102	0.971697
C49	C	1.270364	-0.418904	1.006905
C50	C	1.270386	-0.418875	1.088887
C51	C	1.270321	-0.418959	0.836030
C52	C	1.270297	-0.418987	0.754043
C53	C	1.378720	-0.297362	0.765619
C54	C	1.378742	-0.297333	0.847600
C55	C	1.324540	-0.358134	0.882803
H56	H	0.661694	-0.234339	0.541278
F57	F	1.212633	-0.483671	0.873494
H58	H	1.190446	-0.850764	0.536570
H59	H	1.448594	-0.694524	0.325226
H60	H	0.832075	-0.224504	0.550314
F61	F	0.662688	-0.457776	0.335079
H62	H	1.422949	-0.247710	1.138540
F63	F	0.987134	-0.258764	0.518661
F64	F	1.436472	-0.232572	0.981014
H65	H	1.226221	-0.468432	0.968812
H66	H	1.226253	-0.468382	1.117548
F67	F	1.436461	-0.232607	0.897384
F68	F	1.212594	-0.483726	0.704259
H69	H	0.817744	-0.492035	0.303426
F70	F	1.000661	-0.495873	0.299830
H71	H	1.239790	-0.706594	0.496105
H72	H	1.409154	-1.009069	0.357672
F73	F	1.186651	-1.033681	0.539772
H74	H	1.458505	-0.864895	0.317210
H75	H	1.422852	-0.247854	0.736953
