data_functionalizedCrystal
_audit_creation_method	'MofGen! by Chris Wilmer'
_symmetry_space_group_name_H-M	'P1'
_symmetry_Int_Tables_number	1
_symmetry_cell_setting	triclinic
loop_
_symmetry_equiv_pos_as_xyz
  x,y,z
_cell_length_a	13.262402
_cell_length_b	11.804499
_cell_length_c	10.654550
_cell_angle_alpha	76.808504
_cell_angle_beta	95.538840
_cell_angle_gamma	87.666132
loop_
_atom_site_label
_atom_site_type_symbol
_atom_site_fract_x
_atom_site_fract_y
_atom_site_fract_z
O1	O	1.329975	-0.331762	-0.093013
O2	O	1.042468	-0.238635	-0.132782
O3	O	1.192831	-0.287344	0.070370
O4	O	1.179612	-0.283053	-0.296166
O5	O	1.156912	-0.473763	0.113183
O6	O	1.006549	-0.425054	-0.089970
O7	O	1.294056	-0.518181	-0.050200
Cu8	Cu	1.147023	-0.488639	-0.066176
Cu9	Cu	1.189501	-0.268177	-0.116807
O10	O	1.143693	-0.469473	-0.253353
C11	C	0.987695	-0.319920	-0.113082
C12	C	0.878001	-0.284389	-0.118152
C13	C	0.846045	-0.166076	-0.143869
C14	C	0.742981	-0.132694	-0.148644
C15	C	0.671862	-0.217622	-0.127692
C16	C	0.703818	-0.335938	-0.101964
C17	C	0.806892	-0.369323	-0.097199
C18	C	0.632708	-0.420869	-0.081021
C19	C	0.664664	-0.539185	-0.055294
C20	C	0.767728	-0.572564	-0.050529
C21	C	0.838847	-0.487636	-0.071481
C22	C	0.529635	-0.387484	-0.085786
C23	C	0.490481	-0.590731	-0.039116
C24	C	0.593545	-0.624113	-0.034341
N25	N	1.117153	-0.643703	-0.030563
C26	C	1.348830	-0.436894	-0.069901
C27	C	1.458526	-0.472418	-0.064833
C28	C	1.291115	-1.074010	-0.237947
C29	C	1.313707	-0.956667	-0.264906
C30	C	1.264571	-0.878421	-0.206322
C31	C	1.192838	-0.917528	-0.120775
C32	C	1.170238	-1.034880	-0.093822
C33	C	1.143694	-0.839291	-0.062197
C34	C	1.071961	-0.878398	0.023349
C35	C	1.049366	-0.995740	0.050300
C36	C	1.098502	-1.073986	-0.008284
C37	C	1.166294	-0.721939	-0.089151
C38	C	1.045417	-0.682809	0.054974
C39	C	1.022825	-0.800152	0.081933
C40	C	1.173901	-0.380238	0.138497
C41	C	1.170998	-0.379293	0.277707
N42	N	1.219379	-0.113116	-0.152409
C43	C	1.162623	-0.376576	-0.321480
C44	C	1.165528	-0.377513	-0.460692
C45	C	1.259529	-0.407973	0.364265
C46	C	1.256795	-0.407079	0.495065
C47	C	1.076991	-0.348828	0.452739
C48	C	1.079727	-0.349714	0.321939
C49	C	1.363336	-0.441609	0.388704
C50	C	1.360603	-0.440715	0.519505
H51	H	0.922773	-0.514810	-0.067586
H52	H	1.380884	-0.532808	0.374203
H53	H	1.224697	-0.690109	-0.158805
H54	H	0.964418	-0.832010	0.151586
H55	H	0.716970	-0.036361	-0.169592
H56	H	1.005402	-0.619099	0.102674
H57	H	1.002682	-0.324745	0.488768
H58	H	0.793741	-0.668904	-0.029592
H59	H	1.007639	-0.326344	0.251463
H60	H	1.418971	-0.376750	0.344673
H61	H	0.619579	-0.720447	-0.013395
H62	H	0.503627	-0.291150	-0.106735
H63	H	1.080113	-1.169539	0.013664
H64	H	1.407485	-0.370386	0.549168
H65	H	0.587943	-0.190435	-0.131581
H66	H	0.903957	-0.096940	-0.160936
H67	H	1.282969	-0.782876	-0.228278
H68	H	0.990949	-1.027574	0.119946
H69	H	0.432574	-0.659886	-0.022058
H70	H	1.384685	-0.531399	0.582305
H71	H	1.372112	-0.924835	-0.334556
H72	H	1.331110	-1.137725	-0.285642
