data_functionalizedCrystal
_audit_creation_method	'MofGen! by Chris Wilmer'
_symmetry_space_group_name_H-M	'P1'
_symmetry_Int_Tables_number	1
_symmetry_cell_setting	triclinic
loop_
_symmetry_equiv_pos_as_xyz
  x,y,z
_cell_length_a	17.077404
_cell_length_b	29.839131
_cell_length_c	17.077396
_cell_angle_alpha	89.967252
_cell_angle_beta	89.982756
_cell_angle_gamma	90.041645
loop_
_atom_site_label
_atom_site_type_symbol
_atom_site_fract_x
_atom_site_fract_y
_atom_site_fract_z
Zn1	Zn	1.199936	-0.178847	-0.443824
Zn2	Zn	1.699936	0.321153	0.056176
Zn3	Zn	1.199806	-0.253979	-0.312550
Zn4	Zn	1.699806	0.246021	0.187450
Zn5	Zn	1.068673	-0.178864	-0.312572
Zn6	Zn	1.568673	0.321136	0.187428
Zn7	Zn	1.068593	-0.253951	-0.443774
Zn8	Zn	1.568593	0.246049	0.056226
O9	O	1.134252	-0.216410	-0.378180
O10	O	1.634252	0.283590	0.121820
O11	O	1.309766	-0.188818	-0.426422
O12	O	1.809766	0.311182	0.073578
O13	O	1.182390	-0.244033	-0.202706
O14	O	1.682390	0.255967	0.297294
O15	O	1.086173	-0.115994	-0.330013
O16	O	1.586173	0.384006	0.169987
O17	O	1.309670	-0.244017	-0.329976
O18	O	1.809670	0.255983	0.170024
O19	O	1.182612	-0.115982	-0.426443
O20	O	1.682612	0.384018	0.073557
O21	O	1.086047	-0.188847	-0.202722
O22	O	1.586047	0.311153	0.297278
O23	O	0.958816	-0.188820	-0.329964
O24	O	1.458816	0.311180	0.170036
O25	O	1.086037	-0.243970	-0.553627
O26	O	1.586037	0.256030	-0.053627
O27	O	0.958757	-0.243986	-0.426358
O28	O	1.458757	0.256014	0.073642
O29	O	1.182534	-0.188791	-0.553664
O30	O	1.682534	0.311209	-0.053664
O31	O	1.182312	-0.316842	-0.329927
O32	O	1.682312	0.183158	0.170073
O33	O	1.085911	-0.316822	-0.426336
O34	O	1.585911	0.183178	0.073664
C35	C	0.930304	-0.216402	-0.378158
C36	C	1.430304	0.283598	0.121842
C37	C	0.843054	-0.216409	-0.378168
C38	C	1.343054	0.283591	0.121832
C39	C	0.802054	-0.245178	-0.428279
C40	C	1.302054	0.254822	0.071721
C41	C	0.720074	-0.245179	-0.428292
C42	C	1.220074	0.254821	0.071708
C43	C	0.679095	-0.216413	-0.378188
C44	C	1.179095	0.283587	0.121812
C45	C	0.720101	-0.187642	-0.328074
C46	C	1.220101	0.312358	0.171926
C47	C	0.802080	-0.187639	-0.328066
C48	C	1.302080	0.312361	0.171934
C49	C	0.549231	-0.187650	-0.328093
C50	C	1.049231	0.312350	0.171907
C51	C	0.467246	-0.187654	-0.328100
C52	C	0.967246	0.312346	0.171900
C53	C	0.467225	-0.245190	-0.428319
C54	C	0.967225	0.254810	0.071681
C55	C	0.549204	-0.245188	-0.428311
C56	C	1.049204	0.254812	0.071689
C57	C	0.590204	-0.216416	-0.378196
C58	C	1.090204	0.283584	0.121804
C59	C	1.134110	-0.333133	-0.378141
C60	C	1.634110	0.166867	0.121859
C61	C	1.134122	-0.383067	-0.378151
C62	C	1.634122	0.116933	0.121849
C63	C	1.184539	-0.692708	-0.328053
C64	C	1.684539	-0.192708	0.171947
C65	C	1.184636	-0.880381	-0.328083
C66	C	1.684636	-0.380381	0.171917
O67	O	1.227391	-0.904645	-0.285459
O68	O	1.727391	-0.404645	0.214541
N69	N	1.134415	-0.903852	-0.378239
N70	N	1.634415	-0.403852	0.121761
C71	C	1.084169	-0.880402	-0.428394
C72	C	1.584169	-0.380402	0.071606
O73	O	1.041461	-0.904671	-0.471061
O74	O	1.541461	-0.404671	0.028939
C75	C	1.084077	-0.692729	-0.428367
C76	C	1.584077	-0.192729	0.071633
C77	C	1.134296	-0.669261	-0.378203
C78	C	1.634296	-0.169261	0.121797
C79	C	1.234755	-0.669240	-0.277893
C80	C	1.734755	-0.169240	0.222107
C81	C	1.234727	-0.622325	-0.277883
C82	C	1.734727	-0.122325	0.222117
C83	C	1.184484	-0.598878	-0.328033
C84	C	1.684484	-0.098878	0.171967
C85	C	1.134268	-0.622346	-0.378193
C86	C	1.634268	-0.122346	0.121807
C87	C	1.033836	-0.669280	-0.478526
C88	C	1.533836	-0.169280	0.021474
C89	C	1.033818	-0.622359	-0.478516
C90	C	1.533818	-0.122359	0.021484
C91	C	1.084038	-0.598891	-0.428352
C92	C	1.584038	-0.098891	0.071648
C93	C	1.083997	-0.551983	-0.428332
C94	C	1.583997	-0.051983	0.071668
N95	N	1.134219	-0.528513	-0.378177
N96	N	1.634219	-0.028513	0.121823
C97	C	1.184462	-0.551960	-0.328027
C98	C	1.684462	-0.051960	0.171973
C99	C	1.084220	-0.978932	-0.428404
C100	C	1.584220	-0.478932	0.071596
C101	C	1.084242	-1.025850	-0.428410
C102	C	1.584242	-0.525850	0.071590
C103	C	1.184710	-1.025827	-0.328100
C104	C	1.684710	-0.525827	0.171900
C105	C	1.184684	-0.978908	-0.328090
C106	C	1.684684	-0.478908	0.171910
C107	C	1.134442	-0.955462	-0.378248
C108	C	1.634442	-0.455462	0.121752
C109	C	1.184399	-0.453434	-0.328009
C110	C	1.684399	0.046566	0.171991
C111	C	1.184365	-0.406514	-0.328001
C112	C	1.684365	0.093486	0.171999
C113	C	1.083900	-0.406542	-0.428314
C114	C	1.583900	0.093458	0.071686
C115	C	1.083931	-0.453457	-0.428319
C116	C	1.583931	0.046543	0.071681
C117	C	1.134187	-0.476902	-0.378164
C118	C	1.634187	0.023098	0.121836
O119	O	1.041271	-0.527691	-0.470941
O120	O	1.541271	-0.027691	0.029059
O121	O	1.227176	-0.527682	-0.285378
O122	O	1.727176	-0.027682	0.214622
C123	C	1.184567	-0.739624	-0.328063
C124	C	1.684567	-0.239624	0.171937
C125	C	1.134351	-0.763092	-0.378223
C126	C	1.634351	-0.263092	0.121777
C127	C	1.084108	-0.739645	-0.428373
C128	C	1.584108	-0.239645	0.071627
C129	C	1.134373	-0.810010	-0.378229
C130	C	1.634373	-0.310010	0.121771
C131	C	1.184617	-0.833457	-0.328079
C132	C	1.684617	-0.333457	0.171921
C133	C	1.234838	-0.809987	-0.277923
C134	C	1.734838	-0.309987	0.222077
C135	C	1.234811	-0.763071	-0.277913
C136	C	1.734811	-0.263071	0.222087
C137	C	1.033887	-0.763116	-0.478529
C138	C	1.533887	-0.263116	0.021471
C139	C	1.033918	-0.810031	-0.478534
C140	C	1.533918	-0.310031	0.021466
C141	C	1.084161	-0.833478	-0.428384
C142	C	1.584161	-0.333478	0.071616
C143	C	1.338996	-0.216419	-0.378202
C144	C	1.838996	0.283581	0.121798
C145	C	1.426246	-0.216422	-0.378212
C146	C	1.926246	0.283578	0.121788
C147	C	1.134292	-0.216375	-0.582924
C148	C	1.634292	0.283625	-0.082924
C149	C	1.134308	-0.216360	-0.670174
C150	C	1.634308	0.283640	-0.170174
C151	C	1.134416	-0.099232	-0.378236
C152	C	1.634416	0.400768	0.121764
C153	C	1.134486	-0.049297	-0.378260
C154	C	1.634486	0.450703	0.121740
C155	C	1.084158	-0.187621	-0.711172
C156	C	1.584158	0.312379	-0.211172
C157	C	1.084171	-0.187611	-0.793153
C158	C	1.584171	0.312389	-0.293153
C159	C	1.134339	-0.216338	-0.834134
C160	C	1.634339	0.283662	-0.334134
C161	C	1.184491	-0.245080	-0.793130
C162	C	1.684491	0.254920	-0.293130
C163	C	1.184474	-0.245093	-0.711151
C164	C	1.684474	0.254907	-0.211151
C165	C	1.184525	-0.245052	-0.964000
C166	C	1.684525	0.254948	-0.464000
C167	C	1.184544	-0.245040	-1.045985
C168	C	1.684544	0.254960	-0.545985
C169	C	1.084222	-0.187571	-1.046002
C170	C	1.584222	0.312429	-0.546002
C171	C	1.084205	-0.187583	-0.964023
C172	C	1.584205	0.312417	-0.464023
C173	C	1.134359	-0.216325	-0.923025
C174	C	1.634359	0.283675	-0.423025
C175	C	1.134258	-0.216412	-0.174232
C176	C	1.634258	0.283588	0.325768
C177	C	1.134393	-0.216301	-0.086983
C178	C	1.634393	0.283699	0.413017
H179	H	0.835461	-0.164210	-0.287265
H180	H	1.335461	0.335790	0.212735
C181	C	0.594279	-0.276833	-0.483423
C182	C	1.094279	0.223167	0.016577
N183	N	0.628230	-0.300669	-0.524935
N184	N	1.128230	0.199331	-0.024935
H185	H	0.686729	-0.164218	-0.287283
H186	H	1.186729	0.335782	0.212717
C187	C	0.978633	-0.737330	-0.533722
C188	C	1.478633	-0.237330	-0.033722
N189	N	0.937017	-0.717910	-0.575302
N190	N	1.437017	-0.217910	-0.075302
C191	C	0.422123	-0.276837	-0.483449
C192	C	0.922123	0.223163	0.016551
N193	N	0.388149	-0.300673	-0.524971
N194	N	0.888149	0.199327	-0.024971
C195	C	1.029048	-0.155957	-1.091101
C196	C	1.529048	0.344043	-0.591101
N197	N	0.987493	-0.132146	-1.125073
N198	N	1.487493	0.367854	-0.625073
C199	C	1.239608	-0.380702	-0.272810
C200	C	1.739608	0.119298	0.227190
N201	N	1.281216	-0.361262	-0.231240
N202	N	1.781216	0.138738	0.268760
H203	H	1.225334	-0.268473	-0.826503
H204	H	1.725334	0.231527	-0.326503
H205	H	1.225325	-0.472517	-0.287169
H206	H	1.725325	0.027483	0.212831
C207	C	1.028968	-0.156019	-0.666100
C208	C	1.528968	0.343981	-0.166100
N209	N	0.987395	-0.132216	-0.632155
N210	N	1.487395	0.367784	-0.132155
H211	H	1.275622	-0.603220	-0.237037
H212	H	1.775622	-0.103220	0.262963
C213	C	0.422171	-0.156009	-0.272987
C214	C	0.922171	0.343991	0.227013
N215	N	0.388220	-0.132173	-0.231475
N216	N	0.888220	0.367827	0.268525
C217	C	1.290028	-0.695025	-0.222715
C218	C	1.790028	-0.195025	0.277285
N219	N	1.331657	-0.714442	-0.181146
N220	N	1.831657	-0.214442	0.318854
C221	C	1.239725	-0.276644	-1.091062
C222	C	1.739725	0.223356	-0.591062
N223	N	1.281287	-0.300450	-1.125015
N224	N	1.781287	0.199550	-0.625015
C225	C	0.594329	-0.156002	-0.272962
C226	C	1.094329	0.343998	0.227038
N227	N	0.628297	-0.132166	-0.231434
N228	N	1.128297	0.367834	0.268566
C229	C	1.239931	-0.953097	-0.272908
C230	C	1.739931	-0.453097	0.227092
N231	N	1.281546	-0.933659	-0.231344
N232	N	1.781546	-0.433659	0.268656
H233	H	1.043041	-0.472566	-0.469170
H234	H	1.543041	0.027434	0.030830
C235	C	1.029009	-0.155991	-0.838247
C236	C	1.529009	0.344009	-0.338247
N237	N	0.987462	-0.132172	-0.872211
N238	N	1.487462	0.367828	-0.372211
H239	H	1.225317	-0.268492	-0.677772
H240	H	1.725317	0.231508	-0.177772
H241	H	0.992938	-0.688380	-0.519372
H242	H	1.492938	-0.188380	-0.019372
C243	C	0.978547	-0.596571	-0.533696
C244	C	1.478547	-0.096571	-0.033696
N245	N	0.936915	-0.577148	-0.575256
N246	N	1.436915	-0.077148	-0.075256
C247	C	1.239983	-1.051627	-0.272939
C248	C	1.739983	-0.551627	0.227061
N249	N	1.281617	-1.071062	-0.231398
N250	N	1.781617	-0.571062	0.268602
H251	H	0.835413	-0.268603	-0.469077
H252	H	1.335413	0.231397	0.030923
H253	H	0.686695	-0.268605	-0.469097
H254	H	1.186695	0.231395	0.030903
H255	H	0.993016	-0.829135	-0.519383
H256	H	1.493016	-0.329135	-0.019383
C257	C	1.239695	-0.276671	-0.918904
C258	C	1.739695	0.223329	-0.418904
N259	N	1.281251	-0.300485	-0.884938
N260	N	1.781251	0.199515	-0.384938
H261	H	1.043341	-1.044954	-0.469252
H262	H	1.543341	-0.544954	0.030748
C263	C	1.028967	-0.953147	-0.483606
C264	C	1.528967	-0.453147	0.016394
N265	N	0.987355	-0.933728	-0.525191
N266	N	1.487355	-0.433728	-0.025191
H267	H	1.042990	-0.387444	-0.469143
H268	H	1.542990	0.112556	0.030857
C269	C	1.290106	-0.835787	-0.222757
C270	C	1.790106	-0.335787	0.277243
N271	N	1.331733	-0.855223	-0.181212
N272	N	1.831733	-0.355223	0.318788
H273	H	1.275704	-0.743967	-0.237065
H274	H	1.775704	-0.243967	0.262935
H275	H	1.043357	-0.164189	-0.930658
H276	H	1.543357	0.335811	-0.430658
