data_functionalizedCrystal
_audit_creation_method	'MofGen! by Chris Wilmer'
_symmetry_space_group_name_H-M	'P1'
_symmetry_Int_Tables_number	1
_symmetry_cell_setting	triclinic
loop_
_symmetry_equiv_pos_as_xyz
  x,y,z
_cell_length_a	19.805407
_cell_length_b	13.897447
_cell_length_c	19.805399
_cell_angle_alpha	89.976253
_cell_angle_beta	89.975799
_cell_angle_gamma	90.018777
loop_
_atom_site_label
_atom_site_type_symbol
_atom_site_fract_x
_atom_site_fract_y
_atom_site_fract_z
Zn1	Zn	1.034768	-0.384057	-0.382821
Zn2	Zn	1.034697	-0.545363	-0.269641
Zn3	Zn	0.921583	-0.384081	-0.269637
Zn4	Zn	0.921560	-0.545309	-0.382778
O5	O	0.978152	-0.464702	-0.326219
O6	O	1.129475	-0.405466	-0.367827
O7	O	1.019671	-0.524001	-0.174923
O8	O	0.936637	-0.249096	-0.284667
O9	O	1.129423	-0.523977	-0.284674
O10	O	1.019793	-0.249078	-0.367823
O11	O	0.936567	-0.405508	-0.174921
O12	O	0.826863	-0.405456	-0.284626
O13	O	0.936598	-0.523886	-0.477501
O14	O	0.826846	-0.523910	-0.367750
O15	O	1.019771	-0.405414	-0.477532
O16	O	1.019649	-0.680337	-0.284632
O17	O	0.936528	-0.680298	-0.367754
C18	C	0.802296	-0.464681	-0.326183
C19	C	0.727064	-0.464695	-0.326184
C20	C	0.265282	-0.526497	-0.369478
C21	C	0.335970	-0.526495	-0.369463
C22	C	0.371302	-0.464726	-0.326246
C23	C	0.335942	-0.402960	-0.283035
C24	C	0.265255	-0.402967	-0.283046
C25	C	0.621015	-0.402931	-0.282987
C26	C	0.691707	-0.402926	-0.282981
C27	C	0.691731	-0.526459	-0.369404
C28	C	0.621043	-0.526466	-0.369416
C29	C	0.585689	-0.464705	-0.326202
C30	C	0.509041	-0.464708	-0.326218
C31	C	0.447949	-0.464716	-0.326233
C32	C	0.978097	-0.715317	-0.326203
C33	C	0.978135	-0.822531	-0.326219
C34	C	0.978168	-0.909600	-0.326235
C35	C	0.978215	-1.018833	-0.326252
C36	C	1.154694	-0.464725	-0.326256
C37	C	1.229926	-0.464734	-0.326271
C38	C	0.978190	-0.464642	-0.502762
C39	C	0.978206	-0.464616	-0.577994
C40	C	0.978225	-0.213109	-0.326250
C41	C	0.978257	-0.105895	-0.326263
C42	C	1.021515	-0.402924	-0.613356
C43	C	1.021522	-0.402897	-0.684044
C44	C	0.978223	-0.464565	-0.719370
C45	C	0.934908	-0.526259	-0.684003
C46	C	0.934899	-0.526282	-0.613316
C47	C	0.934947	-0.526169	-0.969076
C48	C	0.934961	-0.526144	-1.039769
C49	C	1.021570	-0.402784	-1.039805
C50	C	1.021561	-0.402807	-0.969118
C51	C	0.978244	-0.464496	-0.933757
C52	C	0.978236	-0.464525	-0.857109
C53	C	0.978234	-0.464543	-0.796017
C54	C	0.978153	-0.464693	-0.150363
C55	C	0.978268	-0.464447	-0.075132
H56	H	0.364715	-0.352670	-0.247843
H57	H	0.236469	-0.352671	-0.247865
C58	C	0.887278	-0.594097	-0.722859
C59	C	0.887289	-0.594080	-0.800612
C60	C	0.839658	-0.661922	-0.839466
C61	C	0.792017	-0.729780	-0.800567
C62	C	0.792004	-0.729799	-0.722809
C63	C	0.839634	-0.661957	-0.683955
H64	H	0.922557	-0.543845	-0.829411
H65	H	0.839668	-0.661908	-0.897027
H66	H	0.756758	-0.780001	-0.829329
H67	H	0.756735	-0.780034	-0.694010
H68	H	0.839625	-0.661972	-0.626394
C69	C	1.069215	-0.334915	-1.078703
C70	C	1.116847	-0.267087	-1.039845
C71	C	1.164493	-0.199223	-1.078741
C72	C	1.164507	-0.199186	-1.156494
C73	C	1.116873	-0.267016	-1.195356
C74	C	1.069227	-0.334881	-1.156460
H75	H	1.116839	-0.267112	-0.982284
H76	H	1.199754	-0.149010	-1.049973
H77	H	1.199777	-0.148949	-1.185287
H78	H	1.116882	-0.266992	-1.252917
H79	H	1.033966	-0.385093	-1.185229
H80	H	0.899625	-0.576507	-0.584525
H81	H	0.364753	-0.576791	-0.404644
C82	C	0.226420	-0.594447	-0.417018
C83	C	0.265313	-0.662389	-0.464541
C84	C	0.226454	-0.730344	-0.512081
C85	C	0.148701	-0.730356	-0.512098
C86	C	0.109803	-0.662411	-0.464574
C87	C	0.148662	-0.594456	-0.417034
H88	H	0.322875	-0.662382	-0.464529
H89	H	0.255249	-0.780641	-0.547261
H90	H	0.119935	-0.780660	-0.547290
H91	H	0.052242	-0.662418	-0.464585
H92	H	0.119867	-0.544159	-0.381853
H93	H	0.592280	-0.576762	-0.404610
H94	H	0.720524	-0.576751	-0.404589
H95	H	0.720472	-0.352622	-0.247786
H96	H	0.592238	-0.352645	-0.247798
H97	H	1.056777	-0.352709	-0.584599
H98	H	1.056791	-0.352664	-0.712833
C99	C	1.069190	-0.334968	-0.930261
C100	C	1.063697	-0.225309	-0.939993
C101	C	1.111325	-0.157466	-0.901138
C102	C	1.164447	-0.199281	-0.852551
C103	C	1.169942	-0.308946	-0.842818
C104	C	1.122314	-0.376789	-0.881673
H105	H	1.024371	-0.194349	-0.975961
H106	H	1.107257	-0.076284	-0.908344
H107	H	1.199704	-0.149060	-0.823789
H108	H	1.209268	-0.339906	-0.806849
H109	H	1.126382	-0.457971	-0.874467
C110	C	0.887323	-0.593977	-1.078628
C111	C	0.839673	-0.661829	-1.039735
C112	C	0.792038	-0.729657	-1.078596
C113	C	0.792053	-0.729632	-1.156349
C114	C	0.839705	-0.661777	-1.195246
C115	C	0.887340	-0.593949	-1.156386
H116	H	0.839660	-0.661850	-0.982174
H117	H	0.756763	-0.779888	-1.049801
H118	H	0.756791	-0.779843	-1.185115
H119	H	0.839718	-0.661756	-1.252808
H120	H	0.922615	-0.543718	-1.185181
H121	H	0.899686	-0.576415	-0.940294
