data_functionalizedCrystal
_audit_creation_method	'MofGen! by Chris Wilmer'
_symmetry_space_group_name_H-M	'P1'
_symmetry_Int_Tables_number	1
_symmetry_cell_setting	triclinic
loop_
_symmetry_equiv_pos_as_xyz
  x,y,z
_cell_length_a	10.540535
_cell_length_b	10.540539
_cell_length_c	18.366186
_cell_angle_alpha	90.002329
_cell_angle_beta	90.003141
_cell_angle_gamma	84.524567
loop_
_atom_site_label
_atom_site_type_symbol
_atom_site_fract_x
_atom_site_fract_y
_atom_site_fract_z
O1	O	1.685893	0.178872	0.060506
O2	O	1.316479	0.195734	0.060516
O3	O	1.509614	0.002597	0.060510
O4	O	1.492758	0.372010	0.060512
O5	O	1.509593	0.002592	-0.060590
O6	O	1.316458	0.195730	-0.060583
O7	O	1.685872	0.178868	-0.060593
Zn8	Zn	1.501162	0.187298	-0.079816
Zn9	Zn	1.501189	0.187304	0.079738
O10	O	1.492737	0.372005	-0.060587
C11	C	1.269165	0.194469	-0.000032
C12	C	1.128217	0.190689	-0.000029
C13	C	1.508339	-0.044709	-0.000038
C14	C	1.504557	-0.185657	-0.000034
C15	C	1.091546	0.049675	-0.000032
C16	C	0.944946	0.045698	-0.000314
C17	C	0.918869	0.255057	-0.069056
C18	C	1.065635	0.258057	-0.069107
C19	C	1.065542	0.260114	0.068611
C20	C	0.919196	0.253593	0.069511
C21	C	1.359640	-0.369081	0.000241
C22	C	1.363474	-0.222463	-0.000031
C23	C	1.572441	-0.247318	-0.069190
C24	C	1.567626	-0.393863	-0.069248
C25	C	1.570519	-0.394375	0.068464
C26	C	1.571819	-0.247394	0.069379
C27	C	1.733185	0.180133	-0.000043
C28	C	1.874134	0.183913	-0.000042
C29	C	1.494011	0.419311	-0.000037
C30	C	1.497793	0.560259	-0.000037
N31	N	1.501152	0.187293	-0.188707
C32	C	1.586731	0.101801	-0.773260
C33	C	1.586732	0.101804	-0.697032
C34	C	1.501189	0.187293	-0.658918
C35	C	1.415661	0.272806	-0.697038
C36	C	1.415670	0.272810	-0.773265
C37	C	1.385715	0.202826	-0.538161
C38	C	1.385704	0.202814	-0.461936
C39	C	1.501160	0.187290	-0.423810
C40	C	1.616633	0.171751	-0.461920
C41	C	1.616642	0.171754	-0.538146
C42	C	1.501170	0.187299	-0.576263
C43	C	1.586691	0.101791	-0.303045
C44	C	1.586694	0.101802	-0.226815
C45	C	1.415612	0.272798	-0.226823
C46	C	1.415620	0.272793	-0.303051
C47	C	1.501158	0.187282	-0.341157
N48	N	1.501208	0.187299	0.188629
H49	H	1.133524	-0.004474	0.049452
N50	N	1.705508	-0.456914	0.069074
H51	H	1.751769	-0.427402	0.113196
H52	H	1.750884	-0.432668	0.023437
H53	H	0.915617	-0.009942	0.049147
H54	H	1.134996	-0.003571	-0.049451
H55	H	0.871512	0.356822	-0.071427
N56	N	1.261181	0.219593	-0.579278
H57	H	1.188032	0.229430	-0.543572
H58	H	1.253066	0.142407	-0.610912
H59	H	0.916485	-0.009673	-0.050079
N60	N	1.509967	-0.190921	-0.137365
H61	H	1.574777	-0.148841	-0.167128
H62	H	1.437697	-0.125489	-0.123558
H63	H	1.105797	0.210007	-0.120894
H64	H	1.345974	0.342408	-0.334083
N65	N	1.096151	0.394983	-0.073002
H66	H	1.059032	0.435415	-0.119114
H67	H	1.191646	0.397889	-0.073036
H68	H	1.656346	0.032166	-0.334072
N69	N	1.506134	-0.193153	0.137150
H70	H	1.549818	-0.233214	0.181613
H71	H	1.413979	-0.212015	0.136647
H72	H	1.656384	0.032177	-0.804284
H73	H	1.346027	0.342434	-0.804295
H74	H	0.887958	0.206242	-0.120615
H75	H	1.108010	0.216114	0.120939
H76	H	0.890602	0.201819	0.120568
N77	N	0.854253	0.387222	0.075315
H78	H	0.794438	0.404566	0.032748
H79	H	0.920599	0.450307	0.074848
N80	N	1.510049	-0.436159	0.137896
H81	H	1.558189	-0.406053	0.181156
H82	H	1.512991	-0.532199	0.138797
H83	H	1.087727	0.363866	0.069279
H84	H	1.656377	0.032180	-0.665996
H85	H	1.303917	-0.397678	0.049834
N86	N	1.261166	0.219555	-0.420835
H87	H	1.188027	0.229403	-0.456552
H88	H	1.259217	0.298094	-0.389201
H89	H	1.310058	-0.179857	0.049542
N90	N	1.286096	-0.409083	-0.065076
H91	H	1.341881	-0.472777	-0.094846
H92	H	1.259111	-0.331844	-0.095899
H93	H	1.676049	-0.224966	-0.071764
N94	N	1.708074	-0.215323	0.074912
H95	H	1.728223	-0.160076	0.032310
H96	H	1.767211	-0.296559	0.074317
N97	N	1.741176	0.155046	-0.579251
H98	H	1.814322	0.145225	-0.543538
H99	H	1.749253	0.232262	-0.610863
H100	H	1.309667	-0.180708	-0.049685
N101	N	1.501150	-0.431231	-0.137718
H102	H	1.475242	-0.352542	-0.167578
H103	H	1.422854	-0.474316	-0.124257
H104	H	1.669091	-0.441833	-0.072388
N105	N	1.741173	0.155003	-0.420812
H106	H	1.723651	0.157366	-0.366740
H107	H	1.794675	0.226091	-0.434134
N108	N	1.678949	0.009590	-0.185706
H109	H	1.733132	-0.044577	-0.221416
H110	H	1.629836	-0.046992	-0.154082
H111	H	1.345966	0.342409	-0.195791
H112	H	1.346012	0.342414	-0.666002
