data_functionalizedCrystal
_audit_creation_method	'MofGen! by Chris Wilmer'
_symmetry_space_group_name_H-M	'P1'
_symmetry_Int_Tables_number	1
_symmetry_cell_setting	triclinic
loop_
_symmetry_equiv_pos_as_xyz
  x,y,z
_cell_length_a	16.120444
_cell_length_b	12.759395
_cell_length_c	16.120379
_cell_angle_alpha	87.134182
_cell_angle_beta	89.787474
_cell_angle_gamma	87.071990
loop_
_atom_site_label
_atom_site_type_symbol
_atom_site_fract_x
_atom_site_fract_y
_atom_site_fract_z
Zn1	Zn	-0.306879	-1.555613	-0.486913
Zn2	Zn	0.193121	-1.055613	0.013087
Zn3	Zn	-0.453081	-1.554519	-0.354901
Zn4	Zn	0.046919	-1.054519	0.145099
Zn5	Zn	-0.314049	-1.388294	-0.347876
Zn6	Zn	0.185951	-0.888294	0.152124
Zn7	Zn	-0.445898	-1.370539	-0.493918
Zn8	Zn	0.054102	-0.870539	0.006082
O9	O	-0.379977	-1.467241	-0.420902
O10	O	0.120023	-0.967241	0.079098
O11	O	-0.326279	-1.702488	-0.469409
O12	O	0.173721	-1.202488	0.030591
O13	O	-0.440645	-1.539442	-0.237603
O14	O	0.059355	-1.039442	0.262397
O15	O	-0.196733	-1.418377	-0.360448
O16	O	0.303267	-0.918377	0.139552
O17	O	-0.433692	-1.701685	-0.372421
O18	O	0.066308	-1.201685	0.127579
O19	O	-0.191465	-1.541306	-0.462598
O20	O	0.308535	-1.041306	0.037402
O21	O	-0.338499	-1.417317	-0.232442
O22	O	0.161501	-0.917317	0.267558
O23	O	-0.331534	-1.238918	-0.367241
O24	O	0.168466	-0.738918	0.132759
O25	O	-0.421450	-1.388116	-0.609354
O26	O	0.078550	-0.888116	-0.109354
O27	O	-0.428403	-1.225874	-0.474537
O28	O	0.071597	-0.725874	0.025463
O29	O	-0.319314	-1.524089	-0.604208
O30	O	0.180686	-1.024089	-0.104208
O31	O	-0.568493	-1.522226	-0.379213
O32	O	-0.068493	-1.022226	0.120787
O33	O	-0.563216	-1.387056	-0.481348
O34	O	-0.063216	-0.887056	0.018652
C35	C	-0.379968	-1.194275	-0.420887
C36	C	0.120032	-0.694275	0.079113
C37	C	-0.379983	-1.077497	-0.420901
C38	C	0.120017	-0.577497	0.079099
C39	C	-0.596026	-1.452623	-0.431821
C40	C	-0.096026	-0.952623	0.068179
C41	C	-0.688451	-1.446464	-0.436521
C42	C	-0.188451	-0.946464	0.063479
C43	C	-0.368781	-1.454244	-0.637797
C44	C	0.131219	-0.954244	-0.137797
C45	C	-0.364010	-1.448706	-0.730225
C46	C	0.135990	-0.948706	-0.230225
C47	C	-0.901435	-1.499438	-0.396703
C48	C	-0.401435	-0.999438	0.103297
C49	C	-0.857667	-1.435238	-0.445109
C50	C	-0.357667	-0.935238	0.054891
C51	C	-0.763507	-1.441486	-0.440329
C52	C	-0.263507	-0.941486	0.059671
C53	C	-0.995604	-1.493192	-0.401482
C54	C	-0.495604	-0.993192	0.098518
C55	C	-0.163084	-1.481944	-0.409958
C56	C	0.336916	-0.981944	0.090042
C57	C	-0.070656	-1.488209	-0.405294
C58	C	0.429344	-0.988209	0.094706
C59	C	-0.379987	-1.741273	-0.420917
C60	C	0.120013	-1.241273	0.079083
C61	C	-0.379991	-1.858049	-0.420924
C62	C	0.120009	-1.358049	0.079076
C63	C	-0.481033	-1.063951	-0.532465
C64	C	0.018967	-0.563951	-0.032465
C65	C	-0.531564	-1.002317	-0.588250
C66	C	-0.031564	-0.502317	-0.088250
C67	C	-0.531574	-0.892594	-0.588261
C68	C	-0.031574	-0.392594	-0.088261
C69	C	-0.481045	-0.844503	-0.532482
C70	C	0.018955	-0.344503	-0.032482
C71	C	-0.430513	-0.906138	-0.476698
C72	C	0.069487	-0.406138	0.023302
C73	C	-0.430511	-1.015862	-0.476691
C74	C	0.069489	-0.515862	0.023309
C75	C	-0.329460	-0.919683	-0.365139
C76	C	0.170540	-0.419683	0.134861
C77	C	-0.329453	-1.029406	-0.365123
C78	C	0.170547	-0.529406	0.134877
C79	C	-0.278930	-0.871593	-0.309361
C80	C	0.221070	-0.371593	0.190639
C81	C	-0.228402	-0.933227	-0.253571
C82	C	0.271598	-0.433227	0.246429
C83	C	-0.228395	-1.042956	-0.253562
C84	C	0.271605	-0.542956	0.246438
C85	C	-0.278922	-1.091040	-0.309339
C86	C	0.221078	-0.591040	0.190661
C87	C	-0.391069	-1.480252	-0.204847
C88	C	0.108931	-0.980252	0.295153
C89	C	-0.395606	-1.486010	-0.112408
C90	C	0.104394	-0.986010	0.387592
C91	C	-0.403889	-1.496537	0.056839
C92	C	0.096111	-0.996537	0.556839
C93	C	-0.355730	-1.438182	0.100533
C94	C	0.144270	-0.938182	0.600533
C95	C	-0.360338	-1.444039	0.194708
C96	C	0.139662	-0.944039	0.694708
C97	C	-0.399281	-1.490681	-0.037344
C98	C	0.100719	-0.990681	0.462656
H99	H	-0.890914	-1.375581	-0.490140
H100	H	-0.390914	-0.875581	0.009860
H101	H	-0.868192	-1.559090	-0.351674
H102	H	-0.368192	-1.059090	0.148326
H103	H	-0.278938	-0.782250	-0.309377
H104	H	0.221062	-0.282250	0.190623
H105	H	-0.572717	-0.842411	-0.633689
H106	H	-0.072717	-0.342411	-0.133689
H107	H	-0.481049	-0.755161	-0.532503
H108	H	0.018951	-0.255161	-0.032503
H109	H	-0.481037	-1.153292	-0.532456
H110	H	0.018963	-0.653292	-0.032456
H111	H	-0.187240	-1.093133	-0.208141
H112	H	0.312760	-0.593133	0.291859
F113	F	-0.297315	-1.367129	0.056982
F114	F	0.202685	-0.867129	0.556982
F115	F	-0.462301	-1.567582	0.100389
F116	F	0.037699	-1.067582	0.600389
F117	F	-0.278923	-1.207817	-0.309330
F118	F	0.221077	-0.707817	0.190670
F119	F	-0.585343	-1.053505	-0.647606
F120	F	-0.085343	-0.553505	-0.147606
H121	H	-0.187261	-0.894063	-0.208165
H122	H	0.312739	-0.394063	0.291835
