data_functionalizedCrystal
_audit_creation_method	'MofGen! by Chris Wilmer'
_symmetry_space_group_name_H-M	'P1'
_symmetry_Int_Tables_number	1
_symmetry_cell_setting	triclinic
loop_
_symmetry_equiv_pos_as_xyz
  x,y,z
_cell_length_a	16.120530
_cell_length_b	16.625546
_cell_length_c	16.120297
_cell_angle_alpha	92.870382
_cell_angle_beta	90.128140
_cell_angle_gamma	87.117901
loop_
_atom_site_label
_atom_site_type_symbol
_atom_site_fract_x
_atom_site_fract_y
_atom_site_fract_z
Zn1	Zn	1.247449	-0.408498	-0.534548
Zn2	Zn	1.497449	-0.158498	-0.284548
Zn3	Zn	1.747449	0.091502	-0.034548
Zn4	Zn	1.997449	0.341502	0.215452
Zn5	Zn	1.254402	-0.536856	-0.395486
Zn6	Zn	1.504402	-0.286856	-0.145486
Zn7	Zn	1.754402	-0.036856	0.104514
Zn8	Zn	2.004402	0.213144	0.354514
Zn9	Zn	1.115439	-0.394873	-0.388467
Zn10	Zn	1.365439	-0.144873	-0.138467
Zn11	Zn	1.615439	0.105127	0.111533
Zn12	Zn	1.865439	0.355127	0.361533
Zn13	Zn	1.108359	-0.536114	-0.527455
Zn14	Zn	1.358359	-0.286114	-0.277455
Zn15	Zn	1.608359	-0.036114	-0.027455
Zn16	Zn	1.858359	0.213886	0.222545
O17	O	1.181412	-0.469085	-0.461489
O18	O	1.431412	-0.219085	-0.211489
O19	O	1.681412	0.030915	0.038511
O20	O	1.931412	0.280915	0.288511
O21	O	1.364738	-0.431538	-0.522007
O22	O	1.614738	-0.181538	-0.272007
O23	O	1.864738	0.068462	-0.022007
O24	O	2.114738	0.318462	0.227993
O25	O	1.241841	-0.512630	-0.278189
O26	O	1.491841	-0.262630	-0.028189
O27	O	1.741841	-0.012630	0.221811
O28	O	1.991841	0.237370	0.471811
O29	O	1.133003	-0.283852	-0.407876
O30	O	1.383003	-0.033852	-0.157876
O31	O	1.633003	0.216148	0.092124
O32	O	1.883003	0.466148	0.342124
O33	O	1.369846	-0.525842	-0.419839
O34	O	1.619846	-0.275842	-0.169839
O35	O	1.869846	-0.025842	0.080161
O36	O	2.119846	0.224158	0.330161
O37	O	1.229990	-0.293862	-0.515202
O38	O	1.479990	-0.043862	-0.265202
O39	O	1.729990	0.206138	-0.015202
O40	O	1.979990	0.456138	0.234798
O41	O	1.139746	-0.408316	-0.273033
O42	O	1.389746	-0.158316	-0.023033
O43	O	1.639746	0.091684	0.226967
O44	O	1.889746	0.341684	0.476967
O45	O	0.998133	-0.407596	-0.400998
O46	O	1.248133	-0.157596	-0.150998
O47	O	1.498133	0.092404	0.099002
O48	O	1.748133	0.342404	0.349002
O49	O	1.120936	-0.524577	-0.644761
O50	O	1.370936	-0.274577	-0.394761
O51	O	1.620936	-0.024577	-0.144761
O52	O	1.870936	0.225423	0.105239
O53	O	0.992931	-0.511365	-0.503112
O54	O	1.242931	-0.261365	-0.253112
O55	O	1.492931	-0.011365	-0.003112
O56	O	1.742931	0.238635	0.246888
O57	O	1.223125	-0.430818	-0.649973
O58	O	1.473125	-0.180818	-0.399973
O59	O	1.723125	0.069182	-0.149973
O60	O	1.973125	0.319182	0.100027
O61	O	1.234976	-0.649586	-0.412960
O62	O	1.484976	-0.399586	-0.162960
O63	O	1.734976	-0.149586	0.087040
O64	O	1.984976	0.100414	0.337040
O65	O	1.127678	-0.649041	-0.509918
O66	O	1.377678	-0.399041	-0.259918
O67	O	1.627678	-0.149041	-0.009918
O68	O	1.877678	0.100959	0.240082
C69	C	1.181335	-0.678570	-0.461450
C70	C	1.431335	-0.428570	-0.211450
C71	C	1.681335	-0.178570	0.038550
C72	C	1.931335	0.071430	0.288550
C73	C	1.181377	-0.768194	-0.461465
C74	C	1.431377	-0.518194	-0.211465
C75	C	1.681377	-0.268194	0.038535
C76	C	1.931377	-0.018194	0.288535
C77	C	0.965360	-0.457922	-0.450524
C78	C	1.215360	-0.207922	-0.200524
C79	C	1.465360	0.042078	0.049476
C80	C	1.715360	0.292078	0.299476
C81	C	0.872931	-0.453167	-0.445853
C82	C	1.122931	-0.203167	-0.195853
C83	C	1.372931	0.046833	0.054147
C84	C	1.622931	0.296833	0.304147
C85	C	1.181518	-1.096381	-0.461559
C86	C	1.431518	-0.846381	-0.211559
C87	C	1.681518	-0.596381	0.038441
C88	C	1.931518	-0.346381	0.288441
C89	C	1.181476	-1.005070	-0.461535
C90	C	1.431476	-0.755070	-0.211535
C91	C	1.681476	-0.505070	0.038465
C92	C	1.931476	-0.255070	0.288465
C93	C	1.181447	-0.932291	-0.461512
C94	C	1.431447	-0.682291	-0.211512
C95	C	1.681447	-0.432291	0.038488
C96	C	1.931447	-0.182291	0.288488
C97	C	1.181406	-0.840973	-0.461489
C98	C	1.431406	-0.590973	-0.211489
C99	C	1.681406	-0.340973	0.038511
C100	C	1.931406	-0.090973	0.288511
C101	C	0.703701	-0.444466	-0.437332
C102	C	0.953701	-0.194466	-0.187332
C103	C	1.203701	0.055534	0.062668
C104	C	1.453701	0.305534	0.312668
C105	C	0.659961	-0.493767	-0.485707
C106	C	0.909961	-0.243767	-0.235707
C107	C	1.159961	0.006233	0.014293
C108	C	1.409961	0.256233	0.264293
C109	C	0.565795	-0.488926	-0.480965
C110	C	0.815795	-0.238926	-0.230965
C111	C	1.065795	0.011074	0.019035
C112	C	1.315795	0.261074	0.269035
C113	C	0.797875	-0.449306	-0.442072
C114	C	1.047875	-0.199306	-0.192072
C115	C	1.297875	0.050694	0.057928
C116	C	1.547875	0.300694	0.307928
C117	C	1.398308	-0.480293	-0.472497
C118	C	1.648308	-0.230293	-0.222497
C119	C	1.898308	0.019707	0.027503
C120	C	2.148308	0.269707	0.277503
C121	C	1.490736	-0.485069	-0.477188
C122	C	1.740736	-0.235069	-0.227188
C123	C	1.990736	0.014931	0.022812
C124	C	2.240736	0.264931	0.272812
C125	C	1.170465	-0.479134	-0.678383
C126	C	1.420465	-0.229134	-0.428383
C127	C	1.670465	0.020866	-0.178383
C128	C	1.920465	0.270866	0.071617
C129	C	1.165800	-0.483417	-0.770810
C130	C	1.415800	-0.233417	-0.520810
C131	C	1.665800	0.016583	-0.270810
C132	C	1.915800	0.266583	-0.020810
C133	C	1.181511	-0.258784	-0.461547
C134	C	1.431511	-0.008784	-0.211547
C135	C	1.681511	0.241216	0.038453
C136	C	1.931511	0.491216	0.288453
C137	C	1.181553	-0.169166	-0.461572
C138	C	1.431553	0.080834	-0.211572
C139	C	1.681553	0.330834	0.038428
C140	C	1.931553	0.580834	0.288428
C141	C	1.157253	-0.491215	-0.940034
C142	C	1.407253	-0.241215	-0.690034
C143	C	1.657253	0.008785	-0.440034
C144	C	1.907253	0.258785	-0.190034
C145	C	1.205735	-0.446722	-0.983804
C146	C	1.455735	-0.196722	-0.733804
C147	C	1.705735	0.053278	-0.483804
C148	C	1.955735	0.303278	-0.233804
C149	C	1.200979	-0.451061	-1.077966
C150	C	1.450979	-0.201061	-0.827966
C151	C	1.700979	0.048939	-0.577966
C152	C	1.950979	0.298939	-0.327966
C153	C	1.162007	-0.486877	-0.845863
C154	C	1.412007	-0.236877	-0.595863
C155	C	1.662007	0.013123	-0.345863
C156	C	1.912007	0.263123	-0.095863
C157	C	1.192364	-0.459020	-0.245441
C158	C	1.442364	-0.209020	0.004559
C159	C	1.692364	0.040980	0.254559
C160	C	1.942364	0.290980	0.504559
C161	C	1.197190	-0.454518	-0.153023
C162	C	1.447190	-0.204518	0.096977
C163	C	1.697190	0.045482	0.346977
C164	C	1.947190	0.295482	0.596977
H165	H	0.693234	-0.539609	-0.530683
H166	H	0.943234	-0.289609	-0.280683
H167	H	1.193234	-0.039609	-0.030683
H168	H	1.443234	0.210391	0.219317
O169	O	1.103552	-0.540533	-0.979821
O170	O	1.353552	-0.290533	-0.729821
O171	O	1.603552	-0.040533	-0.479821
O172	O	1.853552	0.209467	-0.229821
C173	C	1.110696	-0.533929	-1.066341
C174	C	1.360696	-0.283929	-0.816341
C175	C	1.610696	-0.033929	-0.566341
C176	C	1.860696	0.216071	-0.316341
H177	H	1.174299	-0.511363	-1.081364
H178	H	1.424299	-0.261363	-0.831364
H179	H	1.674299	-0.011363	-0.581364
H180	H	1.924299	0.238637	-0.331364
H181	H	1.103399	-0.595526	-1.099132
H182	H	1.353399	-0.345526	-0.849132
H183	H	1.603399	-0.095526	-0.599132
H184	H	1.853399	0.154474	-0.349132
H185	H	1.060170	-0.489561	-1.088490
H186	H	1.310170	-0.239561	-0.838490
H187	H	1.560170	0.010439	-0.588490
H188	H	1.810170	0.260439	-0.338490
O189	O	0.664144	-0.389712	-0.383653
O190	O	0.914144	-0.139712	-0.133653
O191	O	1.164144	0.110288	0.116347
O192	O	1.414144	0.360288	0.366347
C193	C	0.723354	-0.344836	-0.339582
C194	C	0.973354	-0.094836	-0.089582
C195	C	1.223354	0.155164	0.160418
C196	C	1.473354	0.405164	0.410418
H197	H	0.783591	-0.346785	-0.376703
H198	H	1.033591	-0.096785	-0.126703
H199	H	1.283591	0.153215	0.123297
H200	H	1.533591	0.403215	0.373297
H201	H	0.698632	-0.279624	-0.329579
H202	H	0.948632	-0.029624	-0.079579
H203	H	1.198632	0.220376	0.170421
H204	H	1.448632	0.470376	0.420421
H205	H	0.735718	-0.371809	-0.276829
H206	H	0.985718	-0.121809	-0.026829
H207	H	1.235718	0.128191	0.223171
H208	H	1.485718	0.378191	0.473171
H209	H	1.250814	-0.405370	-0.950558
H210	H	1.500814	-0.155370	-0.700558
H211	H	1.750814	0.094630	-0.450558
H212	H	2.000814	0.344630	-0.200558
