data_functionalizedCrystal
_audit_creation_method	'MofGen! by Chris Wilmer'
_symmetry_space_group_name_H-M	'P1'
_symmetry_Int_Tables_number	1
_symmetry_cell_setting	triclinic
loop_
_symmetry_equiv_pos_as_xyz
  x,y,z
_cell_length_a	16.959455
_cell_length_b	21.295417
_cell_length_c	16.959447
_cell_angle_alpha	89.968373
_cell_angle_beta	89.982507
_cell_angle_gamma	90.027454
loop_
_atom_site_label
_atom_site_type_symbol
_atom_site_fract_x
_atom_site_fract_y
_atom_site_fract_z
Zn1	Zn	1.208351	-0.250670	-0.446882
Zn2	Zn	1.208242	-0.355940	-0.314692
Zn3	Zn	1.076172	-0.250683	-0.314719
Zn4	Zn	1.076120	-0.355900	-0.446831
O5	O	1.142221	-0.303298	-0.380781
O6	O	1.318948	-0.264646	-0.429357
O7	O	1.190699	-0.342000	-0.204085
O8	O	1.093773	-0.162592	-0.332284
O9	O	1.318868	-0.341988	-0.332237
O10	O	1.190885	-0.162583	-0.429383
O11	O	1.093668	-0.264668	-0.204105
O12	O	0.965555	-0.264629	-0.332234
O13	O	1.093685	-0.341918	-0.557448
O14	O	0.965516	-0.341931	-0.429296
O15	O	1.190834	-0.264607	-0.557486
O16	O	1.190649	-0.444024	-0.332188
O17	O	1.093579	-0.443995	-0.429269
C18	C	0.936855	-0.303278	-0.380763
C19	C	0.848999	-0.303284	-0.380774
C20	C	0.477519	-0.263014	-0.330347
C21	C	0.477528	-0.343634	-0.431261
C22	C	0.560073	-0.343625	-0.431256
C23	C	0.601346	-0.303311	-0.380795
C24	C	0.560072	-0.263005	-0.330339
C25	C	0.601353	-0.383935	-0.481705
C26	C	0.683904	-0.383928	-0.481702
C27	C	0.725178	-0.343610	-0.431244
C28	C	0.683899	-0.303302	-0.380787
C29	C	0.725172	-0.262987	-0.330326
C30	C	0.683894	-0.222676	-0.279871
C31	C	0.601346	-0.222687	-0.279881
C32	C	0.807726	-0.343599	-0.431235
C33	C	0.807725	-0.262978	-0.330318
C34	C	1.142118	-0.466850	-0.380737
C35	C	1.142146	-0.536818	-0.380745
C36	C	1.192735	-0.569679	-0.330246
C37	C	1.192772	-0.635422	-0.330264
C38	C	1.142206	-0.668301	-0.380772
C39	C	1.091613	-0.635432	-0.431281
C40	C	1.091583	-0.569690	-0.431267
N41	N	1.073059	-0.771564	-0.386792
N42	N	1.073090	-0.834015	-0.386800
C43	C	1.142294	-0.866375	-0.380818
N44	N	1.211468	-0.833925	-0.374811
N45	N	1.211437	-0.771468	-0.374798
C46	C	1.142233	-0.739586	-0.380793
C47	C	1.192928	-0.970522	-0.330335
C48	C	1.192966	-1.036266	-0.330359
C49	C	1.091801	-1.036274	-0.431371
C50	C	1.091769	-0.970532	-0.431352
C51	C	1.142332	-0.937660	-0.380830
C52	C	1.348390	-0.303320	-0.380800
C53	C	1.436246	-0.303329	-0.380808
C54	C	1.142266	-0.303257	-0.586949
C55	C	1.142285	-0.303239	-0.674806
C56	C	1.142347	-0.139108	-0.380842
C57	C	1.142401	-0.069140	-0.380868
C58	C	1.091713	-0.343484	-0.716062
C59	C	1.192869	-0.262973	-0.716104
C60	C	1.192886	-0.262952	-0.798650
C61	C	1.142314	-0.303197	-0.839906
C62	C	1.091726	-0.343463	-0.798616
C63	C	1.243467	-0.222683	-0.839946
C64	C	1.243485	-0.222660	-0.922497
C65	C	1.192917	-0.262909	-0.963754
C66	C	1.142328	-0.303177	-0.922459
C67	C	1.091756	-0.343422	-0.963715
C68	C	1.041170	-0.383693	-0.922421
C69	C	1.041158	-0.383712	-0.839873
C70	C	1.192929	-0.262890	-1.046303
C71	C	1.091769	-0.343401	-1.046269
C72	C	1.142223	-0.303295	-0.175415
C73	C	1.142357	-0.303135	-0.087559
H74	H	0.567731	-0.189869	-0.238803
C75	C	1.036133	-0.934383	-0.486921
N76	N	0.994233	-0.907156	-0.528788
H77	H	0.717509	-0.189855	-0.238783
C78	C	1.248422	-0.671577	-0.274705
N79	N	1.290336	-0.698806	-0.232856
C80	C	1.035988	-0.671599	-0.486837
N81	N	0.994089	-0.698841	-0.528684
C82	C	0.729301	-0.428268	-0.537205
N83	N	0.763495	-0.461665	-0.579012
C84	C	0.555949	-0.428279	-0.537206
N85	N	0.521747	-0.461680	-0.579013
C86	C	0.853118	-0.218628	-0.274805
N87	N	0.887307	-0.185224	-0.232992
C88	C	0.985512	-0.428000	-0.794444
N89	N	0.943595	-0.461355	-0.760224
H90	H	1.050387	-0.542934	-0.472390
H91	H	1.050590	-0.376176	-1.079853
H92	H	1.234102	-0.943757	-0.289200
H93	H	0.999991	-0.416457	-0.956023
H94	H	1.234167	-1.063020	-0.289238
C95	C	1.036069	-0.387778	-0.670639
N96	N	0.994156	-0.421140	-0.636425
H97	H	1.050632	-1.063043	-0.472499
H98	H	1.234039	-0.230205	-0.682508
C99	C	1.248569	-0.218594	-1.091722
N100	N	1.290483	-0.185230	-1.125931
H101	H	0.443919	-0.376460	-0.472339
C102	C	0.432114	-0.218673	-0.274850
N103	N	0.397914	-0.185276	-0.233049
H104	H	0.841331	-0.376421	-0.472312
H105	H	1.233908	-0.542917	-0.289110
C106	C	1.299086	-0.178412	-0.794560
N107	N	1.340980	-0.145066	-0.760371
C108	C	1.299135	-0.178365	-0.967912
N109	N	1.341054	-0.145004	-1.002120
