data_functionalizedCrystal
_audit_creation_method	'MofGen! by Chris Wilmer'
_symmetry_space_group_name_H-M	'P1'
_symmetry_Int_Tables_number	1
_symmetry_cell_setting	triclinic
loop_
_symmetry_equiv_pos_as_xyz
  x,y,z
_cell_length_a	11.169417
_cell_length_b	29.839131
_cell_length_c	29.839125
_cell_angle_alpha	90.017709
_cell_angle_beta	90.008906
_cell_angle_gamma	90.042299
loop_
_atom_site_label
_atom_site_type_symbol
_atom_site_fract_x
_atom_site_fract_y
_atom_site_fract_z
Zn1	Zn	1.834574	-0.178906	0.253968
Zn2	Zn	2.334574	0.321094	0.753968
Zn3	Zn	1.834392	-0.254018	0.178838
Zn4	Zn	2.334392	0.245982	0.678838
Zn5	Zn	1.633898	-0.178904	0.178855
Zn6	Zn	2.133898	0.321096	0.678855
Zn7	Zn	1.633758	-0.254011	0.253944
Zn8	Zn	2.133758	0.245989	0.753944
O9	O	1.734156	-0.216460	0.216401
O10	O	2.234156	0.283540	0.716401
O11	O	2.002499	-0.188873	0.244005
O12	O	2.502499	0.311127	0.744005
O13	O	1.807779	-0.244056	0.115973
O14	O	2.307779	0.255944	0.615973
O15	O	1.660652	-0.116037	0.188836
O16	O	2.160652	0.383963	0.688836
O17	O	2.002366	-0.244058	0.188808
O18	O	2.502366	0.255942	0.688808
O19	O	1.808088	-0.116038	0.244022
O20	O	2.308088	0.383962	0.744022
O21	O	1.660476	-0.188870	0.115986
O22	O	2.160476	0.311130	0.615986
O23	O	1.465930	-0.188863	0.188812
O24	O	1.965930	0.311137	0.688812
O25	O	1.660414	-0.244046	0.316814
O26	O	2.160414	0.255954	0.816814
O27	O	1.465827	-0.244044	0.243980
O28	O	1.965827	0.255956	0.743980
O29	O	1.807952	-0.188866	0.316832
O30	O	2.307952	0.311134	0.816832
O31	O	1.807644	-0.316884	0.188784
O32	O	2.307644	0.183116	0.688784
O33	O	1.660239	-0.316879	0.243964
O34	O	2.160239	0.183121	0.743964
C35	C	1.422331	-0.216453	0.216396
C36	C	1.922331	0.283547	0.716396
C37	C	1.288931	-0.216461	0.216404
C38	C	1.788931	0.283539	0.716404
C39	C	1.733939	-0.333182	0.216379
C40	C	2.233939	0.166818	0.716379
C41	C	1.733956	-0.383117	0.216385
C42	C	2.233956	0.116883	0.716385
C43	C	1.811049	-0.692750	0.187711
C44	C	2.311049	-0.192750	0.687711
C45	C	1.811197	-0.880423	0.187729
C46	C	2.311197	-0.380423	0.687729
O47	O	1.876572	-0.904679	0.163332
O48	O	2.376572	-0.404679	0.663332
N49	N	1.734404	-0.903902	0.216435
N50	N	2.234404	-0.403902	0.716435
C51	C	1.657575	-0.880459	0.245142
C52	C	2.157575	-0.380459	0.745142
O53	O	1.592270	-0.904735	0.269562
O54	O	2.092270	-0.404735	0.769562
C55	C	1.657434	-0.692787	0.245126
C56	C	2.157434	-0.192787	0.745126
C57	C	1.734223	-0.669311	0.216414
C58	C	2.234223	-0.169311	0.716414
C59	C	1.887833	-0.669274	0.159002
C60	C	2.387833	-0.169274	0.659002
C61	C	1.887790	-0.622358	0.158997
C62	C	2.387790	-0.122358	0.658997
C63	C	1.810964	-0.598919	0.187700
C64	C	2.310964	-0.098919	0.687700
C65	C	1.734180	-0.622395	0.216409
C66	C	2.234180	-0.122395	0.716409
C67	C	1.580611	-0.669345	0.273834
C68	C	2.080611	-0.169345	0.773834
C69	C	1.580585	-0.622424	0.273829
C70	C	2.080585	-0.122424	0.773829
C71	C	1.657374	-0.598948	0.245117
C72	C	2.157374	-0.098948	0.745117
C73	C	1.657312	-0.552040	0.245106
C74	C	2.157312	-0.052040	0.745106
N75	N	1.734104	-0.528562	0.216399
N76	N	2.234104	-0.028562	0.716399
C77	C	1.810931	-0.552001	0.187696
C78	C	2.310931	-0.052001	0.687696
C79	C	1.657653	-0.978990	0.245147
C80	C	2.157653	-0.478990	0.745147
C81	C	1.657686	-1.025907	0.245150
C82	C	2.157686	-0.525907	0.745150
C83	C	1.811310	-1.025868	0.187738
C84	C	2.311310	-0.525868	0.687738
C85	C	1.811270	-0.978950	0.187733
C86	C	2.311270	-0.478950	0.687733
C87	C	1.734445	-0.955511	0.216441
C88	C	2.234445	-0.455511	0.716441
C89	C	1.810835	-0.453475	0.187686
C90	C	2.310835	0.046525	0.687686
C91	C	1.810782	-0.406556	0.187681
C92	C	2.310782	0.093444	0.687681
C93	C	1.657163	-0.406599	0.245095
C94	C	2.157163	0.093401	0.745095
C95	C	1.657211	-0.453515	0.245098
C96	C	2.157211	0.046485	0.745098
C97	C	1.734056	-0.476952	0.216392
C98	C	2.234056	0.023048	0.716392
O99	O	1.591980	-0.527755	0.269493
O100	O	2.091980	-0.027755	0.769493
O101	O	1.876244	-0.527717	0.163287
O102	O	2.376244	-0.027717	0.663287
C103	C	1.811091	-0.739665	0.187717
C104	C	2.311091	-0.239665	0.687717
C105	C	1.734308	-0.763142	0.216426
C106	C	2.234308	-0.263142	0.716426
C107	C	1.657481	-0.739702	0.245129
C108	C	2.157481	-0.239702	0.745129
C109	C	1.734341	-0.810059	0.216429
C110	C	2.234341	-0.310059	0.716429
C111	C	1.811167	-0.833499	0.187726
C112	C	2.311167	-0.333499	0.687726
C113	C	1.887960	-0.810020	0.159020
C114	C	2.387960	-0.310020	0.659020
C115	C	1.887918	-0.763105	0.159014
C116	C	2.387918	-0.263105	0.659014
C117	C	1.580689	-0.763181	0.273836
C118	C	2.080689	-0.263181	0.773836
C119	C	1.580736	-0.810096	0.273839
C120	C	2.080736	-0.310096	0.773839
C121	C	1.657563	-0.833536	0.245136
C122	C	2.157563	-0.333536	0.745136
C123	C	2.047198	-0.216467	0.216407
C124	C	2.547198	0.283533	0.716407
C125	C	2.180598	-0.216470	0.216410
C126	C	2.680598	0.283530	0.716410
C127	C	1.734188	-0.216455	0.333580
C128	C	2.234188	0.283545	0.833580
C129	C	1.734202	-0.216454	0.383514
C130	C	2.234202	0.283546	0.883514
C131	C	1.734406	-0.099281	0.216434
C132	C	2.234406	0.400719	0.716434
C133	C	1.734512	-0.049347	0.216447
C134	C	2.234512	0.450653	0.716447
C135	C	1.734192	-0.216431	0.099679
C136	C	2.234192	0.283569	0.599679
C137	C	1.734411	-0.216306	0.049745
C138	C	2.234411	0.283694	0.549745
C139	C	1.811106	-0.187647	0.693170
C140	C	2.311106	0.312353	1.193170
C141	C	1.811165	-0.187608	0.880843
C142	C	2.311165	0.312392	1.380843
O143	O	1.876463	-0.163158	0.905119
O144	O	2.376463	0.336842	1.405119
N145	N	1.734361	-0.216333	0.904300
N146	N	2.234361	0.283667	1.404300
C147	C	1.657531	-0.245068	0.880835
C148	C	2.157531	0.254932	1.380835
O149	O	1.592197	-0.269496	0.905092
O150	O	2.092197	0.230504	1.405092
C151	C	1.657466	-0.245104	0.693162
C152	C	2.157466	0.254896	1.193162
C153	C	1.734284	-0.216380	0.669709
C154	C	2.234284	0.283620	1.169709
C155	C	1.887917	-0.158925	0.669716
C156	C	2.387917	0.341075	1.169716
C157	C	1.887906	-0.158937	0.622801
C158	C	2.387906	0.341063	1.122801
C159	C	1.811084	-0.187670	0.599339
C160	C	2.311084	0.312330	1.099339
C161	C	1.734273	-0.216392	0.622793
C162	C	2.234273	0.283608	1.122793
C163	C	1.580631	-0.273836	0.669698
C164	C	2.080631	0.226164	1.169698
C165	C	1.580619	-0.273841	0.622777
C166	C	2.080619	0.226159	1.122777
C167	C	1.657437	-0.245118	0.599323
C168	C	2.157437	0.254882	1.099323
C169	C	1.657440	-0.245137	0.552416
C170	C	2.157440	0.254863	1.052416
N171	N	1.734244	-0.216412	0.528960
N172	N	2.234244	0.283588	1.028960
C173	C	1.811066	-0.187678	0.552421
C174	C	2.311066	0.312322	1.052421
C175	C	1.657572	-0.245048	0.979365
C176	C	2.157572	0.254952	1.479365
C177	C	1.657589	-0.245040	1.026283
C178	C	2.157589	0.254960	1.526283
C179	C	1.811223	-0.187579	1.026289
C180	C	2.311223	0.312421	1.526289
C181	C	1.811210	-0.187590	0.979370
C182	C	2.311210	0.312410	1.479370
C183	C	1.734376	-0.216323	0.955909
C184	C	2.234376	0.283677	1.455909
C185	C	1.811038	-0.187705	0.453895
C186	C	2.311038	0.312295	0.953895
C187	C	1.811024	-0.187720	0.406976
C188	C	2.311024	0.312280	0.906976
C189	C	1.657386	-0.245179	0.406975
C190	C	2.157386	0.254821	0.906975
C191	C	1.657405	-0.245165	0.453890
C192	C	2.157405	0.254835	0.953890
C193	C	1.734234	-0.216425	0.477349
C194	C	2.234234	0.283575	0.977349
O195	O	1.592168	-0.269570	0.528112
O196	O	2.092168	0.230430	1.028112
O197	O	1.876372	-0.163247	0.528156
O198	O	2.376372	0.336753	1.028156
C199	C	1.811117	-0.187635	0.740086
C200	C	2.311117	0.312365	1.240086
C201	C	1.734306	-0.216357	0.763539
C202	C	2.234306	0.283643	1.263539
C203	C	1.657484	-0.245090	0.740078
C204	C	2.157484	0.254910	1.240078
C205	C	1.734324	-0.216349	0.810457
C206	C	2.234324	0.283651	1.310457
C207	C	1.811145	-0.187615	0.833919
C208	C	2.311145	0.312385	1.333919
C209	C	1.887950	-0.158890	0.810463
C210	C	2.387950	0.341110	1.310463
C211	C	1.887939	-0.158902	0.763547
C212	C	2.387939	0.341098	1.263547
C213	C	1.580680	-0.273815	0.763534
C214	C	2.080680	0.226185	1.263534
C215	C	1.580698	-0.273802	0.810450
C216	C	2.080698	0.226198	1.310450
C217	C	1.657520	-0.245068	0.833911
C218	C	2.157520	0.254932	1.333911
H219	H	1.873313	-0.387443	0.164299
H220	H	2.373313	0.112557	0.664299
H221	H	1.873596	-0.164300	0.472990
H222	H	2.373596	0.335700	0.972990
H223	H	1.950491	-0.135512	0.744455
H224	H	2.450491	0.364488	1.244455
H225	H	1.518146	-0.297196	0.829542
H226	H	2.018146	0.202804	1.329542
H227	H	1.873799	-0.959838	0.164354
H228	H	2.373799	-0.459838	0.664354
H229	H	1.518026	-0.603343	0.297208
H230	H	2.018026	-0.103343	0.797208
H231	H	1.950505	-0.135496	0.829573
H232	H	2.450505	0.364504	1.329573
H233	H	1.950322	-0.603247	0.135618
H234	H	2.450322	-0.103247	0.635618
H235	H	1.873413	-0.472552	0.164312
H236	H	2.373413	0.027448	0.664312
H237	H	1.595090	-0.959909	0.268525
H238	H	2.095090	-0.459909	0.768525
H239	H	1.594687	-0.472630	0.268479
H240	H	2.094687	0.027370	0.768479
H241	H	1.950511	-0.829113	0.135647
H242	H	2.450511	-0.329113	0.635647
H243	H	1.950474	-0.135524	0.688814
H244	H	2.450474	0.364476	1.188814
H245	H	1.950400	-0.688353	0.135629
H246	H	2.450400	-0.188353	0.635629
H247	H	1.518077	-0.297226	0.688786
H248	H	2.018077	0.202774	1.188786
H249	H	1.873866	-1.044960	0.164367
H250	H	2.373866	-0.544960	0.664367
H251	H	1.518123	-0.297214	0.744436
H252	H	2.018123	0.202786	1.244436
H253	H	1.595146	-1.045018	0.268526
H254	H	2.095146	-0.545018	0.768526
H255	H	1.518195	-0.829207	0.297219
H256	H	2.018195	-0.329207	0.797219
H257	H	1.518075	-0.688451	0.297212
H258	H	2.018075	-0.188451	0.797212
H259	H	1.594608	-0.387508	0.268464
H260	H	2.094608	0.112492	0.768464
H261	H	1.950447	-0.743994	0.135634
H262	H	2.450447	-0.243994	0.635634
H263	H	1.595005	-0.268448	0.960268
H264	H	2.095005	0.231552	1.460268
H265	H	1.518129	-0.744100	0.297210
H266	H	2.018129	-0.244100	0.797210
H267	H	1.873760	-0.164200	0.960277
H268	H	2.373760	0.335800	1.460277
H269	H	1.950456	-0.135546	0.603709
H270	H	2.450456	0.364454	1.103709
H271	H	1.873582	-0.164330	0.387882
H272	H	2.373582	0.335670	0.887882
H273	H	1.873775	-0.164184	1.045399
H274	H	2.373775	0.335816	1.545399
H275	H	1.595050	-0.268434	1.045375
H276	H	2.095050	0.231566	1.545375
H277	H	1.594865	-0.268559	0.472987
H278	H	2.094865	0.231441	0.972987
H279	H	1.518037	-0.297235	0.603678
H280	H	2.018037	0.202765	1.103678
H281	H	1.594844	-0.268574	0.387864
H282	H	2.094844	0.231426	0.887864
