data_functionalizedCrystal
_audit_creation_method	'MofGen! by Chris Wilmer'
_symmetry_space_group_name_H-M	'P1'
_symmetry_Int_Tables_number	1
_symmetry_cell_setting	triclinic
loop_
_symmetry_equiv_pos_as_xyz
  x,y,z
_cell_length_a	11.792254
_cell_length_b	23.532407
_cell_length_c	10.868271
_cell_angle_alpha	90.006064
_cell_angle_beta	90.004308
_cell_angle_gamma	83.523637
loop_
_atom_site_label
_atom_site_type_symbol
_atom_site_fract_x
_atom_site_fract_y
_atom_site_fract_z
O1	O	1.505062	0.078086	0.102335
O2	O	2.005062	0.578086	0.602335
O3	O	1.174534	0.086123	0.102339
O4	O	1.674534	0.586123	0.602339
O5	O	1.349765	-0.000768	0.102314
O6	O	1.849765	0.499232	0.602314
O7	O	1.329831	0.164977	0.102360
O8	O	1.829831	0.664977	0.602360
O9	O	1.349750	-0.000765	-0.102330
O10	O	1.849750	0.499235	0.397670
O11	O	1.174518	0.086126	-0.102306
O12	O	1.674518	0.586126	0.397694
O13	O	1.505047	0.078089	-0.102310
O14	O	2.005047	0.578089	0.397690
Zn15	Zn	1.339780	0.082108	-0.134799
Zn16	Zn	1.839780	0.582108	0.365201
Zn17	Zn	1.339801	0.082104	0.134829
Zn18	Zn	1.839801	0.582104	0.634829
O19	O	1.329815	0.164980	-0.102285
O20	O	1.829815	0.664980	0.397715
C21	C	1.132247	0.085618	0.000017
C22	C	1.632247	0.585618	0.500017
C23	C	1.006270	0.084103	0.000017
C24	C	1.506270	0.584103	0.500017
C25	C	0.903963	0.082872	0.000022
C26	C	1.403963	0.582872	0.500022
C27	C	0.775612	0.081332	0.000023
C28	C	1.275612	0.581332	0.500023
C29	C	1.349250	-0.021986	-0.000011
C30	C	1.849250	0.478014	0.499989
C31	C	1.347724	-0.085212	-0.000021
C32	C	1.847724	0.414788	0.499979
C33	C	1.441849	-0.483755	0.000046
C34	C	1.941849	0.016245	0.500046
C35	C	1.440432	-0.543163	0.000055
C36	C	1.940432	-0.043163	0.500055
O37	O	1.527687	-0.579389	0.000099
O38	O	2.027687	-0.079389	0.500099
N39	N	1.336257	-0.566409	0.000055
N40	N	1.836257	-0.066409	0.500055
C41	C	1.233493	-0.530243	0.000059
C42	C	1.733493	-0.030243	0.500059
O43	O	1.144754	-0.555471	0.000061
O44	O	1.644754	-0.055471	0.500061
C45	C	1.234912	-0.470836	0.000058
C46	C	1.734912	0.029164	0.500058
C47	C	1.339093	-0.447593	0.000046
C48	C	1.839093	0.052407	0.500046
C49	C	1.546023	-0.460512	0.000034
C50	C	2.046023	0.039488	0.500034
C51	C	1.547440	-0.401107	0.000022
C52	C	2.047440	0.098893	0.500022
C53	C	1.444684	-0.364946	0.000022
C54	C	1.944684	0.135054	0.500022
C55	C	1.340511	-0.388189	0.000034
C56	C	1.840511	0.111811	0.500034
C57	C	1.132149	-0.434671	0.000071
C58	C	1.632149	0.065329	0.500071
C59	C	1.133577	-0.375260	0.000071
C60	C	1.633577	0.124740	0.500071
C61	C	1.237759	-0.352017	0.000058
C62	C	1.737759	0.147983	0.500058
C63	C	1.239172	-0.292622	0.000022
C64	C	1.739172	0.207378	0.500022
N65	N	1.343347	-0.269376	0.000022
N66	N	1.843347	0.230624	0.500022
C67	C	1.446103	-0.305538	0.000022
C68	C	1.946103	0.194462	0.500022
C69	C	1.230521	-0.655003	0.000062
C70	C	1.730521	-0.155003	0.500062
C71	C	1.229101	-0.714410	0.000054
C72	C	1.729101	-0.214410	0.500054
C73	C	1.436040	-0.727326	0.000052
C74	C	1.936040	-0.227326	0.500052
C75	C	1.437459	-0.667918	0.000052
C76	C	1.937459	-0.167918	0.500052
C77	C	1.334696	-0.631757	0.000062
C78	C	1.834696	-0.131757	0.500062
C79	C	1.449071	-0.180784	-0.000004
C80	C	1.949071	0.319216	0.499996
C81	C	1.450480	-0.121373	-0.000020
C82	C	1.950480	0.378627	0.499980
C83	C	1.243541	-0.108462	-0.000012
C84	C	1.743541	0.391538	0.499988
C85	C	1.242132	-0.167867	-0.000002
C86	C	1.742132	0.332133	0.499998
C87	C	1.344907	-0.204027	0.000006
C88	C	1.844907	0.295973	0.500006
O89	O	1.151962	-0.256362	-0.000017
O90	O	1.651962	0.243638	0.499983
O91	O	1.534827	-0.280302	0.000036
O92	O	2.034827	0.219698	0.500036
C93	C	1.547333	0.078594	0.000015
C94	C	2.047333	0.578594	0.500015
C95	C	1.673311	0.080109	0.000023
C96	C	2.173311	0.580109	0.500023
C97	C	1.330331	0.186197	0.000043
C98	C	1.830331	0.686197	0.500043
C99	C	1.331857	0.249423	0.000061
C100	C	1.831857	0.749423	0.500061
N101	N	1.339774	0.082110	-0.318814
N102	N	1.839774	0.582110	0.181186
C103	C	1.339783	0.082110	-0.430151
C104	C	1.839783	0.582110	0.069849
C105	C	1.339798	0.082105	-0.569829
C106	C	1.839798	0.582105	-0.069829
N107	N	1.339816	0.082097	0.318843
N108	N	1.839816	0.582097	0.818843
H109	H	1.535320	-0.102453	-0.000034
H110	H	2.035320	0.397547	0.499966
H111	H	1.159880	-0.079009	-0.000017
H112	H	1.659880	0.420991	0.499983
H113	H	1.522293	-0.648999	0.000042
H114	H	2.022293	-0.148999	0.500042
H115	H	1.157299	-0.186792	-0.000026
H116	H	1.657299	0.313208	0.499974
Cl117	Cl	1.101319	-0.609549	0.000061
Cl118	Cl	1.601319	-0.109549	0.500061
Cl119	Cl	1.004380	-0.329803	0.000085
Cl120	Cl	1.504380	0.170197	0.500085
Cl121	Cl	1.678418	-0.371897	0.000041
Cl122	Cl	2.178418	0.128103	0.500041
Cl123	Cl	1.578276	-0.226233	0.000005
Cl124	Cl	2.078276	0.273767	0.500005
Cl125	Cl	1.675220	-0.505962	0.000032
Cl126	Cl	2.175220	-0.005962	0.500032
H127	H	1.519709	-0.756780	0.000057
H128	H	2.019709	-0.256780	0.500057
Cl129	Cl	1.001169	-0.463874	0.000095
Cl130	Cl	1.501169	0.036126	0.500095
Cl131	Cl	1.098124	-0.743621	0.000047
Cl132	Cl	1.598124	-0.243621	0.500047
