data_functionalizedCrystal
_audit_creation_method	'MofGen! by Chris Wilmer'
_symmetry_space_group_name_H-M	'P1'
_symmetry_Int_Tables_number	1
_symmetry_cell_setting	triclinic
loop_
_symmetry_equiv_pos_as_xyz
  x,y,z
_cell_length_a	12.827893
_cell_length_b	12.594516
_cell_length_c	12.827885
_cell_angle_alpha	89.971756
_cell_angle_beta	89.980538
_cell_angle_gamma	90.016023
loop_
_atom_site_label
_atom_site_type_symbol
_atom_site_fract_x
_atom_site_fract_y
_atom_site_fract_z
Zn1	Zn	1.597667	-0.423689	-0.590861
Zn2	Zn	2.097667	0.076311	-0.090861
Zn3	Zn	1.597558	-0.601706	-0.416127
Zn4	Zn	2.097558	-0.101706	0.083873
Zn5	Zn	1.422908	-0.423742	-0.416135
Zn6	Zn	1.922908	0.076258	0.083865
Zn7	Zn	1.422891	-0.601626	-0.590827
Zn8	Zn	1.922891	-0.101626	-0.090827
O9	O	1.510256	-0.512691	-0.503487
O10	O	2.010256	-0.012691	-0.003487
O11	O	1.743888	-0.447315	-0.567693
O12	O	2.243888	0.052685	-0.067693
O13	O	1.574352	-0.578154	-0.269892
O14	O	2.074352	-0.078154	0.230108
O15	O	1.446142	-0.274789	-0.439330
O16	O	1.946142	0.225211	0.060670
O17	O	1.743809	-0.578103	-0.439317
O18	O	2.243809	-0.078103	0.060683
O19	O	1.574537	-0.274751	-0.567701
O20	O	2.074537	0.225249	-0.067701
O21	O	1.446037	-0.447404	-0.269898
O22	O	1.946037	0.052596	0.230102
O23	O	1.276669	-0.447327	-0.439297
O24	O	1.776669	0.052673	0.060703
O25	O	1.446114	-0.577967	-0.737067
O26	O	1.946114	-0.077967	-0.237067
O27	O	1.276658	-0.578018	-0.567642
O28	O	1.776658	-0.078018	-0.067642
O29	O	1.574521	-0.447238	-0.737093
O30	O	2.074521	0.052762	-0.237093
O31	O	1.574336	-0.750641	-0.439283
O32	O	2.074336	-0.250641	0.060717
O33	O	1.446009	-0.750583	-0.567635
O34	O	1.946009	-0.250583	-0.067635
C35	C	1.238746	-0.512670	-0.503468
C36	C	1.738746	-0.012670	-0.003468
C37	C	1.122593	-0.512687	-0.503484
C38	C	1.622593	-0.012687	-0.003484
C39	C	1.510188	-0.789232	-0.503477
C40	C	2.010188	-0.289232	-0.003477
C41	C	1.510254	-0.907537	-0.503508
C42	C	2.010254	-0.407537	-0.003508
C43	C	1.070830	-0.577458	-0.566895
C44	C	1.570830	-0.077458	-0.066895
C45	C	0.950780	-0.577477	-0.566914
C46	C	1.450780	-0.077477	-0.066914
C47	C	1.440450	-0.976797	-0.573269
C48	C	1.940450	-0.476797	-0.073269
C49	C	1.414988	-1.047666	-0.477914
C50	C	1.914988	-0.547666	0.022086
C51	C	1.535811	-1.047467	-0.598879
C52	C	2.035811	-0.547467	-0.098879
C53	C	1.484741	-0.976848	-0.408102
C54	C	1.984741	-0.476848	0.091898
C55	C	1.605609	-0.976643	-0.529132
C56	C	2.105609	-0.476643	-0.029132
C57	C	1.580183	-1.047480	-0.433711
C58	C	2.080183	-0.547480	0.066289
C59	C	1.782826	-0.512712	-0.503508
C60	C	2.282826	-0.012712	-0.003508
C61	C	1.898979	-0.512721	-0.503517
C62	C	2.398979	-0.012721	-0.003517
C63	C	1.510328	-0.512588	-0.776058
C64	C	2.010328	-0.012588	-0.276058
C65	C	1.510359	-0.512544	-0.892211
C66	C	2.010359	-0.012544	-0.392211
C67	C	1.510353	-0.235070	-0.503521
C68	C	2.010353	0.264930	-0.003521
C69	C	1.510395	-0.116765	-0.503535
C70	C	2.010395	0.383235	-0.003535
C71	C	1.446839	-0.577207	-0.943983
C72	C	1.946839	-0.077207	-0.443983
C73	C	1.446870	-0.577163	-1.064034
C74	C	1.946870	-0.077163	-0.564034
C75	C	1.510244	-0.512717	-0.231978
C76	C	2.010244	-0.012717	0.268022
C77	C	1.510416	-0.512461	-0.115825
C78	C	2.010416	-0.012461	0.384175
H79	H	1.115391	-0.632893	-0.621174
H80	H	1.615391	-0.132893	-0.121174
H81	H	1.557371	-1.078488	-0.679523
H82	H	2.057371	-0.578488	-0.179523
H83	H	1.463088	-0.945955	-0.327436
H84	H	1.963088	-0.445955	0.172564
Br85	Br	1.280685	-1.099657	-0.441793
Br86	Br	1.780685	-0.599657	0.058207
H87	H	0.943488	-0.457269	-0.449221
H88	H	1.443488	0.042731	0.050779
H89	H	1.564795	-0.457093	-1.071309
H90	H	2.064795	0.042907	-0.571309
H91	H	1.639274	-1.078320	-0.374660
H92	H	2.139274	-0.578320	0.125340
H93	H	1.564766	-0.457155	-0.936764
H94	H	2.064766	0.042845	-0.436764
H95	H	1.686165	-0.945426	-0.550829
H96	H	2.186165	-0.445426	-0.050829
Br97	Br	1.356216	-0.669430	-1.138234
Br98	Br	1.856216	-0.169430	-0.638234
Br99	Br	0.876593	-0.669917	-0.657396
Br100	Br	1.376593	-0.169917	-0.157396
H101	H	1.381314	-0.945760	-0.632178
H102	H	1.881314	-0.445760	-0.132178
Br103	Br	1.048334	-0.420271	-0.413024
Br104	Br	1.548334	0.079729	0.086976
H105	H	1.392440	-0.632603	-0.899430
H106	H	1.892440	-0.132603	-0.399430
