data_functionalizedCrystal
_audit_creation_method	'MofGen! by Chris Wilmer'
_symmetry_space_group_name_H-M	'P1'
_symmetry_Int_Tables_number	1
_symmetry_cell_setting	triclinic
loop_
_symmetry_equiv_pos_as_xyz
  x,y,z
_cell_length_a	10.489716
_cell_length_b	17.019294
_cell_length_c	9.565339
_cell_angle_alpha	86.121262
_cell_angle_beta	89.996780
_cell_angle_gamma	83.960396
loop_
_atom_site_label
_atom_site_type_symbol
_atom_site_fract_x
_atom_site_fract_y
_atom_site_fract_z
O1	O	1.692217	0.111194	-0.129633
O2	O	1.320843	0.121661	-0.130898
O3	O	1.516890	0.001654	-0.116441
O4	O	1.496170	0.231201	-0.144089
O5	O	1.516875	0.001661	0.116078
O6	O	1.320827	0.121668	0.101621
O7	O	1.692202	0.111201	0.102886
Zn8	Zn	1.506512	0.116436	0.139171
Zn9	Zn	1.506533	0.116426	-0.167183
O10	O	1.496154	0.231209	0.088430
C11	C	1.273316	0.120878	-0.014544
C12	C	1.131724	0.118525	-0.014263
C13	C	1.032824	0.192117	-0.023130
C14	C	0.956118	0.153234	0.096204
C15	C	0.956140	0.153209	-0.133039
C16	C	1.056884	0.079672	0.105162
C17	C	1.056911	0.079658	-0.124185
C18	C	0.980256	0.040720	-0.004817
C19	C	1.516097	-0.027736	0.003356
C20	C	1.513740	-0.115319	0.013896
C21	C	1.512644	-0.156466	-0.107898
C22	C	1.510421	-0.238759	-0.097990
C23	C	1.509303	-0.279905	0.033713
C24	C	1.510395	-0.238752	0.155516
C25	C	1.512609	-0.156460	0.145606
C26	C	1.502611	-0.528374	0.069974
C27	C	1.500401	-0.610672	0.079874
C28	C	1.500424	-0.610673	-0.173633
C29	C	1.502645	-0.528379	-0.183530
C30	C	1.503731	-0.487234	-0.061728
C31	C	1.507035	-0.364022	0.043844
C32	C	1.505990	-0.403117	-0.071860
C33	C	1.739728	0.111984	-0.013470
C34	C	1.881320	0.114337	-0.013761
C35	C	1.496948	0.260598	-0.031370
C36	C	1.499305	0.348182	-0.041920
N37	N	1.506507	0.116442	0.348250
N38	N	1.506547	0.116414	-0.376261
C39	C	1.415815	0.171923	0.432770
C40	C	1.531047	0.187878	0.524028
C41	C	1.391325	0.100494	0.534546
C42	C	1.621798	0.132433	0.437453
C43	C	1.482000	0.045018	0.447966
C44	C	1.597316	0.060943	0.539186
H45	H	0.912111	0.184303	0.189389
H46	H	1.513483	-0.122958	0.244784
H47	H	1.503557	-0.494884	-0.290777
H48	H	1.506891	-0.369612	-0.179092
H49	H	1.499538	-0.644182	-0.272797
H50	H	1.499484	-0.644170	0.187128
O51	O	1.505801	-0.404072	0.171694
C52	C	1.394097	-0.443351	0.184030
H53	H	1.356942	-0.452897	0.075133
H54	H	1.417385	-0.503094	0.244841
H55	H	1.317640	-0.405825	0.242090
O56	O	1.109668	0.042622	-0.235249
C57	C	1.243647	0.044788	-0.233214
H58	H	1.276582	0.052797	-0.121981
H59	H	1.292812	-0.013070	-0.270023
H60	H	1.269888	0.096387	-0.305991
H61	H	0.912145	0.184287	-0.233697
O62	O	1.324558	0.227987	0.377090
C63	C	1.382811	0.282714	0.287440
H64	H	1.478594	0.253812	0.249993
H65	H	1.317566	0.301843	0.193250
H66	H	1.399376	0.336741	0.346581
O67	O	0.952331	-0.035693	0.004198
C68	C	0.881344	-0.049759	-0.115073
H69	H	0.900500	-0.004966	-0.204651
H70	H	0.911384	-0.112224	-0.147472
H71	H	0.774748	-0.043462	-0.089542
H72	H	1.551803	0.248268	0.557722
H73	H	1.719243	0.145982	0.395034
O74	O	1.108954	0.042584	0.225433
C75	C	1.011040	0.014407	0.309839
H76	H	0.924846	0.006795	0.241356
H77	H	1.047735	-0.045070	0.365297
H78	H	0.981362	0.058709	0.391114
O79	O	1.513670	-0.116618	-0.235947
C80	C	1.512256	-0.170588	-0.341318
H81	H	1.470315	-0.226209	-0.297459
H82	H	1.451006	-0.142155	-0.433391
H83	H	1.614301	-0.187041	-0.378309
O84	O	1.503759	-0.488541	0.188429
C85	C	1.502289	-0.542506	0.306792
H86	H	1.541049	-0.604206	0.277040
H87	H	1.564849	-0.523399	0.393122
H88	H	1.399782	-0.543551	0.345925
H89	H	1.674112	0.014010	0.585438
O90	O	1.509543	-0.278841	-0.216186
C91	C	1.618696	-0.334739	-0.217009
H92	H	1.655149	-0.349819	-0.105129
H93	H	1.592324	-0.390748	-0.263891
H94	H	1.696879	-0.308853	-0.282670
O95	O	1.456974	-0.026973	0.407776
C96	C	1.335376	-0.043550	0.457229
H97	H	1.274731	0.014264	0.476480
H98	H	1.285954	-0.076050	0.375828
H99	H	1.347116	-0.082270	0.559364
H100	H	1.293901	0.087017	0.577132
H101	H	1.056426	0.256131	-0.030733
H102	H	1.509478	-0.272259	0.262751
