data_functionalizedCrystal
_audit_creation_method	'MofGen! by Chris Wilmer'
_symmetry_space_group_name_H-M	'P1'
_symmetry_Int_Tables_number	1
_symmetry_cell_setting	triclinic
loop_
_symmetry_equiv_pos_as_xyz
  x,y,z
_cell_length_a	12.784905
_cell_length_b	12.837942
_cell_length_c	8.140239
_cell_angle_alpha	89.996939
_cell_angle_beta	89.996744
_cell_angle_gamma	83.968130
loop_
_atom_site_label
_atom_site_type_symbol
_atom_site_fract_x
_atom_site_fract_y
_atom_site_fract_z
O1	O	1.410964	0.006435	-0.136623
O2	O	1.910964	0.506435	0.363377
O3	O	1.105965	0.050427	-0.136624
O4	O	1.605965	0.550427	0.363376
O5	O	1.251701	-0.121862	-0.136613
O6	O	1.751701	0.378138	0.363387
O7	O	1.265227	0.178724	-0.136634
O8	O	1.765227	0.678724	0.363366
O9	O	1.251692	-0.121863	0.136614
O10	O	1.751692	0.378137	0.636614
O11	O	1.105956	0.050426	0.136603
O12	O	1.605956	0.550426	0.636603
O13	O	1.410955	0.006434	0.136604
O14	O	1.910955	0.506434	0.636604
Zn15	Zn	1.258454	0.028430	0.179984
Zn16	Zn	1.758454	0.528430	0.679984
Zn17	Zn	1.258466	0.028431	-0.180004
Zn18	Zn	1.758466	0.528431	0.319996
O19	O	1.265218	0.178723	0.136594
O20	O	1.765218	0.678723	0.636594
C21	C	1.066651	0.053288	-0.000010
C22	C	1.566651	0.553288	0.499990
C23	C	0.949519	0.061801	-0.000011
C24	C	1.449519	0.561801	0.499989
C25	C	0.735568	-0.111642	-0.000028
C26	C	1.235568	0.388358	0.499972
C27	C	0.625513	-0.103648	-0.000029
C28	C	1.125513	0.396352	0.499971
C29	C	0.619351	0.085781	-0.000023
C30	C	1.119351	0.585781	0.499977
C31	C	0.729407	0.077787	-0.000023
C32	C	1.229407	0.577787	0.499977
C33	C	0.787511	-0.020928	-0.000023
C34	C	1.287511	0.479072	0.499977
C35	C	0.897569	-0.028921	-0.000011
C36	C	1.397569	0.471079	0.499989
C37	C	0.891405	0.160508	-0.000017
C38	C	1.391405	0.660508	0.499983
C39	C	0.781350	0.168502	-0.000018
C40	C	1.281350	0.668502	0.499982
C41	C	1.247128	-0.160072	-0.000001
C42	C	1.747128	0.339928	0.499999
C43	C	1.233500	-0.273920	-0.000003
C44	C	1.733500	0.226080	0.499997
C45	C	1.397331	-0.529646	-0.000037
C46	C	1.897331	-0.029646	0.499963
C47	C	1.384532	-0.636618	-0.000040
C48	C	1.884532	-0.136618	0.499960
C49	C	1.195102	-0.594839	-0.000024
C50	C	1.695102	-0.094839	0.499976
C51	C	1.207901	-0.487867	-0.000021
C52	C	1.707901	0.012133	0.499979
C53	C	1.309019	-0.455275	-0.000025
C54	C	1.809019	0.044725	0.499975
C55	C	1.321818	-0.348301	-0.000011
C56	C	1.821818	0.151699	0.499989
C57	C	1.132389	-0.306523	-0.000006
C58	C	1.632389	0.193477	0.499994
C59	C	1.119589	-0.413495	-0.000009
C60	C	1.619589	0.086505	0.499991
C61	C	1.450269	0.003573	-0.000013
C62	C	1.950269	0.503573	0.499987
C63	C	1.567401	-0.004940	-0.000024
C64	C	2.067401	0.495060	0.499976
C65	C	1.269792	0.216932	-0.000023
C66	C	1.769792	0.716932	0.499977
C67	C	1.283420	0.330781	-0.000031
C68	C	1.783420	0.830781	0.499969
N69	N	1.258453	0.028427	0.425667
N70	N	1.758453	0.528427	0.925667
N71	N	1.258474	0.028424	-0.425687
N72	N	1.758474	0.528424	0.074313
H73	H	0.944876	-0.109300	-0.000008
H74	H	1.444876	0.390700	0.499992
H75	H	1.479665	-0.503110	-0.000025
H76	H	1.979665	-0.003110	0.499975
H77	H	0.572023	0.166150	-0.000045
H78	H	1.072023	0.666150	0.499955
H79	H	0.782878	-0.192020	-0.000017
H80	H	1.282878	0.307980	0.499983
Cl81	Cl	1.495558	-0.730112	-0.000060
Cl82	Cl	1.995558	-0.230112	0.499940
H83	H	0.734026	0.248872	-0.000024
H84	H	1.234026	0.748872	0.499976
Cl85	Cl	0.560216	-0.217694	-0.000041
Cl86	Cl	1.060216	0.282306	0.499959
H87	H	1.037262	-0.440047	-0.000012
H88	H	1.537262	0.059953	0.499988
Cl89	Cl	0.956711	0.274556	0.000016
Cl90	Cl	1.456711	0.774556	0.500016
Cl91	Cl	1.448936	-0.307329	-0.000005
Cl92	Cl	1.948936	0.192671	0.499995
Cl93	Cl	1.067993	-0.635831	-0.000067
Cl94	Cl	1.567993	-0.135831	0.499933
H95	H	1.060479	-0.245957	0.000017
H96	H	1.560479	0.254043	0.500017
