data_functionalizedCrystal
_audit_creation_method	'MofGen! by Chris Wilmer'
_symmetry_space_group_name_H-M	'P1'
_symmetry_Int_Tables_number	1
_symmetry_cell_setting	triclinic
loop_
_symmetry_equiv_pos_as_xyz
  x,y,z
_cell_length_a	8.634740
_cell_length_b	8.559649
_cell_length_c	7.681481
_cell_angle_alpha	85.069100
_cell_angle_beta	96.618947
_cell_angle_gamma	85.174486
loop_
_atom_site_label
_atom_site_type_symbol
_atom_site_fract_x
_atom_site_fract_y
_atom_site_fract_z
O1	O	1.969395	0.524281	-0.146406
O2	O	1.525523	0.481379	-0.146412
O3	O	1.786565	0.276248	-0.146407
O4	O	1.708353	0.729412	-0.146412
O5	O	1.818703	0.250933	0.146451
O6	O	1.557661	0.456064	0.146446
O7	O	2.001533	0.498965	0.146452
Zn8	Zn	1.784699	0.473495	0.192947
Zn9	Zn	1.742356	0.506849	-0.192907
O10	O	1.740491	0.704096	0.146447
C11	C	1.485293	0.459002	0.000016
C12	C	1.317541	0.430024	0.000014
C13	C	1.808560	0.204973	0.000019
C14	C	1.826202	0.030310	0.000009
C15	C	2.041763	0.521342	0.000020
C16	C	2.209513	0.550321	0.000011
C17	C	1.718495	0.775371	0.000017
C18	C	1.700852	0.950035	0.000015
N19	N	1.813609	0.450733	0.456281
N20	N	1.713461	0.529601	-0.456242
H21	H	1.281688	0.304868	-0.000031
C22	C	1.257934	0.719415	0.000004
H23	H	1.368110	0.717370	-0.000007
H24	H	1.228995	0.763774	0.102124
H25	H	1.206584	0.781415	-0.102141
H26	H	1.915855	0.370241	0.531489
C27	C	1.537634	0.037689	0.000006
H28	H	1.461361	-0.036091	0.000023
H29	H	1.514210	0.110439	-0.102123
H30	H	1.536629	0.092785	0.102142
C31	C	1.989425	-0.057357	0.000010
H32	H	1.980274	-0.167188	0.000006
H33	H	2.055559	-0.038313	0.102128
H34	H	2.033125	-0.020667	-0.102137
H35	H	1.611231	0.610101	0.468559
