data_functionalizedCrystal
_audit_creation_method	'MofGen! by Chris Wilmer'
_symmetry_space_group_name_H-M	'P1'
_symmetry_Int_Tables_number	1
_symmetry_cell_setting	triclinic
loop_
_symmetry_equiv_pos_as_xyz
  x,y,z
_cell_length_a	18.215407
_cell_length_b	18.101395
_cell_length_c	18.215399
_cell_angle_alpha	89.973573
_cell_angle_beta	89.980167
_cell_angle_gamma	90.031552
loop_
_atom_site_label
_atom_site_type_symbol
_atom_site_fract_x
_atom_site_fract_y
_atom_site_fract_z
Zn1	Zn	1.125040	-0.294828	-0.416124
Zn2	Zn	1.625040	0.205172	0.083876
Zn3	Zn	1.124935	-0.418675	-0.293061
Zn4	Zn	1.624935	0.081325	0.206939
Zn5	Zn	1.001973	-0.294853	-0.293071
Zn6	Zn	1.501973	0.205147	0.206929
Zn7	Zn	1.001925	-0.418634	-0.416086
Zn8	Zn	1.501925	0.081366	0.083914
O9	O	1.063468	-0.356747	-0.354585
O10	O	1.563468	0.143253	0.145415
O11	O	1.228010	-0.311264	-0.399811
O12	O	1.728010	0.188736	0.100189
O13	O	1.108600	-0.402277	-0.190078
O14	O	1.608600	0.097723	0.309922
O15	O	1.018362	-0.191216	-0.309415
O16	O	1.518362	0.308784	0.190585
O17	O	1.227933	-0.402253	-0.309397
O18	O	1.727933	0.097747	0.190603
O19	O	1.108779	-0.191199	-0.399821
O20	O	1.608779	0.308801	0.100179
O21	O	1.018260	-0.311305	-0.190085
O22	O	1.518260	0.188695	0.309915
O23	O	0.898982	-0.311265	-0.309378
O24	O	1.398982	0.188735	0.190622
O25	O	1.018281	-0.402183	-0.519075
O26	O	1.518281	0.097817	-0.019075
O27	O	0.898947	-0.402207	-0.399756
O28	O	1.398947	0.097793	0.100244
O29	O	1.108733	-0.311224	-0.519103
O30	O	1.608733	0.188776	-0.019103
O31	O	1.108554	-0.522302	-0.309360
O32	O	1.608554	-0.022302	0.190640
O33	O	1.018179	-0.522272	-0.399746
O34	O	1.518179	-0.022272	0.100254
C35	C	0.872262	-0.356735	-0.354564
C36	C	1.372262	0.143265	0.145436
C37	C	0.790463	-0.356747	-0.354572
C38	C	1.290463	0.143253	0.145428
C39	C	1.063370	-0.549158	-0.354564
C40	C	1.563370	-0.049158	0.145436
C41	C	1.063395	-0.631472	-0.354579
C42	C	1.563395	-0.131472	0.145421
C43	C	0.602270	-0.404175	-0.401573
C44	C	1.102270	0.095825	0.098427
C45	C	0.525412	-0.404177	-0.401583
C46	C	1.025412	0.095823	0.098417
C47	C	0.525418	-0.309333	-0.307613
C48	C	1.025418	0.190667	0.192387
C49	C	0.602276	-0.309328	-0.307608
C50	C	1.102276	0.190672	0.192392
C51	C	0.640700	-0.356753	-0.354587
C52	C	1.140700	0.143247	0.145413
C53	C	0.486984	-0.356761	-0.354601
C54	C	0.986984	0.143239	0.145399
C55	C	0.403650	-0.356763	-0.354611
C56	C	0.903650	0.143237	0.145389
C57	C	0.724039	-0.356750	-0.354579
C58	C	1.224039	0.143250	0.145421
C59	C	1.063557	-0.930563	-0.354619
C60	C	1.563557	-0.430563	0.145381
C61	C	1.006827	-0.899249	-0.411628
C62	C	1.506827	-0.399249	0.088372
C63	C	1.006557	-0.813632	-0.411450
C64	C	1.506557	-0.313632	0.088550
C65	C	1.063476	-0.782180	-0.354600
C66	C	1.563476	-0.282180	0.145400
C67	C	1.042479	-0.813331	-0.277038
C68	C	1.542479	-0.313331	0.222962
C69	C	1.042113	-0.898976	-0.277380
C70	C	1.542113	-0.398976	0.222620
C71	C	1.141408	-0.898906	-0.374487
C72	C	1.641408	-0.398906	0.125513
C73	C	1.140950	-0.813255	-0.376188
C74	C	1.640950	-0.313255	0.123812
C75	C	1.063432	-0.698321	-0.354584
C76	C	1.563432	-0.198321	0.145416
C77	C	1.063599	-1.014422	-0.354629
C78	C	1.563599	-0.514422	0.145371
C79	C	1.255421	-0.356761	-0.354607
C80	C	1.755421	0.143239	0.145393
C81	C	1.337220	-0.356766	-0.354616
C82	C	1.837220	0.143234	0.145384
C83	C	1.063513	-0.356696	-0.546538
C84	C	1.563513	0.143304	-0.046538
C85	C	1.063532	-0.356675	-0.628337
C86	C	1.563532	0.143325	-0.128337
C87	C	1.063587	-0.163585	-0.354623
C88	C	1.563587	0.336415	0.145377
C89	C	1.063638	-0.081271	-0.354639
C90	C	1.563638	0.418729	0.145361
C91	C	1.110648	-0.309268	-0.816547
C92	C	1.610648	0.190732	-0.316547
C93	C	1.110656	-0.309246	-0.893406
C94	C	1.610656	0.190754	-0.393406
C95	C	1.016469	-0.403967	-0.893365
C96	C	1.516469	0.096033	-0.393365
C97	C	1.016457	-0.403984	-0.816508
C98	C	1.516457	0.096016	-0.316508
C99	C	1.063551	-0.356636	-0.778101
C100	C	1.563551	0.143364	-0.278101
C101	C	1.063571	-0.356597	-0.931817
C102	C	1.563571	0.143403	-0.431817
C103	C	1.063580	-0.356574	-1.015151
C104	C	1.563580	0.143426	-0.515151
C105	C	1.063541	-0.356657	-0.694762
C106	C	1.563541	0.143343	-0.194762
C107	C	1.063466	-0.356745	-0.163379
C108	C	1.563466	0.143255	0.336621
C109	C	1.063590	-0.356558	-0.081580
C110	C	1.563590	0.143442	0.418420
H111	H	0.633553	-0.442789	-0.439829
H112	H	1.133553	0.057211	0.060171
H113	H	0.978100	-0.442556	-0.785204
H114	H	1.478100	0.057444	-0.285204
C115	C	0.964668	-0.456046	-0.935620
C116	C	1.464668	0.043954	-0.435620
N117	N	0.925649	-0.495272	-0.967446
N118	N	1.425649	0.004728	-0.467446
C119	C	1.162469	-0.257139	-0.935693
C120	C	1.662469	0.242861	-0.435693
N121	N	1.201496	-0.217890	-0.967543
N122	N	1.701496	0.282110	-0.467543
C123	C	0.483145	-0.257173	-0.255935
C124	C	0.983145	0.242827	0.244065
N125	N	0.451305	-0.217886	-0.217008
N126	N	0.951305	0.282114	0.282992
C127	C	0.483143	-0.456352	-0.453264
C128	C	0.983143	0.043648	0.046736
N129	N	0.451306	-0.495654	-0.492191
N130	N	0.951306	0.004346	0.007809
C131	C	0.644550	-0.257158	-0.255917
C132	C	1.144550	0.242842	0.244083
N133	N	0.676392	-0.217863	-0.216985
N134	N	1.176392	0.282137	0.283015
C135	C	1.024302	-0.785174	-0.489145
C136	C	1.524302	-0.285174	0.010855
N137	N	1.037665	-0.763744	-0.547669
N138	N	1.537665	-0.263744	-0.047669
C139	C	1.162361	-0.785715	-0.453286
C140	C	1.662361	-0.285715	0.046714
N141	N	1.178491	-0.764958	-0.511352
N142	N	1.678491	-0.264958	-0.011352
C143	C	1.024393	-0.927015	-0.489575
C144	C	1.524393	-0.427015	0.010425
N145	N	1.037623	-0.947935	-0.548287
N146	N	1.537623	-0.447935	-0.048287
H147	H	0.949472	-0.920836	-0.398633
H148	H	1.449472	-0.420836	0.101367
H149	H	0.985204	-0.919019	-0.260549
H150	H	1.485204	-0.419019	0.239451
H151	H	1.185453	-0.791842	-0.337692
H152	H	1.685453	-0.291842	0.162308
H153	H	0.948852	-0.793209	-0.398289
H154	H	1.448852	-0.293209	0.101711
H155	H	1.081640	-0.919692	-0.233455
H156	H	1.581640	-0.419692	0.266545
H157	H	1.082498	-0.792959	-0.233404
H158	H	1.582498	-0.292959	0.266596
C159	C	0.966407	-0.784449	-0.253895
C160	C	1.466407	-0.284449	0.246105
N161	N	0.909108	-0.762698	-0.236468
N162	N	1.409108	-0.262698	0.263532
C163	C	1.167268	-0.928013	-0.449595
C164	C	1.667268	-0.428013	0.050405
N165	N	1.186738	-0.949935	-0.506169
N166	N	1.686738	-0.449935	-0.006169
H167	H	1.183674	-0.919155	-0.332965
H168	H	1.683674	-0.419155	0.167035
C169	C	1.162445	-0.257177	-0.774302
C170	C	1.662445	0.242823	-0.274302
N171	N	1.201458	-0.217938	-0.742485
N172	N	1.701458	0.282062	-0.242485
