data_functionalizedCrystal
_audit_creation_method	'MofGen! by Chris Wilmer'
_symmetry_space_group_name_H-M	'P1'
_symmetry_Int_Tables_number	1
_symmetry_cell_setting	triclinic
loop_
_symmetry_equiv_pos_as_xyz
  x,y,z
_cell_length_a	14.971506
_cell_length_b	15.944545
_cell_length_c	14.048226
_cell_angle_alpha	89.991465
_cell_angle_beta	89.993237
_cell_angle_gamma	83.559280
loop_
_atom_site_label
_atom_site_type_symbol
_atom_site_fract_x
_atom_site_fract_y
_atom_site_fract_z
O1	O	1.186815	0.109544	-0.079172
O2	O	1.686815	0.609544	0.420828
O3	O	0.926403	0.122635	-0.079173
O4	O	1.426403	0.622635	0.420827
O5	O	1.063723	-0.006178	-0.079161
O6	O	1.563723	0.493822	0.420839
O7	O	1.049495	0.238358	-0.079184
O8	O	1.549495	0.738358	0.420816
O9	O	1.063707	-0.006186	0.079160
O10	O	1.563707	0.493814	0.579160
O11	O	0.926386	0.122628	0.079148
O12	O	1.426386	0.622628	0.579148
O13	O	1.186798	0.109537	0.079149
O14	O	1.686798	0.609537	0.579149
Zn15	Zn	1.056590	0.116081	0.104286
Zn16	Zn	1.556590	0.616081	0.604286
Zn17	Zn	1.056612	0.116091	-0.104309
Zn18	Zn	1.556612	0.616091	0.395691
O19	O	1.049478	0.238350	0.079138
O20	O	1.549478	0.738350	0.579138
C21	C	0.893071	0.122043	-0.000012
C22	C	1.393071	0.622043	0.499988
C23	C	0.793777	0.120279	-0.000012
C24	C	1.293777	0.620279	0.499988
C25	C	1.063125	-0.037477	0.000001
C26	C	1.563125	0.462523	0.500001
C27	C	1.061357	-0.130725	0.000003
C28	C	1.561357	0.369275	0.500003
C29	C	0.355418	0.189225	-0.000028
C30	C	0.855418	0.689225	0.499972
C31	C	0.448717	0.190875	-0.000033
C32	C	0.948717	0.690875	0.499967
C33	C	0.506020	0.115193	-0.000021
C34	C	1.006020	0.615193	0.499979
C35	C	0.470021	0.037854	-0.000015
C36	C	0.970021	0.537854	0.499985
C37	C	0.376724	0.036205	-0.000018
C38	C	0.876724	0.536205	0.499982
C39	C	0.664480	0.041298	-0.000008
C40	C	1.164480	0.541298	0.499992
C41	C	0.757783	0.042947	-0.000003
C42	C	1.257783	0.542947	0.499997
C43	C	0.736473	0.195968	-0.000022
C44	C	1.236473	0.695968	0.499978
C45	C	0.643176	0.194319	-0.000025
C46	C	1.143176	0.694319	0.499975
C47	C	0.607183	0.116980	-0.000017
C48	C	1.107183	0.616980	0.499983
C49	C	0.970957	-0.401450	-0.000016
C50	C	1.470957	0.098550	0.499984
C51	C	1.014549	-0.350816	-0.078077
C52	C	1.514549	0.149184	0.421923
C53	C	1.055053	-0.466375	-0.000024
C54	C	1.555053	0.033625	0.499976
C55	C	1.014555	-0.350851	0.078015
C56	C	1.514555	0.149149	0.578015
C57	C	1.058146	-0.301458	-0.000009
C58	C	1.558146	0.198542	0.499991
C59	C	1.098622	-0.416970	-0.078149
C60	C	1.598622	0.083030	0.421851
C61	C	1.098616	-0.417008	0.078013
C62	C	1.598616	0.082992	0.578013
C63	C	1.142269	-0.366407	-0.000067
C64	C	1.642269	0.133593	0.499933
C65	C	1.053268	-0.561379	-0.000033
C66	C	1.553268	-0.061379	0.499967
C67	C	1.059937	-0.206457	-0.000006
C68	C	1.559937	0.293543	0.499994
C69	C	1.220130	0.110129	-0.000013
C70	C	1.720130	0.610129	0.499987
C71	C	1.319425	0.111893	-0.000020
C72	C	1.819425	0.611893	0.499980
C73	C	1.050076	0.269649	-0.000026
C74	C	1.550076	0.769649	0.499974
C75	C	1.051844	0.362897	-0.000035
C76	C	1.551844	0.862897	0.499965
N77	N	1.056581	0.116074	0.246647
N78	N	1.556581	0.616074	0.746647
N79	N	1.056627	0.116092	-0.246670
N80	N	1.556627	0.616092	0.253330
C81	C	1.117406	0.059059	0.296470
C82	C	1.617406	0.559059	0.796470
C83	C	1.117412	0.059058	0.396128
C84	C	1.617412	0.559058	0.896128
C85	C	1.056597	0.116077	0.445960
C86	C	1.556597	0.616077	0.945960
C87	C	0.995766	0.173095	0.396130
C88	C	1.495766	0.673095	0.896130
C89	C	0.995757	0.173091	0.296474
C90	C	1.495757	0.673091	0.796474
C91	C	0.995792	0.173101	0.603844
C92	C	1.495792	0.673101	1.103844
C93	C	0.995802	0.173107	0.703507
C94	C	1.495802	0.673107	1.203507
C95	C	1.117447	0.059069	0.703498
C96	C	1.617447	0.559069	1.203498
C97	C	1.117438	0.059064	0.603842
C98	C	1.617438	0.559064	1.103842
C99	C	1.056608	0.116083	0.554018
C100	C	1.556608	0.616083	1.054018
H101	H	0.308767	0.250855	-0.000030
H102	H	0.808767	0.750855	0.499970
H103	H	1.134118	-0.445736	-0.144217
H104	H	1.634118	0.054264	0.355783
H105	H	0.596521	0.255946	-0.000028
H106	H	1.096521	0.755946	0.499972
H107	H	0.478017	0.253847	-0.000049
H108	H	0.978017	0.753847	0.499951
H109	H	0.635179	-0.021679	-0.000006
H110	H	1.135179	0.478321	0.499994
H111	H	0.898533	-0.417176	-0.000093
H112	H	1.398533	0.082824	0.499907
Cl113	Cl	0.781720	0.293194	-0.000022
Cl114	Cl	1.281720	0.793194	0.499978
Cl115	Cl	0.919315	0.244782	0.541213
Cl116	Cl	1.419315	0.744782	1.041213
H117	H	0.946245	0.219518	0.436709
H118	H	1.446245	0.719518	0.936709
Cl119	Cl	1.254170	-0.342368	-0.000132
Cl120	Cl	1.754170	0.157632	0.499868
H121	H	1.166939	0.012632	0.436693
H122	H	1.666939	0.512632	0.936693
Cl123	Cl	0.959730	-0.306196	-0.179971
Cl124	Cl	1.459730	0.193804	0.320029
Cl125	Cl	0.919284	0.244767	0.233840
Cl126	Cl	1.419284	0.744767	0.733840
H127	H	0.804438	-0.018681	-0.000002
H128	H	1.304438	0.481319	0.499998
Cl129	Cl	1.153391	-0.461657	0.179910
Cl130	Cl	1.653391	0.038343	0.679910
H131	H	0.979018	-0.321976	0.144008
H132	H	1.479018	0.178024	0.644008
H133	H	1.166977	0.012642	0.744070
H134	H	1.666977	0.512642	1.244070
H135	H	0.516685	-0.023768	-0.000012
H136	H	1.016685	0.476232	0.499988
H137	H	1.166932	0.012631	0.255903
H138	H	1.666932	0.512631	0.755903
Cl139	Cl	0.331475	-0.061017	-0.000007
Cl140	Cl	0.831475	0.438983	0.499993
H141	H	1.166962	0.012639	0.563268
H142	H	1.666962	0.512639	1.063268
H143	H	0.946280	0.219537	0.744075
H144	H	1.446280	0.719537	1.244075
