data_functionalizedCrystal
_audit_creation_method	'MofGen! by Chris Wilmer'
_symmetry_space_group_name_H-M	'P1'
_symmetry_Int_Tables_number	1
_symmetry_cell_setting	triclinic
loop_
_symmetry_equiv_pos_as_xyz
  x,y,z
_cell_length_a	14.519709
_cell_length_b	12.996460
_cell_length_c	14.519731
_cell_angle_alpha	90.007128
_cell_angle_beta	83.684499
_cell_angle_gamma	89.999966
loop_
_atom_site_label
_atom_site_type_symbol
_atom_site_fract_x
_atom_site_fract_y
_atom_site_fract_z
O1	O	1.223878	0.085435	0.120892
O2	O	0.955402	0.085467	0.135128
O3	O	1.096748	0.085441	-0.006227
O4	O	1.082532	0.085461	0.262247
O5	O	1.096733	-0.085693	-0.006235
O6	O	0.955387	-0.085667	0.135120
O7	O	1.223863	-0.085699	0.120884
Cu8	Cu	1.089624	-0.101309	0.128001
Cu9	Cu	1.089641	0.101077	0.128011
O10	O	1.082517	-0.085673	0.262239
C11	C	0.921035	-0.000096	0.134461
C12	C	0.818654	-0.000084	0.132473
N13	N	1.089618	-0.243656	0.127994
C14	C	0.443757	-0.000132	0.125153
C15	C	0.548065	-0.000118	0.127186
C16	C	0.631202	-0.000107	0.128813
C17	C	0.735517	-0.000095	0.130846
C18	C	1.089640	-0.663470	0.128012
C19	C	1.089631	-0.546665	0.128010
C20	C	1.089630	-0.453567	0.128004
C21	C	1.089620	-0.336754	0.128001
C22	C	1.258230	-0.000133	0.121551
C23	C	1.360612	-0.000138	0.123539
C24	C	1.096075	-0.000126	-0.040591
C25	C	1.094079	-0.000127	-0.142971
N26	N	1.089654	0.243424	0.128010
C27	C	1.092457	-0.000124	-0.226115
C28	C	1.090430	-0.000116	-0.330424
C29	C	1.088822	-0.000109	-0.413563
C30	C	1.086795	-0.000103	-0.517878
C31	C	1.083191	-0.000103	0.296603
C32	C	1.085187	-0.000096	0.398983
