data_functionalizedCrystal
_audit_creation_method	'MofGen! by Chris Wilmer'
_symmetry_space_group_name_H-M	'P1'
_symmetry_Int_Tables_number	1
_symmetry_cell_setting	triclinic
loop_
_symmetry_equiv_pos_as_xyz
  x,y,z
_cell_length_a	12.996460
_cell_length_b	14.519709
_cell_length_c	14.519731
_cell_angle_alpha	96.315501
_cell_angle_beta	89.992872
_cell_angle_gamma	89.999966
loop_
_atom_site_label
_atom_site_type_symbol
_atom_site_fract_x
_atom_site_fract_y
_atom_site_fract_z
O1	O	-0.085435	-1.223878	0.120892
O2	O	0.247898	-0.890545	0.454225
O3	O	0.581231	-0.557211	0.787558
O4	O	-0.085467	-0.955402	0.135128
O5	O	0.247866	-0.622069	0.468461
O6	O	0.581200	-0.288736	0.801795
O7	O	-0.085441	-1.096748	-0.006227
O8	O	0.247892	-0.763415	0.327106
O9	O	0.581226	-0.430081	0.660439
O10	O	-0.085461	-1.082532	0.262247
O11	O	0.247872	-0.749199	0.595580
O12	O	0.581205	-0.415865	0.928914
O13	O	0.085693	-1.096733	-0.006235
O14	O	0.419026	-0.763400	0.327098
O15	O	0.752360	-0.430067	0.660432
O16	O	0.085667	-0.955387	0.135120
O17	O	0.419000	-0.622054	0.468454
O18	O	0.752334	-0.288721	0.801787
O19	O	0.085699	-1.223863	0.120884
O20	O	0.419032	-0.890530	0.454217
O21	O	0.752365	-0.557197	0.787551
Cu22	Cu	0.101309	-1.089624	0.128001
Cu23	Cu	0.434642	-0.756291	0.461335
Cu24	Cu	0.767975	-0.422957	0.794668
Cu25	Cu	-0.101077	-1.089641	0.128011
Cu26	Cu	0.232256	-0.756308	0.461344
Cu27	Cu	0.565590	-0.422975	0.794677
O28	O	0.085673	-1.082517	0.262239
O29	O	0.419006	-0.749184	0.595573
O30	O	0.752339	-0.415851	0.928906
C31	C	0.000096	-0.921035	0.134461
C32	C	0.333429	-0.587702	0.467794
C33	C	0.666763	-0.254368	0.801127
C34	C	0.000084	-0.818654	0.132473
C35	C	0.333418	-0.485320	0.465806
C36	C	0.666751	-0.151987	0.799139
C37	C	0.000126	-1.096075	-0.040591
C38	C	0.333460	-0.762741	0.292743
C39	C	0.666793	-0.429408	0.626076
C40	C	0.000127	-1.094079	-0.142971
C41	C	0.333460	-0.760745	0.190363
C42	C	0.666793	-0.427412	0.523696
N43	N	0.243656	-1.089618	0.127994
N44	N	0.576989	-0.756285	0.461328
N45	N	0.910322	-0.422952	0.794661
N46	N	-0.243424	-1.089654	0.128010
N47	N	0.089909	-0.756321	0.461344
N48	N	0.423243	-0.422988	0.794677
C49	C	0.663470	-1.089640	0.128012
C50	C	0.996803	-0.756307	0.461345
C51	C	1.330137	-0.422973	0.794678
C52	C	0.546665	-1.089631	0.128010
C53	C	0.879998	-0.756298	0.461343
C54	C	1.213332	-0.422965	0.794677
C55	C	0.453567	-1.089630	0.128004
C56	C	0.786900	-0.756296	0.461337
C57	C	1.120233	-0.422963	0.794670
C58	C	0.336754	-1.089620	0.128001
C59	C	0.670087	-0.756287	0.461334
C60	C	1.003421	-0.422953	0.794667
C61	C	0.000133	-1.258230	0.121551
C62	C	0.333467	-0.924897	0.454885
C63	C	0.666800	-0.591564	0.788218
C64	C	0.000138	-1.360612	0.123539
C65	C	0.333472	-1.027279	0.456873
C66	C	0.666805	-0.693945	0.790206
C67	C	0.000132	-0.443757	0.125153
C68	C	0.333465	-0.110424	0.458486
C69	C	0.666798	0.222909	0.791820
C70	C	0.000118	-0.548065	0.127186
C71	C	0.333451	-0.214732	0.460519
C72	C	0.666785	0.118601	0.793852
C73	C	0.000107	-0.631202	0.128813
C74	C	0.333440	-0.297869	0.462146
C75	C	0.666774	0.035465	0.795479
C76	C	0.000095	-0.735517	0.130846
C77	C	0.333429	-0.402183	0.464179
C78	C	0.666762	-0.068850	0.797512
C79	C	0.000124	-1.092457	-0.226115
C80	C	0.333457	-0.759123	0.107218
C81	C	0.666791	-0.425790	0.440552
C82	C	0.000116	-1.090430	-0.330424
C83	C	0.333449	-0.757097	0.002910
C84	C	0.666783	-0.423763	0.336243
C85	C	0.000109	-1.088822	-0.413563
C86	C	0.333442	-0.755488	-0.080229
C87	C	0.666776	-0.422155	0.253104
C88	C	0.000103	-1.086795	-0.517878
C89	C	0.333436	-0.753462	-0.184545
C90	C	0.666770	-0.420129	0.148789
C91	C	0.000103	-1.083191	0.296603
C92	C	0.333437	-0.749858	0.629936
C93	C	0.666770	-0.416524	0.963269
C94	C	0.000096	-1.085187	0.398983
C95	C	0.333429	-0.751854	0.732316
C96	C	0.666763	-0.418520	1.065649
