data_functionalizedCrystal
_audit_creation_method	'MofGen! by Chris Wilmer'
_symmetry_space_group_name_H-M	'P1'
_symmetry_Int_Tables_number	1
_symmetry_cell_setting	triclinic
loop_
_symmetry_equiv_pos_as_xyz
  x,y,z
_cell_length_a	12.759395
_cell_length_b	12.759394
_cell_length_c	12.759387
_cell_angle_alpha	89.968340
_cell_angle_beta	89.979491
_cell_angle_gamma	90.016374
loop_
_atom_site_label
_atom_site_type_symbol
_atom_site_fract_x
_atom_site_fract_y
_atom_site_fract_z
Zn1	Zn	1.606268	-0.418168	-0.593999
Zn2	Zn	1.606158	-0.593885	-0.418317
Zn3	Zn	1.430566	-0.418225	-0.418336
Zn4	Zn	1.430558	-0.593810	-0.593956
O5	O	1.518387	-0.506022	-0.506152
O6	O	1.753274	-0.441485	-0.570704
O7	O	1.582823	-0.570639	-0.271298
O8	O	1.453922	-0.271197	-0.441664
O9	O	1.753194	-0.570583	-0.441631
O10	O	1.583010	-0.271155	-0.570723
O11	O	1.453816	-0.441582	-0.271312
O12	O	1.283544	-0.441510	-0.441622
O13	O	1.453909	-0.570456	-0.740983
O14	O	1.283538	-0.570511	-0.570649
O15	O	1.583002	-0.441412	-0.741014
O16	O	1.582815	-0.740896	-0.441590
O17	O	1.453802	-0.740841	-0.570631
C18	C	1.245420	-0.506009	-0.506134
C19	C	1.128643	-0.506029	-0.506151
C20	C	1.518324	-0.778990	-0.506126
C21	C	1.518393	-0.895766	-0.506151
C22	C	1.128676	-0.640576	-0.640290
C23	C	1.073831	-0.707857	-0.707362
C24	C	0.964109	-0.707870	-0.707375
C25	C	0.909230	-0.640592	-0.640310
C26	C	0.964074	-0.573310	-0.573238
C27	C	1.073799	-0.573307	-0.573230
C28	C	0.964042	-0.438760	-0.439106
C29	C	1.073764	-0.438751	-0.439086
C30	C	0.909162	-0.371482	-0.372042
C31	C	0.964007	-0.304204	-0.304962
C32	C	1.073735	-0.304195	-0.304951
C33	C	1.128608	-0.371469	-0.372014
C34	C	1.652835	-0.895770	-0.371881
C35	C	1.720083	-0.950633	-0.304758
C36	C	1.720145	-1.060354	-0.304786
C37	C	1.652953	-1.115216	-0.371947
C38	C	1.585705	-1.060353	-0.439070
C39	C	1.585648	-0.950629	-0.439032
C40	C	1.451270	-1.060349	-0.573343
C41	C	1.451202	-0.950628	-0.573311
C42	C	1.384079	-1.115211	-0.640504
C43	C	1.316823	-1.060348	-0.707623
C44	C	1.316764	-0.950620	-0.707591
C45	C	1.383954	-0.895765	-0.640434
C46	C	1.792421	-0.506036	-0.506170
C47	C	1.909197	-0.506042	-0.506178
C48	C	1.518467	-0.505919	-0.780185
C49	C	1.518500	-0.505875	-0.896962
C50	C	1.518479	-0.231989	-0.506200
C51	C	1.518518	-0.115212	-0.506221
C52	C	1.652934	-0.371511	-0.897015
C53	C	1.720166	-0.304313	-0.951902
C54	C	1.720192	-0.304275	-1.061624
C55	C	1.652976	-0.371439	-1.116461
C56	C	1.585744	-0.438637	-1.061574
C57	C	1.585728	-0.438671	-0.951849
C58	C	1.451307	-0.572995	-1.061521
C59	C	1.451285	-0.573040	-0.951799
C60	C	1.384091	-0.640159	-1.116358
C61	C	1.316863	-0.707364	-1.061471
C62	C	1.316841	-0.707400	-0.951742
C63	C	1.384053	-0.640238	-0.896912
C64	C	1.518369	-0.506049	-0.233184
C65	C	1.518538	-0.505797	-0.116408
H66	H	1.218017	-0.640580	-0.640278
C67	C	1.383891	-0.775075	-0.640403
H68	H	1.334216	-0.750254	-0.689993
H69	H	1.451671	-0.750187	-0.658613
H70	H	1.365731	-0.750324	-0.572580
H71	H	1.652930	-0.371545	-0.807674
C72	C	1.134199	-0.781858	-0.781127
H73	H	1.207401	-0.772224	-0.771510
H74	H	1.116253	-0.766576	-0.851747
H75	H	1.116196	-0.852434	-0.765615
C76	C	1.794113	-1.120710	-0.230956
H77	H	1.784527	-1.193913	-0.240601
H78	H	1.778761	-1.102803	-0.160347
H79	H	1.864692	-1.102662	-0.246389
H80	H	1.774890	-0.249627	-0.907242
C81	C	1.242904	-0.781338	-0.891374
H82	H	1.202892	-0.821339	-0.939751
H83	H	1.197131	-0.741177	-0.848560
H84	H	1.283088	-0.827138	-0.848583
H85	H	1.653018	-1.204557	-0.371973
C86	C	1.794146	-0.230362	-1.122002
H87	H	1.834178	-0.190371	-1.073633
H88	H	1.753987	-0.184569	-1.164813
H89	H	1.839916	-0.270557	-1.164798
C90	C	1.242939	-0.781236	-1.121791
H91	H	1.252584	-0.771590	-1.194997
H92	H	1.172350	-0.765864	-1.103799
H93	H	1.258293	-0.851840	-1.103803
H94	H	1.652994	-0.371393	-1.205802
H95	H	1.384113	-0.640119	-1.205699
C96	C	1.242923	-1.120695	-0.781489
H97	H	1.252591	-1.193898	-0.771892
H98	H	1.258252	-1.102638	-0.852087
H99	H	1.172324	-1.102792	-0.766041
C100	C	1.384146	-1.235901	-0.640546
H101	H	1.334507	-1.260714	-0.690162
H102	H	1.366020	-1.260801	-0.572743
H103	H	1.451956	-1.260647	-0.658781
H104	H	1.384046	-0.640265	-0.807571
H105	H	0.819889	-0.640599	-0.640336
C106	C	0.903778	-0.781831	-0.781198
H107	H	0.952172	-0.821888	-0.821148
H108	H	0.861025	-0.741659	-0.827032
H109	H	0.860927	-0.827579	-0.740962
H110	H	1.118383	-0.249398	-0.250340
H111	H	0.819821	-0.371492	-0.372061
C112	C	1.652766	-0.775080	-0.371841
H113	H	1.702415	-0.750264	-0.322236
H114	H	1.584960	-0.750331	-0.353617
H115	H	1.670901	-0.750186	-0.439649
C116	C	1.793988	-0.890285	-0.230887
H117	H	1.784317	-0.817081	-0.240473
H118	H	1.864582	-0.908195	-0.246321
H119	H	1.778644	-0.908339	-0.160286
C120	C	1.249299	-0.371459	-0.372001
H121	H	1.274106	-0.321759	-0.322448
H122	H	1.274153	-0.353380	-0.439831
H123	H	1.274095	-0.439236	-0.353698
H124	H	0.919315	-0.249426	-0.250369
H125	H	1.262006	-0.905956	-0.762254
