data_functionalizedCrystal
_audit_creation_method	'MofGen! by Chris Wilmer'
_symmetry_space_group_name_H-M	'P1'
_symmetry_Int_Tables_number	1
_symmetry_cell_setting	triclinic
loop_
_symmetry_equiv_pos_as_xyz
  x,y,z
_cell_length_a	15.995350
_cell_length_b	19.188930
_cell_length_c	14.472310
_cell_angle_alpha	89.993787
_cell_angle_beta	89.990621
_cell_angle_gamma	83.318578
loop_
_atom_site_label
_atom_site_type_symbol
_atom_site_fract_x
_atom_site_fract_y
_atom_site_fract_z
O1	O	1.110667	0.089991	-0.076773
O2	O	0.866851	0.101105	-0.076794
O3	O	0.995795	-0.006090	-0.076765
O4	O	0.981723	0.197186	-0.076802
O5	O	0.995762	-0.006083	0.076917
O6	O	0.866818	0.101111	0.076888
O7	O	1.110634	0.089998	0.076909
Cu8	Cu	0.988723	0.095555	0.090931
Cu9	Cu	0.988762	0.095547	-0.090816
O10	O	0.981690	0.197192	0.076880
C11	C	0.835641	0.100648	0.000045
C12	C	0.742696	0.099271	0.000038
C13	C	0.995323	-0.032099	0.000079
C14	C	0.993955	-0.109607	0.000087
C15	C	0.404967	0.094324	0.000058
C16	C	0.452680	0.017982	0.000415
C17	C	0.549365	0.019360	0.000062
C18	C	0.572518	0.096778	0.000049
C19	C	0.531312	0.134429	-0.087714
C20	C	0.434683	0.132511	-0.087781
C21	C	0.434301	0.134095	0.086984
C22	C	0.531246	0.134077	0.088137
C23	C	0.667211	0.098169	0.000040
C24	C	0.310274	0.092936	0.000060
C25	C	1.069615	-0.154338	0.000097
C26	C	1.068330	-0.227165	0.000082
C27	C	0.991380	-0.255258	0.000075
C28	C	0.915710	-0.210517	0.000059
C29	C	0.916997	-0.137691	0.000065
N30	N	0.932550	-0.363410	0.052371
N31	N	0.931332	-0.432592	0.052368
C32	C	0.987497	-0.474676	0.000056
N33	N	1.044938	-0.444967	-0.052240
N34	N	1.046158	-0.375779	-0.052233
C35	C	0.989976	-0.334224	0.000069
C36	C	1.061769	-0.598375	0.000050
C37	C	1.060480	-0.671204	0.000029
C38	C	0.907859	-0.654553	0.000015
C39	C	0.909149	-0.581727	0.000027
C40	C	0.986106	-0.553643	0.000048
C41	C	1.141843	0.090454	0.000068
C42	C	1.234789	0.091831	0.000069
C43	C	0.982162	0.223201	0.000034
C44	C	0.983530	0.300709	0.000020
N45	N	0.988701	0.095560	0.218762
N46	N	0.988790	0.095537	-0.218647
C47	C	0.988761	0.095545	0.592853
C48	C	0.919535	0.152710	0.553672
C49	C	0.919694	0.152918	0.446584
C50	C	0.988731	0.095552	0.407262
C51	C	1.076037	0.111464	0.446103
C52	C	1.075648	0.111870	0.553224
C53	C	0.971460	0.022298	0.553394
C54	C	0.969454	0.022787	0.446266
C55	C	0.988719	0.095555	0.302374
C56	C	0.988778	0.095543	0.697741
H57	H	0.577889	-0.010236	0.062975
H58	H	0.855384	-0.101270	0.000057
H59	H	1.021946	-0.020242	0.578732
H60	H	0.854420	0.143386	0.579456
C61	C	0.391634	0.209132	0.087946
C62	C	0.343861	0.220553	0.168751
C63	C	0.304549	0.289667	0.169660
H64	H	0.355846	0.216707	0.035655
H65	H	0.433170	0.240696	0.086057
H66	H	0.302330	0.188999	0.170632
H67	H	0.379630	0.212993	0.221056
H68	H	0.346085	0.321231	0.167771
H69	H	0.268765	0.297236	0.117366
H70	H	0.272137	0.297428	0.224489
C71	C	0.391448	0.207248	-0.093312
C72	C	0.415926	0.238773	-0.174668
C73	C	0.376108	0.307614	-0.179809
H74	H	0.407129	0.233192	-0.041497
H75	H	0.332145	0.206614	-0.093444
H76	H	0.475215	0.239410	-0.174527
H77	H	0.400244	0.212849	-0.226497
H78	H	0.316806	0.306980	-0.179941
H79	H	0.391793	0.333551	-0.127990
H80	H	0.392705	0.329010	-0.235012
C81	C	0.407263	0.100842	0.175804
C82	C	0.478569	0.077604	0.228372
C83	C	0.453724	0.046976	0.310217
H84	H	0.377602	0.062145	0.161350
H85	H	0.371711	0.134535	0.210130
H86	H	0.514107	0.043913	0.194053
H87	H	0.508239	0.116287	0.242851
H88	H	0.418171	0.080669	0.344543
H89	H	0.424062	0.008282	0.295754
H90	H	0.502100	0.031211	0.345898
H91	H	0.845205	-0.677425	0.000005
H92	H	0.545229	0.191306	-0.090987
H93	H	1.128770	0.070935	0.420631
H94	H	0.559796	0.108273	-0.153020
H95	H	0.854789	0.143438	0.420324
C96	C	0.427945	-0.022717	0.084252
C97	C	0.341162	-0.026930	0.082296
C98	C	0.318339	-0.064424	0.159508
H99	H	0.441900	0.000646	0.139012
H100	H	0.457368	-0.068667	0.083185
H101	H	0.311748	0.019011	0.083372
H102	H	0.327185	-0.050299	0.027554
H103	H	0.347762	-0.110374	0.158441
H104	H	0.332299	-0.041057	0.214262
H105	H	0.259456	-0.067293	0.158186
C106	C	1.153252	-0.123982	0.000067
C107	C	1.219238	-0.178750	0.000050
C108	C	1.296295	-0.150812	0.000009
H109	H	1.157033	-0.095935	0.053647
H110	H	1.156987	-0.095935	-0.053545
H111	H	1.215504	-0.206786	0.053656
H112	H	1.215484	-0.206803	-0.053526
H113	H	1.300031	-0.122764	-0.053603
H114	H	1.300068	-0.122764	0.053589
H115	H	1.341076	-0.187967	-0.000011
H116	H	0.930714	0.207273	0.420941
C117	C	0.832225	-0.241110	-0.000091
C118	C	0.827056	-0.282441	-0.079147
C119	C	0.750164	-0.310642	-0.079316
H120	H	0.787274	-0.204109	-0.000144
H121	H	0.828530	-0.269217	0.053472
H122	H	0.830743	-0.254336	-0.132697
H123	H	0.871989	-0.319453	-0.079111
H124	H	0.746470	-0.338748	-0.025752
H125	H	0.705219	-0.273636	-0.079366
H126	H	0.746651	-0.338693	-0.132949
C127	C	0.551502	0.209353	0.095005
C128	C	0.601785	0.224123	0.019932
C129	C	0.620448	0.293466	0.026213
H130	H	0.580861	0.215350	0.150961
H131	H	0.500687	0.240379	0.094217
H132	H	0.652591	0.193107	0.020729
H133	H	0.572442	0.218142	-0.036034
H134	H	0.569633	0.324492	0.025425
H135	H	0.649805	0.299456	0.082171
H136	H	0.654560	0.303498	-0.024726
C137	C	1.150452	-0.275777	-0.000089
C138	C	1.154205	-0.318056	-0.079166
C139	C	1.229847	-0.362837	-0.079359
H140	H	1.153181	-0.304601	0.053441
H141	H	1.196494	-0.248646	-0.000126
H142	H	1.108176	-0.345184	-0.079120
H143	H	1.151491	-0.289251	-0.132709
H144	H	1.275889	-0.335706	-0.079396
H145	H	1.232569	-0.391656	-0.025826
H146	H	1.232407	-0.391524	-0.133016
H147	H	0.558650	0.106592	0.153064
H148	H	1.124432	-0.575508	0.000063
C149	C	1.142721	-0.719656	0.000087
C150	C	1.210388	-0.679470	0.000133
C151	C	1.286161	-0.724081	0.000200
H152	H	1.145529	-0.748421	-0.053494
H153	H	1.145420	-0.748409	0.053698
H154	H	1.207690	-0.650730	-0.053472
H155	H	1.207608	-0.650707	0.053710
H156	H	1.288860	-0.752833	0.053810
H157	H	1.288960	-0.752843	-0.053382
H158	H	1.332082	-0.696821	0.000239
C159	C	0.826911	-0.533273	0.000075
C160	C	0.759245	-0.573459	0.000090
C161	C	0.683471	-0.528847	0.000145
H162	H	0.824132	-0.504495	-0.053500
H163	H	0.824186	-0.504534	0.053692
H164	H	0.761969	-0.602185	-0.053521
H165	H	0.761996	-0.602235	0.053661
H166	H	0.680746	-0.500109	0.053762
H167	H	0.680701	-0.500071	-0.053431
H168	H	0.637551	-0.556107	0.000163
H169	H	1.091696	0.164273	0.419257
H170	H	0.930402	0.206759	0.580572
H171	H	1.090934	0.165288	0.578192
H172	H	0.577346	-0.010441	-0.062950
H173	H	0.909193	0.006998	0.580460
H174	H	1.128755	0.071875	0.579141
H175	H	0.905232	0.010711	0.420881
H176	H	1.016620	-0.021746	0.419504
H177	H	0.433211	-0.012395	-0.062166
C178	C	0.410591	0.095840	-0.175272
C179	C	0.483004	0.075620	-0.227578
C180	C	0.460849	0.041827	-0.308175
H181	H	0.372541	0.126976	-0.210469
H182	H	0.384504	0.055483	-0.159263
H183	H	0.509078	0.115971	-0.243589
H184	H	0.521063	0.044476	-0.192409
H185	H	0.434762	0.001470	-0.292165
H186	H	0.422798	0.072967	-0.343363
H187	H	0.509978	0.028098	-0.343670
