data_functionalizedCrystal
_audit_creation_method	'MofGen! by Chris Wilmer'
_symmetry_space_group_name_H-M	'P1'
_symmetry_Int_Tables_number	1
_symmetry_cell_setting	triclinic
loop_
_symmetry_equiv_pos_as_xyz
  x,y,z
_cell_length_a	20.919309
_cell_length_b	27.440280
_cell_length_c	20.919320
_cell_angle_alpha	57.439312
_cell_angle_beta	89.823686
_cell_angle_gamma	57.447393
loop_
_atom_site_label
_atom_site_type_symbol
_atom_site_fract_x
_atom_site_fract_y
_atom_site_fract_z
Zr1	Zr	0.639361	0.499106	-0.061499
O2	O	0.528518	0.613920	-0.172360
O3	O	0.673327	0.393413	-0.027515
O4	O	0.667707	0.503666	-0.166720
O5	O	0.538586	0.496889	0.076654
O6	O	0.777516	0.496887	-0.162269
O7	O	0.534138	0.503667	-0.033155
O8	O	0.787570	0.299665	0.086743
O9	O	0.528532	0.694111	-0.172358
O10	O	0.769778	0.428449	-0.009698
O11	O	0.691148	0.428450	0.068930
O12	O	0.684531	0.558258	-0.094966
O13	O	0.605901	0.558259	-0.016339
Zr14	Zr	0.821587	0.477485	0.120733
Zr15	Zr	0.814493	0.488295	-0.054400
Zr16	Zr	0.646454	0.488296	0.113634
Zr17	Zr	0.639383	0.627002	-0.061496
Zr18	Zr	0.821564	0.349589	0.120730
O19	O	0.787620	0.583178	0.086750
O20	O	0.777534	0.598548	-0.162267
O21	O	0.538604	0.598550	0.076656
O22	O	0.932429	0.362671	0.231595
O23	O	0.922343	0.378041	-0.017422
O24	O	0.683413	0.378043	0.221501
O25	O	0.922361	0.479701	-0.017419
O26	O	0.793240	0.472925	0.225954
O27	O	0.683431	0.479704	0.221504
O28	O	0.926809	0.472924	0.092390
O29	O	0.667739	0.685518	-0.166716
O30	O	0.793208	0.291073	0.225950
O31	O	0.932415	0.282479	0.231593
O32	O	0.926776	0.291072	0.092385
O33	O	0.534171	0.685519	-0.033151
O34	O	0.673378	0.676925	-0.027509
O35	O	0.776416	0.418333	0.154201
O36	O	0.855046	0.418332	0.075573
O37	O	0.769799	0.548141	-0.009695
O38	O	0.691169	0.548142	0.068932
C39	C	0.730445	0.328317	0.029613
C40	C	0.730436	0.274022	0.029612
C41	C	0.511410	0.501819	0.020738
C42	C	0.437061	0.506408	0.017724
C43	C	0.446628	0.440808	0.060813
C44	C	0.376767	0.445125	0.057980
C45	C	0.297340	0.515043	0.012052
C46	C	0.287775	0.580649	-0.031038
C47	C	0.357635	0.576331	-0.028200
C48	C	0.084181	0.531470	0.001259
C49	C	0.014319	0.535783	-0.001579
C50	C	0.103316	0.400258	0.087441
C51	C	0.173174	0.395947	0.090271
C52	C	0.163603	0.461552	0.047185
C53	C	0.225930	0.519458	0.009153
C54	C	0.235013	0.457137	0.050089
C55	C	0.771541	-0.062725	-0.011418
C56	C	0.771548	-0.113750	-0.011415
O57	O	0.806480	-0.140159	-0.046294
N58	N	0.730503	-0.139265	0.029626
C59	C	0.689455	-0.113760	0.070674
O60	O	0.654545	-0.140148	0.105584
C61	C	0.689453	-0.062740	0.070676
C62	C	0.730494	-0.037221	0.029626
C63	C	0.812578	-0.037207	-0.052464
C64	C	0.812569	0.013815	-0.052468
C65	C	0.771523	0.039319	-0.011425
C66	C	0.730485	0.013801	0.029622
C67	C	0.648411	-0.037239	0.111729
C68	C	0.648413	0.013783	0.111728
C69	C	0.689453	0.039302	0.070677
C70	C	0.689429	0.090327	0.070661
N71	N	0.730474	0.115842	0.029620
C72	C	0.771520	0.090338	-0.011423
C73	C	0.689464	-0.220905	0.070668
C74	C	0.689461	-0.271919	0.070662
C75	C	0.771555	-0.271907	-0.011426
C76	C	0.771553	-0.220888	-0.011424
C77	C	0.730509	-0.195389	0.029627
C78	C	0.771498	0.197489	-0.011428
C79	C	0.771482	0.248518	-0.011431
C80	C	0.689392	0.248498	0.070661
C81	C	0.689404	0.197476	0.070660
C82	C	0.730463	0.171971	0.029615
O83	O	0.654517	0.116766	0.105526
O84	O	0.806434	0.116726	-0.046317
C85	C	0.949537	0.474772	0.038497
C86	C	1.023886	0.470182	0.041510
C87	C	0.721601	0.501817	-0.189447
C88	C	0.718589	0.506406	-0.263796
C89	C	0.730502	0.648274	0.029621
C90	C	0.730512	0.702569	0.029622
C91	C	0.699277	0.535786	-0.686546
C92	C	0.702112	0.531468	-0.616684
C93	C	0.748033	0.461549	-0.537246
C94	C	0.791116	0.395943	-0.527671
C95	C	0.788275	0.400262	-0.597533
C96	C	0.758831	0.445119	-0.324083
C97	C	0.761670	0.440805	-0.254219
C98	C	0.672665	0.576330	-0.343237
C99	C	0.669833	0.580643	-0.413096
C100	C	0.712911	0.515038	-0.403516
C101	C	0.750934	0.457133	-0.465834
C102	C	0.710005	0.519454	-0.474927
C103	C	0.739347	0.474774	0.248682
C104	C	0.742358	0.470185	0.323030
C105	C	0.949509	0.314793	0.038493
C106	C	1.023848	0.255909	0.041505
C107	C	0.739318	0.314795	0.248678
C108	C	0.742320	0.255911	0.323025
C109	C	0.958382	0.301272	0.257557
C110	C	1.035732	0.237798	0.334918
C111	C	0.502565	0.675319	-0.198323
C112	C	0.425215	0.738793	-0.275684
C113	C	0.511438	0.661797	0.020741
C114	C	0.437099	0.720682	0.017729
C115	C	0.721629	0.661795	-0.189444
C116	C	0.718627	0.720680	-0.263791
C117	C	1.014248	0.233537	-0.001598
C118	C	1.084090	0.178217	0.001216
C119	C	1.163531	0.145265	0.047138
C120	C	1.173128	0.167642	0.090242
C121	C	1.103287	0.222965	0.087423
C122	C	0.788239	0.222977	0.402457
C123	C	0.791057	0.167656	0.472321
C124	C	0.747959	0.145266	0.462751
C125	C	0.702035	0.178206	0.383310
C126	C	0.699213	0.233530	0.313448
C127	C	1.113108	0.207989	0.330205
C128	C	1.185793	0.148356	0.402887
C129	C	1.181100	0.118529	0.480282
C130	C	1.103716	0.148343	0.484993
C131	C	1.031033	0.207979	0.412312
C132	C	0.347839	0.768608	-0.270971
C133	C	0.275154	0.828257	-0.343653
C134	C	0.279847	0.858087	-0.421048
C135	C	0.357231	0.828269	-0.425759
C136	C	0.429914	0.768624	-0.353077
C137	C	0.446698	0.743060	0.060825
C138	C	0.376856	0.798395	0.057992
C139	C	0.297415	0.831348	0.012067
C140	C	0.287818	0.808969	-0.031034
C141	C	0.357659	0.753639	-0.028205
C142	C	0.761734	0.743051	-0.254194
C143	C	0.758930	0.798371	-0.324044
C144	C	0.713013	0.831322	-0.403490
C145	C	0.669906	0.808946	-0.413085
C146	C	0.672715	0.753623	-0.343236
H147	H	0.511298	0.383872	0.098216
H148	H	0.511377	0.716232	0.098228
H149	H	0.361042	0.852564	-0.488782
H150	H	0.750264	0.100217	0.519644
H151	H	0.111099	0.346846	0.122520
H152	H	1.237818	0.140805	0.127631
H153	H	0.492915	0.744349	-0.356924
Cl154	Cl	0.647920	0.613943	-0.628730
Cl155	Cl	0.819465	0.701636	-0.154327
H156	H	0.666947	0.159968	0.375530
Cl157	Cl	0.637853	-0.188849	0.122274
Cl158	Cl	0.612098	0.668545	-0.512959
H159	H	0.828456	0.140842	0.536998
Cl160	Cl	0.914388	0.274954	-0.059340
Cl161	Cl	0.618509	0.658800	-0.355274
H162	H	0.661823	0.260339	0.248774
H163	H	0.804933	0.176727	-0.044850
Cl164	Cl	1.119029	0.245478	0.232918
Cl165	Cl	0.341918	0.731120	-0.173684
Cl166	Cl	0.612177	0.850385	-0.512966
Cl167	Cl	0.388941	0.826514	0.112186
H168	H	0.799064	0.383866	-0.189536
H169	H	0.240553	0.876401	0.009771
Cl170	Cl	0.188465	0.933068	-0.512412
H171	H	0.223128	0.835808	-0.068425
H172	H	1.248795	0.124087	0.399037
H173	H	1.240290	0.069970	0.539457
H174	H	0.212153	0.852525	-0.339801
H175	H	1.099908	0.124050	0.548017
Cl176	Cl	0.596817	-0.069310	0.163343
H177	H	-0.050356	0.592722	-0.038983
H178	H	0.968033	0.232242	0.416160
Cl179	Cl	0.842428	0.251110	0.414510
Cl180	Cl	0.618509	0.725513	-0.355315
H181	H	0.349832	0.735421	-0.063297
H182	H	0.828502	0.339014	-0.462987
H183	H	1.076259	0.160005	-0.033886
Cl184	Cl	0.842434	0.317789	-0.585492
H185	H	0.794033	0.816583	-0.316215
Cl186	Cl	0.709487	0.900873	-0.491293
H187	H	0.384564	0.391705	0.093069
H188	H	0.076376	0.584891	-0.033840
Cl189	Cl	0.187923	0.668547	-0.088771
Cl190	Cl	0.345606	0.658804	-0.082368
Cl191	Cl	0.273023	0.308045	0.148012
H192	H	0.804902	0.269295	-0.044862
Cl193	Cl	0.126075	0.607353	-0.048584
Cl194	Cl	0.334863	0.369242	0.107833
H195	H	0.793912	0.391699	-0.316271
H196	H	0.845991	0.034587	-0.085892
Cl197	Cl	0.864181	-0.069255	-0.104075
H198	H	0.804972	-0.200114	-0.044851
Cl199	Cl	0.652273	0.607350	-0.574790
H200	H	0.804979	-0.292683	-0.044845
Cl201	Cl	0.596812	0.045834	0.163340
Cl202	Cl	0.637798	0.165405	0.122256
Cl203	Cl	0.637794	0.280569	0.122256
Cl204	Cl	0.637851	-0.303983	0.122257
H205	H	1.220393	0.100218	0.049427
Cl206	Cl	0.808664	0.369237	-0.365966
Cl207	Cl	1.115370	0.251077	0.141623
Cl208	Cl	0.641549	0.623689	-0.786407
