data_functionalizedCrystal
_audit_creation_method	'MofGen! by Chris Wilmer'
_symmetry_space_group_name_H-M	'P1'
_symmetry_Int_Tables_number	1
_symmetry_cell_setting	triclinic
loop_
_symmetry_equiv_pos_as_xyz
  x,y,z
_cell_length_a	19.805407
_cell_length_b	16.120444
_cell_length_c	19.805399
_cell_angle_alpha	92.871785
_cell_angle_beta	89.982197
_cell_angle_gamma	92.923874
loop_
_atom_site_label
_atom_site_type_symbol
_atom_site_fract_x
_atom_site_fract_y
_atom_site_fract_z
Zn1	Zn	1.021068	-0.331988	-0.396351
Zn2	Zn	1.015243	-0.471406	-0.288901
Zn3	Zn	0.907882	-0.332004	-0.283180
Zn4	Zn	0.902108	-0.471356	-0.402049
O5	O	0.961575	-0.401688	-0.342621
O6	O	1.115011	-0.350496	-0.382108
O7	O	1.000980	-0.452943	-0.193427
O8	O	0.927750	-0.215336	-0.293414
O9	O	1.110732	-0.452927	-0.303164
O10	O	1.010908	-0.215324	-0.376560
O11	O	0.922102	-0.350524	-0.189224
O12	O	0.812400	-0.350475	-0.298939
O13	O	0.917910	-0.452840	-0.496009
O14	O	0.808158	-0.452856	-0.386272
O15	O	1.005309	-0.350447	-0.491823
O16	O	0.995381	-0.588066	-0.308690
O17	O	0.912262	-0.588029	-0.391819
C18	C	0.785720	-0.401662	-0.342603
C19	C	0.710488	-0.401671	-0.342612
C20	C	0.677369	-0.348430	-0.383788
C21	C	0.606680	-0.348435	-0.383791
C22	C	0.569112	-0.401685	-0.342621
C23	C	0.602236	-0.454928	-0.301441
C24	C	0.672923	-0.454919	-0.301435
C25	C	0.317161	-0.454966	-0.301463
C26	C	0.246468	-0.454973	-0.301474
C27	C	0.250918	-0.348481	-0.383819
C28	C	0.321605	-0.348472	-0.383813
C29	C	0.354723	-0.401712	-0.342631
C30	C	0.431372	-0.401706	-0.342627
C31	C	0.492464	-0.401696	-0.342628
C32	C	0.952581	-0.618298	-0.351508
C33	C	0.948796	-0.710964	-0.355333
C34	C	0.981379	-0.921905	-0.322925
C35	C	0.941897	-0.880621	-0.362323
C36	C	0.945736	-0.786215	-0.358433
C37	C	0.977540	-1.016319	-0.326815
C38	C	1.138117	-0.401715	-0.342639
C39	C	1.213348	-0.401727	-0.342646
C40	C	0.961615	-0.401636	-0.519161
C41	C	0.961632	-0.401614	-0.594392
C42	C	0.970623	-0.184234	-0.333713
C43	C	0.974478	-0.091567	-0.329917
C44	C	1.007142	-0.348295	-0.627558
C45	C	1.007150	-0.348271	-0.698245
C46	C	0.961651	-0.401570	-0.735766
C47	C	0.916136	-0.454891	-0.702596
C48	C	0.916126	-0.454910	-0.631910
C49	C	0.916178	-0.454813	-0.987666
C50	C	0.916193	-0.454792	-1.058357
C51	C	1.007202	-0.348174	-1.054002
C52	C	1.007192	-0.348193	-0.983315
C53	C	0.961675	-0.401511	-0.950151
C54	C	0.961666	-0.401535	-0.873504
C55	C	0.961663	-0.401550	-0.812413
C56	C	0.961577	-0.401681	-0.166764
C57	C	0.961700	-0.401468	-0.091524
H58	H	0.215882	-0.498338	-0.267946
C59	C	0.718036	-0.290525	-0.428512
C60	C	0.673899	-0.243885	-0.464558
C61	C	0.711335	-0.190524	-0.505758
H62	H	0.744305	-0.322368	-0.459325
H63	H	0.747096	-0.254108	-0.401188
H64	H	0.644851	-0.280297	-0.491880
H65	H	0.647629	-0.212024	-0.433762
H66	H	0.740395	-0.154107	-0.478435
H67	H	0.737603	-0.222374	-0.536567
H68	H	0.681394	-0.158866	-0.530216
C69	C	0.866867	-0.512754	-0.951589
C70	C	0.902950	-0.566202	-0.913187
C71	C	0.857543	-0.619585	-0.879937
H72	H	0.839759	-0.544569	-0.983993
H73	H	0.838703	-0.480891	-0.922669
H74	H	0.931102	-0.598062	-0.942105
H75	H	0.930055	-0.534410	-0.880771
H76	H	0.829379	-0.587721	-0.851017
H77	H	0.830437	-0.651394	-0.912346
H78	H	0.882018	-0.655850	-0.853873
H79	H	1.018062	-0.886352	-0.286275
H80	H	0.879140	-0.498196	-1.088906
H81	H	0.223945	-0.305128	-0.417349
C82	C	0.892869	-0.927920	-0.411148
C83	C	0.826750	-0.906881	-0.395503
C84	C	0.781569	-0.950432	-0.440466
H85	H	0.896663	-0.986003	-0.407342
H86	H	0.903271	-0.913636	-0.456070
H87	H	0.816351	-0.921171	-0.350592
H88	H	0.822934	-0.848806	-0.399313
H89	H	0.791972	-0.936149	-0.485389
H90	H	0.785370	-1.008513	-0.436658
H91	H	0.736704	-0.936158	-0.429862
C92	C	0.561490	-0.512643	-0.256625
C93	C	0.579400	-0.494366	-0.188928
C94	C	0.541875	-0.547511	-0.147626
H95	H	0.570730	-0.568702	-0.268667
H96	H	0.514641	-0.505020	-0.262480
H97	H	0.626239	-0.501995	-0.183077
H98	H	0.570158	-0.438316	-0.176866
H99	H	0.495026	-0.539889	-0.153481
H100	H	0.551118	-0.603568	-0.159673
H101	H	0.554017	-0.535113	-0.101688
C102	C	0.866770	-0.512895	-0.743251
C103	C	0.878061	-0.595389	-0.729422
C104	C	0.832593	-0.648847	-0.766853
H105	H	0.873248	-0.505363	-0.790114
H106	H	0.821785	-0.500739	-0.731148
H107	H	0.923035	-0.607540	-0.741530
H108	H	0.871578	-0.602947	-0.682566
H109	H	0.787608	-0.636691	-0.754750
H110	H	0.839074	-0.641307	-0.813714
H111	H	0.840243	-0.704824	-0.757471
C112	C	1.056725	-0.290379	-1.089979
C113	C	1.122935	-0.308566	-1.073554
C114	C	1.168572	-0.255354	-1.106689
H115	H	1.049241	-0.234335	-1.076124
H116	H	1.050261	-0.298003	-1.137457
H117	H	1.129396	-0.300935	-1.026086
H118	H	1.130440	-0.364600	-1.087411
H119	H	1.162108	-0.262978	-1.154167
H120	H	1.161082	-0.199314	-1.092831
H121	H	1.213500	-0.267692	-1.095555
C122	C	1.056465	-0.290284	-0.586855
C123	C	1.045146	-0.207790	-0.600659
C124	C	1.090562	-0.154323	-0.563172
H125	H	1.101465	-0.302377	-0.598915
H126	H	1.049940	-0.297873	-0.539997
H127	H	1.051676	-0.200205	-0.647506
H128	H	1.000155	-0.195672	-0.588596
H129	H	1.084038	-0.161912	-0.516314
H130	H	1.135560	-0.166424	-0.575234
H131	H	1.082885	-0.098345	-0.572527
H132	H	0.344117	-0.498318	-0.267931
H133	H	1.044210	-0.304855	-0.725245
H134	H	0.879061	-0.498320	-0.604907
C135	C	1.056477	-0.290262	-0.942496
C136	C	1.020360	-0.236848	-0.899715
C137	C	1.065735	-0.183469	-0.862099
H138	H	1.083596	-0.258422	-0.972296
H139	H	1.084633	-0.322130	-0.916187
H140	H	0.992215	-0.204984	-0.926022
H141	H	0.993243	-0.268665	-0.869902
H142	H	1.093891	-0.215337	-0.835790
H143	H	1.092851	-0.151635	-0.891905
H144	H	1.041236	-0.147227	-0.833064
C145	C	0.570599	-0.290668	-0.428430
C146	C	0.500654	-0.302054	-0.419612
C147	C	0.467395	-0.248845	-0.460718
H148	H	0.581614	-0.302897	-0.474418
H149	H	0.584463	-0.234614	-0.416298
H150	H	0.486795	-0.358095	-0.431748
H151	H	0.489619	-0.289819	-0.373633
H152	H	0.481259	-0.192792	-0.448586
H153	H	0.478415	-0.261079	-0.506703
H154	H	0.419934	-0.256558	-0.454736
C155	C	0.362275	-0.290564	-0.428533
C156	C	0.318141	-0.243921	-0.464580
C157	C	0.355581	-0.190557	-0.505774
H158	H	0.388547	-0.322406	-0.459346
H159	H	0.391333	-0.254150	-0.401206
H160	H	0.289095	-0.280331	-0.491906
H161	H	0.291869	-0.212063	-0.433784
H162	H	0.384639	-0.154142	-0.478447
H163	H	0.381851	-0.222405	-0.536583
H164	H	0.325642	-0.158897	-0.530233
C165	C	0.708843	-0.512867	-0.256822
C166	C	0.688252	-0.595382	-0.274850
C167	C	0.721333	-0.648786	-0.233771
H168	H	0.697774	-0.500705	-0.210839
H169	H	0.756326	-0.505290	-0.262723
H170	H	0.640779	-0.602955	-0.268944
H171	H	0.699321	-0.607570	-0.320827
H172	H	0.768816	-0.641209	-0.239671
H173	H	0.710261	-0.636616	-0.187789
H174	H	0.707371	-0.704778	-0.246000
