data_functionalizedCrystal
_audit_creation_method	'MofGen! by Chris Wilmer'
_symmetry_space_group_name_H-M	'P1'
_symmetry_Int_Tables_number	1
_symmetry_cell_setting	triclinic
loop_
_symmetry_equiv_pos_as_xyz
  x,y,z
_cell_length_a	17.640112
_cell_length_b	17.639999
_cell_length_c	17.639252
_cell_angle_alpha	65.700204
_cell_angle_beta	87.852337
_cell_angle_gamma	87.810509
loop_
_atom_site_label
_atom_site_type_symbol
_atom_site_fract_x
_atom_site_fract_y
_atom_site_fract_z
Zn1	Zn	1.251327	0.023139	0.189691
Zn2	Zn	1.251276	0.188764	0.024069
Zn3	Zn	1.106777	0.075338	0.076156
Zn4	Zn	1.148354	0.178246	0.179110
O5	O	1.189433	0.116372	0.117257
O6	O	1.354888	0.027666	0.150350
O7	O	1.214688	0.199965	-0.081422
O8	O	1.108573	-0.043968	0.117444
O9	O	1.354851	0.149350	0.028668
O10	O	1.214773	-0.082319	0.200857
O11	O	1.108525	0.116631	-0.043153
O12	O	1.008725	0.106433	0.107184
O13	O	1.179434	0.131424	0.292914
O14	O	1.039271	0.182039	0.182824
O15	O	1.255088	0.017467	0.300687
O16	O	1.255002	0.299751	0.018409
O17	O	1.179385	0.292024	0.132317
C18	C	0.997144	0.148760	0.149509
C19	C	0.914887	0.162630	0.163321
C20	C	0.564740	0.010983	0.012337
C21	C	0.487452	0.024031	0.025322
C22	C	0.519308	0.102942	0.103876
C23	C	0.596600	0.089898	0.090900
C24	C	0.619309	0.043919	0.045129
C25	C	0.651170	0.122834	0.123693
C26	C	0.728456	0.109794	0.110714
C27	C	0.751172	0.063819	0.064943
C28	C	0.696595	0.030880	0.032151
C29	C	0.628459	0.168818	0.169459
C30	C	0.683029	0.201753	0.202251
C31	C	0.760316	0.188709	0.189278
C32	C	0.783032	0.142734	0.143507
C33	C	0.814892	0.221649	0.222071
C34	C	0.892178	0.208609	0.209092
C35	C	0.860318	0.129695	0.130528
C36	C	1.221723	0.325019	0.068577
C37	C	1.235608	0.414262	0.047767
C38	C	1.084179	0.687895	0.275591
C39	C	1.097224	0.771758	0.256011
C40	C	1.176038	0.779705	0.137492
C41	C	1.163003	0.695840	0.157064
C42	C	1.117072	0.649942	0.226114
C43	C	1.195896	0.657886	0.107587
C44	C	1.182859	0.574030	0.127156
C45	C	1.136928	0.528127	0.196201
C46	C	1.104034	0.566085	0.245682
C47	C	1.241823	0.703788	0.038534
C48	C	1.274716	0.665834	-0.010942
C49	C	1.261683	0.581975	0.008629
C50	C	1.215752	0.536072	0.077675
C51	C	1.294577	0.544016	-0.040852
C52	C	1.281539	0.460160	-0.021283
C53	C	1.202715	0.452215	0.097243
C54	C	1.382474	0.083858	0.084879
C55	C	1.464737	0.070003	0.071081
C56	C	1.221904	0.067450	0.326760
C57	C	1.235741	0.046602	0.416037
C58	C	1.157017	0.906907	0.166141
C59	C	1.143143	0.817657	0.186974
C60	C	1.084334	0.274695	0.689418
C61	C	1.097350	0.255092	0.773308
C62	C	1.176122	0.136439	0.781391
C63	C	1.163109	0.156029	0.697502
C64	C	1.117216	0.225158	0.651521
C65	C	1.195991	0.106493	0.659605
C66	C	1.182983	0.126084	0.575721
C67	C	1.137093	0.195212	0.529735
C68	C	1.104207	0.244750	0.567638
C69	C	1.241889	0.037367	0.705585
C70	C	1.274770	-0.012169	0.667688
C71	C	1.261758	0.007419	0.583804
C72	C	1.215868	0.076546	0.537818
C73	C	1.294643	-0.042119	0.545901
C74	C	1.281635	-0.022528	0.462018
C75	C	1.202860	0.096138	0.453934
C76	C	1.157083	0.165125	0.908565
C77	C	1.143236	0.185979	0.819288
H78	H	0.565527	0.179433	0.180024
C79	C	1.256196	0.015817	0.797860
N80	N	1.266970	-0.000415	0.867363
C81	C	1.152176	0.401727	0.173193
N82	N	1.114106	0.363701	0.230390
C83	C	1.061172	0.309590	0.814992
N84	N	1.033923	0.350637	0.846388
C85	C	1.317805	-0.077021	0.420329
N86	N	1.345050	-0.118066	0.388929
C87	C	1.053721	0.320795	0.517055
N88	N	1.015698	0.378072	0.478955
C89	C	1.053496	0.515597	0.321632
N90	N	1.015426	0.477571	0.378830
C91	C	1.325245	-0.088215	0.718278
N92	N	1.363258	-0.145498	0.756384
H93	H	1.332016	-0.098399	0.583348
H94	H	0.583230	-0.026472	-0.024920
C95	C	0.836189	0.049473	0.050669
N96	N	0.900224	0.038666	0.039920
C97	C	0.721579	-0.019704	-0.018196
N98	N	0.740398	-0.057800	-0.056118
H99	H	1.165468	0.152414	0.416502
C100	C	0.427425	-0.012206	-0.010755
N101	N	0.382213	-0.039498	-0.037929
C102	C	1.226558	0.830203	0.061536
N103	N	1.264611	0.868237	0.004326
H104	H	1.046783	0.650520	0.331823
H105	H	0.878808	0.092239	0.093272
H106	H	0.500806	0.140381	0.141140
C107	C	1.325236	0.716333	-0.086898
N108	N	1.363288	0.754367	-0.144108
H109	H	0.796390	0.259092	0.259330
C110	C	1.061039	0.813501	0.310448
N111	N	1.033785	0.844943	0.351450
H112	H	1.046942	0.330970	0.651986
H113	H	1.126308	0.459848	0.212128
H114	H	0.664528	0.239192	0.239515
C115	C	1.122782	0.216762	0.437460
N116	N	1.112002	0.232993	0.367959
H117	H	1.252439	0.772068	0.022606
H118	H	0.936611	0.235428	0.235796
H119	H	1.331968	0.581401	-0.097077
C120	C	1.317730	0.418406	-0.075705
N121	N	1.344991	0.386957	-0.116696
H122	H	1.213491	0.080156	0.818839
