data_functionalizedCrystal
_audit_creation_method	'MofGen! by Chris Wilmer'
_symmetry_space_group_name_H-M	'P1'
_symmetry_Int_Tables_number	1
_symmetry_cell_setting	triclinic
loop_
_symmetry_equiv_pos_as_xyz
  x,y,z
_cell_length_a	9.065215
_cell_length_b	8.140239
_cell_length_c	9.065218
_cell_angle_alpha	89.998670
_cell_angle_beta	94.984709
_cell_angle_gamma	90.000939
loop_
_atom_site_label
_atom_site_type_symbol
_atom_site_fract_x
_atom_site_fract_y
_atom_site_fract_z
O1	O	-1.960398	-0.136587	0.216334
O2	O	-1.460398	0.363413	0.716334
O3	O	-1.531112	-0.136594	0.234085
O4	O	-1.031112	0.363406	0.734085
O5	O	-1.754628	-0.136587	0.010567
O6	O	-1.254628	0.363413	0.510567
O7	O	-1.736882	-0.136594	0.439852
O8	O	-1.236882	0.363406	0.939852
O9	O	-1.754621	0.136640	0.010565
O10	O	-1.254621	0.636640	0.510565
O11	O	-1.531105	0.136633	0.234083
O12	O	-1.031105	0.636633	0.734083
O13	O	-1.960390	0.136640	0.216332
O14	O	-1.460390	0.636640	0.716332
Zn15	Zn	-1.745747	0.180017	0.225207
Zn16	Zn	-1.245747	0.680017	0.725207
Zn17	Zn	-1.745756	-0.179971	0.225209
Zn18	Zn	-1.245756	0.320029	0.725209
O19	O	-1.736875	0.136633	0.439850
O20	O	-1.236875	0.636633	0.939850
C21	C	-1.476122	0.000019	0.232379
C22	C	-0.976122	0.500019	0.732379
C23	C	-1.312279	0.000016	0.227281
C24	C	-0.812279	0.500016	0.727281
C25	C	-1.752919	0.000024	-0.044421
C26	C	-1.252919	0.500024	0.455579
C27	C	-1.747819	0.000016	-0.208264
C28	C	-1.247819	0.500016	0.291736
C29	C	-2.015381	0.000024	0.218038
C30	C	-1.515381	0.500024	0.718038
C31	C	-2.179224	0.000016	0.223136
C32	C	-1.679224	0.500016	0.723136
N33	N	-1.745751	0.425700	0.225205
N34	N	-1.245751	0.925700	0.725205
N35	N	-1.745763	-0.425654	0.225200
N36	N	-1.245763	0.074346	0.725200
C37	C	-1.738584	0.000019	0.494837
C38	C	-1.238584	0.500019	0.994837
C39	C	-1.743683	0.000016	0.658680
C40	C	-1.243683	0.500016	1.158680
