data_functionalizedCrystal
_audit_creation_method	'MofGen! by Chris Wilmer'
_symmetry_space_group_name_H-M	'P1'
_symmetry_Int_Tables_number	1
_symmetry_cell_setting	triclinic
loop_
_symmetry_equiv_pos_as_xyz
  x,y,z
_cell_length_a	18.050588
_cell_length_b	12.759401
_cell_length_c	12.759393
_cell_angle_alpha	90.020011
_cell_angle_beta	89.966433
_cell_angle_gamma	89.974360
loop_
_atom_site_label
_atom_site_type_symbol
_atom_site_fract_x
_atom_site_fract_y
_atom_site_fract_z
Zn1	Zn	-0.295693	-1.606147	-0.594009
Zn2	Zn	0.204307	-1.106147	-0.094009
Zn3	Zn	-0.419904	-1.605996	-0.418323
Zn4	Zn	0.080096	-1.105996	0.081677
Zn5	Zn	-0.295723	-1.430449	-0.418344
Zn6	Zn	0.204277	-0.930449	0.081656
Zn7	Zn	-0.419838	-1.430392	-0.593960
Zn8	Zn	0.080162	-0.930392	-0.093960
O9	O	-0.357789	-1.518246	-0.506159
O10	O	0.142211	-1.018246	-0.006159
O11	O	-0.312185	-1.753148	-0.570716
O12	O	0.187815	-1.253148	-0.070716
O13	O	-0.403471	-1.582669	-0.271305
O14	O	0.096529	-1.082669	0.228695
O15	O	-0.191795	-1.453843	-0.441676
O16	O	0.308205	-0.953843	0.058324
O17	O	-0.403442	-1.753037	-0.441640
O18	O	0.096558	-1.253037	0.058360
O19	O	-0.191773	-1.582927	-0.570736
O20	O	0.308227	-1.082927	-0.070736
O21	O	-0.312236	-1.453696	-0.271320
O22	O	0.187764	-0.953696	0.228680
O23	O	-0.312172	-1.283420	-0.441628
O24	O	0.187828	-0.783420	0.058372
O25	O	-0.403329	-1.453746	-0.740988
O26	O	0.096671	-0.953746	-0.240988
O27	O	-0.403358	-1.283378	-0.570652
O28	O	0.096642	-0.783378	-0.070652
O29	O	-0.312121	-1.582872	-0.741024
O30	O	0.187879	-1.082872	-0.241024
O31	O	-0.523819	-1.582614	-0.441592
O32	O	-0.023819	-1.082614	0.058408
O33	O	-0.523771	-1.453599	-0.570632
O34	O	-0.023771	-0.953599	-0.070632
C35	C	-0.357762	-1.245278	-0.506138
C36	C	0.142238	-0.745278	-0.006138
C37	C	-0.357768	-1.128502	-0.506153
C38	C	0.142232	-0.628502	-0.006153
C39	C	-0.310338	-1.073691	-0.573466
C40	C	0.189662	-0.573691	-0.073466
C41	C	-0.310349	-0.963967	-0.573470
C42	C	0.189651	-0.463967	-0.073470
C43	C	-0.405225	-0.963875	-0.438845
C44	C	0.094775	-0.463875	0.061155
C45	C	-0.405210	-1.073597	-0.438837
C46	C	0.094790	-0.573597	0.061163
C47	C	-0.262896	-1.128596	-0.640782
C48	C	0.237104	-0.628596	-0.140782
C49	C	-0.215464	-1.073785	-0.708101
C50	C	0.284536	-0.573785	-0.208101
C51	C	-0.215474	-0.964061	-0.708104
C52	C	0.284526	-0.464061	-0.208104
C53	C	-0.262917	-0.909148	-0.640789
C54	C	0.237083	-0.409148	-0.140789
C55	C	-0.550742	-1.518113	-0.506128
C56	C	-0.050742	-1.018113	-0.006128
C57	C	-0.633287	-1.518152	-0.506149
C58	C	-0.133287	-1.018152	-0.006149
C59	C	-0.882114	-1.448104	-0.576321
C60	C	-0.382114	-0.948104	-0.076321
C61	C	-0.832646	-1.543904	-0.602100
C62	C	-0.332646	-1.043904	-0.102100
C63	C	-0.930408	-1.518370	-0.506208
C64	C	-0.430408	-1.018370	-0.006208
C65	C	-0.832794	-1.422467	-0.480449
C66	C	-0.332794	-0.922467	0.019551
C67	C	-0.784423	-1.518258	-0.506182
C68	C	-0.284423	-1.018258	-0.006182
C69	C	-0.882027	-1.614222	-0.532036
C70	C	-0.382027	-1.114222	-0.032036
C71	C	-0.882180	-1.492720	-0.410341
C72	C	-0.382180	-0.992720	0.089659
C73	C	-0.832734	-1.588587	-0.436083
C74	C	-0.332734	-1.088587	0.063917
C75	C	-1.014506	-1.518433	-0.506225
C76	C	-0.514506	-1.018433	-0.006225
C77	C	-0.700326	-1.518205	-0.506164
C78	C	-0.200326	-1.018205	-0.006164
C79	C	-0.164084	-1.518408	-0.506214
C80	C	0.335916	-1.018408	-0.006214
C81	C	-0.081538	-1.518477	-0.506237
C82	C	0.418462	-1.018477	-0.006237
C83	C	-0.357715	-1.518319	-0.780192
C84	C	0.142285	-1.018319	-0.280192
C85	C	-0.357683	-1.518351	-0.896969
C86	C	0.142317	-1.018351	-0.396969
C87	C	-0.357808	-0.792279	-0.506175
C88	C	0.142192	-0.292279	-0.006175
C89	C	-0.357793	-0.909056	-0.506165
C90	C	0.142207	-0.409056	-0.006165
C91	C	-0.310186	-1.585596	-0.951852
C92	C	0.189814	-1.085596	-0.451852
C93	C	-0.310159	-1.585621	-1.061576
C94	C	0.189841	-1.085621	-0.561576
C95	C	-0.405132	-1.451152	-1.061525
C96	C	0.094868	-0.951152	-0.561525
C97	C	-0.405155	-1.451123	-0.951803
C98	C	0.094845	-0.951123	-0.451803
C99	C	-0.262714	-1.652824	-0.897018
C100	C	0.237286	-1.152824	-0.397018
C101	C	-0.215214	-1.720076	-0.951900
C102	C	0.284786	-1.220076	-0.451900
C103	C	-0.215187	-1.720101	-1.061625
C104	C	0.284813	-1.220101	-0.561625
C105	C	-0.262660	-1.652874	-1.116466
C106	C	0.237340	-1.152874	-0.616466
C107	C	-0.357811	-1.518233	-0.233192
C108	C	0.142189	-1.018233	0.266808
C109	C	-0.357633	-1.518405	-0.116415
C110	C	0.142367	-1.018405	0.383585
H111	H	-0.262883	-1.217939	-0.640786
H112	H	0.237117	-0.717939	-0.140786
H113	H	-0.176846	-0.919436	-0.762911
H114	H	0.323154	-0.419436	-0.262911
H115	H	-0.443782	-1.396419	-1.106186
H116	H	0.056218	-0.896419	-0.606186
H117	H	-0.443852	-0.919156	-0.384043
H118	H	0.056148	-0.419156	0.115957
H119	H	-0.903952	-1.471037	-0.329303
H120	H	-0.403952	-0.971037	0.170697
H121	H	-0.443832	-1.118225	-0.384025
H122	H	0.056168	-0.618225	0.115975
H123	H	-0.903793	-1.388803	-0.635671
H124	H	-0.403793	-0.888803	-0.135671
H125	H	-0.811164	-1.341410	-0.458675
H126	H	-0.311164	-0.841410	0.041325
H127	H	-0.176833	-1.118502	-0.762899
H128	H	0.323167	-0.618502	-0.262899
H129	H	-0.811190	-1.648029	-0.376779
H130	H	-0.311190	-1.148029	0.123221
H131	H	-0.262732	-1.652813	-0.807675
H132	H	0.237268	-1.152813	-0.307675
H133	H	-0.262906	-0.819803	-0.640776
H134	H	0.237094	-0.319803	-0.140776
H135	H	-0.810890	-1.565559	-0.683162
H136	H	-0.310890	-1.065559	-0.183162
H137	H	-0.443819	-1.396350	-0.907117
H138	H	0.056181	-0.896350	-0.407117
H139	H	-0.176559	-1.774802	-0.907241
H140	H	0.323441	-1.274802	-0.407241
H141	H	-0.903565	-1.695302	-0.553905
H142	H	-0.403565	-1.195302	-0.053905
H143	H	-0.262626	-1.652888	-1.205811
H144	H	0.237374	-1.152888	-0.705811
H145	H	-0.176505	-1.774852	-1.106307
H146	H	0.323495	-1.274852	-0.606307
