data_functionalizedCrystal
_audit_creation_method	'MofGen! by Chris Wilmer'
_symmetry_space_group_name_H-M	'P1'
_symmetry_Int_Tables_number	1
_symmetry_cell_setting	triclinic
loop_
_symmetry_equiv_pos_as_xyz
  x,y,z
_cell_length_a	14.971482
_cell_length_b	11.792241
_cell_length_c	13.448316
_cell_angle_alpha	90.003796
_cell_angle_beta	90.004522
_cell_angle_gamma	83.903012
loop_
_atom_site_label
_atom_site_type_symbol
_atom_site_fract_x
_atom_site_fract_y
_atom_site_fract_z
O1	O	1.187540	0.147885	0.082679
O2	O	1.687540	0.647885	0.582679
O3	O	0.927211	0.165601	0.082684
O4	O	1.427211	0.665601	0.582684
O5	O	1.063693	-0.008468	0.082675
O6	O	1.563693	0.491532	0.582675
O7	O	1.051058	0.321954	0.082689
O8	O	1.551058	0.821954	0.582689
O9	O	1.063679	-0.008470	-0.082709
O10	O	1.563679	0.491530	0.417291
O11	O	0.927197	0.165600	-0.082700
O12	O	1.427197	0.665600	0.417300
O13	O	1.187526	0.147883	-0.082704
O14	O	1.687526	0.647883	0.417296
Cu15	Cu	1.057360	0.156741	-0.097803
Cu16	Cu	1.557360	0.656741	0.402197
Cu17	Cu	1.057377	0.156743	0.097783
Cu18	Cu	1.557377	0.656743	0.597783
O19	O	1.051044	0.321953	-0.082695
O20	O	1.551044	0.821953	0.417305
C21	C	0.893876	0.164809	-0.000007
C22	C	1.393876	0.664809	0.499993
C23	C	0.794569	0.162437	-0.000005
C24	C	1.294569	0.662437	0.499995
C25	C	0.747912	0.161319	-0.090157
C26	C	1.247912	0.661319	0.409843
C27	C	0.654605	0.159072	-0.090158
C28	C	1.154605	0.659072	0.409842
C29	C	0.607955	0.157951	-0.000007
C30	C	1.107955	0.657951	0.499993
C31	C	0.654618	0.159066	0.090152
C32	C	1.154618	0.659066	0.590152
C33	C	0.747925	0.161305	0.090152
C34	C	1.247925	0.661305	0.590152
C35	C	0.460138	0.154402	0.090145
C36	C	0.960138	0.654402	0.590145
C37	C	0.366825	0.152166	0.090146
C38	C	0.866825	0.652166	0.590146
C39	C	0.366818	0.152170	-0.090165
C40	C	0.866818	0.652170	0.409835
C41	C	0.460124	0.154408	-0.090165
C42	C	0.960124	0.654408	0.409835
C43	C	0.506781	0.155525	-0.000006
C44	C	1.006781	0.655525	0.499994
C45	C	1.062892	-0.050755	-0.000017
C46	C	1.562892	0.449245	0.499983
C47	C	1.060517	-0.176753	-0.000016
C48	C	1.560517	0.323247	0.499984
C49	C	1.056149	-0.407437	0.000001
C50	C	1.556149	0.092563	0.500001
C51	C	1.058576	-0.279068	-0.000008
C52	C	1.558576	0.220932	0.499992
C53	C	1.220861	0.148675	-0.000011
C54	C	1.720861	0.648675	0.499989
C55	C	1.320168	0.151048	-0.000006
C56	C	1.820168	0.651048	0.499994
C57	C	1.051845	0.364240	-0.000001
C58	C	1.551845	0.864240	0.499999
C59	C	1.054220	0.490238	0.000004
C60	C	1.554220	0.990238	0.500004
N61	N	1.057356	0.156739	-0.235367
N62	N	1.557356	0.656739	0.264633
C63	C	1.111934	0.225692	-0.287401
C64	C	1.611934	0.725692	0.212599
C65	C	1.111945	0.225687	-0.391504
C66	C	1.611945	0.725687	0.108496
C67	C	1.057372	0.156735	-0.443572
C68	C	1.557372	0.656735	0.056428
C69	C	1.002791	0.087774	-0.391530
C70	C	1.502791	0.587774	0.108470
C71	C	1.002786	0.087774	-0.287429
C72	C	1.502786	0.587774	0.212571
C73	C	1.002806	0.087782	-0.608511
C74	C	1.502806	0.587782	-0.108511
C75	C	1.002810	0.087784	-0.712619
C76	C	1.502810	0.587784	-0.212619
C77	C	1.111965	0.225695	-0.712586
C78	C	1.611965	0.725695	-0.212586
C79	C	1.111959	0.225695	-0.608484
C80	C	1.611959	0.725695	-0.108484
C81	C	1.057377	0.156736	-0.556450
C82	C	1.557377	0.656736	-0.056450
N83	N	1.057389	0.156736	0.235347
N84	N	1.557389	0.656736	0.735347
H85	H	0.328825	0.151261	-0.163576
H86	H	0.828825	0.651261	0.336424
H87	H	0.616623	0.158143	-0.163569
H88	H	1.116623	0.658143	0.336431
Cl89	Cl	1.180560	0.312377	-0.456914
Cl90	Cl	1.680560	0.812377	0.043086
H91	H	0.498104	0.155328	-0.163575
H92	H	0.998104	0.655328	0.336425
Cl93	Cl	0.934186	0.001089	-0.456987
Cl94	Cl	1.434186	0.501089	0.043013
Cl95	Cl	0.934179	0.001075	-0.222015
Cl96	Cl	1.434179	0.501075	0.277985
Cl97	Cl	0.518791	0.155804	0.203490
Cl98	Cl	1.018791	0.655804	0.703490
Cl99	Cl	0.806548	0.162735	-0.203498
Cl100	Cl	1.306548	0.662735	0.296502
H101	H	1.156369	0.281848	-0.245015
H102	H	1.656369	0.781848	0.254985
H103	H	1.156393	0.281847	-0.566094
H104	H	1.656393	0.781847	-0.066094
Cl105	Cl	0.806580	0.162705	0.203491
Cl106	Cl	1.306580	0.662705	0.703491
Cl107	Cl	0.308180	0.150754	0.203481
Cl108	Cl	0.808180	0.650754	0.703481
H109	H	0.616629	0.158145	0.163555
H110	H	1.116629	0.658145	0.663555
Cl111	Cl	1.180587	0.312382	-0.777999
Cl112	Cl	1.680587	0.812382	-0.277999
Cl113	Cl	0.934208	0.001092	-0.778074
Cl114	Cl	1.434208	0.501092	-0.278074
H115	H	0.958360	0.031626	-0.566148
H116	H	1.458360	0.531626	-0.066148
