data_functionalizedCrystal
_audit_creation_method	'MofGen! by Chris Wilmer'
_symmetry_space_group_name_H-M	'P1'
_symmetry_Int_Tables_number	1
_symmetry_cell_setting	triclinic
loop_
_symmetry_equiv_pos_as_xyz
  x,y,z
_cell_length_a	25.639239
_cell_length_b	25.639242
_cell_length_c	25.639234
_cell_angle_alpha	90.030783
_cell_angle_beta	89.975095
_cell_angle_gamma	89.966288
loop_
_atom_site_label
_atom_site_type_symbol
_atom_site_fract_x
_atom_site_fract_y
_atom_site_fract_z
Zn1	Zn	-0.208252	-0.799262	-0.295762
Zn2	Zn	0.291748	-0.299262	0.204238
Zn3	Zn	-0.295680	-0.799175	-0.208327
Zn4	Zn	0.204320	-0.299175	0.291673
Zn5	Zn	-0.208253	-0.711828	-0.208324
Zn6	Zn	0.291747	-0.211828	0.291676
Zn7	Zn	-0.295651	-0.711784	-0.295714
Zn8	Zn	0.204349	-0.211784	0.204286
O9	O	-0.251959	-0.755512	-0.252032
O10	O	0.248041	-0.255512	0.247968
O11	O	-0.219861	-0.872416	-0.284185
O12	O	0.280139	-0.372416	0.215815
O13	O	-0.284096	-0.787570	-0.135161
O14	O	0.215904	-0.287570	0.364839
O15	O	-0.135088	-0.723481	-0.219942
O16	O	0.364912	-0.223481	0.280058
O17	O	-0.284095	-0.872351	-0.219946
O18	O	0.215905	-0.372351	0.280054
O19	O	-0.135087	-0.787719	-0.284182
O20	O	0.364913	-0.287719	0.215818
O21	O	-0.219863	-0.723396	-0.135159
O22	O	0.280137	-0.223396	0.364841
O23	O	-0.219835	-0.638656	-0.219896
O24	O	0.280165	-0.138656	0.280104
O25	O	-0.284044	-0.723406	-0.368886
O26	O	0.215956	-0.223406	0.131114
O27	O	-0.284045	-0.638624	-0.284101
O28	O	0.215955	-0.138624	0.215899
O29	O	-0.219833	-0.787676	-0.368921
O30	O	0.280167	-0.287676	0.131079
O31	O	-0.368841	-0.787527	-0.219900
O32	O	0.131159	-0.287527	0.280100
O33	O	-0.368820	-0.723321	-0.284103
O34	O	0.131180	-0.223321	0.215897
C35	C	-0.251937	-0.619669	-0.251993
C36	C	0.248063	-0.119669	0.248007
C37	C	-0.251940	-0.561555	-0.251989
C38	C	0.248060	-0.061555	0.248011
C39	C	-0.387801	-0.755424	-0.252008
C40	C	0.112199	-0.255424	0.247992
C41	C	-0.445916	-0.755434	-0.252015
C42	C	0.054084	-0.255434	0.247985
C43	C	-0.285444	-0.201184	-0.285418
C44	C	0.214556	0.298816	0.214582
C45	C	-0.285447	-0.146580	-0.285425
C46	C	0.214553	0.353420	0.214575
O47	O	-0.313910	-0.118337	-0.313824
O48	O	0.186090	0.381663	0.186176
N49	N	-0.251968	-0.119273	-0.252050
N50	N	0.248032	0.380727	0.247950
C51	C	-0.218480	-0.146573	-0.218670
C52	C	0.281520	0.353427	0.281330
O53	O	-0.190003	-0.118332	-0.190283
O54	O	0.309997	0.381668	0.309717
C55	C	-0.218475	-0.201176	-0.218666
C56	C	0.281525	0.298824	0.281334
C57	C	-0.251960	-0.228481	-0.252039
C58	C	0.248040	0.271519	0.247961
C59	C	-0.318927	-0.228489	-0.318789
C60	C	0.181073	0.271511	0.181211
C61	C	-0.318924	-0.283089	-0.318781
C62	C	0.181076	0.216911	0.181219
C63	C	-0.285440	-0.310385	-0.285402
C64	C	0.214560	0.189615	0.214598
C65	C	-0.251958	-0.283081	-0.252032
C66	C	0.248042	0.216919	0.247968
C67	C	-0.184984	-0.228475	-0.185289
C68	C	0.315016	0.271525	0.314711
C69	C	-0.184982	-0.283082	-0.185288
C70	C	0.315018	0.216918	0.314712
C71	C	-0.218467	-0.310387	-0.218662
C72	C	0.281533	0.189613	0.281338
C73	C	-0.218471	-0.364978	-0.218645
C74	C	0.281529	0.135022	0.281355
N75	N	-0.251951	-0.392285	-0.252020
N76	N	0.248049	0.107715	0.247980
C77	C	-0.285435	-0.364989	-0.285399
C78	C	0.214565	0.135011	0.214601
C79	C	-0.218492	-0.031902	-0.218681
C80	C	0.281508	0.468098	0.281319
C81	C	-0.218499	0.022700	-0.218682
C82	C	0.281501	0.522700	0.281318
C83	C	-0.285466	0.022689	-0.285438
C84	C	0.214534	0.522689	0.214562
C85	C	-0.285461	-0.031914	-0.285434
C86	C	0.214539	0.468086	0.214566
C87	C	-0.251971	-0.059209	-0.252056
C88	C	0.248029	0.440791	0.247944
C89	C	-0.285428	-0.479654	-0.285380
C90	C	0.214572	0.020346	0.214620
C91	C	-0.285425	-0.534259	-0.285367
C92	C	0.214575	-0.034259	0.214633
C93	C	-0.218456	-0.534244	-0.218614
C94	C	0.281544	-0.034244	0.281386
C95	C	-0.218461	-0.479643	-0.218624
C96	C	0.281539	0.020357	0.281376
C97	C	-0.251949	-0.452349	-0.252011
C98	C	0.248051	0.047651	0.247989
O99	O	-0.190021	-0.393256	-0.190262
O100	O	0.309979	0.106744	0.309738
O101	O	-0.313902	-0.393236	-0.313786
O102	O	0.186098	0.106764	0.186214
C103	C	-0.806277	-0.789031	-0.218658
C104	C	-0.306277	-0.289031	0.281342
C105	C	-0.860882	-0.789051	-0.218665
C106	C	-0.360882	-0.289051	0.281335
O107	O	-0.889117	-0.817526	-0.190277
O108	O	-0.389117	-0.317526	0.309723
N109	N	-0.888198	-0.755604	-0.252066
N110	N	-0.388198	-0.255604	0.247934
C111	C	-0.860907	-0.722138	-0.285467
C112	C	-0.360907	-0.222138	0.214533
O113	O	-0.889156	-0.693690	-0.313878
O114	O	-0.389156	-0.193690	0.186122
C115	C	-0.806304	-0.722120	-0.285462
C116	C	-0.306304	-0.222120	0.214538
C117	C	-0.778990	-0.755566	-0.252055
C118	C	-0.278990	-0.255566	0.247945
C119	C	-0.778964	-0.822475	-0.185254
C120	C	-0.278964	-0.322475	0.314746
C121	C	-0.724363	-0.822454	-0.185246
C122	C	-0.224363	-0.322454	0.314754
C123	C	-0.697076	-0.788989	-0.218643
C124	C	-0.197076	-0.288989	0.281357
C125	C	-0.724390	-0.755545	-0.252047
C126	C	-0.224390	-0.255545	0.247953
C127	C	-0.779014	-0.688657	-0.318865
C128	C	-0.279014	-0.188657	0.181135
C129	C	-0.724407	-0.688643	-0.318857
C130	C	-0.224407	-0.188643	0.181143
C131	C	-0.697094	-0.722089	-0.285450
C132	C	-0.197094	-0.222089	0.214550
C133	C	-0.642502	-0.722059	-0.285436
C134	C	-0.142502	-0.222059	0.214564
N135	N	-0.615186	-0.755507	-0.252035
N136	N	-0.115186	-0.255507	0.247965
C137	C	-0.642473	-0.788972	-0.218638
C138	C	-0.142473	-0.288972	0.281362
C139	C	-0.975578	-0.722177	-0.285475
C140	C	-0.475578	-0.222177	0.214525
C141	C	-1.030180	-0.722191	-0.285477
C142	C	-0.530180	-0.222191	0.214523
C143	C	-1.030151	-0.789106	-0.218676
C144	C	-0.530151	-0.289106	0.281324
C145	C	-0.975547	-0.789089	-0.218671
C146	C	-0.475547	-0.289089	0.281329
C147	C	-0.948261	-0.755625	-0.252073
C148	C	-0.448261	-0.255625	0.247927
C149	C	-0.527808	-0.788925	-0.218625
C150	C	-0.027808	-0.288925	0.281375
C151	C	-0.473202	-0.788899	-0.218618
C152	C	0.026798	-0.288899	0.281382
C153	C	-0.473237	-0.721987	-0.285421
C154	C	0.026763	-0.221987	0.214579
C155	C	-0.527837	-0.722010	-0.285426
C156	C	-0.027837	-0.222010	0.214574
C157	C	-0.555121	-0.755483	-0.252026
C158	C	-0.055121	-0.255483	0.247974
O159	O	-0.614232	-0.693601	-0.313811
O160	O	-0.114232	-0.193601	0.186189
O161	O	-0.614218	-0.817419	-0.190236
O162	O	-0.114218	-0.317419	0.309764
C163	C	-0.115586	-0.755614	-0.252067
C164	C	0.384414	-0.255614	0.247933
C165	C	-0.057472	-0.755658	-0.252082
C166	C	0.442528	-0.255658	0.247918
C167	C	-0.251935	-0.755546	-0.388405
C168	C	0.248065	-0.255546	0.111595
C169	C	-0.251925	-0.755560	-0.446519
C170	C	0.248075	-0.255560	0.053481
C171	C	-0.251979	0.108115	-0.252065
C172	C	0.248021	0.608115	0.247935
C173	C	-0.251982	0.050001	-0.252063
C174	C	0.248018	0.550001	0.247937
C175	C	-0.218417	-0.722160	-0.806887
C176	C	0.281583	-0.222160	-0.306887
C177	C	-0.218407	-0.722163	-0.861491
C178	C	0.281593	-0.222163	-0.361491
O179	O	-0.189975	-0.693738	-0.889732
O180	O	0.310025	-0.193738	-0.389732
N181	N	-0.251843	-0.755578	-0.888802
N182	N	0.248157	-0.255578	-0.388802
C183	C	-0.285294	-0.788989	-0.861505
C184	C	0.214706	-0.288989	-0.361505
O185	O	-0.313733	-0.817411	-0.889749
O186	O	0.186267	-0.317411	-0.389749
C187	C	-0.285306	-0.788983	-0.806902
C188	C	0.214694	-0.288983	-0.306902
C189	C	-0.251864	-0.755569	-0.779594
C190	C	0.248136	-0.255569	-0.279594
C191	C	-0.184978	-0.688749	-0.779579
C192	C	0.315022	-0.188749	-0.279579
C193	C	-0.184987	-0.688747	-0.724978
C194	C	0.315013	-0.188747	-0.224978
C195	C	-0.218435	-0.722156	-0.697686
C196	C	0.281565	-0.222156	-0.197686
C197	C	-0.251873	-0.755567	-0.724993
C198	C	0.248127	-0.255567	-0.224993
C199	C	-0.318759	-0.822390	-0.779606
C200	C	0.181241	-0.322390	-0.279606
C201	C	-0.318768	-0.822381	-0.724999
C202	C	0.181232	-0.322381	-0.224999
C203	C	-0.285326	-0.788968	-0.697691
C204	C	0.214674	-0.288968	-0.197691
C205	C	-0.285329	-0.788974	-0.643100
C206	C	0.214671	-0.288974	-0.143100
N207	N	-0.251894	-0.755559	-0.615789
N208	N	0.248106	-0.255559	-0.115789
C209	C	-0.218446	-0.722150	-0.643082
C210	C	0.281554	-0.222150	-0.143082
C211	C	-0.285267	-0.788998	-0.976176
C212	C	0.214733	-0.288998	-0.476176
C213	C	-0.285253	-0.789006	-1.030778
C214	C	0.214747	-0.289006	-0.530778
C215	C	-0.218367	-0.722180	-1.030760
C216	C	0.281633	-0.222180	-0.530760
C217	C	-0.218379	-0.722174	-0.976157
C218	C	0.281621	-0.222174	-0.476157
C219	C	-0.251832	-0.755583	-0.948865
C220	C	0.248168	-0.255583	-0.448865
C221	C	-0.218467	-0.722149	-0.528417
C222	C	0.281533	-0.222149	-0.028417
C223	C	-0.218478	-0.722151	-0.473812
C224	C	0.281522	-0.222151	0.026188
C225	C	-0.285365	-0.788976	-0.473834
C226	C	0.214635	-0.288976	0.026166
C227	C	-0.285353	-0.788975	-0.528435
C228	C	0.214647	-0.288975	-0.028435
C229	C	-0.251902	-0.755558	-0.555725
C230	C	0.248098	-0.255558	-0.055725
O231	O	-0.313748	-0.817383	-0.614825
O232	O	0.186252	-0.317383	-0.114825
O233	O	-0.190017	-0.693728	-0.614832
O234	O	0.309983	-0.193728	-0.114832
C235	C	-0.251945	-0.755508	-0.116189
C236	C	0.248055	-0.255508	0.383811
C237	C	-0.251808	-0.755595	-0.058076
C238	C	0.248192	-0.255595	0.441924
H239	H	-0.312695	-0.556488	-0.312544
H240	H	0.187305	-0.056488	0.187456
O241	O	-1.056658	-0.821564	-0.186178
O242	O	-0.556658	-0.321564	0.313822
C243	C	-1.043377	-0.810197	-0.134041
C244	C	-0.543377	-0.310197	0.365959
H245	H	-1.028392	-0.768431	-0.131326
H246	H	-0.528392	-0.268431	0.368674
H247	H	-1.011683	-0.838243	-0.120390
H248	H	-0.511683	-0.338243	0.379610
C249	C	-1.110327	-0.867610	-0.102530
C250	C	-0.610327	-0.367610	0.397470
C251	C	-1.091927	-0.816311	-0.099195
C252	C	-0.591927	-0.316311	0.400805
H253	H	-1.140273	-0.871383	-0.081034
H254	H	-0.640273	-0.371383	0.418966
H255	H	-1.119274	-0.875270	-0.137655
H256	H	-0.619274	-0.375270	0.362345
H257	H	-1.083911	-0.890976	-0.091155
H258	H	-0.583911	-0.390976	0.408845
H259	H	-1.118339	-0.792946	-0.110575
H260	H	-0.618339	-0.292946	0.389425
H261	H	-1.082985	-0.808647	-0.064070
H262	H	-0.582985	-0.308647	0.435930
O263	O	-0.152579	-0.656257	-0.698399
O264	O	0.347421	-0.156257	-0.198399
C265	C	-0.182348	-0.622452	-0.666805
C266	C	0.317652	-0.122452	-0.166805
H267	H	-0.221972	-0.640864	-0.658615
H268	H	0.278028	-0.140864	-0.158615
H269	H	-0.188089	-0.583708	-0.687837
H270	H	0.311911	-0.083708	-0.187837
C271	C	-0.104917	-0.590374	-0.625003
C272	C	0.395083	-0.090374	-0.125003
C273	C	-0.153583	-0.612991	-0.614941
C274	C	0.346417	-0.112991	-0.114941
H275	H	-0.087173	-0.584536	-0.593012
H276	H	0.412827	-0.084536	-0.093012
H277	H	-0.084861	-0.613148	-0.646290
H278	H	0.415139	-0.113148	-0.146290
H279	H	-0.109709	-0.558090	-0.642531
H280	H	0.390291	-0.058090	-0.142531
H281	H	-0.148791	-0.645277	-0.597420
H282	H	0.351209	-0.145277	-0.097420
H283	H	-0.173638	-0.590222	-0.593650
H284	H	0.326362	-0.090222	-0.093650
H285	H	-0.157741	-0.661540	-0.801795
H286	H	0.342259	-0.161540	-0.301795
H287	H	-0.312696	-0.457438	-0.312568
H288	H	0.187304	0.042562	0.187432
H289	H	-0.191196	-0.556478	-0.191436
H290	H	0.308804	-0.056478	0.308564
O291	O	-0.185947	-0.058334	-0.186200
O292	O	0.314053	0.441666	0.313800
C293	C	-0.156394	-0.022518	-0.156755
C294	C	0.343606	0.477482	0.343245
H295	H	-0.177813	0.016416	-0.154917
H296	H	0.322187	0.516416	0.345083
H297	H	-0.116710	-0.016742	-0.175971
H298	H	0.383290	0.483258	0.324029
C299	C	-0.122475	-0.091609	-0.103376
C300	C	0.377525	0.408391	0.396624
C301	C	-0.148785	-0.043791	-0.101114
C302	C	0.351215	0.456209	0.398886
H303	H	-0.117779	-0.104731	-0.069054
H304	H	0.382221	0.395269	0.430946
H305	H	-0.142384	-0.115739	-0.123214
H306	H	0.357616	0.384261	0.376786
H307	H	-0.089409	-0.086789	-0.119392
H308	H	0.410591	0.413211	0.380608
H309	H	-0.181853	-0.048612	-0.085105
H310	H	0.318147	0.451388	0.414895
H311	H	-0.128881	-0.019662	-0.081271
H312	H	0.371119	0.480338	0.418729
H313	H	-0.702193	-0.661393	-0.346059
H314	H	-0.202193	-0.161393	0.153941
H315	H	-0.312479	-0.816221	-1.053007
H316	H	0.187521	-0.316221	-0.553007
O317	O	-0.351465	-0.309528	-0.351253
O318	O	0.148535	0.190472	0.148747
C319	C	-0.381024	-0.273718	-0.380703
C320	C	0.118976	0.226282	0.119297
H321	H	-0.359610	-0.234809	-0.382548
H322	H	0.140390	0.265191	0.117452
H323	H	-0.420708	-0.267877	-0.361487
H324	H	0.079292	0.232123	0.138513
C325	C	-0.414935	-0.342839	-0.434070
C326	C	0.085065	0.157161	0.065930
C327	C	-0.388631	-0.295051	-0.436341
C328	C	0.111369	0.204949	0.063659
H329	H	-0.419629	-0.355999	-0.468390
H330	H	0.080371	0.144001	0.031610
H331	H	-0.395022	-0.366966	-0.414228
H332	H	0.104978	0.133034	0.085772
H333	H	-0.448002	-0.337965	-0.418055
H334	H	0.051998	0.162035	0.081945
H335	H	-0.355562	-0.299927	-0.452350
H336	H	0.144438	0.200073	0.047650
H337	H	-0.408538	-0.270926	-0.456187
H338	H	0.091462	0.229074	0.043813
O339	O	-1.056628	-0.689681	-0.317974
O340	O	-0.556628	-0.189681	0.182026
C341	C	-1.020828	-0.660132	-0.347437
C342	C	-0.520828	-0.160132	0.152563
H343	H	-0.981885	-0.681535	-0.349262
H344	H	-0.481885	-0.181535	0.150738
H345	H	-1.015069	-0.620432	-0.328245
H346	H	-0.515069	-0.120432	0.171755
C347	C	-1.089939	-0.626283	-0.400837
C348	C	-0.589939	-0.126283	0.099163
C349	C	-1.042110	-0.652573	-0.403083
C350	C	-0.542110	-0.152573	0.096917
H351	H	-1.103067	-0.621618	-0.435162
H352	H	-0.603067	-0.121618	0.064838
H353	H	-1.114059	-0.646189	-0.380987
H354	H	-0.614059	-0.146189	0.119013
H355	H	-1.085133	-0.593203	-0.384842
H356	H	-0.585133	-0.093203	0.115158
H357	H	-1.046918	-0.685655	-0.419072
H358	H	-0.546918	-0.185655	0.080928
H359	H	-1.017991	-0.632672	-0.422937
H360	H	-0.517991	-0.132672	0.077063
O361	O	-0.446780	-0.689511	-0.317937
O362	O	0.053220	-0.189511	0.182063
C363	C	-0.460071	-0.700930	-0.370060
C364	C	0.039929	-0.200930	0.129940
H365	H	-0.499702	-0.721034	-0.371170
H366	H	0.000298	-0.221034	0.128830
H367	H	-0.429309	-0.727801	-0.387688
H368	H	0.070691	-0.227801	0.112312
C369	C	-0.413936	-0.625257	-0.400324
C370	C	0.086064	-0.125257	0.099676
C371	C	-0.462613	-0.649945	-0.401687
C372	C	0.037387	-0.149945	0.098313
H373	H	-0.415502	-0.593808	-0.419835
H374	H	0.084498	-0.093808	0.080165
H375	H	-0.404980	-0.617564	-0.365208
H376	H	0.095020	-0.117564	0.134792
H377	H	-0.388306	-0.647655	-0.415013
H378	H	0.111694	-0.147655	0.084987
H379	H	-0.488241	-0.627550	-0.386993
H380	H	0.011759	-0.127550	0.113007
H381	H	-0.471574	-0.657633	-0.436802
H382	H	0.028426	-0.157633	0.063198
O383	O	-0.805457	-0.656152	-0.351368
O384	O	-0.305457	-0.156152	0.148632
C385	C	-0.769653	-0.626610	-0.380832
C386	C	-0.269653	-0.126610	0.119168
H387	H	-0.730711	-0.648016	-0.382652
H388	H	-0.230711	-0.148016	0.117348
H389	H	-0.763892	-0.586908	-0.361645
H390	H	-0.263892	-0.086908	0.138355
C391	C	-0.838758	-0.592763	-0.434242
C392	C	-0.338758	-0.092763	0.065758
C393	C	-0.790931	-0.619057	-0.436481
C394	C	-0.290931	-0.119057	0.063519
H395	H	-0.851884	-0.588102	-0.468568
H396	H	-0.351884	-0.088102	0.031432
H397	H	-0.862881	-0.612665	-0.414390
H398	H	-0.362881	-0.112665	0.085610
H399	H	-0.833951	-0.559681	-0.418250
H400	H	-0.333951	-0.059681	0.081750
H401	H	-0.795740	-0.652140	-0.452466
H402	H	-0.295740	-0.152140	0.047534
H403	H	-0.766809	-0.599160	-0.456336
H404	H	-0.266809	-0.099160	0.043664
H405	H	-0.550077	-0.694777	-0.312630
H406	H	-0.050077	-0.194777	0.187370
O407	O	-0.317688	-0.821484	-0.949609
O408	O	0.182312	-0.321484	-0.449609
C409	C	-0.287934	-0.855284	-0.918057
C410	C	0.212066	-0.355284	-0.418057
H411	H	-0.248311	-0.836872	-0.909871
H412	H	0.251689	-0.336872	-0.409871
H413	H	-0.282187	-0.894034	-0.939123
H414	H	0.217813	-0.394034	-0.439123
C415	C	-0.365382	-0.887346	-0.876245
C416	C	0.134618	-0.387346	-0.376245
C417	C	-0.316719	-0.864730	-0.866187
C418	C	0.183281	-0.364730	-0.366187
H419	H	-0.383139	-0.893175	-0.844250
H420	H	0.116861	-0.393175	-0.344250
H421	H	-0.385429	-0.864576	-0.897503
H422	H	0.114571	-0.364576	-0.397503
H423	H	-0.360587	-0.919635	-0.893801
H424	H	0.139413	-0.419635	-0.393801
H425	H	-0.321516	-0.832439	-0.848637
H426	H	0.178484	-0.332439	-0.348637
H427	H	-0.296674	-0.887495	-0.844925
H428	H	0.203326	-0.387495	-0.344925
H429	H	-0.346194	-0.206270	-0.345973
H430	H	0.153806	0.293730	0.154027
H431	H	-0.312727	-0.054142	-0.312610
H432	H	0.187273	0.445858	0.187390
H433	H	-0.191148	-0.694966	-0.953927
H434	H	0.308852	-0.194966	-0.453927
O435	O	-0.185956	-0.689662	-1.057299
O436	O	0.314044	-0.189662	-0.557299
C437	C	-0.215720	-0.655886	-1.088867
C438	C	0.284280	-0.155886	-0.588867
H439	H	-0.256900	-0.652632	-1.072396
H440	H	0.243100	-0.152632	-0.572396
H441	H	-0.217517	-0.672053	-1.130257
H442	H	0.282483	-0.172053	-0.630257
C443	C	-0.139599	-0.605545	-1.109919
C444	C	0.360401	-0.105545	-0.609919
C445	C	-0.190176	-0.601545	-1.089686
C446	C	0.309824	-0.101545	-0.589686
H447	H	-0.123841	-0.572025	-1.110427
H448	H	0.376159	-0.072025	-0.610427
H449	H	-0.119545	-0.628302	-1.088653
H450	H	0.380455	-0.128302	-0.588653
H451	H	-0.141104	-0.619020	-1.144409
H452	H	0.358896	-0.119020	-0.644409
H453	H	-0.188670	-0.588077	-1.055195
H454	H	0.311330	-0.088077	-0.555195
H455	H	-0.210229	-0.578784	-1.110947
H456	H	0.289771	-0.078784	-0.610947
O457	O	-0.351222	-0.854922	-0.806062
O458	O	0.148778	-0.354922	-0.306062
C459	C	-0.339799	-0.907038	-0.792747
C460	C	0.160201	-0.407038	-0.292747
H461	H	-0.319697	-0.908127	-0.753112
H462	H	0.180303	-0.408127	-0.253112
H463	H	-0.312926	-0.924681	-0.823496
H464	H	0.187074	-0.424681	-0.323496
C465	C	-0.415468	-0.937327	-0.838885
C466	C	0.084532	-0.437327	-0.338885
C467	C	-0.390782	-0.938665	-0.790203
C468	C	0.109218	-0.438665	-0.290203
H469	H	-0.446916	-0.956837	-0.837318
H470	H	0.053084	-0.456837	-0.337318
H471	H	-0.423163	-0.902216	-0.847858
H472	H	0.076837	-0.402216	-0.347858
H473	H	-0.393068	-0.952029	-0.864504
H474	H	0.106932	-0.452029	-0.364504
H475	H	-0.413179	-0.923957	-0.764586
H476	H	0.086821	-0.423957	-0.264586
H477	H	-0.383093	-0.973774	-0.781225
H478	H	0.116907	-0.473774	-0.281225
H479	H	-0.157718	-0.206253	-0.158111
H480	H	0.342282	0.293747	0.341889
H481	H	-0.191243	-0.694942	-0.451580
H482	H	0.308757	-0.194942	0.048420
O483	O	-0.351319	-0.854761	-0.698464
O484	O	0.148681	-0.354761	-0.198464
C485	C	-0.385080	-0.824966	-0.666846
C486	C	0.114920	-0.324966	-0.166846
H487	H	-0.388297	-0.783785	-0.683280
H488	H	0.111703	-0.283785	-0.183280
H489	H	-0.368922	-0.823178	-0.625466
H490	H	0.131078	-0.323178	-0.125466
C491	C	-0.435487	-0.901045	-0.645825
C492	C	0.064513	-0.401045	-0.145825
C493	C	-0.439442	-0.850467	-0.666011
C494	C	0.060558	-0.350467	-0.166011
H495	H	-0.469020	-0.916776	-0.645307
H496	H	0.030980	-0.416776	-0.145307
H497	H	-0.412741	-0.921119	-0.667124
H498	H	0.087259	-0.421119	-0.167124
H499	H	-0.422020	-0.899548	-0.611343
H500	H	0.077980	-0.399548	-0.111343
H501	H	-0.452903	-0.851966	-0.700494
H502	H	0.047097	-0.351966	-0.200494
H503	H	-0.462192	-0.830394	-0.644716
H504	H	0.037808	-0.330394	-0.144716
O505	O	-0.317916	0.049233	-0.317922
O506	O	0.182084	0.549233	0.182078
C507	C	-0.288192	0.080789	-0.351736
C508	C	0.211808	0.580789	0.148264
H509	H	-0.247018	0.064306	-0.355036
H510	H	0.252982	0.564306	0.144964
H511	H	-0.286368	0.122180	-0.335575
H512	H	0.213632	0.622180	0.164425
C513	C	-0.364377	0.101858	-0.401990
C514	C	0.135623	0.601858	0.098010
C515	C	-0.313808	0.081611	-0.406048
C516	C	0.186192	0.581611	0.093952
H517	H	-0.380178	0.102368	-0.435492
H518	H	0.119822	0.602368	0.064508
H519	H	-0.384403	0.080600	-0.379209
H520	H	0.115597	0.580600	0.120791
H521	H	-0.362850	0.136349	-0.388521
H522	H	0.137150	0.636349	0.111479
H523	H	-0.315336	0.047119	-0.419511
H524	H	0.184664	0.547119	0.080489
H525	H	-0.293782	0.102864	-0.428833
H526	H	0.206218	0.602864	0.071167
O527	O	-0.185903	-0.453064	-0.186280
O528	O	0.314097	0.046936	0.313720
C529	C	-0.152165	-0.421539	-0.216123
C530	C	0.347835	0.078461	0.283877
H531	H	-0.170668	-0.413370	-0.255709
H532	H	0.329332	0.086630	0.244291
H533	H	-0.113435	-0.442620	-0.221945
H534	H	0.386565	0.057380	0.278055
C535	C	-0.119911	-0.379693	-0.138764
C536	C	0.380089	0.120307	0.361236
C537	C	-0.142639	-0.369656	-0.187383
C538	C	0.357361	0.130344	0.312617
H539	H	-0.114032	-0.347690	-0.121035
H540	H	0.385968	0.152310	0.378965
H541	H	-0.142639	-0.400933	-0.118658
H542	H	0.357361	0.099067	0.381342
H543	H	-0.087638	-0.397262	-0.143623
H544	H	0.412362	0.102738	0.356377
H545	H	-0.174914	-0.352093	-0.182523
H546	H	0.325086	0.147907	0.317477
H547	H	-0.119916	-0.348412	-0.207487
H548	H	0.380084	0.151588	0.292513
H549	H	-0.157707	-0.305303	-0.158110
H550	H	0.342293	0.194697	0.341890
O551	O	-0.446752	-0.821440	-0.186149
O552	O	0.053248	-0.321440	0.313851
C553	C	-0.482549	-0.850972	-0.156667
C554	C	0.017451	-0.350972	0.343333
H555	H	-0.521457	-0.852784	-0.178092
H556	H	-0.021457	-0.352784	0.321908
H557	H	-0.488399	-0.831850	-0.116938
H558	H	0.011601	-0.331850	0.383062
C559	C	-0.413404	-0.904391	-0.122874
C560	C	0.086596	-0.404391	0.377126
C561	C	-0.461191	-0.906619	-0.149191
C562	C	0.038809	-0.406619	0.350809
H563	H	-0.400229	-0.938716	-0.118260
H564	H	0.099771	-0.438716	0.381740
H565	H	-0.389286	-0.884494	-0.142735
H566	H	0.110714	-0.384494	0.357265
H567	H	-0.418286	-0.888454	-0.089770
H568	H	0.081714	-0.388454	0.410230
H569	H	-0.456308	-0.922550	-0.182297
H570	H	0.043692	-0.422550	0.317703
H571	H	-0.485308	-0.926521	-0.129335
H572	H	0.014692	-0.426521	0.370665
O573	O	-0.554369	-0.821370	-0.186161
O574	O	-0.054369	-0.321370	0.313839
C575	C	-0.585996	-0.791641	-0.152351
C576	C	-0.085996	-0.291641	0.347649
H577	H	-0.594207	-0.752009	-0.170743
H578	H	-0.094207	-0.252009	0.329257
H579	H	-0.564983	-0.785914	-0.113594
H580	H	-0.064983	-0.285914	0.386406
C581	C	-0.627755	-0.869116	-0.120341
C582	C	-0.127755	-0.369116	0.379659
C583	C	-0.637843	-0.820441	-0.142932
C584	C	-0.137843	-0.320441	0.357068
H585	H	-0.659736	-0.886881	-0.114529
H586	H	-0.159736	-0.386881	0.385471
H587	H	-0.606446	-0.889145	-0.143117
H588	H	-0.106446	-0.389145	0.356883
H589	H	-0.610242	-0.864337	-0.088046
H590	H	-0.110242	-0.364337	0.411954
H591	H	-0.655349	-0.825220	-0.175230
H592	H	-0.155349	-0.325220	0.324770
H593	H	-0.659156	-0.800412	-0.120161
H594	H	-0.159156	-0.300412	0.379839
H595	H	-0.312578	-0.816189	-0.550670
H596	H	0.187422	-0.316189	-0.050670
H597	H	-0.191237	0.044927	-0.191501
H598	H	0.308763	0.544927	0.308499
H599	H	-0.702128	-0.849690	-0.158045
H600	H	-0.202128	-0.349690	0.341955
H601	H	-0.801175	-0.849729	-0.158058
H602	H	-0.301175	-0.349729	0.341942
H603	H	-0.191228	-0.694937	-0.550630
H604	H	0.308772	-0.194937	-0.050630
H605	H	-0.953312	-0.816324	-0.191469
H606	H	-0.453312	-0.316324	0.308531
H607	H	-0.953364	-0.694922	-0.312673
H608	H	-0.453364	-0.194922	0.187327
H609	H	-0.312596	-0.816178	-0.451603
H610	H	0.187404	-0.316178	0.048397
