data_functionalizedCrystal
_audit_creation_method	'MofGen! by Chris Wilmer'
_symmetry_space_group_name_H-M	'P1'
_symmetry_Int_Tables_number	1
_symmetry_cell_setting	triclinic
loop_
_symmetry_equiv_pos_as_xyz
  x,y,z
_cell_length_a	10.540535
_cell_length_b	10.540539
_cell_length_c	16.176319
_cell_angle_alpha	89.995366
_cell_angle_beta	89.994990
_cell_angle_gamma	84.524567
loop_
_atom_site_label
_atom_site_type_symbol
_atom_site_fract_x
_atom_site_fract_y
_atom_site_fract_z
O1	O	1.685896	0.178876	-0.068697
O2	O	1.316482	0.195738	-0.068708
O3	O	1.509617	0.002601	-0.068701
O4	O	1.492761	0.372014	-0.068704
O5	O	1.509590	0.002588	0.068792
O6	O	1.316455	0.195726	0.068785
O7	O	1.685869	0.178864	0.068796
Cu8	Cu	1.501159	0.187293	0.081345
Cu9	Cu	1.501191	0.187308	-0.081257
O10	O	1.492734	0.372001	0.068789
C11	C	1.269165	0.194469	0.000037
C12	C	1.128217	0.190689	0.000032
C13	C	1.091546	0.049675	0.000037
C14	C	0.944946	0.045698	0.000357
C15	C	0.918866	0.255052	0.078404
C16	C	1.065631	0.258053	0.078462
C17	C	1.065546	0.260119	-0.077899
C18	C	0.919200	0.253597	-0.078921
C19	C	1.508339	-0.044709	0.000044
C20	C	1.504557	-0.185657	0.000039
C21	C	1.359640	-0.369081	-0.000274
C22	C	1.363474	-0.222463	0.000036
C23	C	1.572438	-0.247323	0.078557
C24	C	1.567623	-0.393867	0.078623
C25	C	1.570523	-0.394371	-0.077733
C26	C	1.571822	-0.247389	-0.078771
C27	C	1.733185	0.180133	0.000049
C28	C	1.874134	0.183913	0.000048
C29	C	1.494011	0.419311	0.000042
C30	C	1.497793	0.560259	0.000041
N31	N	1.501146	0.187282	0.195710
N32	N	1.501214	0.187310	-0.195622
C33	C	1.586693	0.101796	0.238977
C34	C	1.586699	0.101795	0.325524
C35	C	1.501164	0.187287	0.368803
C36	C	1.415609	0.272777	0.325529
C37	C	1.415597	0.272771	0.238984
C38	C	1.415652	0.272801	0.674558
C39	C	1.415673	0.272803	0.761109
C40	C	1.586754	0.101825	0.761098
C41	C	1.586743	0.101819	0.674553
C42	C	1.501183	0.187304	0.631287
C43	C	1.501176	0.187303	0.537443
C44	C	1.501177	0.187295	0.462645
H45	H	0.915619	-0.009938	-0.055801
F46	F	1.510846	-0.435591	-0.155519
F47	F	1.677739	0.010809	0.192925
H48	H	1.310061	-0.179854	-0.056249
F49	F	1.121055	0.202611	-0.155556
F50	F	1.677745	0.010810	0.371573
F51	F	1.324543	0.363753	0.192937
H52	H	1.676045	-0.224971	0.081479
F53	F	1.507413	-0.193382	-0.154704
H54	H	1.345958	0.342381	0.360771
H55	H	1.656397	0.032209	0.639318
F56	F	0.907733	-0.026659	0.074218
F57	F	1.677812	0.010839	0.807151
F58	F	1.286886	-0.408998	0.072705
F59	F	1.324598	0.363782	0.628518
F60	F	1.286805	-0.406452	-0.073871
F61	F	1.293137	-0.167884	0.073720
H62	H	1.133526	-0.004470	-0.056146
F63	F	1.148330	-0.019929	0.073376
H64	H	0.887952	0.206234	0.136943
H65	H	1.517433	-0.422071	0.137313
H66	H	1.525262	-0.204728	0.136984
H67	H	1.669087	-0.441838	0.082188
F68	F	1.094497	0.395742	-0.078873
H69	H	1.346015	0.342423	0.796345
F70	F	1.118127	0.195244	0.155315
F71	F	1.095738	0.393168	0.082829
F72	F	1.703717	-0.456102	-0.078421
F73	F	0.856970	0.388068	0.081926
H74	H	0.890609	0.201827	-0.136890
F75	F	0.855103	0.385454	-0.085422
F76	F	1.706269	-0.215726	-0.084969
