data_functionalizedCrystal
_audit_creation_method	'MofGen! by Chris Wilmer'
_symmetry_space_group_name_H-M	'P1'
_symmetry_Int_Tables_number	1
_symmetry_cell_setting	triclinic
loop_
_symmetry_equiv_pos_as_xyz
  x,y,z
_cell_length_a	15.995350
_cell_length_b	19.188930
_cell_length_c	15.072220
_cell_angle_alpha	89.993728
_cell_angle_beta	89.991149
_cell_angle_gamma	83.318578
loop_
_atom_site_label
_atom_site_type_symbol
_atom_site_fract_x
_atom_site_fract_y
_atom_site_fract_z
O1	O	1.110666	0.089991	-0.073718
O2	O	0.866850	0.101105	-0.073737
O3	O	0.995794	-0.006090	-0.073709
O4	O	0.981722	0.197186	-0.073745
O5	O	0.995763	-0.006084	0.073856
O6	O	0.866819	0.101111	0.073828
O7	O	1.110634	0.089997	0.073848
Zn8	Zn	0.988721	0.095555	0.097267
Zn9	Zn	0.988763	0.095547	-0.097156
O10	O	0.981690	0.197192	0.073820
C11	C	0.835641	0.100648	0.000043
C12	C	0.742696	0.099271	0.000037
C13	C	0.404967	0.094324	0.000056
C14	C	0.452680	0.017982	0.000398
C15	C	0.549365	0.019360	0.000059
C16	C	0.572518	0.096778	0.000047
C17	C	0.531311	0.134429	-0.084223
C18	C	0.434683	0.132511	-0.084287
C19	C	0.434302	0.134095	0.083522
C20	C	0.531247	0.134077	0.084629
C21	C	0.667211	0.098169	0.000039
C22	C	0.310274	0.092936	0.000058
C23	C	0.995323	-0.032099	0.000076
C24	C	0.993955	-0.109607	0.000083
C25	C	1.069615	-0.154338	0.000093
C26	C	1.068330	-0.227165	0.000079
C27	C	0.991380	-0.255258	0.000072
C28	C	0.915710	-0.210517	0.000057
C29	C	0.916997	-0.137691	0.000062
N30	N	0.932550	-0.363410	0.050287
N31	N	0.931333	-0.432592	0.050284
C32	C	0.987497	-0.474676	0.000054
N33	N	1.044937	-0.444966	-0.050161
N34	N	1.046158	-0.375779	-0.050154
C35	C	0.989976	-0.334224	0.000066
C36	C	1.061769	-0.598375	0.000048
C37	C	1.060480	-0.671204	0.000028
C38	C	0.907859	-0.654553	0.000015
C39	C	0.909149	-0.581727	0.000025
C40	C	0.986106	-0.553643	0.000046
C41	C	1.141843	0.090454	0.000065
C42	C	1.234789	0.091831	0.000066
C43	C	0.982162	0.223201	0.000033
C44	C	0.983530	0.300709	0.000019
N45	N	0.988699	0.095560	0.229956
N46	N	0.988792	0.095537	-0.229845
C47	C	0.988762	0.095544	0.589157
C48	C	0.919536	0.152710	0.551535
C49	C	0.919693	0.152918	0.448710
C50	C	0.988730	0.095552	0.410953
C51	C	1.076036	0.111464	0.448248
C52	C	1.075648	0.111870	0.551106
C53	C	0.971460	0.022298	0.551269
C54	C	0.969454	0.022787	0.448405
C55	C	0.988717	0.095555	0.310240
C56	C	0.988780	0.095543	0.689871
H57	H	0.577890	-0.010236	0.060468
N58	N	1.142091	-0.719451	0.000046
H59	H	1.129600	-0.769848	0.000035
H60	H	1.175657	-0.710349	-0.054649
H61	H	0.413844	0.109140	0.147396
H62	H	0.433211	-0.012395	-0.059692
H63	H	0.854788	0.143438	0.423496
H64	H	1.129943	-0.263592	0.000084
N65	N	0.428284	-0.022438	0.080453
H66	H	0.386062	0.008342	0.117275
H67	H	0.402506	-0.065364	0.060288
N68	N	0.549754	0.209765	-0.088400
H69	H	0.522666	0.232942	-0.143086
H70	H	0.526335	0.235567	-0.033781
N71	N	1.096785	0.181417	0.414119
H72	H	1.150990	0.174445	0.379163
H73	H	1.049713	0.202860	0.374543
H74	H	0.853057	-0.233394	0.000050
N75	N	0.567540	0.097675	0.167214
H76	H	0.610537	0.057191	0.149921
H77	H	0.595407	0.132066	0.204583
H78	H	0.546404	0.190533	0.089710
N79	N	1.095877	0.182632	0.582867
H80	H	1.095823	0.183605	0.649866
H81	H	1.153225	0.191195	0.560212
N82	N	0.824861	-0.684842	-0.000003
H83	H	0.835524	-0.737765	-0.000008
H84	H	0.791749	-0.668485	0.054699
N85	N	1.145886	0.057779	0.415854
H86	H	1.148034	0.058806	0.348900
H87	H	1.201385	0.069063	0.440700
N88	N	0.586433	-0.020100	-0.080094
H89	H	0.649466	-0.019368	-0.080647
H90	H	0.573205	-0.070256	-0.077450
N91	N	0.410573	0.096134	-0.167713
H92	H	0.462692	0.081493	-0.204100
H93	H	0.382777	0.053283	-0.151300
N94	N	0.934066	0.224967	0.416084
H95	H	0.940353	0.256708	0.468520
H96	H	0.986932	0.221387	0.378913
N97	N	0.835390	-0.089440	0.000051
H98	H	0.786445	-0.118284	0.000041
H99	H	0.832587	-0.058869	0.054759
H100	H	1.132280	-0.131477	0.000107
H101	H	0.847538	-0.545305	0.000022
N102	N	0.833279	0.140367	0.584329
H103	H	0.838234	0.097602	0.623894
H104	H	0.807873	0.182661	0.618991
H105	H	1.021947	-0.020242	0.575598
N106	N	1.144767	-0.568077	0.000066
H107	H	1.192504	-0.607469	0.000063
H108	H	1.148637	-0.538215	-0.054633
N109	N	1.031932	-0.036206	0.414378
H110	H	1.062663	-0.060947	0.466084
H111	H	1.001134	-0.070633	0.380222
N112	N	0.933959	0.224305	0.585719
H113	H	0.931044	0.224586	0.652659
H114	H	0.991272	0.235522	0.566097
N115	N	1.145885	0.058795	0.584079
H116	H	1.176967	0.035244	0.531795
H117	H	1.186140	0.083314	0.621221
N118	N	0.888969	0.002037	0.585663
H119	H	0.861975	0.040139	0.626161
H120	H	0.850209	-0.004145	0.534087
H121	H	0.559795	0.108273	-0.146930
N122	N	0.391686	0.206751	-0.089330
H123	H	0.435529	0.240577	-0.091510
H124	H	0.355774	0.212358	-0.144551
N125	N	0.391963	0.208653	0.084270
H126	H	0.353962	0.216660	0.030836
H127	H	0.357484	0.216995	0.140210
H128	H	0.905232	0.010712	0.424030
