data_functionalizedCrystal
_audit_creation_method	'MofGen! by Chris Wilmer'
_symmetry_space_group_name_H-M	'P1'
_symmetry_Int_Tables_number	1
_symmetry_cell_setting	triclinic
loop_
_symmetry_equiv_pos_as_xyz
  x,y,z
_cell_length_a	18.101398
_cell_length_b	17.077402
_cell_length_c	17.077396
_cell_angle_alpha	90.030619
_cell_angle_beta	89.977334
_cell_angle_gamma	89.981851
loop_
_atom_site_label
_atom_site_type_symbol
_atom_site_fract_x
_atom_site_fract_y
_atom_site_fract_z
Zn1	Zn	1.132151	0.312601	-0.443949
Zn2	Zn	1.632151	0.812601	0.056051
Zn3	Zn	1.132068	0.443878	-0.312680
Zn4	Zn	1.632068	0.943878	0.187320
Zn5	Zn	1.008314	0.312619	-0.312685
Zn6	Zn	1.508314	0.812619	0.187315
Zn7	Zn	1.008279	0.443818	-0.443891
Zn8	Zn	1.508279	0.943818	0.056109
O9	O	1.070203	0.378229	-0.378301
O10	O	1.570203	0.878229	0.121699
O11	O	1.235773	0.330032	-0.426558
O12	O	1.735773	0.830032	0.073442
O13	O	1.115632	0.426498	-0.202834
O14	O	1.615632	0.926498	0.297166
O15	O	1.024790	0.202770	-0.330123
O16	O	1.524790	0.702770	0.169877
O17	O	1.235712	0.426481	-0.330116
O18	O	1.735712	0.926481	0.169884
O19	O	1.115773	0.202756	-0.426563
O20	O	1.615773	0.702756	0.073437
O21	O	1.024710	0.330063	-0.202837
O22	O	1.524710	0.830063	0.297163
O23	O	0.904676	0.330005	-0.330067
O24	O	1.404676	0.830005	0.169933
O25	O	1.024731	0.426379	-0.553746
O26	O	1.524731	0.926379	-0.053746
O27	O	0.904650	0.426396	-0.426464
O28	O	1.404650	0.926396	0.073536
O29	O	1.115739	0.329974	-0.553788
O30	O	1.615739	0.829974	-0.053788
O31	O	1.115598	0.553717	-0.330059
O32	O	1.615598	1.053717	0.169941
O33	O	1.024650	0.553673	-0.426460
O34	O	1.524650	1.053673	0.073540
C35	C	0.877792	0.378197	-0.378260
C36	C	1.377792	0.878197	0.121740
C37	C	0.795478	0.378202	-0.378261
C38	C	1.295478	0.878202	0.121739
C39	C	1.070132	0.582177	-0.378270
C40	C	1.570132	1.082177	0.121730
C41	C	1.070169	0.669426	-0.378283
C42	C	1.570169	1.169426	0.121717
C43	C	1.070240	0.378168	-0.583046
C44	C	1.570240	0.878168	-0.083046
C45	C	1.070256	0.378142	-0.670296
C46	C	1.570256	0.878142	-0.170296
C47	C	0.496387	0.378251	-0.378327
C48	C	0.996387	0.878251	0.121673
C49	C	0.527704	0.317301	-0.317973
C50	C	1.027704	0.817301	0.182027
C51	C	0.613322	0.317465	-0.317715
C52	C	1.113322	0.817465	0.182285
C53	C	0.644770	0.378226	-0.378295
C54	C	1.144770	0.878226	0.121705
C55	C	0.613664	0.460916	-0.355690
C56	C	1.113664	0.960916	0.144310
C57	C	0.528018	0.460577	-0.355271
C58	C	1.028018	0.960577	0.144729
C59	C	0.527997	0.357230	-0.461428
C60	C	1.027997	0.857230	0.038572
C61	C	0.613647	0.355389	-0.460975
C62	C	1.113647	0.855389	0.039025
C63	C	0.728629	0.378217	-0.378277
C64	C	1.228629	0.878217	0.121723
C65	C	0.412528	0.378266	-0.378343
C66	C	0.912528	0.878266	0.121657
C67	C	1.263365	0.378261	-0.378343
C68	C	1.763365	0.878261	0.121657
C69	C	1.345679	0.378275	-0.378361
C70	C	1.845679	0.878275	0.121639
C71	C	1.070295	0.173484	-0.378350
C72	C	1.570295	0.673484	0.121650
C73	C	1.070334	0.086235	-0.378371
C74	C	1.570334	0.586235	0.121629
C75	C	1.117574	0.710413	-0.328141
C76	C	1.617574	1.210413	0.171859
C77	C	1.117610	0.792394	-0.328161
C78	C	1.617610	1.292394	0.171839
C79	C	1.070237	0.833386	-0.378319
C80	C	1.570237	1.333386	0.121681
C81	C	1.022830	0.792393	-0.428467
C82	C	1.522830	1.292393	0.071533
C83	C	1.022798	0.710414	-0.428450
C84	C	1.522798	1.210414	0.071550
C85	C	1.022898	0.963263	-0.428497
C86	C	1.522898	1.463263	0.071503
C87	C	1.022929	1.045248	-0.428512
C88	C	1.522929	1.545248	0.071488
C89	C	1.117710	1.045243	-0.328208
C90	C	1.617710	1.545243	0.171792
C91	C	1.117678	0.963264	-0.328191
C92	C	1.617678	1.463264	0.171809
C93	C	1.070270	0.922277	-0.378337
C94	C	1.570270	1.422277	0.121663
C95	C	1.022927	0.327922	-0.711287
C96	C	1.522927	0.827922	-0.211287
C97	C	1.022939	0.327904	-0.793267
C98	C	1.522939	0.827904	-0.293267
C99	C	1.070285	0.378103	-0.834255
C100	C	1.570285	0.878103	-0.334255
C101	C	1.117615	0.428328	-0.793258
C102	C	1.617615	0.928328	-0.293258
C103	C	1.117599	0.428350	-0.711279
C104	C	1.617599	0.928350	-0.211279
C105	C	1.117647	0.428279	-0.964128
C106	C	1.617647	0.928279	-0.464128
C107	C	1.117665	0.428257	-1.046113
C108	C	1.617665	0.928257	-0.546113
C109	C	1.022988	0.327834	-1.046116
C110	C	1.522988	0.827834	-0.546116
C111	C	1.022971	0.327855	-0.964137
C112	C	1.522971	0.827855	-0.464137
C113	C	1.070303	0.378080	-0.923146
C114	C	1.570303	0.878080	-0.423146
C115	C	1.070209	0.378233	-0.174353
C116	C	1.570209	0.878233	0.325647
C117	C	1.070336	0.378037	-0.087104
C118	C	1.570336	0.878037	0.412896
H119	H	0.507125	0.255796	-0.331986
H120	H	1.007125	0.755796	0.168014
C121	C	0.500027	0.523937	-0.412134
C122	C	1.000027	1.023937	0.087866
H123	H	0.541001	0.549780	-0.435375
H124	H	1.041001	1.049780	0.064625
H125	H	0.470914	0.500186	-0.451850
H126	H	0.970914	1.000186	0.048150
H127	H	0.470909	0.560924	-0.384269
H128	H	0.970909	1.060924	0.115731
C129	C	0.641184	0.523913	-0.413208
C130	C	1.141184	1.023913	0.086792
H131	H	0.671966	0.500288	-0.451608
H132	H	1.171966	1.000288	0.048392
H133	H	0.600073	0.547894	-0.438093
H134	H	1.100073	1.047894	0.061907
H135	H	0.668508	0.562416	-0.385404
H136	H	1.168508	1.062416	0.114596
H137	H	0.507745	0.401623	-0.506398
H138	H	1.007745	0.901623	-0.006398
H139	H	0.984378	0.287040	-0.677920
H140	H	1.484378	0.787040	-0.177920
H141	H	0.984368	1.078621	-0.469370
H142	H	1.484368	1.578621	0.030630
C143	C	1.169686	0.665329	-0.272967
C144	C	1.669686	1.165329	0.227033
H145	H	1.197928	0.701484	-0.243113
H146	H	1.697928	1.201484	0.256887
H147	H	1.141368	0.633395	-0.238727
H148	H	1.641368	1.133395	0.261273
H149	H	1.201926	0.633304	-0.303029
H150	H	1.701926	1.133304	0.196971
C151	C	1.169748	0.483469	-1.091198
C152	C	1.669748	0.983469	-0.591198
H153	H	1.197930	0.513389	-1.055046
H154	H	1.697930	1.013389	-0.555046
H155	H	1.202034	0.453432	-1.123188
H156	H	1.702034	0.953432	-0.623188
H157	H	1.141408	0.517658	-1.123168
H158	H	1.641408	1.017658	-0.623168
C159	C	0.970901	0.272612	-1.091203
C160	C	1.470901	0.772612	-0.591203
H161	H	0.977677	0.279801	-1.145897
H162	H	1.477677	0.779801	-0.645897
H163	H	0.981743	0.219869	-1.077797
H164	H	1.481743	0.719869	-0.577797
H165	H	0.921139	0.284118	-1.077741
H166	H	1.421139	0.784118	-0.577741
C167	C	0.970654	0.665325	-0.483604
C168	C	1.470654	1.165325	0.016396
H169	H	0.977425	0.610631	-0.476417
H170	H	1.477425	1.110631	0.023583
H171	H	0.920907	0.678805	-0.472069
H172	H	1.420907	1.178805	0.027931
H173	H	0.981474	0.678714	-0.536362
H174	H	1.481474	1.178714	-0.036362
C175	C	0.498848	0.277191	-0.489192
C176	C	0.998848	0.777191	0.010808
H177	H	0.467125	0.255844	-0.450357
H178	H	0.967125	0.755844	0.049643
H179	H	0.472195	0.283655	-0.536657
H180	H	0.972195	0.783655	-0.036657
H181	H	0.539247	0.242686	-0.497671
H182	H	1.039247	0.742686	0.002329
C183	C	0.642588	0.485416	-0.274505
C184	C	1.142588	0.985416	0.225495
H185	H	0.673611	0.445370	-0.254277
H186	H	1.173611	0.945370	0.245723
H187	H	0.669939	0.532655	-0.279100
H188	H	1.169939	1.032655	0.220900
H189	H	0.602050	0.493321	-0.240045
H190	H	1.102050	0.993321	0.259955
H191	H	0.633983	0.294538	-0.478019
H192	H	1.133983	0.794538	0.021981
H193	H	1.156161	0.469205	-0.826637
H194	H	1.656161	0.969205	-0.326637
C195	C	0.641739	0.234628	-0.336838
C196	C	1.141739	0.734628	0.163162
H197	H	0.600939	0.200571	-0.344831
H198	H	1.100939	0.700571	0.155169
H199	H	0.671019	0.236326	-0.382979
H200	H	1.171019	0.736326	0.117021
H201	H	0.670777	0.215871	-0.294484
H202	H	1.170777	0.715871	0.205516
C203	C	0.498603	0.335860	-0.235271
C204	C	0.998603	0.835860	0.264729
H205	H	0.467453	0.380592	-0.237364
H206	H	0.967453	0.880592	0.262636
H207	H	0.471350	0.292387	-0.216074
H208	H	0.971350	0.792387	0.283926
H209	H	0.539061	0.346068	-0.201355
H210	H	1.039061	0.846068	0.298645
C211	C	0.970722	0.837478	-0.483644
C212	C	1.470722	1.337478	0.016356
H213	H	0.942490	0.801324	-0.513510
H214	H	1.442490	1.301324	-0.013510
H215	H	0.938483	0.869506	-0.453591
H216	H	1.438483	1.369506	0.046409
H217	H	0.999050	0.869410	-0.517885
H218	H	1.499050	1.369410	-0.017885
C219	C	0.500985	0.484651	-0.273202
C220	C	1.000985	0.984651	0.226798
H221	H	0.542346	0.494542	-0.240431
H222	H	1.042346	0.994542	0.259569
H223	H	0.471751	0.530687	-0.277101
H224	H	0.971751	1.030687	0.222899
H225	H	0.472193	0.443563	-0.251436
H226	H	0.972193	0.943563	0.248564
H227	H	1.156314	1.078618	-0.287379
H228	H	1.656314	1.578618	0.212621
H229	H	1.156249	0.929888	-0.287344
H230	H	1.656249	1.429888	0.212656
H231	H	1.156197	0.469171	-0.930755
H232	H	1.656197	0.969171	-0.430755
C233	C	0.970882	0.272658	-0.838355
C234	C	1.470882	0.772658	-0.338355
H235	H	0.942691	0.242757	-0.802203
H236	H	1.442691	0.742757	-0.302203
H237	H	0.938604	0.302666	-0.870320
H238	H	1.438604	0.802666	-0.370320
H239	H	0.999241	0.238452	-0.870348
H240	H	1.499241	0.738452	-0.370348
C241	C	1.169660	0.483591	-0.666188
C242	C	1.669660	0.983591	-0.166188
H243	H	1.197864	0.513481	-0.702339
H244	H	1.697864	1.013481	-0.202339
H245	H	1.141307	0.517796	-0.634195
H246	H	1.641307	1.017796	-0.134195
H247	H	1.201939	0.453575	-0.634223
H248	H	1.701939	0.953575	-0.134223
H249	H	0.633779	0.331362	-0.256139
H250	H	1.133779	0.831362	0.243861
C251	C	0.642554	0.410996	-0.524979
C252	C	1.142554	0.910996	-0.024979
H253	H	0.674119	0.449042	-0.502012
H254	H	1.174119	0.949042	-0.002012
H255	H	0.669325	0.381800	-0.562913
H256	H	1.169325	0.881800	-0.062913
H257	H	0.602042	0.436474	-0.549489
H258	H	1.102042	0.936474	-0.049489
H259	H	1.156211	0.825762	-0.287330
H260	H	1.656211	1.325762	0.212670
H261	H	0.984296	0.929894	-0.469334
H262	H	1.484296	1.429894	0.030666
H263	H	0.984422	0.286976	-0.930767
H264	H	1.484422	0.786976	-0.430767
