data_functionalizedCrystal
_audit_creation_method	'MofGen! by Chris Wilmer'
_symmetry_space_group_name_H-M	'P1'
_symmetry_Int_Tables_number	1
_symmetry_cell_setting	triclinic
loop_
_symmetry_equiv_pos_as_xyz
  x,y,z
_cell_length_a	19.121063
_cell_length_b	12.594517
_cell_length_c	12.594509
_cell_angle_alpha	90.021327
_cell_angle_beta	92.405810
_cell_angle_gamma	87.531195
loop_
_atom_site_label
_atom_site_type_symbol
_atom_site_fract_x
_atom_site_fract_y
_atom_site_fract_z
Zn1	Zn	-0.279596	-1.609106	-0.619881
Zn2	Zn	-0.397059	-1.601367	-0.449473
Zn3	Zn	-0.279626	-1.431108	-0.441911
Zn4	Zn	-0.397010	-1.423466	-0.627400
O5	O	-0.338323	-1.516262	-0.534666
O6	O	-0.295185	-1.757025	-0.597293
O7	O	-0.381514	-1.578742	-0.299526
O8	O	-0.181338	-1.461157	-0.459208
O9	O	-0.381485	-1.751339	-0.472096
O10	O	-0.181315	-1.591931	-0.589961
O11	O	-0.295237	-1.453653	-0.293971
O12	O	-0.295189	-1.281149	-0.466499
O13	O	-0.381402	-1.448132	-0.775346
O14	O	-0.381431	-1.275534	-0.602777
O15	O	-0.295138	-1.584521	-0.769822
O16	O	-0.495337	-1.571331	-0.479386
O17	O	-0.495301	-1.440628	-0.610109
C18	C	-0.338309	-1.239722	-0.534634
C19	C	-0.338319	-1.121416	-0.534646
C20	C	-0.520803	-1.504339	-0.546407
C21	C	-0.598868	-1.499336	-0.551466
C22	C	-0.338261	-1.516337	-0.812283
C23	C	-0.338235	-1.516369	-0.930587
C24	C	-0.635539	-1.565089	-0.485838
C25	C	-0.708890	-1.560390	-0.490602
C26	C	-0.745569	-1.489932	-0.560988
C27	C	-0.708893	-1.424176	-0.626623
C28	C	-0.635544	-1.428881	-0.621864
C29	C	-0.967038	-1.472323	-0.578765
C30	C	-1.040393	-1.467620	-0.583517
C31	C	-1.040385	-1.603835	-0.447497
C32	C	-0.967034	-1.608530	-0.442740
C33	C	-0.930365	-1.542779	-0.508378
C34	C	-0.820546	-1.485124	-0.565857
C35	C	-0.855389	-1.547592	-0.503514
C36	C	-0.155130	-1.528260	-0.522903
C37	C	-0.077064	-1.533373	-0.517890
C38	C	-0.338337	-1.793882	-0.534699
C39	C	-0.338343	-1.912187	-0.534713
C40	C	-0.291349	-1.055190	-0.460657
C41	C	-0.355414	-0.980217	-0.438606
C42	C	-0.274285	-0.985587	-0.556717
C43	C	-0.402419	-1.047999	-0.512547
C44	C	-0.321246	-1.053378	-0.630701
C45	C	-0.385356	-0.978435	-0.608690
C46	C	-0.385127	-1.442211	-1.002843
C47	C	-0.402288	-1.538217	-1.074740
C48	C	-0.321032	-1.420442	-1.069487
C49	C	-0.355429	-1.612424	-1.000927
C50	C	-0.274143	-1.494585	-0.995667
C51	C	-0.291280	-1.590659	-1.067530
C52	C	-0.338333	-1.516251	-0.258126
C53	C	-0.338162	-1.516438	-0.139810
H54	H	-0.605680	-1.622458	-0.428518
H55	H	-0.456598	-1.075422	-0.493817
Br56	Br	-0.379510	-0.926717	-0.303266
H57	H	-0.456457	-1.556680	-1.109336
H58	H	-1.070249	-1.657368	-0.394060
Br59	Br	-0.451651	-0.922746	-0.713035
Br60	Br	-0.184013	-0.939650	-0.587783
H61	H	-0.937188	-1.418783	-0.632208
H62	H	-0.306771	-1.085502	-0.711878
Br63	Br	-0.451320	-1.337755	-0.955340
Br64	Br	-0.379740	-1.747717	-0.950903
H65	H	-0.850418	-1.427755	-0.623164
H66	H	-0.306512	-1.339288	-1.099641
H67	H	-0.738745	-1.613932	-0.437161
Br68	Br	-0.917260	-1.704169	-0.347226
Br69	Br	-0.758671	-1.328562	-0.722157
Br70	Br	-1.090172	-1.371974	-0.679029
Br71	Br	-0.585775	-1.339649	-0.710939
H72	H	-0.825523	-1.604963	-0.446209
H73	H	-0.251666	-1.088788	-0.398014
H74	H	-0.251593	-1.653471	-1.095834
H75	H	-0.219990	-1.476092	-0.961048
