data_functionalizedCrystal
_audit_creation_method	'MofGen! by Chris Wilmer'
_symmetry_space_group_name_H-M	'P1'
_symmetry_Int_Tables_number	1
_symmetry_cell_setting	triclinic
loop_
_symmetry_equiv_pos_as_xyz
  x,y,z
_cell_length_a	29.999520
_cell_length_b	29.998686
_cell_length_c	29.995014
_cell_angle_alpha	60.005185
_cell_angle_beta	60.010401
_cell_angle_gamma	59.993433
loop_
_atom_site_label
_atom_site_type_symbol
_atom_site_fract_x
_atom_site_fract_y
_atom_site_fract_z
O1	O	0.061772	-0.651300	0.544623
O2	O	0.023267	-0.507084	0.438819
O3	O	0.114589	-0.598332	0.438743
O4	O	-0.029550	-0.560051	0.544699
O5	O	0.144886	-0.568039	0.468961
O6	O	0.053564	-0.476791	0.469038
O7	O	0.092069	-0.621007	0.574841
Zn8	Zn	0.077627	-0.544089	0.526737
Zn9	Zn	0.037709	-0.584002	0.486923
O10	O	0.000748	-0.529758	0.574918
N11	N	0.104871	-0.516854	0.553912
N12	N	0.010470	-0.611242	0.459748
C13	C	0.143162	-0.478782	0.827124
C14	C	0.378203	-0.478734	0.591892
C15	C	0.143005	-0.478752	0.591997
C16	C	0.142986	-0.243586	0.592008
C17	C	0.180857	-0.357087	0.629814
C18	C	0.180866	-0.440920	0.629807
C19	C	0.201840	-0.419964	0.650755
C20	C	0.293272	-0.404201	0.602606
C21	C	0.350426	-0.423248	0.583534
C22	C	0.350451	-0.515727	0.618798
C23	C	0.293297	-0.496678	0.637872
C24	C	0.194628	-0.328499	0.573626
C25	C	0.175551	-0.271340	0.554591
C26	C	0.128936	-0.271362	0.647935
C27	C	0.148014	-0.328521	0.666970
C28	C	0.124672	-0.427119	0.643641
C29	C	0.105611	-0.446170	0.624592
C30	C	0.198934	-0.492820	0.577889
C31	C	0.217998	-0.473770	0.596931
C32	C	0.124740	-0.427136	0.742229
C33	C	0.105728	-0.446202	0.799386
C34	C	0.199085	-0.492863	0.799337
C35	C	0.218096	-0.473798	0.742178
C36	C	0.180923	-0.440933	0.713626
C37	C	0.264710	-0.440915	0.629773
C38	C	0.121509	-0.499370	0.889991
C39	C	0.441068	-0.498953	0.570621
C40	C	0.121297	-0.499349	0.571429
C41	C	0.121653	-0.180715	0.571802
C42	C	-0.111071	-0.648912	0.421584
C43	C	-0.027286	-0.649018	0.421777
C44	C	-0.048200	-0.669944	0.400740
C45	C	-0.064036	-0.761340	0.448814
C46	C	-0.045033	-0.818500	0.467893
C47	C	0.047447	-0.818609	0.432797
C48	C	0.028444	-0.761451	0.413717
C49	C	-0.139731	-0.662677	0.477755
C50	C	-0.196885	-0.643554	0.496701
C51	C	-0.196717	-0.596907	0.403303
C52	C	-0.139562	-0.616030	0.384357
C53	C	-0.041053	-0.592827	0.407952
C54	C	-0.022041	-0.573809	0.427083
C55	C	0.024504	-0.667167	0.473848
C56	C	0.005492	-0.686188	0.454725
C57	C	-0.040886	-0.592836	0.309259
C58	C	-0.021740	-0.573821	0.252102
C59	C	0.024886	-0.667185	0.252163
C60	C	0.005743	-0.686199	0.309322
C61	C	-0.027145	-0.649023	0.337868
C62	C	-0.027299	-0.732818	0.421728
N63	N	0.492511	-0.516826	0.553742
O64	O	0.679283	-0.525926	0.419277
O65	O	0.679465	-0.632059	0.563349
O66	O	0.679393	-0.631817	0.471975
O67	O	0.679355	-0.526168	0.510650
O68	O	0.588593	-0.601610	0.502313
O69	O	0.588665	-0.601852	0.593686
O70	O	0.588483	-0.495720	0.449614
Zn71	Zn	0.574158	-0.543990	0.526467
Zn72	Zn	0.693790	-0.583788	0.486496
O73	O	0.588555	-0.495962	0.540987
N74	N	0.775436	-0.610952	0.459215
N75	N	0.104844	-0.129269	0.553931
O76	O	-0.029548	0.057600	0.544709
O77	O	0.114530	0.057617	0.438578
O78	O	0.023130	0.057594	0.438850
O79	O	0.061852	0.057623	0.544437
O80	O	0.053431	-0.033213	0.469115
O81	O	0.144831	-0.033190	0.468843
O82	O	0.000753	-0.033207	0.574974
Zn83	Zn	0.077603	-0.047616	0.526714
Zn84	Zn	0.037680	0.072026	0.486838
O85	O	0.092153	-0.033184	0.574702
N86	N	0.010432	0.153679	0.459622
N87	N	0.105130	-0.516904	0.941437
O88	O	0.095923	-0.651280	1.128292
O89	O	-0.010184	-0.507155	1.128318
O90	O	-0.009938	-0.598539	1.128284
O91	O	0.095677	-0.559897	1.128326
O92	O	0.020315	-0.568257	1.037481
O93	O	0.020068	-0.476874	1.037515
O94	O	0.126176	-0.620999	1.037489
Zn95	Zn	0.077925	-0.544128	1.023085
Zn96	Zn	0.038066	-0.584026	1.142722
O97	O	0.125929	-0.529616	1.037523
N98	N	0.010860	-0.611256	1.224371
C99	C	0.034807	-0.473765	0.439352
C100	C	0.147897	-0.586765	0.439257
C101	C	0.080529	-0.654326	0.574308
C102	C	-0.032561	-0.541326	0.574403
C103	C	0.634087	-0.631571	0.596668
C104	C	0.633999	-0.631272	0.483513
C105	C	0.633858	-0.496206	0.416295
C106	C	0.633949	-0.496507	0.529449
C107	C	0.147793	0.012327	0.439058
C108	C	0.034644	0.012187	0.439432
C109	C	-0.032548	0.012195	0.574457
C110	C	0.080639	0.012222	0.574120
C111	C	-0.009670	-0.473857	1.082920
C112	C	-0.009359	-0.587018	1.082860
C113	C	0.125662	-0.654297	1.082887
C114	C	0.125358	-0.541129	1.082927
H115	H	0.094465	-0.400370	0.718985
C116	C	0.170186	-0.529965	1.082935
C117	C	0.159009	-0.473969	1.082949
C118	C	0.203837	-0.462804	1.082957
C119	C	0.259842	-0.507636	1.082951
C120	C	0.271020	-0.563635	1.082937
C121	C	0.226192	-0.574800	1.082929
H122	H	0.117550	-0.440779	1.082954
H123	H	0.195562	-0.421350	1.082968
H124	H	0.293026	-0.499371	1.082957
H125	H	0.312480	-0.596825	1.082933
H126	H	0.234468	-0.616255	1.082919
C127	C	0.023699	-0.417802	0.394456
C128	C	0.027620	-0.414007	0.339550
C129	C	0.016512	-0.358043	0.294654
C130	C	0.001483	-0.305875	0.304664
C131	C	-0.002438	-0.309668	0.359573
C132	C	0.008669	-0.365631	0.404469
H133	H	0.038745	-0.452627	0.332137
H134	H	0.019415	-0.355235	0.254007
H135	H	-0.006739	-0.264447	0.271429
H136	H	-0.013564	-0.271048	0.366985
H137	H	0.005766	-0.368439	0.445116
C138	C	0.633782	-0.451188	0.360401
C139	C	0.633736	-0.395260	0.349497
C140	C	0.633660	-0.350241	0.293602
C141	C	0.633630	-0.361152	0.248611
C142	C	0.633676	-0.417082	0.259514
C143	C	0.633752	-0.462101	0.315408
H144	H	0.633758	-0.387181	0.382803
H145	H	0.633625	-0.308838	0.285532
H146	H	0.633574	-0.327826	0.207235
H147	H	0.633654	-0.425161	0.226208
H148	H	0.633787	-0.503505	0.323479
H149	H	0.016937	-0.731954	0.332612
H150	H	0.229173	-0.519573	0.551126
C151	C	0.023449	0.012177	0.394616
C152	C	0.068250	0.012179	0.338610
C153	C	0.057055	0.012169	0.293794
C154	C	0.001059	0.012158	0.304985
C155	C	-0.043747	0.012156	0.360995
C156	C	-0.032552	0.012166	0.405810
H157	H	0.109706	0.012187	0.330323
H158	H	0.090223	0.012170	0.252332
H159	H	-0.007229	0.012150	0.271810
H160	H	-0.085202	0.012148	0.369281
H161	H	-0.065720	0.012165	0.447272
C162	C	-0.054166	-0.598162	1.082790
C163	C	-0.109104	-0.594259	1.129911
C164	C	-0.153911	-0.605403	1.129841
C165	C	-0.143781	-0.620450	1.082650
C166	C	-0.088841	-0.624354	1.035525
C167	C	-0.044034	-0.613210	1.035595
H168	H	-0.116604	-0.583119	1.164848
H169	H	-0.194581	-0.602512	1.164726
H170	H	-0.176950	-0.628699	1.082598
H171	H	-0.081340	-0.635493	1.000588
H172	H	-0.003364	-0.616100	1.000710
H173	H	0.189085	0.012584	0.405656
C174	C	-0.088445	0.012191	0.619472
C175	C	-0.133453	0.012178	0.608581
C176	C	-0.189349	0.012174	0.653595
C177	C	-0.200238	0.012182	0.709501
C178	C	-0.155229	0.012195	0.720394
C179	C	-0.099332	0.012199	0.675379
H180	H	-0.125393	0.012172	0.567194
H181	H	-0.222668	0.012165	0.645531
H182	H	-0.241616	0.012179	0.742823
H183	H	-0.163288	0.012201	0.761781
H184	H	-0.066013	0.012208	0.683444
H185	H	0.088930	0.012231	0.607291
H186	H	0.633941	-0.463320	0.537725
H187	H	-0.042983	-0.432464	1.082928
H188	H	-0.033252	-0.528055	0.415829
C189	C	-0.108390	-0.698846	0.518703
C190	C	-0.069133	-0.756892	0.518505
C191	C	-0.037793	-0.793062	0.559457
C192	C	-0.045712	-0.771185	0.600606
C193	C	-0.084971	-0.713136	0.600805
C194	C	-0.116310	-0.676966	0.559854
H195	H	-0.063269	-0.773089	0.488043
H196	H	-0.008731	-0.836034	0.559309
H197	H	-0.022513	-0.797961	0.630921
H198	H	-0.090834	-0.696939	0.631268
H199	H	-0.145373	-0.633994	0.560002
H200	H	0.634015	-0.664461	0.475235
H201	H	-0.073962	-0.533167	0.607674
C202	C	0.634154	-0.676586	0.652566
C203	C	0.587042	-0.700115	0.687742
C204	C	0.587109	-0.745130	0.743640
C205	C	0.634289	-0.766617	0.764361
C206	C	0.681404	-0.743088	0.729184
C207	C	0.681337	-0.698073	0.673287
H208	H	0.552114	-0.684209	0.672404
H209	H	0.552231	-0.762548	0.769680
H210	H	0.634338	-0.799940	0.805740
H211	H	0.716332	-0.758994	0.744523
H212	H	0.716215	-0.680655	0.647247
H213	H	0.189295	-0.594927	0.405983
H214	H	0.158977	-0.695688	1.082873
H215	H	0.059977	-0.434960	0.822668
H216	H	0.088756	-0.695753	0.607538
C217	C	0.381845	-0.382861	0.553645
C218	C	0.374002	-0.348126	0.582869
C219	C	0.405421	-0.307736	0.552979
C220	C	0.444683	-0.302083	0.493865
C221	C	0.452528	-0.336820	0.464638
C222	C	0.421109	-0.377209	0.494528
H223	H	0.344936	-0.352310	0.626632
H224	H	0.399613	-0.282022	0.574615
H225	H	0.467942	-0.272185	0.471738
H226	H	0.481594	-0.332636	0.420875
H227	H	0.426917	-0.402923	0.472892
C228	C	0.239979	-0.529006	0.830739
C229	C	0.281096	-0.507125	0.822858
C230	C	0.321992	-0.543269	0.854260
C231	C	0.321771	-0.601294	0.893543
C232	C	0.280653	-0.623178	0.901427
C233	C	0.239757	-0.587034	0.870025
H234	H	0.281261	-0.464169	0.793776
H235	H	0.352430	-0.527068	0.848424
H236	H	0.352045	-0.628049	0.916789
H237	H	0.280488	-0.666134	0.930508
H238	H	0.209318	-0.603234	0.875861
C239	C	0.279901	-0.488976	0.710716
C240	C	0.305806	-0.443787	0.671417
C241	C	0.367610	-0.458965	0.639955
C242	C	0.403509	-0.519333	0.647792
C243	C	0.377604	-0.564527	0.687092
C244	C	0.315800	-0.549348	0.718554
H245	H	0.279232	-0.399095	0.665614
H246	H	0.386786	-0.425510	0.610862
H247	H	0.449259	-0.530569	0.624502
H248	H	0.404178	-0.609218	0.692895
H249	H	0.296624	-0.582804	0.747647
H250	H	0.094434	-0.400372	0.670409
H251	H	0.059853	-0.434921	0.635844
H252	H	0.263756	-0.485001	0.585661
H253	H	0.373728	-0.561133	0.625383
C254	C	0.261877	-0.537066	0.667757
C255	C	0.293325	-0.598403	0.676659
C256	C	0.261905	-0.638792	0.706546
C257	C	0.199037	-0.617842	0.727531
C258	C	0.167586	-0.556502	0.718629
C259	C	0.199006	-0.516114	0.688742
H260	H	0.339866	-0.613914	0.661125
H261	H	0.285188	-0.684200	0.713136
H262	H	0.175779	-0.647740	0.749655
H263	H	0.121045	-0.540991	0.734163
H264	H	0.175723	-0.470705	0.682152
H265	H	0.221368	-0.351757	0.543370
C266	C	0.261827	-0.342861	0.593699
C267	C	0.269650	-0.301299	0.535377
C268	C	0.238203	-0.239957	0.526469
C269	C	0.198934	-0.220179	0.575884
C270	C	0.191109	-0.261742	0.634210
C271	C	0.222556	-0.323083	0.643118
H272	H	0.298721	-0.315939	0.498793
H273	H	0.243996	-0.209190	0.483292
H274	H	0.175655	-0.174770	0.569290
H275	H	0.162038	-0.247101	0.670793
H276	H	0.216763	-0.353851	0.686295
H277	H	0.102202	-0.248101	0.678192
C278	C	0.190698	-0.239889	0.492780
C279	C	0.226827	-0.271311	0.451909
C280	C	0.241976	-0.239860	0.390099
C281	C	0.220996	-0.176988	0.369160
C282	C	0.184865	-0.145562	0.410032
C283	C	0.169716	-0.177013	0.471842
H284	H	0.242360	-0.317856	0.467409
H285	H	0.268724	-0.263124	0.359843
H286	H	0.232211	-0.153706	0.323404
H287	H	0.169332	-0.099017	0.394532
H288	H	0.142969	-0.153749	0.502097
H289	H	0.136793	-0.351798	0.712725
H290	H	-0.067667	-0.562559	0.332499
C291	C	-0.036867	-0.512010	0.220639
C292	C	-0.020262	-0.476155	0.228563
C293	C	-0.035388	-0.414345	0.197099
C294	C	-0.067119	-0.388390	0.157711
C295	C	-0.083725	-0.424246	0.149785
C296	C	-0.068599	-0.486055	0.181249
H297	H	0.003228	-0.495368	0.257722
H298	H	-0.023095	-0.387803	0.202966
H299	H	-0.078316	-0.342635	0.134419
H300	H	-0.107216	-0.405032	0.120626
H301	H	-0.080893	-0.512598	0.175382
H302	H	-0.067739	-0.562558	0.381123
C303	C	0.061053	-0.708080	0.220768
C304	C	0.119105	-0.707903	0.181571
C305	C	0.155273	-0.748801	0.150176
C306	C	0.133388	-0.789876	0.157977
C307	C	0.075333	-0.790055	0.197175
C308	C	0.039165	-0.749157	0.228571
H309	H	0.135308	-0.677495	0.175795
H310	H	0.198249	-0.748669	0.121159
H311	H	0.160161	-0.820152	0.134736
H312	H	0.059129	-0.820463	0.202952
H313	H	-0.003812	-0.749290	0.257588
C314	C	0.060576	-0.708064	0.510072
C315	C	0.118595	-0.707876	0.491188
C316	C	0.154673	-0.748778	0.527406
C317	C	0.132733	-0.789868	0.582509
C318	C	0.074711	-0.790058	0.601396
C319	C	0.038633	-0.749156	0.565178
H320	H	0.134839	-0.677457	0.450395
H321	H	0.197625	-0.748637	0.513425
H322	H	0.159440	-0.820147	0.609321
H323	H	0.058467	-0.820477	0.642189
H324	H	-0.004319	-0.749297	0.579159
C325	C	0.068856	-0.730075	0.383923
C326	C	0.103518	-0.737969	0.413255
C327	C	0.143931	-0.706593	0.383460
C328	C	0.149682	-0.667323	0.324332
C329	C	0.115020	-0.659428	0.294997
C330	C	0.074607	-0.690804	0.324792
H331	H	0.099261	-0.767040	0.457028
H332	H	0.169590	-0.712438	0.405177
H333	H	0.179598	-0.644097	0.302276
H334	H	0.119277	-0.630357	0.251224
H335	H	0.048948	-0.684959	0.303075
C336	C	0.108765	-0.850112	0.423992
C337	C	0.138204	-0.842292	0.448077
C338	C	0.199519	-0.873794	0.439272
C339	C	0.231396	-0.913116	0.406382
C340	C	0.201957	-0.920938	0.382295
C341	C	0.140641	-0.889435	0.391100
H342	H	0.114606	-0.813182	0.472426
H343	H	0.221312	-0.868004	0.457103
H344	H	0.276786	-0.936436	0.399864
H345	H	0.225554	-0.950048	0.357946
H346	H	0.118849	-0.895226	0.373268
H347	H	-0.109425	-0.738032	0.455342
C348	C	-0.085452	-0.849867	0.497695
C349	C	-0.132302	-0.841945	0.550733
C350	C	-0.172725	-0.873311	0.580538
C351	C	-0.166299	-0.912599	0.557306
C352	C	-0.119447	-0.920523	0.504266
C353	C	-0.079023	-0.889157	0.474461
H354	H	-0.137061	-0.812860	0.567933
H355	H	-0.207408	-0.867445	0.619802
H356	H	-0.196223	-0.935817	0.579370
H357	H	-0.114687	-0.949608	0.487066
H358	H	-0.044340	-0.895023	0.435197
H359	H	0.016700	-0.731943	0.465981
H360	H	-0.220220	-0.654760	0.542443
H361	H	-0.116227	-0.604815	0.338615
C362	C	-0.228066	-0.560748	0.362359
C363	C	-0.220152	-0.582634	0.321221
C364	C	-0.251502	-0.546476	0.280278
C365	C	-0.290765	-0.488431	0.280475
C366	C	-0.298681	-0.466541	0.321615
C367	C	-0.267331	-0.502699	0.362557
H368	H	-0.191085	-0.625606	0.321074
H369	H	-0.245642	-0.562681	0.249824
H370	H	-0.313972	-0.461664	0.250167
H371	H	-0.327748	-0.423570	0.321762
H372	H	-0.273191	-0.486495	0.393012
