data_functionalizedCrystal
_audit_creation_method	'MofGen! by Chris Wilmer'
_symmetry_space_group_name_H-M	'P1'
_symmetry_Int_Tables_number	1
_symmetry_cell_setting	triclinic
loop_
_symmetry_equiv_pos_as_xyz
  x,y,z
_cell_length_a	10.723023
_cell_length_b	14.519731
_cell_length_c	9.198806
_cell_angle_alpha	89.995832
_cell_angle_beta	89.996513
_cell_angle_gamma	84.078200
loop_
_atom_site_label
_atom_site_type_symbol
_atom_site_fract_x
_atom_site_fract_y
_atom_site_fract_z
O1	O	1.655992	0.129343	-0.120881
O2	O	2.155992	0.629343	0.379119
O3	O	1.292725	0.141724	-0.120888
O4	O	1.792725	0.641724	0.379112
O5	O	1.483976	0.001346	-0.120871
O6	O	1.983976	0.501346	0.379129
O7	O	1.464741	0.269722	-0.120898
O8	O	1.964741	0.769722	0.379102
O9	O	1.483961	0.001345	0.120914
O10	O	1.983961	0.501345	0.620914
O11	O	1.292710	0.141724	0.120897
O12	O	1.792710	0.641724	0.620897
O13	O	1.655977	0.129342	0.120904
O14	O	2.155977	0.629342	0.620904
Cu15	Cu	1.474342	0.135533	0.142977
Cu16	Cu	1.974342	0.635533	0.642977
Cu17	Cu	1.474360	0.135534	-0.142961
Cu18	Cu	1.974360	0.635534	0.357039
O19	O	1.464726	0.269721	0.120887
O20	O	1.964726	0.769721	0.620887
C21	C	1.246226	0.140823	0.000004
C22	C	1.746226	0.640823	0.500004
C23	C	1.107697	0.138128	0.000002
C24	C	1.607697	0.638128	0.500002
C25	C	1.045928	0.136926	0.125253
C26	C	1.545928	0.636926	0.625253
C27	C	0.902751	0.134140	0.125254
C28	C	1.402751	0.634140	0.625254
C29	C	1.483067	-0.033019	0.000022
C30	C	1.983067	0.466981	0.500022
C31	C	1.480367	-0.135413	0.000023
C32	C	1.980367	0.364587	0.500023
C33	C	1.478172	-0.218568	0.000019
C34	C	1.978172	0.281432	0.500019
C35	C	1.475430	-0.322891	0.000008
C36	C	1.975430	0.177109	0.500008
C37	C	1.473254	-0.406041	-0.000001
C38	C	1.973254	0.093959	0.499999
C39	C	1.470512	-0.510370	-0.000010
C40	C	1.970512	-0.010370	0.499990
C41	C	1.702476	0.130243	0.000009
C42	C	2.202476	0.630243	0.500009
C43	C	1.841005	0.132939	0.000001
C44	C	2.341005	0.632939	0.500001
C45	C	1.465635	0.304085	-0.000009
C46	C	1.965635	0.804085	0.499991
C47	C	1.468336	0.406479	-0.000019
C48	C	1.968336	0.906479	0.499981
N49	N	1.474339	0.135532	0.344091
N50	N	1.974339	0.635532	0.844091
N51	N	1.474373	0.135527	-0.344075
N52	N	1.974373	0.635527	0.155925
C53	C	1.554642	0.076331	0.416295
C54	C	2.054642	0.576331	0.916295
C55	C	1.554661	0.076328	0.583708
C56	C	2.054661	0.576328	1.083708
H57	H	0.849630	0.133112	0.232485
H58	H	1.349630	0.633112	0.732485
N59	N	1.112524	0.138252	0.259795
N60	N	1.612524	0.638252	0.759795
N61	N	1.054521	0.137142	0.377551
N62	N	1.554521	0.637142	0.877551
H63	H	1.101549	0.138087	0.472577
H64	H	1.601549	0.638087	0.972577
H65	H	0.894116	0.133978	-0.107236
H66	H	1.394116	0.633978	0.392764
H67	H	1.054582	0.137092	-0.107229
H68	H	1.554582	0.637092	0.392771
H69	H	1.623375	0.025645	0.354175
H70	H	2.123375	0.525645	0.854175
N71	N	1.388120	0.199127	0.422009
N72	N	1.888120	0.699127	0.922009
N73	N	1.390334	0.284365	0.405121
N74	N	1.890334	0.784365	0.905121
H75	H	1.329439	0.329282	0.460148
H76	H	1.829439	0.829282	0.960148
H77	H	1.623417	0.025647	0.645800
H78	H	2.123417	0.525647	1.145800
N79	N	1.388101	0.199116	0.578074
N80	N	1.888101	0.699116	1.078074
N81	N	1.312615	0.254769	0.645896
N82	N	1.812615	0.754769	1.145896
H83	H	1.251683	0.299680	0.590907
H84	H	1.751683	0.799680	1.090907
