data_functionalizedCrystal
_audit_creation_method	'MofGen! by Chris Wilmer'
_symmetry_space_group_name_H-M	'P1'
_symmetry_Int_Tables_number	1
_symmetry_cell_setting	triclinic
loop_
_symmetry_equiv_pos_as_xyz
  x,y,z
_cell_length_a	14.971482
_cell_length_b	15.625429
_cell_length_c	13.448316
_cell_angle_alpha	71.916250
_cell_angle_beta	89.993798
_cell_angle_gamma	83.938134
loop_
_atom_site_label
_atom_site_type_symbol
_atom_site_fract_x
_atom_site_fract_y
_atom_site_fract_z
O1	O	1.186971	0.117472	-0.125031
O2	O	0.926573	0.131544	-0.130110
O3	O	1.063727	-0.006723	-0.080251
O4	O	1.049817	0.255739	-0.174890
O5	O	1.063710	-0.006731	0.085136
O6	O	0.926556	0.131536	0.035277
O7	O	1.186954	0.117463	0.040356
Cu8	Cu	1.056753	0.124499	0.052918
Cu9	Cu	1.056774	0.124509	-0.142671
O10	O	1.049799	0.255730	-0.009503
C11	C	0.893239	0.130911	-0.047190
C12	C	0.793942	0.129027	-0.046512
C13	C	0.747288	0.128135	0.043961
C14	C	0.653989	0.126350	0.044606
C15	C	0.607345	0.125464	-0.045227
C16	C	0.654006	0.126353	-0.135706
C17	C	0.747304	0.128132	-0.136347
C18	C	0.459544	0.122649	-0.134364
C19	C	0.366239	0.120872	-0.133724
C20	C	0.366228	0.120868	0.046589
C21	C	0.459526	0.122646	0.045948
C22	C	0.506181	0.123537	-0.044533
C23	C	1.063088	-0.040316	0.014552
C24	C	1.061199	-0.140399	0.050633
C25	C	1.055008	-0.469538	-0.281424
C26	C	1.053229	-0.563580	-0.247489
C27	C	1.053210	-0.563576	-0.067196
C28	C	1.054994	-0.469532	-0.101115
C29	C	1.055891	-0.422520	-0.208231
C30	C	1.055877	-0.422514	-0.027922
C31	C	1.057656	-0.328478	-0.061840
C32	C	1.058551	-0.281459	-0.168951
C33	C	1.057670	-0.328483	-0.242148
C34	C	1.054973	-0.469527	0.079192
C35	C	1.055857	-0.422509	0.152386
C36	C	1.057642	-0.328472	0.118469
C37	C	1.058537	-0.281453	0.011358
C38	C	1.058523	-0.281447	0.191666
C39	C	1.060301	-0.187411	0.157749
C40	C	1.060316	-0.187416	-0.022560
C41	C	1.220287	0.118096	-0.042566
C42	C	1.319585	0.119980	-0.043250
C43	C	1.050438	0.289323	-0.104308
C44	C	1.052328	0.389406	-0.140396
N45	N	1.056745	0.124491	0.190485
N46	N	1.056788	0.124509	-0.280236
C47	C	1.117496	0.063291	0.264593
C48	C	1.117502	0.063291	0.368697
C49	C	1.056760	0.124495	0.398688
C50	C	0.996003	0.185697	0.324571
C51	C	0.995994	0.185693	0.220471
C52	C	0.996028	0.185703	0.541549
C53	C	0.996038	0.185709	0.645655
C54	C	1.117536	0.063301	0.689775
C55	C	1.117527	0.063297	0.585675
C56	C	1.056770	0.124501	0.511564
H57	H	0.497500	0.123373	0.119095
O58	O	0.792612	0.129156	0.131143
C59	C	0.836559	0.208192	0.108034
H60	H	0.801433	0.262192	0.037404
H61	H	0.834239	0.234393	0.178323
H62	H	0.909541	0.191902	0.089689
O63	O	1.053100	-0.560855	0.112027
C64	C	0.975084	-0.582120	0.070271
H65	H	0.950335	-0.524559	-0.003152
H66	H	0.991282	-0.647328	0.049492
H67	H	0.920551	-0.591668	0.130706
H68	H	0.946523	0.235526	0.160131
H69	H	1.061002	-0.149125	0.217349
H70	H	0.328238	0.120142	0.120262
O71	O	1.054830	-0.468121	0.256436
C72	C	0.977872	-0.434996	0.299355
H73	H	0.924259	-0.402064	0.234735
H74	H	0.950719	-0.493438	0.361329
H75	H	0.996405	-0.382703	0.336707
H76	H	0.946541	0.235527	0.348996
O77	O	0.937100	0.245282	0.469555
C78	C	0.951737	0.334551	0.462807
H79	H	1.023349	0.335108	0.491210
H80	H	0.941501	0.379778	0.378034
H81	H	0.902198	0.360954	0.513720
H82	H	1.057783	-0.319737	0.278879
O83	O	0.321070	0.119978	-0.221062
C84	C	0.382250	0.121165	-0.301067
H85	H	0.452423	0.093903	-0.264815
H86	H	0.360915	0.076924	-0.348166
H87	H	0.382882	0.193627	-0.354914
H88	H	1.061055	-0.149138	-0.109783
O89	O	1.052480	-0.609349	-0.318510
C90	C	1.128861	-0.673864	-0.300688
H91	H	1.154406	-0.691358	-0.216117
H92	H	1.110191	-0.737696	-0.315844
H93	H	1.183747	-0.644707	-0.355693
O94	O	0.936903	0.245059	0.674789
C95	C	0.848348	0.230250	0.654701
H96	H	0.847839	0.158070	0.652108
H97	H	0.803485	0.240527	0.719472
H98	H	0.822114	0.280179	0.576282
H99	H	1.166991	0.013465	0.561256
H100	H	1.166963	0.013456	0.240183
H101	H	0.616009	0.125609	0.118284
O102	O	1.058742	-0.282811	-0.346186
C103	C	1.137183	-0.238555	-0.367499
H104	H	1.190708	-0.273971	-0.303523
H105	H	1.163234	-0.240923	-0.446365
H106	H	1.121036	-0.164985	-0.369846
H107	H	1.167005	0.013467	0.750122
H108	H	0.497527	0.123375	-0.208043
H109	H	0.616022	0.125625	-0.208847
H110	H	1.166969	0.013457	0.429038
H111	H	0.785289	0.128860	-0.210021
O112	O	1.060157	-0.190095	-0.201785
C113	C	0.983330	-0.148543	-0.167345
H114	H	0.956495	-0.199351	-0.096371
H115	H	1.001923	-0.087904	-0.144903
H116	H	0.929449	-0.124773	-0.232909
H117	H	1.052476	-0.601865	0.020018
O118	O	1.055843	-0.423997	-0.385517
C119	C	1.054713	-0.485662	-0.442853
H120	H	1.025146	-0.548993	-0.393589
H121	H	1.011846	-0.452811	-0.517755
H122	H	1.126230	-0.505045	-0.463578
