data_functionalizedCrystal
_audit_creation_method	'MofGen! by Chris Wilmer'
_symmetry_space_group_name_H-M	'P1'
_symmetry_Int_Tables_number	1
_symmetry_cell_setting	triclinic
loop_
_symmetry_equiv_pos_as_xyz
  x,y,z
_cell_length_a	23.532407
_cell_length_b	19.288865
_cell_length_c	22.610064
_cell_angle_alpha	89.981152
_cell_angle_beta	90.003678
_cell_angle_gamma	82.992463
loop_
_atom_site_label
_atom_site_type_symbol
_atom_site_fract_x
_atom_site_fract_y
_atom_site_fract_z
O1	O	-0.755431	-0.084328	0.049117
O2	O	-0.422098	0.249006	0.382451
O3	O	-0.088764	0.582339	0.715784
O4	O	-0.589593	-0.096528	0.049136
O5	O	-0.256260	0.236806	0.382469
O6	O	0.077074	0.570139	0.715802
O7	O	-0.677304	0.010718	0.049114
O8	O	-0.343971	0.344051	0.382448
O9	O	-0.010637	0.677384	0.715781
O10	O	-0.667720	-0.191573	0.049139
O11	O	-0.334387	0.141761	0.382472
O12	O	-0.001053	0.475094	0.715805
O13	O	-0.677303	0.010740	-0.049255
O14	O	-0.343970	0.344073	0.284078
O15	O	-0.010636	0.677406	0.617412
O16	O	-0.589592	-0.096506	-0.049233
O17	O	-0.256259	0.236828	0.284100
O18	O	0.077075	0.570161	0.617433
O19	O	-0.755430	-0.084305	-0.049252
O20	O	-0.422097	0.249028	0.284082
O21	O	-0.088763	0.582361	0.617415
Zn22	Zn	-0.672511	-0.090402	-0.064861
Zn23	Zn	-0.339178	0.242931	0.268472
Zn24	Zn	-0.005844	0.576265	0.601806
Zn25	Zn	-0.672512	-0.090431	0.064745
Zn26	Zn	-0.339179	0.242902	0.398078
Zn27	Zn	-0.005845	0.576236	0.731411
O28	O	-0.667719	-0.191551	-0.049230
O29	O	-0.334386	0.141783	0.284103
O30	O	-0.001052	0.475116	0.617436
C31	C	-0.568376	-0.096206	-0.000047
C32	C	-0.235042	0.237127	0.333287
C33	C	0.098291	0.570461	0.666620
C34	C	-0.505157	-0.095272	-0.000040
C35	C	-0.171823	0.238061	0.333293
C36	C	0.161510	0.571395	0.666626
C37	C	-0.676995	0.036604	-0.000072
C38	C	-0.343662	0.369937	0.333261
C39	C	-0.010328	0.703271	0.666595
C40	C	-0.676069	0.113705	-0.000077
C41	C	-0.342736	0.447038	0.333256
C42	C	-0.009403	0.780371	0.666590
C43	C	-0.776647	-0.084627	-0.000068
C44	C	-0.443314	0.248706	0.333265
C45	C	-0.109981	0.582040	0.666599
C46	C	-0.839866	-0.085561	-0.000071
C47	C	-0.506533	0.247772	0.333263
C48	C	-0.173200	0.581105	0.666596
C49	C	-0.106173	-0.152879	-0.000060
C50	C	0.227160	0.180455	0.333273
C51	C	0.560494	0.513788	0.666607
C52	C	-0.046771	-0.152011	-0.000064
C53	C	0.286562	0.181322	0.333270
C54	C	0.619896	0.514656	0.666603
O55	O	-0.010137	-0.205413	-0.000079
O56	O	0.323196	0.127920	0.333255
O57	O	0.656529	0.461254	0.666588
N58	N	-0.024013	-0.088254	-0.000070
N59	N	0.309321	0.245080	0.333263
N60	N	0.642654	0.578413	0.666596
C61	C	-0.060660	-0.025360	-0.000080
C62	C	0.272673	0.307973	0.333254
C63	C	0.606007	0.641306	0.666587
O64	O	-0.035848	0.028950	-0.000086
O65	O	0.297486	0.362283	0.333247
O66	O	0.630819	0.695617	0.666581
C67	C	-0.120061	-0.026229	-0.000080
C68	C	0.213272	0.307105	0.333253
C69	C	0.546606	0.640438	0.666587
C70	C	-0.142816	-0.089990	-0.000067
C71	C	0.190518	0.243343	0.333266
C72	C	0.523851	0.576677	0.666599
C73	C	-0.128929	-0.216635	-0.000048
C74	C	0.204405	0.116698	0.333285
C75	C	0.537738	0.450032	0.666619
C76	C	-0.188327	-0.217502	-0.000043
C77	C	0.145007	0.115831	0.333290
C78	C	0.478340	0.449164	0.666624
C79	C	-0.224969	-0.154614	-0.000050
C80	C	0.108364	0.178720	0.333283
C81	C	0.441698	0.512053	0.666616
C82	C	-0.202214	-0.090857	-0.000062
C83	C	0.131120	0.242476	0.333271
C84	C	0.464453	0.575809	0.666604
C85	C	-0.156707	0.036664	-0.000093
C86	C	0.176626	0.369998	0.333240
C87	C	0.509960	0.703331	0.666573
C88	C	-0.216111	0.035790	-0.000094
C89	C	0.117222	0.369124	0.333239
C90	C	0.450555	0.702457	0.666572
C91	C	-0.238866	-0.027971	-0.000082
C92	C	0.094467	0.305362	0.333252
C93	C	0.427801	0.638696	0.666585
C94	C	-0.298254	-0.028836	-0.000065
C95	C	0.035079	0.304497	0.333268
C96	C	0.368413	0.637831	0.666602
N97	N	-0.321012	-0.092593	-0.000058
N98	N	0.012321	0.240740	0.333275
N99	N	0.345654	0.574073	0.666609
C100	C	-0.284370	-0.155482	-0.000051
C101	C	0.048963	0.177851	0.333282
C102	C	0.382297	0.511185	0.666616
C103	C	0.064086	-0.023541	-0.000079
C104	C	0.397420	0.309792	0.333254
C105	C	0.730753	0.643125	0.666587
C106	C	0.123486	-0.022672	-0.000075
C107	C	0.456819	0.310661	0.333259
C108	C	0.790153	0.643995	0.666592
C109	C	0.137371	-0.149323	-0.000060
C110	C	0.470704	0.184010	0.333273
C111	C	0.804038	0.517343	0.666607
C112	C	0.077970	-0.150192	-0.000061
C113	C	0.411303	0.183142	0.333273
C114	C	0.744637	0.516475	0.666606
C115	C	0.041328	-0.087298	-0.000073
C116	C	0.374661	0.246035	0.333261
C117	C	0.707995	0.579368	0.666594
C118	C	-0.409110	-0.157299	-0.000040
C119	C	-0.075777	0.176035	0.333293
C120	C	0.257556	0.509368	0.666626
C121	C	-0.468514	-0.158161	-0.000033
C122	C	-0.135181	0.175173	0.333300
C123	C	0.198152	0.508506	0.666634
C124	C	-0.482394	-0.031510	-0.000051
C125	C	-0.149061	0.301823	0.333283
C126	C	0.184273	0.635157	0.666616
C127	C	-0.422995	-0.030648	-0.000055
C128	C	-0.089662	0.302686	0.333278
C129	C	0.243671	0.636019	0.666612
C130	C	-0.386354	-0.093548	-0.000052
C131	C	-0.053021	0.239786	0.333282
C132	C	0.280312	0.573119	0.666615
O133	O	-0.334923	0.024538	-0.000052
O134	O	-0.001589	0.357871	0.333281
O135	O	0.331744	0.691205	0.666614
O136	O	-0.309190	-0.209783	-0.000052
O137	O	0.024143	0.123550	0.333281
O138	O	0.357476	0.456883	0.666615
C139	C	-0.668028	-0.217437	-0.000043
C140	C	-0.334695	0.115896	0.333291
C141	C	-0.001361	0.449230	0.666624
C142	C	-0.668954	-0.294538	-0.000034
C143	C	-0.335620	0.038795	0.333300
C144	C	-0.002287	0.372129	0.666633
N145	N	-0.672514	-0.090382	-0.153313
N146	N	-0.339181	0.242952	0.180020
N147	N	-0.005847	0.576285	0.513353
C148	C	-0.727534	0.158560	-0.000086
C149	C	-0.394201	0.491893	0.333248
C150	C	-0.060867	0.825226	0.666581
C151	C	-0.726664	0.231004	-0.000076
C152	C	-0.393331	0.564337	0.333257
C153	C	-0.059998	0.897671	0.666590
C154	C	-0.674327	0.258590	-0.000070
C155	C	-0.340994	0.591924	0.333263
C156	C	-0.007660	0.925257	0.666597
C157	C	-0.622855	0.213725	-0.000058
C158	C	-0.289522	0.547059	0.333275
C159	C	0.043811	0.880392	0.666609
C160	C	-0.623727	0.141283	-0.000062
C161	C	-0.290393	0.474616	0.333272
C162	C	0.042940	0.807949	0.666605
C163	C	-0.633183	0.366759	-0.034522
C164	C	-0.299850	0.700092	0.298811
C165	C	0.033483	1.033425	0.632145
C166	C	-0.632314	0.439200	-0.034522
C167	C	-0.298981	0.772534	0.298811
C168	C	0.034352	1.105867	0.632144
C169	C	-0.671638	0.482028	-0.000057
C170	C	-0.338305	0.815361	0.333277
C171	C	-0.004971	1.148694	0.666610
C172	C	-0.711840	0.452406	0.034402
C173	C	-0.378507	0.785739	0.367735
C174	C	-0.045174	1.119072	0.701068
C175	C	-0.712711	0.379963	0.034398
C176	C	-0.379378	0.713296	0.367731
C177	C	-0.046045	1.046630	0.701065
C178	C	-0.673377	0.337141	-0.000066
C179	C	-0.340043	0.670475	0.333267
C180	C	-0.006710	1.003808	0.666601
C181	C	-0.722163	0.605436	-0.000054
C182	C	-0.388830	0.938769	0.333279
C183	C	-0.055497	1.272102	0.666613
C184	C	-0.721292	0.677881	-0.000041
C185	C	-0.387958	1.011214	0.333292
C186	C	-0.054625	1.344548	0.666626
C187	C	-0.617481	0.660601	-0.000029
C188	C	-0.284148	0.993934	0.333305
C189	C	0.049186	1.327267	0.666638
C190	C	-0.618354	0.588157	-0.000036
C191	C	-0.285021	0.921490	0.333297
C192	C	0.048312	1.254824	0.666631
C193	C	-0.670697	0.560579	-0.000051
C194	C	-0.337364	0.893912	0.333282
C195	C	-0.004030	1.227246	0.666615
N196	N	-0.672513	-0.090446	0.153197
N197	N	-0.339180	0.242887	0.486531
N198	N	-0.005847	0.576221	0.819864
C199	C	-0.706880	-0.132418	0.438043
C200	C	-0.373547	0.200915	0.771376
C201	C	-0.040214	0.534249	1.104709
C202	C	-0.706881	-0.132422	0.376123
C203	C	-0.373547	0.200911	0.709456
C204	C	-0.040214	0.534244	1.042789
O205	O	-0.736112	-0.168127	0.344102
O206	O	-0.402779	0.165206	0.677435
O207	O	-0.069446	0.498539	1.010768
N208	N	-0.672522	-0.090424	0.345150
N209	N	-0.339189	0.242909	0.678483
N210	N	-0.005856	0.576243	1.011816
C211	C	-0.638165	-0.048413	0.376100
C212	C	-0.304832	0.284920	0.709433
C213	C	0.028501	0.618254	1.042766
O214	O	-0.608941	-0.012690	0.344069
O215	O	-0.275608	0.320643	0.677402
O216	O	0.057725	0.653977	1.010735
C217	C	-0.638169	-0.048405	0.438018
C218	C	-0.304835	0.284928	0.771352
C219	C	0.028498	0.618261	1.104685
C220	C	-0.672525	-0.090412	0.468988
C221	C	-0.339192	0.242921	0.802322
C222	C	-0.005858	0.576255	1.135655
C223	C	-0.741235	-0.174421	0.469013
C224	C	-0.407901	0.158913	0.802346
C225	C	-0.074568	0.492246	1.135679
C226	C	-0.741233	-0.174417	0.530928
C227	C	-0.407900	0.158916	0.864261
C228	C	-0.074567	0.492250	1.197595
C229	C	-0.706878	-0.132411	0.561874
C230	C	-0.373545	0.200922	0.895207
C231	C	-0.040211	0.534256	1.228541
C232	C	-0.672524	-0.090408	0.530904
C233	C	-0.339190	0.242925	0.864237
C234	C	-0.005857	0.576258	1.197571
C235	C	-0.603815	-0.006391	0.468967
C236	C	-0.270482	0.326942	0.802301
C237	C	0.062851	0.660276	1.135634
C238	C	-0.603822	-0.006387	0.530890
C239	C	-0.270489	0.326947	0.864224
C240	C	0.062845	0.660280	1.197557
C241	C	-0.638178	-0.048393	0.561860
C242	C	-0.304845	0.284940	0.895193
C243	C	0.028488	0.618273	1.228527
C244	C	-0.638167	-0.048399	0.623765
C245	C	-0.304834	0.284935	0.957099
C246	C	0.028499	0.618268	1.290432
N247	N	-0.672526	-0.090397	0.654738
N248	N	-0.339192	0.242936	0.988072
N249	N	-0.005859	0.576270	1.321405
C250	C	-0.706881	-0.132403	0.623793
C251	C	-0.373548	0.200930	0.957126
C252	C	-0.040214	0.534263	1.290459
C253	C	-0.638162	-0.048431	0.246066
C254	C	-0.304829	0.284902	0.579399
C255	C	0.028504	0.618235	0.912733
C256	C	-0.638156	-0.048442	0.184148
C257	C	-0.304822	0.284891	0.517482
C258	C	0.028511	0.618224	0.850815
C259	C	-0.706872	-0.132451	0.184176
C260	C	-0.373538	0.200882	0.517509
C261	C	-0.040205	0.534216	0.850842
C262	C	-0.706875	-0.132443	0.246094
C263	C	-0.373542	0.200890	0.579428
C264	C	-0.040208	0.534223	0.912761
C265	C	-0.672521	-0.090430	0.277039
C266	C	-0.339187	0.242904	0.610372
C267	C	-0.005854	0.576237	0.943706
C268	C	-0.706876	-0.132393	0.753820
C269	C	-0.373542	0.200940	1.087153
C270	C	-0.040209	0.534274	1.420487
C271	C	-0.706869	-0.132388	0.815741
C272	C	-0.373536	0.200945	1.149074
C273	C	-0.040203	0.534279	1.482408
C274	C	-0.638156	-0.048377	0.815708
C275	C	-0.304822	0.284957	1.149042
C276	C	0.028511	0.618290	1.482375
C277	C	-0.638159	-0.048384	0.753793
C278	C	-0.304826	0.284949	1.087126
C279	C	0.028507	0.618282	1.420459
C280	C	-0.672524	-0.090394	0.722850
C281	C	-0.339190	0.242939	1.056183
C282	C	-0.005857	0.576272	1.389517
O283	O	-0.608952	-0.012710	0.655826
O284	O	-0.275619	0.320624	0.989159
O285	O	0.057714	0.653957	1.322492
O286	O	-0.736106	-0.168113	0.655831
O287	O	-0.402773	0.165220	0.989164
O288	O	-0.069439	0.498553	1.322498
H289	H	-0.487037	-0.210085	-0.000022
H290	H	-0.153704	0.123248	0.333311
H291	H	0.179629	0.456582	0.666644
O292	O	-0.093282	-0.277686	0.000042
O293	O	0.240051	0.055648	0.333375
O294	O	0.573385	0.388981	0.666708
C295	C	-0.058517	-0.280995	0.050999
C296	C	0.274817	0.052339	0.384332
C297	C	0.608150	0.385672	0.717666
H298	H	-0.055636	-0.225888	0.067972
H299	H	0.277698	0.107445	0.401305
H300	H	0.611031	0.440779	0.734638
H301	H	-0.013811	-0.307197	0.039551
H302	H	0.319523	0.026136	0.372884
H303	H	0.652856	0.359469	0.706218
H304	H	-0.077990	-0.312575	0.086679
H305	H	0.255343	0.020759	0.420013
H306	H	0.588677	0.354092	0.753346
O307	O	-0.566690	0.687505	-0.000046
O308	O	-0.233356	1.020838	0.333287
O309	O	0.099977	1.354171	0.666621
C310	C	-0.576955	0.761064	-0.000026
C311	C	-0.243622	1.094397	0.333307
C312	C	0.089712	1.427730	0.666641
H313	H	-0.621441	0.778392	-0.018656
H314	H	-0.288108	1.111726	0.314677
H315	H	0.045225	1.445059	0.648010
H316	H	-0.543474	0.783093	-0.028576
H317	H	-0.210140	1.116426	0.304757
H318	H	0.123193	1.449760	0.638091
H319	H	-0.574251	0.781188	0.047169
H320	H	-0.240918	1.114521	0.380503
H321	H	0.092416	1.447854	0.713836
H322	H	-0.734851	-0.166649	0.271306
H323	H	-0.401517	0.166684	0.604639
H324	H	-0.068184	0.500018	0.937973
H325	H	-0.610181	-0.014221	0.271257
H326	H	-0.276848	0.319112	0.604591
H327	H	0.056485	0.652445	0.937924
O328	O	0.055800	-0.212084	-0.000129
O329	O	0.389133	0.121249	0.333204
O330	O	0.722466	0.454582	0.666537
C331	C	0.021865	-0.216379	-0.051083
C332	C	0.355198	0.116954	0.282250
C333	C	0.688532	0.450287	0.615584
H334	H	0.006932	-0.161528	-0.068078
H335	H	0.340265	0.171806	0.265255
H336	H	0.673599	0.505139	0.598589
H337	H	-0.016964	-0.243797	-0.039621
H338	H	0.316369	0.089536	0.293712
H339	H	0.649703	0.422869	0.627046
H340	H	0.048184	-0.247286	-0.086752
H341	H	0.381518	0.086047	0.246582
H342	H	0.714851	0.419380	0.579915
O343	O	-0.772993	0.578610	-0.000166
O344	O	-0.439659	0.911943	0.333168
O345	O	-0.106326	1.245276	0.666501
C346	C	-0.776601	0.537235	-0.051108
C347	C	-0.443267	0.870568	0.282225
C348	C	-0.109934	1.203902	0.615558
H349	H	-0.746885	0.554180	-0.086713
H350	H	-0.413552	0.887514	0.246620
H351	H	-0.080219	1.220847	0.579953
H352	H	-0.822517	0.544065	-0.068212
H353	H	-0.489184	0.877398	0.265122
H354	H	-0.155850	1.210732	0.598455
H355	H	-0.763318	0.480005	-0.039594
H356	H	-0.429985	0.813338	0.293739
H357	H	-0.096651	1.146672	0.627073
O358	O	-0.573746	0.097678	0.000048
O359	O	-0.240413	0.431012	0.333382
O360	O	0.092920	0.764345	0.666715
C361	C	-0.571153	0.055220	0.050983
C362	C	-0.237820	0.388553	0.384317
C363	C	0.095514	0.721886	0.717650
H364	H	-0.600345	0.081936	0.086590
H365	H	-0.267012	0.415269	0.419923
H366	H	0.066322	0.748602	0.753257
H367	H	-0.525258	0.046747	0.068091
H368	H	-0.191924	0.380080	0.401424
H369	H	0.141409	0.713414	0.734757
H370	H	-0.585758	0.002644	0.039458
H371	H	-0.252425	0.335977	0.372791
H372	H	0.080909	0.669311	0.706124
H373	H	-0.576446	0.551635	-0.000032
H374	H	-0.243113	0.884968	0.333301
H375	H	0.090221	1.218301	0.666634
H376	H	-0.512239	0.019692	-0.000054
H377	H	-0.178905	0.353026	0.333279
H378	H	0.154428	0.686359	0.666612
O379	O	-0.134707	0.098664	-0.000137
O380	O	0.198626	0.431997	0.333196
O381	O	0.531959	0.765331	0.666529
C382	C	-0.179797	0.153975	-0.000134
C383	C	0.153536	0.487309	0.333199
C384	C	0.486869	0.820642	0.666532
H385	H	-0.220103	0.134781	-0.018748
H386	H	0.113230	0.468115	0.314585
H387	H	0.446564	0.801448	0.647919
H388	H	-0.167504	0.198520	-0.028708
H389	H	0.165830	0.531853	0.304625
H390	H	0.499163	0.865186	0.637959
H391	H	-0.188246	0.173352	0.047053
H392	H	0.145088	0.506685	0.380387
H393	H	0.478421	0.840019	0.713720
O394	O	0.173053	-0.210352	-0.000082
O395	O	0.506386	0.122981	0.333251
O396	O	0.839719	0.456315	0.666585
C397	C	0.230359	-0.195906	-0.000071
C398	C	0.563692	0.137428	0.333263
C399	C	0.897025	0.470761	0.666596
H400	H	0.232496	-0.141359	-0.018700
H401	H	0.565829	0.191974	0.314633
H402	H	0.899162	0.525307	0.647966
H403	H	0.257370	-0.236007	-0.028626
H404	H	0.590703	0.097327	0.304707
H405	H	0.924037	0.430660	0.638041
H406	H	0.247550	-0.198669	0.047122
H407	H	0.580883	0.134664	0.380455
H408	H	0.914217	0.467997	0.713789
O409	O	-0.570361	0.034344	0.560922
O410	O	-0.237028	0.367677	0.894255
O411	O	0.096305	0.701011	1.227588
C412	C	-0.512493	0.014882	0.545786
C413	C	-0.179159	0.348215	0.879120
C414	C	0.154174	0.681548	1.212453
H415	H	-0.506755	-0.041170	0.528786
H416	H	-0.173422	0.292163	0.862119
H417	H	0.159912	0.625497	1.195453
H418	H	-0.484496	0.018827	0.586504
H419	H	-0.151163	0.352160	0.919838
H420	H	0.182170	0.685494	1.253171
H421	H	-0.499432	0.051249	0.509831
H422	H	-0.166099	0.384582	0.843164
H423	H	0.167234	0.717915	1.176497
H424	H	-0.734845	-0.166656	0.158968
H425	H	-0.401512	0.166678	0.492302
H426	H	-0.068178	0.500011	0.825635
H427	H	-0.763202	0.714402	-0.000045
H428	H	-0.429869	1.047735	0.333289
H429	H	-0.096536	1.381069	0.666622
H430	H	-0.580242	0.236191	-0.000052
H431	H	-0.246909	0.569524	0.333282
H432	H	0.086425	0.902857	0.666615
H433	H	-0.743861	0.487275	0.062467
H434	H	-0.410528	0.820608	0.395801
H435	H	-0.077195	1.153941	0.729134
H436	H	-0.610172	-0.014245	0.158938
H437	H	-0.276839	0.319089	0.492271
H438	H	0.056494	0.652422	0.825605
H439	H	-0.769212	-0.208620	0.556138
H440	H	-0.435879	0.124713	0.889472
H441	H	-0.102546	0.458047	1.222805
H442	H	-0.610183	-0.014178	0.840915
H443	H	-0.276850	0.319155	1.174249
H444	H	0.056484	0.652488	1.507582
H445	H	-0.610176	-0.014188	0.728576
H446	H	-0.276843	0.319145	1.061909
H447	H	0.056490	0.652479	1.395242
H448	H	-0.599577	0.463312	-0.062577
H449	H	-0.266244	0.796645	0.270757
H450	H	0.067090	1.129979	0.604090
H451	H	-0.379284	-0.208518	-0.000039
H452	H	-0.045950	0.124815	0.333294
H453	H	0.287383	0.458148	0.666627
O454	O	-0.740299	-0.173212	0.845733
O455	O	-0.406966	0.160121	1.179066
O456	O	-0.073632	0.493455	1.512399
C457	C	-0.770612	-0.210298	0.805137
C458	C	-0.437278	0.123035	1.138470
C459	C	-0.103945	0.456369	1.471803
H460	H	-0.774052	-0.181524	0.760990
H461	H	-0.440719	0.151809	1.094324
H462	H	-0.107385	0.485143	1.427657
H463	H	-0.815365	-0.214433	0.823024
H464	H	-0.482032	0.118900	1.156357
H465	H	-0.148699	0.452233	1.489690
H466	H	-0.746930	-0.264924	0.798569
H467	H	-0.413597	0.068409	1.131902
H468	H	-0.080263	0.401742	1.465236
H469	H	-0.601160	0.331894	-0.062591
H470	H	-0.267827	0.665227	0.270742
H471	H	0.065507	0.998560	0.604075
H472	H	-0.769214	-0.208627	0.443823
H473	H	-0.435880	0.124706	0.777156
H474	H	-0.102547	0.458039	1.110490
H475	H	-0.734859	-0.166601	0.728634
H476	H	-0.401525	0.166732	1.061967
H477	H	-0.068192	0.500065	1.395300
H478	H	-0.575839	0.027816	0.443762
H479	H	-0.242506	0.361149	0.777095
H480	H	0.090827	0.694483	1.110429
H481	H	-0.404468	0.021272	-0.000057
H482	H	-0.071134	0.354605	0.333277
H483	H	0.262199	0.687939	0.666610
O484	O	-0.210331	-0.279502	-0.000064
O485	O	0.123002	0.053832	0.333269
O486	O	0.456335	0.387165	0.666603
C487	C	-0.165243	-0.334815	-0.000046
C488	C	0.168090	-0.001481	0.333287
C489	C	0.501424	0.331852	0.666621
H490	H	-0.124941	-0.315616	-0.018669
H491	H	0.208393	0.017717	0.314664
H492	H	0.541726	0.351051	0.647998
H493	H	-0.177544	-0.379348	-0.028604
H494	H	0.155789	-0.046015	0.304730
H495	H	0.489122	0.287318	0.638063
H496	H	-0.156784	-0.354208	0.047148
H497	H	0.176549	-0.020874	0.380481
H498	H	0.509882	0.312459	0.713814
H499	H	0.142007	0.029249	-0.000076
H500	H	0.475341	0.362582	0.333257
H501	H	0.808674	0.695915	0.666591
H502	H	-0.768575	0.267532	-0.000081
H503	H	-0.435241	0.600865	0.333252
H504	H	-0.101908	0.934199	0.666586
O505	O	0.028575	0.037622	-0.000056
O506	O	0.361908	0.370955	0.333278
O507	O	0.695242	0.704288	0.666611
C508	C	0.061406	0.094075	-0.000075
C509	C	0.394739	0.427408	0.333258
C510	C	0.728073	0.760741	0.666591
H511	H	0.105786	0.076116	0.018548
H512	H	0.439119	0.409449	0.351881
H513	H	0.772453	0.742782	0.685214
H514	H	0.039395	0.138107	0.028482
H515	H	0.372729	0.471440	0.361815
H516	H	0.706062	0.804774	0.695149
H517	H	0.065585	0.113652	-0.047269
H518	H	0.398918	0.446985	0.286064
H519	H	0.732252	0.780318	0.619397
H520	H	-0.245943	0.087007	-0.000105
H521	H	0.087390	0.420340	0.333229
H522	H	0.420724	0.753674	0.666562
H523	H	-0.745444	0.355848	0.062456
H524	H	-0.412111	0.689181	0.395790
H525	H	-0.078778	1.022514	0.729123
O526	O	-0.778428	0.131887	-0.000071
O527	O	-0.445095	0.465221	0.333263
O528	O	-0.111761	0.798554	0.666596
C529	C	-0.823666	0.187019	-0.000092
C530	C	-0.490333	0.520352	0.333242
C531	C	-0.156999	0.853685	0.666575
H532	H	-0.807829	0.236117	0.018537
H533	H	-0.474496	0.569450	0.351870
H534	H	-0.141162	0.902784	0.685203
H535	H	-0.860221	0.172119	0.028460
H536	H	-0.526888	0.505452	0.361793
H537	H	-0.193555	0.838785	0.695127
H538	H	-0.839529	0.197400	-0.047287
H539	H	-0.506196	0.530733	0.286046
H540	H	-0.172862	0.864067	0.619380
