data_functionalizedCrystal
_audit_creation_method	'MofGen! by Chris Wilmer'
_symmetry_space_group_name_H-M	'P1'
_symmetry_Int_Tables_number	1
_symmetry_cell_setting	triclinic
loop_
_symmetry_equiv_pos_as_xyz
  x,y,z
_cell_length_a	18.101395
_cell_length_b	17.077404
_cell_length_c	18.101390
_cell_angle_alpha	90.017355
_cell_angle_beta	89.968753
_cell_angle_gamma	89.968671
loop_
_atom_site_label
_atom_site_type_symbol
_atom_site_fract_x
_atom_site_fract_y
_atom_site_fract_z
Zn1	Zn	-0.294798	-1.199993	-0.418740
Zn2	Zn	-0.418654	-1.199886	-0.294902
Zn3	Zn	-0.294832	-1.068730	-0.294913
Zn4	Zn	-0.418602	-1.068674	-0.418702
O5	O	-0.356721	-1.134321	-0.356814
O6	O	-0.311235	-1.309826	-0.402324
O7	O	-0.402265	-1.182467	-0.191270
O8	O	-0.191194	-1.086210	-0.311359
O9	O	-0.402232	-1.309747	-0.311340
O10	O	-0.191169	-1.182649	-0.402334
O11	O	-0.311293	-1.086107	-0.191278
O12	O	-0.311243	-0.958876	-0.311322
O13	O	-0.402143	-1.086115	-0.522340
O14	O	-0.402176	-0.958835	-0.402270
O15	O	-0.311184	-1.182595	-0.522368
O16	O	-0.522280	-1.182413	-0.311304
O17	O	-0.522242	-1.086012	-0.402259
C18	C	-0.549132	-1.134216	-0.356792
C19	C	-0.631446	-1.134243	-0.356808
C20	C	-0.356708	-0.930373	-0.356794
C21	C	-0.356720	-0.843123	-0.356802
C22	C	-0.356654	-1.134361	-0.549976
C23	C	-0.356625	-1.134378	-0.632290
C24	C	-0.930537	-1.134415	-0.356848
C25	C	-0.899219	-1.073903	-0.414216
C26	C	-0.813601	-1.073615	-0.414037
C27	C	-0.782155	-1.134330	-0.356828
C28	C	-0.813311	-1.111936	-0.278779
C29	C	-0.898956	-1.111546	-0.279122
C30	C	-0.898879	-1.217454	-0.376841
C31	C	-0.813228	-1.216965	-0.378553
C32	C	-0.698295	-1.134283	-0.356813
C33	C	-1.014396	-1.134460	-0.356858
C34	C	-0.163560	-1.134448	-0.356852
C35	C	-0.081245	-1.134502	-0.356868
C36	C	-0.356735	-1.339065	-0.356835
C37	C	-0.356741	-1.426315	-0.356844
C38	C	-0.404141	-0.802132	-0.404083
C39	C	-0.404142	-0.720152	-0.404095
C40	C	-0.356727	-0.679164	-0.356822
C41	C	-0.309301	-0.720161	-0.309539
C42	C	-0.309296	-0.802139	-0.309532
C43	C	-0.309315	-0.549291	-0.309557
C44	C	-0.309321	-0.467306	-0.309563
C45	C	-0.404162	-0.467303	-0.404120
C46	C	-0.404157	-0.549282	-0.404112
C47	C	-0.356732	-0.590273	-0.356829
C48	C	-0.356602	-1.134406	-0.782999
C49	C	-0.299368	-1.195110	-0.814370
C50	C	-0.299523	-1.195364	-0.899988
C51	C	-0.356578	-1.134434	-0.931381
C52	C	-0.434690	-1.156561	-0.900273
C53	C	-0.434372	-1.156985	-0.814628
C54	C	-0.336402	-1.051427	-0.814556
C55	C	-0.334667	-1.051888	-0.900207
C56	C	-0.356569	-1.134448	-1.015241
C57	C	-0.356616	-1.134393	-0.699139
C58	C	-0.356735	-1.134326	-0.164403
C59	C	-0.356555	-1.134462	-0.082090
H60	H	-0.792532	-1.087626	-0.471910
N61	N	-0.926421	-1.167366	-0.220559
H62	H	-0.957379	-1.209584	-0.244369
H63	H	-0.882855	-1.192068	-0.194647
N64	N	-0.455299	-0.675939	-0.455079
H65	H	-0.485343	-0.714344	-0.485017
H66	H	-0.489530	-0.641900	-0.424864
H67	H	-0.378086	-1.006202	-0.794264
H68	H	-0.792861	-1.233853	-0.435993
H69	H	-0.452075	-1.216539	-0.921746
N70	N	-0.925703	-1.277173	-0.321495
H71	H	-0.981460	-1.279168	-0.322362
H72	H	-0.905138	-1.330371	-0.334650
N73	N	-0.258170	-0.593508	-0.258557
H74	H	-0.223885	-0.627552	-0.288708
H75	H	-0.228184	-0.555057	-0.228617
H76	H	-0.792944	-1.154623	-0.234869
N77	N	-0.258181	-0.423094	-0.258578
H78	H	-0.228132	-0.461500	-0.228627
H79	H	-0.223954	-0.389109	-0.288792
H80	H	-0.270691	-0.686782	-0.271052
N81	N	-0.927801	-0.992863	-0.396897
H82	H	-0.956770	-0.972334	-0.440459
H83	H	-0.960919	-0.995239	-0.352034
N84	N	-0.927432	-1.244502	-0.450937
H85	H	-0.955761	-1.294990	-0.444575
H86	H	-0.961147	-1.203144	-0.472246
H87	H	-0.791818	-1.264435	-0.339814
N88	N	-0.786540	-0.992089	-0.396489
H89	H	-0.830248	-0.956199	-0.388836
H90	H	-0.755689	-0.993501	-0.350036
N91	N	-0.455283	-0.846335	-0.455073
H92	H	-0.448087	-0.904489	-0.447894
H93	H	-0.508159	-0.831971	-0.443454
N94	N	-0.262245	-1.024650	-0.785968
H95	H	-0.240992	-1.066044	-0.752266
H96	H	-0.227628	-1.015820	-0.828938
H97	H	-0.478468	-1.114660	-0.793872
N98	N	-0.385831	-0.988814	-0.928494
H99	H	-0.383239	-0.986880	-0.984201
H100	H	-0.438102	-1.000855	-0.912625
H101	H	-0.277183	-1.035195	-0.920542
H102	H	-0.478492	-1.113709	-0.920604
N103	N	-0.455303	-0.593493	-0.455091
H104	H	-0.485347	-0.555088	-0.485047
H105	H	-0.425198	-0.627539	-0.489412
N106	N	-0.316897	-1.276094	-0.785879
H107	H	-0.327296	-1.312121	-0.828890
H108	H	-0.273377	-1.296725	-0.756909
N109	N	-0.784990	-1.032385	-0.255934
H110	H	-0.751986	-1.010738	-0.296023
H111	H	-0.828123	-0.995813	-0.247914
N112	N	-0.455316	-0.423097	-0.455118
H113	H	-0.448124	-0.364944	-0.447954
H114	H	-0.443857	-0.437458	-0.508028
H115	H	-0.312908	-1.256859	-0.920485
N116	N	-0.258144	-0.846349	-0.258538
H117	H	-0.269580	-0.832056	-0.205605
H118	H	-0.265354	-0.904487	-0.265769
H119	H	-0.919001	-1.050845	-0.262186
H120	H	-0.919762	-1.087774	-0.472277
H121	H	-0.241614	-1.181539	-0.921023
H122	H	-0.241281	-1.181452	-0.793796
H123	H	-0.451458	-1.217633	-0.794658
