data_functionalizedCrystal
_audit_creation_method	'MofGen! by Chris Wilmer'
_symmetry_space_group_name_H-M	'P1'
_symmetry_Int_Tables_number	1
_symmetry_cell_setting	triclinic
loop_
_symmetry_equiv_pos_as_xyz
  x,y,z
_cell_length_a	34.490303
_cell_length_b	34.489386
_cell_length_c	34.485816
_cell_angle_alpha	60.004462
_cell_angle_beta	60.008900
_cell_angle_gamma	59.994399
loop_
_atom_site_label
_atom_site_type_symbol
_atom_site_fract_x
_atom_site_fract_y
_atom_site_fract_z
O1	O	0.053846	-0.566517	0.473678
O2	O	0.020329	-0.441078	0.381663
O3	O	0.099768	-0.520436	0.381578
O4	O	-0.025592	-0.487159	0.473762
O5	O	0.126127	-0.494082	0.407849
O6	O	0.046689	-0.414724	0.407933
O7	O	0.080206	-0.540163	0.499949
Zn8	Zn	0.067632	-0.473259	0.458112
Zn9	Zn	0.032903	-0.507982	0.423499
O10	O	0.000767	-0.460805	0.500033
N11	N	0.091336	-0.449565	0.481736
N12	N	0.009203	-0.531680	0.399875
C13	C	0.142510	-0.268211	0.532817
C14	C	0.142641	-0.398441	0.662987
C15	C	0.142524	-0.398421	0.532817
C16	C	0.272762	-0.398394	0.532723
C17	C	0.156853	-0.311177	0.547124
C18	C	0.156928	-0.384109	0.620020
C19	C	0.229794	-0.384081	0.547073
C20	C	0.156863	-0.384097	0.547124
C21	C	0.124253	-0.213522	0.514606
C22	C	0.124277	-0.416652	0.514606
C23	C	0.175110	-0.365866	0.565335
C24	C	0.352285	-0.384669	0.490824
C25	C	0.401998	-0.401229	0.474223
C26	C	0.402027	-0.481671	0.504898
C27	C	0.352316	-0.465109	0.521500
C28	C	0.136220	-0.188652	0.465734
C29	C	0.119621	-0.138936	0.449181
C30	C	0.079092	-0.138961	0.530374
C31	C	0.095691	-0.188678	0.546927
C32	C	0.075398	-0.404656	0.526651
C33	C	0.058814	-0.421229	0.510091
C34	C	0.139984	-0.461794	0.469452
C35	C	0.156570	-0.445221	0.486007
C36	C	0.075593	-0.404694	0.742565
C37	C	0.059066	-0.421281	0.792280
C38	C	0.140274	-0.461856	0.792215
C39	C	0.156800	-0.445269	0.742499
C40	C	0.124458	-0.416687	0.717675
C41	C	0.327446	-0.416608	0.514460
C42	C	-0.023585	-0.564792	0.161919
C43	C	-0.023910	-0.769260	0.366530
C44	C	-0.023880	-0.564780	0.366623
C45	C	-0.228325	-0.564561	0.366222
C46	C	-0.129610	-0.597564	0.333467
C47	C	-0.056729	-0.597644	0.333613
C48	C	-0.074925	-0.615849	0.315324
C49	C	-0.088689	-0.695351	0.357144
C50	C	-0.072155	-0.745068	0.373736
C51	C	0.008283	-0.745150	0.343188
C52	C	-0.008252	-0.695435	0.326596
C53	C	-0.154529	-0.609541	0.382326
C54	C	-0.204241	-0.592916	0.398818
C55	C	-0.204114	-0.552341	0.317588
C56	C	-0.154401	-0.568966	0.301096
C57	C	-0.068707	-0.548770	0.321590
C58	C	-0.052166	-0.532225	0.338221
C59	C	-0.011669	-0.613425	0.378886
C60	C	-0.028210	-0.629972	0.362261
C61	C	-0.068581	-0.548777	0.235758
C62	C	-0.051939	-0.532234	0.186043
C63	C	-0.011379	-0.613438	0.186090
C64	C	-0.028020	-0.629981	0.235806
C65	C	-0.056622	-0.597649	0.260639
C66	C	-0.056739	-0.670537	0.333576
C67	C	-0.005614	-0.545951	0.107238
C68	C	-0.006360	-0.823943	0.385033
C69	C	-0.005995	-0.545937	0.384582
C70	C	-0.283006	-0.545971	0.383725
N71	N	0.426163	-0.449489	0.481488
O72	O	0.588601	-0.457377	0.364497
O73	O	0.588789	-0.549696	0.489801
O74	O	0.588709	-0.549485	0.410335
O75	O	0.588681	-0.457588	0.443963
O76	O	0.509731	-0.523223	0.436741
O77	O	0.509811	-0.523434	0.516207
O78	O	0.509624	-0.431115	0.390903
Zn79	Zn	0.497178	-0.473105	0.457747
Zn80	Zn	0.601234	-0.507706	0.422956
O81	O	0.509704	-0.431326	0.470368
N82	N	0.672250	-0.531322	0.399211
N83	N	0.091303	-0.114798	0.481730
O84	O	-0.025603	0.047729	0.473733
O85	O	0.099703	0.047764	0.381394
O86	O	0.020199	0.047731	0.381655
O87	O	0.053901	0.047761	0.473472
O88	O	0.046564	-0.031252	0.407974
O89	O	0.126068	-0.031219	0.407713
O90	O	0.000762	-0.031254	0.500052
Zn91	Zn	0.067601	-0.043777	0.458061
Zn92	Zn	0.032864	0.060287	0.423385
O93	O	0.080266	-0.031222	0.499791
N94	N	0.009156	0.131307	0.399717
N95	N	0.091635	-0.449614	0.816396
O96	O	0.083664	-0.566502	0.978913
O97	O	-0.008637	-0.441152	0.978954
O98	O	-0.008421	-0.520640	0.978930
O99	O	0.083448	-0.487013	0.978936
O100	O	0.017877	-0.494296	0.899950
O101	O	0.017661	-0.414807	0.899974
O102	O	0.109961	-0.540157	0.899933
Zn103	Zn	0.067986	-0.473299	0.887414
Zn104	Zn	0.033338	-0.508010	0.991473
O105	O	0.109746	-0.460669	0.899956
N106	N	0.009689	-0.531700	1.062491
C107	C	0.030367	-0.412095	0.382120
C108	C	0.128741	-0.510370	0.382016
C109	C	0.070168	-0.569147	0.499490
C110	C	-0.028207	-0.470871	0.499595
C111	C	0.549323	-0.549278	0.518791
C112	C	0.549225	-0.549017	0.420381
C113	C	0.549087	-0.431532	0.361914
C114	C	0.549188	-0.431794	0.460322
C115	C	0.128638	0.008374	0.381806
C116	C	0.030215	0.008236	0.382161
C117	C	-0.028206	0.008233	0.499608
C118	C	0.070250	0.008272	0.499285
C119	C	-0.008199	-0.412187	0.939469
C120	C	-0.007927	-0.510619	0.939425
C121	C	0.109523	-0.569121	0.939417
C122	C	0.109257	-0.470684	0.939444
H123	H	0.019274	-0.411508	0.812539
N124	N	0.079647	-0.616876	0.537775
H125	H	0.075885	-0.612518	0.566479
H126	H	0.113064	-0.638009	0.525458
N127	N	-0.127794	-0.640381	0.417242
H128	H	-0.107167	-0.624283	0.412219
H129	H	-0.107203	-0.672076	0.412188
N130	N	0.549180	-0.393554	0.469848
H131	H	0.519923	-0.385708	0.497410
H132	H	0.549150	-0.364177	0.440661
H133	H	0.138119	-0.463487	0.939440
N134	N	0.176160	0.008766	0.343249
H135	H	0.191425	-0.020420	0.333875
H136	H	0.197372	0.008888	0.355360
H137	H	0.022995	0.008233	0.353314
N138	N	0.079810	0.008276	0.537499
H139	H	0.050653	0.008268	0.566904
H140	H	0.087831	0.037562	0.525804
N141	N	0.048288	-0.112159	0.565229
H142	H	0.064410	-0.091525	0.560148
H143	H	0.043237	-0.135487	0.598688
N144	N	-0.046139	-0.520133	0.939374
H145	H	-0.055335	-0.496836	0.910090
H146	H	-0.074845	-0.516386	0.968665
N147	N	0.132523	-0.112108	0.396468
H148	H	0.153137	-0.135391	0.378506
H149	H	0.150429	-0.091471	0.387813
N150	N	0.040709	-0.373846	0.715792
H151	H	0.007245	-0.368760	0.739105
H152	H	0.045787	-0.389973	0.695159
N153	N	0.020887	-0.364364	0.343837
H154	H	-0.012532	-0.343207	0.356115
H155	H	0.024675	-0.368760	0.315146
N156	N	0.006095	-0.408295	0.523080
H157	H	-0.008735	-0.420461	0.558744
H158	H	0.000530	-0.423129	0.508218
H159	H	-0.037176	-0.376187	0.939482
H160	H	0.164745	-0.517463	0.353068
H161	H	0.138503	-0.605120	0.939399
N162	N	-0.075870	0.008217	0.538010
H163	H	-0.097114	0.008206	0.525854
H164	H	-0.090950	0.037499	0.547181
H165	H	0.166612	-0.485121	0.812425
H166	H	-0.064213	-0.463781	0.528541
H167	H	0.196592	-0.455039	0.722237
H168	H	0.049100	-0.381393	0.549936
H169	H	0.166284	-0.485062	0.446169
N170	N	0.549398	-0.587672	0.566457
H171	H	0.549417	-0.616999	0.566523
H172	H	0.520134	-0.576095	0.592155
H173	H	0.549237	-0.577886	0.413185
H174	H	0.196371	-0.454985	0.476195
H175	H	0.422274	-0.521162	0.510626
N176	N	0.325524	-0.499558	0.546996
H177	H	0.334207	-0.523773	0.576361
H178	H	0.334171	-0.516241	0.525227
N179	N	0.428790	-0.366778	0.448730
H180	H	0.420110	-0.342565	0.419363
H181	H	0.464048	-0.384665	0.439314
N182	N	0.325451	-0.332359	0.483242
H183	H	0.334069	-0.313903	0.448099
H184	H	0.334124	-0.321447	0.499229
N185	N	0.167030	-0.215447	0.430874
H186	H	0.172089	-0.192148	0.397402
H187	H	0.150889	-0.236083	0.435993
N188	N	0.082786	-0.215502	0.599638
H189	H	0.047128	-0.206862	0.614523
H190	H	0.094979	-0.206837	0.614448
N191	N	-0.064844	-0.479518	0.159215
H192	H	-0.100500	-0.464625	0.167811
H193	H	-0.049934	-0.473979	0.123961
N194	N	-0.099433	-0.513907	0.262545
H195	H	-0.129297	-0.493254	0.253836
H196	H	-0.081475	-0.493332	0.253922
N197	N	0.019463	-0.648309	0.159308
H198	H	0.001536	-0.668911	0.167924
H199	H	0.049320	-0.668934	0.168029
N200	N	-0.015116	-0.682695	0.262642
H201	H	0.005526	-0.700665	0.239365
H202	H	-0.045031	-0.691304	0.283223
H203	H	0.549027	-0.402547	0.325928
N204	N	-0.065092	-0.479510	0.325267
H205	H	-0.085670	-0.461540	0.304597
H206	H	-0.035183	-0.470899	0.307406
H207	H	-0.091926	-0.522444	0.298262
H208	H	-0.018458	-0.669769	0.372051
N209	N	0.019084	-0.648296	0.409790
H210	H	0.048987	-0.668958	0.391915
H211	H	0.001080	-0.668860	0.439652
N212	N	0.026210	-0.668668	0.301173
H213	H	0.059434	-0.691987	0.299273
H214	H	0.017321	-0.648037	0.319194
H215	H	-0.098172	-0.765271	0.392919
N216	N	0.060579	-0.772009	0.335668
H217	H	0.078312	-0.748745	0.318219
H218	H	0.072971	-0.792643	0.316316
H219	H	-0.128170	-0.675084	0.362831
H220	H	-0.224531	-0.602667	0.438605
H221	H	-0.134111	-0.559208	0.261309
N222	N	-0.230857	-0.521504	0.282677
H223	H	-0.207527	-0.516445	0.249220
H224	H	-0.251473	-0.489822	0.287756
