data_functionalizedCrystal
_audit_creation_method	'MofGen! by Chris Wilmer'
_symmetry_space_group_name_H-M	'P1'
_symmetry_Int_Tables_number	1
_symmetry_cell_setting	triclinic
loop_
_symmetry_equiv_pos_as_xyz
  x,y,z
_cell_length_a	12.784905
_cell_length_b	12.837942
_cell_length_c	11.295483
_cell_angle_alpha	85.469583
_cell_angle_beta	86.327249
_cell_angle_gamma	96.031870
loop_
_atom_site_label
_atom_site_type_symbol
_atom_site_fract_x
_atom_site_fract_y
_atom_site_fract_z
O1	O	1.417361	0.001122	-0.099032
O2	O	1.112362	-0.042870	-0.099033
O3	O	1.258098	0.129418	-0.099025
O4	O	1.271625	-0.171167	-0.099040
O5	O	1.245296	0.114307	0.099025
O6	O	1.099560	-0.057981	0.099017
O7	O	1.404559	-0.013989	0.099018
Cu8	Cu	1.250890	-0.037365	0.117101
Cu9	Cu	1.266031	-0.019494	-0.117116
O10	O	1.258823	-0.186278	0.099011
C11	C	1.066651	-0.053287	-0.000008
C12	C	0.949520	-0.061800	-0.000008
C13	C	0.735570	0.111644	-0.000021
C14	C	0.625514	0.103650	-0.000021
C15	C	0.619352	-0.085780	-0.000017
C16	C	0.729408	-0.077786	-0.000017
C17	C	0.787512	0.020929	-0.000017
C18	C	0.897569	0.028921	-0.000008
C19	C	0.891406	-0.160507	-0.000013
C20	C	0.781350	-0.168501	-0.000013
C21	C	1.247128	0.160072	-0.000001
C22	C	1.233500	0.273921	-0.000003
C23	C	1.450270	-0.003572	-0.000009
C24	C	1.567402	0.004941	-0.000017
C25	C	1.269793	-0.216931	-0.000016
C26	C	1.283421	-0.330779	-0.000022
N27	N	1.240249	-0.049933	0.281837
C28	C	1.397333	0.529648	-0.000027
C29	C	1.384533	0.636620	-0.000029
C30	C	1.195103	0.594840	-0.000017
C31	C	1.207902	0.487868	-0.000015
C32	C	1.309020	0.455276	-0.000018
C33	C	1.321819	0.348301	-0.000008
C34	C	1.132389	0.306524	-0.000004
C35	C	1.119590	0.413496	-0.000006
N36	N	1.276679	-0.006918	-0.281852
C37	C	1.353276	0.083611	0.531133
C38	C	1.345242	0.074107	0.655796
C39	C	1.216143	-0.078441	0.655829
C40	C	1.224177	-0.068936	0.531166
C41	C	1.292746	0.012091	0.468822
C42	C	1.300785	0.021590	0.344156
C43	C	1.171681	-0.130952	0.344192
C44	C	1.163647	-0.140456	0.468855
H45	H	0.782879	0.192021	-0.000013
O46	O	1.479788	0.716832	-0.000024
H47	H	1.483712	0.772721	-0.080750
H48	H	1.122397	-0.189191	0.293445
H49	H	1.409116	0.149581	0.480371
O50	O	1.374731	0.108985	0.276905
H51	H	1.415460	0.157127	0.341183
O52	O	1.430880	0.313150	-0.000014
H53	H	1.424947	0.226270	-0.000000
O54	O	1.506388	0.494483	-0.000032
H55	H	1.565650	0.564172	-0.000044
H56	H	0.583227	0.177519	-0.000026
H57	H	0.933709	-0.234374	-0.000003
H58	H	0.734027	-0.248871	-0.000018
O59	O	1.086045	0.630000	-0.000005
H60	H	1.091986	0.716879	-0.000000
O61	O	1.010529	0.448648	0.000013
H62	H	1.016462	0.535526	0.000022
O63	O	1.037127	0.226309	0.000001
H64	H	1.063012	0.146448	-0.000004
H65	H	0.944876	0.109300	-0.000006
O66	O	0.556661	-0.192237	-0.000021
H67	H	0.581516	-0.229962	-0.080748
O68	O	1.410539	0.151234	0.723008
H69	H	1.459575	0.209164	0.658708
O70	O	1.142190	-0.165830	0.723079
H71	H	1.146780	-0.160422	0.820233
H72	H	1.107816	-0.206425	0.519630
