data_functionalizedCrystal
_audit_creation_method	'MofGen! by Chris Wilmer'
_symmetry_space_group_name_H-M	'P1'
_symmetry_Int_Tables_number	1
_symmetry_cell_setting	triclinic
loop_
_symmetry_equiv_pos_as_xyz
  x,y,z
_cell_length_a	10.489716
_cell_length_b	9.130313
_cell_length_c	10.654550
_cell_angle_alpha	89.997153
_cell_angle_beta	95.492967
_cell_angle_gamma	90.003359
loop_
_atom_site_label
_atom_site_type_symbol
_atom_site_fract_x
_atom_site_fract_y
_atom_site_fract_z
O1	O	1.693985	0.121787	-0.177042
O2	O	1.322778	0.121793	-0.193707
O3	O	1.516916	0.121781	-0.002639
O4	O	1.499847	0.121799	-0.368111
O5	O	1.516901	-0.121818	-0.002639
O6	O	1.322763	-0.121806	-0.193707
O7	O	1.693971	-0.121812	-0.177042
Cu8	Cu	1.508365	-0.144051	-0.185375
Cu9	Cu	1.508383	0.144032	-0.185375
O10	O	1.499832	-0.121800	-0.368111
C11	C	1.275239	-0.000006	-0.192455
C12	C	1.133609	-0.000004	-0.188709
N13	N	1.508362	-0.346674	-0.185374
C14	C	1.586398	-0.423318	-0.262286
C15	C	1.586418	-0.576655	-0.262279
C16	C	1.430357	-0.576691	-0.108445
C17	C	1.430344	-0.423357	-0.108446
C18	C	1.035879	0.000005	-0.305878
C19	C	0.958556	-0.120112	-0.243963
C20	C	0.958577	0.120058	-0.243935
C21	C	1.058152	-0.120220	-0.126843
C22	C	1.058178	0.120057	-0.126833
C23	C	0.980904	-0.000089	-0.064832
C24	C	1.741509	-0.000010	-0.178294
C25	C	1.883139	-0.000002	-0.182040
C26	C	1.515655	-0.000018	0.044160
C27	C	1.511906	-0.000016	0.183605
N28	N	1.508396	0.346655	-0.185365
C29	C	1.501093	0.000002	-0.414909
C30	C	1.504842	0.000010	-0.554354
C31	C	1.626211	-0.000017	0.263047
C32	C	1.622680	0.000001	0.394069
C33	C	1.390528	0.000015	0.366194
C34	C	1.394060	0.000008	0.235174
H35	H	1.649926	-0.360887	-0.324925
O36	O	0.906774	0.241355	-0.302772
C37	C	0.959544	0.367782	-0.242124
H38	H	0.997287	0.339568	-0.141122
H39	H	0.882520	0.455750	-0.241186
H40	H	1.041494	0.410260	-0.295019
O41	O	1.354415	-0.349122	-0.033696
C42	C	1.285573	-0.449680	0.034219
H43	H	1.278587	-0.558982	-0.017699
H44	H	1.185202	-0.405388	0.042970
H45	H	1.337260	-0.465984	0.132300
H46	H	1.366836	-0.639144	-0.045814
O47	O	1.110210	0.241044	-0.067696
C48	C	1.196935	0.197991	0.034960
H49	H	1.171767	0.083019	0.066249
H50	H	1.190709	0.277707	0.116496
H51	H	1.298455	0.198436	0.005149
H52	H	1.294582	0.000031	0.408199
H53	H	1.060499	-0.000102	-0.407797
H54	H	1.300973	0.000013	0.170489
H55	H	1.649964	-0.639051	-0.324906
H56	H	0.915043	-0.221654	-0.293425
H57	H	1.722169	-0.000033	0.221063
H58	H	1.101485	-0.221870	-0.077410
H59	H	1.715760	0.000003	0.458746
H60	H	0.956523	-0.000164	0.037162
