data_functionalizedCrystal
_audit_creation_method	'MofGen! by Chris Wilmer'
_symmetry_space_group_name_H-M	'P1'
_symmetry_Int_Tables_number	1
_symmetry_cell_setting	triclinic
loop_
_symmetry_equiv_pos_as_xyz
  x,y,z
_cell_length_a	13.635800
_cell_length_b	23.752959
_cell_length_c	10.943624
_cell_angle_alpha	84.948047
_cell_angle_beta	71.161201
_cell_angle_gamma	100.066424
loop_
_atom_site_label
_atom_site_type_symbol
_atom_site_fract_x
_atom_site_fract_y
_atom_site_fract_z
V1	V	-2.035758	-0.079145	0.403280
O2	O	-2.037663	0.003819	0.394853
O3	O	-2.003118	-0.156946	0.401244
O4	O	-2.025080	-0.077921	0.578836
O5	O	-2.015549	-0.075754	0.216032
V6	V	-2.276914	-0.069223	0.380796
O7	O	-2.167716	-0.100911	0.452601
O8	O	-2.370054	-0.047456	0.331476
O9	O	-2.197951	0.008579	0.382833
O10	O	-2.333708	-0.152186	0.389224
O11	O	-2.355822	-0.072614	0.568044
O12	O	-2.175989	-0.070447	0.205241
V13	V	-1.535758	-0.079145	0.403280
O14	O	-1.537663	0.003819	0.394853
O15	O	-1.503118	-0.156946	0.401244
O16	O	-1.525080	-0.077921	0.578836
O17	O	-1.515549	-0.075754	0.216032
V18	V	-1.776914	-0.069223	0.380796
O19	O	-1.667716	-0.100911	0.452601
O20	O	-1.870054	-0.047456	0.331476
O21	O	-1.697951	0.008579	0.382833
O22	O	-1.833708	-0.152186	0.389224
O23	O	-1.855822	-0.072614	0.568044
O24	O	-1.675989	-0.070447	0.205241
C25	C	-1.923127	-0.175913	0.395068
C26	C	-1.937173	-0.239516	0.394574
C27	C	-1.906722	-0.511525	0.386045
C28	C	-1.893507	-0.451762	0.386500
O29	O	-1.809090	-0.418378	0.381278
N30	N	-1.978139	-0.424785	0.393189
C31	C	-2.075995	-0.457576	0.399438
O32	O	-2.146768	-0.429142	0.405170
C33	C	-2.089210	-0.517338	0.398992
C34	C	-2.004569	-0.544311	0.392289
C35	C	-1.822088	-0.538499	0.379345
C36	C	-1.835301	-0.598258	0.378888
C37	C	-1.933148	-0.631044	0.385131
C38	C	-2.017782	-0.604070	0.391832
C39	C	-2.187067	-0.550128	0.405250
C40	C	-2.200276	-0.609895	0.404805
C41	C	-2.115634	-0.636868	0.398102
C42	C	-2.128842	-0.696615	0.397619
N43	N	-2.044210	-0.723592	0.390930
C44	C	-1.946363	-0.690806	0.384686
C45	C	-2.048236	-0.332069	0.400375
C46	C	-2.035020	-0.272307	0.400811
C47	C	-1.852533	-0.266498	0.387876
C48	C	-1.865748	-0.326261	0.387430
C49	C	-1.963604	-0.359046	0.393685
C50	C	-1.974118	-0.816305	0.383726
C51	C	-1.987339	-0.876069	0.383264
C52	C	-2.169826	-0.881873	0.396206
C53	C	-2.156605	-0.822114	0.396661
C54	C	-2.058744	-0.789331	0.390425
O55	O	-2.213230	-0.730036	0.402844
O56	O	-1.875609	-0.719249	0.378971
C57	C	-1.951141	-0.075107	0.621602
C58	C	-1.982996	-0.074621	0.765124
C59	C	-2.109612	0.027542	0.389005
C60	C	-2.085186	0.091145	0.389508
C61	C	-2.081598	-0.073262	0.162468
C62	C	-2.039362	-0.073745	0.018944
C63	C	-1.423127	-0.175913	0.395068
C64	C	-1.437173	-0.239516	0.394574
C65	C	-1.451141	-0.075107	0.621602
C66	C	-1.482996	-0.074621	0.765124
C67	C	-1.906321	-0.071348	0.842242
C68	C	-1.987500	-0.119937	0.948679
C69	C	-1.958589	-0.025172	0.914419
C70	C	-2.063769	-0.123256	0.869686
C71	C	-2.034829	-0.028448	0.835402
C72	C	-2.116073	-0.077051	0.941810
C73	C	-1.609612	0.027542	0.389005
C74	C	-1.585186	0.091145	0.389508
C75	C	-1.581598	-0.073262	0.162468
C76	C	-1.539362	-0.073745	0.018944
C77	C	-1.535020	-0.272302	0.400819
C78	C	-1.548237	-0.332066	0.400374
C79	C	-1.463602	-0.359043	0.393674
C80	C	-1.365748	-0.326253	0.387432
C81	C	-1.352535	-0.266490	0.387887
C82	C	-1.659833	0.123931	0.383266
C83	C	-1.636889	0.183694	0.383717
C84	C	-1.539300	0.210670	0.390420
C85	C	-1.464647	0.177881	0.396658
C86	C	-1.487589	0.118119	0.396198
C87	C	-1.406321	-0.071348	0.842242
C88	C	-1.487500	-0.119937	0.948679
C89	C	-1.458589	-0.025172	0.914419
C90	C	-1.563769	-0.123256	0.869686
C91	C	-1.534829	-0.028448	0.835402
C92	C	-1.616073	-0.077051	0.941810
H93	H	-1.918409	-0.898027	0.377806
Br94	Br	-1.720418	-0.634854	0.369781
Br95	Br	-1.567556	0.036022	0.753158
H96	H	-2.054464	0.010232	0.786062
H97	H	-1.739300	0.101975	0.377809
Br98	Br	-2.333089	-0.654387	0.413303
Br99	Br	-1.649902	-0.235706	0.409922
Br100	Br	-1.250895	-0.362872	0.378336
Br101	Br	-1.954709	-0.184404	1.030860
H102	H	-1.627920	-0.358756	0.405453
H103	H	-1.474375	-0.407705	0.393305
H104	H	-1.272854	-0.239800	0.382794
Br105	Br	-1.738217	0.228182	0.375250
Br106	Br	-1.508181	0.291778	0.391041
H107	H	-1.385190	0.199854	0.402114
H108	H	-1.894434	-0.789620	0.378652
H109	H	-1.426801	0.091428	0.401292
Br110	Br	-1.750873	-0.362860	0.378335
H111	H	-1.317372	-0.069002	0.798772
Br112	Br	-2.271477	-0.785507	0.405764
H113	H	-1.467823	-0.158615	0.997985
Br114	Br	-1.758068	-0.067434	0.769780
Br115	Br	-1.637381	-0.192423	0.836092
Br116	Br	-2.301943	-0.513536	0.414316
H117	H	-2.249492	-0.908578	0.401287
H118	H	-1.705057	-0.079473	0.985077
Br119	Br	-1.384987	0.043921	0.948319
H120	H	-1.742408	-0.511811	0.374264
Br121	Br	-2.137381	-0.192423	0.836092
Br122	Br	-2.149888	-0.235706	0.409868
Br123	Br	-2.181048	-0.376558	0.408852
Br124	Br	-2.264383	-0.081084	1.013926
Br125	Br	-1.884987	0.043921	0.948319
Br126	Br	-1.719739	-0.221992	0.379411
