data_functionalizedCrystal
_audit_creation_method	'MofGen! by Chris Wilmer'
_symmetry_space_group_name_H-M	'P1'
_symmetry_Int_Tables_number	1
_symmetry_cell_setting	triclinic
loop_
_symmetry_equiv_pos_as_xyz
  x,y,z
_cell_length_a	16.992694
_cell_length_b	17.038272
_cell_length_c	16.053802
_cell_angle_alpha	92.751609
_cell_angle_beta	87.249047
_cell_angle_gamma	90.889890
loop_
_atom_site_label
_atom_site_type_symbol
_atom_site_fract_x
_atom_site_fract_y
_atom_site_fract_z
O1	O	1.054593	0.163385	-0.069325
O2	O	1.554593	0.663385	0.430675
O3	O	0.826187	0.161558	-0.069350
O4	O	1.326187	0.661558	0.430650
O5	O	0.939032	0.048571	-0.069331
O6	O	1.439032	0.548571	0.430669
O7	O	0.941748	0.276372	-0.069344
O8	O	1.441748	0.776372	0.430656
O9	O	0.932819	0.054763	0.069527
O10	O	1.432819	0.554763	0.569527
O11	O	0.819974	0.167750	0.069508
O12	O	1.319974	0.667750	0.569508
O13	O	1.048380	0.169577	0.069533
O14	O	1.548380	0.669577	0.569533
Zn15	Zn	0.933190	0.169646	0.091567
Zn16	Zn	1.433190	0.669646	0.591567
Zn17	Zn	0.941376	0.161489	-0.091384
Zn18	Zn	1.441376	0.661489	0.408616
O19	O	0.935535	0.282564	0.069514
O20	O	1.435535	0.782564	0.569514
C21	C	0.793711	0.162304	0.000076
C22	C	1.293711	0.662304	0.500076
C23	C	0.706200	0.155293	0.000067
C24	C	1.206200	0.655293	0.500067
C25	C	0.660472	0.222933	0.000064
C26	C	1.160472	0.722933	0.500064
C27	C	0.578245	0.216342	0.000076
C28	C	1.078245	0.716342	0.500076
C29	C	0.541748	0.142110	0.000085
C30	C	1.041748	0.642110	0.500085
C31	C	0.587482	0.074465	0.000091
C32	C	1.087482	0.574465	0.500091
C33	C	0.669707	0.081057	0.000085
C34	C	1.169707	0.581057	0.500085
C35	C	0.296327	0.114789	0.000109
C36	C	0.796327	0.614789	0.500109
C37	C	0.214096	0.108201	0.000112
C38	C	0.714096	0.608201	0.500112
C39	C	0.204864	0.250079	0.000099
C40	C	0.704864	0.750079	0.500099
C41	C	0.287091	0.256665	0.000088
C42	C	0.787091	0.756665	0.500088
C43	C	0.332818	0.189020	0.000098
C44	C	0.832818	0.689020	0.500098
N45	N	0.457699	0.135371	0.000094
N46	N	0.957699	0.635371	0.500094
N47	N	0.416865	0.195760	0.000095
N48	N	0.916865	0.695760	0.500095
C49	C	0.933456	0.022384	0.000098
C50	C	1.433456	0.522384	0.500098
C51	C	0.926089	-0.064871	0.000097
C52	C	1.426089	0.435129	0.500097
C53	C	0.993729	-0.110741	0.000105
C54	C	1.493729	0.389259	0.500105
C55	C	0.986802	-0.192727	0.000096
C56	C	1.486802	0.307273	0.500096
C57	C	0.912235	-0.228840	0.000085
C58	C	1.412235	0.271160	0.500085
C59	C	0.844590	-0.182964	0.000075
C60	C	1.344590	0.317036	0.500075
C61	C	0.851518	-0.100981	0.000077
C62	C	1.351518	0.399019	0.500077
C63	C	0.887761	-0.476135	0.000071
C64	C	1.387761	0.023865	0.500071
C65	C	0.880838	-0.558124	0.000071
C66	C	1.380838	-0.058124	0.500071
C67	C	1.023051	-0.567881	0.000091
C68	C	1.523051	-0.067881	0.500091
C69	C	1.029972	-0.485895	0.000099
C70	C	1.529972	0.014105	0.500099
C71	C	0.962328	-0.440026	0.000084
C72	C	1.462328	0.059974	0.500084
C73	C	0.905153	-0.312643	0.000079
C74	C	1.405153	0.187357	0.500079
C75	C	0.969410	-0.356226	0.000084
C76	C	1.469410	0.143774	0.500084
C77	C	1.080856	0.168831	0.000105
C78	C	1.580856	0.668831	0.500105
C79	C	1.168367	0.175841	0.000109
C80	C	1.668367	0.675841	0.500109
C81	C	0.941111	0.308751	0.000084
C82	C	1.441111	0.808751	0.500084
C83	C	0.948478	0.396006	0.000079
C84	C	1.448478	0.896006	0.500079
N85	N	0.927609	0.175214	0.216427
N86	N	1.427609	0.675214	0.716427
N87	N	0.946963	0.155915	-0.216243
N88	N	1.446963	0.655915	0.283757
C89	C	0.975645	0.127157	0.260129
C90	C	1.475645	0.627157	0.760129
C91	C	0.971749	0.131060	0.347535
C92	C	1.471749	0.631060	0.847535
C93	C	0.919820	0.183023	0.391237
C94	C	1.419820	0.683023	0.891237
C95	C	0.871779	0.231082	0.347529
C96	C	1.371779	0.731082	0.847529
C97	C	0.875672	0.227175	0.260125
C98	C	1.375672	0.727175	0.760125
C99	C	0.902815	0.200067	0.652644
C100	C	1.402815	0.700067	1.152644
C101	C	0.898928	0.203972	0.740055
C102	C	1.398928	0.703972	1.240055
C103	C	0.998897	0.103948	0.740054
C104	C	1.498897	0.603948	1.240054
C105	C	1.002788	0.100050	0.652648
C106	C	1.502788	0.600050	1.152648
C107	C	0.954744	0.148105	0.608948
C108	C	1.454744	0.648105	1.108948
N109	N	0.915838	0.187015	0.480580
N110	N	1.415838	0.687015	0.980580
N111	N	0.958723	0.144109	0.519606
N112	N	1.458723	0.644109	1.019606
H113	H	0.541016	0.271422	0.000072
H114	H	1.041016	0.771422	0.500072
O115	O	0.322413	0.328836	0.000121
O116	O	0.822413	0.828836	0.500121
C117	C	0.264420	0.387125	0.000100
C118	C	0.764420	0.887125	0.500100
H119	H	0.205988	0.362804	0.026394
H120	H	0.705988	0.862804	0.526394
H121	H	0.283151	0.440440	0.040410
H122	H	0.783151	0.940440	0.540410
H123	H	0.257226	0.405265	-0.066518
H124	H	0.757226	0.905265	0.433482
O125	O	0.856270	0.246794	0.610114
O126	O	1.356270	0.746794	1.110114
C127	C	0.903921	0.295645	0.559561
C128	C	1.403921	0.795645	1.059561
H129	H	0.964027	0.267667	0.546453
H130	H	1.464027	0.767667	1.046453
H131	H	0.874618	0.303260	0.498105
H132	H	1.374618	0.803260	0.998105
H133	H	0.911649	0.355509	0.593244
H134	H	1.411649	0.855509	1.093244
O135	O	1.088678	-0.612556	0.000061
O136	O	1.588678	-0.112556	0.500061
C137	C	1.066578	-0.692660	0.000077
C138	C	1.566578	-0.192660	0.500077
H139	H	1.005699	-0.700835	-0.026216
H140	H	1.505699	-0.200835	0.473784
H141	H	1.111160	-0.728729	-0.040235
H142	H	1.611160	-0.228729	0.459765
H143	H	1.065005	-0.713192	0.066694
H144	H	1.565005	-0.213192	0.566694
H145	H	0.844440	-0.342056	0.000072
H146	H	1.344440	0.157944	0.500072
H147	H	1.038011	0.064823	0.775643
H148	H	1.538011	0.564823	1.275643
O149	O	0.848588	0.254536	0.782542
O150	O	1.348588	0.754536	1.282542
C151	C	0.891727	0.307886	0.833099
C152	C	1.391727	0.807886	1.333099
H153	H	0.955082	0.311956	0.806748
H154	H	1.455082	0.811956	1.306748
H155	H	0.863712	0.368307	0.834082
H156	H	1.363712	0.868307	1.334082
H157	H	0.891270	0.286537	0.899346
H158	H	1.391270	0.786537	1.399346
O159	O	1.052933	0.049214	0.610294
O160	O	1.552933	0.549214	1.110294
C161	C	1.009486	-0.004124	0.560034
C162	C	1.509486	0.495876	1.060034
H163	H	0.950725	0.022961	0.546763
H164	H	1.450725	0.522961	1.046763
H165	H	1.044208	-0.017714	0.498642
H166	H	1.544208	0.482286	0.998642
H167	H	0.998395	-0.060750	0.594054
H168	H	1.498395	0.439250	1.094054
H169	H	0.836555	0.266306	0.224543
H170	H	1.336555	0.766306	0.724543
H171	H	0.829494	0.273389	0.383117
H172	H	1.329494	0.773389	0.883117
O173	O	0.808342	-0.593082	0.000015
O174	O	1.308342	-0.093082	0.500015
C175	C	0.750120	-0.535018	0.000019
C176	C	1.250120	-0.035018	0.500019
H177	H	0.777079	-0.479176	-0.026263
H178	H	1.277079	0.020824	0.473737
H179	H	0.700201	-0.557092	-0.040310
H180	H	1.200201	-0.057092	0.459690
H181	H	0.726002	-0.521833	0.066630
H182	H	1.226002	-0.021833	0.566630
O183	O	0.772107	-0.217947	0.000173
O184	O	1.272107	0.282053	0.500173
C185	C	0.727329	-0.191755	0.072093
C186	C	1.227329	0.308245	0.572093
H187	H	0.751505	-0.132551	0.096073
H188	H	1.251505	0.367449	0.596073
H189	H	0.663243	-0.185203	0.055908
H190	H	1.163243	0.314797	0.555908
H191	H	0.731030	-0.236331	0.122451
H192	H	1.231030	0.263669	0.622451
H193	H	0.184383	0.047750	0.000119
H194	H	0.684383	0.547750	0.500119
O195	O	0.695793	0.295105	0.000091
O196	O	1.195793	0.795105	0.500091
C197	C	0.637796	0.353391	0.000071
C198	C	1.137796	0.853391	0.500071
H199	H	0.579366	0.329066	0.026366
H200	H	1.079366	0.829066	0.526366
H201	H	0.656525	0.406707	0.040380
H202	H	1.156525	0.906707	0.540380
H203	H	0.630601	0.371530	-0.066547
H204	H	1.130601	0.871530	0.433453
H205	H	0.333548	0.059707	0.000118
H206	H	0.833548	0.559707	0.500118
O207	O	1.066226	-0.075791	0.000076
O208	O	1.566226	0.424209	0.500076
C209	C	1.124439	-0.133862	0.000100
C210	C	1.624439	0.366138	0.500100
H211	H	1.099829	-0.192042	-0.026191
H212	H	1.599829	0.307958	0.473809
H213	H	1.177974	-0.115384	-0.040212
H214	H	1.677974	0.384616	0.459788
H215	H	1.142588	-0.141115	0.066718
H216	H	1.642588	0.358885	0.566718
H217	H	0.167624	0.305152	0.000092
H218	H	0.667624	0.805152	0.500092
O219	O	0.551907	0.002414	0.000064
O220	O	1.051907	0.502414	0.500064
C221	C	0.469526	0.011099	0.000087
C222	C	0.969526	0.511099	0.500087
H223	H	0.455499	0.069990	-0.026206
H224	H	0.955499	0.569990	0.473794
H225	H	0.443025	-0.038509	-0.040222
H226	H	0.943025	0.461491	0.459778
H227	H	0.443440	0.008838	0.066706
H228	H	0.943440	0.508838	0.566706
H229	H	1.090692	-0.456497	0.000108
H230	H	1.590692	0.043503	0.500108
O231	O	1.026001	0.076553	0.217736
O232	O	1.526001	0.576553	0.717736
C233	C	1.007059	-0.001006	0.239154
C234	C	1.507059	0.498994	0.739154
H235	H	0.942918	-0.004269	0.263176
H236	H	1.442918	0.495731	0.763176
H237	H	1.016052	-0.042429	0.181697
H238	H	1.516052	0.457571	0.681697
H239	H	1.046888	-0.019037	0.289905
H240	H	1.546888	0.480963	0.789905
O241	O	0.714015	0.015270	0.000046
O242	O	1.214015	0.515270	0.500046
C243	C	0.664172	-0.051662	0.000074
C244	C	1.164172	0.448338	0.500074
H245	H	0.605377	-0.036738	-0.026212
H246	H	1.105377	0.463262	0.473788
H247	H	0.692958	-0.101169	-0.040238
H248	H	1.192958	0.398831	0.459762
H249	H	0.653877	-0.071204	0.066693
H250	H	1.153877	0.428796	0.566693
H251	H	1.041882	-0.230071	0.000105
H252	H	1.541882	0.269929	0.500105
H253	H	1.010863	0.091928	0.383116
H254	H	1.510863	0.591928	0.883116
H255	H	0.832680	-0.438798	0.000059
H256	H	1.332680	0.061202	0.500059
H257	H	0.796438	-0.063634	0.000071
H258	H	1.296438	0.436366	0.500071
H259	H	1.030124	-0.326819	0.000074
H260	H	1.530124	0.173181	0.500074
