data_functionalizedCrystal
_audit_creation_method	'MofGen! by Chris Wilmer'
_symmetry_space_group_name_H-M	'P1'
_symmetry_Int_Tables_number	1
_symmetry_cell_setting	triclinic
loop_
_symmetry_equiv_pos_as_xyz
  x,y,z
_cell_length_a	15.995292
_cell_length_b	23.532407
_cell_length_c	14.472310
_cell_angle_alpha	89.994233
_cell_angle_beta	89.985801
_cell_angle_gamma	83.158647
loop_
_atom_site_label
_atom_site_type_symbol
_atom_site_fract_x
_atom_site_fract_y
_atom_site_fract_z
O1	O	1.110418	0.073246	-0.076876
O2	O	1.610418	0.573246	0.423124
O3	O	0.866560	0.082346	-0.076873
O4	O	1.366560	0.582346	0.423127
O5	O	0.995842	-0.005109	-0.076857
O6	O	1.495842	0.494891	0.423143
O7	O	0.981135	0.160700	-0.076891
O8	O	1.481135	0.660700	0.423109
O9	O	0.995809	-0.005103	0.076825
O10	O	1.495809	0.494897	0.576825
O11	O	0.866527	0.082351	0.076809
O12	O	1.366527	0.582351	0.576809
O13	O	1.110384	0.073251	0.076806
O14	O	1.610384	0.573251	0.576806
Cu15	Cu	0.988453	0.077801	0.090840
Cu16	Cu	1.488453	0.577801	0.590840
Cu17	Cu	0.988492	0.077795	-0.090907
Cu18	Cu	1.488492	0.577795	0.409093
O19	O	0.981102	0.160705	0.076791
O20	O	1.481102	0.660705	0.576791
C21	C	0.835351	0.081978	-0.000032
C22	C	1.335351	0.581978	0.499968
C23	C	0.742407	0.080867	-0.000030
C24	C	1.242407	0.580867	0.499970
C25	C	0.404703	0.076786	-0.000040
C26	C	0.904703	0.576786	0.499960
C27	C	0.427490	0.139908	-0.000395
C28	C	0.927490	0.639908	0.499605
C29	C	0.524156	0.141108	-0.000045
C30	C	1.024156	0.641108	0.499955
C31	C	0.572242	0.078811	-0.000035
C32	C	1.072242	0.578811	0.499965
C33	C	0.543384	0.047256	0.087728
C34	C	1.043384	0.547256	0.587728
C35	C	0.446599	0.046496	0.087798
C36	C	0.946599	0.546496	0.587798
C37	C	0.446792	0.045201	-0.086967
C38	C	0.946792	0.545201	0.413033
C39	C	0.543266	0.047540	-0.088124
C40	C	1.043266	0.547540	0.411876
C41	C	0.666928	0.079952	-0.000030
C42	C	1.166928	0.579952	0.499970
C43	C	0.310016	0.075642	-0.000039
C44	C	0.810016	0.575642	0.499961
C45	C	0.995451	-0.026323	-0.000014
C46	C	1.495451	0.473677	0.499986
C47	C	0.994325	-0.089545	-0.000007
C48	C	1.494325	0.410455	0.499993
C49	C	1.063769	-0.488390	-0.000058
C50	C	1.563769	0.011610	0.499942
C51	C	1.062723	-0.547795	-0.000065
C52	C	1.562723	-0.047795	0.499935
O53	O	1.127099	-0.584300	-0.000100
O54	O	1.627099	-0.084300	0.499900
N55	N	0.985865	-0.570706	-0.000064
N56	N	1.485865	-0.070706	0.499936
C57	C	0.910048	-0.534209	-0.000065
C58	C	1.410048	-0.034209	0.499935
O59	O	0.844578	-0.559151	-0.000065
O60	O	1.344578	-0.059151	0.499935
C61	C	0.911095	-0.474806	-0.000064
C62	C	1.411095	0.025194	0.499936
C63	C	0.987958	-0.451898	-0.000057
C64	C	1.487958	0.048102	0.499943
C65	C	1.140626	-0.465482	-0.000051
C66	C	1.640626	0.034518	0.499949
C67	C	1.141672	-0.406082	-0.000043
C68	C	1.641672	0.093918	0.499957
C69	C	1.065861	-0.369590	-0.000041
C70	C	1.565861	0.130410	0.499959
C71	C	0.989004	-0.392498	-0.000048
C72	C	1.489004	0.107502	0.499952
C73	C	0.835278	-0.438310	-0.000072
C74	C	1.335278	0.061690	0.499928
C75	C	0.836332	-0.378904	-0.000072
C76	C	1.336332	0.121096	0.499928
C77	C	0.913195	-0.355997	-0.000064
C78	C	1.413195	0.144003	0.499936
C79	C	0.914238	-0.296606	-0.000037
C80	C	1.414238	0.203394	0.499963
N81	N	0.991096	-0.273695	-0.000039
N82	N	1.491096	0.226305	0.499961
C83	C	1.066908	-0.310187	-0.000041
C84	C	1.566908	0.189813	0.499959
C85	C	0.907855	-0.658960	-0.000067
C86	C	1.407855	-0.158960	0.499933
C87	C	0.906807	-0.718361	-0.000061
C88	C	1.406807	-0.218361	0.499939
C89	C	1.059483	-0.731943	-0.000063
C90	C	1.559483	-0.231943	0.499937
C91	C	1.060530	-0.672540	-0.000063
C92	C	1.560530	-0.172540	0.499937
C93	C	0.984713	-0.636049	-0.000069
C94	C	1.484713	-0.136049	0.499931
C95	C	1.069098	-0.185443	-0.000021
C96	C	1.569098	0.314557	0.499979
C97	C	1.070137	-0.126037	-0.000009
C98	C	1.570137	0.373963	0.499991
C99	C	0.917461	-0.112460	-0.000011
C100	C	1.417461	0.387540	0.499989
C101	C	0.916422	-0.171861	-0.000019
C102	C	1.416422	0.328139	0.499981
C103	C	0.992247	-0.208351	-0.000027
C104	C	1.492247	0.291649	0.499973
O105	O	0.849896	-0.260066	-0.000006
O106	O	1.349896	0.239934	0.499994
O107	O	1.132367	-0.285237	-0.000052
O108	O	1.632367	0.214763	0.499948
C109	C	1.141594	0.073619	-0.000037
C110	C	1.641594	0.573619	0.499963
C111	C	1.234537	0.074729	-0.000045
C112	C	1.734537	0.574729	0.499955
C113	C	0.981493	0.181920	-0.000055
C114	C	1.481493	0.681920	0.499945
C115	C	0.982619	0.245141	-0.000068
C116	C	1.482619	0.745141	0.499932
N117	N	0.988431	0.077805	0.218671
N118	N	1.488431	0.577805	0.718671
N119	N	0.988520	0.077787	-0.218738
N120	N	1.488520	0.577787	0.281262
C121	C	0.988491	0.077793	0.592762
C122	C	1.488491	0.577793	1.092762
C123	C	0.919085	0.124431	0.553588
C124	C	1.419085	0.624431	1.053588
C125	C	0.919243	0.124601	0.446500
C126	C	1.419243	0.624601	0.946500
C127	C	0.988460	0.077799	0.407171
C128	C	1.488460	0.577799	0.907171
C129	C	1.075720	0.090765	0.446004
C130	C	1.575720	0.590765	0.946004
C131	C	1.075329	0.091097	0.553126
C132	C	1.575329	0.591097	1.053126
C133	C	0.971418	0.018050	0.553304
C134	C	1.471418	0.518050	1.053304
C135	C	0.969411	0.018449	0.446177
C136	C	1.469411	0.518449	0.946177
C137	C	0.988449	0.077801	0.302283
C138	C	1.488449	0.577801	0.802283
C139	C	0.988508	0.077792	0.697650
C140	C	1.488508	0.577792	1.197650
H141	H	0.576615	0.002070	-0.093417
H142	H	1.076615	0.502070	0.406583
H143	H	1.022038	-0.016656	0.578637
H144	H	1.522038	0.483344	1.078637
H145	H	0.419586	0.068354	0.153395
H146	H	0.919586	0.568354	0.653395
H147	H	0.575632	0.001414	0.090999
H148	H	1.075632	0.501414	0.590999
O149	O	0.428771	-0.016343	-0.087736
O150	O	0.928771	0.483657	0.412264
H151	H	0.489041	-0.045062	-0.085466
H152	H	0.989041	0.454938	0.414534
O153	O	0.390146	0.172135	-0.083762
O154	O	0.890146	0.672135	0.416238
H155	H	0.441440	0.186791	-0.125949
H156	H	0.941440	0.686791	0.374051
O157	O	0.548247	0.174040	0.083424
O158	O	1.048247	0.674040	0.583424
H159	H	0.617451	0.175018	0.083961
H160	H	1.117451	0.675018	0.583961
H161	H	0.432433	0.000215	0.091792
H162	H	0.932433	0.500215	0.591792
O163	O	0.569681	0.076286	0.174240
O164	O	1.069681	0.576286	0.674240
H165	H	0.603294	0.113183	0.154952
H166	H	1.103294	0.613183	0.654952
O167	O	1.153042	-0.101328	-0.000015
O168	O	1.653042	0.398672	0.499985
H169	H	1.205580	-0.136687	-0.000031
H170	H	1.705580	0.363313	0.499969
O171	O	0.835695	-0.073096	-0.000006
O172	O	1.335695	0.426904	0.499994
H173	H	0.832538	-0.045706	-0.062646
H174	H	1.332538	0.454294	0.437354
H175	H	0.418315	0.064929	-0.153486
H176	H	0.918315	0.564929	0.346514
O177	O	1.145767	0.047819	0.587454
O178	O	1.645767	0.547819	1.087454
H179	H	1.119090	0.015138	0.630076
H180	H	1.619090	0.515138	1.130076
H181	H	0.774591	-0.349195	-0.000078
H182	H	1.274591	0.150805	0.499922
H183	H	0.853834	-0.190513	0.000000
H184	H	1.353834	0.309487	0.500000
H185	H	1.128580	0.057700	0.420527
H186	H	1.628580	0.557700	0.920527
H187	H	0.905225	0.008609	0.420797
H188	H	1.405225	0.508609	0.920797
O189	O	0.388790	0.171962	0.082503
O190	O	0.888790	0.671962	0.582503
H191	H	0.353398	0.143132	0.123958
H192	H	0.853398	0.643132	0.623958
O193	O	1.222402	-0.504836	-0.000050
O194	O	1.722402	-0.004836	0.499950
H195	H	1.225562	-0.532229	0.062587
H196	H	1.725562	-0.032229	0.562587
O197	O	0.567614	0.077973	-0.174134
O198	O	1.067614	0.577973	0.325866
H199	H	0.600223	0.115213	-0.154239
H200	H	1.100223	0.615213	0.345761
O201	O	1.150878	-0.224796	-0.000017
O202	O	1.650878	0.275204	0.499983
H203	H	1.204490	-0.198878	0.000001
H204	H	1.704490	0.301122	0.500001
O205	O	0.752373	-0.463006	-0.000088
O206	O	1.252373	0.036994	0.499912
H207	H	0.748212	-0.489745	0.062550
H208	H	1.248212	0.010255	0.562550
O209	O	0.823902	-0.743062	-0.000052
O210	O	1.323902	-0.243062	0.499948
H211	H	0.835901	-0.790500	-0.000048
H212	H	1.335901	-0.290500	0.499952
H213	H	1.123119	-0.653893	-0.000057
H214	H	1.623119	-0.153893	0.499943
O215	O	0.832863	0.114383	0.587760
O216	O	1.332863	0.614383	1.087760
H217	H	0.838552	0.076043	0.633035
H218	H	1.338552	0.576043	1.133035
H219	H	0.909197	0.005579	0.580375
H220	H	1.409197	0.505579	1.080375
O221	O	1.224574	-0.381377	-0.000061
O222	O	1.724574	0.118623	0.499939
H223	H	1.277107	-0.416740	-0.000079
H224	H	1.777107	0.083260	0.499921
O225	O	1.141257	-0.771306	-0.000069
O226	O	1.641257	-0.271306	0.499931
H227	H	1.144444	-0.798687	-0.062714
H228	H	1.644444	-0.298687	0.437286
H229	H	0.846112	-0.629251	-0.000064
H230	H	1.346112	-0.129251	0.499936
H231	H	0.854366	0.116878	0.420247
H232	H	1.354366	0.616878	0.920247
O233	O	0.933250	0.182831	0.589206
O234	O	1.433250	0.682831	1.089206
H235	H	0.989510	0.178784	0.634687
H236	H	1.489510	0.678784	1.134687
O237	O	0.933621	0.183324	0.412518
O238	O	1.433621	0.683324	0.912518
H239	H	0.940497	0.211710	0.472598
H240	H	1.440497	0.711710	0.972598
H241	H	1.090449	0.134667	0.578092
H242	H	1.590449	0.634667	1.078092
O243	O	1.096248	0.147824	0.410462
O244	O	1.596248	0.647824	0.910462
H245	H	1.044443	0.167034	0.365151
H246	H	1.544443	0.667034	0.865151
H247	H	1.016717	-0.017882	0.419409
H248	H	1.516717	0.482118	0.919409
H249	H	0.542990	0.165817	-0.062960
H250	H	1.042990	0.665817	0.437040
