data_functionalizedCrystal
_audit_creation_method	'MofGen! by Chris Wilmer'
_symmetry_space_group_name_H-M	'P1'
_symmetry_Int_Tables_number	1
_symmetry_cell_setting	triclinic
loop_
_symmetry_equiv_pos_as_xyz
  x,y,z
_cell_length_a	6.817900
_cell_length_b	12.908942
_cell_length_c	10.992410
_cell_angle_alpha	94.375677
_cell_angle_beta	108.764651
_cell_angle_gamma	100.860556
loop_
_atom_site_label
_atom_site_type_symbol
_atom_site_fract_x
_atom_site_fract_y
_atom_site_fract_z
V1	V	-4.073725	-0.145852	-0.399878
O2	O	-4.074323	0.007009	-0.393002
O3	O	-4.011476	-0.289201	-0.396436
O4	O	-4.051940	-0.143609	-0.574602
O5	O	-4.033579	-0.139591	-0.213603
V6	V	-4.555698	-0.127568	-0.377684
O7	O	-4.338382	-0.185960	-0.448563
O8	O	-4.741239	-0.087461	-0.329000
O9	O	-4.394741	0.015780	-0.381126
O10	O	-4.672497	-0.280430	-0.384561
O11	O	-4.713241	-0.133830	-0.563960
O12	O	-4.354276	-0.129812	-0.202961
C13	C	-3.852247	-0.324146	-0.389945
C14	C	-3.882815	-0.441335	-0.388295
C15	C	-4.305471	-0.672288	-0.397991
C16	C	-4.334203	-0.782398	-0.396441
C17	C	-3.969016	-0.771668	-0.383655
C18	C	-3.940285	-0.661558	-0.385205
C19	C	-4.108519	-0.611872	-0.392371
C20	C	-4.079781	-0.501759	-0.393912
C21	C	-3.714601	-0.491032	-0.381135
C22	C	-3.743333	-0.601142	-0.379585
C23	C	-3.903862	-0.138428	-0.617212
C24	C	-3.967242	-0.137542	-0.760044
C25	C	-3.836608	-0.129471	-0.955207
C26	C	-3.770680	-0.130829	-0.806717
C27	C	-4.136379	-0.241483	-0.836639
C28	C	-4.200948	-0.240564	-0.985210
C29	C	-4.134634	-0.039296	-0.948165
C30	C	-4.064062	-0.038804	-0.799154
C31	C	-4.217311	0.050720	-0.387614
C32	C	-4.165982	0.167908	-0.389272
C33	C	-4.165696	-0.134997	-0.160344
C34	C	-4.081554	-0.135877	-0.017510
H35	H	-3.642990	-0.056091	-0.753743
H36	H	-3.740312	-0.054219	-0.974405
H37	H	-3.792390	-0.198865	-1.002860
H38	H	-4.206514	-0.037583	-0.766648
H39	H	-4.053650	0.039634	-0.968910
C40	C	-4.375011	-0.044392	-1.003324
N41	N	-4.556061	-0.048237	-1.044879
H42	H	-3.942171	0.038087	-0.747173
H43	H	-4.216764	-0.461305	-0.399738
C44	C	-4.047040	-0.340521	-0.801573
N45	N	-3.979736	-0.415115	-0.775164
C46	C	-3.667027	-0.225882	-0.772723
N47	N	-3.588960	-0.297482	-0.747121
C48	C	-4.152455	-0.339351	-1.047237
N49	N	-4.115915	-0.413758	-1.093948
C50	C	-4.550860	-0.848852	-0.402619
N51	N	-4.714054	-0.898905	-0.407271
H52	H	-4.442446	-0.631831	-0.403807
C53	C	-3.497942	-0.424566	-0.374961
N54	N	-3.334758	-0.374503	-0.370312
H55	H	-3.832063	-0.812144	-0.377833
C56	C	-4.443432	-0.252781	-1.042748
N57	N	-4.626069	-0.261996	-1.086083
H58	H	-3.606370	-0.641613	-0.373756
H59	H	-4.284348	-0.250149	-0.807793
