data_functionalizedCrystal
_audit_creation_method	'MofGen! by Chris Wilmer'
_symmetry_space_group_name_H-M	'P1'
_symmetry_Int_Tables_number	1
_symmetry_cell_setting	triclinic
loop_
_symmetry_equiv_pos_as_xyz
  x,y,z
_cell_length_a	14.044191
_cell_length_b	14.044190
_cell_length_c	13.930277
_cell_angle_alpha	89.990896
_cell_angle_beta	89.995225
_cell_angle_gamma	93.191777
loop_
_atom_site_label
_atom_site_type_symbol
_atom_site_fract_x
_atom_site_fract_y
_atom_site_fract_z
O1	O	1.277182	0.230200	-0.079804
O2	O	1.000509	0.221888	-0.079816
O3	O	1.134689	0.087708	-0.079791
O4	O	1.143002	0.364380	-0.079829
O5	O	1.134669	0.087703	0.079870
O6	O	1.000489	0.221883	0.079846
O7	O	1.277161	0.230195	0.079857
Zn8	Zn	1.138822	0.226038	0.105202
Zn9	Zn	1.138849	0.226045	-0.105160
O10	O	1.142982	0.364375	0.079833
C11	C	0.964877	0.218249	0.000014
C12	C	0.858734	0.207401	0.000010
C13	C	0.613277	0.264502	0.000012
C14	C	0.664400	0.187585	0.000021
C15	C	0.772537	0.198614	0.000015
C16	C	0.505130	0.253475	0.000018
C17	C	1.131043	0.052083	0.000042
C18	C	1.120195	-0.054060	0.000050
C19	C	1.177296	-0.299517	0.000015
C20	C	1.100379	-0.248394	0.000018
C21	C	1.111408	-0.140257	0.000036
C22	C	1.166269	-0.407664	-0.000003
C23	C	1.312794	0.233834	0.000026
C24	C	1.418937	0.244682	0.000023
C25	C	1.146628	0.400000	-0.000003
C26	C	1.157476	0.506143	-0.000017
N27	N	1.138810	0.226034	0.248768
N28	N	1.138868	0.226042	-0.248726
C29	C	1.079430	0.285434	0.701026
C30	C	1.198294	0.166650	0.701017
C31	C	1.198283	0.166646	0.600521
C32	C	1.138845	0.226038	0.550273
C33	C	1.079418	0.285434	0.600521
C34	C	1.257715	0.107259	0.550266
C35	C	1.257707	0.107253	0.449764
C36	C	1.198263	0.166641	0.399514
C37	C	1.138833	0.226038	0.449768
C38	C	1.079395	0.285430	0.399520
C39	C	1.019960	0.344823	0.449772
C40	C	1.019974	0.344821	0.550271
C41	C	1.198248	0.166642	0.299016
C42	C	1.079384	0.285430	0.299015
H43	H	0.626955	0.113453	-0.000037
H44	H	0.971585	0.393178	0.591193
O45	O	0.658091	0.352868	-0.000051
C46	C	0.808309	0.444560	-0.000024
C47	C	0.757664	0.344433	0.000029
H48	H	0.888821	0.437775	0.000061
H49	H	0.786859	0.485027	-0.066866
H50	H	0.786728	0.485011	0.066770
H51	H	0.779218	0.303903	-0.066720
H52	H	0.779115	0.304038	0.066915
H53	H	1.306101	0.058892	0.408855
H54	H	1.031035	0.333788	0.741944
H55	H	1.026247	-0.285839	0.000010
O56	O	1.265662	-0.254703	0.000077
C57	C	1.357354	-0.104485	0.000065
C58	C	1.257227	-0.155130	0.000011
H59	H	1.350569	-0.023973	-0.000009
H60	H	1.397808	-0.125960	0.066902
H61	H	1.397819	-0.126040	-0.066734
H62	H	1.216683	-0.133601	0.066765
H63	H	1.216846	-0.133654	-0.066870
H64	H	1.030978	0.333790	0.258109
H65	H	1.246644	0.118290	0.258105
O66	O	0.962253	0.402427	0.400808
C67	C	0.909621	0.455111	0.245976
C68	C	0.975000	0.389812	0.301312
H69	H	0.919919	0.444949	0.165523
H70	H	0.832080	0.436155	0.265670
H71	H	0.928512	0.532628	0.265779
H72	H	0.956195	0.312274	0.281538
H73	H	1.052523	0.408849	0.281613
H74	H	1.246692	0.118300	0.741932
O75	O	1.315362	0.049600	0.599223
C76	C	1.368093	-0.002998	0.754051
C77	C	1.302743	0.062334	0.698721
H78	H	1.357928	0.007290	0.834505
H79	H	1.349191	-0.080548	0.734379
H80	H	1.445599	0.015948	0.734221
H81	H	1.225216	0.043474	0.718522
H82	H	1.321727	0.139867	0.718399
