data_functionalizedCrystal
_audit_creation_method	'MofGen! by Chris Wilmer'
_symmetry_space_group_name_H-M	'P1'
_symmetry_Int_Tables_number	1
_symmetry_cell_setting	triclinic
loop_
_symmetry_equiv_pos_as_xyz
  x,y,z
_cell_length_a	16.959455
_cell_length_b	16.959453
_cell_length_c	16.959447
_cell_angle_alpha	89.968936
_cell_angle_beta	89.979626
_cell_angle_gamma	90.017008
loop_
_atom_site_label
_atom_site_type_symbol
_atom_site_fract_x
_atom_site_fract_y
_atom_site_fract_z
Zn1	Zn	1.208384	-0.314729	-0.447032
Zn2	Zn	1.708384	0.185271	0.052968
Zn3	Zn	1.208307	-0.446921	-0.314852
Zn4	Zn	1.708307	0.053079	0.185148
Zn5	Zn	1.076213	-0.314754	-0.314856
Zn6	Zn	1.576213	0.185246	0.185144
Zn7	Zn	1.076178	-0.446862	-0.446977
Zn8	Zn	1.576178	0.053138	0.053023
O9	O	1.142270	-0.380816	-0.380929
O10	O	1.642270	0.119184	0.119071
O11	O	1.318985	-0.332279	-0.429520
O12	O	1.818985	0.167721	0.070480
O13	O	1.190767	-0.429424	-0.204242
O14	O	1.690767	0.070576	0.295758
O15	O	1.093793	-0.204140	-0.332414
O16	O	1.593793	0.295860	0.167586
O17	O	1.318928	-0.429400	-0.332408
O18	O	1.818928	0.070600	0.167592
O19	O	1.190899	-0.204121	-0.429524
O20	O	1.690899	0.295879	0.070476
O21	O	1.093718	-0.332321	-0.204244
O22	O	1.593718	0.167679	0.295756
O23	O	0.965597	-0.332264	-0.332360
O24	O	1.465597	0.167736	0.167640
O25	O	1.093733	-0.429299	-0.557595
O26	O	1.593733	0.070701	-0.057595
O27	O	0.965571	-0.429324	-0.429429
O28	O	1.465571	0.070676	0.070571
O29	O	1.190864	-0.332221	-0.557636
O30	O	1.690864	0.167779	-0.057636
O31	O	1.190733	-0.557524	-0.332354
O32	O	1.690733	-0.057524	0.167646
O33	O	1.093658	-0.557481	-0.429425
O34	O	1.593658	-0.057481	0.070575
C35	C	0.936904	-0.380791	-0.380889
C36	C	1.436904	0.119209	0.119111
C37	C	0.849048	-0.380799	-0.380891
C38	C	1.349048	0.119201	0.119109
C39	C	0.477532	-0.431337	-0.330337
C40	C	0.977532	0.068663	0.169663
C41	C	0.477612	-0.330361	-0.431617
C42	C	0.977612	0.169639	0.068383
C43	C	0.560158	-0.330348	-0.431598
C44	C	1.060158	0.169652	0.068402
C45	C	0.601395	-0.380831	-0.380948
C46	C	1.101395	0.119169	0.119052
C47	C	0.560085	-0.431328	-0.330318
C48	C	1.060085	0.068672	0.169682
C49	C	0.601474	-0.279859	-0.482234
C50	C	1.101474	0.220141	0.017766
C51	C	0.684025	-0.279844	-0.482217
C52	C	1.184025	0.220156	0.017783
C53	C	0.725263	-0.330324	-0.431563
C54	C	1.225263	0.169676	0.068437
C55	C	0.683948	-0.380822	-0.380929
C56	C	1.183948	0.119178	0.119071
C57	C	0.725185	-0.431305	-0.330280
C58	C	1.225185	0.068695	0.169720
C59	C	0.683872	-0.481799	-0.279642
C60	C	1.183872	0.018201	0.220358
C61	C	0.601323	-0.481807	-0.279663
C62	C	1.101323	0.018193	0.220337
C63	C	0.807811	-0.330315	-0.431541
C64	C	1.307811	0.169685	0.068459
C65	C	0.807738	-0.431295	-0.330260
C66	C	1.307738	0.068705	0.169740
C67	C	1.142205	-0.586183	-0.380900
C68	C	1.642205	-0.086183	0.119100
C69	C	1.142249	-0.674039	-0.380914
C70	C	1.642249	-0.174039	0.119086
C71	C	1.192898	-1.045447	-0.431589
C72	C	1.692898	-0.545447	0.068411
C73	C	1.091863	-1.045583	-0.330386
C74	C	1.591863	-0.545583	0.169614
C75	C	1.091834	-0.963037	-0.330368
C76	C	1.591834	-0.463037	0.169632
C77	C	1.142337	-0.921692	-0.380962
C78	C	1.642337	-0.421692	0.119038
C79	C	1.192869	-0.962893	-0.431575
C80	C	1.692869	-0.462893	0.068425
C81	C	1.041297	-0.921830	-0.279762
C82	C	1.541297	-0.421830	0.220238
C83	C	1.041265	-0.839279	-0.279743
C84	C	1.541265	-0.339279	0.220257
C85	C	1.091773	-0.797933	-0.330334
C86	C	1.591773	-0.297933	0.169666
C87	C	1.142307	-0.839139	-0.380947
C88	C	1.642307	-0.339139	0.119053
C89	C	1.192810	-0.797794	-0.431541
C90	C	1.692810	-0.297794	0.068459
C91	C	1.243349	-0.838999	-0.482152
C92	C	1.743349	-0.338999	0.017848
C93	C	1.243376	-0.921547	-0.482165
C94	C	1.743376	-0.421547	0.017835
C95	C	1.091746	-0.715384	-0.330320
C96	C	1.591746	-0.215384	0.169680
C97	C	1.192781	-0.715240	-0.431527
C98	C	1.692781	-0.215240	0.068473
C99	C	1.348439	-0.380843	-0.380970
C100	C	1.848439	0.119157	0.119030
C101	C	1.436295	-0.380854	-0.380987
C102	C	1.936295	0.119146	0.119013
C103	C	1.142303	-0.380751	-0.587097
C104	C	1.642303	0.119249	-0.087097
C105	C	1.142317	-0.380723	-0.674954
C106	C	1.642317	0.119277	-0.174954
C107	C	1.142358	-0.174648	-0.380976
C108	C	1.642358	0.325352	0.119024
C109	C	1.142395	-0.086792	-0.380995
C110	C	1.642395	0.413208	0.119005
C111	C	1.091840	-0.431184	-1.046411
C112	C	1.591840	0.068816	-0.546411
C113	C	1.192984	-0.330096	-1.046449
C114	C	1.692984	0.169904	-0.546449
C115	C	1.192963	-0.330113	-0.963903
C116	C	1.692963	0.169887	-0.463903
C117	C	1.142380	-0.380667	-0.922607
C118	C	1.642380	0.119333	-0.422607
C119	C	1.091819	-0.431204	-0.963858
C120	C	1.591819	0.068796	-0.463858
C121	C	1.243529	-0.279582	-0.922646
C122	C	1.743529	0.220418	-0.422646
C123	C	1.243511	-0.279597	-0.840095
C124	C	1.743511	0.220403	-0.340095
C125	C	1.192923	-0.330148	-0.798798
C126	C	1.692923	0.169852	-0.298798
C127	C	1.142359	-0.380686	-0.840054
C128	C	1.642359	0.119314	-0.340054
C129	C	1.091777	-0.431240	-0.798758
C130	C	1.591777	0.068760	-0.298758
C131	C	1.041208	-0.481776	-0.840012
C132	C	1.541208	0.018224	-0.340012
C133	C	1.041232	-0.481754	-0.922560
C134	C	1.541232	0.018246	-0.422560
C135	C	1.192900	-0.330169	-0.716250
C136	C	1.692900	0.169831	-0.216250
C137	C	1.091756	-0.431260	-0.716204
C138	C	1.591756	0.068740	-0.216204
C139	C	1.142283	-0.380825	-0.175563
C140	C	1.642283	0.119175	0.324437
C141	C	1.142422	-0.380630	-0.087707
C142	C	1.642422	0.119370	0.412293
H143	H	0.567893	-0.238763	-0.523475
H144	H	1.067893	0.261237	-0.023475
H145	H	1.284465	-0.805326	-0.523350
H146	H	1.784465	-0.305326	-0.023350
H147	H	1.284522	-0.955103	-0.523370
H148	H	1.784522	-0.455103	-0.023370
F149	F	0.557350	-0.535543	-0.225777
F150	F	1.057350	-0.035543	0.274223
H151	H	1.000179	-0.955499	-0.238574
H152	H	1.500179	-0.455499	0.261426
F153	F	1.297364	-0.225788	-0.966600
F154	F	1.797364	0.274212	-0.466600
H155	H	0.841307	-0.472402	-0.289012
H156	H	1.341307	0.027598	0.210988
H157	H	1.234170	-0.288941	-1.080077
H158	H	1.734170	0.211059	-0.580077
H159	H	0.717655	-0.238728	-0.523449
H160	H	1.217655	0.261272	-0.023449
F161	F	1.246685	-1.089299	-0.485447
F162	F	1.746685	-0.589299	0.014553
H163	H	0.443891	-0.472446	-0.289107
H164	H	0.943891	0.027554	0.210893
F165	F	1.038109	-1.089587	-0.276553
F166	F	1.538109	-0.589587	0.223447
F167	F	0.433723	-0.276644	-0.485527
F168	F	0.933723	0.223356	0.014473
F169	F	0.851776	-0.276584	-0.485433
F170	F	1.351776	0.223416	0.014567
F171	F	0.987476	-0.795433	-0.225881
F172	F	1.487476	-0.295433	0.274119
H173	H	1.233909	-0.681582	-0.472724
H174	H	1.733909	-0.181582	0.027276
H175	H	1.050594	-0.681839	-0.289118
H176	H	1.550594	-0.181839	0.210882
H177	H	1.284686	-0.238448	-0.806513
H178	H	1.784686	0.261552	-0.306513
H179	H	1.050666	-0.472326	-1.080004
H180	H	1.550666	0.027674	-0.580004
H181	H	1.234074	-0.289026	-0.682664
H182	H	1.734074	0.210974	-0.182664
F183	F	1.037914	-0.485064	-0.672261
F184	F	1.537914	0.014936	-0.172261
H185	H	1.000027	-0.522940	-0.806378
H186	H	1.500027	-0.022940	-0.306378
F187	F	0.987421	-0.535535	-0.966471
F188	F	1.487421	-0.035535	-0.466471
H189	H	0.717457	-0.522907	-0.238407
H190	H	1.217457	-0.022907	0.261593
