data_functionalizedCrystal
_audit_creation_method	'MofGen! by Chris Wilmer'
_symmetry_space_group_name_H-M	'P1'
_symmetry_Int_Tables_number	1
_symmetry_cell_setting	triclinic
loop_
_symmetry_equiv_pos_as_xyz
  x,y,z
_cell_length_a	13.262390
_cell_length_b	14.044190
_cell_length_c	11.804365
_cell_angle_alpha	102.923601
_cell_angle_beta	62.657606
_cell_angle_gamma	88.642439
loop_
_atom_site_label
_atom_site_type_symbol
_atom_site_fract_x
_atom_site_fract_y
_atom_site_fract_z
O1	O	1.520669	0.013854	-0.591549
O2	O	1.195743	0.047997	-0.486317
O3	O	1.353320	-0.106768	-0.537327
O4	O	1.363093	0.168619	-0.540539
O5	O	1.311832	-0.066063	-0.325841
O6	O	1.154255	0.088703	-0.274830
O7	O	1.479182	0.054559	-0.380063
Cu8	Cu	1.312930	0.075348	-0.308136
Cu9	Cu	1.361995	0.027209	-0.558243
O10	O	1.321605	0.209325	-0.329052
C11	C	1.133165	0.070180	-0.367024
C12	C	1.008509	0.075620	-0.326652
C13	C	0.747596	0.002186	-0.673992
C14	C	0.864717	-0.002931	-0.711926
C15	C	0.900671	0.016707	-0.615611
C16	C	0.819492	0.041462	-0.481355
C17	C	0.702360	0.046572	-0.443417
C18	C	0.855435	0.061092	-0.385036
C19	C	0.774256	0.085847	-0.250780
C20	C	0.657136	0.090957	-0.212848
C21	C	0.621182	0.071319	-0.309164
C22	C	0.972567	0.055983	-0.422974
C23	C	0.927331	0.100368	-0.192399
C24	C	0.810210	0.105485	-0.154464
C25	C	1.328305	-0.121479	-0.430197
C26	C	1.315563	-0.225956	-0.426060
C27	C	1.382633	-0.480184	-0.447828
C28	C	1.292300	-0.417256	-0.418564
C29	C	1.305247	-0.310807	-0.422736
C30	C	1.369687	-0.586644	-0.443657
C31	C	1.541761	0.032376	-0.499358
C32	C	1.666418	0.026934	-0.539739
C33	C	1.346621	0.224035	-0.436185
C34	C	1.359364	0.328510	-0.440330
N35	N	1.278429	0.109205	-0.132227
N36	N	1.396504	-0.006656	-0.734155
C37	C	1.479351	-0.087978	0.176680
C38	C	1.505450	-0.113595	0.043570
C39	C	1.448696	-0.057897	-0.000386
C40	C	1.365841	0.023422	0.088782
C41	C	1.339747	0.049046	0.221903
C42	C	1.309092	0.079127	0.044837
C43	C	1.226237	0.160446	0.134004
C44	C	1.200146	0.186065	0.267112
C45	C	1.256899	0.130368	0.311068
C46	C	1.335186	0.053503	-0.088285
C47	C	1.195582	0.190527	-0.043062
C48	C	1.169484	0.216144	0.090048
H49	H	0.591043	0.111096	-0.103529
H50	H	1.469685	-0.454114	-0.476009
C51	C	1.110020	0.274250	0.363914
C52	C	1.004640	0.259133	0.367769
C53	C	0.921587	0.340342	0.456937
H54	H	1.132641	0.332291	0.336190
H55	H	1.102529	0.281538	0.449523
H56	H	1.012132	0.251857	0.282178
H57	H	0.981983	0.201107	0.395507
H58	H	0.914096	0.347630	0.542546
H59	H	0.944220	0.398378	0.429205
H60	H	0.850076	0.330093	0.459573
H61	H	1.205239	-0.443327	-0.390375
H62	H	1.402647	-0.012707	-0.160874
C63	C	0.952670	-0.029774	-0.857746
C64	C	0.896118	-0.045854	-0.933976
C65	C	0.977105	-0.070574	-1.068317
H66	H	1.002358	-0.088127	-0.878480
H67	H	0.996271	0.022732	-0.876436
H68	H	0.852536	-0.098356	-0.915294
H69	H	0.846436	0.012487	-0.913282
H70	H	1.020706	-0.018068	-1.087007
H71	H	1.026788	-0.128925	-1.089038
H72	H	0.938745	-0.081478	-1.120055
H73	H	1.469949	-0.078759	-0.108771
C74	C	1.595390	-0.201946	-0.053016
C75	C	1.639484	-0.245257	0.013971
C76	C	1.722332	-0.326661	-0.074959
H77	H	1.655750	-0.180876	-0.121217
H78	H	1.561306	-0.248869	-0.090568
H79	H	1.673569	-0.198343	0.051502
H80	H	1.579152	-0.266349	0.082165
H81	H	1.688248	-0.373584	-0.112511
H82	H	1.782684	-0.305582	-0.143155
H83	H	1.752252	-0.356063	-0.029519
C84	C	1.079354	0.304322	0.186862
C85	C	0.973974	0.289204	0.190719
C86	C	0.890916	0.370405	0.279903
H87	H	1.101968	0.362370	0.159151
H88	H	1.071867	0.311601	0.272468
H89	H	0.981461	0.281937	0.105132
H90	H	0.951324	0.231172	0.218444
H91	H	0.883430	0.377683	0.365509
H92	H	0.913541	0.428447	0.252184
H93	H	0.819404	0.360155	0.282541
H94	H	1.038652	0.035829	-0.532286
H95	H	1.525559	-0.133316	0.212477
C96	C	1.134085	0.251164	-0.090746
C97	C	1.155263	0.348929	-0.067329
C98	C	1.098653	0.404810	-0.111263
H99	H	1.053921	0.249604	-0.044387
H100	H	1.161502	0.224318	-0.182809
H101	H	1.127841	0.375767	0.024717
H102	H	1.235416	0.350519	-0.113688
H103	H	1.126070	0.377964	-0.203326
H104	H	1.018492	0.403242	-0.064900
H105	H	1.113023	0.471147	-0.095392
H106	H	0.718310	-0.013809	-0.752397
C107	C	1.027880	0.011155	-0.657057
C108	C	1.091276	-0.014701	-0.795245
C109	C	1.208469	-0.019809	-0.833478
H110	H	1.049203	-0.037224	-0.624155
H111	H	1.043052	0.073622	-0.622170
H112	H	1.076112	-0.077160	-0.830117
H113	H	1.069989	0.033668	-0.828180
H114	H	1.223641	0.042657	-0.798591
H115	H	1.229780	-0.068188	-0.800568
H116	H	1.251497	-0.037344	-0.927240
C117	C	0.721894	0.132288	-0.008772
C118	C	0.611631	0.132535	0.003826
C119	C	0.530247	0.157208	0.138016
H120	H	0.728618	0.195993	0.033489
H121	H	0.734749	0.085135	0.031445
H122	H	0.598780	0.179685	-0.036373
H123	H	0.604870	0.068839	-0.038405
H124	H	0.543103	0.110055	0.178233
H125	H	0.536982	0.220912	0.180265
H126	H	0.455425	0.157370	0.146581
H127	H	1.235647	0.151222	0.419457
H128	H	0.525814	0.075487	-0.278284
H129	H	0.956603	0.116357	-0.113970
