data_functionalizedCrystal
_audit_creation_method	'MofGen! by Chris Wilmer'
_symmetry_space_group_name_H-M	'P1'
_symmetry_Int_Tables_number	1
_symmetry_cell_setting	triclinic
loop_
_symmetry_equiv_pos_as_xyz
  x,y,z
_cell_length_a	27.732048
_cell_length_b	14.185569
_cell_length_c	15.538191
_cell_angle_alpha	97.876313
_cell_angle_beta	115.042625
_cell_angle_gamma	103.048365
loop_
_atom_site_label
_atom_site_type_symbol
_atom_site_fract_x
_atom_site_fract_y
_atom_site_fract_z
O1	O	0.606913	-0.083295	-0.133914
O2	O	0.463182	-0.083326	-0.151008
O3	O	0.563027	-0.083299	-0.004921
O4	O	0.507068	-0.083321	-0.280000
O5	O	0.592521	0.083543	0.038229
O6	O	0.492676	0.083516	-0.107857
O7	O	0.636408	0.083547	-0.090763
Cu8	Cu	0.567235	0.098766	-0.095370
Cu9	Cu	0.532355	-0.098545	-0.146401
O10	O	0.536563	0.083521	-0.236850
C11	C	0.459983	0.000091	-0.129075
C12	C	0.406512	0.000080	-0.127998
N13	N	0.591772	0.237543	-0.059477
N14	N	0.507823	-0.237322	-0.182286
C15	C	0.054055	0.000117	-0.207513
C16	C	-0.146915	0.000126	-0.203503
O17	O	-0.190645	0.000164	-0.276213
N18	N	-0.151172	0.000132	-0.116883
C19	C	-0.105181	0.000141	-0.031256
O20	O	-0.113411	0.000156	0.042514
C21	C	0.095790	0.000139	-0.035265
C22	C	0.100041	0.000124	-0.121894
C23	C	0.058308	0.000103	-0.294134
C24	C	0.108547	0.000095	-0.295137
C25	C	0.154532	0.000102	-0.209518
C26	C	0.150279	0.000116	-0.122897
C27	C	0.141781	0.000156	0.050362
C28	C	0.192026	0.000158	0.049353
C29	C	0.196277	0.000142	-0.037276
C30	C	0.246504	0.000114	-0.038281
N31	N	0.250761	0.000109	-0.124902
C32	C	0.204775	0.000103	-0.210520
C33	C	-0.210695	0.000140	-0.029158
C34	C	-0.260938	0.000139	-0.028157
C35	C	-0.302669	0.000126	-0.200403
C36	C	-0.252426	0.000120	-0.201406
C37	C	-0.206438	0.000135	-0.115779
C38	C	0.310282	0.000086	-0.212620
C39	C	0.360526	0.000074	-0.213617
C40	C	0.402253	0.000092	-0.041369
C41	C	0.352012	0.000098	-0.040374
C42	C	0.306027	0.000099	-0.126006
O43	O	0.290257	0.000088	0.034393
O44	O	0.213020	0.000110	-0.284275
C45	C	0.003816	0.000125	-0.206510
C46	C	-0.000437	0.000139	-0.119888
C47	C	0.045549	0.000146	-0.034270
C48	C	-0.050680	0.000138	-0.118886
C49	C	-0.096665	0.000132	-0.204505
C50	C	-0.092409	0.000126	-0.291126
C51	C	-0.042170	0.000119	-0.292129
C52	C	0.041292	0.000151	0.052351
C53	C	-0.008949	0.000157	0.053347
C54	C	-0.054935	0.000151	-0.032272
C55	C	0.639606	0.000128	-0.112696
C56	C	0.693077	0.000132	-0.113775
C57	C	0.515961	0.000097	-0.293606
C58	C	0.498521	0.000089	-0.398436
C59	C	0.435742	0.605152	-0.287698
C60	C	0.454330	0.710179	-0.260516
C61	C	0.542748	0.710163	-0.131204
C62	C	0.524166	0.605134	-0.158372
C63	C	0.470663	0.552637	-0.236621
C64	C	0.559087	0.552619	-0.107294
C65	C	0.540507	0.447600	-0.134464
C66	C	0.487006	0.395096	-0.212711
C67	C	0.452083	0.447618	-0.263790
C68	C	0.612591	0.605119	-0.029051
C69	C	0.647512	0.552604	0.022027
C70	C	0.628931	0.447582	-0.005138
C71	C	0.575431	0.395078	-0.083385
C72	C	0.663855	0.395060	0.045941
C73	C	0.645275	0.290041	0.018771
C74	C	0.556851	0.290058	-0.110555
C75	C	0.671773	0.000137	-0.683692
C76	C	0.655375	0.000133	-0.782198
C77	C	0.563136	0.000113	-0.805989
C78	C	0.579526	0.000112	-0.707484
C79	C	0.633846	0.000125	-0.646343
C80	C	0.541598	0.000100	-0.670135
C81	C	0.557988	0.000105	-0.571638
C82	C	0.612306	0.000121	-0.510490
C83	C	0.650236	0.000130	-0.547846
C84	C	0.487280	0.000094	-0.731276
C85	C	0.449352	0.000082	-0.693927
C86	C	0.465741	0.000080	-0.595430
C87	C	0.520059	0.000096	-0.534282
C88	C	0.427811	0.000071	-0.558074
C89	C	0.444201	0.000076	-0.459577
C90	C	0.536449	0.000101	-0.435785
C91	C	0.583629	0.000122	0.051835
C92	C	0.601067	0.000123	0.156663
H93	H	0.363981	0.000061	-0.284163
H94	H	-0.038715	0.000108	-0.362670
N95	N	0.451860	0.000112	0.050975
H96	H	0.441547	0.000123	0.106010
H97	H	0.462680	-0.061737	0.038318
N98	N	0.600454	0.766787	-0.046815
H99	H	0.606927	0.841286	-0.037353
H100	H	0.603365	0.748435	0.015361
H101	H	0.112001	0.000082	-0.365679
N102	N	-0.013530	0.000182	0.146788
H103	H	-0.044382	-0.061659	0.135063
H104	H	0.023252	0.000228	0.200828
H105	H	0.383586	0.000070	-0.607867
H106	H	0.625649	0.000121	-0.430289
H107	H	0.405126	0.000075	-0.743720
N108	N	0.347419	0.000120	0.053055
H109	H	0.316563	-0.061719	0.041322
H110	H	0.384198	0.000160	0.107101
N111	N	0.403297	0.000068	-0.419283
H112	H	0.366399	0.000055	-0.472962
H113	H	0.397157	-0.061781	-0.394930
H114	H	-0.340119	0.000121	-0.270117
H115	H	0.580679	0.000097	-0.386004
N116	N	0.378032	0.548526	-0.372092
H117	H	0.381497	0.504945	-0.424934
H118	H	0.355241	0.505019	-0.347470
H119	H	-0.129861	0.000117	-0.360841
N120	N	0.260692	0.000110	-0.304972
H121	H	0.271018	0.000106	-0.359990
H122	H	0.227991	-0.061732	-0.324321
N123	N	0.705216	0.609223	0.106427
H124	H	0.734458	0.590935	0.091286
H125	H	0.711638	0.683704	0.115852
H126	H	0.425889	0.752931	-0.302118
H127	H	0.694466	0.000126	-0.498064
H128	H	0.471881	0.309582	-0.234835
N129	N	0.090889	0.000165	0.144704
H130	H	0.080564	0.000171	0.199723
H131	H	0.101707	-0.061688	0.132049
N132	N	0.721563	0.451686	0.130324
H133	H	0.728035	0.526184	0.139781
H134	H	0.724479	0.433341	0.192504
N135	N	0.730358	0.000134	-0.617741
H136	H	0.751900	0.000134	-0.656347
H137	H	0.750103	0.061986	-0.560356
N138	N	0.682940	0.233412	0.073891
H139	H	0.664050	0.189855	0.104185
H140	H	0.690349	0.189882	0.026783
N141	N	0.394372	0.390984	-0.348178
H142	H	0.375065	0.440186	-0.376414
H143	H	0.397883	0.347404	-0.400957
N144	N	0.696286	0.000150	-0.822482
H145	H	0.733183	0.000161	-0.768800
H146	H	0.680563	-0.061701	-0.878829
N147	N	0.499140	0.233430	-0.194945
H148	H	0.496186	0.251699	-0.257176
H149	H	0.492707	0.158951	-0.204315
H150	H	0.020869	0.000101	-0.363858
N151	N	0.504553	0.000097	-0.871950
H152	H	0.476306	-0.061757	-0.876014
H153	H	0.498222	0.061981	-0.843975
N154	N	-0.247843	0.000100	-0.294840
H155	H	-0.284603	0.000092	-0.348924
H156	H	-0.216972	0.061951	-0.283020
H157	H	0.627718	0.690632	-0.006935
H158	H	-0.264395	0.000136	0.042381
H159	H	-0.173253	0.000152	0.040573
H160	H	0.138331	0.000169	0.120904
H161	H	0.229469	0.000170	0.119082
H162	H	0.473938	0.000097	-0.811477
