data_functionalizedCrystal
_audit_creation_method	'MofGen! by Chris Wilmer'
_symmetry_space_group_name_H-M	'P1'
_symmetry_Int_Tables_number	1
_symmetry_cell_setting	triclinic
loop_
_symmetry_equiv_pos_as_xyz
  x,y,z
_cell_length_a	21.395362
_cell_length_b	16.959455
_cell_length_c	21.395355
_cell_angle_alpha	90.024818
_cell_angle_beta	89.982663
_cell_angle_gamma	89.973005
loop_
_atom_site_label
_atom_site_type_symbol
_atom_site_fract_x
_atom_site_fract_y
_atom_site_fract_z
Zn1	Zn	-0.249534	-1.208409	-0.354271
Zn2	Zn	0.250466	-0.708409	0.145729
Zn3	Zn	-0.354294	-1.208291	-0.249496
Zn4	Zn	0.145706	-0.708291	0.250504
Zn5	Zn	-0.249532	-1.076217	-0.249507
Zn6	Zn	0.250468	-0.576217	0.250493
Zn7	Zn	-0.354275	-1.076183	-0.354235
Zn8	Zn	0.145725	-0.576183	0.145765
O9	O	-0.301909	-1.142275	-0.301877
O10	O	0.198091	-0.642275	0.198123
O11	O	-0.263440	-1.319004	-0.340382
O12	O	0.236560	-0.819004	0.159618
O13	O	-0.340404	-1.190736	-0.161819
O14	O	0.159596	-0.690736	0.338181
O15	O	-0.161854	-1.093815	-0.263424
O16	O	0.338146	-0.593815	0.236576
O17	O	-0.340406	-1.318918	-0.263404
O18	O	0.159594	-0.818918	0.236596
O19	O	-0.161856	-1.190937	-0.340394
O20	O	0.338144	-0.690937	0.159606
O21	O	-0.263436	-1.093701	-0.161828
O22	O	0.236564	-0.593701	0.338172
O23	O	-0.263417	-0.965601	-0.263390
O24	O	0.236583	-0.465601	0.236610
O25	O	-0.340374	-1.093758	-0.441918
O26	O	0.159626	-0.593758	0.058082
O27	O	-0.340372	-0.965577	-0.340333
O28	O	0.159628	-0.465577	0.159667
O29	O	-0.263422	-1.190904	-0.441944
O30	O	0.236578	-0.690904	0.058056
O31	O	-0.441969	-1.190704	-0.263370
O32	O	0.058031	-0.690704	0.236630
O33	O	-0.441956	-1.093644	-0.340322
O34	O	0.058044	-0.593644	0.159678
C35	C	-0.301893	-0.936909	-0.301859
C36	C	0.198107	-0.436909	0.198141
C37	C	-0.301901	-0.849052	-0.301866
C38	C	0.198099	-0.349052	0.198134
C39	C	-0.341917	-0.807731	-0.261730
C40	C	0.158083	-0.307731	0.238270
C41	C	-0.261890	-0.807819	-0.342006
C42	C	0.238110	-0.307819	0.157994
C43	C	-0.261894	-0.725274	-0.342013
C44	C	0.238106	-0.225274	0.157987
C45	C	-0.301909	-0.683953	-0.301876
C46	C	0.198091	-0.183953	0.198124
C47	C	-0.341921	-0.725178	-0.261733
C48	C	0.158079	-0.225178	0.238267
C49	C	-0.221879	-0.684042	-0.382150
C50	C	0.278121	-0.184042	0.117850
C51	C	-0.221881	-0.601491	-0.382158
C52	C	0.278119	-0.101491	0.117842
C53	C	-0.261900	-0.560169	-0.342024
C54	C	0.238100	-0.060169	0.157976
C55	C	-0.301913	-0.601399	-0.301880
C56	C	0.198087	-0.101399	0.198120
C57	C	-0.341929	-0.560078	-0.261743
C58	C	0.158071	-0.060078	0.238257
C59	C	-0.381946	-0.601307	-0.221602
C60	C	0.118054	-0.101307	0.278398
C61	C	-0.381940	-0.683855	-0.221599
C62	C	0.118060	-0.183855	0.278401
C63	C	-0.261906	-0.477621	-0.342026
C64	C	0.238094	0.022379	0.157974
C65	C	-0.341932	-0.477525	-0.261747
C66	C	0.158068	0.022475	0.238253
C67	C	-0.464697	-1.142179	-0.301854
C68	C	0.035303	-0.642179	0.198146
C69	C	-0.534338	-1.142210	-0.301865
C70	C	-0.034338	-0.642210	0.198135
C71	C	-1.036082	-1.192945	-0.342036
C72	C	-0.536082	-0.692945	0.157964
C73	C	-0.970646	-1.192921	-0.342026
C74	C	-0.470646	-0.692921	0.157974
C75	C	-0.937976	-1.142383	-0.301917
C76	C	-0.437976	-0.642383	0.198083
C77	C	-0.970746	-1.091878	-0.261803
C78	C	-0.470746	-0.591878	0.238197
C79	C	-1.036181	-1.091908	-0.261809
C80	C	-0.536181	-0.591908	0.238191
C81	C	-0.834358	-1.071124	-0.296906
C82	C	-0.334358	-0.571124	0.203094
C83	C	-0.768925	-1.071092	-0.296904
C84	C	-0.268925	-0.571092	0.203096
C85	C	-0.736155	-1.142290	-0.301893
C86	C	-0.236155	-0.642290	0.198107
C87	C	-0.768826	-1.213521	-0.306897
C88	C	-0.268826	-0.713521	0.193103
C89	C	-0.834261	-1.213552	-0.306903
C90	C	-0.334261	-0.713552	0.193097
C91	C	-0.867024	-1.142345	-0.301905
C92	C	-0.367024	-0.642345	0.198095
C93	C	-0.632440	-1.192770	-0.341990
C94	C	-0.132440	-0.692770	0.158010
C95	C	-0.567004	-1.192748	-0.341976
C96	C	-0.067004	-0.692748	0.158024
C97	C	-0.567105	-1.091698	-0.261756
C98	C	-0.067105	-0.591698	0.238244
C99	C	-0.632540	-1.091727	-0.261767
C100	C	-0.132540	-0.591727	0.238233
C101	C	-0.665204	-1.142262	-0.301887
C102	C	-0.165204	-0.642262	0.198113
C103	C	-0.138486	-1.142393	-0.301914
C104	C	0.361514	-0.642393	0.198086
C105	C	-0.068844	-1.142443	-0.301930
C106	C	0.431156	-0.642443	0.198070
C107	C	-0.301896	-1.142341	-0.465301
C108	C	0.198104	-0.642341	0.034699
C109	C	-0.301891	-1.142369	-0.534942
C110	C	0.198109	-0.642369	-0.034942
C111	C	-0.301923	-0.348443	-0.301893
C112	C	0.198077	0.151557	0.198107
C113	C	-0.301921	-0.436300	-0.301890
C114	C	0.198079	0.063700	0.198110
C115	C	-0.261820	-1.192950	-0.567670
C116	C	0.238180	-0.692950	-0.067670
C117	C	-0.261793	-1.192949	-0.633105
C118	C	0.238207	-0.692949	-0.133105
C119	C	-0.301848	-1.142375	-0.665810
C120	C	0.198152	-0.642375	-0.165810
C121	C	-0.341922	-1.091783	-0.633075
C122	C	0.158078	-0.591783	-0.133075
C123	C	-0.341943	-1.091780	-0.567640
C124	C	0.158057	-0.591780	-0.067640
C125	C	-0.358263	-1.136100	-0.769477
C126	C	0.141737	-0.636100	-0.269477
C127	C	-0.358243	-1.136109	-0.834910
C128	C	0.141757	-0.636109	-0.334910
C129	C	-0.301782	-1.142380	-0.867631
C130	C	0.198218	-0.642380	-0.367631
C131	C	-0.245339	-1.148658	-0.834911
C132	C	0.254661	-0.648658	-0.334911
C133	C	-0.245361	-1.148655	-0.769477
C134	C	0.254639	-0.648655	-0.269477
C135	C	-0.301829	-1.142372	-0.736763
C136	C	0.198171	-0.642372	-0.236763
C137	C	-0.261678	-1.192963	-0.971312
C138	C	0.238322	-0.692963	-0.471312
C139	C	-0.261650	-1.192956	-1.036748
C140	C	0.238350	-0.692956	-0.536748
C141	C	-0.341785	-1.091794	-1.036716
C142	C	0.158215	-0.591794	-0.536716
C143	C	-0.341807	-1.091797	-0.971281
C144	C	0.158193	-0.591797	-0.471281
C145	C	-0.301755	-1.142385	-0.938583
C146	C	0.198245	-0.642385	-0.438583
C147	C	-0.301876	-1.142255	-0.139090
C148	C	0.198124	-0.642255	0.360910
C149	C	-0.301705	-1.142380	-0.069449
C150	C	0.198295	-0.642380	0.430551
H151	H	-0.374521	-0.443887	-0.229065
H152	H	0.125479	0.056113	0.270935
H153	H	-0.404229	-1.130782	-0.742841
H154	H	0.095771	-0.630782	-0.242841
O155	O	-0.420866	-0.723782	-0.182588
O156	O	0.079134	-0.223782	0.317412
C157	C	-0.500219	-0.714987	-0.102939
C158	C	-0.000219	-0.214987	0.397061
C159	C	-0.456179	-0.669668	-0.147097
C160	C	0.043821	-0.169668	0.352903
H161	H	-0.528772	-0.671256	-0.074224
H162	H	-0.028772	-0.171256	0.425776
H163	H	-0.533059	-0.753615	-0.131618
H164	H	-0.033059	-0.253615	0.368382
H165	H	-0.471394	-0.753649	-0.070252
H166	H	0.028606	-0.253649	0.429748
H167	H	-0.484953	-0.630963	-0.179793
H168	H	0.015047	-0.130963	0.320207
H169	H	-0.423338	-0.631090	-0.118379
H170	H	0.076662	-0.131090	0.381621
H171	H	-0.374499	-0.841303	-0.229049
H172	H	0.125501	-0.341303	0.270951
H173	H	-0.199363	-1.153766	-0.861551
H174	H	0.300637	-0.653766	-0.361551
O175	O	-0.222932	-0.847917	-0.380928
O176	O	0.277068	-0.347917	0.119072
C177	C	-0.116401	-0.873210	-0.411560
C178	C	0.383599	-0.373210	0.088440
C179	C	-0.160449	-0.827762	-0.367428
C180	C	0.339551	-0.327762	0.132572
H181	H	-0.065875	-0.856918	-0.400670
H182	H	0.434125	-0.356918	0.099330
H183	H	-0.123214	-0.939301	-0.404662
H184	H	0.376786	-0.439301	0.095338
H185	H	-0.127514	-0.857013	-0.462058
H186	H	0.372486	-0.357013	0.037942
H187	H	-0.149363	-0.843892	-0.316913
H188	H	0.350637	-0.343892	0.183087
H189	H	-0.153627	-0.761681	-0.374381
H190	H	0.346373	-0.261681	0.125619
H191	H	-0.229320	-0.444056	-0.374704
H192	H	0.270680	0.055944	0.125296
H193	H	-0.414524	-0.567653	-0.188921
H194	H	0.085476	-0.067653	0.311079
H195	H	-1.062673	-1.234100	-0.374700
H196	H	-0.562673	-0.734100	0.125300
H197	H	-0.943966	-1.234047	-0.374686
H198	H	-0.443966	-0.734047	0.125314
O199	O	-0.222812	-1.241999	-0.535944
O200	O	0.277188	-0.741999	-0.035944
C201	C	-0.116237	-1.280464	-0.515994
C202	C	0.383763	-0.780464	-0.015994
C203	C	-0.160347	-1.224858	-0.551947
C204	C	0.339653	-0.724858	-0.051947
H205	H	-0.065726	-1.266637	-0.528929
H206	H	0.434274	-0.766637	-0.028929
H207	H	-0.123068	-1.271782	-0.463594
H208	H	0.376932	-0.771782	0.036406
H209	H	-0.127271	-1.344188	-0.528876
H210	H	0.372729	-0.844188	-0.028876
H211	H	-0.149341	-1.161114	-0.539118
H212	H	0.350659	-0.661114	-0.039118
H213	H	-0.153508	-1.233609	-0.604338
H214	H	0.346492	-0.733609	-0.104338
H215	H	-0.189297	-0.567930	-0.414844
H216	H	0.310703	-0.067930	0.085156
O217	O	-0.664339	-1.042547	-0.222880
O218	O	-0.164339	-0.542547	0.277120
C219	C	-0.684427	-0.908122	-0.192343
C220	C	-0.184427	-0.408122	0.307657
C221	C	-0.648388	-0.963729	-0.236435
C222	C	-0.148388	-0.463729	0.263565
H223	H	-0.671534	-0.844388	-0.203278
H224	H	-0.171534	-0.344388	0.296722
H225	H	-0.736814	-0.916752	-0.199238
H226	H	-0.236814	-0.416752	0.300762
H227	H	-0.671579	-0.922070	-0.141834
H228	H	-0.171579	-0.422070	0.358166
H229	H	-0.661183	-0.949816	-0.286960
H230	H	-0.161183	-0.449816	0.213040
H231	H	-0.596010	-0.955089	-0.229486
H232	H	-0.096010	-0.455089	0.270514
H233	H	-0.860859	-1.271551	-0.310976
H234	H	-0.360859	-0.771551	0.189024
O235	O	-0.736977	-1.282683	-0.311627
O236	O	-0.236977	-0.782683	0.188373
C237	C	-0.663043	-1.371251	-0.263778
C238	C	-0.163043	-0.871251	0.236222
C239	C	-0.699087	-1.292918	-0.258334
C240	C	-0.199087	-0.792918	0.241666
H241	H	-0.632390	-1.379543	-0.220703
H242	H	-0.132390	-0.879543	0.279297
H243	H	-0.697607	-1.422196	-0.267315
H244	H	-0.197607	-0.922196	0.232685
H245	H	-0.632415	-1.369977	-0.307376
H246	H	-0.132415	-0.869977	0.192624
H247	H	-0.729716	-1.294115	-0.214738
H248	H	-0.229716	-0.794115	0.285262
H249	H	-0.664489	-1.242007	-0.254831
H250	H	-0.164489	-0.742007	0.245169
O251	O	-0.664077	-1.241927	-0.380985
O252	O	-0.164077	-0.741927	0.119015
C253	C	-0.657072	-1.342092	-0.460595
C254	C	-0.157072	-0.842092	0.039405
C255	C	-0.621168	-1.286484	-0.416450
C256	C	-0.121168	-0.786484	0.083550
H257	H	-0.622396	-1.378120	-0.489290
H258	H	-0.122396	-0.878120	0.010710
H259	H	-0.687683	-1.383513	-0.431907
H260	H	-0.187683	-0.883513	0.068093
H261	H	-0.687726	-1.305765	-0.493302
H262	H	-0.187726	-0.805765	0.006698
H263	H	-0.590481	-1.322747	-0.383734
H264	H	-0.090481	-0.822747	0.116266
H265	H	-0.590597	-1.245062	-0.445177
H266	H	-0.090597	-0.745062	0.054823
H267	H	-0.540328	-1.233877	-0.374633
H268	H	-0.040328	-0.733877	0.125367
O269	O	-0.380920	-1.042696	-0.664772
O270	O	0.119080	-0.542696	-0.164772
C271	C	-0.487491	-1.004281	-0.684809
C272	C	0.012509	-0.504281	-0.184809
C273	C	-0.443396	-1.059915	-0.648864
C274	C	0.056604	-0.559915	-0.148864
H275	H	-0.538012	-1.018194	-0.671971
H276	H	-0.038012	-0.518194	-0.171971
H277	H	-0.476538	-0.940539	-0.671913
H278	H	0.023462	-0.440539	-0.171913
H279	H	-0.480562	-1.012960	-0.737196
H280	H	0.019438	-0.512960	-0.237196
H281	H	-0.450300	-1.051307	-0.596469
H282	H	0.049700	-0.551307	-0.096469
H283	H	-0.454360	-1.123636	-0.661812
H284	H	0.045640	-0.623636	-0.161812
O285	O	-0.183045	-0.724097	-0.421224
O286	O	0.316955	-0.224097	0.078776
C287	C	-0.152816	-0.749484	-0.527855
C288	C	0.347184	-0.249484	-0.027855
C289	C	-0.196822	-0.704052	-0.483671
C290	C	0.303178	-0.204052	0.016329
H291	H	-0.163947	-0.733307	-0.578353
H292	H	0.336053	-0.233307	-0.078353
H293	H	-0.102266	-0.733269	-0.516995
H294	H	0.397734	-0.233269	-0.016995
H295	H	-0.159685	-0.815560	-0.520925
H296	H	0.340315	-0.315560	-0.020925
H297	H	-0.190009	-0.637966	-0.490577
H298	H	0.309991	-0.137966	0.009423
H299	H	-0.247355	-0.720333	-0.494542
H300	H	0.252645	-0.220333	0.005458
H301	H	-0.540505	-1.050552	-0.229096
H302	H	-0.040505	-0.550552	0.270904
O303	O	-0.380904	-1.042757	-0.535776
O304	O	0.119096	-0.542757	-0.035776
C305	C	-0.465546	-1.032071	-0.461927
C306	C	0.034454	-0.532071	0.038073
C307	C	-0.421451	-1.087675	-0.497965
C308	C	0.078549	-0.587675	0.002035
H309	H	-0.498348	-1.068365	-0.431358
H310	H	0.001652	-0.568365	0.068642
H311	H	-0.436822	-0.990775	-0.431233
H312	H	0.063178	-0.490775	0.068767
H313	H	-0.494142	-0.995901	-0.496550
H314	H	0.005858	-0.495901	0.003450
H315	H	-0.392846	-1.123896	-0.463387
H316	H	0.107154	-0.623896	0.036613
H317	H	-0.450211	-1.128918	-0.528669
H318	H	0.049789	-0.628918	-0.028669
O319	O	-0.380715	-1.042590	-1.068381
O320	O	0.119285	-0.542590	-0.568381
C321	C	-0.460224	-0.942286	-1.061444
C322	C	0.039776	-0.442286	-0.561444
C323	C	-0.416159	-0.997960	-1.025502
C324	C	0.083841	-0.497960	-0.525502
H325	H	-0.488901	-0.906200	-1.026792
H326	H	0.011099	-0.406200	-0.526792
H327	H	-0.431474	-0.900924	-1.092046
H328	H	0.068526	-0.400924	-0.592046
H329	H	-0.492951	-0.978565	-1.092110
H330	H	0.007049	-0.478565	-0.592110
H331	H	-0.383423	-0.961745	-0.994803
H332	H	0.116577	-0.461745	-0.494803
H333	H	-0.444948	-1.039325	-0.994940
H334	H	0.055052	-0.539325	-0.494940
H335	H	-0.742327	-1.013093	-0.292833
H336	H	-0.242327	-0.513093	0.207167
O337	O	-0.866090	-1.001883	-0.292085
O338	O	-0.366090	-0.501883	0.207915
C339	C	-0.859282	-0.860613	-0.282148
C340	C	-0.359282	-0.360613	0.217852
C341	C	-0.823269	-0.938964	-0.287617
C342	C	-0.323269	-0.438964	0.212383
H343	H	-0.824677	-0.809724	-0.278521
H344	H	-0.324677	-0.309724	0.221479
H345	H	-0.889886	-0.852201	-0.325244
H346	H	-0.389886	-0.352201	0.174756
H347	H	-0.889952	-0.861918	-0.238580
H348	H	-0.389952	-0.361918	0.261420
H349	H	-0.792565	-0.937715	-0.331160
H350	H	-0.292565	-0.437715	0.168840
H351	H	-0.792704	-0.947345	-0.244490
H352	H	-0.292704	-0.447345	0.255510
O353	O	-0.222709	-1.242120	-0.939640
O354	O	0.277291	-0.742120	-0.439640
C355	C	-0.143249	-1.342487	-0.946577
C356	C	0.356751	-0.842487	-0.446577
C357	C	-0.187339	-1.286845	-0.982519
C358	C	0.312661	-0.786845	-0.482519
H359	H	-0.114651	-1.378673	-0.981228
H360	H	0.385349	-0.878673	-0.481228
H361	H	-0.110455	-1.306257	-0.915945
H362	H	0.389545	-0.806257	-0.415945
H363	H	-0.172039	-1.383764	-0.915941
H364	H	0.327961	-0.883764	-0.415941
H365	H	-0.158601	-1.245557	-1.013189
H366	H	0.341399	-0.745557	-0.513189
H367	H	-0.220135	-1.323124	-1.013111
H368	H	0.279865	-0.823124	-0.513111
H369	H	-0.944143	-1.050730	-0.229144
H370	H	-0.444143	-0.550730	0.270856
H371	H	-1.062855	-1.050782	-0.229149
H372	H	-0.562855	-0.550782	0.270851
H373	H	-0.229159	-1.234137	-0.659757
H374	H	0.270841	-0.734137	-0.159757
H375	H	-0.199403	-1.153766	-0.742839
H376	H	0.300597	-0.653766	-0.242839
O377	O	-0.222651	-1.241978	-1.068567
O378	O	0.277349	-0.741978	-0.568567
C379	C	-0.138051	-1.252675	-1.142463
C380	C	0.361949	-0.752675	-0.642463
C381	C	-0.182171	-1.197070	-1.106457
C382	C	0.317829	-0.697070	-0.606457
H383	H	-0.105321	-1.216390	-1.173115
H384	H	0.394679	-0.716390	-0.673115
H385	H	-0.109386	-1.288812	-1.107875
H386	H	0.390614	-0.788812	-0.607875
H387	H	-0.166819	-1.294001	-1.173088
H388	H	0.333181	-0.794001	-0.673088
H389	H	-0.153452	-1.155696	-1.075831
H390	H	0.346548	-0.655696	-0.575831
H391	H	-0.210839	-1.160989	-1.141079
H392	H	0.289161	-0.660989	-0.641079
O393	O	-0.380648	-1.042584	-0.939456
O394	O	0.119352	-0.542584	-0.439456
C395	C	-0.389094	-0.935893	-0.865514
C396	C	0.110906	-0.435893	-0.365514
C397	C	-0.345036	-0.991569	-0.901527
C398	C	0.154964	-0.491569	-0.401527
H399	H	-0.360320	-0.894644	-0.834829
H400	H	0.139680	-0.394644	-0.334829
H401	H	-0.417709	-0.899686	-0.900097
H402	H	0.082291	-0.399686	-0.400097
H403	H	-0.421880	-0.972177	-0.834920
H404	H	0.078120	-0.472177	-0.334920
H405	H	-0.312212	-0.955346	-0.932122
H406	H	0.187788	-0.455346	-0.432122
H407	H	-0.316464	-1.027779	-0.866910
H408	H	0.183536	-0.527779	-0.366910
O409	O	-0.413121	-1.129969	-0.866594
O410	O	0.086879	-0.629969	-0.366594
C411	C	-0.525111	-1.117556	-0.859686
C412	C	-0.025111	-0.617556	-0.359686
C413	C	-0.463004	-1.124486	-0.823728
C414	C	0.036996	-0.624486	-0.323728
H415	H	-0.565458	-1.113137	-0.825044
H416	H	-0.065458	-0.613137	-0.325044
H417	H	-0.524164	-1.062555	-0.890287
H418	H	-0.024164	-0.562555	-0.390287
H419	H	-0.531691	-1.171907	-0.890353
H420	H	-0.031691	-0.671907	-0.390353
H421	H	-0.456385	-1.070176	-0.793027
H422	H	0.043615	-0.570176	-0.293027
H423	H	-0.463980	-1.179519	-0.793166
H424	H	0.036020	-0.679519	-0.293166
