data_functionalizedCrystal
_audit_creation_method	'MofGen! by Chris Wilmer'
_symmetry_space_group_name_H-M	'P1'
_symmetry_Int_Tables_number	1
_symmetry_cell_setting	triclinic
loop_
_symmetry_equiv_pos_as_xyz
  x,y,z
_cell_length_a	10.540514
_cell_length_b	10.654550
_cell_length_c	9.730223
_cell_angle_alpha	89.998859
_cell_angle_beta	90.003449
_cell_angle_gamma	95.499968
loop_
_atom_site_label
_atom_site_type_symbol
_atom_site_fract_x
_atom_site_fract_y
_atom_site_fract_z
O1	O	0.178307	-1.667875	0.114392
O2	O	0.195295	-1.302401	0.114369
O3	O	0.002089	-1.493493	0.114383
O4	O	0.371513	-1.476783	0.114379
O5	O	0.002074	-1.493502	-0.114197
O6	O	0.195279	-1.302410	-0.114210
O7	O	0.178292	-1.667884	-0.114187
Zn8	Zn	0.186783	-1.485149	-0.150491
Zn9	Zn	0.186803	-1.485137	0.150673
O10	O	0.371497	-1.476793	-0.114201
C11	C	0.194040	-1.255607	0.000077
C12	C	0.190308	-1.116163	0.000068
N13	N	0.186808	-1.485129	0.356209
C14	C	-0.045221	-1.492251	0.000097
C15	C	-0.186170	-1.488522	0.000107
C16	C	-0.256924	-1.625188	0.000112
C17	C	-0.403536	-1.621355	-0.000417
C18	C	-0.378487	-1.414202	-0.130185
C19	C	-0.231950	-1.419003	-0.130285
C20	C	-0.231533	-1.416971	0.129662
C21	C	-0.378511	-1.415652	0.131365
C22	C	0.418808	-1.478034	0.000088
C23	C	0.559756	-1.481763	0.000087
C24	C	0.179547	-1.714678	0.000108
C25	C	0.183278	-1.854122	0.000126
C26	C	0.304064	-1.036707	0.000087
C27	C	0.300550	-0.905685	0.000111
C28	C	0.069514	-0.933588	0.000103
C29	C	0.073029	-1.064607	0.000069
C30	C	0.437451	-1.020597	0.000097
C31	C	0.433937	-0.889575	0.000121
N32	N	0.186768	-1.485166	-0.356027
C33	C	0.264665	-1.561830	0.428153
C34	C	0.264649	-1.561846	0.572036
C35	C	0.108908	-1.408456	0.572019
C36	C	0.108932	-1.408435	0.428139
C37	C	0.354577	-1.650392	0.428164
C38	C	0.354561	-1.650408	0.572046
H39	H	-0.446215	-1.674497	0.092946
Cl40	Cl	-0.069985	-1.164492	0.000015
Cl41	Cl	0.011013	-1.312046	0.662454
H42	H	-0.025971	-0.891595	0.000125
Cl43	Cl	-0.468013	-1.703057	-0.145440
Cl44	Cl	0.509079	-1.602399	0.367913
Cl45	Cl	0.293265	-1.796480	0.359216
Cl46	Cl	0.011072	-1.311985	0.337700
H47	H	0.474242	-0.843918	-0.098564
Cl48	Cl	-0.157771	-1.264013	-0.138883
H49	H	0.450090	-1.610756	0.616698
H50	H	-0.184256	-1.316158	0.130902
H51	H	-0.228418	-1.680618	0.093533
Cl52	Cl	-0.210298	-1.709544	-0.143898
H53	H	-0.203748	-1.468355	-0.228033
H54	H	-0.402669	-1.313906	0.139619
H55	H	-0.400765	-1.311675	-0.134668
Cl56	Cl	0.511537	-0.825148	0.147819
H57	H	0.489612	-1.049945	-0.095569
H58	H	0.323533	-1.749499	0.611076
Cl59	Cl	-0.444231	-1.485769	-0.280436
Cl60	Cl	-0.182917	-1.487195	0.282163
Cl61	Cl	-0.441827	-1.491874	0.280170
Cl62	Cl	0.503034	-1.075668	0.152459
