data_functionalizedCrystal
_audit_creation_method	'MofGen! by Chris Wilmer'
_symmetry_space_group_name_H-M	'P1'
_symmetry_Int_Tables_number	1
_symmetry_cell_setting	triclinic
loop_
_symmetry_equiv_pos_as_xyz
  x,y,z
_cell_length_a	17.640112
_cell_length_b	21.295417
_cell_length_c	17.640968
_cell_angle_alpha	101.234808
_cell_angle_beta	87.860920
_cell_angle_gamma	101.256239
loop_
_atom_site_label
_atom_site_type_symbol
_atom_site_fract_x
_atom_site_fract_y
_atom_site_fract_z
Zn1	Zn	1.247775	-0.018088	0.195079
Zn2	Zn	1.221981	-0.147966	0.068087
Zn3	Zn	1.095099	-0.059037	0.093722
Zn4	Zn	1.120723	-0.139680	0.220669
O5	O	1.171395	-0.091193	0.144389
O6	O	1.350625	-0.021647	0.156795
O7	O	1.183631	-0.156775	-0.034787
O8	O	1.115423	0.034499	0.107185
O9	O	1.331674	-0.117068	0.063494
O10	O	1.227593	0.064584	0.181652
O11	O	1.090412	-0.091439	-0.015953
O12	O	0.992227	-0.083404	0.132000
O13	O	1.159096	-0.102945	0.323549
O14	O	1.011052	-0.142652	0.225268
O15	O	1.252440	-0.013612	0.304748
O16	O	1.208478	-0.234971	0.088309
O17	O	1.134084	-0.228883	0.200410
C18	C	0.974084	-0.116573	0.184193
C19	C	0.889678	-0.127442	0.201239
C20	C	0.563037	-0.008607	0.014897
C21	C	0.483727	-0.018831	0.030925
C22	C	0.503351	-0.080669	0.127878
C23	C	0.582665	-0.070447	0.111861
C24	C	0.612502	-0.034416	0.055369
C25	C	0.632129	-0.096257	0.152332
C26	C	0.711436	-0.086038	0.136313
C27	C	0.741279	-0.050011	0.079823
C28	C	0.691809	-0.024198	0.039350
C29	C	0.602290	-0.132291	0.208820
C30	C	0.651755	-0.158101	0.249291
C31	C	0.731064	-0.147879	0.233277
C32	C	0.760907	-0.111851	0.176786
C33	C	0.780534	-0.173691	0.273749
C34	C	0.859841	-0.163473	0.257730
C35	C	0.840214	-0.101633	0.160767
C36	C	1.171287	-0.254765	0.144367
C37	C	1.171315	-0.324729	0.144369
C38	C	1.210105	-0.360729	0.086039
C39	C	1.210144	-0.426464	0.086049
C40	C	1.171378	-0.456199	0.144384
C41	C	1.132586	-0.420189	0.202724
C42	C	1.132555	-0.354454	0.202717
N43	N	1.106115	-0.566893	0.163575
N44	N	1.106146	-0.629339	0.163577
C45	C	1.171472	-0.654254	0.144410
N46	N	1.236764	-0.614366	0.125225
N47	N	1.236731	-0.551916	0.125220
C48	C	1.171408	-0.527477	0.144398
C49	C	1.210308	-0.761531	0.086087
C50	C	1.210349	-0.827266	0.086102
C51	C	1.132784	-0.820991	0.202775
C52	C	1.132750	-0.755256	0.202763
C53	C	1.171510	-0.725531	0.144415
C54	C	1.369475	-0.065714	0.104431
C55	C	1.453885	-0.054856	0.087403
C56	C	1.211503	-0.052786	0.342475
C57	C	1.228595	-0.036419	0.426887
C58	C	1.171527	0.073024	0.144424
C59	C	1.171584	0.143004	0.144438
C60	C	1.131486	-0.129399	-0.052935
C61	C	1.114541	-0.145569	-0.137376
C62	C	1.041841	-0.215148	0.753447
C63	C	1.057917	-0.199759	0.832762
C64	C	1.155108	-0.106745	0.813176
C65	C	1.139037	-0.122124	0.733858
C66	C	1.082403	-0.176327	0.704000
C67	C	1.179600	-0.083303	0.684411
C68	C	1.163533	-0.098683	0.605099
C69	C	1.106903	-0.152885	0.575235
C70	C	1.066336	-0.191707	0.624689
C71	C	1.236237	-0.029103	0.714269
C72	C	1.276800	0.009719	0.664822
C73	C	1.260729	-0.005659	0.585510
C74	C	1.204100	-0.059860	0.555646
C75	C	1.301296	0.033164	0.536056
C76	C	1.285229	0.017784	0.456745
C77	C	1.188033	-0.075241	0.476334
H78	H	0.716105	0.005154	-0.006639
H79	H	1.347413	0.077292	0.560378
H80	H	0.537713	-0.140610	0.221860
O81	O	0.818319	-0.039968	0.064264
C82	C	0.848822	0.027562	0.078561
H83	H	0.800518	0.055450	0.074896
H84	H	0.894943	0.038993	0.033615
H85	H	0.875670	0.042849	0.138732
O86	O	0.591895	0.026383	-0.040030
C87	C	0.531235	0.046989	-0.072305
H88	H	0.474145	0.013409	-0.063567
H89	H	0.542025	0.045126	-0.136753
H90	H	0.528485	0.099095	-0.042696
H91	H	0.864510	-0.072281	0.114778
H92	H	0.756228	-0.203033	0.319739
H93	H	0.900117	-0.184489	0.290687
H94	H	1.141897	-0.119366	0.452027
O95	O	1.210017	-0.054034	0.842240
C96	C	1.176109	-0.010046	0.896867
H97	H	1.111459	-0.018487	0.885039
H98	H	1.203792	0.042115	0.892235
H99	H	1.185657	-0.018193	0.957499
O100	O	1.094810	-0.319437	0.259281
C101	C	1.037000	-0.296182	0.225888
H102	H	1.052175	-0.294041	0.162942
H103	H	1.033036	-0.245269	0.258864
H104	H	0.979042	-0.330430	0.228855
O105	O	1.248175	-0.862116	0.029449
C106	C	1.327206	-0.832985	0.030886
H107	H	1.334597	-0.779395	0.059796
H108	H	1.350226	-0.836923	-0.030766
H109	H	1.360702	-0.859079	0.064789
O110	O	1.247903	-0.732743	0.029318
C111	C	1.216035	-0.765646	-0.043048
H112	H	1.186548	-0.817465	-0.038751
H113	H	1.263986	-0.767401	-0.088119
H114	H	1.171803	-0.738681	-0.060790
O115	O	0.622646	-0.193059	0.304165
C116	C	0.542037	-0.196560	0.309612
H117	H	0.526201	-0.154147	0.287028
H118	H	0.523424	-0.193753	0.372573
H119	H	0.511305	-0.244609	0.273640
O120	O	1.247831	-0.331946	0.029329
C121	C	1.282062	-0.377826	-0.022162
H122	H	1.290982	-0.418305	0.008426
H123	H	1.340266	-0.352655	-0.042286
H124	H	1.242621	-0.399618	-0.074264
H125	H	1.318258	0.049397	0.416484
O126	O	1.247908	-0.461452	0.029468
C127	C	1.305690	-0.484755	0.062843
H128	H	1.322469	-0.452719	0.121712
H129	H	1.358586	-0.483284	0.023605
H130	H	1.282739	-0.537102	0.070199
O131	O	1.331764	0.062363	0.693961
C132	C	1.337264	0.067604	0.774564
H133	H	1.280838	0.041544	0.797222
H134	H	1.348557	0.121271	0.803677
H135	H	1.386844	0.044236	0.787970
H136	H	0.995706	-0.259273	0.729140
H137	H	1.101224	-0.845199	0.250275
O138	O	1.091358	-0.167921	0.498179
C139	C	1.105425	-0.230898	0.467739
H140	H	1.147774	-0.243803	0.506755
H141	H	1.131089	-0.231999	0.407328
H142	H	1.048788	-0.267818	0.464518
O143	O	1.095186	-0.720227	0.259480
C144	C	1.148298	-0.667065	0.299836
H145	H	1.209076	-0.678212	0.292515
H146	H	1.132611	-0.658532	0.363809
H147	H	1.146154	-0.621467	0.275820
O148	O	1.251851	-0.014274	0.791311
C149	C	1.276688	-0.066961	0.813861
H150	H	1.254421	-0.113760	0.770772
H151	H	1.253177	-0.072263	0.873835
H152	H	1.342549	-0.057466	0.815213
O153	O	0.435621	0.006142	-0.008451
C154	C	0.379752	-0.045065	-0.048292
H155	H	0.402656	-0.092494	-0.057935
H156	H	0.367011	-0.033652	-0.106495
H157	H	0.324413	-0.050457	-0.012665
H158	H	0.479046	-0.110007	0.173871
H159	H	1.024882	-0.231377	0.873021
O160	O	1.011420	-0.244439	0.595684
C161	C	1.031895	-0.301290	0.611718
H162	H	1.096974	-0.292424	0.621297
H163	H	1.014788	-0.343346	0.560864
H164	H	1.000479	-0.314071	0.665956
H165	H	1.101025	-0.444402	0.250222
