data_functionalizedCrystal
_audit_creation_method	'MofGen! by Chris Wilmer'
_symmetry_space_group_name_H-M	'P1'
_symmetry_Int_Tables_number	1
_symmetry_cell_setting	triclinic
loop_
_symmetry_equiv_pos_as_xyz
  x,y,z
_cell_length_a	27.440280
_cell_length_b	12.478028
_cell_length_c	12.478026
_cell_angle_alpha	60.562461
_cell_angle_beta	95.293143
_cell_angle_gamma	57.035325
loop_
_atom_site_label
_atom_site_type_symbol
_atom_site_fract_x
_atom_site_fract_y
_atom_site_fract_z
Zr1	Zr	0.403989	1.298403	-0.261679
O2	O	0.307598	1.545914	-0.456479
O3	O	0.441412	1.050906	-0.186048
O4	O	0.420628	1.298399	-0.433535
O5	O	0.335819	1.298419	-0.031873
O6	O	0.500830	1.298380	-0.433540
O7	O	0.328382	1.298421	-0.208992
O8	O	0.538010	0.855661	0.009169
O9	O	0.298640	1.741139	-0.474582
O10	O	0.507713	1.152686	-0.173023
O11	O	0.453409	1.152699	-0.040838
O12	O	0.428939	1.444090	-0.332222
O13	O	0.374635	1.444103	-0.200037
Zr14	Zr	0.543764	1.298370	0.020798
Zr15	Zr	0.531902	1.298373	-0.261687
Zr16	Zr	0.415850	1.298400	0.020805
Zr17	Zr	0.389702	1.609764	-0.290551
Zr18	Zr	0.558051	0.987009	0.049670
O19	O	0.506341	1.545867	-0.054833
O20	O	0.489475	1.545871	-0.456489
O21	O	0.324463	1.545910	-0.054823
O22	O	0.640155	1.050859	0.215597
O23	O	0.623289	1.050863	-0.186059
O24	O	0.458278	1.050902	0.215608
O25	O	0.611933	1.298354	-0.209009
O26	O	0.527125	1.298374	0.192654
O27	O	0.446922	1.298393	0.192658
O28	O	0.619371	1.298352	-0.031890
O29	O	0.400314	1.741115	-0.474588
O30	O	0.547438	0.855659	0.233706
O31	O	0.649113	0.855634	0.233700
O32	O	0.639684	0.855637	0.009163
O33	O	0.308068	1.741136	-0.250045
O34	O	0.409743	1.741112	-0.250050
O35	O	0.518814	1.152683	0.091340
O36	O	0.573118	1.152670	-0.040845
O37	O	0.494343	1.444074	-0.200044
O38	O	0.440039	1.444087	-0.067858
C39	C	0.491747	0.908921	-0.084326
C40	C	0.497812	0.776740	-0.072069
C41	C	0.313876	1.298425	-0.120432
C42	C	0.259573	1.298437	-0.120428
C43	C	-0.081219	1.298350	-0.218016
C44	C	-0.132236	1.298338	-0.218015
O45	O	-0.162092	1.298276	-0.300967
N46	N	-0.153657	1.298340	-0.120441
C47	C	-0.124053	1.298337	-0.022851
O48	O	-0.146957	1.298336	0.060144
C49	C	-0.073033	1.298337	-0.022846
C50	C	-0.051620	1.298352	-0.120436
C51	C	-0.059805	1.298363	-0.315597
C52	C	-0.008792	1.298378	-0.315598
C53	C	0.020807	1.298380	-0.218019
C54	C	-0.000607	1.298367	-0.120438
C55	C	-0.043427	1.298322	0.074749
C56	C	0.007596	1.298321	0.074746
C57	C	0.029010	1.298336	-0.022844
C58	C	0.080005	1.298384	-0.022860
N59	N	0.101426	1.298382	-0.120435
C60	C	0.071827	1.298380	-0.218014
C61	C	-0.231197	1.298335	-0.022868
C62	C	-0.282219	1.298347	-0.022878
C63	C	-0.290398	1.298344	-0.218041
C64	C	-0.239378	1.298344	-0.218036
C65	C	-0.209776	1.298332	-0.120442
C66	C	0.178958	1.298413	-0.218011
C67	C	0.229974	1.298435	-0.218008
C68	C	0.238151	1.298429	-0.022841
C69	C	0.187137	1.298416	-0.022848
C70	C	0.157543	1.298402	-0.120439
O71	O	0.109893	1.298439	0.060053
O72	O	0.094744	1.298359	-0.300984
C73	C	0.633877	1.298349	-0.120450
C74	C	0.688180	1.298336	-0.120453
C75	C	0.459039	1.298390	-0.473786
C76	C	0.454004	1.298391	-0.593707
C77	C	0.456006	1.687852	-0.156556
C78	C	0.449941	1.820033	-0.168813
C79	C	0.488714	1.298383	0.232904
C80	C	0.493749	1.298382	0.352826
C81	C	0.651747	0.908883	-0.084335
C82	C	0.712115	0.776689	-0.072082
C83	C	0.506584	0.908918	0.269019
C84	C	0.517684	0.776736	0.401197
C85	C	0.666585	0.908880	0.269009
C86	C	0.731988	0.776685	0.401185
C87	C	0.281168	1.687893	-0.509891
C88	C	0.215765	1.820088	-0.642067
C89	C	0.296005	1.687890	-0.156546
C90	C	0.235638	1.820084	-0.168800
C91	C	0.441169	1.687855	-0.509900
C92	C	0.430068	1.820037	-0.642079
C93	C	0.706323	0.714618	-0.135335
C94	C	0.763039	0.590425	-0.123849
C95	C	0.825545	0.528297	-0.049101
C96	C	0.831336	0.590381	0.014153
C97	C	0.774620	0.714580	0.002658
C98	C	0.791054	0.714598	0.394257
C99	C	0.852511	0.590404	0.518437
C100	C	0.854901	0.528291	0.649546
C101	C	0.795829	0.590390	0.656470
C102	C	0.734373	0.714590	0.532290
C103	C	0.156699	1.882190	-0.635140
C104	C	0.095240	2.006423	-0.759324
C105	C	0.092849	2.068543	-0.890433
C106	C	0.151922	2.006436	-0.897357
C107	C	0.213379	1.882214	-0.773175
C108	C	0.241428	1.882168	-0.105560
C109	C	0.184710	2.006395	-0.117080
C110	C	0.122203	2.068527	-0.191832
C111	C	0.116413	2.006438	-0.255080
C112	C	0.173130	1.882221	-0.243568
C113	C	0.473772	0.822228	0.453300
C114	C	0.484189	0.698046	0.577484
C115	C	0.538521	0.528374	0.649568
C116	C	0.582436	0.482882	0.597455
C117	C	0.572016	0.607062	0.473268
C118	C	0.375733	1.989690	-0.714125
C119	C	0.365300	2.113906	-0.838312
C120	C	0.409201	2.068467	-0.890456
C121	C	0.463542	1.898798	-0.818398
C122	C	0.473977	1.774585	-0.694208
H123	H	0.404317	0.958223	-0.261023
H124	H	-0.207100	1.298338	0.056602
F125	F	0.798383	0.524267	0.796018
H126	H	0.400695	2.169626	-0.991584
H127	H	0.543441	0.638538	0.020141
F128	F	-0.066206	1.298303	0.178619
H129	H	0.448426	0.735119	0.619897
H130	H	0.189437	2.056928	-0.065568
F131	F	0.788524	0.780689	0.254733
F132	F	0.549603	0.396226	0.781741
H133	H	0.518221	1.636448	-0.635560
H134	H	0.076026	2.169672	-0.201195
H135	H	0.168406	1.831675	-0.295063
H136	H	0.154868	1.298399	-0.297477
H137	H	0.900603	0.539855	0.512775
H138	H	0.247405	1.298452	-0.297482
H139	H	0.429527	0.960376	0.394623
F140	F	-0.091299	1.298358	-0.419461
H141	H	0.626674	0.344719	0.656166
F142	F	0.307948	1.816069	-0.025999
F143	F	0.049883	2.072577	-0.334630
H144	H	0.158633	1.831619	-0.528395
H145	H	0.321049	2.252049	-0.896968
F146	F	0.039100	1.298303	0.178626
H147	H	0.047147	2.056969	-0.753659
F148	F	0.164341	1.298426	0.081005
F149	F	0.543268	1.298358	-0.587086
H150	H	0.008641	1.298383	-0.395061
H151	H	0.607780	0.569997	0.430862
F152	F	0.329001	2.038087	-0.658655
H153	H	-0.221947	1.298355	-0.297501
F154	F	0.269659	1.298436	0.081004
H155	H	0.904947	0.427159	0.750651
H156	H	0.499283	1.861823	-0.860873
H157	H	-0.314506	1.298339	-0.297494
H158	H	0.416121	1.298391	-0.639675
F159	F	0.671514	0.780647	0.539686
H160	H	-0.299657	1.298361	0.056574
H161	H	0.149967	2.057030	-1.004121
F162	F	0.639804	0.780721	-0.214899
H163	H	0.758311	0.539891	-0.175360
F164	F	0.897866	0.524239	0.093706
F165	F	0.885902	0.396110	-0.036877
H166	H	0.779346	0.765103	0.054176
H167	H	0.261471	1.831651	-0.778831
H168	H	0.042802	2.169691	-0.991539
