data_functionalizedCrystal
_audit_creation_method	'MofGen! by Chris Wilmer'
_symmetry_space_group_name_H-M	'P1'
_symmetry_Int_Tables_number	1
_symmetry_cell_setting	triclinic
loop_
_symmetry_equiv_pos_as_xyz
  x,y,z
_cell_length_a	12.759395
_cell_length_b	16.120484
_cell_length_c	12.759387
_cell_angle_alpha	92.863831
_cell_angle_beta	89.982006
_cell_angle_gamma	92.925231
loop_
_atom_site_label
_atom_site_type_symbol
_atom_site_fract_x
_atom_site_fract_y
_atom_site_fract_z
Zn1	Zn	1.584969	-0.331868	-0.615139
Zn2	Zn	1.575921	-0.471304	-0.448352
Zn3	Zn	1.409269	-0.331909	-0.439482
Zn4	Zn	1.400321	-0.471241	-0.623990
O5	O	1.492620	-0.401580	-0.531741
O6	O	1.730789	-0.350374	-0.593023
O7	O	1.553773	-0.452856	-0.300157
O8	O	1.440107	-0.215238	-0.455367
O9	O	1.724142	-0.452816	-0.470485
O10	O	1.569194	-0.215208	-0.584422
O11	O	1.431334	-0.350443	-0.293640
O12	O	1.261062	-0.350382	-0.463950
O13	O	1.424856	-0.452710	-0.769835
O14	O	1.254487	-0.452749	-0.599507
O15	O	1.560517	-0.350313	-0.763332
O16	O	1.545096	-0.587961	-0.479067
O17	O	1.416083	-0.587915	-0.608108
C18	C	1.219654	-0.401564	-0.531727
C19	C	1.102876	-0.401577	-0.531747
C20	C	1.109768	-0.295076	-0.659574
C21	C	1.058352	-0.241835	-0.723497
C22	C	0.948629	-0.241850	-0.723511
C23	C	0.890320	-0.295109	-0.659593
C24	C	0.941735	-0.348350	-0.595670
C25	C	1.051461	-0.348331	-0.595666
C26	C	0.934844	-0.454845	-0.467840
C27	C	1.044566	-0.454836	-0.467830
C28	C	0.876535	-0.508105	-0.403922
C29	C	0.927950	-0.561350	-0.340003
C30	C	1.037679	-0.561334	-0.339993
C31	C	1.095982	-0.508076	-0.403907
C32	C	1.478665	-0.618188	-0.545534
C33	C	1.472792	-0.710853	-0.551469
C34	C	1.462074	-0.880514	-0.562328
C35	C	1.523355	-0.921806	-0.501172
C36	C	1.517391	-1.016211	-0.507213
C37	C	1.468036	-0.786100	-0.556287
C38	C	1.766652	-0.401598	-0.531756
C39	C	1.883429	-0.401605	-0.531762
C40	C	1.492698	-0.401500	-0.805769
C41	C	1.492731	-0.401466	-0.922544
C42	C	1.506658	-0.184127	-0.517918
C43	C	1.512640	-0.091462	-0.512027
C44	C	1.634064	-0.294781	-1.135212
C45	C	1.704681	-0.241484	-1.076966
C46	C	1.704650	-0.241512	-0.967246
C47	C	1.633996	-0.294844	-0.915770
C48	C	1.563379	-0.348141	-0.974017
C49	C	1.563416	-0.348106	-1.083739
C50	C	1.422114	-0.454762	-0.980791
C51	C	1.422139	-0.454732	-1.090511
C52	C	1.351460	-0.508095	-0.929316
C53	C	1.280837	-0.561389	-0.987562
C54	C	1.280870	-0.561358	-1.097289
C55	C	1.351522	-0.508029	-1.148757
C56	C	1.492607	-0.401600	-0.258775
C57	C	1.492793	-0.401400	-0.141986
H58	H	1.105840	-0.198471	-0.775535
Cl59	Cl	1.634092	-0.294727	-1.273146
Cl60	Cl	1.633971	-0.294888	-0.777836
Cl61	Cl	1.611267	-0.866925	-0.413325
H62	H	0.906768	-0.198492	-0.775555
H63	H	1.351550	-0.507993	-1.238096
Cl64	Cl	1.374160	-0.935396	-0.650161
H65	H	1.762208	-0.198064	-1.118889
Cl66	Cl	1.793431	-0.174515	-0.894018
H67	H	1.351444	-0.508117	-0.839976
H68	H	1.199110	-0.295055	-0.659564
H69	H	1.223321	-0.604811	-0.945643
H70	H	1.223369	-0.604762	-1.144707
H71	H	0.800979	-0.295110	-0.659601
H72	H	0.787193	-0.508111	-0.403935
H73	H	0.880466	-0.604706	-0.287962
H74	H	1.079535	-0.604686	-0.287935
H75	H	1.185325	-0.508054	-0.403899
