data_functionalizedCrystal
_audit_creation_method	'MofGen! by Chris Wilmer'
_symmetry_space_group_name_H-M	'P1'
_symmetry_Int_Tables_number	1
_symmetry_cell_setting	triclinic
loop_
_symmetry_equiv_pos_as_xyz
  x,y,z
_cell_length_a	16.109304
_cell_length_b	16.109301
_cell_length_c	14.586319
_cell_angle_alpha	89.998180
_cell_angle_beta	90.003149
_cell_angle_gamma	83.462111
loop_
_atom_site_label
_atom_site_type_symbol
_atom_site_fract_x
_atom_site_fract_y
_atom_site_fract_z
O1	O	0.106870	1.103128	0.076184
O2	O	0.440203	1.436461	0.409517
O3	O	0.773537	1.769794	0.742851
O4	O	0.120169	0.861066	0.076196
O5	O	0.453502	1.194399	0.409530
O6	O	0.786836	1.527733	0.742863
O7	O	-0.007511	0.988745	0.076190
O8	O	0.325822	1.322079	0.409524
O9	O	0.659155	1.655412	0.742857
O10	O	0.234550	0.975448	0.076190
O11	O	0.567884	1.308782	0.409523
O12	O	0.901217	1.642115	0.742857
O13	O	-0.007519	0.988744	-0.076290
O14	O	0.325814	1.322078	0.257043
O15	O	0.659147	1.655411	0.590376
O16	O	0.120161	0.861065	-0.076284
O17	O	0.453494	1.194398	0.257049
O18	O	0.786828	1.527732	0.590382
O19	O	0.106862	1.103127	-0.076297
O20	O	0.440195	1.436460	0.257037
O21	O	0.773529	1.769793	0.590370
Cu22	Cu	0.113511	0.982096	-0.090213
Cu23	Cu	0.446844	1.315429	0.243120
Cu24	Cu	0.780177	1.648762	0.576453
Cu25	Cu	0.113520	0.982097	0.090113
Cu26	Cu	0.446854	1.315430	0.423446
Cu27	Cu	0.780187	1.648764	0.756780
O28	O	0.234542	0.975447	-0.076291
O29	O	0.567876	1.308781	0.257043
O30	O	0.901209	1.642114	0.590376
C31	C	0.119626	0.830091	-0.000042
C32	C	0.452960	1.163424	0.333291
C33	C	0.786293	1.496757	0.666624
C34	C	0.118011	0.737795	-0.000038
C35	C	0.451344	1.071129	0.333296
C36	C	0.784678	1.404462	0.666629
C37	C	0.188494	0.428798	-0.000054
C38	C	0.521827	0.762131	0.333280
C39	C	0.855161	1.095464	0.666613
C40	C	0.190020	0.515518	-0.000048
C41	C	0.523353	0.848851	0.333285
C42	C	0.856686	1.182185	0.666618
C43	C	0.038531	0.535390	-0.000036
C44	C	0.371864	0.868723	0.333297
C45	C	0.705198	1.202056	0.666631
C46	C	0.037007	0.448671	-0.000035
C47	C	0.370340	0.782004	0.333299
C48	C	0.703673	1.115338	0.666632
C49	C	0.111991	0.395377	-0.000048
C50	C	0.445324	0.728710	0.333285
C51	C	0.778657	1.062044	0.666619
C52	C	0.115040	0.568816	-0.000044
C53	C	0.448374	0.902149	0.333289
C54	C	0.781707	1.235483	0.666623
C55	C	0.116694	0.662842	-0.000038
C56	C	0.450027	0.996175	0.333295
C57	C	0.783360	1.329509	0.666628
C58	C	0.110338	0.301345	-0.000052
C59	C	0.443671	0.634678	0.333281
C60	C	0.777004	0.968012	0.666614
C61	C	-0.038490	0.988206	-0.000048
C62	C	0.294843	1.321539	0.333285
C63	C	0.628177	1.654873	0.666619
C64	C	-0.130785	0.986590	-0.000042
C65	C	0.202548	1.319923	0.333292
C66	C	0.535881	1.653256	0.666625
C67	C	-0.343118	0.982857	0.083073
C68	C	-0.009785	1.316190	0.416406
C69	C	0.323548	1.649523	0.749739
C70	C	-0.429838	0.981331	0.083072
C71	C	-0.096505	1.314664	0.416405
C72	C	0.236828	1.647997	0.749738
C73	C	-0.429844	0.981334	-0.083171
C74	C	-0.096511	1.314667	0.250162
C75	C	0.236822	1.648000	0.583495
C76	C	-0.343125	0.982854	-0.083169
C77	C	-0.009792	1.316187	0.250164
C78	C	0.323542	1.649520	0.583497
C79	C	-0.299765	0.983620	-0.000045
C80	C	0.033569	1.316953	0.333288
C81	C	0.366902	1.650286	0.666622
C82	C	-0.473204	0.980573	-0.000047
C83	C	-0.139871	1.313907	0.333286
C84	C	0.193462	1.647240	0.666619
C85	C	-0.567230	0.978919	-0.000049
C86	C	-0.233897	1.312252	0.333284
C87	C	0.099437	1.645585	0.666618
C88	C	-0.205733	0.985273	-0.000043
C89	C	0.127601	1.318606	0.333290
C90	C	0.460934	1.651939	0.666624
C91	C	0.265521	0.975987	-0.000050
C92	C	0.598855	1.309320	0.333283
C93	C	0.932188	1.642654	0.666616
C94	C	0.357816	0.977603	-0.000051
C95	C	0.691150	1.310936	0.333283
C96	C	1.024483	1.644270	0.666616
C97	C	0.107405	1.134102	-0.000056
C98	C	0.440738	1.467436	0.333277
C99	C	0.774071	1.800769	0.666611
C100	C	0.109020	1.226398	-0.000055
C101	C	0.442353	1.559731	0.333279
C102	C	0.775687	1.893064	0.666612
N103	N	0.113521	0.982098	0.216945
N104	N	0.446854	1.315432	0.550278
N105	N	0.780188	1.648765	0.883611
N106	N	0.113504	0.982101	-0.217045
N107	N	0.446837	1.315434	0.116288
N108	N	0.780170	1.648768	0.449622
C109	C	0.057094	1.038744	0.451949
C110	C	0.390427	1.372077	0.785282
C111	C	0.723760	1.705411	1.118615
C112	C	0.057092	1.038746	0.547930
C113	C	0.390425	1.372080	0.881263
C114	C	0.723758	1.705413	1.214596
C115	C	0.169937	0.925453	0.547944
C116	C	0.503270	1.258786	0.881278
C117	C	0.836604	1.592119	1.214611
C118	C	0.169942	0.925455	0.451965
C119	C	0.503276	1.258788	0.785298
C120	C	0.836609	1.592122	1.118632
C121	C	0.113516	0.982100	0.403969
C122	C	0.446849	1.315433	0.737303
C123	C	0.780183	1.648766	1.070636
C124	C	0.113509	0.982100	0.595930
C125	C	0.446842	1.315433	0.929264
C126	C	0.780175	1.648766	1.262597
C127	C	0.113507	0.982102	0.699997
C128	C	0.446840	1.315435	1.033331
C129	C	0.780174	1.648769	1.366664
C130	C	0.113518	0.982099	0.299896
C131	C	0.446852	1.315432	0.633229
C132	C	0.780185	1.648765	0.966562
H133	H	0.249551	0.385408	-0.000064
H134	H	0.582884	0.718741	0.333269
H135	H	0.916218	1.052074	0.666603
H136	H	0.011149	1.084869	0.412873
H137	H	0.344482	1.418202	0.746206
H138	H	0.677816	1.751535	1.079540
Br139	Br	0.246511	0.848579	0.613084
Br140	Br	0.579844	1.181912	0.946418
Br141	Br	0.913178	1.515246	1.279751
Br142	Br	0.293850	0.560871	-0.000048
Br143	Br	0.627184	0.894205	0.333285
Br144	Br	0.960517	1.227538	0.666618
Br145	Br	-0.066827	0.403309	-0.000010
Br146	Br	0.266506	0.736643	0.333323
Br147	Br	0.599839	1.069976	0.666656
Br148	Br	-0.284274	0.983893	0.195884
Br149	Br	0.049059	1.317227	0.529217
Br150	Br	0.382392	1.650560	0.862550
H151	H	-0.022518	0.578792	-0.000027
H152	H	0.310815	0.912125	0.333306
H153	H	0.644149	1.245459	0.666640
Br154	Br	-0.019481	1.115628	0.613041
Br155	Br	0.313852	1.448962	0.946374
Br156	Br	0.647186	1.782295	1.279708
H157	H	-0.465133	0.980708	0.150754
H158	H	-0.131800	1.314041	0.484088
H159	H	0.201534	1.647374	0.817421
Br160	Br	-0.488695	0.980292	-0.195978
Br161	Br	-0.155362	1.313625	0.137356
Br162	Br	0.177972	1.646959	0.470689
H163	H	-0.307825	0.983470	-0.150858
H164	H	0.025509	1.316804	0.182476
H165	H	0.358842	1.650137	0.515809
Br166	Br	0.246527	0.848582	0.386843
Br167	Br	0.579860	1.181915	0.720176
Br168	Br	0.913194	1.515248	1.053509
