data_functionalizedCrystal
_audit_creation_method	'MofGen! by Chris Wilmer'
_symmetry_space_group_name_H-M	'P1'
_symmetry_Int_Tables_number	1
_symmetry_cell_setting	triclinic
loop_
_symmetry_equiv_pos_as_xyz
  x,y,z
_cell_length_a	13.635800
_cell_length_b	17.982968
_cell_length_c	11.102289
_cell_angle_alpha	85.767103
_cell_angle_beta	71.394293
_cell_angle_gamma	102.451960
loop_
_atom_site_label
_atom_site_type_symbol
_atom_site_fract_x
_atom_site_fract_y
_atom_site_fract_z
V1	V	-2.020686	-0.237548	0.177030
O2	O	-2.000870	-0.233027	-0.007282
O3	O	-2.009315	-0.235924	0.349842
O4	O	-1.993778	-0.341151	0.174844
O5	O	-2.016515	-0.127070	0.168927
V6	V	-2.261189	-0.224334	0.154920
O7	O	-2.154077	-0.266534	0.225528
O8	O	-2.352897	-0.195348	0.106422
O9	O	-2.160957	-0.225959	-0.017892
O10	O	-2.339703	-0.228856	0.339232
O11	O	-2.324059	-0.334812	0.163023
O12	O	-2.176494	-0.120731	0.157106
V13	V	-1.520686	-0.237548	0.177030
O14	O	-1.500870	-0.233027	-0.007282
O15	O	-1.509315	-0.235924	0.349842
O16	O	-1.493778	-0.341151	0.174844
O17	O	-1.516515	-0.127070	0.168927
V18	V	-1.761189	-0.224334	0.154920
O19	O	-1.654077	-0.266534	0.225528
O20	O	-1.852897	-0.195348	0.106422
O21	O	-1.660957	-0.225959	-0.017892
O22	O	-1.839703	-0.228856	0.339232
O23	O	-1.824059	-0.334812	0.163023
O24	O	-1.676494	-0.120731	0.157106
C25	C	-1.935023	-0.232176	0.391953
C26	C	-1.966351	-0.231538	0.533232
C27	C	-1.915204	-0.366404	0.168724
C28	C	-1.933930	-0.451100	0.168081
C29	C	-2.034160	-0.494771	0.174147
C30	C	-2.051749	-0.574352	0.173542
C31	C	-1.969108	-0.610260	0.166879
C32	C	-1.868869	-0.566583	0.160808
C33	C	-1.851279	-0.487003	0.161405
C34	C	-1.939804	-0.887520	0.158402
C35	C	-1.957403	-0.967106	0.157810
C36	C	-2.140274	-0.974869	0.170538
C37	C	-2.122684	-0.895289	0.171135
C38	C	-2.022445	-0.851618	0.165057
C39	C	-2.003374	-0.765327	0.165712
C40	C	-1.988181	-0.696550	0.166234
C41	C	-2.066920	-0.229704	-0.059996
C42	C	-2.025211	-0.230347	-0.201275
C43	C	-2.086739	-0.095475	0.163230
C44	C	-2.057632	-0.010778	0.163867
C45	C	-1.435023	-0.232176	0.391953
C46	C	-1.466351	-0.231538	0.533232
C47	C	-1.415204	-0.366404	0.168724
C48	C	-1.433930	-0.451100	0.168081
C49	C	-2.072511	-0.235039	0.606098
C50	C	-2.101943	-0.234446	0.738847
C51	C	-1.919043	-0.226848	0.725851
C52	C	-1.889614	-0.227447	0.593106
C53	C	-2.178107	-0.239423	0.613601
C54	C	-2.207539	-0.238830	0.746350
C55	C	-1.566920	-0.229704	-0.059996
C56	C	-1.525211	-0.230347	-0.201275
C57	C	-1.586739	-0.095475	0.163230
C58	C	-1.557632	-0.010778	0.163867
C59	C	-1.534164	-0.494757	0.174134
C60	C	-1.551769	-0.574337	0.173513
C61	C	-1.469141	-0.610259	0.166847
C62	C	-1.368897	-0.566595	0.160789
C63	C	-1.351291	-0.487016	0.161401
C64	C	-1.458029	0.025124	0.170518
C65	C	-1.430661	0.104706	0.171102
C66	C	-1.502901	0.148385	0.165043
C67	C	-1.602512	0.112478	0.158387
C68	C	-1.629875	0.032898	0.157794
C69	C	-1.572511	-0.235039	0.606098
C70	C	-1.601943	-0.234446	0.738847
C71	C	-1.419043	-0.226848	0.725851
C72	C	-1.389614	-0.227447	0.593106
C73	C	-1.678107	-0.239423	0.613601
C74	C	-1.707539	-0.238830	0.746350
H75	H	-2.101460	-0.465542	0.179581
F76	F	-1.276630	-0.223733	0.515564
F77	F	-1.337382	-0.222495	0.789584
F78	F	-1.688515	-0.169209	0.543671
H79	H	-1.725858	-0.294832	0.594659
H80	H	-1.765108	-0.295274	0.804500
H81	H	-1.740878	-0.186786	0.771058
H82	H	-2.133363	-0.609906	0.178474
H83	H	-1.856570	-0.223518	0.774616
H84	H	-1.399194	-0.010429	0.175452
F85	F	-1.776630	-0.223733	0.515564
F86	F	-1.735894	-0.005305	0.150731
F87	F	-1.324646	0.142906	0.178194
F88	F	-2.246958	-1.021353	0.177001
H89	H	-1.480612	0.213182	0.165542
H90	H	-2.189982	-0.866057	0.176566
H91	H	-1.301627	-0.595855	0.155362
H92	H	-1.890100	-0.996339	0.152381
H93	H	-1.858197	-0.851976	0.153498
H94	H	-1.801581	-0.595825	0.155376
H95	H	-2.225858	-0.294832	0.594659
F96	F	-2.188515	-0.169209	0.543671
F97	F	-1.744599	-0.440523	0.154939
H98	H	-2.265108	-0.295274	0.804500
H99	H	-1.601458	-0.465521	0.179566
F100	F	-2.251114	-0.170806	0.778652
F101	F	-1.658464	-0.620794	0.179969
F102	F	-1.487895	-0.694956	0.166200
F103	F	-1.679388	0.158973	0.151949
F104	F	-1.244608	-0.440561	0.154971
