data_functionalizedCrystal
_audit_creation_method	'MofGen! by Chris Wilmer'
_symmetry_space_group_name_H-M	'P1'
_symmetry_Int_Tables_number	1
_symmetry_cell_setting	triclinic
loop_
_symmetry_equiv_pos_as_xyz
  x,y,z
_cell_length_a	14.044220
_cell_length_b	10.654550
_cell_length_c	9.730223
_cell_angle_alpha	89.998384
_cell_angle_beta	89.995496
_cell_angle_gamma	91.163110
loop_
_atom_site_label
_atom_site_type_symbol
_atom_site_fract_x
_atom_site_fract_y
_atom_site_fract_z
O1	O	-1.259693	0.302980	-0.114145
O2	O	-0.983652	0.292047	-0.114180
O3	O	-1.128019	0.115412	-0.114152
O4	O	-1.115326	0.479615	-0.114174
O5	O	-1.128018	0.115417	0.114428
O6	O	-0.983650	0.292052	0.114400
O7	O	-1.259691	0.302985	0.114434
Zn8	Zn	-1.121671	0.297519	0.150709
Zn9	Zn	-1.121673	0.297513	-0.150455
O10	O	-1.115324	0.479620	0.114406
C11	C	-0.948305	0.287263	0.000105
C12	C	-0.842986	0.272988	0.000092
C13	C	-1.127086	0.068523	0.000138
C14	C	-1.124298	-0.071201	0.000136
C15	C	-1.295038	0.307769	0.000146
C16	C	-1.400358	0.322044	0.000150
C17	C	-0.650153	0.246889	0.000121
C18	C	-0.593185	0.348137	0.000121
C19	C	-0.485886	0.333615	0.000137
C20	C	-0.757461	0.261409	0.000105
C21	C	-1.116257	0.526509	0.000114
C22	C	-1.119045	0.666233	0.000106
N23	N	-1.121676	0.297523	0.356245
C24	C	-1.034044	0.737176	0.000108
C25	C	-1.036670	0.868461	0.000119
C26	C	-1.209305	0.857846	0.000130
C27	C	-1.206679	0.726564	0.000110
C28	C	-0.934374	0.743306	0.000108
C29	C	-0.937000	0.874591	0.000118
N30	N	-1.121675	0.297500	-0.355991
C31	C	-1.185618	0.219340	0.428184
C32	C	-1.185616	0.219324	0.572067
C33	C	-1.057725	0.375686	0.572060
C34	C	-1.057724	0.375694	0.428180
C35	C	-1.259458	0.129069	0.428189
C36	C	-1.259455	0.129054	0.572072
H37	H	-0.624998	0.445725	0.000109
H38	H	-0.895389	0.710047	-0.095554
H39	H	-0.618342	0.149310	0.000135
H40	H	-1.280654	0.906984	0.000109
C41	C	-1.237573	-0.003530	0.375418
C42	C	-1.149594	-0.024427	0.284412
C43	C	-1.127709	-0.157021	0.231640
C44	C	-1.193802	-0.268719	0.269874
C45	C	-1.281787	-0.247825	0.360884
C46	C	-1.303672	-0.115231	0.413656
H47	H	-1.100663	0.058262	0.256105
H48	H	-1.062576	-0.172487	0.164268
H49	H	-1.177601	-0.366873	0.230809
H50	H	-1.330718	-0.330513	0.389191
H51	H	-1.368804	-0.099765	0.481029
C52	C	-0.891482	0.690832	0.133411
C53	C	-0.857437	0.781127	0.247658
C54	C	-0.814541	0.728651	0.380958
C55	C	-0.805691	0.585881	0.400011
C56	C	-0.839736	0.495577	0.285760
C57	C	-0.882632	0.548053	0.152460
H58	H	-0.863988	0.886821	0.233557
H59	H	-0.789339	0.795500	0.465534
H60	H	-0.773937	0.547035	0.498688
H61	H	-0.833185	0.389883	0.299861
H62	H	-0.907835	0.481204	0.067884
C63	C	-0.896305	0.932194	-0.133200
C64	C	-0.942254	0.899044	-0.272580
C65	C	-0.901560	0.956647	-0.405896
C66	C	-0.814917	1.047400	-0.399831
C67	C	-0.768962	1.080554	-0.260446
C68	C	-0.809656	1.022952	-0.127130
H69	H	-1.006397	0.831859	-0.277075
H70	H	-0.935579	0.932103	-0.509079
H71	H	-0.784793	1.090041	-0.498520
H72	H	-0.704819	1.147739	-0.255951
H73	H	-0.775637	1.047495	-0.023948
C74	C	-1.352491	0.179745	0.367896
C75	C	-1.432211	0.223160	0.464470
C76	C	-1.525241	0.273844	0.404175
C77	C	-1.538551	0.281113	0.247306
C78	C	-1.458829	0.237696	0.150722
C79	C	-1.365799	0.187012	0.211017
H80	H	-1.422360	0.217781	0.580603
H81	H	-1.584257	0.305984	0.475674
H82	H	-1.607418	0.318632	0.202672
H83	H	-1.468680	0.243075	0.034589
H84	H	-1.306783	0.154872	0.139518
C85	C	-1.228346	0.002679	0.632345
C86	C	-1.296634	-0.073321	0.725842
C87	C	-1.265532	-0.199699	0.786110
C88	C	-1.166143	-0.250076	0.752880
C89	C	-1.097849	-0.174075	0.659379
C90	C	-1.128950	-0.047698	0.599111
H91	H	-1.370214	-0.036030	0.750445
H92	H	-1.316088	-0.255959	0.855326
H93	H	-1.143119	-0.343628	0.797494
H94	H	-1.024269	-0.211367	0.634776
H95	H	-1.078394	0.008562	0.529895
H96	H	-1.332349	0.157897	0.611131
H97	H	-1.005649	0.439345	0.369609
H98	H	-0.899451	0.912560	0.095782
H99	H	-1.275895	0.668806	0.000092
H100	H	-1.005657	0.439330	0.630645
