data_functionalizedCrystal
_audit_creation_method	'MofGen! by Chris Wilmer'
_symmetry_space_group_name_H-M	'P1'
_symmetry_Int_Tables_number	1
_symmetry_cell_setting	triclinic
loop_
_symmetry_equiv_pos_as_xyz
  x,y,z
_cell_length_a	10.654556
_cell_length_b	14.586319
_cell_length_c	10.654550
_cell_angle_alpha	89.999987
_cell_angle_beta	95.513766
_cell_angle_gamma	90.004235
loop_
_atom_site_label
_atom_site_type_symbol
_atom_site_fract_x
_atom_site_fract_y
_atom_site_fract_z
O1	O	1.667840	0.076205	-0.176428
O2	O	2.167840	0.576205	0.323572
O3	O	1.302362	0.076215	-0.193226
O4	O	1.802362	0.576215	0.306774
O5	O	1.493504	0.076204	-0.002088
O6	O	1.993504	0.576204	0.497912
O7	O	1.476698	0.076216	-0.367566
O8	O	1.976698	0.576216	0.132434
O9	O	1.493481	-0.076277	-0.002100
O10	O	1.993481	0.423723	0.497900
O11	O	1.302339	-0.076266	-0.193237
O12	O	1.802339	0.423734	0.306763
O13	O	1.667816	-0.076275	-0.176440
O14	O	2.167816	0.423725	0.323560
Cu15	Cu	1.485076	-0.090193	-0.184840
Cu16	Cu	1.985076	0.409807	0.315160
Cu17	Cu	1.485103	0.090133	-0.184826
Cu18	Cu	1.985103	0.590133	0.315174
O19	O	1.476675	-0.076265	-0.367578
O20	O	1.976675	0.423735	0.132422
C21	C	1.255553	-0.000024	-0.191997
C22	C	1.755553	0.499976	0.308003
C23	C	1.116110	-0.000021	-0.188302
C24	C	1.616110	0.499979	0.311698
C25	C	0.919577	0.083089	-0.183093
C26	C	1.419577	0.583089	0.316907
C27	C	1.050600	0.083095	-0.186557
C28	C	1.550600	0.583095	0.313443
C29	C	1.050593	-0.083148	-0.186569
C30	C	1.550593	0.416852	0.313431
C31	C	0.919574	-0.083153	-0.183096
C32	C	1.419574	0.416847	0.316904
N33	N	1.485065	-0.217025	-0.184848
N34	N	1.985065	0.282975	0.315152
C35	C	1.561918	-0.452031	-0.261711
C36	C	2.061918	0.047969	0.238289
C37	C	1.561931	-0.548012	-0.261703
C38	C	2.061931	-0.048012	0.238297
C39	C	1.408268	-0.548023	-0.107936
C40	C	1.908268	-0.048023	0.392064
C41	C	1.408262	-0.452043	-0.107939
C42	C	1.908262	0.047957	0.392061
C43	C	1.485085	-0.404050	-0.184834
C44	C	1.985085	0.095950	0.315166
C45	C	1.485104	-0.596011	-0.184822
C46	C	1.985104	-0.096011	0.315178
C47	C	1.485117	-0.700078	-0.184812
C48	C	1.985117	-0.200078	0.315188
C49	C	1.485074	-0.299976	-0.184842
C50	C	1.985074	0.200024	0.315158
C51	C	1.714626	-0.000034	-0.177669
C52	C	2.214626	0.499966	0.322331
C53	C	1.854069	-0.000032	-0.181364
C54	C	2.354069	0.499968	0.318636
C55	C	1.492258	-0.000036	0.044704
C56	C	1.992258	0.499964	0.544704
C57	C	1.488567	-0.000034	0.184147
C58	C	1.988567	0.499966	0.684147
N59	N	1.485124	0.216965	-0.184808
N60	N	1.985124	0.716965	0.315192
C61	C	1.477920	-0.000023	-0.414370
C62	C	1.977920	0.499977	0.085630
C63	C	1.481612	-0.000018	-0.553813
C64	C	1.981612	0.499982	-0.053813
C65	C	1.601108	-0.000037	0.263630
C66	C	2.101108	0.499963	0.763630
C67	C	1.597631	-0.000025	0.394651
C68	C	2.097631	0.499975	0.894651
C69	C	1.369063	-0.000013	0.366693
C70	C	1.869063	0.499987	0.866693
C71	C	1.372540	-0.000018	0.235675
C72	C	1.872540	0.499982	0.735675
H73	H	1.103931	0.150780	-0.187963
H74	H	1.603931	0.650780	0.312037
Cl75	Cl	1.223209	0.000007	0.431481
Cl76	Cl	1.723209	0.500007	0.931481
Cl77	Cl	1.739119	-0.000027	0.494568
Cl78	Cl	2.239119	0.499973	0.994568
H79	H	1.345695	-0.412976	-0.045329
H80	H	1.845695	0.087024	0.454671
Cl81	Cl	0.837214	-0.187656	-0.180919
Cl82	Cl	1.337214	0.312344	0.319081
Cl83	Cl	1.658527	-0.608327	-0.358352
Cl84	Cl	2.158527	-0.108327	0.141648
H85	H	1.345720	-0.587111	-0.045332
H86	H	1.845720	-0.087111	0.454668
Cl87	Cl	1.658505	-0.391699	-0.358369
Cl88	Cl	2.158505	0.108301	0.141631
H89	H	0.866247	0.150772	-0.181681
H90	H	1.366247	0.650772	0.318319
Cl91	Cl	1.132949	-0.187637	-0.188760
Cl92	Cl	1.632949	0.312363	0.311240
Cl93	Cl	1.746969	-0.000055	0.198857
Cl94	Cl	2.246969	0.499945	0.698857
Cl95	Cl	1.231048	-0.000006	0.135746
Cl96	Cl	1.731048	0.499994	0.635746
