data_functionalizedCrystal
_audit_creation_method	'MofGen! by Chris Wilmer'
_symmetry_space_group_name_H-M	'P1'
_symmetry_Int_Tables_number	1
_symmetry_cell_setting	triclinic
loop_
_symmetry_equiv_pos_as_xyz
  x,y,z
_cell_length_a	10.654541
_cell_length_b	9.730223
_cell_length_c	10.654543
_cell_angle_alpha	90.000897
_cell_angle_beta	95.516949
_cell_angle_gamma	89.998059
loop_
_atom_site_label
_atom_site_type_symbol
_atom_site_fract_x
_atom_site_fract_y
_atom_site_fract_z
O1	O	1.667837	-0.114236	-0.176384
O2	O	1.302358	-0.114247	-0.193194
O3	O	1.493505	-0.114244	-0.002049
O4	O	1.476690	-0.114239	-0.367529
O5	O	1.493493	0.114336	-0.002044
O6	O	1.302346	0.114333	-0.193189
O7	O	1.667825	0.114344	-0.176379
Zn8	Zn	1.485083	0.150630	-0.184783
Zn9	Zn	1.485100	-0.150534	-0.184790
O10	O	1.476678	0.114341	-0.367524
C11	C	1.255554	0.000041	-0.191958
C12	C	1.116110	0.000037	-0.188267
N13	N	1.485081	0.356167	-0.184778
N14	N	1.485112	-0.356070	-0.184786
C15	C	1.088134	0.000023	-0.416832
C16	C	1.008637	0.000011	-0.529375
C17	C	0.877619	0.000009	-0.525900
C18	C	0.826097	0.000025	-0.409869
C19	C	0.905594	0.000037	-0.297325
C20	C	1.036613	0.000034	-0.300813
C21	C	0.933570	0.000060	-0.068763
C22	C	1.064588	0.000052	-0.072235
C23	C	0.882047	0.000076	0.047269
C24	C	0.961545	0.000078	0.159815
C25	C	1.092570	0.000078	0.156334
C26	C	1.144085	0.000064	0.040308
C27	C	1.714629	0.000052	-0.177615
C28	C	1.854073	0.000048	-0.181306
C29	C	1.492266	0.000042	0.044751
C30	C	1.488578	0.000031	0.184195
C31	C	1.569751	0.428094	-0.100175
C32	C	1.569763	0.571977	-0.100175
C33	C	1.400433	0.571993	-0.269392
C34	C	1.400416	0.428113	-0.269385
C35	C	1.601121	0.000029	0.263682
C36	C	1.597648	0.000003	0.394703
C37	C	1.369077	-0.000012	0.366738
C38	C	1.372552	0.000003	0.235719
C39	C	1.477923	0.000036	0.585676
C40	C	1.481630	-0.000010	0.446235
H41	H	1.194814	-0.000006	-0.419673
H42	H	1.331502	0.630586	-0.338279
F43	F	1.724606	0.000056	0.208851
H44	H	1.331462	0.369546	-0.338279
H45	H	1.638689	0.369519	-0.031281
F46	F	1.717433	-0.000001	0.479294
H47	H	0.775365	0.000082	0.050091
H48	H	0.719414	0.000040	-0.407049
H49	H	1.280900	0.000001	0.170997
H50	H	0.812892	0.000009	-0.617543
F51	F	1.063480	-0.000005	-0.652859
F52	F	0.906703	0.000105	0.283290
F53	F	1.659877	0.648522	-0.010127
F54	F	1.245602	-0.000042	0.421585
H55	H	1.157290	0.000093	0.247982
H56	H	1.250765	0.000048	0.037463
