data_functionalizedCrystal
_audit_creation_method	'MofGen! by Chris Wilmer'
_symmetry_space_group_name_H-M	'P1'
_symmetry_Int_Tables_number	1
_symmetry_cell_setting	triclinic
loop_
_symmetry_equiv_pos_as_xyz
  x,y,z
_cell_length_a	13.033293
_cell_length_b	13.897447
_cell_length_c	13.033255
_cell_angle_alpha	97.154119
_cell_angle_beta	74.801189
_cell_angle_gamma	97.189355
loop_
_atom_site_label
_atom_site_type_symbol
_atom_site_fract_x
_atom_site_fract_y
_atom_site_fract_z
Zn1	Zn	1.700258	-0.279484	-0.807168
Zn2	Zn	2.033591	0.053849	-0.473835
Zn3	Zn	2.366925	0.387182	-0.140501
Zn4	Zn	1.677586	-0.422639	-0.629545
Zn5	Zn	2.010920	-0.089306	-0.296212
Zn6	Zn	2.344253	0.244028	0.037122
Zn7	Zn	1.500066	-0.279504	-0.606974
Zn8	Zn	1.833399	0.053830	-0.273641
Zn9	Zn	2.166733	0.387163	0.059693
Zn10	Zn	1.522581	-0.458892	-0.784516
Zn11	Zn	1.855915	-0.125559	-0.451183
Zn12	Zn	2.189248	0.207775	-0.117850
O13	O	1.600123	-0.360130	-0.707051
O14	O	1.933456	-0.026796	-0.373718
O15	O	2.266790	0.306537	-0.040384
O16	O	1.845902	-0.283294	-0.802532
O17	O	2.179235	0.050039	-0.469199
O18	O	2.512568	0.383372	-0.135865
O19	O	1.635127	-0.388488	-0.477913
O20	O	1.968461	-0.055155	-0.144580
O21	O	2.301794	0.278179	0.188754
O22	O	1.526687	-0.144516	-0.633564
O23	O	1.860021	0.188818	-0.300230
O24	O	2.193354	0.522151	0.033103
O25	O	1.829245	-0.388469	-0.672033
O26	O	2.162578	-0.055136	-0.338700
O27	O	2.495912	0.278197	-0.005366
O28	O	1.673767	-0.144502	-0.780645
O29	O	2.007101	0.188832	-0.447312
O30	O	2.340434	0.522165	-0.113979
O31	O	1.504704	-0.283327	-0.461330
O32	O	1.838037	0.050006	-0.127997
O33	O	2.171370	0.383340	0.205337
O34	O	1.354402	-0.318480	-0.611599
O35	O	1.687735	0.014854	-0.278266
O36	O	2.021068	0.348187	0.055067
O37	O	1.565061	-0.450257	-0.936159
O38	O	1.898395	-0.116924	-0.602826
O39	O	2.231728	0.216410	-0.269493
O40	O	1.370944	-0.450276	-0.742039
O41	O	1.704277	-0.116942	-0.408706
O42	O	2.037610	0.216391	-0.075373
O43	O	1.695599	-0.318447	-0.952801
O44	O	2.028933	0.014886	-0.619468
O45	O	2.362266	0.348219	-0.286135
O46	O	1.656959	-0.562433	-0.650069
O47	O	1.990293	-0.229100	-0.316735
O48	O	2.323626	0.104233	0.016598
O49	O	1.543078	-0.589068	-0.763926
O50	O	1.876411	-0.255735	-0.430592
O51	O	2.209745	0.077598	-0.097259
C52	C	1.324129	-0.388315	-0.671913
C53	C	1.657462	-0.054981	-0.338579
C54	C	1.990796	0.278352	-0.005246
C55	C	1.206061	-0.400398	-0.656906
C56	C	1.539394	-0.067065	-0.323572
C57	C	1.872728	0.266269	0.009761
C58	C	1.161676	-0.353848	-0.714883
C59	C	1.495010	-0.020514	-0.381550
C60	C	1.828343	0.312819	-0.048216
C61	C	1.039647	-0.366335	-0.699374
C62	C	1.372980	-0.033002	-0.366041
C63	C	1.706314	0.300331	-0.032707
C64	C	1.600033	-0.610750	-0.707015
C65	C	1.933367	-0.277417	-0.373682
C66	C	2.266700	0.055916	-0.040349
C67	C	1.600097	-0.717961	-0.707048
C68	C	1.933430	-0.384627	-0.373715
C69	C	2.266764	-0.051294	-0.040381
C70	C	1.600151	-0.805028	-0.707079
C71	C	1.933485	-0.471694	-0.373745
C72	C	2.266818	-0.138361	-0.040412
C73	C	1.600229	-0.914255	-0.707115
C74	C	1.933563	-0.580922	-0.373782
C75	C	2.266896	-0.247589	-0.040449
C76	C	1.877195	-0.331836	-0.742327
C77	C	2.210528	0.001498	-0.408994
C78	C	2.543861	0.334831	-0.075660
C79	C	1.995266	-0.319779	-0.757359
C80	C	2.328599	0.013555	-0.424026
C81	C	2.661933	0.346888	-0.090693
C82	C	1.635371	-0.388394	-0.984098
C83	C	1.968704	-0.055061	-0.650765
C84	C	2.302038	0.278273	-0.317431
C85	C	1.650391	-0.400438	-1.102159
C86	C	1.983725	-0.067105	-0.768826
C87	C	2.317058	0.266228	-0.435492
C88	C	1.600245	-0.108530	-0.707114
C89	C	1.933578	0.224803	-0.373780
C90	C	2.266911	0.558137	-0.040447
C91	C	1.600297	-0.001313	-0.707140
C92	C	1.933630	0.332020	-0.373807
C93	C	2.266963	0.665354	-0.040474
C94	C	1.608088	-0.366222	-1.268617
C95	C	1.941421	-0.032889	-0.935284
C96	C	2.274754	0.300444	-0.601950
C97	C	1.592554	-0.353772	-1.146594
C98	C	1.925888	-0.020439	-0.813260
C99	C	2.259221	0.312895	-0.479927
C100	C	1.565073	-0.331900	-0.431089
C101	C	1.898407	0.001434	-0.097756
C102	C	2.231740	0.334767	0.235577
C103	C	1.550259	-0.319563	-0.313055
C104	C	1.883592	0.013771	0.020278
C105	C	2.216925	0.347104	0.353611
H106	H	1.669092	-0.415392	-1.320908
H107	H	2.002425	-0.082058	-0.987575
H108	H	2.335758	0.251275	-0.654242
H109	H	1.153718	-0.449494	-0.595785
H110	H	1.487051	-0.116161	-0.262452
H111	H	1.820385	0.217173	0.070882
H112	H	1.531538	-0.304608	-1.094305
H113	H	1.864871	0.028726	-0.760971
H114	H	2.198204	0.362059	-0.427638
O115	O	1.723311	-0.458946	-1.164585
O116	O	2.056645	-0.125612	-0.831252
O117	O	2.389978	0.207721	-0.497918
C118	C	1.800042	-0.403519	-1.237508
C119	C	2.133375	-0.070186	-0.904175
C120	C	2.466708	0.263148	-0.570841
H121	H	1.802389	-0.323482	-1.204869
H122	H	2.135723	0.009851	-0.871536
H123	H	2.469056	0.343184	-0.538202
H124	H	1.881951	-0.430183	-1.249256
H125	H	2.215285	-0.096850	-0.915923
H126	H	2.548618	0.236483	-0.582590
H127	H	1.777832	-0.412071	-1.317364
H128	H	2.111166	-0.078738	-0.984031
H129	H	2.444499	0.254595	-0.650698
H130	H	0.987307	-0.415435	-0.638249
H131	H	1.320641	-0.082101	-0.304916
H132	H	1.653974	0.251232	0.028418
H133	H	1.489246	-0.270401	-1.260763
H134	H	1.822580	0.062932	-0.927430
H135	H	2.155913	0.396265	-0.594096
O136	O	1.224270	-0.295342	-0.787785
O137	O	1.557604	0.037992	-0.454452
O138	O	1.890937	0.371325	-0.121119
C139	C	1.332174	-0.295885	-0.787027
C140	C	1.665508	0.037449	-0.453694
C141	C	1.998841	0.370782	-0.120360
H142	H	1.342750	-0.365186	-0.753994
H143	H	1.676083	-0.031852	-0.420660
H144	H	2.009417	0.301481	-0.087327
H145	H	1.384555	-0.293277	-0.871933
H146	H	1.717888	0.040056	-0.538600
H147	H	2.051221	0.373389	-0.205266
H148	H	1.356473	-0.229631	-0.734544
H149	H	1.689806	0.103702	-0.401211
H150	H	2.023140	0.437036	-0.067878
O151	O	1.057756	-0.261344	-0.830401
O152	O	1.391089	0.071989	-0.497068
O153	O	1.724422	0.405323	-0.163734
C154	C	1.130662	-0.316819	-0.906984
C155	C	1.463995	0.016515	-0.573651
C156	C	1.797328	0.349848	-0.240318
H157	H	1.097968	-0.396860	-0.909170
H158	H	1.431302	-0.063526	-0.575836
H159	H	1.764635	0.269807	-0.242503
H160	H	1.142460	-0.290253	-0.988970
H161	H	1.475794	0.043080	-0.655636
H162	H	1.809127	0.376413	-0.322303
H163	H	1.210509	-0.308202	-0.884743
H164	H	1.543842	0.025132	-0.551410
H165	H	1.877175	0.358465	-0.218076
