data_functionalizedCrystal
_audit_creation_method	'MofGen! by Chris Wilmer'
_symmetry_space_group_name_H-M	'P1'
_symmetry_Int_Tables_number	1
_symmetry_cell_setting	triclinic
loop_
_symmetry_equiv_pos_as_xyz
  x,y,z
_cell_length_a	11.792241
_cell_length_b	10.723024
_cell_length_c	9.198806
_cell_angle_alpha	90.002012
_cell_angle_beta	89.996921
_cell_angle_gamma	95.669357
loop_
_atom_site_label
_atom_site_type_symbol
_atom_site_fract_x
_atom_site_fract_y
_atom_site_fract_z
O1	O	1.507283	-0.171036	-0.120860
O2	O	2.007283	0.328964	0.379140
O3	O	1.176980	-0.188663	-0.120869
O4	O	1.676980	0.311337	0.379131
O5	O	1.349750	0.001747	-0.120859
O6	O	1.849750	0.501747	0.379141
O7	O	1.334512	-0.361446	-0.120870
O8	O	1.834512	0.138554	0.379130
O9	O	1.349736	0.001747	0.120927
O10	O	1.849736	0.501747	0.620927
O11	O	1.176966	-0.188663	0.120917
O12	O	1.676966	0.311337	0.620917
O13	O	1.507269	-0.171035	0.120925
O14	O	2.007269	0.328965	0.620925
Cu15	Cu	1.342116	-0.179849	0.142998
Cu16	Cu	1.842116	0.320151	0.642998
Cu17	Cu	1.342133	-0.179850	-0.142941
Cu18	Cu	1.842133	0.320150	0.357059
O19	O	1.334499	-0.361445	0.120915
O20	O	1.834499	0.138555	0.620915
C21	C	1.134680	-0.187556	0.000023
C22	C	1.634680	0.312444	0.500023
C23	C	1.008659	-0.184242	0.000019
C24	C	1.508659	0.315758	0.500019
C25	C	1.549569	-0.172143	0.000031
C26	C	2.049569	0.327857	0.500031
C27	C	1.675590	-0.175457	0.000025
C28	C	2.175590	0.324543	0.500025
C29	C	1.348634	0.048244	0.000032
C30	C	1.848634	0.548244	0.500032
C31	C	1.345317	0.186789	0.000027
C32	C	1.845317	0.686789	0.500027
C33	C	1.906315	-0.181551	0.000025
C34	C	2.406315	0.318449	0.500025
C35	C	1.777923	-0.178165	0.000025
C36	C	2.277923	0.321835	0.500025
C37	C	1.335614	-0.407942	0.000021
C38	C	1.835614	0.092058	0.500021
C39	C	1.338932	-0.546488	0.000017
C40	C	1.838932	-0.046488	0.500017
N41	N	1.342113	-0.179848	0.344112
N42	N	1.842113	0.320152	0.844112
C43	C	1.441990	0.262028	0.000028
C44	C	1.941990	0.762028	0.500028
C45	C	1.438563	0.405222	0.000022
C46	C	1.938563	0.905222	0.500022
N47	N	1.342145	-0.179841	-0.344055
N48	N	1.842145	0.320159	0.155945
C49	C	1.414654	-0.099549	0.416313
C50	C	1.914654	0.400451	0.916313
C51	C	1.414672	-0.099544	0.583725
C52	C	1.914672	0.400456	1.083725
H53	H	1.527292	0.220431	0.000039
H54	H	2.027292	0.720431	0.500039
O55	O	1.537194	0.482519	-0.000043
O56	O	2.037194	0.982519	0.499957
C57	C	1.511815	0.608282	-0.000010
C58	C	2.011815	1.108282	0.499990
H59	H	1.422609	0.613752	-0.045785
H60	H	1.922609	1.113752	0.454215
H61	H	1.576536	0.666889	-0.070209
H62	H	2.076536	1.166889	0.429791
H63	H	1.515780	0.645902	0.115985
H64	H	2.015780	1.145902	0.615985
O65	O	1.240220	0.376349	-0.000242
O66	O	1.740220	0.876349	0.499758
C67	C	1.235952	0.300176	-0.125443
C68	C	1.735952	0.800176	0.374557
H69	H	1.293584	0.347519	-0.212965
H70	H	1.793584	0.847519	0.287035
H71	H	1.144646	0.286034	-0.167481
H72	H	1.644646	0.786034	0.332519
H73	H	1.266175	0.205382	-0.097125
H74	H	1.766175	0.705382	0.402875
O75	O	1.243477	0.236253	0.000213
O76	O	1.743477	0.736253	0.500213
C77	C	1.181368	0.195939	0.125453
C78	C	1.681368	0.695939	0.625453
H79	H	1.212885	0.105400	0.167211
H80	H	1.712885	0.605400	0.667211
H81	H	1.086981	0.178649	0.097286
H82	H	1.586981	0.678649	0.597286
H83	H	1.194013	0.271168	0.213134
H84	H	1.694013	0.771168	0.713134
H85	H	1.280040	-0.248597	0.593864
H86	H	1.780040	0.251403	1.093864
O87	O	1.267984	-0.261691	0.418375
O88	O	1.767984	0.238309	0.918375
C89	C	1.197311	-0.194500	0.506406
C90	C	1.697311	0.305500	1.006406
H91	H	1.241543	-0.097056	0.529048
H92	H	1.741543	0.402944	1.029048
H93	H	1.179977	-0.246400	0.613504
H94	H	1.679977	0.253600	1.113504
H95	H	1.113268	-0.185713	0.447854
H96	H	1.613268	0.314287	0.947854
H97	H	1.476782	-0.030801	0.645815
H98	H	1.976782	0.469199	1.145815
O99	O	1.488601	-0.017529	0.342020
O100	O	1.988601	0.482471	0.842020
C101	C	1.426974	0.059652	0.253976
C102	C	1.926974	0.559652	0.753976
H103	H	1.338605	0.010376	0.231374
H104	H	1.838605	0.510376	0.731374
H105	H	1.474069	0.079015	0.146859
H106	H	1.974069	0.579015	0.646859
H107	H	1.418417	0.151973	0.312497
H108	H	1.918417	0.651973	0.812497
