data_functionalizedCrystal
_audit_creation_method	'MofGen! by Chris Wilmer'
_symmetry_space_group_name_H-M	'P1'
_symmetry_Int_Tables_number	1
_symmetry_cell_setting	triclinic
loop_
_symmetry_equiv_pos_as_xyz
  x,y,z
_cell_length_a	14.809374
_cell_length_b	19.902436
_cell_length_c	14.809374
_cell_angle_alpha	67.420999
_cell_angle_beta	91.387536
_cell_angle_gamma	52.850345
loop_
_atom_site_label
_atom_site_type_symbol
_atom_site_fract_x
_atom_site_fract_y
_atom_site_fract_z
Zr1	Zr	0.992096	0.571618	-0.008571
O2	O	0.846142	0.711795	-0.154547
O3	O	1.036834	0.431442	0.036190
O4	O	1.058082	0.540390	-0.133285
O5	O	0.808139	0.627481	0.148599
O6	O	1.225269	0.515756	-0.116526
O7	O	0.824895	0.602847	0.014927
O8	O	1.187261	0.320868	0.186634
O9	O	0.846147	0.822368	-0.154560
O10	O	1.180690	0.470715	0.067773
O11	O	1.043416	0.507482	0.155024
O12	O	1.068432	0.635754	-0.044511
O13	O	0.931158	0.672522	0.042740
Zr14	Zr	1.232017	0.571618	0.231350
Zr15	Zr	1.258740	0.532331	0.018158
Zr16	Zr	0.965373	0.610906	0.204620
Zr17	Zr	0.992104	0.747971	-0.008591
Zr18	Zr	1.232009	0.395266	0.231370
O19	O	1.187279	0.711795	0.186589
O20	O	1.225275	0.655933	-0.116542
O21	O	0.808146	0.767657	0.148583
O22	O	1.377971	0.431442	0.377326
O23	O	1.415968	0.375580	0.074195
O24	O	0.998838	0.487304	0.339320
O25	O	1.415974	0.515756	0.074179
O26	O	1.166031	0.602847	0.356064
O27	O	0.998844	0.627481	0.339304
O28	O	1.399219	0.540390	0.207851
O29	O	1.058094	0.791140	-0.133314
O30	O	1.166019	0.352097	0.356092
O31	O	1.377966	0.320868	0.377339
O32	O	1.399207	0.289640	0.207880
O33	O	0.824906	0.853597	0.014899
O34	O	1.036852	0.822368	0.036145
O35	O	1.155681	0.507482	0.267289
O36	O	1.292955	0.470715	0.180039
O37	O	1.180697	0.635754	0.067755
O38	O	1.043423	0.672522	0.155005
C39	C	0.778526	0.620761	0.077955
C40	C	0.665328	0.637440	0.066608
C41	C	1.112046	0.351029	0.111414
C42	C	1.112043	0.276163	0.111423
C43	C	0.670549	0.563005	0.117249
C44	C	0.553555	0.580242	0.105522
C45	C	1.112061	0.004142	0.111378
C46	C	1.025809	0.055574	0.166760
C47	C	1.025417	0.133708	0.166457
C48	C	1.112052	0.139095	0.111401
C49	C	1.068240	0.163138	-0.002760
C50	C	1.067608	0.085449	-0.002486
C51	C	1.242275	-0.042212	0.169292
C52	C	1.241799	0.035276	0.171478
C53	C	1.112048	0.215365	0.111408
C54	C	1.112061	-0.072124	0.111363
C55	C	1.445587	0.522475	0.144824
C56	C	1.558785	0.505797	0.156171
C57	C	1.145483	0.522475	-0.155281
C58	C	1.156828	0.505797	-0.245786
C59	C	1.112067	0.792208	0.111364
C60	C	1.112070	0.867074	0.111356
C61	C	1.106198	0.580232	-0.341837
C62	C	1.117922	0.562995	-0.435380
C63	C	1.078630	0.620761	0.378059
C64	C	1.067285	0.637440	0.468565
C65	C	1.445577	0.301886	0.144849
C66	C	1.558771	0.210341	0.156205
C67	C	1.078620	0.400172	0.378084
C68	C	1.067272	0.341985	0.468598
C69	C	1.412151	0.351029	0.411519
C70	C	1.514000	0.276163	0.513380
C71	C	0.811962	0.792208	-0.188740
C72	C	0.710113	0.867074	-0.290601
C73	C	0.778536	0.841351	0.077930
C74	C	0.665342	0.932896	0.066574
C75	C	1.145493	0.743065	-0.155306
C76	C	1.156841	0.801252	-0.245820
C77	C	1.553328	0.167349	0.102927
C78	C	1.659678	0.081340	0.113576
C79	C	1.771469	0.038322	0.177509
C80	C	1.776909	0.081321	0.230788
C81	C	1.670561	0.167332	0.220132
C82	C	1.120543	0.314661	0.569715
C83	C	1.109874	0.260000	0.654770
C84	C	1.045942	0.232657	0.638707
C85	C	0.992664	0.259987	0.537580
C86	C	1.003326	0.314653	0.452526
C87	C	1.633496	0.221811	0.515672
C88	C	1.729206	0.151473	0.611375
C89	C	1.705416	0.135484	0.704783
C90	C	1.585907	0.189844	0.702488
C91	C	1.490201	0.260185	0.606787
C92	C	0.590617	0.921435	-0.292894
C93	C	0.494908	0.991794	-0.388596
C94	C	0.518697	1.007787	-0.482005
C95	C	0.638206	0.953422	-0.479709
C96	C	0.733912	0.883069	-0.384008
C97	C	0.670786	0.975894	0.119843
C98	C	0.564439	1.061917	0.109170
C99	C	0.452649	1.104938	0.045234
C100	C	0.447208	1.061936	-0.008041
C101	C	0.553554	0.975917	0.002627
C102	C	1.220783	0.828576	-0.229724
C103	C	1.231469	0.883238	-0.314760
C104	C	1.178205	0.910581	-0.415893
C105	C	1.114262	0.883250	-0.431988
C106	C	1.103584	0.828584	-0.346951
H107	H	0.761632	0.486519	0.169291
H108	H	1.015259	0.713933	-0.544423
H109	H	1.283535	0.905486	-0.301636
O110	O	0.432915	0.681568	0.036576
H111	H	0.359955	0.679205	0.038175
O112	O	1.560266	0.172584	0.803244
H113	H	1.461093	0.222196	0.785585
O114	O	1.361313	0.318800	0.604318
H115	H	1.314291	0.306211	0.562901
H116	H	0.571224	0.908420	-0.216846
H117	H	0.397607	1.036049	-0.390445
O118	O	0.570330	1.108274	0.166652
H119	H	0.477608	1.175321	0.148493
H120	H	1.054178	0.656718	-0.354816
O121	O	0.415466	1.083680	-0.585224
H122	H	0.328378	1.118788	-0.571115
H123	H	0.973766	0.238141	-0.048391
H124	H	0.657562	0.966453	-0.555774
H125	H	1.655224	0.046341	0.070188
H126	H	0.649867	0.429304	0.208217
O127	O	1.186855	0.461662	-0.418148
H128	H	1.125615	0.460591	-0.461022
H129	H	0.574245	0.713928	0.014572
O130	O	0.337944	1.197695	0.033765
H131	H	0.360521	1.220348	0.081570
H132	H	1.186909	0.955094	-0.485127
H133	H	1.783358	0.078204	0.782702
O134	O	1.659177	0.239055	0.414934
H135	H	1.711925	0.170801	0.411469
H136	H	1.070898	0.905521	-0.514341
O137	O	0.898999	0.101936	0.113216
H138	H	0.838861	0.138028	0.152922
H139	H	1.037269	0.188145	0.707972
H140	H	1.675009	0.202327	0.263525
O141	O	0.862799	0.824425	-0.381540
H142	H	0.863250	0.847364	-0.462575
O143	O	1.063144	0.110403	0.277304
H144	H	1.081829	0.043098	0.331610
O145	O	1.148334	0.168219	-0.060665
H146	H	1.115447	0.185290	-0.141072
O147	O	1.063226	-0.017803	0.277850
H148	H	1.143693	-0.091717	0.294780
H149	H	0.929123	0.207261	0.125700
H150	H	1.208857	0.429309	-0.232806
O151	O	1.189502	0.344146	0.587052
H152	H	1.146673	0.389362	0.624552
O153	O	1.292728	-0.122489	0.279793
H154	H	1.384569	-0.153985	0.318945
H155	H	1.867944	0.046283	0.282841
O156	O	1.886172	-0.054449	0.189003
H157	H	1.882004	-0.112525	0.221589
H158	H	0.356173	1.096976	-0.060097
O159	O	1.167368	0.230512	0.763836
H160	H	1.128676	0.296701	0.768697
O161	O	0.941162	0.135418	-0.062731
H162	H	0.939458	0.080539	-0.063139
H163	H	0.761801	0.940875	0.171912
O164	O	0.547675	0.929536	-0.054820
H165	H	0.452069	0.973903	-0.101058
O166	O	1.432761	0.213746	0.033957
H167	H	1.446864	0.169398	-0.001306
O168	O	0.923749	0.230462	0.520264
H169	H	0.925318	0.187840	0.596404
O170	O	1.146522	0.041787	-0.061212
H171	H	1.184959	0.076210	-0.089688
H172	H	1.274671	0.014931	0.255642
H173	H	1.264158	0.806323	-0.147383
H174	H	1.051511	0.806344	-0.360072
H175	H	1.310248	0.033954	0.136554
H176	H	1.306653	-0.078155	0.129331
H177	H	0.959949	0.336891	0.370196
O178	O	1.858097	0.092837	0.613840
H179	H	1.858549	0.115764	0.532806
