data_functionalizedCrystal
_audit_creation_method	'MofGen! by Chris Wilmer'
_symmetry_space_group_name_H-M	'P1'
_symmetry_Int_Tables_number	1
_symmetry_cell_setting	triclinic
loop_
_symmetry_equiv_pos_as_xyz
  x,y,z
_cell_length_a	17.038272
_cell_length_b	16.109301
_cell_length_c	16.098524
_cell_angle_alpha	86.937360
_cell_angle_beta	92.876406
_cell_angle_gamma	92.713482
loop_
_atom_site_label
_atom_site_type_symbol
_atom_site_fract_x
_atom_site_fract_y
_atom_site_fract_z
O1	O	0.103613	-1.113806	0.069205
O2	O	0.116120	-0.872633	0.069218
O3	O	-0.003949	-0.991785	0.069205
O4	O	0.223682	-0.994653	0.069218
O5	O	-0.010192	-0.984695	-0.069309
O6	O	0.109877	-0.865543	-0.069296
O7	O	0.097370	-1.106716	-0.069309
Zn8	Zn	0.102633	-0.985003	-0.091294
Zn9	Zn	0.110858	-0.994345	0.091203
O10	O	0.217439	-0.987563	-0.069296
C11	C	0.112492	-0.838077	-0.000037
C12	C	0.110974	-0.745674	-0.000032
C13	C	-0.036199	-0.985633	-0.000052
C14	C	-0.122991	-0.977854	-0.000051
N15	N	0.097018	-0.978634	-0.215844
C16	C	-0.173106	-1.049275	-0.000056
C17	C	-0.254657	-1.041961	-0.000048
C18	C	-0.286090	-0.963225	-0.000040
C19	C	-0.235969	-0.891800	-0.000033
C20	C	-0.154420	-0.899115	-0.000035
C21	C	-0.531847	-0.937384	-0.000028
C22	C	-0.613403	-0.930074	-0.000028
C23	C	-0.632085	-1.080236	-0.000041
C24	C	-0.550534	-1.087544	-0.000048
C25	C	-0.500419	-1.016118	-0.000036
C26	C	-0.369448	-0.955748	-0.000035
C27	C	-0.417063	-1.023597	-0.000036
C28	C	0.249689	-0.993715	-0.000037
C29	C	0.336482	-1.001495	-0.000033
C30	C	0.100998	-1.141272	-0.000052
C31	C	0.102517	-1.233675	-0.000051
C32	C	0.178688	-0.528210	-0.000038
C33	C	0.177255	-0.441388	-0.000043
C34	C	0.034797	-0.451145	-0.000048
C35	C	0.036231	-0.537965	-0.000049
C36	C	0.108179	-0.576496	-0.000039
C37	C	0.105312	-0.402853	-0.000044
C38	C	0.103757	-0.308716	-0.000050
C39	C	0.109734	-0.670638	-0.000035
C40	C	0.142490	-1.030183	-0.259425
C41	C	0.138558	-1.025738	-0.346615
C42	C	0.089157	-0.969740	-0.390221
C43	C	0.043680	-0.918189	-0.346633
C44	C	0.047609	-0.922638	-0.259445
C45	C	0.074918	-0.953619	-0.653472
C46	C	0.070994	-0.949171	-0.740666
C47	C	0.165871	-1.056722	-0.740641
C48	C	0.169799	-1.061163	-0.653452
C49	C	0.124319	-1.009616	-0.609872
C50	C	0.085138	-0.965193	-0.479342
C51	C	0.128334	-1.014167	-0.520752
N52	N	0.116466	-1.000720	0.215753
H53	H	-0.147520	-1.113389	-0.000067
H54	H	0.210024	-1.106765	-0.617954
H55	H	-0.672896	-1.138386	-0.000049
Cl56	Cl	0.023043	-0.894791	-0.534168
H57	H	-0.113616	-0.840956	-0.000031
H58	H	-0.021189	-0.577281	-0.000052
Cl59	Cl	0.223040	-1.121523	-0.795432
Cl60	Cl	0.269136	-0.576645	-0.000032
H61	H	0.030767	-0.903566	-0.776167
Cl62	Cl	-0.275485	-0.792818	-0.000014
Cl63	Cl	-0.317656	-1.131751	-0.000056
H64	H	0.175584	-1.067716	-0.382095
Cl65	Cl	0.204598	-1.100584	-0.204615
Cl66	Cl	0.190433	-1.084565	-0.465932
H67	H	-0.491053	-0.879224	-0.000018
H68	H	-0.023781	-0.419762	-0.000061
H69	H	-0.524947	-1.151658	-0.000054
H70	H	0.037884	-0.911645	-0.617999
Cl71	Cl	-0.652918	-0.831085	-0.000024
Cl72	Cl	-0.018425	-0.847792	-0.401452
Cl73	Cl	-0.377545	-1.122575	-0.000041
H74	H	0.234670	-0.402077	-0.000044
H75	H	-0.395050	-0.891641	-0.000031
H76	H	0.010581	-0.880661	-0.223962
