data_functionalizedCrystal
_audit_creation_method	'MofGen! by Chris Wilmer'
_symmetry_space_group_name_H-M	'P1'
_symmetry_Int_Tables_number	1
_symmetry_cell_setting	triclinic
loop_
_symmetry_equiv_pos_as_xyz
  x,y,z
_cell_length_a	16.704494
_cell_length_b	16.704379
_cell_length_c	20.016444
_cell_angle_alpha	57.657605
_cell_angle_beta	90.001999
_cell_angle_gamma	54.473503
loop_
_atom_site_label
_atom_site_type_symbol
_atom_site_fract_x
_atom_site_fract_y
_atom_site_fract_z
Zr1	Zr	0.748791	0.864465	-0.107975
O2	O	0.598510	1.061766	-0.233047
O3	O	0.804564	0.677663	-0.061563
O4	O	0.790561	0.859834	-0.212582
O5	O	0.612521	0.879587	0.027918
O6	O	0.931016	0.844239	-0.205618
O7	O	0.612513	0.879594	-0.082028
O8	O	0.956064	0.518368	0.064527
O9	O	0.587473	1.205458	-0.242228
O10	O	0.921447	0.738971	-0.046322
O11	O	0.816633	0.750603	0.030532
O12	O	0.800146	0.965087	-0.147273
O13	O	0.695332	0.976719	-0.070418
Zr14	Zr	0.972813	0.839581	0.078482
Zr15	Zr	0.972801	0.839593	-0.096869
Zr16	Zr	0.748804	0.864453	0.067376
Zr17	Zr	0.731187	1.093638	-0.122616
Zr18	Zr	0.990417	0.610408	0.093124
O19	O	0.917041	1.026383	0.032070
O20	O	0.917023	1.026401	-0.217256
O21	O	0.598528	1.061748	0.016279
O22	O	1.123094	0.642280	0.203555
O23	O	1.123076	0.642298	-0.045772
O24	O	0.804582	0.677645	0.187764
O25	O	1.109083	0.824459	-0.057410
O26	O	0.931044	0.844212	0.183089
O27	O	0.790589	0.859807	0.176126
O28	O	1.109091	0.824452	0.052536
O29	O	0.765530	1.185688	-0.233400
O30	O	0.956074	0.518358	0.203908
O31	O	1.134132	0.498588	0.212735
O32	O	1.134122	0.498598	0.073355
O33	O	0.587483	1.205448	-0.102847
O34	O	0.765540	1.185678	-0.094019
O35	O	0.921458	0.738959	0.117780
O36	O	1.026272	0.727327	0.040926
O37	O	0.904972	0.953443	-0.060025
O38	O	0.800158	0.965075	0.016830
C39	C	0.882822	0.565363	0.003568
C40	C	0.890295	0.468073	0.009784
C41	C	0.984258	0.243207	0.087997
C42	C	0.977261	0.334600	0.082166
C43	C	0.810323	0.510153	-0.056773
C44	C	0.817320	0.418760	-0.050941
C45	C	0.904290	0.285287	0.021447
C46	C	0.911282	0.193893	0.027280
C47	C	0.744349	0.369446	-0.111661
C48	C	0.737352	0.460839	-0.117492
C49	C	0.580601	0.883134	-0.028638
C50	C	0.485503	0.893693	-0.033352
C51	C	0.433451	0.677448	0.063202
C52	C	0.344102	0.687363	0.058774
C53	C	0.217453	0.923437	-0.046629
C54	C	0.306803	0.913522	-0.042202
C55	C	0.414801	0.790523	0.012715
C56	C	0.504152	0.780610	0.017136
C57	C	0.377502	1.016682	-0.088262
C58	C	0.288152	1.026597	-0.092689
C59	C	1.141004	0.820912	-0.000855
C60	C	1.236102	0.810353	0.003860
C61	C	0.860786	0.852038	-0.234084
C62	C	0.860781	0.852044	-0.308525
C63	C	0.838783	1.138683	-0.033061
C64	C	0.831309	1.235973	-0.039276
C65	C	0.797483	0.970058	-0.532474
C66	C	0.797492	0.970051	-0.602415
C67	C	0.924129	0.733979	-0.497009
C68	C	0.924126	0.733986	-0.427070
C69	C	0.860796	0.852030	-0.444807
C70	C	0.860808	0.852017	-0.584686
C71	C	0.860818	0.852009	-0.660518
C72	C	0.860787	0.852037	-0.368970
C73	C	0.860818	0.852008	0.204591
C74	C	0.860824	0.852003	0.279032
C75	C	1.163024	0.534252	0.017460
C76	C	1.265595	0.426403	0.028390
C77	C	0.882838	0.565348	0.222906
C78	C	0.890317	0.468053	0.303563
C79	C	1.163039	0.534237	0.236797
C80	C	1.265616	0.426383	0.322169
C81	C	0.558565	1.169810	-0.266290
C82	C	0.455988	1.277663	-0.351661
C83	C	0.558581	1.169794	-0.046952
C84	C	0.456010	1.277643	-0.057883
C85	C	0.838767	1.138698	-0.252398
C86	C	0.831288	1.235993	-0.333055
C87	C	1.259045	0.381835	-0.012027
C88	C	1.355412	0.280513	-0.001774
C89	C	1.458328	0.223756	0.048901
C90	C	1.464875	0.268334	0.089319
C91	C	1.368509	0.369660	0.079060
C92	C	0.948547	0.416284	0.386990
C93	C	0.955569	0.324878	0.462781
C94	C	0.904367	0.285236	0.455144
C95	C	0.846129	0.337015	0.371708
C96	C	0.839101	0.428426	0.295918
C97	C	1.368508	0.369660	0.322143
C98	C	1.464897	0.268332	0.402352
C99	C	1.458392	0.223722	0.482585
C100	C	1.355489	0.280454	0.482608
C101	C	1.259102	0.381787	0.402400
C102	C	0.353095	1.334397	-0.351636
C103	C	0.256704	1.435754	-0.431847
C104	C	0.263209	1.480369	-0.512081
C105	C	0.366113	1.423630	-0.512103
C106	C	0.462501	1.322282	-0.431894
C107	C	0.462558	1.322221	-0.017474
C108	C	0.366190	1.423568	-0.027747
C109	C	0.263273	1.480328	-0.078425
C110	C	0.256727	1.435746	-0.118839
C111	C	0.353094	1.334407	-0.108570
C112	C	0.882503	1.275605	-0.325389
C113	C	0.875497	1.367010	-0.401166
C114	C	0.817270	1.418808	-0.484609
C115	C	0.766054	1.379187	-0.492273
C116	C	0.773066	1.287777	-0.416496
H117	H	1.055066	0.134529	0.146943
O118	O	0.729185	1.097374	-0.551606
H119	H	0.668285	1.109460	-0.525145
O120	O	0.373118	1.471759	-0.598645
H121	H	0.422393	1.390214	-0.598714
O122	O	0.992435	0.606669	-0.477887
H123	H	1.036473	0.524596	-0.405173
H124	H	0.975689	0.637867	-0.355681
H125	H	1.548677	0.222150	0.402318
O126	O	1.375583	0.417703	0.122675
H127	H	1.415783	0.454520	0.097426
H128	H	1.350060	0.244231	-0.034689
O129	O	1.562358	0.114413	0.569095
H130	H	1.634995	0.082461	0.555590
H131	H	0.739523	0.618836	-0.115712
H132	H	0.546349	1.276014	0.023798
O133	O	1.148052	0.443044	-0.066694
H134	H	1.096981	0.548699	-0.122615
H135	H	0.347779	1.298078	-0.286314
H136	H	0.745937	1.066161	-0.673796
H137	H	0.929917	1.233445	-0.257453
H138	H	0.592086	0.680458	0.061857
H139	H	1.536787	0.141249	0.057248
O140	O	1.575880	0.207102	0.143984
H141	H	1.641781	0.129147	0.144330
H142	H	0.129510	1.023575	-0.091327
O143	O	0.549937	0.544795	0.122417
H144	H	0.593686	0.534627	0.172241
H145	H	0.791688	0.470564	0.227991
H146	H	0.679233	0.403705	-0.165851
O147	O	1.348480	0.232317	0.569149
H148	H	1.432797	0.152311	0.624912
H149	H	0.990243	0.448550	0.393225
H150	H	0.200211	1.126738	-0.137397
O151	O	0.159236	1.589695	-0.598587
H152	H	0.114745	1.559851	-0.598637
H153	H	1.042380	0.300327	0.136358
O154	O	0.364212	0.565406	0.113219
H155	H	0.454321	0.478218	0.152140
O156	O	1.018407	0.269024	0.552766
H157	H	0.980914	0.349274	0.553402
H158	H	0.910097	0.210803	0.516864
H159	H	0.362321	1.108756	-0.129375
H160	H	0.917203	1.399259	-0.394910
O161	O	0.643554	0.604800	-0.195561
H162	H	0.645787	0.624803	-0.257749
H163	H	0.804443	0.304724	0.365503
O164	O	1.375537	0.417779	0.235610
H165	H	1.463284	0.361314	0.249081
H166	H	1.175327	0.427959	0.402433
H167	H	0.172925	1.481934	-0.431811
O168	O	1.005080	0.049933	0.105351
H169	H	1.053160	-0.000448	0.081330
H170	H	0.184814	1.562844	-0.086779
O171	O	0.573481	1.261076	-0.431924
H172	H	0.561799	1.309123	-0.501193
O173	O	0.373263	1.471627	0.015857
H174	H	0.461020	1.415108	0.052836
H175	H	0.172920	1.481976	-0.160101
H176	H	0.347747	1.298116	-0.141475
O177	O	0.809693	1.517417	-0.566340
H178	H	0.855080	1.536265	-0.546984
H179	H	0.718645	1.421375	-0.560222
O180	O	0.717808	1.245072	-0.424770
H181	H	0.676133	1.296466	-0.495527
