data_functionalizedCrystal
_audit_creation_method	'MofGen! by Chris Wilmer'
_symmetry_space_group_name_H-M	'P1'
_symmetry_Int_Tables_number	1
_symmetry_cell_setting	triclinic
loop_
_symmetry_equiv_pos_as_xyz
  x,y,z
_cell_length_a	17.019372
_cell_length_b	14.971486
_cell_length_c	13.448316
_cell_angle_alpha	90.006811
_cell_angle_beta	93.869658
_cell_angle_gamma	96.497233
loop_
_atom_site_label
_atom_site_type_symbol
_atom_site_fract_x
_atom_site_fract_y
_atom_site_fract_z
O1	O	1.046773	-0.113922	0.006866
O2	O	0.817126	-0.128461	-0.012784
O3	O	0.938105	0.009024	-0.002425
O4	O	0.925794	-0.251407	-0.003493
O5	O	0.938089	0.009033	0.162957
O6	O	0.817110	-0.128452	0.152599
O7	O	1.046758	-0.113914	0.172249
Cu8	Cu	0.931933	-0.121182	0.177524
Cu9	Cu	0.931951	-0.121192	-0.018060
O10	O	0.925779	-0.251399	0.161890
C11	C	0.787729	-0.127907	0.067393
C12	C	0.700158	-0.126257	0.059900
C13	C	0.204881	-0.116897	0.012933
C14	C	0.287163	-0.118447	0.019987
C15	C	0.328287	-0.119224	0.113664
C16	C	0.287126	-0.118442	0.200294
C17	C	0.204846	-0.116886	0.193239
C18	C	0.576718	-0.123918	0.139475
C19	C	0.659003	-0.125477	0.146523
C20	C	0.659034	-0.125481	-0.033785
C21	C	0.576753	-0.123930	-0.040832
C22	C	0.535599	-0.123143	0.045798
C23	C	0.412392	-0.120812	0.120877
C24	C	0.451497	-0.121549	0.038585
C25	C	0.937547	0.042352	0.080219
C26	C	0.935897	0.141645	0.080077
C27	C	1.076155	-0.114468	0.092070
C28	C	1.163725	-0.116118	0.099556
C29	C	0.926337	-0.284726	0.079244
C30	C	0.927987	-0.384019	0.079379
N31	N	0.931926	-0.121175	0.315088
C32	C	1.006969	0.199049	0.086159
C33	C	1.005414	0.292345	0.086016
C34	C	0.932786	0.328234	0.079798
C35	C	0.861709	0.270822	0.073712
C36	C	0.863264	0.177528	0.073848
C37	C	0.858471	0.465276	0.073431
C38	C	0.856915	0.558576	0.073297
C39	C	1.000621	0.580093	0.085599
C40	C	1.002176	0.486799	0.085735
C41	C	0.931098	0.429393	0.079651
N42	N	0.931964	-0.121193	-0.155623
C43	C	0.985512	-0.060321	0.371717
C44	C	0.985517	-0.060321	0.475820
C45	C	0.931939	-0.121178	0.523294
C46	C	0.878347	-0.182034	0.466657
C47	C	0.878339	-0.182030	0.362555
C48	C	0.878369	-0.182040	0.683639
C49	C	0.878378	-0.182046	0.787749
C50	C	0.985547	-0.060331	0.796904
C51	C	0.985539	-0.060327	0.692802
C52	C	0.931948	-0.121184	0.636173
H53	H	0.418011	-0.120913	-0.037687
H54	H	0.320616	-0.119069	0.276569
H55	H	0.171403	-0.116271	-0.063350
H56	H	0.692483	-0.126116	0.222810
N57	N	0.790665	0.118889	0.067658
N58	N	0.775492	0.064439	0.136076
H59	H	0.724215	0.023026	0.131702
H60	H	1.029150	-0.010769	0.521927
N61	N	1.073224	0.638729	0.091786
N62	N	1.121515	0.635506	0.026206
H63	H	1.172789	0.676922	0.030578
H64	H	0.802574	0.300050	0.068643
H65	H	1.029170	-0.010776	0.654150
H66	H	0.800592	0.418538	0.068475
H67	H	0.171337	-0.116260	0.263777
N68	N	0.823604	-0.244181	0.304692
N69	N	0.774614	-0.215826	0.242431
H70	H	0.735954	-0.259719	0.201563
N71	N	0.782739	0.595260	0.066949
N72	N	0.765838	0.644929	0.135215
H73	H	0.713452	0.670841	0.130733
N74	N	0.823630	-0.244219	0.625807
N75	N	0.824791	-0.326894	0.637521
H76	H	0.786135	-0.370810	0.596678
N77	N	1.076363	0.450139	0.092109
N78	N	1.124289	0.467768	0.165928
H79	H	1.176685	0.441876	0.170430
N80	N	0.823630	-0.244193	0.836233
N81	N	0.750723	-0.242990	0.818394
H82	H	0.712053	-0.286877	0.852638
N83	N	1.040241	0.001859	0.323246
N84	N	1.089247	-0.026442	0.269330
H85	H	1.127899	0.017486	0.235111
H86	H	1.029182	-0.010779	0.843018
H87	H	0.320669	-0.119076	-0.050551
H88	H	0.543275	-0.123296	-0.117114
N89	N	0.701062	-0.126265	-0.122279
N90	N	0.664335	-0.125564	-0.205913
H91	H	0.694017	-0.126113	-0.268417
N92	N	0.823604	-0.244195	0.515133
N93	N	0.750696	-0.243009	0.497288
H94	H	0.712032	-0.286911	0.531522
N95	N	0.534700	-0.123112	0.227972
N96	N	0.571430	-0.123807	0.311604
H97	H	0.541753	-0.123238	0.374110
N98	N	1.078003	0.350999	0.092228
N99	N	1.093176	0.405453	0.023813
H100	H	1.144444	0.446880	0.028200
N101	N	0.454404	-0.121652	0.216558
N102	N	0.437993	-0.184518	0.275485
H103	H	0.467669	-0.185120	0.343058
N104	N	1.081164	0.162409	0.092524
N105	N	1.144615	0.213678	0.097955
H106	H	1.197019	0.187804	0.102450
