data_functionalizedCrystal
_audit_creation_method	'MofGen! by Chris Wilmer'
_symmetry_space_group_name_H-M	'P1'
_symmetry_Int_Tables_number	1
_symmetry_cell_setting	triclinic
loop_
_symmetry_equiv_pos_as_xyz
  x,y,z
_cell_length_a	8.497374
_cell_length_b	11.169417
_cell_length_c	11.169409
_cell_angle_alpha	90.019824
_cell_angle_beta	89.979460
_cell_angle_gamma	89.998029
loop_
_atom_site_label
_atom_site_type_symbol
_atom_site_fract_x
_atom_site_fract_y
_atom_site_fract_z
Zn1	Zn	0.627891	1.835039	0.678641
Zn2	Zn	0.961225	2.168373	1.011974
Zn3	Zn	1.294558	2.501706	1.345308
Zn4	Zn	0.891756	1.834961	0.477999
Zn5	Zn	1.225089	2.168295	0.811333
Zn6	Zn	1.558422	2.501628	1.144666
Zn7	Zn	0.627987	1.634325	0.477976
Zn8	Zn	0.961321	1.967659	0.811309
Zn9	Zn	1.294654	2.300992	1.144642
Zn10	Zn	0.891627	1.634365	0.678644
Zn11	Zn	1.224960	1.967699	1.011978
Zn12	Zn	1.558294	2.301032	1.345311
O13	O	0.759815	1.734673	0.578315
O14	O	1.093149	2.068006	0.911648
O15	O	1.426482	2.401339	1.244982
O16	O	0.662907	2.002979	0.652034
O17	O	0.996240	2.336312	0.985368
O18	O	1.329574	2.669645	1.318701
O19	O	0.856860	1.808297	0.310046
O20	O	1.190193	2.141630	0.643380
O21	O	1.523527	2.474964	0.976713
O22	O	0.407212	1.660967	0.504583
O23	O	0.740546	1.994300	0.837916
O24	O	1.073879	2.327633	1.171250
O25	O	0.856767	2.002921	0.504624
O26	O	1.190100	2.336255	0.837957
O27	O	1.523434	2.669588	1.171290
O28	O	0.407142	1.808430	0.652011
O29	O	0.740475	2.141764	0.985344
O30	O	1.073808	2.475097	1.318678
O31	O	0.663071	1.660891	0.310029
O32	O	0.996404	1.994224	0.643362
O33	O	1.329737	2.327557	0.976696
O34	O	0.662946	1.466381	0.504586
O35	O	0.996280	1.799714	0.837919
O36	O	1.329613	2.133048	1.171253
O37	O	0.856548	1.661035	0.846594
O38	O	1.189881	1.994368	1.179927
O39	O	1.523215	2.327701	1.513260
O40	O	0.856641	1.466410	0.652016
O41	O	1.189975	1.799744	0.985350
O42	O	1.523308	2.133077	1.318683
O43	O	0.662782	1.808469	0.846591
O44	O	0.996116	2.141802	1.179925
O45	O	1.329449	2.475136	1.513258
O46	O	1.112501	1.808336	0.504627
O47	O	1.445834	2.141669	0.837960
O48	O	1.779168	2.475002	1.171293
O49	O	1.112407	1.660959	0.652040
O50	O	1.445740	1.994292	0.985373
O51	O	1.779073	2.327625	1.318706
C52	C	0.759791	1.422848	0.578300
C53	C	1.093125	1.756181	0.911633
C54	C	1.426458	2.089515	1.244966
C55	C	0.759819	1.289448	0.578321
C56	C	1.093153	1.622781	0.911655
C57	C	1.426486	1.956115	1.244988
C58	C	1.169695	1.734658	0.578332
C59	C	1.503028	2.067991	0.911666
C60	C	1.836362	2.401324	1.244999
C61	C	1.348339	1.734690	0.578313
C62	C	1.681673	2.068023	0.911646
C63	C	2.015006	2.401356	1.244979
C64	C	0.759640	1.734765	0.891358
C65	C	1.092973	2.068098	1.224691
C66	C	1.426307	2.401432	1.558024
C67	C	0.759565	1.734804	1.024758
C68	C	1.092899	2.068138	1.358091
C69	C	1.426232	2.401471	1.691424
C70	C	0.759840	2.047715	0.578331
C71	C	1.093174	2.381048	0.911665
C72	C	1.426507	2.714382	1.244998
C73	C	0.759851	2.181115	0.578338
C74	C	1.093185	2.514448	0.911672
C75	C	1.426518	2.847782	1.245005
C76	C	0.759876	1.734650	0.266490
C77	C	1.093209	2.067983	0.599824
C78	C	1.426543	2.401317	0.933157
C79	C	0.759506	1.734843	0.133091
C80	C	1.092840	2.068177	0.466424
C81	C	1.426173	2.401510	0.799758
