data_functionalizedCrystal
_audit_creation_method	'MofGen! by Chris Wilmer'
_symmetry_space_group_name_H-M	'P1'
_symmetry_Int_Tables_number	1
_symmetry_cell_setting	triclinic
loop_
_symmetry_equiv_pos_as_xyz
  x,y,z
_cell_length_a	27.731994
_cell_length_b	27.732064
_cell_length_c	14.421503
_cell_angle_alpha	90.008357
_cell_angle_beta	89.998531
_cell_angle_gamma	82.634978
loop_
_atom_site_label
_atom_site_type_symbol
_atom_site_fract_x
_atom_site_fract_y
_atom_site_fract_z
O1	O	0.640951	0.057385	-0.076972
O2	O	0.500154	0.066158	-0.077002
O3	O	0.574921	-0.008626	-0.076989
O4	O	0.566184	0.132168	-0.076984
O5	O	0.574909	-0.008614	0.077234
O6	O	0.500142	0.066169	0.077222
O7	O	0.640938	0.057396	0.077252
Cu8	Cu	0.570539	0.061784	0.091319
Cu9	Cu	0.570554	0.061770	-0.091069
O10	O	0.566171	0.132180	0.077239
C11	C	0.482140	0.065983	0.000106
C12	C	0.428484	0.065441	0.000095
C13	C	0.095759	0.062031	0.084197
C14	C	-0.105900	0.059970	0.084208
O15	O	-0.131978	0.059688	0.155704
N16	N	-0.131108	0.059708	0.000141
C17	C	-0.105898	0.059958	-0.083935
O18	O	-0.131965	0.059683	-0.155439
C19	C	0.095760	0.062016	-0.083944
C20	C	0.120965	0.062283	0.000128
C21	C	0.120964	0.062298	0.168263
C22	C	0.171375	0.062816	0.168260
C23	C	0.196581	0.063067	0.084191
C24	C	0.171376	0.062801	0.000125
C25	C	0.120970	0.062263	-0.168019
C26	C	0.171388	0.062776	-0.168014
C27	C	0.196592	0.063043	-0.083941
C28	C	0.246994	0.063571	-0.083948
N29	N	0.272202	0.063833	0.000119
C30	C	0.246995	0.063581	0.084188
C31	C	-0.211771	0.058878	-0.083924
C32	C	-0.262185	0.058365	-0.083922
C33	C	-0.262184	0.058376	0.084221
C34	C	-0.211769	0.058893	0.084218
C35	C	-0.186563	0.059140	0.000143
C36	C	0.352862	0.064669	0.084175
C37	C	0.403278	0.065189	0.084164
C38	C	0.403272	0.065176	-0.083979
C39	C	0.352861	0.064658	-0.083968
C40	C	0.327657	0.064403	0.000116
O41	O	0.273104	0.063848	-0.155406
O42	O	0.273073	0.063846	0.155682
C43	C	0.045348	0.061513	0.084201
C44	C	0.020143	0.061247	0.000135
C45	C	0.045349	0.061498	-0.083934
C46	C	-0.030272	0.060733	0.000137
C47	C	-0.055478	0.060482	0.084206
C48	C	-0.030270	0.060744	0.168274
C49	C	0.020141	0.061262	0.168270
C50	C	0.020141	0.061236	-0.168001
C51	C	-0.030271	0.060719	-0.167991
C52	C	-0.055477	0.060467	-0.083922
C53	C	0.574730	-0.026627	0.000119
C54	C	0.574174	-0.080281	0.000111
C55	C	0.526206	-0.457344	0.000097
C56	C	0.528252	-0.255685	0.000096
O57	O	0.491030	-0.224425	0.000051
N58	N	0.572588	-0.236566	0.000105
C59	C	0.616415	-0.267865	0.000109
O60	O	0.654172	-0.246976	0.000107
C61	C	0.614368	-0.469524	0.000103
C62	C	0.570029	-0.488640	0.000103
C63	C	0.481871	-0.476461	0.000096
C64	C	0.481360	-0.526873	0.000101
C65	C	0.525184	-0.558168	0.000107
C66	C	0.569518	-0.539052	0.000108
C67	C	0.658194	-0.500823	0.000100
C68	C	0.657679	-0.551240	0.000096
C69	C	0.613340	-0.570356	0.000096
C70	C	0.612831	-0.620760	0.000120
N71	N	0.568495	-0.639879	0.000110
C72	C	0.524672	-0.608583	0.000104
C73	C	0.617486	-0.161991	0.000114
C74	C	0.617998	-0.111577	0.000117
C75	C	0.529835	-0.099399	0.000102
C76	C	0.529324	-0.149815	0.000106
C77	C	0.573151	-0.181110	0.000104
C78	C	0.523602	-0.714452	0.000116
C79	C	0.523095	-0.764869	0.000125
C80	C	0.611257	-0.777042	0.000135
C81	C	0.611764	-0.726630	0.000130
C82	C	0.567933	-0.695335	0.000118
O83	O	0.650033	-0.652048	0.000154
O84	O	0.486920	-0.629481	0.000085
C85	C	0.526717	-0.406932	0.000092
C86	C	0.571052	-0.387816	0.000093
C87	C	0.614875	-0.419112	0.000099
C88	C	0.571563	-0.337402	0.000096
C89	C	0.527740	-0.306106	0.000090
C90	C	0.483404	-0.325225	0.000080
C91	C	0.482893	-0.375637	0.000086
C92	C	0.659211	-0.399993	0.000108
C93	C	0.659718	-0.349580	0.000104
C94	C	0.615895	-0.318285	0.000098
C95	C	0.658952	0.057571	0.000142
C96	C	0.712608	0.058113	0.000147
C97	C	0.566362	0.150181	0.000129
C98	C	0.566918	0.203835	0.000131
N99	N	0.570532	0.061793	0.219600
N100	N	0.570564	0.061758	-0.219350
C101	C	0.535954	0.096357	0.469248
C102	C	0.579565	0.105404	0.531060
C103	C	0.570544	0.061781	0.408761
C104	C	0.526944	0.052745	0.531043
C105	C	0.570551	0.061771	0.591483
C106	C	0.614177	0.070850	0.469213
C107	C	0.561528	0.018171	0.469190
C108	C	0.605170	0.027200	0.530974
C109	C	0.570539	0.061788	0.303500
C110	C	0.570562	0.061763	0.696742
H111	H	0.332347	0.064466	0.152644
H112	H	0.040659	0.061440	-0.236462
O113	O	0.653781	-0.807516	0.000099
C114	C	0.643817	-0.856111	0.000122
H115	H	0.605863	-0.857759	-0.029074
H116	H	0.671772	-0.879167	-0.044655
H117	H	0.645758	-0.870700	0.074110
H118	H	0.447722	-0.299735	0.000081
H119	H	0.694299	-0.485268	0.000099
O120	O	0.661081	-0.093034	-0.000038
C121	C	0.687779	-0.109077	-0.079898
H122	H	0.661847	-0.119374	-0.135727
H123	H	0.708116	-0.078691	-0.106707
H124	H	0.714963	-0.142140	-0.061838
O125	O	0.438276	-0.545414	-0.000073
C126	C	0.411591	-0.529380	-0.079942
H127	H	0.437532	-0.519094	-0.135761
H128	H	0.391255	-0.559768	-0.106761
H129	H	0.384407	-0.496313	-0.061890
O130	O	0.482934	0.043600	0.563285
C131	C	0.451918	0.037660	0.487814
H132	H	0.474674	0.026592	0.423628
H133	H	0.428191	0.008191	0.504928
H134	H	0.427807	0.073392	0.473859
O135	O	0.439780	-0.394122	0.000038
C136	C	0.401215	-0.355681	0.000055
H137	H	0.414511	-0.321534	-0.029140
H138	H	0.370239	-0.365986	-0.044727
H139	H	0.387711	-0.348438	0.074041
O140	O	-0.286602	0.058150	0.165971
C141	C	-0.253546	0.058476	0.240181
H142	H	-0.219724	0.074153	0.215549
H143	H	-0.271363	0.081803	0.298983
H144	H	-0.242824	0.019736	0.266018
H145	H	0.191908	0.062978	-0.236480
O146	O	0.660030	-0.192438	0.000240
C147	C	0.662376	-0.221951	0.080123
H148	H	0.624026	-0.224220	0.106745
H149	H	0.680679	-0.259979	0.062160
H150	H	0.684320	-0.205520	0.136059
O151	O	0.501042	0.131201	0.436859
C152	C	0.467373	0.109301	0.383062
H153	H	0.468444	0.069557	0.404107
H154	H	0.429264	0.129113	0.395029
H155	H	0.477182	0.111526	0.306548
O156	O	0.658212	0.080002	0.437113
C157	C	0.689015	0.086407	0.512684
H158	H	0.675922	0.067630	0.576536
H159	H	0.727727	0.069884	0.495237
H160	H	0.688306	0.126885	0.527387
H161	H	0.694898	-0.425469	0.000112
O162	O	0.328415	0.064472	-0.165691
C163	C	0.334930	0.106483	-0.216821
H164	H	0.369603	0.120824	-0.192919
H165	H	0.337957	0.097079	-0.293732
H166	H	0.302500	0.135517	-0.205158
H167	H	-0.282704	0.058155	-0.152382
O168	O	-0.187368	0.059142	-0.165684
C169	C	-0.220432	0.058789	-0.239872
H170	H	-0.258483	0.073733	-0.215210
H171	H	-0.209115	0.082412	-0.298673
H172	H	-0.220434	0.019939	-0.265723
H173	H	0.634457	-0.002046	0.557907
O174	O	0.427808	0.065485	-0.165579
C175	C	0.451172	0.107668	-0.170619
H176	H	0.456786	0.121717	-0.097627
H177	H	0.487929	0.098606	-0.206187
H178	H	0.427694	0.136790	-0.212118
O179	O	0.588739	0.149392	0.563384
C180	C	0.634378	0.159184	0.530553
H181	H	0.644177	0.137122	0.464983
H182	H	0.632668	0.199590	0.514245
H183	H	0.663193	0.148759	0.585882
O184	O	0.487232	-0.069043	-0.000033
C185	C	0.460306	-0.077654	-0.079930
H186	H	0.472467	-0.115993	-0.106552
H187	H	0.419960	-0.073800	-0.061984
H188	H	0.466717	-0.050131	-0.135859
H189	H	0.695827	-0.334022	0.000111
O190	O	0.552434	-0.025783	0.436578
C191	C	0.552990	-0.025286	0.338824
H192	H	0.575320	0.003909	0.313634
H193	H	0.569912	-0.062306	0.312057
H194	H	0.514188	-0.017058	0.311733
H195	H	0.693369	-0.576719	0.000089
H196	H	0.423797	0.065409	0.152629
H197	H	0.100446	0.062092	0.236726
O198	O	0.195784	0.063048	0.250012
C199	C	0.162716	0.062726	0.324203
H200	H	0.128897	0.047050	0.299544
H201	H	0.180521	0.039400	0.383002
H202	H	0.151990	0.101467	0.350057
H203	H	-0.050802	0.060541	0.236726
H204	H	0.100457	0.062045	-0.236480
H205	H	-0.050789	0.060505	-0.236458
H206	H	0.486987	-0.780430	0.000130
H207	H	-0.191251	0.059111	0.152678
O208	O	0.480980	-0.684126	0.000148
C209	C	0.441745	-0.711819	0.000125
H210	H	0.454308	-0.749537	0.029326
H211	H	0.411059	-0.692994	0.044899
H212	H	0.428140	-0.715317	-0.073864
H213	H	0.647868	-0.711065	0.000144
H214	H	0.040659	0.061479	0.236731
O215	O	0.439329	-0.446015	0.000216
C216	C	0.436973	-0.416494	0.080105
H217	H	0.475320	-0.414219	0.106735
H218	H	0.418670	-0.378468	0.062146
H219	H	0.415026	-0.432920	0.136033
O220	O	0.486285	-0.168439	-0.000026
C221	C	0.483348	-0.197230	-0.079916
H222	H	0.521544	-0.210075	-0.106540
H223	H	0.464326	-0.230100	-0.061961
H224	H	0.461798	-0.174795	-0.135847
