data_functionalizedCrystal
_audit_creation_method	'MofGen! by Chris Wilmer'
_symmetry_space_group_name_H-M	'P1'
_symmetry_Int_Tables_number	1
_symmetry_cell_setting	triclinic
loop_
_symmetry_equiv_pos_as_xyz
  x,y,z
_cell_length_a	11.792254
_cell_length_b	13.339070
_cell_length_c	11.804365
_cell_angle_alpha	74.887832
_cell_angle_beta	78.069251
_cell_angle_gamma	80.086054
loop_
_atom_site_label
_atom_site_type_symbol
_atom_site_fract_x
_atom_site_fract_y
_atom_site_fract_z
O1	O	1.566225	-0.118626	-0.099016
O2	O	1.240292	-0.132927	-0.099019
O3	O	1.365851	0.021693	-0.099014
O4	O	1.440666	-0.273246	-0.099021
O5	O	1.332783	-0.018971	0.099040
O6	O	1.207224	-0.173591	0.099035
O7	O	1.533157	-0.159290	0.099039
Cu8	Cu	1.367171	-0.170153	0.117121
Cu9	Cu	1.406278	-0.122063	-0.117102
O10	O	1.407598	-0.313910	0.099034
C11	C	1.336680	0.039121	0.000011
C12	C	1.299012	0.151632	0.000006
C13	C	1.592260	-0.139858	0.000009
C14	C	1.719104	-0.142554	0.000003
C15	C	1.181190	-0.152358	0.000008
C16	C	1.054346	-0.149661	0.000006
C17	C	1.822116	-0.144744	0.000001
C18	C	1.951346	-0.147484	0.000003
C19	C	1.436769	-0.331337	0.000006
C20	C	1.474439	-0.443846	0.000003
N21	N	1.339674	-0.203977	0.281861
C22	C	1.591907	0.514806	0.000010
C23	C	1.627301	0.409095	0.000021
C24	C	1.545232	0.344724	0.000017
C25	C	1.427763	0.386074	0.000002
C26	C	1.392364	0.491793	-0.000000
C27	C	1.345688	0.321712	0.000007
C28	C	1.228219	0.363061	-0.000008
C29	C	1.192826	0.468771	-0.000011
C30	C	1.274896	0.533141	-0.000007
C31	C	1.381087	0.215993	0.000009
C32	C	1.181544	0.192980	-0.000001
C33	C	1.146150	0.298691	-0.000012
N34	N	1.433782	-0.088232	-0.281841
C35	C	1.499807	-0.006990	0.655815
C36	C	1.520606	0.018602	0.531155
C37	C	1.475374	-0.037040	0.468825
C38	C	1.409341	-0.118279	0.531168
C39	C	1.388547	-0.143879	0.655842
C40	C	1.364115	-0.173929	0.468851
C41	C	1.298081	-0.255168	0.531195
C42	C	1.277290	-0.280763	0.655855
C43	C	1.322522	-0.225121	0.718185
C44	C	1.384908	-0.148330	0.344178
C45	C	1.273648	-0.285219	0.344204
C46	C	1.252849	-0.310811	0.468865
H47	H	1.574056	0.258650	0.000027
C48	C	1.820977	0.442467	0.000032
C49	C	1.756416	0.363646	0.000034
H50	H	1.900693	0.414408	0.000033
H51	H	1.791486	0.469043	0.069091
H52	H	1.814551	0.497400	-0.069042
H53	H	1.762835	0.308717	0.069113
H54	H	1.785916	0.337055	-0.069031
C55	C	1.626226	0.687078	0.000016
C56	C	1.682107	0.585561	0.000018
H57	H	1.681919	0.730759	0.000016
H58	H	1.567906	0.685485	0.069075
H59	H	1.590971	0.713843	-0.069058
H60	H	1.717355	0.558792	0.069097
H61	H	1.740448	0.587150	-0.069048
C62	C	1.161586	-0.423110	0.356751
C63	C	1.223923	-0.346390	0.275705
H64	H	1.130901	-0.460875	0.314454
H65	H	1.099294	-0.390666	0.405382
H66	H	1.212298	-0.469830	0.405366
H67	H	1.173210	-0.299665	0.227095
H68	H	1.286224	-0.378835	0.227053
H69	H	1.492312	-0.016200	0.367320
H70	H	1.246084	0.619222	-0.000021
C71	C	1.028853	0.502607	-0.101837
C72	C	1.063703	0.514222	-0.000020
H73	H	0.949139	0.530671	-0.101843
H74	H	1.038186	0.430444	-0.101827
H75	H	1.075588	0.538845	-0.170892
H76	H	1.016973	0.477978	0.069036
H77	H	1.054359	0.586399	-0.000019
C78	C	0.982177	0.332539	-0.101842
C79	C	1.017029	0.344152	-0.000025
H80	H	0.902466	0.360613	-0.101852
H81	H	0.991500	0.260376	-0.101829
H82	H	1.028919	0.368771	-0.170897
H83	H	0.970293	0.307914	0.069031
H84	H	1.007696	0.416329	-0.000027
C85	C	1.272650	-0.447320	0.796049
C86	C	1.204715	-0.370067	0.724387
H87	H	1.227845	-0.502454	0.838350
H88	H	1.296604	-0.417842	0.851000
H89	H	1.339566	-0.474068	0.747391
H90	H	1.137803	-0.343313	0.773047
H91	H	1.180744	-0.399549	0.669430
C92	C	1.147201	0.020718	-0.000020
C93	C	1.091324	0.122235	-0.000014
H94	H	1.091507	-0.022957	-0.000034
H95	H	1.182450	-0.006052	0.069045
H96	H	1.205529	0.022317	-0.069088
H97	H	1.033001	0.120638	0.069058
H98	H	1.056055	0.149012	-0.069086
H99	H	1.199083	-0.376958	0.519640
C100	C	1.538227	0.201471	0.493271
C101	C	1.593082	0.108025	0.462860
H102	H	1.582942	0.256718	0.451170
H103	H	1.532233	0.193997	0.576471
H104	H	1.462311	0.217079	0.472777
H105	H	1.668995	0.092413	0.483362
H106	H	1.599090	0.115499	0.379642
C107	C	1.579055	0.223971	-0.101803
C108	C	1.510204	0.170548	0.000011
H109	H	1.658771	0.195910	-0.101805
H110	H	1.569716	0.296130	-0.101792
H111	H	1.555383	0.216087	-0.170860
H112	H	1.533871	0.178438	0.069069
H113	H	1.519550	0.098371	0.000012
H114	H	1.305584	-0.245954	0.819694
H115	H	1.438673	-0.082185	0.293429
C116	C	1.671511	0.043454	0.694174
C117	C	1.549517	0.054173	0.724322
H118	H	1.702199	0.081215	0.736472
H119	H	1.693333	0.070327	0.611015
H120	H	1.701736	-0.028452	0.714607
H121	H	1.519291	0.126079	0.703881
H122	H	1.527684	0.027305	0.807499
