data_functionalizedCrystal
_audit_creation_method	'MofGen! by Chris Wilmer'
_symmetry_space_group_name_H-M	'P1'
_symmetry_Int_Tables_number	1
_symmetry_cell_setting	triclinic
loop_
_symmetry_equiv_pos_as_xyz
  x,y,z
_cell_length_a	14.044191
_cell_length_b	14.044191
_cell_length_c	13.101039
_cell_angle_alpha	86.337551
_cell_angle_beta	86.327793
_cell_angle_gamma	86.808224
loop_
_atom_site_label
_atom_site_type_symbol
_atom_site_fract_x
_atom_site_fract_y
_atom_site_fract_z
O1	O	-0.225379	1.281981	-0.085150
O2	O	-0.217066	1.005309	-0.085163
O3	O	-0.082886	1.139489	-0.085159
O4	O	-0.359559	1.147801	-0.085154
O5	O	-0.092531	1.129863	0.085271
O6	O	-0.226710	0.995683	0.085266
O7	O	-0.235024	1.272355	0.085280
Zn8	Zn	-0.232398	1.132491	0.112332
Zn9	Zn	-0.219691	1.145173	-0.112216
O10	O	-0.369204	1.138176	0.085275
C11	C	-0.218251	0.964874	0.000050
C12	C	-0.207404	0.858731	0.000044
C13	C	-0.264505	0.613274	0.000055
C14	C	-0.187588	0.664397	0.000052
C15	C	-0.198616	0.772535	0.000048
C16	C	-0.253479	0.505126	0.000060
C17	C	-0.400003	1.146625	0.000061
C18	C	-0.506147	1.157472	0.000063
C19	C	-0.751603	1.100372	0.000051
C20	C	-0.700480	1.177288	0.000057
C21	C	-0.592343	1.166260	0.000060
C22	C	-0.859750	1.111399	0.000048
C23	C	-0.052086	1.131040	0.000053
C24	C	0.054058	1.120193	0.000045
C25	C	-0.233838	1.312790	0.000065
C26	C	-0.244685	1.418934	0.000064
N27	N	-0.241071	1.123843	0.265581
N28	N	-0.211012	1.153829	-0.265464
C29	C	-0.252879	1.112077	0.474623
C30	C	-0.199207	1.165592	0.525500
C31	C	-0.205777	1.159045	0.641819
C32	C	-0.246310	1.118622	0.358294
H33	H	-0.113451	0.626956	-0.000021
H34	H	-0.148324	1.216325	0.481700
Br35	Br	-0.689195	0.976819	0.000045
H36	H	-0.338632	0.650717	0.000053
Br37	Br	-0.762886	1.300849	0.000063
Br38	Br	-0.337686	1.027524	0.547620
