data_functionalizedCrystal
_audit_creation_method	'MofGen! by Chris Wilmer'
_symmetry_space_group_name_H-M	'P1'
_symmetry_Int_Tables_number	1
_symmetry_cell_setting	triclinic
loop_
_symmetry_equiv_pos_as_xyz
  x,y,z
_cell_length_a	16.992701
_cell_length_b	10.540539
_cell_length_c	16.053802
_cell_angle_alpha	92.593658
_cell_angle_beta	87.243340
_cell_angle_gamma	87.596331
loop_
_atom_site_label
_atom_site_type_symbol
_atom_site_fract_x
_atom_site_fract_y
_atom_site_fract_z
O1	O	1.045179	0.264282	-0.069429
O2	O	1.545179	0.764282	0.430571
O3	O	0.816877	0.261331	-0.069429
O4	O	1.316877	0.761331	0.430571
O5	O	0.936237	0.078552	-0.069428
O6	O	1.436237	0.578552	0.430572
O7	O	0.925820	0.447061	-0.069430
O8	O	1.425820	0.947061	0.430570
O9	O	0.929667	0.088569	0.069431
O10	O	1.429667	0.588569	0.569431
O11	O	0.810307	0.271347	0.069429
O12	O	1.310307	0.771347	0.569429
O13	O	1.038609	0.274299	0.069430
O14	O	1.538609	0.774299	0.569430
Zn15	Zn	0.923415	0.274413	0.091476
Zn16	Zn	1.423415	0.774413	0.591476
Zn17	Zn	0.932071	0.261216	-0.091476
Zn18	Zn	1.432071	0.761216	0.408524
O19	O	0.919250	0.457078	0.069429
O20	O	1.419250	0.957078	0.569429
C21	C	0.784358	0.262539	-0.000000
C22	C	1.284358	0.762539	0.500000
C23	C	0.697251	0.251200	-0.000000
C24	C	1.197251	0.751200	0.500000
C25	C	0.207865	0.175010	-0.000003
C26	C	0.707865	0.675010	0.499997
C27	C	0.289711	0.185675	0.000002
C28	C	0.789711	0.685675	0.500002
C29	C	0.321927	0.305759	-0.000003
C30	C	0.821927	0.805759	0.499997
C31	C	0.272291	0.415187	-0.000004
C32	C	0.772291	0.915187	0.499996
C33	C	0.190447	0.404522	-0.000003
C34	C	0.690447	0.904522	0.499997
C35	C	0.565771	0.349962	-0.000000
C36	C	1.065771	0.849962	0.500000
C37	C	0.647622	0.360619	-0.000004
C38	C	1.147622	0.860619	0.499996
C39	C	0.665036	0.131106	0.000003
C40	C	1.165036	0.631106	0.500003
C41	C	0.583189	0.120451	-0.000001
C42	C	1.083189	0.620451	0.499999
C43	C	0.533561	0.229879	0.000002
C44	C	1.033561	0.729879	0.500002
N45	N	0.405586	0.316663	-0.000000
N46	N	0.905586	0.816663	0.500000
N47	N	0.449903	0.218974	0.000006
N48	N	0.949903	0.718974	0.500006
C49	C	0.932171	0.036189	-0.000000
C50	C	1.432171	0.536189	0.500000
C51	C	0.929834	-0.104962	-0.000005
C52	C	1.429834	0.395038	0.499995
C53	C	0.840288	-0.296181	-0.000317
C54	C	1.340288	0.203819	0.499683
C55	C	0.842642	-0.149335	-0.000004
C56	C	1.342642	0.350665	0.499996
C57	C	0.968042	-0.157259	0.079291
C58	C	1.468042	0.342741	0.579291
C59	C	0.965063	-0.304057	0.079357
C60	C	1.465063	0.195943	0.579357
C61	C	0.974308	-0.315812	-0.078551
C62	C	1.474308	0.184188	0.421449
C63	C	0.975161	-0.168836	-0.079600
C64	C	1.475161	0.331164	0.420400
C65	C	1.071128	0.273091	-0.000001
C66	C	1.571128	0.773091	0.499999
C67	C	1.158236	0.284430	-0.000007
C68	C	1.658236	0.784430	0.499993
C69	C	0.923316	0.499440	-0.000001
C70	C	1.423316	0.999440	0.499999
C71	C	0.925653	0.640591	-0.000002
C72	C	1.425653	1.140591	0.499998
N73	N	0.917513	0.283420	0.216337
N74	N	1.417513	0.783420	0.716337
N75	N	0.937980	0.252200	-0.216336
N76	N	1.437980	0.752200	0.283664
C77	C	0.968319	0.205679	0.260031
C78	C	1.468319	0.705679	0.760031
C79	C	0.964198	0.211991	0.347438
C80	C	1.464198	0.711991	0.847438
C81	C	0.909274	0.296053	0.391149
C82	C	1.409274	0.796053	0.891149
C83	C	0.858462	0.373797	0.347448
C84	C	1.358462	0.873797	0.847448
C85	C	0.862580	0.367477	0.260043
C86	C	1.362580	0.867477	0.760043
C87	C	0.891286	0.323625	0.652558
C88	C	1.391286	0.823625	1.152558
C89	C	0.887173	0.329942	0.739969
C90	C	1.387173	0.829942	1.239969
C91	C	0.992909	0.168133	0.739953
C92	C	1.492909	0.668133	1.239953
C93	C	0.997025	0.161826	0.652546
C94	C	1.497025	0.661826	1.152546
C95	C	0.946211	0.239566	0.608853
C96	C	1.446211	0.739566	1.108853
N97	N	0.905062	0.302511	0.480492
N98	N	1.405062	0.802511	0.980492
N99	N	0.950420	0.233101	0.519511
N100	N	1.450420	0.733101	1.019511
H101	H	0.705451	0.042016	0.000001
H102	H	1.205451	0.542016	0.500001
H103	H	0.842445	0.398400	0.775554
H104	H	1.342445	0.898400	1.275554
H105	H	0.673848	0.458412	0.000005
H106	H	1.173848	0.958412	0.500005
H107	H	0.298528	0.512963	-0.000002
H108	H	0.798528	1.012963	0.499998
H109	H	1.041749	0.093376	0.616959
H110	H	1.541749	0.593376	1.116959
Cl111	Cl	0.503392	0.487530	-0.000008
Cl112	Cl	1.003392	0.987530	0.499992
H113	H	0.821207	0.430781	0.224468
H114	H	1.321207	0.930781	0.724468
Cl115	Cl	0.827409	0.421357	0.597635
Cl116	Cl	1.327409	0.921357	1.097635
Cl117	Cl	1.056784	0.070404	0.794885
Cl118	Cl	1.556784	0.570404	1.294885
Cl119	Cl	0.128055	0.542084	-0.000001
Cl120	Cl	0.628055	1.042084	0.499999
Cl121	Cl	0.789409	0.479470	0.402397
Cl122	Cl	1.289409	0.979470	0.902397
H123	H	0.948932	-0.354148	-0.138652
H124	H	1.448932	0.145852	0.361348
H125	H	0.812315	-0.113696	-0.056846
H126	H	1.312315	0.386304	0.443154
H127	H	0.181642	0.077224	-0.000005
H128	H	0.681642	0.577224	0.499995
H129	H	0.330115	0.096574	0.000008
H130	H	0.830115	0.596574	0.500008
H131	H	0.947234	-0.134873	-0.138260
H132	H	1.447234	0.365127	0.361740
Cl133	Cl	0.918730	-0.088829	0.170398
Cl134	Cl	1.418730	0.411171	0.670398
H135	H	0.556965	0.022665	0.000003
H136	H	1.056965	0.522665	0.500003
H137	H	0.808536	-0.331871	-0.057181
H138	H	1.308536	0.168129	0.442819
H139	H	0.803310	-0.325286	0.056229
H140	H	1.303310	0.174714	0.556229
Cl141	Cl	0.912851	-0.345153	0.170870
Cl142	Cl	1.412851	0.154847	0.670870
Cl143	Cl	0.787148	-0.082970	0.087900
Cl144	Cl	1.287148	0.417030	0.587900
H145	H	1.005568	0.148688	0.383014
H146	H	1.505568	0.648688	0.883014
Cl147	Cl	1.061611	-0.369322	0.084924
Cl148	Cl	1.561611	0.130678	0.584924
Cl149	Cl	1.066686	-0.113844	0.083848
Cl150	Cl	1.566686	0.386156	0.583848
H151	H	1.038956	-0.139445	-0.084388
H152	H	1.538956	0.360555	0.415612
Cl153	Cl	1.071578	-0.380351	-0.079377
Cl154	Cl	1.571578	0.119649	0.420623
H155	H	1.013048	0.137232	0.224448
H156	H	1.513048	0.637232	0.724448
