data_functionalizedCrystal
_audit_creation_method	'MofGen! by Chris Wilmer'
_symmetry_space_group_name_H-M	'P1'
_symmetry_Int_Tables_number	1
_symmetry_cell_setting	triclinic
loop_
_symmetry_equiv_pos_as_xyz
  x,y,z
_cell_length_a	14.519709
_cell_length_b	12.503572
_cell_length_c	14.519709
_cell_angle_alpha	86.471162
_cell_angle_beta	83.680145
_cell_angle_gamma	93.519209
loop_
_atom_site_label
_atom_site_type_symbol
_atom_site_fract_x
_atom_site_fract_y
_atom_site_fract_z
O1	O	1.229169	0.089182	0.115573
O2	O	1.729169	0.589182	0.615573
O3	O	0.960694	0.089215	0.129808
O4	O	1.460694	0.589215	0.629808
O5	O	1.102049	0.089188	-0.011548
O6	O	1.602049	0.589188	0.488452
O7	O	1.087813	0.089209	0.256928
O8	O	1.587813	0.589209	0.756928
O9	O	1.091418	-0.089452	-0.000899
O10	O	1.591418	0.410548	0.499101
O11	O	0.950063	-0.089424	0.140456
O12	O	1.450063	0.410576	0.640456
O13	O	1.218538	-0.089458	0.126221
O14	O	1.718538	0.410542	0.626221
Cu15	Cu	1.083330	-0.105752	0.134311
Cu16	Cu	1.583330	0.394248	0.634311
Cu17	Cu	1.095902	0.105510	0.121718
Cu18	Cu	1.595902	0.605510	0.621718
O19	O	1.077183	-0.089430	0.267577
O20	O	1.577183	0.410570	0.767577
C21	C	0.921019	-0.000100	0.134468
C22	C	1.421019	0.499900	0.634468
C23	C	0.818638	-0.000088	0.132479
C24	C	1.318638	0.499912	0.632479
N25	N	1.074494	-0.254343	0.143168
N26	N	1.574494	0.245657	0.643168
C27	C	0.443739	-0.000137	0.125163
C28	C	0.943739	0.499863	0.625163
C29	C	0.548048	-0.000123	0.127194
C30	C	1.048048	0.499877	0.627194
C31	C	0.631186	-0.000112	0.128821
C32	C	1.131186	0.499888	0.628821
C33	C	0.735501	-0.000100	0.130853
C34	C	1.235501	0.499900	0.630853
C35	C	1.061496	-0.473456	0.156204
C36	C	1.561496	0.026544	0.656204
C37	C	1.117740	-0.526793	0.099821
C38	C	1.617740	-0.026793	0.599821
C39	C	1.110507	-0.648715	0.107074
C40	C	1.610507	-0.148715	0.607074
C41	C	1.068727	-0.351523	0.148951
C42	C	1.568727	0.148477	0.648951
C43	C	1.258213	-0.000139	0.121561
C44	C	1.758213	0.499861	0.621561
C45	C	1.360594	-0.000145	0.123549
C46	C	1.860594	0.499855	0.623549
C47	C	1.096070	-0.000132	-0.040583
C48	C	1.596070	0.499868	0.459417
C49	C	1.094082	-0.000132	-0.142964
C50	C	1.594082	0.499868	0.357036
N51	N	1.104745	0.254101	0.112854
N52	N	1.604745	0.754101	0.612854
C53	C	1.086764	-0.000103	-0.517862
C54	C	1.586764	0.499897	-0.017862
C55	C	1.088796	-0.000112	-0.413553
C56	C	1.588796	0.499888	0.086447
C57	C	1.090422	-0.000119	-0.330416
C58	C	1.590422	0.499881	0.169584
C59	C	1.092455	-0.000125	-0.226101
C60	C	1.592455	0.499875	0.273899
C61	C	1.083162	-0.000108	0.296612
C62	C	1.583162	0.499892	0.796612
C63	C	1.085150	-0.000101	0.398993
C64	C	1.585150	0.499899	0.898993
H65	H	1.171323	-0.480891	0.046103
H66	H	1.671323	0.019109	0.546103
O67	O	0.997659	-0.528372	0.220267
O68	O	1.497659	-0.028372	0.720267
C69	C	0.932105	-0.701740	0.285936
C70	C	1.432105	-0.201740	0.785936
C71	C	1.004451	-0.639664	0.213356
C72	C	1.504451	-0.139664	0.713356
H73	H	0.937559	-0.791730	0.280359
H74	H	1.437559	-0.291730	0.780359
H75	H	0.945660	-0.679783	0.358527
H76	H	1.445660	-0.179783	0.858527
H77	H	0.859485	-0.679650	0.272609
H78	H	1.359485	-0.179650	0.772609
H79	H	1.077100	-0.661720	0.226596
H80	H	1.577100	-0.161720	0.726596
H81	H	0.990816	-0.661626	0.140788
H82	H	1.490816	-0.161626	0.640788
