data_functionalizedCrystal
_audit_creation_method	'MofGen! by Chris Wilmer'
_symmetry_space_group_name_H-M	'P1'
_symmetry_Int_Tables_number	1
_symmetry_cell_setting	triclinic
loop_
_symmetry_equiv_pos_as_xyz
  x,y,z
_cell_length_a	25.639242
_cell_length_b	25.639239
_cell_length_c	12.645323
_cell_angle_alpha	89.968126
_cell_angle_beta	89.976564
_cell_angle_gamma	90.030990
loop_
_atom_site_label
_atom_site_type_symbol
_atom_site_fract_x
_atom_site_fract_y
_atom_site_fract_z
Zn1	Zn	0.799272	-0.208254	-0.599416
Zn2	Zn	0.799182	-0.295693	-0.422134
Zn3	Zn	0.711834	-0.208261	-0.422158
Zn4	Zn	0.711793	-0.295649	-0.599347
O5	O	0.755520	-0.251964	-0.510764
O6	O	0.872425	-0.219868	-0.575918
O7	O	0.787574	-0.284117	-0.273790
O8	O	0.723488	-0.135095	-0.445710
O9	O	0.872359	-0.284109	-0.445670
O10	O	0.787728	-0.135090	-0.575941
O11	O	0.723400	-0.219881	-0.273808
O12	O	0.638664	-0.219838	-0.445644
O13	O	0.723418	-0.284034	-0.747704
O14	O	0.638634	-0.284041	-0.575824
O15	O	0.787688	-0.219825	-0.747754
O16	O	0.787534	-0.368852	-0.445603
O17	O	0.723331	-0.368820	-0.575801
C18	C	0.619678	-0.251936	-0.510730
C19	C	0.561564	-0.251936	-0.510740
C20	C	0.310413	-0.218573	-0.578708
C21	C	0.365017	-0.218568	-0.578702
O22	O	0.393290	-0.190179	-0.636483
N23	N	0.392290	-0.251958	-0.510776
C24	C	0.364955	-0.285359	-0.442860
O25	O	0.393167	-0.313760	-0.385084
C26	C	0.310352	-0.285367	-0.442872
C27	C	0.283082	-0.251971	-0.510794
C28	C	0.283143	-0.185181	-0.646626
C29	C	0.228542	-0.185185	-0.646630
C30	C	0.201212	-0.218583	-0.578717
C31	C	0.228482	-0.251975	-0.510799
C32	C	0.283018	-0.318770	-0.374961
C33	C	0.228411	-0.318775	-0.374980
C34	C	0.201142	-0.285379	-0.442903
C35	C	0.146550	-0.285377	-0.442890
N36	N	0.119278	-0.251987	-0.510815
C37	C	0.146608	-0.218590	-0.578729
C38	C	0.479626	-0.285342	-0.442841
C39	C	0.534228	-0.285332	-0.442822
C40	C	0.534286	-0.218542	-0.578666
C41	C	0.479683	-0.218549	-0.578678
C42	C	0.452353	-0.251952	-0.510766
C43	C	0.031943	-0.218602	-0.578732
C44	C	-0.022662	-0.218608	-0.578727
C45	C	-0.022715	-0.285400	-0.442888
C46	C	0.031885	-0.285392	-0.442888
C47	C	0.059213	-0.251991	-0.510819
O48	O	0.118243	-0.313754	-0.385141
O49	O	0.118390	-0.190199	-0.636505
C50	C	0.755432	-0.387807	-0.510715
C51	C	0.755443	-0.445921	-0.510730
C52	C	0.789038	-0.806288	-0.443086
C53	C	0.789059	-0.860893	-0.443100
O54	O	0.817532	-0.889133	-0.385533
N55	N	0.755612	-0.888203	-0.510834
C56	C	0.722147	-0.860907	-0.578567
O57	O	0.693700	-0.889151	-0.636182
C58	C	0.722130	-0.806304	-0.578557
C59	C	0.755575	-0.778996	-0.510810
C60	C	0.822481	-0.778980	-0.375345
C61	C	0.822460	-0.724380	-0.375330
C62	C	0.788996	-0.697087	-0.443055
C63	C	0.755554	-0.724395	-0.510795
C64	C	0.688668	-0.779008	-0.646294
C65	C	0.688654	-0.724401	-0.646279
C66	C	0.722098	-0.697093	-0.578532
C67	C	0.722069	-0.642502	-0.578505
N68	N	0.755515	-0.615191	-0.510770
C69	C	0.788979	-0.642484	-0.443045
C70	C	0.722186	-0.975577	-0.578583
C71	C	0.722201	-1.030180	-0.578588
C72	C	0.789113	-1.030162	-0.443122
C73	C	0.789096	-0.975558	-0.443113
C74	C	0.755633	-0.948267	-0.510848
C75	C	0.788932	-0.527819	-0.443018
C76	C	0.788906	-0.473213	-0.443005
C77	C	0.721996	-0.473236	-0.578474
C78	C	0.722019	-0.527837	-0.578483
C79	C	0.755492	-0.555127	-0.510751
O80	O	0.693612	-0.614227	-0.636045
O81	O	0.817426	-0.614233	-0.385449
C82	C	0.891893	-0.251993	-0.510799
C83	C	0.950007	-0.252005	-0.510814
C84	C	0.755559	-0.251924	-0.787269
C85	C	0.755575	-0.251907	-0.905100
C86	C	0.755623	-0.115591	-0.510836
C87	C	0.755666	-0.057477	-0.510867
C88	C	0.715018	-0.292110	-1.072632
C89	C	0.715124	-0.292309	-0.950072
C90	C	0.810660	-0.266867	-0.949617
C91	C	0.810438	-0.267119	-1.072215
C92	C	0.741568	-0.196518	-1.072311
C93	C	0.740339	-0.196850	-0.949704
C94	C	0.755512	-0.251967	-0.235334
C95	C	0.755597	-0.251837	-0.117505
H96	H	0.457377	-0.312541	-0.387529
H97	H	0.816189	-0.550032	-0.387866
N98	N	0.825366	-0.317845	-1.108107
N99	N	0.868944	-0.336025	-1.083589
H100	H	0.879488	-0.371851	-1.108934
N101	N	0.688026	-1.058063	-0.647779
N102	N	0.658149	-1.033681	-0.708235
H103	H	0.634013	-1.053371	-0.757107
N104	N	0.059746	-0.319491	-0.373486
N105	N	0.053631	-0.315959	-0.275679
H106	H	0.073305	-0.340044	-0.226666
H107	H	0.816141	-0.450981	-0.387834
N108	N	0.823308	-1.058047	-0.373965
N109	N	0.871549	-1.051908	-0.381098
H110	H	0.895698	-1.071603	-0.332260
N111	N	0.856665	-0.806845	-0.306142
N112	N	0.853215	-0.800769	-0.208318
H113	H	0.877357	-0.820444	-0.159431
H114	H	0.694787	-0.550072	-0.633651
N115	N	0.856628	-0.696498	-0.306123
N116	N	0.886502	-0.720882	-0.245667
H117	H	0.910636	-0.701194	-0.196787
N118	N	0.823261	-0.947675	-0.373903
N119	N	0.853132	-0.972056	-0.313438
H120	H	0.877263	-0.952366	-0.264555
N121	N	0.687997	-0.947710	-0.647782
N122	N	0.658140	-0.972106	-0.708250
H123	H	0.633994	-0.952427	-0.757123
H124	H	0.674276	-0.282946	-0.919971
H125	H	0.661431	-0.801233	-0.701455
N126	N	0.654469	-0.696516	-0.715455
N127	N	0.654451	-0.647764	-0.715437
H128	H	0.630307	-0.628070	-0.764289
N129	N	0.687814	-0.445344	-0.647635
N130	N	0.687805	-0.396591	-0.647603
H131	H	0.663665	-0.376890	-0.696451
N132	N	0.663623	-0.280471	-1.109604
N133	N	0.656299	-0.242360	-1.169461
H134	H	0.620000	-0.234139	-1.195582
H135	H	0.724187	-0.332863	-1.103441
N136	N	0.311063	-0.151060	-0.715984
N137	N	0.359816	-0.151046	-0.715974
H138	H	0.379532	-0.126943	-0.764956
H139	H	0.724384	-0.333319	-0.920748
N140	N	-0.050525	-0.184502	-0.648117
N141	N	-0.099277	-0.184509	-0.648121
H142	H	-0.118955	-0.160424	-0.697128
N143	N	0.310857	-0.352887	-0.305572
N144	N	0.286437	-0.382704	-0.244953
H145	H	0.306097	-0.406802	-0.195944
H146	H	0.206162	-0.345977	-0.319679
H147	H	-0.044978	-0.312589	-0.387590
H148	H	0.841696	-0.239060	-1.101902
H149	H	0.841704	-0.238462	-0.920490
N150	N	0.825834	-0.317065	-0.911098
N151	N	0.796175	-0.341908	-0.850873
H152	H	0.806888	-0.377361	-0.823668
H153	H	0.702101	-0.182883	-1.103217
N154	N	0.562201	-0.184422	-0.648048
N155	N	0.556125	-0.136173	-0.641203
H156	H	0.575840	-0.112076	-0.690201
H157	H	0.771124	-0.166513	-1.101333
N158	N	0.689490	-0.182702	-0.913166
N159	N	0.680744	-0.178923	-0.816221
H160	H	0.644833	-0.168934	-0.790402
N161	N	0.059845	-0.184481	-0.648128
N162	N	0.035482	-0.154671	-0.708757
H163	H	0.055186	-0.130570	-0.757764
N164	N	0.200699	-0.151062	-0.716006
N165	N	0.225117	-0.121244	-0.776625
H166	H	0.205457	-0.097141	-0.825622
N167	N	0.774711	-0.157220	-0.911293
N168	N	0.811161	-0.168962	-0.850151
H169	H	0.835440	-0.140975	-0.823023
H170	H	0.556427	-0.312521	-0.387501
H171	H	0.457484	-0.191355	-0.633986
