data_functionalizedCrystal
_audit_creation_method	'MofGen! by Chris Wilmer'
_symmetry_space_group_name_H-M	'P1'
_symmetry_Int_Tables_number	1
_symmetry_cell_setting	triclinic
loop_
_symmetry_equiv_pos_as_xyz
  x,y,z
_cell_length_a	8.559649
_cell_length_b	11.792241
_cell_length_c	7.681481
_cell_angle_alpha	84.218353
_cell_angle_beta	94.913240
_cell_angle_gamma	76.986040
loop_
_atom_site_label
_atom_site_type_symbol
_atom_site_fract_x
_atom_site_fract_y
_atom_site_fract_z
O1	O	2.104794	-0.026424	-0.146400
O2	O	1.640097	0.032148	-0.146410
O3	O	1.883724	-0.163342	-0.146392
O4	O	1.861167	0.169066	-0.146418
O5	O	1.913710	-0.187452	0.146467
O6	O	1.670083	0.008038	0.146450
O7	O	2.134780	-0.050534	0.146460
Zn8	Zn	1.907192	-0.025076	0.192953
Zn9	Zn	1.867684	0.006690	-0.192903
O10	O	1.891153	0.144956	0.146442
C11	C	1.595598	0.024531	0.000018
C12	C	1.418332	0.037744	0.000015
C13	C	1.897300	-0.217558	0.000037
C14	C	1.893059	-0.343183	0.000035
C15	C	1.885259	-0.573179	0.000005
C16	C	1.889593	-0.445192	0.000022
C17	C	2.179278	-0.042917	0.000027
C18	C	2.356543	-0.056128	0.000019
C19	C	1.877577	0.199172	0.000009
C20	C	1.881816	0.324799	-0.000001
N21	N	1.934167	-0.046757	0.456289
N22	N	1.840722	0.028361	-0.456239
H23	H	1.335608	0.128227	-0.000001
C24	C	1.713716	0.130756	0.443590
C25	C	1.745358	0.236245	0.488262
C26	C	1.628406	0.330597	0.395991
H27	H	1.610004	0.125499	0.473659
H28	H	1.716651	0.128470	0.320613
H29	H	1.742407	0.238530	0.611212
H30	H	1.849048	0.241541	0.458188
H31	H	1.631341	0.328311	0.273014
H32	H	1.524702	0.325328	0.426067
H33	H	1.649868	0.402183	0.426276
H34	H	2.029573	-0.123429	0.531502
C35	C	1.466708	-0.176773	-0.000334
C36	C	1.421850	-0.224715	-0.151023
C37	C	1.523321	-0.335846	-0.151421
H38	H	1.457482	-0.226445	0.101675
H39	H	1.575203	-0.169960	-0.000428
H40	H	1.313382	-0.231535	-0.150913
H41	H	1.431084	-0.175077	-0.253057
H42	H	1.631816	-0.329032	-0.151516
H43	H	1.514088	-0.385507	-0.049406
H44	H	1.492909	-0.368384	-0.253669
