data_functionalizedCrystal
_audit_creation_method	'MofGen! by Chris Wilmer'
_symmetry_space_group_name_H-M	'P1'
_symmetry_Int_Tables_number	1
_symmetry_cell_setting	triclinic
loop_
_symmetry_equiv_pos_as_xyz
  x,y,z
_cell_length_a	35.277628
_cell_length_b	35.288095
_cell_length_c	35.277682
_cell_angle_alpha	59.997929
_cell_angle_beta	89.998958
_cell_angle_gamma	60.000166
loop_
_atom_site_label
_atom_site_type_symbol
_atom_site_fract_x
_atom_site_fract_y
_atom_site_fract_z
O1	O	-0.323087	-0.271234	0.011271
O2	O	-0.267964	-0.193634	-0.011228
O3	O	-0.267962	-0.271233	0.066395
O4	O	-0.323089	-0.193635	-0.066351
O5	O	-0.204915	-0.334261	0.066394
O6	O	-0.204918	-0.256661	-0.011228
O7	O	-0.260040	-0.334261	0.011271
Cu8	Cu	-0.226722	-0.301216	0.000022
Cu9	Cu	-0.301282	-0.226679	0.000022
O10	O	-0.260043	-0.256662	-0.066351
C11	C	-0.163481	-0.071298	-0.023519
C12	C	-0.186872	-0.024531	-0.020298
C13	C	-0.117860	-0.093995	-0.023838
C14	C	-0.163483	-0.139918	-0.023524
C15	C	-0.186875	-0.166518	-0.020308
C16	C	-0.117862	-0.162510	-0.023843
C17	C	-0.094838	-0.139921	-0.023519
C18	C	-0.044836	-0.166525	-0.020298
C19	C	-0.186401	-0.093991	-0.023843
C20	C	-0.004439	-0.188019	-0.017694
C21	C	-0.205769	0.013252	-0.017695
C22	C	-0.205774	-0.188010	-0.017709
C23	C	0.046241	-0.214983	-0.014429
C24	C	-0.229477	0.060653	-0.014430
C25	C	-0.229483	-0.214971	-0.014450
C26	C	-0.500364	-0.466062	0.034181
C27	C	-0.477341	-0.511990	0.034503
C28	C	-0.431722	-0.466060	0.034178
C29	C	-0.408804	-0.511988	0.034500
C30	C	-0.431721	-0.534685	0.034181
C31	C	-0.477342	-0.443470	0.034500
C32	C	-0.665895	-0.342485	0.021756
C33	C	-0.712772	-0.317221	0.018243
C34	C	-0.736287	-0.338907	0.016481
C35	C	-0.787116	-0.311512	0.012664
C36	C	-0.712921	-0.385861	0.018236
C37	C	-0.666047	-0.411125	0.021755
C38	C	-0.642533	-0.389434	0.023515
C39	C	-0.389805	-0.687746	0.021758
C40	C	-0.368199	-0.731097	0.018245
C41	C	-0.322995	-0.752841	0.016478
C42	C	-0.299567	-0.799839	0.012662
C43	C	-0.299393	-0.731235	0.018230
C44	C	-0.320995	-0.687892	0.021751
C45	C	-0.366205	-0.666148	0.023512
C46	C	-0.389808	-0.342477	0.021744
C47	C	-0.368205	-0.317208	0.018222
C48	C	-0.322998	-0.338892	0.016457
C49	C	-0.299573	-0.311495	0.012637
C50	C	-0.299398	-0.385842	0.018210
C51	C	-0.321003	-0.411107	0.021730
C52	C	-0.366208	-0.389423	0.023501
C53	C	-0.591706	-0.416830	0.027326
C54	C	-0.551191	-0.438667	0.030366
C55	C	-0.408299	-0.438663	0.030360
C56	C	-0.389629	-0.416824	0.027317
C57	C	-0.408298	-0.581682	0.030365
C58	C	-0.389627	-0.619146	0.027325
C59	C	-0.432024	-0.061845	-0.438511
C60	C	-0.477645	-0.015917	-0.461431
C61	C	-0.432025	-0.061844	-0.369869
C62	C	-0.477645	-0.015916	-0.392892
C63	C	-0.500668	0.006779	-0.438513
C64	C	-0.409106	-0.084435	-0.392891
C65	C	-0.320834	-0.185425	-0.480424
C66	C	-0.299076	-0.210690	-0.502029
C67	C	-0.322531	-0.189005	-0.547237
C68	C	-0.298945	-0.216401	-0.570661
C69	C	-0.367745	-0.142051	-0.570839
C70	C	-0.389497	-0.116787	-0.549237
C71	C	-0.366040	-0.138476	-0.504027
C72	C	-0.666200	0.159838	-0.549704
C73	C	-0.713077	0.203188	-0.571462
C74	C	-0.736595	0.224934	-0.548009
C75	C	-0.787423	0.271931	-0.571594
C76	C	-0.713230	0.203329	-0.502796
C77	C	-0.666353	0.159987	-0.481041
C78	C	-0.642841	0.138241	-0.504500
C79	C	-0.320836	-0.185423	-0.204335
C80	C	-0.299080	-0.210691	-0.157455
C81	C	-0.322536	-0.189006	-0.133940
C82	C	-0.298950	-0.216402	-0.083110
C83	C	-0.367748	-0.142056	-0.157305
C84	C	-0.389502	-0.116792	-0.204182
C85	C	-0.366040	-0.138478	-0.227695
C86	C	-0.389632	-0.111079	-0.480604
C87	C	-0.408436	-0.089241	-0.461934
C88	C	-0.408437	-0.089240	-0.319041
C89	C	-0.389634	-0.111078	-0.278525
C90	C	-0.551496	0.053776	-0.462102
C91	C	-0.592011	0.091239	-0.480906
O92	O	0.196122	-0.334274	0.011291
O93	O	0.063378	-0.256674	-0.011208
O94	O	0.140994	-0.334276	0.066414
O95	O	0.118506	-0.256671	-0.066331
O96	O	0.140996	-0.271251	0.066419
O97	O	0.063380	-0.193649	-0.011203
O98	O	0.196124	-0.271249	0.011296
Cu99	Cu	0.129752	-0.226694	0.000047
Cu100	Cu	0.129750	-0.301228	0.000041
O101	O	0.118508	-0.193647	-0.066327
O102	O	-0.260036	0.184774	0.011294
O103	O	-0.204910	0.074561	-0.011204
O104	O	-0.204913	0.074554	0.066418
O105	O	-0.260033	0.184781	-0.066328
O106	O	-0.267961	0.074557	0.066413
O107	O	-0.267958	0.074564	-0.011209
O108	O	-0.323083	0.184777	0.011289
Cu109	Cu	-0.301278	0.129670	0.000040
Cu110	Cu	-0.226716	0.129668	0.000045
O111	O	-0.323081	0.184784	-0.066333
O112	O	-0.936929	0.397535	-0.602582
O113	O	-0.804185	0.287317	-0.547454
O114	O	-0.881802	0.287315	-0.547452
O115	O	-0.859312	0.397537	-0.602584
O116	O	-0.881801	0.287314	-0.610498
O117	O	-0.804183	0.287316	-0.610500
O118	O	-0.936927	0.397533	-0.665628
Cu119	Cu	-0.870555	0.342425	-0.643820
Cu120	Cu	-0.870557	0.342426	-0.569261
O121	O	-0.859310	0.397536	-0.665629
O122	O	-0.267961	-0.271234	-0.665316
O123	O	-0.323086	-0.193638	-0.610192
O124	O	-0.323085	-0.271236	-0.610189
O125	O	-0.267962	-0.193636	-0.665319
O126	O	-0.260038	-0.334264	-0.547142
O127	O	-0.260039	-0.256666	-0.547145
O128	O	-0.204914	-0.334262	-0.602269
Cu129	Cu	-0.226720	-0.301219	-0.568950
Cu130	Cu	-0.301280	-0.226681	-0.643511
O131	O	-0.204915	-0.256664	-0.602272
C132	C	-0.094840	-0.456607	0.293255
C133	C	-0.044837	-0.503376	0.316647
C134	C	-0.117862	-0.433912	0.316174
C135	C	-0.163483	-0.387984	0.224612
C136	C	-0.186875	-0.361381	0.174609
C137	C	-0.186401	-0.365393	0.247634
C138	C	-0.163483	-0.387984	0.293255
C139	C	-0.186874	-0.361382	0.316646
C140	C	-0.117862	-0.433912	0.247635
C141	C	-0.205772	-0.339889	0.335543
C142	C	-0.004440	-0.541160	0.335545
C143	C	-0.205773	-0.339888	0.134212
C144	C	-0.229480	-0.312925	0.359250
C145	C	0.046239	-0.588562	0.359254
C146	C	-0.229481	-0.312924	0.083532
C147	C	0.153295	-0.388013	0.293279
C148	C	0.150076	-0.361413	0.316673
C149	C	0.153614	-0.433940	0.316196
C150	C	0.153297	-0.388008	0.224634
C151	C	0.150079	-0.361403	0.174632
C152	C	0.153616	-0.433935	0.247655
C153	C	0.153293	-0.456633	0.293275
C154	C	0.150072	-0.503401	0.316665
C155	C	0.153617	-0.365420	0.247659
C156	C	0.147469	-0.541185	0.335561
C157	C	0.147474	-0.339922	0.335572
C158	C	0.147479	-0.339908	0.134234
C159	C	0.144204	-0.588587	0.359267
C160	C	0.144211	-0.312962	0.359282
C161	C	0.144218	-0.312942	0.083555
C162	C	-0.163482	-0.139963	0.293267
C163	C	-0.186875	-0.166567	0.316654
C164	C	-0.117861	-0.162559	0.316187
C165	C	-0.163482	-0.071333	0.224628
C166	C	-0.186873	-0.024557	0.174627
C167	C	-0.117860	-0.094033	0.247653
C168	C	-0.094838	-0.139967	0.293272
C169	C	-0.044835	-0.166574	0.316665
C170	C	-0.186401	-0.094030	0.247648
C171	C	-0.004438	-0.188070	0.335563
C172	C	-0.205773	-0.188061	0.335549
C173	C	-0.205771	0.013233	0.134231
C174	C	0.046242	-0.215038	0.359273
C175	C	-0.229482	-0.215026	0.359253
C176	C	-0.229479	0.060643	0.083553
C177	C	0.095627	0.006487	-0.438489
C178	C	0.095306	-0.016206	-0.461409
C179	C	0.095623	-0.062137	-0.369847
C180	C	0.095303	-0.084726	-0.392871
C181	C	0.095625	-0.062133	-0.438492
C182	C	0.095305	-0.016210	-0.392868
C183	C	0.108059	0.159543	-0.480399
C184	C	0.111575	0.202893	-0.502003
C185	C	0.113340	0.224640	-0.547210
C186	C	0.117161	0.271637	-0.570634
C187	C	0.111587	0.203038	-0.570814
C188	C	0.108065	0.159695	-0.549212
C189	C	0.106302	0.137948	-0.504002
C190	C	0.108054	-0.116452	-0.549685
C191	C	0.111568	-0.141562	-0.571444
C192	C	0.113332	-0.188519	-0.547992
C193	C	0.117148	-0.215753	-0.571578
C194	C	0.111577	-0.210363	-0.502779
C195	C	0.108055	-0.185249	-0.481023
C196	C	0.106297	-0.138292	-0.504481
C197	C	0.108046	-0.116473	-0.204312
C198	C	0.111564	-0.141591	-0.157432
C199	C	0.113326	-0.188548	-0.133918
C200	C	0.117142	-0.215786	-0.083088
C201	C	0.111574	-0.210388	-0.157283
C202	C	0.108058	-0.185270	-0.204161
C203	C	0.106290	-0.138308	-0.227673
C204	C	0.102487	0.090947	-0.480580
C205	C	0.099445	0.053484	-0.461911
C206	C	0.099438	-0.089371	-0.319019
C207	C	0.102477	-0.111078	-0.278503
C208	C	0.099442	-0.089362	-0.462081
C209	C	0.102482	-0.111066	-0.480886
O210	O	0.118477	-0.256700	0.452885
O211	O	0.140984	-0.334299	0.397762
O212	O	0.063360	-0.256699	0.397752
O213	O	0.196101	-0.334300	0.452895
O214	O	0.063367	-0.193672	0.334708
O215	O	0.140992	-0.271271	0.334718
O216	O	0.118484	-0.193673	0.389842
Cu217	Cu	0.129739	-0.226717	0.356523
Cu218	Cu	0.129730	-0.301254	0.431080
O219	O	0.196108	-0.271272	0.389852
C220	C	-0.500364	0.533998	-0.438484
C221	C	-0.477341	0.556591	-0.461399
C222	C	-0.431721	0.465364	-0.369840
C223	C	-0.408802	0.488061	-0.392859
C224	C	-0.431720	0.533995	-0.438478
C225	C	-0.477342	0.488064	-0.392865
C226	C	-0.665898	0.588334	-0.480407
C227	C	-0.712776	0.613450	-0.502014
C228	C	-0.736291	0.660414	-0.547220
C229	C	-0.787122	0.687654	-0.570647
C230	C	-0.712926	0.682257	-0.570819
C231	C	-0.666050	0.657138	-0.549214
C232	C	-0.642536	0.610174	-0.504006
C233	C	-0.389802	0.657585	-0.549654
C234	C	-0.368196	0.682850	-0.571408
C235	C	-0.322990	0.661164	-0.547952
C236	C	-0.299561	0.688558	-0.571532
C237	C	-0.299388	0.614205	-0.502740
C238	C	-0.320990	0.588935	-0.480990
C239	C	-0.366202	0.610633	-0.504452
C240	C	-0.389804	0.312282	-0.204314
C241	C	-0.368201	0.268929	-0.157436
C242	C	-0.322993	0.247179	-0.133918
C243	C	-0.299567	0.200174	-0.083089
C244	C	-0.299392	0.268786	-0.157278
C245	C	-0.320998	0.312139	-0.204154
C246	C	-0.366204	0.333881	-0.227670
C247	C	-0.591708	0.582942	-0.480581
C248	C	-0.551193	0.561234	-0.461909
C249	C	-0.408297	0.418359	-0.319013
C250	C	-0.389626	0.380890	-0.278499
C251	C	-0.408296	0.561393	-0.462062
C252	C	-0.389624	0.583232	-0.480862
H253	H	-0.371321	-0.530978	0.035012
H254	H	-0.646757	0.550094	-0.443598
H255	H	0.106608	-0.078237	-0.223453
C256	C	-0.738787	-0.409714	0.016299
C257	C	-0.760441	-0.427068	0.053871
C258	C	-0.786306	-0.450923	0.051933
C259	C	-0.790519	-0.457425	0.012423
C260	C	-0.768864	-0.440071	-0.025152
C261	C	-0.742999	-0.416216	-0.023215
H262	H	-0.757323	-0.422255	0.083121
H263	H	-0.802336	-0.463769	0.079749
H264	H	-0.809666	-0.475084	0.010988
H265	H	-0.771982	-0.444883	-0.054403
H266	H	-0.726969	-0.403369	-0.051030
C267	C	-0.092895	-0.459570	0.222663
C268	C	-0.118220	-0.434608	0.172378
C269	C	-0.093255	-0.460264	0.147406
C270	C	-0.042966	-0.510883	0.172721
C271	C	-0.017638	-0.535848	0.223009
C272	C	-0.042603	-0.510191	0.247980
H273	H	-0.155449	-0.397135	0.153636
H274	H	-0.112004	-0.441784	0.110180
H275	H	-0.024485	-0.529875	0.154235
H276	H	0.019591	-0.573321	0.241751
H277	H	-0.023854	-0.528672	0.285207
C278	C	-0.439532	-0.663831	0.023699
C279	C	-0.465491	-0.687595	0.021775
C280	C	-0.515219	-0.663677	0.023715
C281	C	-0.538986	-0.615994	0.027579
C282	C	-0.513027	-0.592227	0.029504
C283	C	-0.463300	-0.616146	0.027564
H284	H	-0.447897	-0.722895	0.018914
H285	H	-0.534435	-0.681270	0.022290
H286	H	-0.575797	-0.598288	0.029015
H287	H	-0.530621	-0.556928	0.032364
H288	H	-0.444083	-0.598552	0.028989
H289	H	-0.223885	-0.074993	-0.024363
C290	C	-0.738477	0.589428	-0.476055
C291	C	-0.760093	0.571954	-0.496147
C292	C	-0.785795	0.547932	-0.470187
C293	C	-0.789881	0.541383	-0.424135
C294	C	-0.768264	0.558857	-0.404040
C295	C	-0.742563	0.582879	-0.430001
H296	H	-0.757069	0.576802	-0.530240
H297	H	-0.801797	0.534996	-0.485063
H298	H	-0.808907	0.523600	-0.404918
H299	H	-0.771288	0.554009	-0.369948
H300	H	-0.726561	0.595814	-0.415125
C301	C	-0.502308	-0.393548	0.035201
C302	C	-0.552596	-0.368582	0.035549
C303	C	-0.577559	-0.318663	0.036252
C304	C	-0.552234	-0.293710	0.036608
C305	C	-0.501944	-0.318676	0.036260
C306	C	-0.476981	-0.368594	0.035557
H307	H	-0.571345	-0.387054	0.035286
H308	H	-0.614787	-0.300182	0.036510
H309	H	-0.570713	-0.256757	0.037129
H310	H	-0.483194	-0.300204	0.036523
H311	H	-0.439752	-0.387075	0.035299
H312	H	-0.099377	-0.452909	0.353658
C313	C	-0.738473	-0.265573	0.016307
C314	C	-0.721373	-0.266011	0.056781
C315	C	-0.747075	-0.214361	0.054844
C316	C	-0.789875	-0.162273	0.012432
C317	C	-0.806976	-0.161832	-0.028044
C318	C	-0.781275	-0.213482	-0.026107
H319	H	-0.689688	-0.304572	0.088179
H320	H	-0.734415	-0.214687	0.084808
H321	H	-0.808901	-0.124038	0.010998
H322	H	-0.838662	-0.123272	-0.059442
H323	H	-0.793935	-0.213156	-0.056071
H324	H	-0.426617	-0.324814	0.023182
H325	H	-0.647026	-0.449354	0.023185
C326	C	0.094593	0.009454	-0.367899
C327	C	0.094227	-0.015504	-0.317616
C328	C	0.093509	0.010163	-0.292649
C329	C	0.093157	0.060787	-0.317964
C330	C	0.093524	0.085748	-0.368250
C331	C	0.094241	0.060081	-0.393217
H332	H	0.094487	-0.052981	-0.298874
H333	H	0.093238	-0.008315	-0.255424
H334	H	0.092626	0.079787	-0.299482
H335	H	0.093263	0.123225	-0.386992
H336	H	0.094513	0.078559	-0.430441
H337	H	-0.495826	0.593550	-0.498882
C338	C	0.113488	-0.117565	-0.131734
C339	C	0.075911	-0.100089	-0.110125
C340	C	0.077831	-0.076059	-0.084428
C341	C	0.117330	-0.069506	-0.080340
C342	C	0.154910	-0.086984	-0.101950
C343	C	0.152989	-0.111013	-0.127647
H344	H	0.046669	-0.104939	-0.113150
H345	H	0.050012	-0.063122	-0.068431
H346	H	0.118751	-0.051718	-0.061318
H347	H	0.184151	-0.082133	-0.098925
H348	H	0.180809	-0.123951	-0.143644
C349	C	0.154315	-0.459596	0.222686
C350	C	0.154663	-0.434633	0.172397
C351	C	0.155364	-0.460294	0.147431
C352	C	0.155718	-0.510920	0.172753
C353	C	0.155371	-0.535887	0.223045
C354	C	0.154669	-0.510225	0.248011
H355	H	0.154401	-0.397154	0.153649
H356	H	0.155621	-0.441812	0.110201
H357	H	0.156237	-0.529916	0.154272
H358	H	0.155633	-0.573365	0.241793
H359	H	0.154412	-0.528707	0.285241
C360	C	-0.237038	-0.315465	0.222664
C361	C	-0.262352	-0.290509	0.247987
C362	C	-0.312986	-0.240581	0.223019
C363	C	-0.338304	-0.215610	0.172728
C364	C	-0.312990	-0.240567	0.147403
C365	C	-0.262356	-0.290494	0.172371
H366	H	-0.243610	-0.308994	0.285218
H367	H	-0.331725	-0.222107	0.241767
H368	H	-0.375786	-0.178651	0.154245
H369	H	-0.331732	-0.222082	0.110172
H370	H	-0.243617	-0.308968	0.153623
C371	C	-0.502614	0.009744	-0.512069
C372	C	-0.520385	0.067942	-0.550260
C373	C	-0.545354	0.093602	-0.600896
C374	C	-0.552552	0.061064	-0.613341
C375	C	-0.534781	0.002861	-0.575149
C376	C	-0.509812	-0.022799	-0.524513
H377	H	-0.515057	0.092033	-0.541048
H378	H	-0.558509	0.136688	-0.629168
H379	H	-0.571035	0.080059	-0.650825
H380	H	-0.540109	-0.021229	-0.584361
H381	H	-0.496657	-0.065884	-0.496241
H382	H	0.106619	-0.078217	-0.568789
H383	H	0.154122	-0.452930	0.353678
C384	C	0.113511	0.226649	-0.476038
C385	C	0.153018	0.191235	-0.429988
C386	C	0.154955	0.214990	-0.404022
C387	C	0.117385	0.274158	-0.424107
C388	C	0.077876	0.309575	-0.470160
C389	C	0.075938	0.285821	-0.496125
H390	H	0.180831	0.147432	-0.415118
H391	H	0.184203	0.188772	-0.369931
H392	H	0.118819	0.291743	-0.404886
H393	H	0.050062	0.353379	-0.485030
H394	H	0.046690	0.312039	-0.530217
C395	C	0.113528	0.226959	-0.620539
C396	C	0.075960	0.286169	-0.659552
C397	C	0.077902	0.310089	-0.709279
C398	C	0.117413	0.274800	-0.719994
C399	C	0.154984	0.215587	-0.680980
C400	C	0.153042	0.191666	-0.631253
H401	H	0.046709	0.312295	-0.651622
H402	H	0.050089	0.353923	-0.738160
H403	H	0.118851	0.292507	-0.756805
H404	H	0.184235	0.189460	-0.688910
H405	H	0.180855	0.147833	-0.602372
H406	H	-0.223884	-0.075035	0.229163
H407	H	0.154133	-0.328462	0.229178
H408	H	-0.386847	-0.124399	-0.138156
H409	H	-0.647028	0.674924	-0.568431
C410	C	0.094605	-0.134652	-0.367905
C411	C	0.094261	-0.159623	-0.317615
C412	C	0.093564	-0.209548	-0.292650
C413	C	0.093212	-0.234501	-0.317975
C414	C	0.093556	-0.209529	-0.368268
C415	C	0.094252	-0.159605	-0.393233
H416	H	0.094522	-0.141152	-0.298865
H417	H	0.093310	-0.228033	-0.255420
H418	H	0.092696	-0.271458	-0.299495
H419	H	0.093294	-0.228001	-0.387018
H420	H	0.094507	-0.141119	-0.430463
H421	H	-0.647059	0.142138	-0.568809
C422	C	-0.358462	-0.134346	-0.367915
C423	C	-0.320282	-0.132071	-0.387949
C424	C	-0.269637	-0.181973	-0.362972
C425	C	-0.257171	-0.234150	-0.317960
C426	C	-0.295351	-0.236427	-0.297923
C427	C	-0.345996	-0.186525	-0.322900
H428	H	-0.329510	-0.093445	-0.421272
H429	H	-0.241373	-0.180288	-0.377805
H430	H	-0.219680	-0.271090	-0.299470
H431	H	-0.286124	-0.275053	-0.264600
H432	H	-0.374260	-0.188211	-0.308067
H433	H	-0.099376	-0.075038	0.229168
C434	C	-0.739095	0.227248	-0.476995
C435	C	-0.743305	0.191957	-0.430979
C436	C	-0.769171	0.215874	-0.405178
C437	C	-0.790828	0.275083	-0.425392
C438	C	-0.786618	0.310378	-0.471411
C439	C	-0.760752	0.286460	-0.497212
H440	H	-0.727273	0.148124	-0.416013
H441	H	-0.772287	0.189747	-0.371112
H442	H	-0.809975	0.292789	-0.406292
H443	H	-0.802650	0.354211	-0.486377
H444	H	-0.757636	0.312588	-0.531278
C445	C	0.113505	-0.117540	-0.621173
C446	C	0.073032	-0.060420	-0.661210
C447	C	0.074971	-0.036398	-0.710938
C448	C	0.117382	-0.069496	-0.720630
C449	C	0.157858	-0.126619	-0.680591
C450	C	0.155919	-0.150641	-0.630863
H451	H	0.041634	-0.035916	-0.654037
H452	H	0.045008	0.005889	-0.740577
H453	H	0.118817	-0.051713	-0.757442
H454	H	0.189256	-0.151123	-0.687764
H455	H	0.185882	-0.192928	-0.601224
C456	C	-0.358164	0.462401	-0.367889
C457	C	-0.332849	0.487366	-0.393209
C458	C	-0.282214	0.461709	-0.368240
C459	C	-0.256895	0.411085	-0.317952
C460	C	-0.282211	0.386117	-0.292629
C461	C	-0.332846	0.411774	-0.317598
H462	H	-0.351591	0.524843	-0.430438
H463	H	-0.263473	0.480192	-0.386986
H464	H	-0.219412	0.392092	-0.299469
H465	H	-0.263468	0.348640	-0.255400
H466	H	-0.351586	0.393291	-0.298852
H467	H	0.106637	0.142110	-0.568432
C468	C	-0.394164	-0.265565	0.016295
C469	C	-0.410811	-0.266019	0.056780
C470	C	-0.436770	-0.214378	0.054856
C471	C	-0.446081	-0.162282	0.012447
C472	C	-0.429433	-0.161825	-0.028041
C473	C	-0.403475	-0.213467	-0.026117
H474	H	-0.403919	-0.304586	0.088176
H475	H	-0.449093	-0.214716	0.084828
H476	H	-0.465297	-0.124054	0.011023
H477	H	-0.436326	-0.123259	-0.059437
H478	H	-0.391151	-0.213129	-0.056088
C479	C	-0.439531	0.336200	-0.230182
C480	C	-0.465493	0.312438	-0.204489
C481	C	-0.515219	0.336357	-0.230359
C482	C	-0.538982	0.384038	-0.281923
C483	C	-0.513019	0.407802	-0.307618
C484	C	-0.463294	0.383883	-0.281748
H485	H	-0.447903	0.277139	-0.166316
H486	H	-0.534438	0.318764	-0.211338
H487	H	-0.575791	0.401744	-0.301073
H488	H	-0.530610	0.443101	-0.345791
H489	H	-0.444075	0.401476	-0.300770
C490	C	-0.394161	-0.754857	0.016311
C491	C	-0.410820	-0.778227	0.056787
C492	C	-0.436783	-0.801986	0.054853
C493	C	-0.446087	-0.802374	0.012442
C494	C	-0.429428	-0.779003	-0.028037
C495	C	-0.403465	-0.755244	-0.026102
H496	H	-0.403933	-0.777941	0.088185
H497	H	-0.449116	-0.819287	0.084818
H498	H	-0.465306	-0.819962	0.011010
H499	H	-0.436315	-0.779290	-0.059435
H500	H	-0.391132	-0.737943	-0.056068
H501	H	-0.099381	-0.199518	0.353671
H502	H	-0.099380	-0.199466	-0.024359
C503	C	-0.439231	-0.065146	-0.229883
C504	C	-0.478328	-0.063623	-0.251494
C505	C	-0.528058	-0.011976	-0.277195
C506	C	-0.538691	0.038148	-0.281286
C507	C	-0.499593	0.036627	-0.259675
C508	C	-0.449863	-0.015020	-0.233974
H509	H	-0.470458	-0.100729	-0.248466
H510	H	-0.557001	-0.010850	-0.293193
H511	H	-0.575504	0.076381	-0.300312
H512	H	-0.507463	0.073734	-0.262703
H513	H	-0.420920	-0.016145	-0.217976
C514	C	-0.738778	0.226947	-0.621191
C515	C	-0.742864	0.191535	-0.631817
C516	C	-0.768565	0.215292	-0.681545
C517	C	-0.790180	0.274461	-0.720647
C518	C	-0.786094	0.309876	-0.710023
C519	C	-0.760393	0.286119	-0.660294
H520	H	-0.726863	0.147732	-0.602870
H521	H	-0.771590	0.189076	-0.689410
H522	H	-0.809205	0.292048	-0.757459
H523	H	-0.802095	0.353679	-0.738970
H524	H	-0.757369	0.312336	-0.652429
H525	H	-0.647332	0.142401	-0.444230
C526	C	-0.092888	-0.068337	-0.024536
C527	C	-0.042603	-0.093299	-0.024890
C528	C	-0.017631	-0.067642	-0.025590
C529	C	-0.042945	-0.017024	-0.025934
C530	C	-0.093233	0.007941	-0.025579
C531	C	-0.118205	-0.017716	-0.024880
H532	H	-0.023862	-0.130772	-0.024635
H533	H	0.019595	-0.086123	-0.025852
H534	H	-0.024459	0.001969	-0.026452
H535	H	-0.111974	0.045414	-0.025834
H536	H	-0.155431	0.000765	-0.024617
C537	C	0.094609	0.009455	-0.512047
C538	C	0.094267	0.060073	-0.537365
C539	C	0.093569	0.085732	-0.588001
C540	C	0.093214	0.060772	-0.613319
C541	C	0.093557	0.010151	-0.588001
C542	C	0.094254	-0.015507	-0.537365
H543	H	0.094530	0.078552	-0.518623
H544	H	0.093316	0.123205	-0.606743
H545	H	0.092698	0.079766	-0.650803
H546	H	0.093294	-0.008328	-0.606743
H547	H	0.094508	-0.052980	-0.518623
H548	H	-0.262268	-0.248920	-0.138435
C549	C	-0.249666	-0.755154	0.016291
C550	C	-0.240050	-0.755583	-0.026120
C551	C	-0.190323	-0.779501	-0.028061
C552	C	-0.150212	-0.802990	0.012410
C553	C	-0.159828	-0.802563	0.054825
C554	C	-0.209554	-0.778645	0.056766
H555	H	-0.269743	-0.738194	-0.056082
H556	H	-0.183205	-0.779817	-0.059460
H557	H	-0.113402	-0.820696	0.010974
H558	H	-0.130134	-0.819952	0.084787
H559	H	-0.216672	-0.778328	0.088164
C560	C	0.113512	-0.262012	-0.476979
C561	C	0.155923	-0.314026	-0.467791
C562	C	0.157861	-0.365677	-0.441991
C563	C	0.117388	-0.365315	-0.425379
C564	C	0.074974	-0.313299	-0.434567
C565	C	0.073036	-0.261648	-0.460367
H566	H	0.185886	-0.314295	-0.480089
H567	H	0.189259	-0.404183	-0.435190
H568	H	0.118823	-0.403551	-0.406280
H569	H	0.045011	-0.313030	-0.422269
H570	H	0.041638	-0.223142	-0.467168
H571	H	-0.262264	-0.248919	-0.482808
H572	H	0.106623	0.141841	-0.443588
H573	H	0.106623	-0.203035	-0.444212
H574	H	-0.495827	-0.530983	0.035020
C575	C	0.113511	-0.262041	-0.131422
C576	C	0.155918	-0.314058	-0.088578
C577	C	0.157855	-0.365709	-0.062719
C578	C	0.117384	-0.365342	-0.079703
C579	C	0.074973	-0.313323	-0.122549
C580	C	0.073036	-0.261672	-0.148408
H581	H	0.185880	-0.314331	-0.076003
H582	H	0.189251	-0.404217	-0.031001
H583	H	0.118818	-0.403577	-0.060560
H584	H	0.045011	-0.313050	-0.135124
H585	H	0.041641	-0.223164	-0.180126
H586	H	-0.646754	-0.324820	0.023190
C587	C	-0.295036	-0.664126	0.023677
C588	C	-0.245312	-0.688039	0.021734
C589	C	-0.219354	-0.664272	0.023658
C590	C	-0.243119	-0.616592	0.027525
C591	C	-0.292846	-0.592676	0.029468
C592	C	-0.318804	-0.616443	0.027544
H593	H	-0.227717	-0.723338	0.018871
H594	H	-0.182543	-0.681976	0.022219
H595	H	-0.223903	-0.598998	0.028949
H596	H	-0.310441	-0.557378	0.032330
H597	H	-0.355615	-0.598739	0.028982
H598	H	0.106630	-0.203055	-0.223182
H599	H	-0.301784	-0.449335	0.023157
H600	H	-0.495832	0.469078	-0.374381
H601	H	-0.732075	0.720493	-0.607626
H602	H	-0.262587	-0.403497	0.016771
H603	H	-0.386837	-0.124397	-0.607648
C604	C	-0.394161	0.245162	-0.131740
C605	C	-0.374069	0.185994	-0.110134
C606	C	-0.400028	0.162225	-0.084438
C607	C	-0.446080	0.197625	-0.080349
C608	C	-0.466174	0.256797	-0.101956
C609	C	-0.440215	0.280565	-0.127651
H610	H	-0.339976	0.159785	-0.113160
H611	H	-0.385153	0.118422	-0.068444
H612	H	-0.465297	0.180030	-0.061328
H613	H	-0.500267	0.283005	-0.098930
H614	H	-0.455090	0.324368	-0.143646
H615	H	-0.496128	0.003076	-0.374407
C616	C	-0.439530	0.681445	-0.575462
C617	C	-0.465489	0.733092	-0.625190
C618	C	-0.515216	0.756950	-0.650996
C619	C	-0.538984	0.729163	-0.627072
C620	C	-0.513025	0.677513	-0.577341
C621	C	-0.463298	0.653655	-0.551536
H622	H	-0.447894	0.753665	-0.642902
H623	H	-0.534432	0.795185	-0.687810
H624	H	-0.575795	0.746824	-0.646175
H625	H	-0.530619	0.656941	-0.559629
H626	H	-0.444081	0.615420	-0.514721
H627	H	-0.301727	-0.203079	-0.223479
H628	H	-0.387416	0.721084	-0.608218
C629	C	-0.249660	0.590344	-0.476937
C630	C	-0.210648	0.572997	-0.497152
C631	C	-0.160921	0.549138	-0.471348
C632	C	-0.150204	0.542625	-0.425328
C633	C	-0.189217	0.559972	-0.405110
C634	C	-0.238944	0.583832	-0.430915
H635	H	-0.218580	0.577817	-0.531221
H636	H	-0.132041	0.536296	-0.486314
H637	H	-0.113393	0.524963	-0.406226
H638	H	-0.181285	0.555152	-0.371042
H639	H	-0.267824	0.596673	-0.415948
H640	H	-0.301729	-0.203089	-0.443614
H641	H	-0.426308	-0.078556	-0.568458
C642	C	-0.249661	0.244863	-0.131413
C643	C	-0.210649	0.185658	-0.109769
C644	C	-0.160920	0.161736	-0.083907
C645	C	-0.150203	0.197020	-0.079687
C646	C	-0.189216	0.256228	-0.101332
C647	C	-0.238945	0.280150	-0.127195
H648	H	-0.218581	0.159536	-0.112892
H649	H	-0.132040	0.117906	-0.067884
H650	H	-0.113391	0.179311	-0.060542
H651	H	-0.181284	0.282350	-0.098209
H652	H	-0.267825	0.323980	-0.143217
H653	H	-0.301770	0.550701	-0.444180
H654	H	-0.301778	0.329728	-0.223172
