data_functionalizedCrystal
_audit_creation_method	'MofGen! by Chris Wilmer'
_symmetry_space_group_name_H-M	'P1'
_symmetry_Int_Tables_number	1
_symmetry_cell_setting	triclinic
loop_
_symmetry_equiv_pos_as_xyz
  x,y,z
_cell_length_a	14.971486
_cell_length_b	11.026607
_cell_length_c	13.448316
_cell_angle_alpha	89.996104
_cell_angle_beta	89.998199
_cell_angle_gamma	96.100073
loop_
_atom_site_label
_atom_site_type_symbol
_atom_site_fract_x
_atom_site_fract_y
_atom_site_fract_z
O1	O	1.212292	0.158181	-0.082572
O2	O	0.954927	0.177123	-0.082599
O3	O	1.062279	-0.009032	-0.082584
O4	O	1.104940	0.344336	-0.082587
O5	O	1.062260	-0.009044	0.082800
O6	O	0.954908	0.177112	0.082785
O7	O	1.212273	0.158169	0.082812
Cu8	Cu	1.083589	0.167639	0.097899
Cu9	Cu	1.083611	0.167653	-0.097686
O10	O	1.104921	0.344324	0.082797
C11	C	0.921457	0.176270	0.000090
C12	C	0.821753	0.173732	0.000079
C13	C	0.782051	0.283093	0.000080
C14	C	0.688368	0.280700	0.000095
C15	C	0.634389	0.168945	0.000102
C16	C	0.674098	0.059576	0.000105
C17	C	0.767779	0.061969	0.000097
C18	C	0.478837	0.054594	0.000118
C19	C	0.385150	0.052200	0.000124
C20	C	0.399426	0.273325	0.000116
C21	C	0.493107	0.275718	0.000109
C22	C	0.532809	0.166348	0.000109
C23	C	1.054400	-0.054260	0.000106
C24	C	1.030939	-0.189008	0.000100
C25	C	1.095719	-0.262720	0.000105
C26	C	1.071472	-0.401989	0.000099
C27	C	1.245743	0.159022	0.000121
C28	C	1.345447	0.161561	0.000125
C29	C	1.112800	0.389552	0.000105
C30	C	1.136261	0.524300	0.000104
N31	N	1.083579	0.167629	0.235463
N32	N	1.083626	0.167654	-0.235251
C33	C	1.131139	0.085233	0.287510
C34	C	1.131145	0.085232	0.391614
C35	C	1.083595	0.167634	0.443668
C36	C	1.036029	0.250033	0.391614
C37	C	1.036019	0.250028	0.287513
C38	C	1.036055	0.250042	0.608594
C39	C	1.036066	0.250049	0.712703
C40	C	1.131181	0.085246	0.712695
C41	C	1.131171	0.085241	0.608594
C42	C	1.083606	0.167642	0.556547
H43	H	0.656047	0.369753	0.000094
H44	H	0.341202	-0.038801	0.000131
H45	H	0.957528	-0.229006	0.000086
H46	H	0.997345	0.317148	0.755080
O47	O	1.177292	0.005036	0.442057
C48	C	1.195749	-0.205898	0.473954
C49	C	1.143422	-0.115207	0.416752
H50	H	1.168372	-0.303134	0.453532
H51	H	1.269956	-0.190000	0.453446
H52	H	1.187616	-0.191689	0.557296
H53	H	1.151481	-0.129362	0.333398
H54	H	1.069235	-0.131128	0.437343
H55	H	1.209677	-0.435709	0.000037
H56	H	1.169129	-0.222722	0.000119
O57	O	0.517260	-0.051760	0.000069
C58	C	0.493219	-0.271338	0.000116
C59	C	0.449588	-0.150989	0.000158
H60	H	0.438527	-0.351596	0.000208
H61	H	0.536686	-0.275816	-0.069120
H62	H	0.536755	-0.275690	0.069306
H63	H	0.406009	-0.146556	-0.068986
H64	H	0.406174	-0.146560	0.069439
H65	H	1.169909	0.018152	0.755078
O66	O	0.545443	0.384355	-0.000037
C67	C	0.586330	0.574050	-0.085765
C68	C	0.526996	0.451071	-0.085712
H69	H	0.571451	0.628013	-0.155036
H70	H	0.571420	0.628184	-0.016600
H71	H	0.660102	0.556952	-0.085724
H72	H	0.453206	0.468057	-0.085787
H73	H	0.541984	0.396975	-0.154870
H74	H	1.169864	0.018138	0.245134
O75	O	1.177274	0.005239	0.557867
C76	C	1.294874	-0.020780	0.439894
C77	C	1.242885	0.070041	0.497372
H78	H	1.347919	0.031576	0.390955
H79	H	1.328922	-0.079847	0.494795
H80	H	1.246214	-0.081320	0.391328
H81	H	1.291485	0.130660	0.545940
H82	H	1.208823	0.129022	0.442418
O83	O	0.806204	-0.044377	0.000047
C84	C	0.782163	-0.263954	0.000110
C85	C	0.738532	-0.143606	0.000139
H86	H	0.727471	-0.344212	0.000205
H87	H	0.825633	-0.268441	-0.069122
H88	H	0.825696	-0.268298	0.069303
H89	H	0.694956	-0.139181	-0.069008
H90	H	0.695115	-0.139169	0.069417
O91	O	0.834387	0.391729	-0.000061
C92	C	0.875276	0.581432	-0.085776
C93	C	0.815942	0.458453	-0.085732
H94	H	0.860398	0.635402	-0.155044
H95	H	0.860364	0.635560	-0.016609
H96	H	0.949047	0.564335	-0.085735
H97	H	0.742152	0.475439	-0.085808
H98	H	0.830931	0.404364	-0.154893
H99	H	0.630141	-0.031417	0.000125
O100	O	0.983854	-0.449545	0.000219
C101	C	0.841764	-0.464079	0.085911
C102	C	0.940963	-0.410118	0.085888
H103	H	0.807062	-0.432244	0.155178
H104	H	0.806972	-0.432128	0.016743
H105	H	0.837835	-0.567898	0.085858
H106	H	0.944974	-0.306297	0.085977
H107	H	0.975710	-0.442164	0.155051
H108	H	0.997319	0.317138	0.566221
O109	O	0.989775	0.329910	0.442289
C110	C	0.871719	0.355476	0.559798
C111	C	0.924042	0.264878	0.502491
H112	H	0.818550	0.302933	0.608469
H113	H	0.920065	0.416187	0.608589
H114	H	0.837766	0.414390	0.504697
H115	H	0.957999	0.205883	0.557519
H116	H	0.875655	0.204251	0.453685
H117	H	0.367096	0.362378	0.000120
H118	H	0.997290	0.317121	0.245137
