data_functionalizedCrystal
_audit_creation_method	'MofGen! by Chris Wilmer'
_symmetry_space_group_name_H-M	'P1'
_symmetry_Int_Tables_number	1
_symmetry_cell_setting	triclinic
loop_
_symmetry_equiv_pos_as_xyz
  x,y,z
_cell_length_a	9.565339
_cell_length_b	14.853567
_cell_length_c	14.853576
_cell_angle_alpha	96.363293
_cell_angle_beta	89.998711
_cell_angle_gamma	89.999413
loop_
_atom_site_label
_atom_site_type_symbol
_atom_site_fract_x
_atom_site_fract_y
_atom_site_fract_z
O1	O	0.116160	-1.196368	0.117697
O2	O	0.116184	-0.933909	0.131719
O3	O	0.116166	-1.072145	-0.006521
O4	O	0.116178	-1.058132	0.255937
O5	O	-0.116354	-1.072134	-0.006513
O6	O	-0.116336	-0.933898	0.131727
O7	O	-0.116360	-1.196357	0.117706
Zn8	Zn	-0.153266	-1.065126	0.124718
Zn9	Zn	0.153090	-1.065140	0.124707
O10	O	-0.116342	-1.058121	0.255946
C11	C	-0.000073	-0.900315	0.131088
C12	C	-0.000064	-0.800231	0.129184
N13	N	-0.362345	-1.065122	0.124725
C14	C	-0.000093	-1.071503	-0.040106
C15	C	-0.000088	-1.069596	-0.140189
C16	C	-0.453540	-1.001174	0.188635
C17	C	-0.546725	-1.082664	0.206231
C18	C	-0.546715	-0.983668	0.107137
C19	C	-0.453479	-1.146654	0.142361
C20	C	-0.453460	-1.047604	0.043232
C21	C	-0.546604	-1.129153	0.060792
N22	N	0.362169	-1.065151	0.124692
C23	C	-0.000100	-1.229951	0.118337
C24	C	-0.000100	-1.330035	0.120241
C25	C	-0.000100	-0.387694	0.039018
C26	C	-0.000091	-0.366418	0.203251
C27	C	-0.000086	-0.460452	0.205041
C28	C	-0.000086	-0.518112	0.123818
C29	C	-0.000091	-0.481737	0.040806
C30	C	-0.000067	-0.496834	0.288052
C31	C	-0.000061	-0.590873	0.289845
C32	C	-0.000071	-0.648534	0.208622
C33	C	-0.000078	-0.612154	0.125606
C34	C	-0.000078	-0.669814	0.044384
C35	C	-0.000094	-0.633436	-0.038633
C36	C	-0.000101	-0.539398	-0.040417
C37	C	-0.000064	-0.742572	0.210406
C38	C	-0.000069	-0.763856	0.046171
C39	C	0.126665	-1.068705	-0.187208
C40	C	-0.126837	-1.068703	-0.187212
C41	C	-0.126837	-1.066916	-0.281247
C42	C	-0.000084	-1.066025	-0.328266
C43	C	0.126669	-1.066921	-0.281252
C44	C	-0.253588	-1.066030	-0.328269
C45	C	-0.253593	-1.064244	-0.422309
C46	C	-0.126838	-1.063346	-0.469330
C47	C	-0.000080	-1.064241	-0.422309
C48	C	0.126673	-1.063349	-0.469329
C49	C	0.253433	-1.064237	-0.422309
C50	C	0.253424	-1.066023	-0.328272
C51	C	-0.126829	-1.061561	-0.563367
C52	C	0.126677	-1.061565	-0.563372
C53	C	-0.000081	-1.058763	0.289530
C54	C	-0.000076	-1.060670	0.389613
H55	H	-0.587691	-1.097500	0.275133
C56	C	-0.000007	-0.725573	0.365514
C57	C	-0.000024	-0.630857	0.381093
H58	H	0.000030	-0.750256	0.421848
H59	H	-0.081097	-0.745354	0.332089
H60	H	0.081073	-0.745343	0.332052
H61	H	-0.081110	-0.611087	0.414550
H62	H	0.081075	-0.611067	0.414533
C63	C	-0.446765	-1.258157	0.247596
C64	C	-0.398487	-1.239689	0.162560
H65	H	-0.412833	-1.315595	0.260070
H66	H	-0.414135	-1.212708	0.292723
H67	H	-0.546072	-1.258706	0.247659
H68	H	-0.299179	-1.239133	0.162500
H69	H	-0.431110	-1.285150	0.117422
H70	H	-0.000118	-0.358071	-0.028572
C71	C	-0.000104	-0.212820	0.273427
C72	C	-0.000095	-0.303042	0.292527
H73	H	-0.000118	-0.173693	0.328547
H74	H	0.080977	-0.201785	0.239401
H75	H	-0.081193	-0.201793	0.239392
H76	H	0.081000	-0.314071	0.326556
H77	H	-0.081185	-0.314082	0.326567
C78	C	-0.366139	-1.068755	-0.184116
C79	C	-0.392908	-1.067010	-0.276585
H80	H	-0.452154	-1.069353	-0.152206
H81	H	-0.314066	-1.121574	-0.175512
H82	H	-0.314059	-1.016511	-0.161914
H83	H	-0.444979	-1.119258	-0.298789
H84	H	-0.445003	-1.014186	-0.285194
C85	C	0.239253	-1.058830	-0.707524
C86	C	0.266010	-1.060583	-0.615054
H87	H	0.325273	-1.058218	-0.739427
H88	H	0.187189	-1.111068	-0.729732
H89	H	0.187168	-1.006006	-0.716124
H90	H	0.318087	-1.113411	-0.606453
H91	H	0.318096	-1.008340	-0.592838
H92	H	-0.356808	-1.063521	-0.460585
H93	H	-0.000053	-0.449881	0.354178
C94	C	-0.317810	-0.865422	0.220669
C95	C	-0.398359	-0.928235	0.261656
H96	H	-0.283751	-0.820395	0.265751
H97	H	-0.241232	-0.895571	0.189770
H98	H	-0.373833	-0.837691	0.178699
H99	H	-0.342334	-0.955972	0.303622
H100	H	-0.474948	-0.898083	0.292570
H101	H	-0.000053	-0.772186	0.277997
C102	C	-0.239381	-1.058837	-0.707522
C103	C	-0.266148	-1.060592	-0.615053
H104	H	-0.325397	-1.058245	-0.739429
H105	H	-0.187322	-1.006013	-0.716123
H106	H	-0.187287	-1.111075	-0.729729
H107	H	-0.318232	-1.008350	-0.592845
H108	H	-0.318229	-1.113422	-0.606447
C109	C	0.469478	-0.986222	-0.441251
C110	C	0.392752	-1.063239	-0.474005
H111	H	0.555485	-0.985605	-0.473167
H112	H	0.417371	-0.933417	-0.449852
H113	H	0.487633	-0.987423	-0.378519
H114	H	0.374588	-1.062035	-0.536736
H115	H	0.444870	-1.116058	-0.465411
C116	C	0.400495	-0.990655	-0.212447
C117	C	0.392731	-1.067044	-0.276574
H118	H	0.486489	-0.991304	-0.180522
H119	H	0.395294	-0.937425	-0.242312
H120	H	0.324976	-0.991441	-0.171007
H121	H	0.468245	-1.066255	-0.318018
H122	H	0.397946	-1.120289	-0.246707
H123	H	0.229870	-1.069424	-0.148921
H124	H	-0.587209	-1.183304	0.006729
H125	H	-0.000074	-0.810798	-0.019971
C126	C	-0.315492	-0.949261	-0.039036
C127	C	-0.398095	-1.027543	-0.049752
H128	H	-0.281303	-0.936873	-0.096440
H129	H	-0.370150	-0.899602	-0.013173
H130	H	-0.238987	-0.958225	-0.000238
H131	H	-0.474606	-1.018576	-0.088546
H132	H	-0.343434	-1.077213	-0.075629
C133	C	-0.682512	-0.901130	0.007863
C134	C	-0.602004	-0.890663	0.087064
H135	H	-0.716648	-0.843711	-0.004519
H136	H	-0.626451	-0.926511	-0.041313
H137	H	-0.759053	-0.940255	0.015714
H138	H	-0.525457	-0.851542	0.079209
H139	H	-0.658068	-0.865268	0.136250
H140	H	-0.000085	-0.680394	-0.104764
C141	C	-0.000097	-0.404694	-0.116076
C142	C	-0.000103	-0.499409	-0.131663
H143	H	-0.000087	-0.380006	-0.172408
H144	H	-0.081178	-0.384918	-0.082634
H145	H	0.080993	-0.384923	-0.082628
H146	H	-0.081200	-0.519180	-0.165105
H147	H	0.080985	-0.519193	-0.165119
H148	H	-0.230033	-1.069436	-0.148924
