data_functionalizedCrystal
_audit_creation_method	'MofGen! by Chris Wilmer'
_symmetry_space_group_name_H-M	'P1'
_symmetry_Int_Tables_number	1
_symmetry_cell_setting	triclinic
loop_
_symmetry_equiv_pos_as_xyz
  x,y,z
_cell_length_a	17.038278
_cell_length_b	17.019294
_cell_length_c	14.750779
_cell_angle_alpha	73.621426
_cell_angle_beta	103.571787
_cell_angle_gamma	87.243447
loop_
_atom_site_label
_atom_site_type_symbol
_atom_site_fract_x
_atom_site_fract_y
_atom_site_fract_z
O1	O	1.016880	0.190402	-0.095569
O2	O	1.516880	0.690402	0.404431
O3	O	0.789300	0.187639	-0.095341
O4	O	1.289300	0.687639	0.404659
O5	O	0.911488	0.072689	-0.085835
O6	O	1.411488	0.572689	0.414165
O7	O	0.894692	0.305353	-0.105076
O8	O	1.394692	0.805353	0.394924
O9	O	0.946028	0.040197	0.076503
O10	O	1.446028	0.540197	0.576503
O11	O	0.823841	0.155148	0.066996
O12	O	1.323841	0.655148	0.566996
O13	O	1.051421	0.157911	0.066768
O14	O	1.551421	0.657911	0.566768
Zn15	Zn	0.943115	0.151371	0.092657
Zn16	Zn	1.443115	0.651371	0.592657
Zn17	Zn	0.897606	0.194179	-0.121230
Zn18	Zn	1.397606	0.694179	0.378770
O19	O	0.929233	0.272861	0.057262
O20	O	1.429233	0.772861	0.557262
C21	C	0.777489	0.168878	-0.013965
C22	C	1.277489	0.668878	0.486035
C23	C	0.690834	0.161375	-0.013344
C24	C	1.190834	0.661375	0.486656
C25	C	0.928802	0.026527	-0.002194
C26	C	1.428802	0.526527	0.497806
C27	C	0.928925	-0.062615	0.005172
C28	C	1.428925	0.437385	0.505172
C29	C	0.201272	0.115276	-0.009536
C30	C	0.701272	0.615276	0.490464
C31	C	0.282693	0.122332	-0.010114
C32	C	0.782693	0.622332	0.489886
C33	C	0.312725	0.198290	-0.016400
C34	C	0.812725	0.698290	0.483600
C35	C	0.261332	0.267196	-0.022098
C36	C	0.761332	0.767196	0.477902
C37	C	0.179914	0.260138	-0.021514
C38	C	0.679914	0.760138	0.478486
C39	C	0.558023	0.223222	-0.018459
C40	C	1.058023	0.723222	0.481541
C41	C	0.639447	0.230276	-0.019046
C42	C	1.139447	0.730276	0.480954
C43	C	0.660803	0.085410	-0.007059
C44	C	1.160803	0.585410	0.492941
C45	C	0.579381	0.078360	-0.006481
C46	C	1.079381	0.578360	0.493519
C47	C	0.527996	0.147265	-0.012174
C48	C	1.027996	0.647265	0.487826
C49	C	0.395950	0.205505	-0.016993
C50	C	0.895950	0.705505	0.483007
C51	C	0.444775	0.140048	-0.011574
C52	C	0.944775	0.640048	0.488426
C53	C	0.910157	-0.086778	-0.079857
C54	C	1.410157	0.413222	0.420143
C55	C	0.910268	-0.170536	-0.072933
C56	C	1.410268	0.329464	0.427067
C57	C	0.929154	-0.230130	0.019021
C58	C	1.429154	0.269870	0.519021
C59	C	0.947921	-0.205962	0.104056
C60	C	1.447921	0.294038	0.604056
C61	C	0.947804	-0.122205	0.097131
C62	C	1.447804	0.377795	0.597131
C63	C	0.930444	-0.483908	0.044357
C64	C	1.430444	0.016092	0.544357
C65	C	0.930562	-0.567670	0.051275
C66	C	1.430562	-0.067670	0.551275
C67	C	0.892907	-0.532238	-0.125715
C68	C	1.392907	-0.032238	0.374285
C69	C	0.892797	-0.448482	-0.132632
C70	C	1.392797	0.051518	0.367368
C71	C	0.911560	-0.424321	-0.047596
C72	C	1.411560	0.075679	0.452404
C73	C	0.929270	-0.315745	0.026101
C74	C	1.429270	0.184255	0.526101
C75	C	0.911438	-0.338707	-0.054677
C76	C	1.411438	0.161293	0.445323
C77	C	1.063232	0.176672	-0.014611
C78	C	1.563232	0.676672	0.485389
C79	C	1.149885	0.184177	-0.015237
C80	C	1.649885	0.684177	0.484763
C81	C	0.911918	0.319024	-0.026381
C82	C	1.411918	0.819024	0.473619
C83	C	0.911793	0.408166	-0.033754
C84	C	1.411793	0.908166	0.466246
N85	N	0.974179	0.122155	0.238629
N86	N	1.474179	0.622155	0.738629
N87	N	0.866548	0.223389	-0.267201
N88	N	1.366548	0.723389	0.232799
C89	C	0.779790	0.304950	0.575329
C90	C	1.279790	0.804950	1.075329
C91	C	0.801563	0.284483	0.677521
C92	C	1.301563	0.784483	1.177521
C93	C	0.909782	0.182736	0.685898
C94	C	1.409782	0.682736	1.185898
C95	C	0.888014	0.203191	0.583706
C96	C	1.388014	0.703191	1.083706
C97	C	0.823019	0.264299	0.528429
C98	C	1.323019	0.764299	1.028429
C99	C	0.931243	0.162541	0.536805
C100	C	1.431243	0.662541	1.036805
C101	C	0.909480	0.182999	0.434621
C102	C	1.409480	0.682999	0.934621
C103	C	0.844489	0.244106	0.379337
C104	C	1.344489	0.744106	0.879337
C105	C	0.801256	0.284757	0.426245
C106	C	1.301256	0.784757	0.926245
C107	C	0.996243	0.101438	0.592083
C108	C	1.496243	0.601438	1.092083
C109	C	1.039471	0.060787	0.545183
C110	C	1.539471	0.560787	1.045183
C111	C	1.017705	0.081240	0.442997
C112	C	1.517705	0.581240	0.942997
C113	C	0.952713	0.142348	0.387713
C114	C	1.452713	0.642348	0.887713
C115	C	1.060938	0.040590	0.396090
C116	C	1.560938	0.540590	0.896090
C117	C	1.039175	0.061047	0.293905
C118	C	1.539175	0.561047	0.793905
C119	C	0.930951	0.162805	0.285529
C120	C	1.430951	0.662805	0.785529
H121	H	0.176826	0.053424	-0.004423
H122	H	0.676826	0.553424	0.495577
H123	H	0.944650	-0.364275	0.100970
H124	H	1.444650	0.135725	0.600970
N125	N	0.873718	-0.556919	-0.212570
N126	N	1.373718	-0.056919	0.287430
N127	N	0.805950	-0.532069	-0.272891
N128	N	1.305950	-0.032069	0.227109
H129	H	0.792392	-0.549499	-0.334237
H130	H	1.292392	-0.049499	0.165763
H131	H	0.702649	0.029312	-0.002422
H132	H	1.202649	0.529312	0.497578
N133	N	0.414097	0.062465	-0.005174
N134	N	0.914097	0.562465	0.494826
N135	N	0.415771	0.028455	-0.069662
N136	N	0.915771	0.528455	0.430338
H137	H	0.394098	-0.026338	-0.065147
H138	H	0.894098	0.473662	0.434853
H139	H	0.945738	-0.464249	0.113599
H140	H	1.445738	0.035751	0.613599
H141	H	0.963077	-0.102533	0.166371
H142	H	1.463077	0.397467	0.666371
N143	N	0.757409	0.326006	0.725440
N144	N	1.257409	0.826006	1.225440
N145	N	0.793390	0.366085	0.778198
N146	N	1.293390	0.866085	1.278198
H147	H	0.762208	0.395412	0.812040
H148	H	1.262208	0.895412	1.312040
N149	N	0.548718	0.000766	-0.000068
N150	N	1.048718	0.500766	0.499932
N151	N	0.594608	-0.060748	0.005018
N152	N	1.094608	0.439252	0.505018
H153	H	0.572952	-0.115550	0.009541
H154	H	1.072952	0.384450	0.509541
H155	H	0.878019	0.212559	0.240521
H156	H	1.378019	0.712559	0.740521
H157	H	0.826773	0.260764	0.296132
H158	H	1.326773	0.760764	0.796132
N159	N	0.734854	0.347173	0.369787
N160	N	1.234854	0.847173	0.869787
N161	N	0.696256	0.383460	0.411671
N162	N	1.196256	0.883460	0.911671
H163	H	0.649362	0.427540	0.371799
H164	H	1.149362	0.927540	0.871799
H165	H	0.962704	0.132983	0.730916
H166	H	1.462704	0.632983	1.230916
H167	H	1.092394	0.011035	0.590200
H168	H	1.592394	0.511035	1.090200
H169	H	0.726858	0.354704	0.530321
H170	H	1.226858	0.854704	1.030321
H171	H	1.013962	0.084787	0.675288
H172	H	1.513962	0.584787	1.175288
H173	H	0.945938	-0.616192	0.126159
H174	H	1.445938	-0.116192	0.626159
N175	N	0.335172	0.051942	-0.004287
N176	N	0.835172	0.551942	0.495713
N177	N	0.308347	-0.015871	0.001318
N178	N	0.808347	0.484129	0.501318
H179	H	0.345410	-0.065588	0.005433
H180	H	0.845410	0.434412	0.505433
N181	N	0.890859	-0.025897	-0.173780
N182	N	1.390859	0.474103	0.326220
N183	N	0.890754	0.048884	-0.179954
N184	N	1.390754	0.548884	0.320046
H185	H	0.877122	0.091882	-0.246289
H186	H	1.377122	0.591882	0.253711
N187	N	1.127337	-0.021813	0.452572
N188	N	1.627337	0.478187	0.952572
N189	N	1.146768	-0.040061	0.543806
N190	N	1.646768	0.459939	1.043806
H191	H	1.193665	-0.084131	0.583698
H192	H	1.693665	0.415869	1.083698
H193	H	1.074378	0.027946	0.255719
H194	H	1.574378	0.527946	0.755719
H195	H	0.663898	0.292130	-0.024151
H196	H	1.163898	0.792130	0.475849
H197	H	0.894988	-0.190205	-0.142173
H198	H	1.394988	0.309795	0.357827
H199	H	0.516194	0.279331	-0.023100
H200	H	1.016194	0.779331	0.476900
H201	H	0.963294	-0.254490	0.178927
H202	H	1.463294	0.245510	0.678927
H203	H	0.138076	0.316244	-0.026153
H204	H	0.638076	0.816244	0.473847
N205	N	0.292021	0.344778	-0.028508
N206	N	0.792021	0.844778	0.471492
N207	N	0.364717	0.351071	-0.029030
N208	N	0.864717	0.851071	0.470970
H209	H	0.386391	0.405866	-0.033559
H210	H	0.886391	0.905866	0.466441
N211	N	0.892158	-0.277827	-0.148594
N212	N	1.392158	0.222173	0.351406
N213	N	0.943043	-0.230772	-0.171885
N214	N	1.443043	0.269228	0.328115
H215	H	0.929431	-0.187768	-0.238215
H216	H	1.429431	0.312232	0.261785
H217	H	0.877419	-0.399964	-0.207510
H218	H	1.377419	0.100036	0.292490
N219	N	0.426633	0.283090	-0.023402
N220	N	0.926633	0.783090	0.476598
N221	N	0.484242	0.289492	0.043367
N222	N	0.984242	0.789492	0.543367
H223	H	0.505915	0.344285	0.038844
H224	H	1.005915	0.844285	0.538844
