data_functionalizedCrystal
_audit_creation_method	'MofGen! by Chris Wilmer'
_symmetry_space_group_name_H-M	'P1'
_symmetry_Int_Tables_number	1
_symmetry_cell_setting	triclinic
loop_
_symmetry_equiv_pos_as_xyz
  x,y,z
_cell_length_a	12.645331
_cell_length_b	12.645330
_cell_length_c	19.805399
_cell_angle_alpha	89.976144
_cell_angle_beta	89.988119
_cell_angle_gamma	90.011881
loop_
_atom_site_label
_atom_site_type_symbol
_atom_site_fract_x
_atom_site_fract_y
_atom_site_fract_z
Zn1	Zn	1.620728	-0.422086	-0.382598
Zn2	Zn	1.620637	-0.599364	-0.269417
Zn3	Zn	1.443455	-0.422112	-0.269438
Zn4	Zn	1.443440	-0.599305	-0.382579
O5	O	1.532065	-0.510717	-0.326008
O6	O	1.769063	-0.445615	-0.367584
O7	O	1.597102	-0.575887	-0.174704
O8	O	1.467014	-0.273762	-0.284466
O9	O	1.768996	-0.575861	-0.284430
O10	O	1.597256	-0.273742	-0.367604
O11	O	1.466926	-0.445661	-0.174719
O12	O	1.295105	-0.445604	-0.284447
O13	O	1.466989	-0.575761	-0.477298
O14	O	1.295095	-0.575787	-0.367572
O15	O	1.597242	-0.445558	-0.477312
O16	O	1.597088	-0.747703	-0.284412
O17	O	1.466901	-0.747660	-0.367552
C18	C	1.256635	-0.510693	-0.326010
C19	C	1.138805	-0.510708	-0.326027
C20	C	0.971270	-0.593055	-0.378048
C21	C	1.093830	-0.592789	-0.378265
C22	C	1.094315	-0.399055	-0.345517
C23	C	0.971717	-0.399557	-0.345883
C24	C	0.971570	-0.539115	-0.254351
C25	C	1.094176	-0.541557	-0.254738
C26	C	1.532012	-0.786146	-0.325992
C27	C	1.532086	-0.903977	-0.326008
C28	C	1.613855	-1.071523	-0.273599
C29	C	1.614121	-0.948963	-0.273727
C30	C	1.562379	-0.948365	-0.397352
C31	C	1.563027	-1.070963	-0.397074
C32	C	1.419993	-1.071301	-0.307776
C33	C	1.420530	-0.948696	-0.306176
C34	C	1.808570	-0.510742	-0.326007
C35	C	1.926400	-0.510752	-0.326006
C36	C	1.532124	-0.510650	-0.502551
C37	C	1.532150	-0.510622	-0.577783
C38	C	1.532147	-0.234212	-0.326039
C39	C	1.532182	-0.116381	-0.326052
C40	C	1.599974	-0.442822	-0.613136
C41	C	1.599985	-0.442791	-0.683824
C42	C	1.532176	-0.510566	-0.719159
C43	C	1.464344	-0.578369	-0.683801
C44	C	1.464329	-0.578394	-0.613114
C45	C	1.464404	-0.578270	-0.968875
C46	C	1.464427	-0.578242	-1.039567
C47	C	1.600060	-0.442668	-1.039585
C48	C	1.600045	-0.442692	-0.968897
C49	C	1.532209	-0.510491	-0.933546
C50	C	1.532197	-0.510522	-0.856898
C51	C	1.532193	-0.510541	-0.795806
C52	C	1.532067	-0.510707	-0.150152
C53	C	1.532247	-0.510437	-0.074921
H54	H	0.940657	-0.619144	-0.236637
H55	H	1.123267	-0.623717	-0.240038
C56	C	1.674599	-0.368208	-0.722709
N57	N	1.730801	-0.312028	-0.751996
C58	C	1.725508	-1.113060	-0.289735
N59	N	1.809602	-1.144356	-0.301886
C60	C	0.931614	-0.313900	-0.296916
N61	N	0.901413	-0.249379	-0.260037
H62	H	1.409130	-0.633549	-0.712576
C63	C	1.588478	-0.908421	-0.202266
N64	N	1.569154	-0.877890	-0.148439
C65	C	1.484468	-0.908989	-0.451567
N66	N	1.425786	-0.879326	-0.492401
H67	H	1.643457	-0.917580	-0.413093
C68	C	1.333884	-0.907340	-0.354004
N69	N	1.268624	-0.876191	-0.390034
H70	H	1.645032	-1.099478	-0.412556
C71	C	1.726381	-0.909233	-0.290053
N72	N	1.810941	-0.879309	-0.302349
C73	C	1.389719	-0.652980	-0.574227
N74	N	1.333518	-0.709160	-0.544938
C75	C	0.932358	-0.458134	-0.201966
N76	N	0.902817	-0.397137	-0.162514
H77	H	1.506146	-1.100633	-0.437502
H78	H	1.123172	-0.574019	-0.431359
C79	C	1.135520	-0.466435	-0.199544
N80	N	1.166656	-0.409842	-0.157974
C81	C	1.133629	-0.313966	-0.295892
N82	N	1.163227	-0.249881	-0.258507
C83	C	1.134470	-0.704647	-0.361767
N84	N	1.165076	-0.788904	-0.349343
H85	H	1.595139	-1.101071	-0.220543
C86	C	1.135804	-0.365962	-0.415520
N87	N	1.167051	-0.341043	-0.468249
C88	C	1.674668	-0.368074	-1.078477
N89	N	1.730860	-0.311891	-1.107770
C90	C	1.382781	-1.113177	-0.238714
N91	N	1.354765	-1.144717	-0.186694
H92	H	1.397689	-0.919695	-0.253673
C93	C	1.337782	-1.110497	-0.359385
N94	N	1.275869	-1.140026	-0.398259
H95	H	0.943135	-0.375499	-0.398266
H96	H	1.655195	-0.387635	-0.584371
C97	C	1.389821	-0.652797	-1.078434
N98	N	1.333630	-0.708947	-1.107708
C99	C	0.931432	-0.705283	-0.361733
N100	N	0.901417	-0.789816	-0.349445
H101	H	1.655265	-0.387506	-0.940131
H102	H	1.409184	-0.633491	-0.940100
H103	H	0.940472	-0.574528	-0.430833
