data_functionalizedCrystal
_audit_creation_method	'MofGen! by Chris Wilmer'
_symmetry_space_group_name_H-M	'P1'
_symmetry_Int_Tables_number	1
_symmetry_cell_setting	triclinic
loop_
_symmetry_equiv_pos_as_xyz
  x,y,z
_cell_length_a	27.440280
_cell_length_b	19.377369
_cell_length_c	19.377574
_cell_angle_alpha	82.425876
_cell_angle_beta	104.494453
_cell_angle_gamma	48.634130
loop_
_atom_site_label
_atom_site_type_symbol
_atom_site_fract_x
_atom_site_fract_y
_atom_site_fract_z
Zr1	Zr	0.381019	0.779799	0.049397
O2	O	0.269366	0.928458	-0.037200
O3	O	0.424760	0.631153	0.057062
O4	O	0.384763	0.779800	-0.064415
O5	O	0.330092	0.779807	0.201578
O6	O	0.464970	0.779786	-0.064402
O7	O	0.309362	0.779811	0.084276
O8	O	0.536517	0.513885	0.152897
O9	O	0.258545	1.045708	-0.015721
O10	O	0.491779	0.692279	0.083153
O11	O	0.447392	0.692286	0.170685
O12	O	0.400301	0.867298	0.027662
O13	O	0.355913	0.867305	0.115194
Zr14	Zr	0.542001	0.779770	0.236500
Zr15	Zr	0.508940	0.779777	0.049417
Zr16	Zr	0.414080	0.779792	0.236481
Zr17	Zr	0.363761	0.966800	0.083655
Zr18	Zr	0.559259	0.592770	0.202243
O19	O	0.498260	0.928417	0.228836
O20	O	0.451252	0.928427	-0.037173
O21	O	0.316374	0.928448	0.228808
O22	O	0.653654	0.631112	0.323098
O23	O	0.606646	0.631122	0.057089
O24	O	0.471768	0.631143	0.323070
O25	O	0.592928	0.779763	0.084319
O26	O	0.538257	0.779770	0.350312
O27	O	0.458050	0.779784	0.350300
O28	O	0.613658	0.779758	0.201621
O29	O	0.360224	1.045691	-0.015705
O30	O	0.562796	0.513879	0.301603
O31	O	0.664475	0.513862	0.301618
O32	O	0.638197	0.513867	0.152912
O33	O	0.284824	1.045703	0.132986
O34	O	0.386503	1.045685	0.133001
O35	O	0.522719	0.692272	0.258235
O36	O	0.567107	0.692265	0.170703
O37	O	0.475628	0.867284	0.115213
O38	O	0.431241	0.867291	0.202745
C39	C	0.483097	0.545875	0.100098
C40	C	0.490424	0.466488	0.085555
C41	C	0.301501	0.779812	0.142924
C42	C	0.247196	0.779822	0.142916
C43	C	0.398969	0.205104	0.266427
C44	C	0.405946	0.130418	0.252823
C45	C	0.452283	0.130420	0.161447
C46	C	0.445313	0.205105	0.175045
C47	C	0.418655	0.242442	0.227535
C48	C	0.464999	0.242442	0.136153
C49	C	0.458026	0.317124	0.149748
C50	C	0.431367	0.354469	0.202234
C51	C	0.411682	0.317124	0.241130
C52	C	0.491652	0.205108	0.083659
C53	C	0.511338	0.242446	0.044768
C54	C	0.504370	0.317124	0.058366
C55	C	0.477711	0.354469	0.110852
C56	C	0.524055	0.354469	0.019470
C57	C	0.517082	0.429151	0.033065
C58	C	0.470738	0.429151	0.124447
C59	C	-0.041735	0.688410	0.171935
C60	C	-0.092752	0.688405	0.171942
O61	O	-0.078525	0.610708	0.196603
N62	N	-0.166019	0.779762	0.142975
C63	C	-0.188269	0.871130	0.114008
O64	O	-0.255274	0.948836	0.089370
C65	C	-0.137252	0.871135	0.114006
C66	C	-0.063986	0.779772	0.142967
C67	C	0.031528	0.597055	0.200895
C68	C	0.082541	0.597061	0.200887
C69	C	0.060290	0.688422	0.171919
C70	C	-0.012973	0.779778	0.142959
C71	C	-0.159502	0.962502	0.085044
C72	C	-0.108477	0.962499	0.085046
C73	C	-0.035210	0.871136	0.114007
C74	C	0.015789	0.871145	0.113983
N75	N	0.089057	0.779788	0.142950
C76	C	0.111307	0.688427	0.171918
C77	C	-0.295405	0.871114	0.114014
C78	C	-0.346423	0.871110	0.114010
C79	C	-0.250901	0.688384	0.171945
C80	C	-0.199884	0.688389	0.171944
C81	C	-0.222137	0.779757	0.142980
C82	C	0.218434	0.688446	0.171898
C83	C	0.269446	0.688460	0.171884
C84	C	0.173921	0.871185	0.113952
C85	C	0.122912	0.871172	0.113962
C86	C	0.145174	0.779794	0.142940
O87	O	0.001616	0.948802	0.089338
O88	O	0.178312	0.610734	0.196560
C89	C	0.621519	0.779758	0.142973
C90	C	0.675824	0.779748	0.142981
C91	C	0.420156	0.779794	-0.091064
C92	C	0.406121	0.779797	-0.170486
C93	C	0.439923	1.013695	0.185799
C94	C	0.432596	1.093081	0.200342
C95	C	0.580878	0.779762	-0.431680
C96	C	0.567674	0.779766	-0.506310
C97	C	0.479306	0.779781	-0.506305
C98	C	0.492500	0.779782	-0.431675
C99	C	0.543288	0.779771	-0.394369
C100	C	0.454910	0.779791	-0.394364
C101	C	0.468106	0.779786	-0.319739
C102	C	0.518893	0.779772	-0.282427
C103	C	0.556484	0.779766	-0.319744
C104	C	0.404127	0.779795	-0.431670
C105	C	0.366536	0.779804	-0.394358
C106	C	0.379728	0.779806	-0.319735
C107	C	0.430515	0.779792	-0.282422
C108	C	0.342137	0.779812	-0.282417
C109	C	0.355333	0.779808	-0.207792
C110	C	0.443711	0.779787	-0.207797
C111	C	0.502864	0.779776	0.376961
C112	C	0.516899	0.779773	0.456383
C113	C	0.643106	0.545848	0.100122
C114	C	0.704738	0.466452	0.085588
C115	C	0.524451	0.545867	0.334111
C116	C	0.545813	0.466477	0.398990
C117	C	0.684460	0.545839	0.334135
C118	C	0.760128	0.466440	0.399022
C119	C	0.238560	1.013731	-0.048238
C120	C	0.162893	1.093130	-0.113125
C121	C	0.279914	1.013722	0.185775
C122	C	0.218282	1.093118	0.200310
C123	C	0.398569	1.013703	-0.048213
C124	C	0.377207	1.093093	-0.113092
C125	C	0.694360	0.429174	0.033054
C126	C	0.752261	0.354583	0.019381
C127	C	0.820541	0.317267	0.058247
C128	C	0.830918	0.354552	0.110784
C129	C	0.773016	0.429147	0.124452
C130	C	0.595166	0.429188	0.475165
C131	C	0.615236	0.354603	0.536135
C132	C	0.585956	0.317304	0.520926
C133	C	0.536596	0.354600	0.444743
C134	C	0.516524	0.429189	0.383776
C135	C	0.818837	0.429150	0.383803
C136	C	0.889937	0.354556	0.444766
C137	C	0.902327	0.317249	0.520946
C138	C	0.843610	0.354547	0.536165
C139	C	0.772511	0.429144	0.475204
C140	C	0.104182	1.130429	-0.097904
C141	C	0.033080	1.205046	-0.158862
C142	C	0.020690	1.242357	-0.235042
C143	C	0.079407	1.205054	-0.250262
C144	C	0.150507	1.130444	-0.189303
C145	C	0.228658	1.130404	0.252837
C146	C	0.170752	1.205015	0.266493
C147	C	0.102471	1.242334	0.227625
C148	C	0.092095	1.205045	0.175091
C149	C	0.149999	1.130440	0.161432
C150	C	0.406501	1.130368	-0.097859
C151	C	0.386443	1.204954	-0.158814
C152	C	0.337087	1.242267	-0.235001
C153	C	0.307794	1.204984	-0.250233
C154	C	0.327856	1.130395	-0.189279
H155	H	0.449031	0.459553	0.167190
H156	H	0.267607	1.235377	-0.312272
H157	H	0.303995	1.100054	-0.201693
H158	H	-0.014720	1.235405	-0.146455
N159	N	0.213833	1.090202	-0.205720
H160	H	0.207538	1.147109	-0.228261
H161	H	0.215596	1.059253	-0.244337
H162	H	0.036493	1.235442	0.143448
N163	N	0.314788	0.779820	-0.167549
H164	H	0.285823	0.841946	-0.156282
H165	H	0.350810	0.717647	-0.116919
N166	N	0.459743	1.090116	-0.015692
H167	H	0.435726	1.103100	0.019687
H168	H	0.475242	1.125066	-0.015370
H169	H	0.155815	0.945570	0.090364
N170	N	0.953253	0.314332	0.428328
H171	H	0.987838	0.239450	0.443540
H172	H	0.979678	0.327381	0.459617
H173	H	-0.037208	1.303109	-0.284672
H174	H	0.602306	0.256569	0.570576
N175	N	0.620721	0.469409	-0.008872
H176	H	0.585608	0.522319	0.007754
H177	H	0.625499	0.412434	0.004684
N178	N	-0.120861	0.589852	0.203189
H179	H	-0.105330	0.585778	0.160534
H180	H	-0.114567	0.532034	0.221547
H181	H	0.049658	0.522653	0.224488
H182	H	0.960224	0.256507	0.570578
H183	H	0.141542	1.100084	0.118661
N184	N	0.302299	1.090163	0.294764
H185	H	0.300074	1.125118	0.330107
H186	H	0.316216	1.103140	0.255184
N187	N	0.505029	0.314352	0.428349
H188	H	0.518457	0.283392	0.389724
H189	H	0.450248	0.371300	0.405834
H190	H	0.781477	0.459489	0.167234
H191	H	0.655429	0.324245	0.598161
H192	H	0.853710	0.324161	0.598200
H193	H	0.743799	0.324234	-0.023398
N194	N	0.424525	0.779802	-0.546544
H195	H	0.439972	0.717680	-0.513858
H196	H	0.421889	0.779842	-0.599480
N197	N	0.423857	0.435009	0.216900
H198	H	0.454949	0.409108	0.274030
H199	H	0.371200	0.496858	0.202157
N200	N	0.389894	0.779808	-0.512160
H201	H	0.336892	0.841940	-0.549829
H202	H	0.401884	0.717641	-0.510372
H203	H	0.724713	0.459496	0.487606
N204	N	0.882989	0.236813	0.043501
H205	H	0.866047	0.218863	0.004322
H206	H	0.924175	0.174957	0.094085
H207	H	0.473986	0.100014	0.118707
H208	H	0.886519	0.324158	0.142425
N209	N	0.463288	0.469378	0.301627
H210	H	0.487295	0.456392	0.266237
H211	H	0.419105	0.544247	0.282396
H212	H	0.619014	0.459548	0.487564
N213	N	0.370221	0.245373	0.323047
H214	H	0.324431	0.320240	0.294811
H215	H	0.408211	0.232405	0.366622
H216	H	0.485062	0.779789	-0.177424
H217	H	0.529638	0.779764	-0.221661
H218	H	0.320758	1.303003	-0.284626
N219	N	0.382939	0.357393	0.297752
H220	H	0.371529	0.322405	0.320333
H221	H	0.337170	0.432262	0.269468
H222	H	0.389911	0.100022	0.284496
H223	H	0.179214	1.235364	0.309273
N224	N	0.805486	0.469387	0.301644
H225	H	0.751538	0.522305	0.265326
H226	H	0.832090	0.412418	0.284298
H227	H	0.598289	0.779757	-0.536685
H228	H	0.114258	1.100055	-0.035880
N229	N	0.040020	1.322801	0.242361
H230	H	0.056961	1.340751	0.281539
H231	H	0.022476	1.296790	0.263581
H232	H	-0.406079	0.945507	0.090415
H233	H	0.069309	1.235442	-0.312295
H234	H	0.410300	1.235301	-0.146396
N235	N	0.635676	0.779711	-0.391424
H236	H	0.638337	0.779696	-0.338485
H237	H	0.620211	0.841829	-0.424151
H238	H	0.497324	0.144303	0.072589
N239	N	-0.226905	0.589840	0.203190
H240	H	-0.270345	0.603709	0.198796
H241	H	-0.189364	0.549943	0.259789
H242	H	0.545754	0.324066	-0.023273
N243	N	0.540081	0.202182	-0.011852
H244	H	0.541509	0.149208	-0.014566
H245	H	0.590848	0.171351	0.006487
H246	H	0.597834	0.779768	-0.289371
H247	H	-0.313535	0.945521	0.090424
N248	N	0.538310	0.469430	-0.008884
H249	H	0.578312	0.456543	0.030632
H250	H	0.494541	0.544285	-0.041196
N251	N	0.242448	0.589892	0.203152
H252	H	0.296603	0.532027	0.221493
H253	H	0.215594	0.585907	0.160468
N254	N	0.161560	0.498519	0.232121
H255	H	0.167904	0.440649	0.250471
H256	H	0.192583	0.494530	0.277333
N257	N	0.348469	0.589910	0.203119
H258	H	0.368239	0.549966	0.259732
H259	H	0.377360	0.603848	0.198666
H260	H	-0.219152	1.036900	0.061461
H261	H	-0.126603	1.036904	0.061470
H262	H	0.063251	0.945567	0.090368
H263	H	0.325187	0.779809	-0.424741
N264	N	0.287371	0.779807	-0.322653
H265	H	0.284719	0.779802	-0.375587
H266	H	0.237905	0.841941	-0.329311
