data_functionalizedCrystal
_audit_creation_method	'MofGen! by Chris Wilmer'
_symmetry_space_group_name_H-M	'P1'
_symmetry_Int_Tables_number	1
_symmetry_cell_setting	triclinic
loop_
_symmetry_equiv_pos_as_xyz
  x,y,z
_cell_length_a	23.532407
_cell_length_b	22.610064
_cell_length_c	19.288857
_cell_angle_alpha	89.998094
_cell_angle_beta	82.990927
_cell_angle_gamma	90.005499
loop_
_atom_site_label
_atom_site_type_symbol
_atom_site_fract_x
_atom_site_fract_y
_atom_site_fract_z
O1	O	0.755436	0.049150	0.084310
O2	O	0.589598	0.049160	0.096510
O3	O	0.677311	0.049148	-0.010736
O4	O	0.667723	0.049162	0.191555
O5	O	0.677296	-0.049222	-0.010720
O6	O	0.589582	-0.049209	0.096525
O7	O	0.755421	-0.049219	0.084325
Zn8	Zn	0.672499	-0.064832	0.090428
Zn9	Zn	0.672520	0.064773	0.090407
O10	O	0.667707	-0.049207	0.191571
C11	C	0.568374	-0.000024	0.096207
C12	C	0.505155	-0.000020	0.095273
N13	N	0.672489	-0.153285	0.090441
C14	C	0.238849	-0.000041	0.027955
C15	C	0.298251	-0.000041	0.028823
O16	O	0.334886	-0.000065	-0.024580
N17	N	0.321008	-0.000032	0.092580
C18	C	0.284359	-0.000030	0.155474
O19	O	0.309171	-0.000023	0.209784
C20	C	0.224959	-0.000034	0.154606
C21	C	0.202205	-0.000037	0.090844
C22	C	0.216095	-0.000045	-0.035801
C23	C	0.156697	-0.000044	-0.036669
C24	C	0.120053	-0.000039	0.026220
C25	C	0.142807	-0.000036	0.089977
C26	C	0.188311	-0.000036	0.217499
C27	C	0.128907	-0.000041	0.216625
C28	C	0.106153	-0.000044	0.152863
C29	C	0.046765	-0.000031	0.151998
N30	N	0.024008	-0.000040	0.088241
C31	C	0.060652	-0.000044	0.025352
C32	C	0.409106	-0.000022	0.157293
C33	C	0.468505	-0.000013	0.158162
C34	C	0.482393	-0.000025	0.031510
C35	C	0.422992	-0.000030	0.030642
C36	C	0.386349	-0.000030	0.093535
C37	C	-0.064088	-0.000042	0.023535
C38	C	-0.123492	-0.000038	0.022673
C39	C	-0.137374	-0.000029	0.149324
C40	C	-0.077976	-0.000029	0.150187
C41	C	-0.041333	-0.000038	0.087286
O42	O	0.010096	-0.000009	0.205373
O43	O	0.035833	-0.000058	-0.028950
C44	C	0.711361	-0.561932	0.042926
C45	C	0.711364	-0.623852	0.042921
O46	O	0.744389	-0.655875	0.002532
N47	N	0.672519	-0.654822	0.090393
C48	C	0.633665	-0.623869	0.137868
O49	O	0.600625	-0.655898	0.178245
C50	C	0.633660	-0.561951	0.137869
C51	C	0.672511	-0.530983	0.090399
C52	C	0.750208	-0.530964	-0.004541
C53	C	0.750206	-0.469049	-0.004535
C54	C	0.711356	-0.438100	0.042938
C55	C	0.672509	-0.469068	0.090405
C56	C	0.594804	-0.530999	0.185340
C57	C	0.594802	-0.469076	0.185337
C58	C	0.633653	-0.438109	0.137867
C59	C	0.633657	-0.376204	0.137884
N60	N	0.672501	-0.345233	0.090412
C61	C	0.711351	-0.376182	0.042939
C62	C	0.633678	-0.753903	0.137861
C63	C	0.633686	-0.815821	0.137864
C64	C	0.711384	-0.815799	0.042916
C65	C	0.711379	-0.753880	0.042917
C66	C	0.672523	-0.722933	0.090389
C67	C	0.711343	-0.246154	0.042956
C68	C	0.711339	-0.184233	0.042968
C69	C	0.633640	-0.184261	0.137914
C70	C	0.633645	-0.246176	0.137904
C71	C	0.672500	-0.277122	0.090420
O72	O	0.600646	-0.344141	0.178250
O73	O	0.744381	-0.344146	0.002563
C74	C	0.776645	-0.000034	0.084628
C75	C	0.839864	-0.000034	0.085562
C76	C	0.676996	-0.000038	-0.036604
C77	C	0.676072	-0.000039	-0.113705
N78	N	0.672534	0.153226	0.090388
C79	C	0.675649	0.053582	-0.149922
C80	C	0.674773	0.053586	-0.222366
C81	C	0.674331	-0.000033	-0.258590
C82	C	0.674750	-0.053662	-0.222363
C83	C	0.675621	-0.053665	-0.149920
C84	C	0.706303	-0.041111	-0.378914
C85	C	0.705436	-0.041106	-0.451356
C86	C	0.671643	-0.000027	-0.482028
C87	C	0.638725	0.041058	-0.440250
C88	C	0.639596	0.041055	-0.367807
C89	C	0.673387	-0.000036	-0.337143
C90	C	0.670270	0.053603	-0.596797
C91	C	0.669390	0.053605	-0.669241
C92	C	0.669373	-0.053644	-0.669238
C93	C	0.670247	-0.053645	-0.596795
C94	C	0.670698	-0.000020	-0.560579
C95	C	0.668023	-0.000020	0.217438
C96	C	0.668947	-0.000015	0.294539
H97	H	-0.142014	-0.000039	-0.029251
O98	O	0.132163	-0.000062	-0.105443
H99	H	0.146905	0.040024	-0.135656
O100	O	0.604084	0.085355	-0.322747
H101	H	0.617647	0.130827	-0.338935
O102	O	0.591792	-0.849223	0.189071
H103	H	0.615684	-0.877426	0.222679
O104	O	0.676080	-0.111501	-0.110852
H105	H	0.715284	-0.114066	-0.084306
H106	H	0.602010	-0.159053	0.176568
H107	H	0.676015	0.097248	-0.120440
H108	H	0.512240	-0.000029	-0.019697
O109	O	0.753276	-0.720480	-0.008289
H110	H	0.780286	-0.752409	-0.041300
H111	H	0.674425	0.097253	-0.251860
O112	O	-0.053430	-0.000026	0.218956
H113	H	-0.068157	0.040067	0.249153
H114	H	0.674389	-0.097319	-0.251862
O115	O	0.668912	0.111442	-0.708307
H116	H	0.669369	0.148728	-0.670949
O117	O	-0.024571	-0.000046	-0.044305
H118	H	-0.050381	-0.000043	-0.088779
H119	H	0.245925	-0.000050	-0.087016
H120	H	0.206826	-0.000031	0.269420
O121	O	0.398451	-0.000042	-0.038128
H122	H	0.433917	-0.000049	-0.081709
H123	H	0.669009	-0.097302	-0.698731
O124	O	0.602270	0.085367	-0.473317
H125	H	0.607187	0.078464	-0.530708
O126	O	0.753256	-0.279528	-0.008249
H127	H	0.780270	-0.247583	-0.041244
H128	H	0.742978	-0.159022	0.004313
O129	O	0.670718	-0.111479	-0.557726
H130	H	0.670270	-0.148765	-0.595084
H131	H	0.732242	-0.074557	-0.485367
H132	H	0.670633	0.097268	-0.567308
H133	H	0.487026	-0.000002	0.210083
O134	O	-0.176902	-0.000034	0.217154
H135	H	-0.222028	-0.000044	0.205832
O136	O	0.792106	-0.435653	-0.055740
H137	H	0.768220	-0.407443	-0.089348
O138	O	0.742755	-0.085418	-0.345834
H139	H	0.765506	-0.113978	-0.387054
H140	H	0.602015	-0.271390	0.176565
H141	H	0.379273	-0.000018	0.208512
H142	H	0.099074	-0.000044	0.267841
O143	O	0.792121	-0.564340	-0.055738
H144	H	0.819134	-0.532395	-0.088734
O145	O	0.753284	-0.849184	-0.008297
H146	H	0.746752	-0.897441	-0.000324
H147	H	0.563168	-0.556204	0.223994
O148	O	0.591776	-0.720524	0.189076
H149	H	0.564773	-0.752467	0.222087
O150	O	0.552896	-0.435696	0.236544
H151	H	0.525888	-0.467636	0.269553
