data_functionalizedCrystal
_audit_creation_method	'MofGen! by Chris Wilmer'
_symmetry_space_group_name_H-M	'P1'
_symmetry_Int_Tables_number	1
_symmetry_cell_setting	triclinic
loop_
_symmetry_equiv_pos_as_xyz
  x,y,z
_cell_length_a	15.995343
_cell_length_b	15.995350
_cell_length_c	14.185569
_cell_angle_alpha	76.847063
_cell_angle_beta	103.158392
_cell_angle_gamma	83.490779
loop_
_atom_site_label
_atom_site_type_symbol
_atom_site_fract_x
_atom_site_fract_y
_atom_site_fract_z
O1	O	1.092020	0.126856	-0.083313
O2	O	0.848239	0.140196	-0.083337
O3	O	0.976793	0.011638	-0.083324
O4	O	0.963465	0.255414	-0.083327
O5	O	1.014770	-0.026335	0.083515
O6	O	0.886215	0.102223	0.083502
O7	O	1.129996	0.088883	0.083525
Cu8	Cu	1.011573	0.092085	0.098747
Cu9	Cu	0.966662	0.136993	-0.098559
O10	O	1.001441	0.217441	0.083512
C11	C	0.836031	0.120660	0.000079
C12	C	0.743078	0.119013	0.000070
C13	C	0.572895	0.116016	0.000084
C14	C	0.549550	0.023219	0.000084
C15	C	0.452959	0.021385	0.000469
C16	C	0.405338	0.113065	0.000096
C17	C	0.456072	0.138083	0.095179
C18	C	0.552882	0.139167	0.095252
C19	C	0.509605	0.183710	-0.094481
C20	C	0.412827	0.180567	-0.095725
C21	C	0.310642	0.111401	0.000106
C22	C	0.667592	0.117681	0.000080
C23	C	0.995230	-0.038543	0.000094
C24	C	0.993577	-0.131492	0.000088
C25	C	0.987645	-0.469240	0.000091
C26	C	0.896006	-0.421716	-0.000292
C27	C	0.897744	-0.325112	0.000084
C28	C	0.990587	-0.301679	0.000089
C29	C	1.057431	-0.364443	0.095364
C30	C	1.055149	-0.461097	0.095444
C31	C	1.013855	-0.418273	-0.094283
C32	C	1.013546	-0.321041	-0.095542
C33	C	0.992256	-0.206982	0.000091
C34	C	0.985981	-0.563939	0.000095
C35	C	1.142203	0.108419	0.000107
C36	C	1.235155	0.110068	0.000109
C37	C	0.983004	0.267622	0.000092
C38	C	0.984656	0.360573	0.000091
N39	N	1.043167	0.060499	0.237521
N40	N	0.935074	0.168572	-0.237333
C41	C	0.842250	0.261336	0.605150
C42	C	0.866188	0.237416	0.710174
C43	C	0.980046	0.123620	0.710147
C44	C	0.956115	0.147528	0.605121
C45	C	0.887217	0.216387	0.552631
C46	C	1.001082	0.102579	0.552602
C47	C	0.977155	0.126489	0.447585
C48	C	0.908262	0.195347	0.395087
C49	C	0.863290	0.240297	0.447614
C50	C	1.069984	0.033724	0.605094
C51	C	1.114951	-0.011225	0.552574
C52	C	1.091021	0.012680	0.447555
C53	C	1.022127	0.081539	0.395058
C54	C	1.135992	-0.032269	0.395028
C55	C	1.112065	-0.008360	0.290011
C56	C	0.998200	0.105448	0.290041
H57	H	0.521465	0.170841	-0.166573
N58	N	0.450893	0.074259	0.189272
H59	H	0.415738	0.029101	0.170525
H60	H	0.511653	0.044556	0.230170
N61	N	0.868234	-0.468140	0.089702
H62	H	0.809310	-0.437194	0.088885
H63	H	0.864459	-0.530255	0.087304
N64	N	1.032994	-0.506806	0.189771
H65	H	0.977366	-0.530533	0.171304
H66	H	1.082021	-0.556365	0.230261
N67	N	1.037266	-0.348213	0.189272
H68	H	0.976422	-0.359006	0.190214
H69	H	1.080679	-0.388912	0.250125
H70	H	0.877580	-0.312816	0.068491
H71	H	0.562039	0.002767	-0.068090
N72	N	1.210307	-0.106527	0.451654
H73	H	1.188247	-0.153539	0.495237
H74	H	1.235137	-0.131305	0.402386
N75	N	1.160565	-0.056833	0.233356
H76	H	1.207840	-0.104084	0.282543
H77	H	1.118585	-0.083945	0.189786
H78	H	0.378496	0.248774	-0.101761
N79	N	0.407213	-0.006457	-0.089790
H80	H	0.449756	-0.017647	-0.130186
H81	H	0.383982	-0.061553	-0.066746
H82	H	0.523409	0.252223	-0.095398
H83	H	0.843861	-0.424696	-0.068617
H84	H	0.967484	-0.422376	-0.166496
H85	H	1.123350	-0.494332	0.099770
H86	H	0.807181	0.296363	0.404874
H87	H	0.786140	0.317402	0.562411
N88	N	0.817691	0.285906	0.766823
H89	H	0.770418	0.333156	0.717632
H90	H	0.790604	0.243914	0.810404
H91	H	1.089465	0.014262	0.690605
N92	N	0.830133	-0.266864	-0.090379
H93	H	0.798929	-0.303856	-0.130860
H94	H	0.786641	-0.230702	-0.067548
H95	H	0.450128	-0.030573	0.069028
N96	N	1.054359	0.049356	0.766764
H97	H	1.062695	0.041030	0.841261
H98	H	1.040504	-0.005869	0.748408
N99	N	0.609879	0.075346	0.189750
H100	H	0.673209	0.075407	0.190742
H101	H	0.598204	0.092981	0.250170
N102	N	0.367038	0.156773	-0.188909
H103	H	0.341545	0.102498	-0.169149
H104	H	0.318769	0.206370	-0.231345
H105	H	0.594031	-0.027661	0.068169
H106	H	0.568381	0.206292	0.099317
N107	N	1.189264	-0.085488	0.609191
H108	H	1.197600	-0.093814	0.683688
H109	H	1.175409	-0.140714	0.590835
H110	H	1.126447	-0.351127	0.098911
N111	N	0.948617	-0.263641	-0.188912
H112	H	0.904513	-0.225250	-0.169358
H113	H	0.980218	-0.226020	-0.231189
H114	H	0.424970	0.204750	0.098447
H115	H	0.888784	0.214816	0.309575
H116	H	1.081211	-0.449890	-0.094919
N117	N	1.101496	-0.298967	-0.103165
H118	H	1.127823	-0.276004	-0.044471
H119	H	1.141177	-0.353093	-0.102344
N120	N	0.923880	0.179712	0.233420
H121	H	0.937677	0.234987	0.251693
H122	H	0.915584	0.187957	0.158941
