data_functionalizedCrystal
_audit_creation_method	'MofGen! by Chris Wilmer'
_symmetry_space_group_name_H-M	'P1'
_symmetry_Int_Tables_number	1
_symmetry_cell_setting	triclinic
loop_
_symmetry_equiv_pos_as_xyz
  x,y,z
_cell_length_a	11.792254
_cell_length_b	10.868271
_cell_length_c	9.065218
_cell_angle_alpha	90.003285
_cell_angle_beta	95.392759
_cell_angle_gamma	89.994489
loop_
_atom_site_label
_atom_site_type_symbol
_atom_site_fract_x
_atom_site_fract_y
_atom_site_fract_z
O1	O	-1.508022	0.102352	0.202314
O2	O	-1.174689	0.435685	0.535647
O3	O	-0.841355	0.769018	0.868980
O4	O	-1.177798	0.102346	0.223136
O5	O	-0.844465	0.435679	0.556469
O6	O	-0.511131	0.769013	0.889802
O7	O	-1.349736	0.102346	-0.001981
O8	O	-1.016402	0.435680	0.331352
O9	O	-0.683069	0.769013	0.664685
O10	O	-1.336084	0.102351	0.427431
O11	O	-1.002751	0.435685	0.760764
O12	O	-0.669418	0.769018	1.094097
O13	O	-1.349721	-0.102298	-0.001990
O14	O	-1.016388	0.231035	0.331343
O15	O	-0.683055	0.564368	0.664676
O16	O	-1.177784	-0.102299	0.223127
O17	O	-0.844450	0.231035	0.556460
O18	O	-0.511117	0.564368	0.889793
O19	O	-1.508007	-0.102293	0.202305
O20	O	-1.174674	0.231040	0.535638
O21	O	-0.841341	0.564374	0.868972
Zn22	Zn	-1.342893	-0.134788	0.212714
Zn23	Zn	-1.009560	0.198546	0.546048
Zn24	Zn	-0.676227	0.531879	0.879381
Zn25	Zn	-1.342912	0.134841	0.212726
Zn26	Zn	-1.009579	0.468174	0.546059
Zn27	Zn	-0.676246	0.801507	0.879393
O28	O	-1.336070	-0.102293	0.427422
O29	O	-1.002737	0.231040	0.760755
O30	O	-0.669403	0.564373	1.094088
C31	C	-1.135493	0.000023	0.221819
C32	C	-0.802160	0.333356	0.555153
C33	C	-0.468826	0.666690	0.888486
C34	C	-1.009458	0.000021	0.217894
C35	C	-0.676125	0.333354	0.551227
C36	C	-0.342792	0.666688	0.884560
C37	C	-0.907104	0.000024	0.214704
C38	C	-0.573771	0.333357	0.548037
C39	C	-0.240437	0.666690	0.881370
C40	C	-0.778695	0.000021	0.210715
C41	C	-0.445362	0.333355	0.544048
C42	C	-0.112029	0.666688	0.877382
N43	N	-1.342889	-0.318802	0.212706
N44	N	-1.009555	0.014532	0.546039
N45	N	-0.676222	0.347865	0.879372
C46	C	-1.342906	-0.569808	0.212723
C47	C	-1.009573	-0.236474	0.546056
C48	C	-0.676240	0.096859	0.879390
C49	C	-1.342893	-0.430130	0.212718
C50	C	-1.009560	-0.096797	0.546051
C51	C	-0.676226	0.236537	0.879384
C52	C	-0.550313	0.000027	0.203621
C53	C	-0.216979	0.333360	0.536954
C54	C	0.116354	0.666693	0.870288
C55	C	-0.676347	0.000019	0.207547
C56	C	-0.343014	0.333352	0.540880
C57	C	-0.009681	0.666686	0.874214
C58	C	-1.348416	0.000026	-0.056960
C59	C	-1.015083	0.333359	0.276373
C60	C	-0.681750	0.666693	0.609706
C61	C	-1.344494	0.000032	-0.220767
C62	C	-1.011160	0.333365	0.112567
C63	C	-0.677827	0.666699	0.445900
N64	N	-1.342926	0.318855	0.212723
N65	N	-1.009592	0.652188	0.546057
N66	N	-0.676259	0.985521	0.879390
C67	C	-1.337389	0.000030	0.482401
C68	C	-1.004056	0.333363	0.815734
C69	C	-0.670722	0.666696	1.149067
C70	C	-1.341312	0.000032	0.646207
C71	C	-1.007979	0.333365	0.979540
C72	C	-0.674645	0.666699	1.312874
