data_functionalizedCrystal
_audit_creation_method	'MofGen! by Chris Wilmer'
_symmetry_space_group_name_H-M	'P1'
_symmetry_Int_Tables_number	1
_symmetry_cell_setting	triclinic
loop_
_symmetry_equiv_pos_as_xyz
  x,y,z
_cell_length_a	10.686220
_cell_length_b	29.839131
_cell_length_c	10.685986
_cell_angle_alpha	85.582490
_cell_angle_beta	99.031303
_cell_angle_gamma	94.423467
loop_
_atom_site_label
_atom_site_type_symbol
_atom_site_fract_x
_atom_site_fract_y
_atom_site_fract_z
Zn1	Zn	1.885380	-0.111719	-0.569004
Zn2	Zn	1.901409	-0.192220	-0.356750
Zn3	Zn	1.689366	-0.122458	-0.373031
Zn4	Zn	1.673006	-0.192188	-0.585194
O5	O	1.787290	-0.154646	-0.470995
O6	O	2.065126	-0.117917	-0.527258
O7	O	1.886836	-0.187474	-0.181290
O8	O	1.715506	-0.058162	-0.399065
O9	O	2.076902	-0.177060	-0.371316
O10	O	1.859516	-0.050272	-0.543045
O11	O	1.731048	-0.136220	-0.193252
O12	O	1.509576	-0.136189	-0.414765
O13	O	1.687623	-0.177006	-0.760666
O14	O	1.497556	-0.187419	-0.570640
O15	O	1.843653	-0.117886	-0.748771
O16	O	1.870972	-0.255088	-0.387016
O17	O	1.703166	-0.255064	-0.554853
C18	C	1.457511	-0.162966	-0.496227
C19	C	1.316428	-0.166536	-0.507051
C20	C	1.787066	-0.271376	-0.470949
C21	C	1.787082	-0.321310	-0.470963
C22	C	1.874805	-0.630940	-0.383709
C23	C	1.874958	-0.818607	-0.383747
O24	O	1.949365	-0.842866	-0.309526
N25	N	1.787546	-0.842079	-0.471070
C26	C	1.700094	-0.818631	-0.558396
O27	O	1.625757	-0.842901	-0.632680
C28	C	1.699948	-0.630964	-0.558364
C29	C	1.787358	-0.607495	-0.471026
C30	C	1.962209	-0.607470	-0.296380
C31	C	1.962165	-0.560557	-0.296367
C32	C	1.874718	-0.537112	-0.383683
C33	C	1.787315	-0.560581	-0.471013
C34	C	1.612504	-0.607516	-0.645695
C35	C	1.612477	-0.560596	-0.645681
C36	C	1.699887	-0.537127	-0.558343
C37	C	1.699824	-0.490222	-0.558317
N38	N	1.787236	-0.466750	-0.470993
C39	C	1.874683	-0.490195	-0.383677
C40	C	1.700176	-0.917159	-0.558405
C41	C	1.700210	-0.964076	-0.558412
C42	C	1.875076	-0.964049	-0.383764
C43	C	1.875034	-0.917132	-0.383752
C44	C	1.787588	-0.893687	-0.471082
C45	C	1.874584	-0.391672	-0.383655
C46	C	1.874530	-0.344755	-0.383647
C47	C	1.699669	-0.344786	-0.558299
C48	C	1.699719	-0.391700	-0.558304
C49	C	1.787187	-0.415142	-0.470977
O50	O	1.625465	-0.465934	-0.632509
O51	O	1.949028	-0.465916	-0.309423
C52	C	1.874849	-0.677853	-0.383722
C53	C	1.787445	-0.701323	-0.471052
C54	C	1.699998	-0.677878	-0.558369
C55	C	1.787480	-0.748239	-0.471059
C56	C	1.874927	-0.771684	-0.383742
C57	C	1.962340	-0.748212	-0.296418
C58	C	1.962296	-0.701298	-0.296405
C59	C	1.612586	-0.701350	-0.645692
C60	C	1.612636	-0.748264	-0.645697
C61	C	1.700083	-0.771708	-0.558381
C62	C	2.118357	-0.146294	-0.445665
C63	C	2.259437	-0.142735	-0.434871
C64	C	1.762025	-0.146244	-0.802061
C65	C	1.751259	-0.142664	-0.943142
C66	C	1.787548	-0.037459	-0.471065
C67	C	1.787658	0.012479	-0.471096
C68	C	1.812530	-0.162981	-0.141211
C69	C	1.823542	-0.166429	-0.000112
H70	H	1.257280	-0.189647	-0.577126
H71	H	2.033426	-0.626554	-0.225275
C72	C	1.888304	-0.241979	-0.954275
C73	C	1.918211	-0.197595	-0.920258
H74	H	1.946752	-0.261218	-0.904981
H75	H	1.804652	-0.251244	-0.939123
H76	H	1.893245	-0.243576	-1.041791
H77	H	1.913260	-0.195997	-0.832744
H78	H	2.001884	-0.188327	-0.935399
C79	C	2.047878	-0.921828	-0.211122
C80	C	1.971124	-0.891336	-0.287756
H81	H	2.107208	-0.905904	-0.151863
H82	H	1.996332	-0.942780	-0.166763
H83	H	2.092166	-0.937476	-0.262772
H84	H	1.926829	-0.875691	-0.236107
H85	H	2.022678	-0.870377	-0.332118
H86	H	1.541377	-0.682264	-0.716798
C87	C	2.046770	-0.440483	-0.353104
C88	C	1.970749	-0.417430	-0.287671
H89	H	2.106144	-0.456380	-0.293845
H90	H	1.994732	-0.461183	-0.405084
H91	H	2.091006	-0.419519	-0.404743
H92	H	1.926505	-0.438395	-0.236039
H93	H	2.022794	-0.396728	-0.235670
C94	C	1.581882	-0.797117	-0.817808
C95	C	1.516548	-0.774058	-0.741710
H96	H	1.522567	-0.813042	-0.877079
H97	H	1.633416	-0.776156	-0.862153
H98	H	1.633957	-0.817797	-0.765796
H99	H	1.464480	-0.753376	-0.793720
H100	H	1.464992	-0.795021	-0.697361
C101	C	1.421670	-0.137000	-0.252862
C102	C	1.339271	-0.111538	-0.340269
H103	H	1.470966	-0.117739	-0.194464
H104	H	1.373625	-0.159071	-0.208135
H105	H	1.476316	-0.151452	-0.296710
H106	H	1.284618	-0.097089	-0.296422
H107	H	1.387320	-0.089459	-0.385000
C108	C	1.591891	-0.090233	-0.942426
C109	C	1.656595	-0.111500	-1.022991
H110	H	1.533455	-0.070992	-0.991730
H111	H	1.547197	-0.112329	-0.894427
H112	H	1.651143	-0.072949	-0.886497
H113	H	1.597343	-0.128786	-1.078914
H114	H	1.701291	-0.089400	-1.071012
H115	H	1.629022	-0.983181	-0.629521
C116	C	2.047389	-0.349447	-0.211015
C117	C	1.970622	-0.318958	-0.287643
H118	H	2.106715	-0.333522	-0.151756
H119	H	1.995851	-0.370401	-0.166655
H120	H	2.091681	-0.365092	-0.262668
H121	H	1.926323	-0.303316	-0.235991
H122	H	2.022168	-0.297996	-0.332007
C123	C	1.527318	-0.921910	-0.731023
C124	C	1.604031	-0.891394	-0.654394
H125	H	1.467954	-0.906004	-0.790272
H126	H	1.578887	-0.937551	-0.775395
H127	H	1.483069	-0.942864	-0.679369
H128	H	1.648287	-0.870441	-0.706047
H129	H	1.552455	-0.875745	-0.610018
C130	C	2.040780	-0.766577	-0.076800
C131	C	2.058464	-0.773996	-0.200456
H132	H	2.100119	-0.782501	-0.017572
H133	H	2.053294	-0.735283	-0.064273
H134	H	1.956938	-0.776925	-0.064690
H135	H	2.142304	-0.763645	-0.212569
H136	H	2.045960	-0.805297	-0.212988
C137	C	1.439686	-0.602809	-0.818345
C138	C	1.516426	-0.633304	-0.741709
H139	H	1.380375	-0.618729	-0.877629
H140	H	1.395387	-0.587167	-0.766709
H141	H	1.491253	-0.581852	-0.862687
H142	H	1.464859	-0.654259	-0.697360
H143	H	1.560728	-0.648954	-0.793352
H144	H	1.946279	-0.983146	-0.312667
C145	C	1.993075	-0.652444	-0.124290
C146	C	2.058386	-0.675506	-0.200403
H147	H	2.052403	-0.636526	-0.065015
H148	H	1.941010	-0.631763	-0.176282
H149	H	1.941533	-0.673407	-0.079937
H150	H	2.109921	-0.654543	-0.244764
H151	H	2.110472	-0.696189	-0.148404
C152	C	1.534765	-0.488689	-0.723237
C153	C	1.516350	-0.534826	-0.741678
H154	H	1.475423	-0.472782	-0.782506
H155	H	1.522750	-0.483652	-0.639367
H156	H	1.618606	-0.478343	-0.735355
H157	H	1.432511	-0.545173	-0.729551
H158	H	1.528354	-0.539866	-0.825568
C159	C	2.135029	-0.565256	-0.123759
C160	C	2.058268	-0.534762	-0.200379
H161	H	2.194369	-0.549333	-0.064507
H162	H	2.083488	-0.586207	-0.079391
H163	H	2.179303	-0.580904	-0.175420
H164	H	2.013985	-0.519117	-0.148719
H165	H	2.109814	-0.513804	-0.244750
C166	C	1.526875	-0.387011	-0.730942
C167	C	1.603638	-0.417499	-0.654305
H168	H	1.467571	-0.402937	-0.790221
H169	H	1.482568	-0.371372	-0.679306
H170	H	1.578428	-0.366051	-0.775290
H171	H	1.552086	-0.438458	-0.609950
H172	H	1.647948	-0.433145	-0.705948
C173	C	1.621996	-0.272873	-0.635823
C174	C	1.603555	-0.319008	-0.654281
H175	H	1.562667	-0.256959	-0.695089
H176	H	1.609979	-0.267838	-0.551952
H177	H	1.705843	-0.262532	-0.647931
H178	H	1.519710	-0.329350	-0.642163
H179	H	1.615561	-0.324046	-0.738172
