data_functionalizedCrystal
_audit_creation_method	'MofGen! by Chris Wilmer'
_symmetry_space_group_name_H-M	'P1'
_symmetry_Int_Tables_number	1
_symmetry_cell_setting	triclinic
loop_
_symmetry_equiv_pos_as_xyz
  x,y,z
_cell_length_a	11.026607
_cell_length_b	14.044202
_cell_length_c	9.482899
_cell_angle_alpha	100.194351
_cell_angle_beta	78.627193
_cell_angle_gamma	100.889359
loop_
_atom_site_label
_atom_site_type_symbol
_atom_site_fract_x
_atom_site_fract_y
_atom_site_fract_z
O1	O	-1.636274	-0.416218	-0.120997
O2	O	-1.136274	0.083782	0.379003
O3	O	-1.277982	-0.370168	-0.120988
O4	O	-0.777982	0.129832	0.379012
O5	O	-1.451750	-0.254286	-0.120953
O6	O	-0.951750	0.245714	0.379047
O7	O	-1.462506	-0.532100	-0.121032
O8	O	-0.962506	-0.032100	0.378968
O9	O	-1.487068	-0.230658	0.120847
O10	O	-0.987068	0.269342	0.620847
O11	O	-1.313301	-0.346540	0.120812
O12	O	-0.813301	0.153460	0.620812
O13	O	-1.671592	-0.392590	0.120803
O14	O	-1.171592	0.107410	0.620803
Cu15	Cu	-1.495671	-0.367407	0.142886
Cu16	Cu	-0.995671	0.132593	0.642886
Cu17	Cu	-1.453903	-0.395350	-0.143070
Cu18	Cu	-0.953903	0.104650	0.356930
O19	O	-1.497825	-0.508472	0.120768
O20	O	-0.997825	-0.008472	0.620768
C21	C	-1.464700	-0.206353	-0.000046
C22	C	-0.964700	0.293647	0.499954
C23	C	-1.450655	-0.098728	-0.000024
C24	C	-0.950655	0.401272	0.499976
C25	C	-1.249511	-0.349859	-0.000086
C26	C	-0.749511	0.150141	0.499914
C27	C	-1.112055	-0.324534	-0.000081
C28	C	-0.612055	0.175466	0.499919
C29	C	-1.700063	-0.412899	-0.000102
C30	C	-1.200063	0.087101	0.499898
C31	C	-1.837517	-0.438225	-0.000117
C32	C	-1.337517	0.061775	0.499883
C33	C	-1.524592	0.138937	-0.000064
C34	C	-1.024592	0.638937	0.499936
C35	C	-1.424987	0.098305	-0.000055
C36	C	-0.924987	0.598305	0.499945
C37	C	-1.439272	-0.011334	-0.000038
C38	C	-0.939272	0.488666	0.499962
C39	C	-1.510309	0.248587	-0.000081
C40	C	-1.010309	0.748587	0.499919
C41	C	-1.045819	-0.394461	-0.000102
C42	C	-0.545819	0.105539	0.499898
C43	C	-0.903751	-0.368288	-0.000096
C44	C	-0.403751	0.131712	0.499904
C45	C	-1.484874	0.443597	-0.000123
C46	C	-0.984874	0.943597	0.499877
C47	C	-1.498919	0.335977	-0.000094
C48	C	-0.998919	0.835977	0.499906
N49	N	-1.424525	-0.414997	-0.344197
N50	N	-0.924525	0.085003	0.155803
C51	C	-1.462570	-0.389542	-0.583802
C52	C	-0.962570	0.110458	-0.083802
C53	C	-1.487023	-0.373204	-0.416379
C54	C	-0.987023	0.126796	0.083621
N55	N	-1.525058	-0.347755	0.344012
N56	N	-1.025058	0.152245	0.844012
H57	H	-1.328984	0.145862	-0.000058
H58	H	-0.828984	0.645862	0.499942
H59	H	-1.620589	0.091385	-0.000054
H60	H	-1.120589	0.591385	0.499946
C61	C	-1.327787	-0.479673	-0.428137
C62	C	-0.827787	0.020327	0.071863
N63	N	-1.254923	-0.528385	-0.491363
N64	N	-0.754923	-0.028385	0.008637
C65	C	-1.621790	-0.283082	-0.572039
C66	C	-1.121790	0.216918	-0.072039
N67	N	-1.694649	-0.234367	-0.508810
N68	N	-1.194649	0.265633	-0.008810
C69	C	-1.111293	-0.501518	-0.000126
C70	C	-0.611293	-0.001518	0.499874
N71	N	-1.160607	-0.582155	-0.000146
N72	N	-0.660607	-0.082155	0.499854
H73	H	-0.855282	-0.289043	-0.000111
H74	H	-0.355282	0.210957	0.499889
C75	C	-1.365837	-0.454214	-0.667751
C76	C	-0.865837	0.045786	-0.167751
N77	N	-1.292974	-0.502926	-0.730980
N78	N	-0.792974	-0.002926	-0.230980
C79	C	-0.902983	-0.545289	-0.000148
C80	C	-0.402983	-0.045289	0.499852
N81	N	-0.952292	-0.625928	-0.000175
N82	N	-0.452292	-0.125928	0.499825
H83	H	-1.558634	-0.325334	-0.354240
H84	H	-1.058634	0.174666	0.145760
C85	C	-1.046582	-0.217477	-0.000050
C86	C	-0.546582	0.282523	0.499950
N87	N	-0.997269	-0.136839	-0.000029
N88	N	-0.497269	0.363161	0.499971
