data_functionalizedCrystal
_audit_creation_method	'MofGen! by Chris Wilmer'
_symmetry_space_group_name_H-M	'P1'
_symmetry_Int_Tables_number	1
_symmetry_cell_setting	triclinic
loop_
_symmetry_equiv_pos_as_xyz
  x,y,z
_cell_length_a	26.455835
_cell_length_b	26.455273
_cell_length_c	26.451828
_cell_angle_alpha	60.005170
_cell_angle_beta	60.010757
_cell_angle_gamma	59.993435
loop_
_atom_site_label
_atom_site_type_symbol
_atom_site_fract_x
_atom_site_fract_y
_atom_site_fract_z
O1	O	0.069940	-0.738516	0.617604
O2	O	0.026299	-0.574986	0.497618
O3	O	0.129847	-0.678463	0.497546
O4	O	-0.033607	-0.635040	0.617676
O5	O	0.164197	-0.644116	0.531822
O6	O	0.060649	-0.540639	0.531894
O7	O	0.104290	-0.704170	0.651880
Cu8	Cu	0.085606	-0.619268	0.595016
Cu9	Cu	0.044984	-0.659887	0.554481
O10	O	0.000742	-0.600693	0.651952
N11	N	0.114179	-0.590703	0.623530
N12	N	0.016416	-0.688458	0.525968
C13	C	0.157553	-0.547535	0.933368
C14	C	0.424104	-0.547506	0.666656
C15	C	0.157413	-0.547503	0.666729
C16	C	0.157397	-0.280846	0.666749
C17	C	0.200330	-0.409550	0.709625
C18	C	0.200339	-0.504608	0.709615
C19	C	0.224118	-0.480848	0.733375
C20	C	0.327800	-0.462984	0.678792
C21	C	0.392611	-0.484588	0.657175
C22	C	0.392630	-0.589450	0.697162
C23	C	0.327821	-0.567844	0.718781
C24	C	0.215955	-0.377135	0.645910
C25	C	0.194327	-0.312320	0.624323
C26	C	0.141457	-0.312339	0.730169
C27	C	0.163084	-0.377154	0.751756
C28	C	0.136618	-0.488954	0.725292
C29	C	0.115007	-0.510553	0.703686
C30	C	0.220833	-0.563461	0.650740
C31	C	0.242447	-0.541861	0.672339
C32	C	0.136680	-0.488971	0.837094
C33	C	0.115112	-0.510589	0.901907
C34	C	0.220969	-0.563508	0.901868
C35	C	0.242535	-0.541892	0.837053
C36	C	0.200389	-0.504622	0.804668
C37	C	0.295409	-0.504610	0.709593
C38	C	0.132990	-0.570876	1.004655
C39	C	0.495389	-0.570440	0.642547
C40	C	0.132802	-0.570856	0.643399
C41	C	0.133212	-0.209553	0.643833
C42	C	-0.097217	-0.706972	0.506986
C43	C	-0.002040	-0.707108	0.412067
C44	C	-0.002230	-0.802124	0.507163
C45	C	-0.002214	-0.707101	0.507221
C46	C	-0.025925	-0.730827	0.483360
N47	N	0.553723	-0.590712	0.623415
O48	O	0.751638	-0.596429	0.475603
O49	O	0.751819	-0.716773	0.638980
O50	O	0.751753	-0.716500	0.535361
O51	O	0.751705	-0.596703	0.579222
O52	O	0.648791	-0.682239	0.569747
O53	O	0.648858	-0.682512	0.673366
O54	O	0.648676	-0.562169	0.509989
Cu55	Cu	0.639366	-0.619212	0.594817
Cu56	Cu	0.761130	-0.659729	0.554152
O57	O	0.648743	-0.562442	0.613609
N58	N	0.846773	-0.688230	0.525548
N59	N	0.114157	-0.151217	0.623565
O60	O	-0.033591	0.046803	0.617717
O61	O	0.129795	0.046806	0.497390
O62	O	0.026157	0.046789	0.497680
O63	O	0.070046	0.046819	0.617427
O64	O	0.060509	-0.056181	0.532004
O65	O	0.164146	-0.056164	0.531714
O66	O	0.000760	-0.056167	0.652041
Cu67	Cu	0.085590	-0.065568	0.595012
Cu68	Cu	0.044965	0.056206	0.554419
O69	O	0.104397	-0.056151	0.651751
N70	N	0.016390	0.141855	0.525867
N71	N	0.114410	-0.590756	1.062992
O72	O	0.108565	-0.738494	1.260998
O73	O	-0.011747	-0.575059	1.261012
O74	O	-0.011470	-0.678679	1.260970
O75	O	0.108287	-0.634874	1.261040
O76	O	0.022849	-0.644347	1.158004
O77	O	0.022572	-0.540726	1.158046
O78	O	0.142884	-0.704162	1.158033
Cu79	Cu	0.085861	-0.619309	1.148638
Cu80	Cu	0.045275	-0.659911	1.270406
O81	O	0.142606	-0.600541	1.158074
N82	N	0.016726	-0.688471	1.356052
C83	C	0.039385	-0.537207	0.498225
C84	C	0.167616	-0.665350	0.498136
C85	C	0.091204	-0.741950	0.651272
C86	C	-0.037027	-0.613806	0.651361
C87	C	0.700360	-0.716215	0.676756
C88	C	0.700279	-0.715877	0.548436
C89	C	0.700133	-0.562725	0.472214
C90	C	0.700218	-0.563065	0.600533
C91	C	0.167511	-0.004552	0.497940
C92	C	0.039211	-0.004699	0.498341
C93	C	-0.036999	-0.004682	0.651449
C94	C	0.091344	-0.004663	0.651090
C95	C	-0.011156	-0.537302	1.209530
C96	C	-0.010806	-0.665617	1.209458
C97	C	0.142293	-0.741918	1.209514
C98	C	0.141950	-0.613596	1.209563
H99	H	0.102355	-0.458618	0.810728
H100	H	0.029814	-0.004702	0.460721
H101	H	0.700208	-0.525435	0.609919
H102	H	0.214338	-0.004265	0.460069
H103	H	0.100526	-0.788925	0.688956
H104	H	-0.048413	-0.674973	1.209396
H105	H	0.100739	-0.004653	0.688708
C106	C	0.700428	-0.766125	0.535917
C107	C	0.753443	-0.817913	0.542710
C108	C	0.753604	-0.864210	0.531175
H109	H	0.664589	-0.777502	0.564475
H110	H	0.700425	-0.751026	0.494918
H111	H	0.753440	-0.833011	0.583703
H112	H	0.789290	-0.806557	0.514153
H113	H	0.753602	-0.849111	0.490176
H114	H	0.717763	-0.875581	0.559734
H115	H	0.789577	-0.899351	0.535776
C116	C	-0.099619	-0.004638	0.701729
C117	C	-0.137852	-0.004627	0.679545
C118	C	-0.195546	-0.004572	0.725841
H119	H	-0.094279	-0.040528	0.736945
H120	H	-0.118167	0.031293	0.712958
H121	H	-0.119308	-0.040554	0.668325
H122	H	-0.143210	0.031260	0.644335
H123	H	-0.214095	0.031358	0.737069
H124	H	-0.190199	-0.040463	0.761054
H125	H	-0.221496	-0.004560	0.710794
C126	C	-0.061456	-0.474686	1.209565
C127	C	-0.039279	-0.436485	1.209605
C128	C	-0.085600	-0.378801	1.209646
H129	H	-0.072736	-0.456078	1.173662
H130	H	-0.096641	-0.480078	1.245479
H131	H	-0.004105	-0.431091	1.173695
H132	H	-0.028003	-0.455073	1.245506
H133	H	-0.120784	-0.384194	1.245560
H134	H	-0.096877	-0.360200	1.173742
H135	H	-0.070561	-0.352877	1.209679
C136	C	0.192573	-0.804554	1.209538
C137	C	0.170386	-0.842765	1.209526
C138	C	0.216684	-0.900471	1.209554
H139	H	0.227780	-0.799221	1.173648
H140	H	0.203815	-0.823120	1.245465
H141	H	0.159153	-0.824204	1.173602
H142	H	0.135185	-0.848116	1.245413
H143	H	0.227926	-0.919036	1.245482
H144	H	0.251889	-0.895131	1.173664
H145	H	0.201635	-0.926406	1.209552
C146	C	0.292533	-0.394358	0.668945
C147	C	0.255336	-0.385670	0.726423
C148	C	0.222832	-0.322461	0.717376
H149	H	0.321039	-0.372595	0.647536
H150	H	0.267199	-0.379139	0.645232
H151	H	0.280669	-0.400882	0.750126
H152	H	0.226819	-0.407419	0.747841
H153	H	0.197498	-0.307242	0.693663
H154	H	0.251343	-0.300703	0.695966
H155	H	0.197587	-0.316559	0.756372
H156	H	0.179573	-0.604224	1.209577
H157	H	0.063231	-0.497836	0.928300
H158	H	-0.083976	-0.604550	0.689083
H159	H	0.700073	-0.524942	0.425295
H160	H	0.294416	-0.554643	0.810656
C161	C	0.266827	-0.603978	0.936912
C162	C	0.327236	-0.613063	0.894639
C163	C	0.369499	-0.650349	0.926900
H164	H	0.260691	-0.584241	0.962199
H165	H	0.260658	-0.642853	0.962179
H166	H	0.333403	-0.574196	0.869383
H167	H	0.333392	-0.632808	0.869351
H168	H	0.363330	-0.689223	0.952166
H169	H	0.363358	-0.630607	0.952185
H170	H	0.410491	-0.656522	0.898222
C171	C	0.045801	-0.493525	0.720802
C172	C	0.013548	-0.456295	0.758088
C173	C	-0.050205	-0.440606	0.773876
H174	H	0.035063	-0.471497	0.684215
H175	H	0.035169	-0.530170	0.742818
H176	H	0.024176	-0.419656	0.736072
H177	H	0.024267	-0.478311	0.794683
H178	H	-0.060837	-0.477251	0.795892
H179	H	-0.060936	-0.418580	0.737286
H180	H	-0.072096	-0.415348	0.799181
H181	H	0.102328	-0.458621	0.755642
H182	H	0.255124	-0.593799	0.620395
H183	H	0.294333	-0.554601	0.659567
H184	H	0.301449	-0.601745	0.743862
C185	C	0.230216	-0.677570	0.447806
C186	C	0.257422	-0.635320	0.431290
C187	C	0.315085	-0.646553	0.384922
H188	H	0.256260	-0.718523	0.462757
H189	H	0.224829	-0.672886	0.412599
H190	H	0.262812	-0.640009	0.466490
H191	H	0.231396	-0.594363	0.416329
H192	H	0.309698	-0.641869	0.349715
H193	H	0.341124	-0.687506	0.399877
H194	H	0.333549	-0.617885	0.373706
C195	C	0.427715	-0.658131	0.707214
C196	C	0.385476	-0.689967	0.738829
C197	C	0.417772	-0.753236	0.748106
H198	H	0.452983	-0.664223	0.668309
H199	H	0.453002	-0.673367	0.730981
H200	H	0.360200	-0.674736	0.715062
H201	H	0.360206	-0.683893	0.777740
H202	H	0.443059	-0.768471	0.771873
H203	H	0.443039	-0.759321	0.709198
H204	H	0.389118	-0.774845	0.769562
H205	H	0.700405	-0.753994	0.723681
C206	C	0.027039	-0.474542	0.447992
C207	C	0.069236	-0.447279	0.431488
C208	C	0.057877	-0.389550	0.385222
H209	H	0.031680	-0.479832	0.412755
H210	H	-0.013933	-0.448579	0.463047
H211	H	0.110198	-0.473236	0.416432
H212	H	0.064603	-0.441974	0.466712
H213	H	0.016904	-0.363587	0.400277
H214	H	0.062517	-0.394845	0.349988
H215	H	0.086501	-0.371042	0.374022
H216	H	0.246280	-0.403511	0.611604
C217	C	0.427669	-0.439291	0.623718
C218	C	0.385411	-0.379287	0.620284
C219	C	0.417686	-0.337542	0.589460
H220	H	0.452969	-0.450053	0.645754
H221	H	0.452923	-0.440909	0.583094
H222	H	0.360168	-0.377671	0.660901
H223	H	0.360111	-0.368506	0.598244
H224	H	0.442940	-0.339160	0.548836
H225	H	0.442984	-0.348309	0.611499
H226	H	0.389019	-0.296824	0.587121
H227	H	0.111138	-0.285961	0.764475
C228	C	0.211256	-0.277200	0.555126
C229	C	0.189220	-0.292971	0.528455
C230	C	0.204811	-0.260638	0.464712
H231	H	0.193054	-0.233950	0.548218
H232	H	0.254987	-0.287830	0.536883
H233	H	0.145498	-0.282337	0.546692
H234	H	0.207419	-0.336216	0.535346
H235	H	0.248542	-0.271268	0.446470
H236	H	0.186608	-0.217389	0.457811
H237	H	0.189867	-0.271338	0.446607
C238	C	0.146080	-0.412240	0.820960
C239	C	0.108843	-0.369996	0.853236
C240	C	0.093173	-0.402293	0.916986
H241	H	0.124066	-0.437528	0.831671
H242	H	0.182729	-0.437510	0.831603
H243	H	0.072201	-0.344736	0.842598
H244	H	0.130846	-0.344706	0.842544
H245	H	0.129822	-0.427563	0.927628
H246	H	0.071161	-0.427580	0.927690
H247	H	0.067911	-0.373636	0.938893
