data_functionalizedCrystal
_audit_creation_method	'MofGen! by Chris Wilmer'
_symmetry_space_group_name_H-M	'P1'
_symmetry_Int_Tables_number	1
_symmetry_cell_setting	triclinic
loop_
_symmetry_equiv_pos_as_xyz
  x,y,z
_cell_length_a	10.723024
_cell_length_b	10.723024
_cell_length_c	9.798715
_cell_angle_alpha	90.001978
_cell_angle_beta	89.997513
_cell_angle_gamma	95.532131
loop_
_atom_site_label
_atom_site_type_symbol
_atom_site_fract_x
_atom_site_fract_y
_atom_site_fract_z
O1	O	1.657187	-0.175024	-0.113450
O2	O	2.157187	0.324976	0.386550
O3	O	1.294035	-0.191778	-0.113460
O4	O	1.794035	0.308222	0.386540
O5	O	1.483988	-0.001825	-0.113450
O6	O	1.983988	0.498175	0.386550
O7	O	1.467234	-0.364977	-0.113460
O8	O	1.967234	0.135023	0.386540
O9	O	1.483974	-0.001824	0.113532
O10	O	1.983974	0.498176	0.613532
O11	O	1.294021	-0.191777	0.113522
O12	O	1.794021	0.308223	0.613522
O13	O	1.657173	-0.175024	0.113532
O14	O	2.157173	0.324976	0.613532
Zn15	Zn	1.475595	-0.183401	0.149565
Zn16	Zn	1.975595	0.316599	0.649565
Zn17	Zn	1.475613	-0.183401	-0.149493
Zn18	Zn	1.975613	0.316599	0.350507
O19	O	1.467220	-0.364977	0.113522
O20	O	1.967220	0.135023	0.613522
C21	C	1.247528	-0.190558	0.000029
C22	C	1.747528	0.309442	0.500029
C23	C	1.108974	-0.186911	0.000025
C24	C	1.608974	0.313089	0.500025
N25	N	1.475591	-0.183399	0.353665
N26	N	1.975591	0.316601	0.853665
C27	C	1.482762	0.044675	0.000040
C28	C	1.982762	0.544675	0.500040
C29	C	1.479114	0.183229	0.000035
C30	C	1.979114	0.683229	0.500035
C31	C	1.703680	-0.176243	0.000040
C32	C	2.203680	0.323757	0.500040
C33	C	1.842234	-0.179891	0.000035
C34	C	2.342234	0.320109	0.500035
C35	C	1.917217	-0.073603	0.000036
C36	C	2.417217	0.426397	0.500036
C37	C	2.060420	-0.077371	0.000031
C38	C	2.560420	0.422629	0.500031
C39	C	1.468447	-0.411477	0.000029
C40	C	1.968447	0.088523	0.500029
C41	C	1.472094	-0.550031	0.000025
C42	C	1.972094	-0.050031	0.500025
C43	C	1.585401	0.258212	0.000036
C44	C	2.085401	0.758212	0.500036
C45	C	1.581634	0.401415	0.000031
C46	C	2.081634	0.901415	0.500031
N47	N	1.475627	-0.183393	-0.353593
N48	N	1.975627	0.316607	0.146407
C49	C	1.555347	-0.103292	0.421446
C50	C	2.055347	0.396708	0.921446
C51	C	1.555367	-0.103288	0.578609
C52	C	2.055367	0.396712	1.078609
H53	H	1.875395	0.020182	0.000062
H54	H	2.375395	0.520182	0.500062
H55	H	1.623611	-0.034707	0.363128
H56	H	2.123611	0.465293	0.863128
Cl57	Cl	1.906793	-0.324697	0.000038
Cl58	Cl	2.406793	0.175303	0.500038
H59	H	1.679187	0.216390	0.000047
H60	H	2.179187	0.716390	0.500047
H61	H	1.407319	-0.251975	0.411986
H62	H	1.907319	0.248025	0.911986
H63	H	1.672624	0.465848	0.000038
H64	H	2.172624	0.965848	0.500038
H65	H	1.623654	-0.034709	0.636898
H66	H	2.123654	0.465291	1.136898
H67	H	1.407345	-0.251984	0.588127
H68	H	1.907345	0.248016	1.088127
H69	H	2.124853	0.013619	0.000023
H70	H	2.624853	0.513619	0.500023
H71	H	1.385328	0.225051	0.000023
H72	H	1.885328	0.725051	0.500023
H73	H	2.044549	-0.277906	0.000019
H74	H	2.544549	0.222094	0.500019
Cl75	Cl	1.331599	0.350504	0.000034
Cl76	Cl	1.831599	0.850504	0.500034
