data_functionalizedCrystal
_audit_creation_method	'MofGen! by Chris Wilmer'
_symmetry_space_group_name_H-M	'P1'
_symmetry_Int_Tables_number	1
_symmetry_cell_setting	triclinic
loop_
_symmetry_equiv_pos_as_xyz
  x,y,z
_cell_length_a	18.101398
_cell_length_b	19.121073
_cell_length_c	18.101389
_cell_angle_alpha	87.582834
_cell_angle_beta	90.024327
_cell_angle_gamma	92.466048
loop_
_atom_site_label
_atom_site_type_symbol
_atom_site_fract_x
_atom_site_fract_y
_atom_site_fract_z
Zn1	Zn	1.119546	-0.279777	0.431393
Zn2	Zn	1.369546	-0.029777	0.681393
Zn3	Zn	1.619546	0.220223	0.931393
Zn4	Zn	1.869546	0.470223	1.181393
Zn5	Zn	1.114163	-0.397213	0.312820
Zn6	Zn	1.364163	-0.147213	0.562820
Zn7	Zn	1.614163	0.102787	0.812820
Zn8	Zn	1.864163	0.352787	1.062820
Zn9	Zn	0.995705	-0.279770	0.307553
Zn10	Zn	1.245705	-0.029770	0.557553
Zn11	Zn	1.495705	0.220230	0.807553
Zn12	Zn	1.745705	0.470230	1.057553
Zn13	Zn	0.990379	-0.397183	0.436608
Zn14	Zn	1.240379	-0.147183	0.686608
Zn15	Zn	1.490379	0.102817	0.936608
Zn16	Zn	1.740379	0.352817	1.186608
O17	O	1.054948	-0.338486	0.372093
O18	O	1.304948	-0.088486	0.622093
O19	O	1.554948	0.161514	0.872093
O20	O	1.804948	0.411514	1.122093
O21	O	1.222464	-0.295371	0.415685
O22	O	1.472464	-0.045371	0.665685
O23	O	1.722464	0.204629	0.915685
O24	O	1.972464	0.454629	1.165685
O25	O	1.098426	-0.381643	0.208489
O26	O	1.348426	-0.131643	0.458489
O27	O	1.598426	0.118357	0.708489
O28	O	1.848426	0.368357	0.958489
O29	O	1.016615	-0.181486	0.319594
O30	O	1.266615	0.068514	0.569594
O31	O	1.516615	0.318514	0.819594
O32	O	1.766615	0.568514	1.069594
O33	O	1.218510	-0.381650	0.328571
O34	O	1.468510	-0.131650	0.578571
O35	O	1.718510	0.118350	0.828571
O36	O	1.968510	0.368350	1.078571
O37	O	1.107600	-0.181491	0.410578
O38	O	1.357600	0.068509	0.660578
O39	O	1.607600	0.318509	0.910578
O40	O	1.857600	0.568509	1.160578
O41	O	1.011396	-0.295358	0.204619
O42	O	1.261396	-0.045358	0.454619
O43	O	1.511396	0.204642	0.704619
O44	O	1.761396	0.454642	0.954619
O45	O	0.891366	-0.295329	0.324651
O46	O	1.141366	-0.045329	0.574651
O47	O	1.391366	0.204671	0.824651
O48	O	1.641366	0.454671	1.074651
O49	O	1.007536	-0.381599	0.539548
O50	O	1.257536	-0.131599	0.789548
O51	O	1.507536	0.118401	1.039548
O52	O	1.757536	0.368401	1.289548
O53	O	0.887453	-0.381592	0.419467
O54	O	1.137453	-0.131592	0.669467
O55	O	1.387453	0.118408	0.919467
O56	O	1.637453	0.368408	1.169467
O57	O	1.102435	-0.295342	0.535717
O58	O	1.352435	-0.045342	0.785717
O59	O	1.602435	0.204658	1.035717
O60	O	1.852435	0.454658	1.285717
O61	O	1.093261	-0.495494	0.333628
O62	O	1.343261	-0.245494	0.583628
O63	O	1.593261	0.004506	0.833628
O64	O	1.843261	0.254506	1.083628
O65	O	1.002317	-0.495472	0.424574
O66	O	1.252317	-0.245472	0.674574
O67	O	1.502317	0.004528	0.924574
O68	O	1.752317	0.254528	1.174574
C69	C	0.862539	-0.338457	0.372054
C70	C	1.112539	-0.088457	0.622054
C71	C	1.362539	0.161543	0.872054
C72	C	1.612539	0.411543	1.122054
C73	C	0.780225	-0.338462	0.372055
C74	C	1.030225	-0.088462	0.622055
C75	C	1.280225	0.161538	0.872055
C76	C	1.530225	0.411538	1.122055
C77	C	1.046647	-0.520967	0.380254
C78	C	1.296647	-0.270967	0.630254
C79	C	1.546647	-0.020967	0.880254
C80	C	1.796647	0.229033	1.130254
C81	C	1.043164	-0.599033	0.383770
C82	C	1.293164	-0.349033	0.633770
C83	C	1.543164	-0.099033	0.883770
C84	C	1.793164	0.150967	1.133770
C85	C	0.481132	-0.338506	0.372119
C86	C	0.731132	-0.088506	0.622119
C87	C	0.981132	0.161494	0.872119
C88	C	1.231132	0.411494	1.122119
C89	C	0.514907	-0.283960	0.312731
C90	C	0.764907	-0.033960	0.562731
C91	C	1.014907	0.216040	0.812731
C92	C	1.264907	0.466040	1.062731
C93	C	0.600518	-0.284107	0.312494
C94	C	0.850518	-0.034107	0.562494
C95	C	1.100518	0.215893	0.812494
C96	C	1.350518	0.465893	1.062494
C97	C	0.629515	-0.338483	0.372087
C98	C	0.879515	-0.088483	0.622087
C99	C	1.129515	0.161517	0.872087
C100	C	1.379515	0.411517	1.122087
C101	C	0.595072	-0.412466	0.354082
C102	C	0.845072	-0.162466	0.604082
C103	C	1.095072	0.087534	0.854082
C104	C	1.345072	0.337534	1.104082
C105	C	0.509440	-0.412163	0.353673
C106	C	0.759440	-0.162163	0.603673
C107	C	1.009440	0.087837	0.853673
C108	C	1.259440	0.337837	1.103673
C109	C	0.513591	-0.319712	0.449675
C110	C	0.763591	-0.069712	0.699675
C111	C	1.013591	0.180288	0.949675
C112	C	1.263591	0.430288	1.199675
C113	C	0.599316	-0.318064	0.449173
C114	C	0.849316	-0.068064	0.699173
C115	C	1.099316	0.181936	0.949173
C116	C	1.349316	0.431936	1.199173
C117	C	0.713375	-0.338475	0.372071
C118	C	0.963375	-0.088475	0.622071
C119	C	1.213375	0.161525	0.872071
C120	C	1.463375	0.411525	1.122071
C121	C	0.397272	-0.338519	0.372134
C122	C	0.647272	-0.088519	0.622134
C123	C	0.897272	0.161481	0.872134
C124	C	1.147272	0.411481	1.122134
C125	C	1.021110	-1.040561	0.406089
C126	C	1.271110	-0.790561	0.656089
C127	C	1.521110	-0.540561	0.906089
C128	C	1.771110	-0.290561	1.156089
C129	C	1.024383	-0.967209	0.402777
C130	C	1.274383	-0.717209	0.652777
C131	C	1.524383	-0.467209	0.902777
C132	C	1.774383	-0.217209	1.152777
C133	C	1.073404	-0.930524	0.353804
C134	C	1.323404	-0.680524	0.603804
C135	C	1.573404	-0.430524	0.853804
C136	C	1.823404	-0.180524	1.103804
C137	C	1.119161	-0.967194	0.308146
C138	C	1.369161	-0.717194	0.558146
C139	C	1.619161	-0.467194	0.808146
C140	C	1.869161	-0.217194	1.058146
C141	C	1.115892	-1.040544	0.311462
C142	C	1.365892	-0.790544	0.561462
C143	C	1.615892	-0.540544	0.811462
C144	C	1.865892	-0.290544	1.061462
C145	C	1.085651	-0.709053	0.341428
C146	C	1.335651	-0.459053	0.591428
C147	C	1.585651	-0.209053	0.841428
C148	C	1.835651	0.040947	1.091428
C149	C	1.088916	-0.635698	0.338114
C150	C	1.338916	-0.385698	0.588114
C151	C	1.588916	-0.135698	0.838114
C152	C	1.838916	0.114302	1.088114
C153	C	0.994138	-0.635718	0.432746
C154	C	1.244138	-0.385718	0.682746
C155	C	1.494138	-0.135718	0.932746
C156	C	1.744138	0.114282	1.182746
C157	C	0.990869	-0.709070	0.436055
C158	C	1.240869	-0.459070	0.686055
C159	C	1.490869	-0.209070	0.936055
C160	C	1.740869	0.040930	1.186055
C161	C	1.036629	-0.745733	0.390399
C162	C	1.286629	-0.495733	0.640399
C163	C	1.536629	-0.245733	0.890399
C164	C	1.786629	0.004267	1.140399
C165	C	1.076749	-0.855547	0.350416
C166	C	1.326749	-0.605547	0.600416
C167	C	1.576749	-0.355547	0.850416
C168	C	1.826749	-0.105547	1.100416
C169	C	1.033287	-0.820709	0.393792
C170	C	1.283287	-0.570709	0.643792
C171	C	1.533287	-0.320709	0.893792
C172	C	1.783287	-0.070709	1.143792
C173	C	1.248109	-0.338515	0.372134
C174	C	1.498109	-0.088515	0.622134
C175	C	1.748109	0.161485	0.872134
C176	C	1.998109	0.411485	1.122134
C177	C	1.330422	-0.338527	0.372151
C178	C	1.580422	-0.088527	0.622151
C179	C	1.830422	0.161473	0.872151
C180	C	2.080422	0.411473	1.122151
C181	C	1.054992	-0.338468	0.565255
C182	C	1.304992	-0.088468	0.815255
C183	C	1.554992	0.161532	1.065255
C184	C	1.804992	0.411532	1.315255
C185	C	1.055010	-0.338460	0.647568
C186	C	1.305010	-0.088460	0.897568
C187	C	1.555010	0.161540	1.147568
C188	C	1.805010	0.411540	1.397568
C189	C	1.063302	-0.155292	0.363917
C190	C	1.313302	0.094708	0.613917
C191	C	1.563302	0.344708	0.863917
C192	C	1.813302	0.594708	1.113917
C193	C	1.066862	-0.077226	0.360432
C194	C	1.316862	0.172774	0.610432
C195	C	1.566862	0.422774	0.860432
C196	C	1.816862	0.672774	1.110432
C197	C	1.054950	-0.338453	0.179681
C198	C	1.304950	-0.088453	0.429681
C199	C	1.554950	0.161547	0.679681
C200	C	1.804950	0.411547	0.929681
C201	C	1.055084	-0.338262	0.097359
C202	C	1.305084	-0.088262	0.347359
C203	C	1.555084	0.161738	0.597359
C204	C	1.805084	0.411738	0.847359
C205	C	1.055059	-0.338329	0.946654
C206	C	1.305059	-0.088329	1.196654
C207	C	1.555059	0.161671	1.446654
C208	C	1.805059	0.411671	1.696654
C209	C	0.995162	-0.392427	0.917731
C210	C	1.245162	-0.142427	1.167731
C211	C	1.495162	0.107573	1.417731
C212	C	1.745162	0.357573	1.667731
C213	C	0.995306	-0.392678	0.832124
C214	C	1.245306	-0.142678	1.082124
C215	C	1.495306	0.107322	1.332124
C216	C	1.745306	0.357322	1.582124
C217	C	1.055035	-0.338394	0.798274
C218	C	1.305035	-0.088394	1.048274
C219	C	1.555035	0.161606	1.298274
C220	C	1.805035	0.411606	1.548274
C221	C	1.132157	-0.358491	0.830281
C222	C	1.382157	-0.108491	1.080281
C223	C	1.632157	0.141509	1.330281
C224	C	1.882157	0.391509	1.580281
C225	C	1.131820	-0.358846	0.915942
C226	C	1.381820	-0.108846	1.165942
C227	C	1.631820	0.141154	1.415942
C228	C	1.881820	0.391154	1.665942
C229	C	1.038518	-0.264013	0.911743
C230	C	1.288518	-0.014013	1.161743
C231	C	1.538518	0.235987	1.411743
C232	C	1.788518	0.485987	1.661743
C233	C	1.036763	-0.264442	0.826112
C234	C	1.286763	-0.014442	1.076112
C235	C	1.536763	0.235558	1.326112
C236	C	1.786763	0.485558	1.576112
C237	C	1.055025	-0.338430	0.714416
C238	C	1.305025	-0.088430	0.964416
C239	C	1.555025	0.161570	1.214416
C240	C	1.805025	0.411570	1.464416
C241	C	1.055074	-0.338295	1.030512
C242	C	1.305074	-0.088295	1.280512
C243	C	1.555074	0.161705	1.530512
C244	C	1.805074	0.411705	1.780512
H245	H	0.624025	-0.229245	0.323399
H246	H	0.874025	0.020755	0.573399
H247	H	1.124025	0.270755	0.823399
H248	H	1.374025	0.520755	1.073399
F249	F	1.089978	-0.208961	0.795680
F250	F	1.339978	0.041039	1.045680
F251	F	1.589978	0.291039	1.295680
F252	F	1.839978	0.541039	1.545680
F253	F	1.095594	-0.211330	0.935880
F254	F	1.345594	0.038670	1.185880
F255	F	1.595594	0.288670	1.435880
F256	F	1.845594	0.538670	1.685880
H257	H	1.177838	-0.320327	0.808223
H258	H	1.427838	-0.070327	1.058223
H259	H	1.677838	0.179673	1.308223
H260	H	1.927838	0.429673	1.558223
H261	H	0.496810	-0.228931	0.323481
H262	H	0.746810	0.021069	0.573481
H263	H	0.996810	0.271069	0.823481
H264	H	1.246810	0.521069	1.073481
F265	F	1.141086	-0.596656	0.285980
F266	F	1.391086	-0.346656	0.535980
F267	F	1.641086	-0.096656	0.785980
F268	F	1.891086	0.153344	1.035980
H269	H	0.491549	-0.359441	0.493884
H270	H	0.741549	-0.109441	0.743884
H271	H	0.991549	0.140559	0.993884
H272	H	1.241549	0.390559	1.243884
F273	F	1.008897	-0.463980	0.949120
F274	F	1.258897	-0.213980	1.199120
F275	F	1.508897	0.036020	1.449120
F276	F	1.758897	0.286020	1.699120
H277	H	0.492805	-0.296243	0.255526
H278	H	0.742805	-0.046243	0.505526
H279	H	0.992805	0.203757	0.755526
H280	H	1.242805	0.453757	1.005526
H281	H	1.146887	-0.412239	0.811251
H282	H	1.396887	-0.162239	1.061251
H283	H	1.646887	0.087761	1.311251
H284	H	1.896887	0.337761	1.561251
F285	F	0.626526	-0.300341	0.237290
F286	F	0.876526	-0.050341	0.487290
F287	F	1.126526	0.199659	0.737290
F288	F	1.376526	0.449659	0.987290
H289	H	0.613561	-0.454194	0.396130
H290	H	0.863561	-0.204194	0.646130
H291	H	1.113561	0.045806	0.896130
H292	H	1.363561	0.295806	1.146130
H293	H	0.938013	-0.380101	0.810527
H294	H	1.188013	-0.130101	1.060527
H295	H	1.438013	0.119899	1.310527
H296	H	1.688013	0.369899	1.560527
H297	H	0.488712	-0.428102	0.297074
H298	H	0.738712	-0.178102	0.547074
H299	H	0.988712	0.071898	0.797074
H300	H	1.238712	0.321898	1.047074
F301	F	1.171339	-0.928149	0.256029
F302	F	1.421339	-0.678149	0.506029
F303	F	1.671339	-0.428149	0.756029
F304	F	1.921339	-0.178149	1.006029
F305	F	0.945444	-0.596693	0.481336
F306	F	1.195444	-0.346693	0.731336
F307	F	1.445444	-0.096693	0.981336
F308	F	1.695444	0.153307	1.231336
H309	H	1.122909	-0.738896	0.304249
H310	H	1.372909	-0.488896	0.554249
H311	H	1.622909	-0.238896	0.804249
H312	H	1.872909	0.011104	1.054249
H313	H	1.153150	-1.070396	0.274285
H314	H	1.403150	-0.820396	0.524285
H315	H	1.653150	-0.570396	0.774285
H316	H	1.903150	-0.320396	1.024285
F317	F	1.009262	-0.464670	0.808579
F318	F	1.259262	-0.214670	1.058579
F319	F	1.509262	0.035330	1.308579
F320	F	1.759262	0.285330	1.558579
H321	H	1.116663	-0.825672	0.310540
H322	H	1.366663	-0.575672	0.560540
H323	H	1.616663	-0.325672	0.810540
H324	H	1.866663	-0.075672	1.060540
F325	F	0.479884	-0.467082	0.407977
F326	F	0.729884	-0.217082	0.657977
F327	F	0.979884	0.032918	0.907977
F328	F	1.229884	0.282918	1.157977
H329	H	0.615758	-0.428682	0.298115
H330	H	0.865758	-0.178682	0.548115
H331	H	1.115758	0.071318	0.798115
H332	H	1.365758	0.321318	1.048115
F333	F	1.150658	-0.429853	0.945250
F334	F	1.400658	-0.179853	1.195250
F335	F	1.650658	0.070147	1.445250
F336	F	1.900658	0.320147	1.695250
F337	F	0.488512	-0.250425	0.471908
F338	F	0.738512	-0.000425	0.721908
F339	F	0.988512	0.249575	0.971908
F340	F	1.238512	0.499575	1.221908
F341	F	1.191865	-0.309549	0.940842
F342	F	1.441865	-0.059549	1.190842
F343	F	1.691865	0.190451	1.440842
F344	F	1.941865	0.440451	1.690842
F345	F	0.966518	-0.240083	0.938881
F346	F	1.216518	0.009917	1.188881
F347	F	1.466518	0.259917	1.438881
F348	F	1.716518	0.509917	1.688881
F349	F	0.981119	-0.859753	0.445914
F350	F	1.231119	-0.609753	0.695914
F351	F	1.481119	-0.359753	0.945914
F352	F	1.731119	-0.109753	1.195914
F353	F	0.968929	-1.079597	0.458208
F354	F	1.218929	-0.829597	0.708208
F355	F	1.468929	-0.579597	0.958208
F356	F	1.718929	-0.329597	1.208208
H357	H	0.622107	-0.263622	0.462810
H358	H	0.872107	-0.013622	0.712810
H359	H	1.122107	0.236378	0.962810
H360	H	1.372107	0.486378	1.212810
H361	H	0.980024	-0.249287	0.805100
H362	H	1.230024	0.000713	1.055100
H363	H	1.480024	0.250713	1.305100
H364	H	1.730024	0.500713	1.555100
F365	F	0.975689	-0.928191	0.451374
F366	F	1.225689	-0.678191	0.701374
F367	F	1.475689	-0.428191	0.951374
F368	F	1.725689	-0.178191	1.201374
H369	H	0.619066	-0.354898	0.495525
H370	H	0.869066	-0.104898	0.745525
H371	H	1.119066	0.145102	0.995525
H372	H	1.369066	0.395102	1.245525
H373	H	0.950942	-0.738934	0.475925
H374	H	1.200942	-0.488934	0.725925
H375	H	1.450942	-0.238934	0.975925
H376	H	1.700942	0.011066	1.225925
F377	F	0.920037	-0.376154	0.943901
F378	F	1.170037	-0.126154	1.193901
F379	F	1.420037	0.123846	1.443901
F380	F	1.670037	0.373846	1.693901
