data_functionalizedCrystal
_audit_creation_method	'MofGen! by Chris Wilmer'
_symmetry_space_group_name_H-M	'P1'
_symmetry_Int_Tables_number	1
_symmetry_cell_setting	triclinic
loop_
_symmetry_equiv_pos_as_xyz
  x,y,z
_cell_length_a	19.902436
_cell_length_b	14.809374
_cell_length_c	19.902436
_cell_angle_alpha	124.876392
_cell_angle_beta	90.007025
_cell_angle_gamma	55.131216
loop_
_atom_site_label
_atom_site_type_symbol
_atom_site_fract_x
_atom_site_fract_y
_atom_site_fract_z
Zr1	Zr	0.509715	1.187815	0.225787
O2	O	0.376225	1.414183	0.359277
O3	O	0.568811	0.961449	0.166690
O4	O	0.542598	1.187845	0.333087
O5	O	0.402442	1.187763	0.082297
O6	O	0.653161	1.187866	0.333103
O7	O	0.402438	1.187788	0.192880
O8	O	0.700052	0.782886	0.035449
O9	O	0.355551	1.592744	0.379952
O10	O	0.654569	1.054572	0.163456
O11	O	0.572059	1.054538	0.080918
O12	O	0.541196	1.321090	0.276829
O13	O	0.458687	1.321056	0.194291
Zr14	Zr	0.686056	1.187810	0.049445
Zr15	Zr	0.686050	1.187849	0.225812
Zr16	Zr	0.509720	1.187777	0.049420
Zr17	Zr	0.476741	1.472599	0.258760
Zr18	Zr	0.719029	0.903027	0.016472
O19	O	0.626959	1.414176	0.108542
O20	O	0.626952	1.414231	0.359312
O21	O	0.376232	1.414128	0.108507
O22	O	0.819545	0.961442	-0.084045
O23	O	0.819538	0.961497	0.166725
O24	O	0.568818	0.961394	-0.084080
O25	O	0.793329	1.187862	0.192935
O26	O	0.653173	1.187780	-0.057855
O27	O	0.542609	1.187759	-0.057871
O28	O	0.793332	1.187838	0.082352
O29	O	0.495714	1.592771	0.379971
O30	O	0.700056	0.782855	-0.104739
O31	O	0.840220	0.782881	-0.104720
O32	O	0.840215	0.782912	0.035468
O33	O	0.355555	1.592713	0.239764
O34	O	0.495718	1.592740	0.239784
O35	O	0.654574	1.054536	-0.001597
O36	O	0.737084	1.054569	0.080941
O37	O	0.623711	1.321087	0.194314
O38	O	0.541201	1.321054	0.111776
C39	C	0.639130	0.831592	0.096371
C40	C	0.653128	0.710694	0.082373
C41	C	0.590656	0.750282	0.144845
C42	C	0.605122	0.625330	0.130379
C43	C	0.377316	1.187771	0.137585
C44	C	0.302457	1.187756	0.137575
C45	C	0.030400	1.187832	0.137630
C46	C	0.130408	1.019707	0.066360
C47	C	0.208323	1.019602	0.066056
C48	C	0.165371	1.187793	0.137602
C49	C	0.101586	1.271274	0.109302
C50	C	0.024148	1.270199	0.108798
C51	C	0.022605	1.273680	0.237362
C52	C	0.101849	1.270520	0.236854
C53	C	0.241647	1.187781	0.137589
C54	C	-0.045879	1.187850	0.137641
C55	C	0.818454	1.187855	0.137647
C56	C	0.893313	1.187869	0.137657
C57	C	0.597879	1.187861	0.358224
C58	C	0.597876	1.187878	0.433096
C59	C	0.556641	1.544033	0.178861
C60	C	0.542643	1.664931	0.192859
C61	C	0.597874	1.187860	0.570159
C62	C	0.526361	1.355975	0.670189
C63	C	0.526072	1.356047	0.748090
C64	C	0.597871	1.187845	0.705107
C65	C	0.569909	1.103860	0.641095
C66	C	0.569389	1.104965	0.563671
C67	C	0.697519	1.102514	0.562563
C68	C	0.697018	1.105650	0.641797
C69	C	0.597872	1.187828	0.781371
C70	C	0.597871	1.187873	0.493893
C71	C	0.597885	1.187784	0.917017
C72	C	0.597869	1.187828	0.842170
C73	C	0.859699	0.831634	0.096402
C74	C	0.948556	0.710750	0.082414
C75	C	0.639136	0.831543	-0.124236
C76	C	0.653136	0.710629	-0.213107
C77	C	0.859705	0.831585	-0.124206
C78	C	0.948564	0.710685	-0.213065
C79	C	0.336065	1.544040	0.399438
C80	C	0.247206	1.664940	0.488297
C81	C	0.336072	1.543991	0.178830
C82	C	0.247214	1.664875	0.192818
C83	C	0.556634	1.544082	0.399468
C84	C	0.542634	1.664996	0.488339
C85	C	0.947212	0.653983	0.118925
C86	C	1.030694	0.540416	0.105801
C87	C	1.115520	0.483610	0.056159
C88	C	1.116861	0.540388	0.019649
C89	C	1.033379	0.653961	0.032779
C90	C	0.702783	0.653845	-0.297920
C91	C	0.715932	0.540249	-0.381428
C92	C	0.679441	0.483431	-0.380121
C93	C	0.629788	0.540226	-0.295298
C94	C	0.616633	0.653828	-0.211791
C95	C	1.033370	0.653927	-0.211711
C96	C	1.116868	0.540344	-0.295196
C97	C	1.115559	0.483514	-0.380035
C98	C	1.030743	0.540283	-0.381386
C99	C	0.947247	0.653872	-0.297902
C100	C	0.162398	1.721712	0.486944
C101	C	0.078896	1.835330	0.570433
C102	C	0.080205	1.892167	0.655273
C103	C	0.165021	1.835390	0.656624
C104	C	0.248520	1.721781	0.573137
C105	C	0.248557	1.721654	0.156316
C106	C	0.165071	1.835253	0.169463
C107	C	0.080245	1.892063	0.219107
C108	C	0.078905	1.835279	0.255614
C109	C	0.162389	1.721690	0.242472
C110	C	0.579138	1.721778	0.487001
C111	C	0.566002	1.835375	0.570496
C112	C	0.516354	1.892196	0.655328
C113	C	0.479850	1.835403	0.656662
C114	C	0.492993	1.721800	0.573168
H115	H	0.255291	0.954127	0.083953
H116	H	0.009845	1.881539	0.569315
H117	H	0.009828	1.881552	0.296035
N118	N	0.742136	0.715129	-0.299338
H119	H	0.787773	0.695370	-0.274361
H120	H	0.775526	0.661887	-0.365762
H121	H	0.543707	1.421901	0.795229
H122	H	0.025844	1.219886	0.262848
H123	H	0.753244	0.982976	0.609069
H124	H	0.878199	0.700070	-0.299018
H125	H	0.878150	0.700233	0.159358
N126	N	1.029236	0.479192	0.145185
H127	H	0.962831	0.532408	0.178615
H128	H	1.069749	0.365155	0.092437
H129	H	1.183490	0.391130	0.045473
N130	N	1.208354	0.479113	-0.033891
H131	H	1.261029	0.398548	-0.036666
H132	H	1.220327	0.432038	-0.099585
N133	N	0.590445	0.478920	-0.293896
H134	H	0.520155	0.565558	-0.252799
H135	H	0.606390	0.398310	-0.359702
N136	N	0.339986	1.660543	0.574613
H137	H	0.384284	1.546519	0.534158
H138	H	0.368745	1.680396	0.549665
N139	N	1.205629	0.360981	-0.470070
H140	H	1.216583	0.266704	-0.514843
H141	H	1.201047	0.400612	-0.499288
N142	N	0.730954	1.174291	0.567091
H143	H	0.681840	1.262868	0.574110
H144	H	0.742185	1.212845	0.622569
N145	N	0.563025	0.715148	-0.120306
H146	H	0.541890	0.661933	-0.132155
H147	H	0.604813	0.695440	-0.091474
H148	H	0.463261	1.675581	0.574270
N149	N	0.457612	0.832354	0.277912
H150	H	0.398968	0.855681	0.277975
H151	H	0.457662	0.855536	0.336498
H152	H	1.034486	0.700166	0.003041
N153	N	0.738168	0.543272	-0.002657
H154	H	0.736449	0.477742	-0.000937
H155	H	0.738181	0.520068	-0.061261
N156	N	0.166530	1.896499	0.130098
H157	H	0.100774	1.977097	0.145964
H158	H	0.192200	1.943527	0.158178
H159	H	0.012208	1.984673	0.723247
N160	N	0.632701	1.660482	0.395506
H161	H	0.590917	1.680236	0.366675
H162	H	0.653830	1.713719	0.407409
N163	N	0.505626	0.917704	0.229885
H164	H	0.507346	0.983234	0.228167
H165	H	0.447033	0.940882	0.229888
H166	H	0.756366	0.494020	-0.450486
H167	H	0.690159	0.390929	-0.448125
N168	N	1.034798	0.715195	-0.120215
H169	H	1.101198	0.661991	-0.132038
H170	H	0.994283	0.829231	-0.075945
H171	H	0.161284	1.675464	0.272195
H172	H	0.317619	1.675408	0.115886
N173	N	1.208339	0.479126	-0.293726
H174	H	1.196492	0.532358	-0.227312
H175	H	1.252607	0.365092	-0.334239
H176	H	1.029691	0.493996	-0.450473
N177	N	0.160974	1.660419	0.395445
H178	H	0.094571	1.713641	0.407271
H179	H	0.185999	1.680175	0.366669
N180	N	0.141863	0.933250	-0.031102
H181	H	0.082507	1.002449	-0.029267
H182	H	0.195875	0.899279	-0.073632
H183	H	0.166076	1.881680	0.725710
N184	N	0.160621	1.189935	0.265111
H185	H	0.228113	1.100211	0.213840
H186	H	0.155913	1.264096	0.324956
N187	N	0.605380	1.896612	0.569044
H188	H	0.638816	1.843382	0.502633
H189	H	0.552635	2.010645	0.609554
N190	N	0.058492	1.433058	0.311111
H191	H	0.079502	1.455474	0.281332
H192	H	-0.012010	1.506679	0.341888
N193	N	-0.009795	2.014577	0.233278
H194	H	0.003936	2.041914	0.202616
H195	H	-0.039031	1.974948	0.204186
H196	H	0.505659	1.984699	0.723308
H197	H	0.439427	1.881684	0.725744
H198	H	0.669322	0.498928	0.066181
H199	H	0.139743	0.953722	0.084052
H200	H	0.452976	1.421285	0.678397
H201	H	0.497828	1.161462	0.685108
H202	H	0.255073	0.953484	-0.007844
H203	H	0.031214	1.210854	0.035852
H204	H	-0.047170	1.393549	0.158374
N205	N	0.724933	1.186758	0.700788
H206	H	0.673578	1.276372	0.768242
H207	H	0.784797	1.112842	0.696173
N208	N	0.768115	0.938473	0.468352
H209	H	0.770476	0.937035	0.417027
H210	H	0.831958	0.884304	0.463959
N211	N	0.160084	1.194464	0.013715
H212	H	0.227888	1.105609	-0.011394
H213	H	0.137459	1.155494	-0.030205
N214	N	-0.071584	1.437739	0.307728
H215	H	-0.109051	1.456431	0.275216
H216	H	-0.106418	1.457054	0.358311
N217	N	0.056434	1.435082	0.175827
H218	H	0.016634	1.492266	0.241491
H219	H	0.106712	1.436079	0.174187
H220	H	0.543801	1.422332	0.679698
H221	H	0.452265	1.421599	0.794610
H222	H	0.619148	0.981600	0.492327
N223	N	0.472868	1.183058	0.572817
H224	H	0.431056	1.216445	0.627008
H225	H	0.445706	1.275784	0.584412
H226	H	0.620335	0.980169	0.606981
