data_functionalizedCrystal
_audit_creation_method	'MofGen! by Chris Wilmer'
_symmetry_space_group_name_H-M	'P1'
_symmetry_Int_Tables_number	1
_symmetry_cell_setting	triclinic
loop_
_symmetry_equiv_pos_as_xyz
  x,y,z
_cell_length_a	14.853567
_cell_length_b	27.732064
_cell_length_c	13.930277
_cell_angle_alpha	89.999521
_cell_angle_beta	89.995755
_cell_angle_gamma	83.142177
loop_
_atom_site_label
_atom_site_type_symbol
_atom_site_fract_x
_atom_site_fract_y
_atom_site_fract_z
O1	O	1.195349	0.063106	-0.079756
O2	O	0.932768	0.070624	-0.079771
O3	O	1.072206	-0.003493	-0.079767
O4	O	1.055911	0.137223	-0.079760
O5	O	1.072187	-0.003495	0.079895
O6	O	0.932749	0.070622	0.079891
O7	O	1.195330	0.063104	0.079906
Zn8	Zn	1.064036	0.066863	0.105248
Zn9	Zn	1.064061	0.066865	-0.105113
O10	O	1.055892	0.137221	0.079902
C11	C	0.899175	0.070282	0.000058
C12	C	0.799108	0.069261	0.000051
C13	C	0.387355	0.020920	0.000071
C14	C	0.364652	0.108972	0.000074
C15	C	0.458670	0.109932	0.000071
C16	C	0.517035	0.066385	0.000066
C17	C	0.481382	0.021878	0.000065
C18	C	0.494330	0.154438	0.000063
C19	C	0.588353	0.155399	0.000058
C20	C	0.646721	0.111852	0.000061
C21	C	0.611062	0.067343	0.000060
C22	C	0.669428	0.023796	0.000056
C23	C	0.633772	-0.020713	0.000062
C24	C	0.539750	-0.021670	0.000067
C25	C	0.740742	0.112808	0.000056
C26	C	0.763455	0.024755	0.000050
C27	C	1.071852	-0.021502	0.000061
C28	C	1.070815	-0.075162	0.000052
C29	C	0.981355	-0.452653	0.000043
C30	C	0.985172	-0.250975	0.000042
O31	O	0.915754	-0.220047	-0.000000
N32	N	1.067856	-0.231461	0.000047
C33	C	1.149592	-0.262369	0.000046
O34	O	1.220007	-0.241144	0.000040
C35	C	1.145774	-0.464047	0.000040
C36	C	1.063085	-0.483558	0.000045
C37	C	0.898673	-0.472165	0.000047
C38	C	0.897719	-0.522581	0.000053
C39	C	0.979449	-0.553486	0.000054
C40	C	1.062132	-0.533974	0.000050
C41	C	1.227509	-0.494954	0.000032
C42	C	1.226548	-0.545376	0.000028
C43	C	1.143858	-0.564888	0.000033
C44	C	1.142908	-0.615296	0.000057
N45	N	1.060224	-0.634810	0.000053
C46	C	0.978495	-0.603905	0.000051
C47	C	1.151590	-0.156486	0.000051
C48	C	1.152544	-0.106067	0.000054
C49	C	0.988124	-0.094675	0.000049
C50	C	0.987170	-0.145095	0.000052
C51	C	1.068906	-0.176000	0.000046
C52	C	0.976499	-0.709784	0.000063
C53	C	0.975553	-0.760205	0.000073
C54	C	1.139973	-0.771592	0.000073
C55	C	1.140919	-0.721175	0.000069
C56	C	1.059175	-0.690272	0.000061
O57	O	1.212289	-0.646252	0.000089
O58	O	0.908089	-0.625140	0.000036
C59	C	0.982309	-0.402236	0.000038
C60	C	1.064991	-0.382725	0.000034
C61	C	1.146721	-0.413630	0.000035
C62	C	1.065946	-0.332306	0.000037
C63	C	0.984216	-0.301401	0.000035
C64	C	0.901532	-0.320915	0.000031
C65	C	0.900579	-0.371331	0.000036
C66	C	1.229405	-0.394115	0.000040
C67	C	1.230352	-0.343698	0.000036
C68	C	1.148622	-0.312793	0.000034
C69	C	1.228922	0.063446	0.000075
C70	C	1.328990	0.064467	0.000075
C71	C	1.056246	0.155230	0.000072
C72	C	1.057283	0.208890	0.000074
N73	N	1.064025	0.066861	0.248814
N74	N	1.064079	0.066863	-0.248679
C75	C	1.002316	0.099671	0.701082
C76	C	1.125832	0.034055	0.701055
C77	C	1.125821	0.034054	0.600559
C78	C	1.064058	0.066862	0.550320
C79	C	1.002305	0.099672	0.600577
C80	C	1.187578	0.001248	0.550295
C81	C	1.187571	0.001245	0.449793
C82	C	1.125803	0.034052	0.399552
C83	C	1.064047	0.066862	0.449815
C84	C	1.002284	0.099670	0.399576
C85	C	0.940523	0.132479	0.449837
C86	C	0.940537	0.132478	0.550336
C87	C	1.125789	0.034053	0.299053
C88	C	1.002273	0.099671	0.299071
H89	H	0.617376	0.191641	0.000053
H90	H	1.297692	-0.327818	0.000039
H91	H	1.176122	0.007346	0.741963
Cl92	Cl	0.707156	-0.075455	0.000049
H93	H	0.951974	0.126386	0.258172
Cl94	Cl	0.862887	0.173725	0.386668
H95	H	1.293108	-0.570537	0.000017
H96	H	0.834985	-0.295743	0.000035
Cl97	Cl	0.785565	0.168758	0.000041
H98	H	0.890255	0.159190	0.591264
H99	H	0.358319	-0.015319	0.000080
H100	H	1.295961	-0.419274	0.000040
Cl101	Cl	0.924674	0.140913	0.764261
H102	H	0.908215	-0.776088	0.000081
H103	H	1.237868	-0.025461	0.591203
H104	H	1.176077	0.007343	0.258136
Cl105	Cl	1.265207	-0.040000	0.386615
H106	H	0.909935	-0.684628	0.000056
Cl107	Cl	0.796621	-0.395852	0.000039
H108	H	1.294844	-0.479078	0.000027
H109	H	0.830385	-0.538462	0.000048
H110	H	0.810971	-0.010707	0.000050
H111	H	0.510709	-0.057906	0.000095
H112	H	0.446802	0.189891	0.000056
Cl113	Cl	0.795912	-0.433321	0.000044
Cl114	Cl	0.291278	0.163714	0.000066
H115	H	0.919837	-0.160978	0.000060
H116	H	0.921577	-0.069504	0.000052
Cl117	Cl	1.256501	-0.081545	0.000062
H118	H	1.208252	-0.705289	0.000078
Cl119	Cl	1.254354	-0.195331	0.000050
H120	H	1.206515	-0.796764	0.000079
