data_functionalizedCrystal
_audit_creation_method	'MofGen! by Chris Wilmer'
_symmetry_space_group_name_H-M	'P1'
_symmetry_Int_Tables_number	1
_symmetry_cell_setting	triclinic
loop_
_symmetry_equiv_pos_as_xyz
  x,y,z
_cell_length_a	21.295419
_cell_length_b	15.297327
_cell_length_c	15.298259
_cell_angle_alpha	91.656652
_cell_angle_beta	99.661315
_cell_angle_gamma	80.278484
loop_
_atom_site_label
_atom_site_type_symbol
_atom_site_fract_x
_atom_site_fract_y
_atom_site_fract_z
Zn1	Zn	0.863564	0.262660	-0.555537
Zn2	Zn	1.363564	0.762660	-0.055537
Zn3	Zn	0.857355	0.434510	-0.434398
Zn4	Zn	1.357355	0.934510	0.065602
Zn5	Zn	0.772905	0.288081	-0.409087
Zn6	Zn	1.272905	0.788081	0.090913
Zn7	Zn	0.737523	0.409148	-0.580825
Zn8	Zn	1.237523	0.909148	-0.080825
O9	O	0.807837	0.348600	-0.494962
O10	O	1.307837	0.848600	0.005038
O11	O	0.950832	0.285431	-0.539478
O12	O	1.450832	0.785431	-0.039478
O13	O	0.858361	0.436339	-0.308470
O14	O	1.358361	0.936339	0.191530
O15	O	0.802338	0.162122	-0.407338
O16	O	1.302338	0.662122	0.092662
O17	O	0.946270	0.411689	-0.450477
O18	O	1.446270	0.911689	0.049523
O19	O	0.868945	0.143445	-0.514935
O20	O	1.368945	0.643445	-0.014935
O21	O	0.796317	0.328758	-0.289875
O22	O	1.296317	0.828758	0.210125
O23	O	0.680121	0.304165	-0.431859
O24	O	1.180121	0.804165	0.068141
O25	O	0.742033	0.368463	-0.700041
O26	O	1.242033	0.868463	-0.200041
O27	O	0.654125	0.393113	-0.558034
O28	O	1.154125	0.893113	-0.058034
O29	O	0.834636	0.260839	-0.681462
O30	O	1.334636	0.760839	-0.181462
O31	O	0.824052	0.553733	-0.474998
O32	O	1.324052	1.053733	0.025002
O33	O	0.736012	0.535100	-0.582577
O34	O	1.236012	1.035100	-0.082577
C35	C	0.644282	0.348646	-0.494945
C36	C	1.144282	0.848646	0.005055
C37	C	0.574307	0.348683	-0.494962
C38	C	1.074307	0.848683	0.005038
C39	C	0.775534	0.576199	-0.534297
C40	C	1.275534	1.076199	-0.034297
C41	C	0.761769	0.673561	-0.551155
C42	C	1.261769	1.173561	-0.051155
C43	C	0.785080	0.308986	-0.723421
C44	C	1.285080	0.808986	-0.223421
C45	C	0.775383	0.292105	-0.820777
C46	C	1.275383	0.792105	-0.320777
C47	C	0.543817	0.283017	-0.541407
C48	C	1.043817	0.783017	-0.041407
C49	C	0.478077	0.282993	-0.541406
C50	C	0.978077	0.782993	-0.041406
C51	C	0.442827	0.348649	-0.494972
C52	C	0.942827	0.848649	0.005028
C53	C	0.473326	0.414321	-0.448517
C54	C	0.973326	0.914321	0.051483
C55	C	0.539066	0.414338	-0.448512
C56	C	1.039066	0.914338	0.051488
N57	N	0.329383	0.426478	-0.501390
N58	N	0.829383	0.926478	-0.001390
N59	N	0.266933	0.426459	-0.501399
N60	N	0.766933	0.926459	-0.001399
C61	C	0.244757	0.348601	-0.494984
C62	C	0.744757	0.848601	0.005016
N63	N	0.287389	0.270758	-0.488575
N64	N	0.787389	0.770758	0.011425
N65	N	0.349845	0.270778	-0.488570
N66	N	0.849845	0.770778	0.011430
C67	C	0.371543	0.348638	-0.494972
C68	C	0.871543	0.848638	0.005028
C69	C	0.142985	0.282903	-0.541430
C70	C	0.642985	0.782903	-0.041430
C71	C	0.077245	0.282879	-0.541423
C72	C	0.577245	0.782879	-0.041423
C73	C	0.072494	0.414213	-0.448540
C74	C	0.572494	0.914213	0.051460
C75	C	0.138234	0.414231	-0.448541
C76	C	0.638234	0.914231	0.051459
C77	C	0.173475	0.348576	-0.494991
C78	C	0.673475	0.848576	0.005009
C79	C	0.972030	0.348554	-0.494980
C80	C	1.472030	0.848554	0.005020
C81	C	1.042000	0.348534	-0.494988
C82	C	1.542000	0.848534	0.005012
C83	C	0.840281	0.120109	-0.455492
C84	C	1.340281	0.620109	0.044508
C85	C	0.854107	0.022740	-0.438672
C86	C	1.354107	0.522740	0.061328
C87	C	0.906444	0.986665	-0.374780
C88	C	1.406444	1.486665	0.125220
C89	C	0.919377	0.895189	-0.358938
C90	C	1.419377	1.395189	0.141062
C91	C	0.879977	0.839777	-0.406991
C92	C	1.379977	1.339777	0.093009
C93	C	0.827641	0.875851	-0.470889
C94	C	1.327641	1.375851	0.029111
C95	C	0.814704	0.967337	-0.486728
C96	C	1.314704	1.467337	0.013272
C97	C	0.788236	0.820450	-0.518938
C98	C	1.288236	1.320450	-0.018938
C99	C	0.735900	0.856524	-0.582837
C100	C	1.235900	1.356524	-0.082837
C101	C	0.722965	0.948001	-0.598673
C102	C	1.222965	1.448001	-0.098673
C103	C	0.762366	1.003412	-0.550620
C104	C	1.262366	1.503412	-0.050620
C105	C	0.801173	0.728964	-0.503099
C106	C	1.301173	1.228964	-0.003099
C107	C	0.709432	0.709636	-0.615047
C108	C	1.209432	1.209636	-0.115047
C109	C	0.696499	0.801112	-0.630890
C110	C	1.196499	1.301112	-0.130890
C111	C	0.877262	0.468576	-1.133928
C112	C	1.377262	0.968576	-0.633928
C113	C	0.886369	0.484442	-1.042459
C114	C	1.386369	0.984442	-0.542459
C115	C	0.858624	0.436359	-0.987034
C116	C	1.358624	0.936359	-0.487034
C117	C	0.821769	0.372408	-1.023087
C118	C	1.321769	0.872408	-0.523087
C119	C	0.812657	0.356545	-1.114567
C120	C	1.312657	0.856545	-0.614567
C121	C	0.794018	0.324328	-0.967672
C122	C	1.294018	0.824328	-0.467672
C123	C	0.757163	0.260376	-1.003726
C124	C	1.257163	0.760376	-0.503726
C125	C	0.748053	0.244516	-1.095197
C126	C	1.248053	0.744516	-0.595197
C127	C	0.775799	0.292599	-1.150621
C128	C	1.275799	0.792599	-0.650621
C129	C	0.803131	0.340191	-0.876193
C130	C	1.303131	0.840191	-0.376193
C131	C	0.738525	0.228159	-0.856832
C132	C	1.238525	0.728159	-0.356832
C133	C	0.729418	0.212293	-0.948301
C134	C	1.229418	0.712293	-0.448301
C135	C	0.830550	0.387996	-0.267381
C136	C	1.330550	0.887996	0.232619
C137	C	0.840404	0.404630	-0.169983
C138	C	1.340404	0.904630	0.330017
H139	H	0.453248	0.229516	-0.579225
H140	H	0.953248	0.729516	-0.079225
H141	H	0.444622	0.467778	-0.410710
H142	H	0.944622	0.967778	0.089290
O143	O	0.571958	0.485167	-0.398418
O144	O	1.071958	0.985167	0.101582
H145	H	0.536405	0.530821	-0.366129
H146	H	1.036405	1.030821	0.133871
O147	O	0.907180	0.520431	-1.193711
O148	O	1.407180	1.020431	-0.693711
H149	H	0.888361	0.592230	-1.188036
H150	H	1.388361	1.092230	-0.688036
H151	H	0.171681	0.229439	-0.579246
H152	H	0.671681	0.729439	-0.079246
H153	H	0.751840	1.077900	-0.563518
H154	H	1.251840	1.577900	-0.063518
H155	H	0.052422	0.229401	-0.579242
H156	H	0.552422	0.729401	-0.079242
H157	H	0.866040	0.449282	-0.912556
H158	H	1.366040	0.949282	-0.412556
H159	H	0.043794	0.467671	-0.410733
H160	H	0.543794	0.967671	0.089267
O161	O	0.171126	0.485059	-0.398451
O162	O	0.671126	0.985059	0.101549
H163	H	0.135571	0.530714	-0.366165
H164	H	0.635571	1.030714	0.133835
H165	H	0.843785	0.699601	-0.451073
H166	H	1.343785	1.199601	0.048927
O167	O	0.842890	0.409151	-0.837314
O168	O	1.342890	0.909151	-0.337314
H169	H	0.820587	0.474862	-0.866753
H170	H	1.320587	0.974862	-0.366753
O171	O	0.893930	0.741115	-0.389894
O172	O	1.393930	1.241115	0.110106
H173	H	0.851630	0.720155	-0.367962
H174	H	1.351630	1.220155	0.132038
O175	O	0.708298	0.175548	-1.134087
O176	O	1.208298	0.675548	-0.634087
H177	H	0.738651	0.123751	-1.168073
H178	H	1.238651	0.623751	-0.668073
H179	H	0.572506	0.229556	-0.579229
H180	H	1.072506	0.729556	-0.079229
H181	H	0.916369	0.536520	-1.013112
H182	H	1.416369	1.036520	-0.513112
O183	O	0.975825	0.856277	-0.290033
O184	O	1.475825	1.356277	0.209967
H185	H	1.001055	0.910173	-0.259287
H186	H	1.501055	1.410173	0.240713
O187	O	0.708602	0.176290	-0.797057
O188	O	1.208602	0.676290	-0.297057
H189	H	0.727413	0.104490	-0.802746
H190	H	1.227413	0.604490	-0.302746
O191	O	0.689678	0.143307	-0.987187
O192	O	1.189678	0.643307	-0.487187
H193	H	0.688007	0.140357	-1.060105
H194	H	1.188007	0.640357	-0.560105
O195	O	0.666516	0.986916	-0.667586
O196	O	1.166516	1.486916	-0.167586
H197	H	0.641294	0.933019	-0.698345
H198	H	1.141294	1.433019	-0.198345
O199	O	0.666922	0.649888	-0.666875
O200	O	1.166922	1.149888	-0.166875
H201	H	0.668343	0.655486	-0.738667
H202	H	1.168343	1.155486	-0.238667
O203	O	0.948941	1.046437	-0.322982
O204	O	1.448941	1.546437	0.177018
H205	H	0.919335	1.095920	-0.285620
H206	H	1.419335	1.595920	0.214380
O207	O	0.640045	0.840033	-0.699792
O208	O	1.140045	1.340033	-0.199792
H209	H	0.657864	0.873930	-0.751591
H210	H	1.157864	1.373930	-0.251591
H211	H	0.768388	0.279682	-1.225104
H212	H	1.268388	0.779682	-0.725104
