data_functionalizedCrystal
_audit_creation_method	'MofGen! by Chris Wilmer'
_symmetry_space_group_name_H-M	'P1'
_symmetry_Int_Tables_number	1
_symmetry_cell_setting	triclinic
loop_
_symmetry_equiv_pos_as_xyz
  x,y,z
_cell_length_a	18.215407
_cell_length_b	18.101395
_cell_length_c	18.101390
_cell_angle_alpha	89.968753
_cell_angle_beta	89.982404
_cell_angle_gamma	90.031552
loop_
_atom_site_label
_atom_site_type_symbol
_atom_site_fract_x
_atom_site_fract_y
_atom_site_fract_z
Zn1	Zn	1.125024	-0.294793	-0.418745
Zn2	Zn	1.124924	-0.418650	-0.294906
Zn3	Zn	1.001961	-0.294828	-0.294917
Zn4	Zn	1.001909	-0.418598	-0.418706
O5	O	1.063455	-0.356717	-0.356818
O6	O	1.227995	-0.311230	-0.402329
O7	O	1.108592	-0.402261	-0.191275
O8	O	1.018350	-0.191190	-0.311363
O9	O	1.227921	-0.402227	-0.311345
O10	O	1.108763	-0.191165	-0.402339
O11	O	1.018252	-0.311289	-0.191283
O12	O	0.898970	-0.311239	-0.311326
O13	O	1.018261	-0.402139	-0.522344
O14	O	0.898932	-0.402173	-0.402274
O15	O	1.108713	-0.311180	-0.522372
O16	O	1.108542	-0.522276	-0.311308
O17	O	1.018163	-0.522238	-0.402263
C18	C	0.872248	-0.356705	-0.356797
C19	C	0.790449	-0.356717	-0.356806
C20	C	1.063356	-0.549128	-0.356797
C21	C	1.063381	-0.631442	-0.356812
C22	C	0.602255	-0.404141	-0.404103
C23	C	0.525396	-0.404143	-0.404112
C24	C	0.525406	-0.309307	-0.309551
C25	C	0.602264	-0.309302	-0.309546
C26	C	0.640686	-0.356723	-0.356821
C27	C	0.486970	-0.356731	-0.356835
C28	C	0.403636	-0.356733	-0.356844
C29	C	0.724025	-0.356720	-0.356812
C30	C	1.063543	-0.930533	-0.356852
C31	C	1.006811	-0.899215	-0.414221
C32	C	1.006541	-0.813597	-0.414041
C33	C	1.063463	-0.782150	-0.356833
C34	C	1.042468	-0.813307	-0.278783
C35	C	1.042102	-0.898952	-0.279127
C36	C	1.141394	-0.898875	-0.376846
C37	C	1.140936	-0.813223	-0.378558
C38	C	1.063419	-0.698291	-0.356817
C39	C	1.063585	-1.014392	-0.356862
C40	C	1.255407	-0.356731	-0.356840
C41	C	1.337206	-0.356736	-0.356850
C42	C	1.063492	-0.356650	-0.549980
C43	C	1.063508	-0.356621	-0.632295
C44	C	1.063573	-0.163555	-0.356857
C45	C	1.063624	-0.081241	-0.356873
C46	C	1.063534	-0.356598	-0.783003
C47	C	1.120446	-0.299364	-0.814375
C48	C	1.120684	-0.299519	-0.899993
C49	C	1.063560	-0.356574	-0.931386
C50	C	1.084305	-0.434685	-0.900277
C51	C	1.084703	-0.434368	-0.814633
C52	C	0.985739	-0.336399	-0.814560
C53	C	0.986171	-0.334663	-0.900211
C54	C	1.063573	-0.356565	-1.015245
C55	C	1.063522	-0.356612	-0.699144
C56	C	1.063460	-0.356731	-0.164408
C57	C	1.063586	-0.356551	-0.082094
H58	H	0.633536	-0.442752	-0.442599
H59	H	0.633555	-0.270684	-0.271043
H60	H	1.044130	-0.478488	-0.920608
H61	H	1.019816	-0.919758	-0.472281
H62	H	1.160535	-0.920419	-0.432790
H63	H	1.082489	-0.792940	-0.234874
H64	H	0.986162	-0.791924	-0.261543
H65	H	1.019676	-0.792529	-0.471914
H66	H	0.494109	-0.442754	-0.442615
H67	H	0.949457	-0.920802	-0.401143
H68	H	0.494114	-0.270700	-0.271060
H69	H	0.985194	-0.918997	-0.262190
H70	H	0.948836	-0.793175	-0.400797
H71	H	1.156768	-0.792856	-0.435998
H72	H	1.081631	-0.919672	-0.234925
H73	H	1.185440	-0.791813	-0.339819
H74	H	1.183661	-0.919127	-0.335062
H75	H	1.107723	-0.241610	-0.921028
H76	H	1.107641	-0.241276	-0.793801
H77	H	1.177764	-0.312592	-0.792861
H78	H	1.178337	-0.312903	-0.920490
H79	H	1.141562	-0.451454	-0.794663
H80	H	1.045022	-0.478464	-0.793877
H81	H	0.970522	-0.277179	-0.920546
H82	H	1.140536	-0.452070	-0.921751
H83	H	0.966786	-0.280419	-0.792965
H84	H	0.941530	-0.373283	-0.921578
H85	H	0.943340	-0.378082	-0.794268
