data_functionalizedCrystal
_audit_creation_method	'MofGen! by Chris Wilmer'
_symmetry_space_group_name_H-M	'P1'
_symmetry_Int_Tables_number	1
_symmetry_cell_setting	triclinic
loop_
_symmetry_equiv_pos_as_xyz
  x,y,z
_cell_length_a	19.188930
_cell_length_b	14.044220
_cell_length_c	12.503572
_cell_angle_alpha	93.835250
_cell_angle_beta	93.506241
_cell_angle_gamma	91.833170
loop_
_atom_site_label
_atom_site_type_symbol
_atom_site_fract_x
_atom_site_fract_y
_atom_site_fract_z
O1	O	0.164589	-1.262485	-0.089229
O2	O	0.664589	-0.762485	0.410771
O3	O	0.158515	-0.986542	-0.089255
O4	O	0.658515	-0.486542	0.410745
O5	O	0.060411	-1.132475	-0.089220
O6	O	0.560411	-0.632475	0.410780
O7	O	0.262693	-1.116552	-0.089264
O8	O	0.762693	-0.616552	0.410736
O9	O	0.067803	-1.121500	0.089419
O10	O	0.567803	-0.621500	0.589419
O11	O	0.165907	-0.975567	0.089384
O12	O	0.665907	-0.475567	0.589384
O13	O	0.171980	-1.251510	0.089411
O14	O	0.671980	-0.751510	0.589411
Cu15	Cu	0.169618	-1.112536	0.105709
Cu16	Cu	0.669618	-0.612536	0.605709
Cu17	Cu	0.160877	-1.125516	-0.105553
Cu18	Cu	0.660877	-0.625516	0.394447
O19	O	0.270084	-1.105577	0.089376
O20	O	0.770084	-0.605577	0.589376
C21	C	0.159553	-0.945752	0.000061
C22	C	0.659553	-0.445752	0.500061
C23	C	0.151624	-0.840559	0.000052
C24	C	0.651624	-0.340559	0.500052
C25	C	0.038063	-1.126472	0.000102
C26	C	0.538063	-0.626472	0.500102
C27	C	-0.039541	-1.124923	0.000112
C28	C	0.460459	-0.624923	0.500112
N29	N	0.175766	-1.103414	0.254299
N30	N	0.675766	-0.603414	0.754299
C31	C	-0.078939	-1.210552	0.000125
C32	C	0.421061	-0.710552	0.500125
C33	C	-0.151857	-1.209099	0.000108
C34	C	0.348143	-0.709099	0.500108
C35	C	-0.185374	-1.122010	0.000098
C36	C	0.314626	-0.622010	0.500098
C37	C	-0.145968	-1.036370	0.000079
C38	C	0.354032	-0.536370	0.500079
C39	C	-0.073051	-1.037826	0.000086
C40	C	0.426949	-0.537826	0.500086
N41	N	-0.295160	-1.051706	0.060886
N42	N	0.204840	-0.551706	0.560886
N43	N	-0.364427	-1.050328	0.060882
N44	N	0.135573	-0.550328	0.560882
C45	C	-0.405067	-1.117616	0.000076
C46	C	0.094933	-0.617616	0.500076
N47	N	-0.373823	-1.186348	-0.060712
N48	N	0.126177	-0.686348	0.439288
N49	N	-0.304548	-1.187729	-0.060704
N50	N	0.195452	-0.687729	0.439296
C51	C	-0.264440	-1.120421	0.000091
C52	C	0.235560	-0.620421	0.500091
C53	C	-0.523532	-1.201676	0.000069
C54	C	-0.023532	-0.701676	0.500069
C55	C	-0.596451	-1.200219	0.000045
C56	C	-0.096451	-0.700219	0.500045
C57	C	-0.590560	-1.027487	0.000028
C58	C	-0.090560	-0.527487	0.500028
C59	C	-0.517642	-1.028947	0.000041
C60	C	-0.017642	-0.528947	0.500041
C61	C	-0.484132	-1.116043	0.000067
C62	C	0.015868	-0.616043	0.500067
C63	C	0.292433	-1.111580	0.000051
C64	C	0.792433	-0.611580	0.500051
C65	C	0.370037	-1.113129	0.000034
C66	C	0.870037	-0.613129	0.500034
C67	C	0.170943	-1.292301	0.000092
C68	C	0.670943	-0.792301	0.500092
C69	C	0.178872	-1.397493	0.000094
C70	C	0.678872	-0.897493	0.500094
C71	C	0.137129	-0.647956	0.000077
C72	C	0.637129	-0.147956	0.500077
C73	C	0.193363	-0.590090	0.000069
C74	C	0.693363	-0.090090	0.500069
C75	C	0.185298	-0.482920	0.000083
C76	C	0.685298	0.017080	0.500083
C77	C	0.145193	-0.755137	0.000063
C78	C	0.645193	-0.255137	0.500063
N79	N	0.154724	-1.134645	-0.254143
N80	N	0.654724	-0.634645	0.245857
C81	C	0.184816	-1.089995	0.473411
C82	C	0.684816	-0.589995	0.973411
C83	C	0.145676	-1.148061	0.526752
C84	C	0.645676	-0.648061	1.026752
C85	C	0.150712	-1.140595	0.648673
C86	C	0.650712	-0.640595	1.148673
C87	C	0.179782	-1.097461	0.351478
C88	C	0.679782	-0.597461	0.851478
H89	H	-0.051660	-1.281473	0.000142
H90	H	0.448340	-0.781473	0.500142
C91	C	-0.182837	-0.940571	0.000077
C92	C	0.317163	-0.440571	0.500077
N93	N	-0.210607	-0.868413	0.000075
N94	N	0.289393	-0.368413	0.500075
C95	C	-0.195203	-1.303301	0.000129
C96	C	0.304797	-0.803301	0.500129
N97	N	-0.227848	-1.374254	0.000148
N98	N	0.272152	-0.874254	0.500148
C99	C	-0.029712	-0.943623	0.000074
C100	C	0.470288	-0.443623	0.500074
N101	N	0.002932	-0.872668	0.000068
N102	N	0.502932	-0.372668	0.500068
H103	H	0.082933	-0.617011	0.000094
H104	H	0.582933	-0.117011	0.500094
H105	H	0.222105	-1.034680	0.519305
H106	H	0.722105	-0.534680	1.019305
C107	C	-0.474302	-0.934746	0.000032
C108	C	0.025698	-0.434746	0.500032
N109	N	-0.441660	-0.863790	0.000021
N110	N	0.058340	-0.363790	0.500021
H111	H	-0.496247	-1.272595	0.000085
H112	H	0.003753	-0.772595	0.500085
C113	C	-0.639789	-1.294423	0.000066
C114	C	-0.139789	-0.794423	0.500066
N115	N	-0.672431	-1.365379	0.000086
N116	N	-0.172431	-0.865379	0.500086
H117	H	-0.617849	-0.956578	0.000015
H118	H	-0.117849	-0.456578	0.500015
C119	C	0.095307	-1.222806	0.464746
C120	C	0.595307	-0.722806	0.964746
N121	N	0.057374	-1.279107	0.418039
N122	N	0.557374	-0.779107	0.918039
H123	H	0.247564	-0.621038	0.000052
H124	H	0.747564	-0.121038	0.500052
