data_functionalizedCrystal
_audit_creation_method	'MofGen! by Chris Wilmer'
_symmetry_space_group_name_H-M	'P1'
_symmetry_Int_Tables_number	1
_symmetry_cell_setting	triclinic
loop_
_symmetry_equiv_pos_as_xyz
  x,y,z
_cell_length_a	18.050589
_cell_length_b	18.050591
_cell_length_c	18.050582
_cell_angle_alpha	89.979078
_cell_angle_beta	90.018205
_cell_angle_gamma	89.975773
loop_
_atom_site_label
_atom_site_type_symbol
_atom_site_fract_x
_atom_site_fract_y
_atom_site_fract_z
Zn1	Zn	-0.295786	-1.135293	0.420054
Zn2	Zn	-0.419969	-1.135203	0.295873
Zn3	Zn	-0.295789	-1.011112	0.295865
Zn4	Zn	-0.419930	-1.011060	0.420009
O5	O	-0.357868	-1.073167	0.357950
O6	O	-0.312274	-1.239205	0.403603
O7	O	-0.403514	-1.118727	0.191948
O8	O	-0.191864	-1.027644	0.312354
O9	O	-0.403511	-1.239140	0.312369
O10	O	-0.191862	-1.118879	0.403595
O11	O	-0.312279	-1.027557	0.191942
O12	O	-0.312241	-0.907180	0.312311
O13	O	-0.403444	-1.027555	0.523940
O14	O	-0.403447	-0.907142	0.403519
O15	O	-0.312236	-1.118828	0.523973
O16	O	-0.523888	-1.118676	0.312325
O17	O	-0.523860	-1.027468	0.403527
C18	C	-0.550820	-1.073077	0.357938
C19	C	-0.633366	-1.073107	0.357958
C20	C	-0.357841	-0.880215	0.357909
C21	C	-0.357847	-0.797669	0.357909
C22	C	-0.357835	-1.073196	0.551656
C23	C	-0.357821	-1.073208	0.634202
C24	C	-0.832828	-1.023557	0.407536
C25	C	-0.882261	-1.005459	0.339767
C26	C	-0.784497	-1.073180	0.357967
C27	C	-0.882146	-1.091314	0.425744
C28	C	-0.930482	-1.073249	0.357983
C29	C	-0.832842	-1.055046	0.290162
C30	C	-0.832722	-1.140933	0.376186
C31	C	-0.882133	-1.122861	0.308370
C32	C	-0.700398	-1.073138	0.357959
C33	C	-1.014578	-1.073291	0.357983
C34	C	-0.164163	-1.073277	0.357979
C35	C	-0.081617	-1.073324	0.357991
C36	C	-0.357897	-1.266872	0.357992
C37	C	-0.357909	-1.349418	0.358010
C38	C	-0.308191	-0.598217	0.308425
C39	C	-0.375927	-0.548798	0.290154
C40	C	-0.357869	-0.646539	0.357943
C41	C	-0.290157	-0.548877	0.376212
C42	C	-0.357885	-0.500553	0.357974
C43	C	-0.425641	-0.598206	0.339637
C44	C	-0.339825	-0.598289	0.425726
C45	C	-0.407607	-0.548892	0.407481
C46	C	-0.357859	-0.730637	0.357923
C47	C	-0.357903	-0.416457	0.357994
C48	C	-0.357848	-1.073181	0.164998
C49	C	-0.357652	-1.073312	0.082453
C50	C	-0.407353	-1.023612	0.833635
C51	C	-0.425511	-1.091367	0.883034
C52	C	-0.357765	-1.073245	0.785332
C53	C	-0.339586	-1.005527	0.883014
C54	C	-0.357711	-1.073274	0.931317
C55	C	-0.375958	-1.141036	0.833645
C56	C	-0.290002	-1.055150	0.833620
C57	C	-0.308134	-1.122952	0.882998
C58	C	-0.357797	-1.073227	0.701234
C59	C	-0.357679	-1.073300	1.015414
H60	H	-0.904037	-0.948195	0.324371
C61	C	-0.804057	-0.967578	0.463459
C62	C	-0.830126	-0.985992	0.534150
C63	C	-0.803646	-0.934435	0.585679
H64	H	-0.751437	-0.968212	0.463478
H65	H	-0.821045	-0.919479	0.450445
H66	H	-0.813135	-1.034079	0.547160
H67	H	-0.882743	-0.985353	0.534155
H68	H	-0.820633	-0.886335	0.572666
H69	H	-0.751026	-0.935072	0.585691
H70	H	-0.821335	-0.946917	0.633648
H71	H	-0.324530	-0.620045	0.483019
C72	C	-0.252127	-0.627001	0.252588
C73	C	-0.181485	-0.600919	0.271163
C74	C	-0.129826	-0.627413	0.219738
H75	H	-0.252098	-0.679621	0.253236
H76	H	-0.265026	-0.610032	0.204452
H77	H	-0.168589	-0.617893	0.319286
H78	H	-0.181489	-0.548302	0.270509
H79	H	-0.142725	-0.610443	0.171602
H80	H	-0.129804	-0.680032	0.220390
H81	H	-0.081891	-0.609714	0.232329
C82	C	-0.910785	-1.178758	0.252306
C83	C	-0.885684	-1.159464	0.181499
C84	C	-0.912073	-1.210930	0.129832
H85	H	-0.893090	-1.226747	0.264733
H86	H	-0.963415	-1.178756	0.252856
H87	H	-0.833065	-1.159474	0.180951
H88	H	-0.903377	-1.111483	0.169049
H89	H	-0.964703	-1.210928	0.130382
H90	H	-0.894376	-1.258916	0.142266
H91	H	-0.895052	-1.197843	0.081783
H92	H	-0.810948	-1.198184	0.391613
H93	H	-0.903802	-1.106625	0.483056
C94	C	-0.463217	-0.967601	0.804685
C95	C	-0.426519	-0.914213	0.762040
C96	C	-0.477957	-0.862604	0.735367
H97	H	-0.498994	-0.992203	0.774962
H98	H	-0.487220	-0.944194	0.845248
H99	H	-0.402529	-0.937619	0.721482
H100	H	-0.390747	-0.889593	0.791747
H101	H	-0.501959	-0.839196	0.775930
H102	H	-0.513730	-0.887212	0.705647
H103	H	-0.453064	-0.826371	0.706435
H104	H	-0.391202	-0.527060	0.232844
C105	C	-0.213821	-0.520024	0.396956
C106	C	-0.194608	-0.546158	0.467434
C107	C	-0.124297	-0.519589	0.486564
H108	H	-0.178506	-0.536895	0.361788
H109	H	-0.214478	-0.467397	0.397306
H110	H	-0.193945	-0.598775	0.467078
H111	H	-0.229904	-0.529290	0.502617
H112	H	-0.124954	-0.466961	0.486914
H113	H	-0.088988	-0.536461	0.451392
H114	H	-0.111255	-0.537311	0.534388
C115	C	-0.501941	-1.111656	0.911942
C116	C	-0.553664	-1.059494	0.886951
C117	C	-0.624078	-1.078149	0.913571
H118	H	-0.515279	-1.159407	0.894329
H119	H	-0.501285	-1.111931	0.964570
H120	H	-0.554322	-1.059227	0.834334
H121	H	-0.540350	-1.011739	0.904562
H122	H	-0.623422	-1.078424	0.966199
H123	H	-0.637408	-1.125901	0.895956
H124	H	-0.659179	-1.042757	0.896625
C125	C	-0.804050	-1.034395	0.213775
C126	C	-0.760977	-0.970114	0.218960
C127	C	-0.734449	-0.951060	0.148609
H128	H	-0.774647	-1.073731	0.194869
H129	H	-0.844682	-1.025723	0.181442
H130	H	-0.720351	-0.978790	0.251281
H131	H	-0.790364	-0.930764	0.237853
H132	H	-0.775081	-0.942389	0.116276
H133	H	-0.705049	-0.990401	0.129709
H134	H	-0.705227	-0.907441	0.152116
C135	C	-0.501966	-0.627116	0.318936
C136	C	-0.501054	-0.704678	0.319114
C137	C	-0.571346	-0.731337	0.300037
H138	H	-0.537350	-0.609911	0.353873
H139	H	-0.514879	-0.609800	0.270927
H140	H	-0.488151	-0.721987	0.367116
H141	H	-0.465686	-0.721903	0.284176
H142	H	-0.584258	-0.714021	0.252028
H143	H	-0.606724	-0.714127	0.334976
H144	H	-0.570735	-0.783964	0.300148
H145	H	-0.266177	-1.164986	0.904535
C146	C	-0.463811	-0.520227	0.463237
C147	C	-0.534567	-0.545342	0.443783
C148	C	-0.586363	-0.518941	0.495119
H149	H	-0.451497	-0.537905	0.511261
H150	H	-0.463273	-0.467597	0.463223
H151	H	-0.535104	-0.597961	0.443805
H152	H	-0.546904	-0.527665	0.395768
H153	H	-0.585825	-0.466311	0.495104
H154	H	-0.574042	-0.536621	0.543139
H155	H	-0.634377	-0.535971	0.481923
H156	H	-0.391377	-1.198333	0.812050
C157	C	-0.213671	-1.034542	0.804688
C158	C	-0.194952	-0.963539	0.829641
C159	C	-0.124647	-0.944517	0.802993
H160	H	-0.178226	-1.069246	0.822305
H161	H	-0.214130	-1.035086	0.752059
H162	H	-0.194488	-0.963001	0.882259
H163	H	-0.230379	-0.928820	0.812025
H164	H	-0.125105	-0.945061	0.750365
H165	H	-0.089207	-0.979226	0.820613
H166	H	-0.111940	-0.896338	0.819914
H167	H	-0.324232	-0.948246	0.904701
