data_functionalizedCrystal
_audit_creation_method	'MofGen! by Chris Wilmer'
_symmetry_space_group_name_H-M	'P1'
_symmetry_Int_Tables_number	1
_symmetry_cell_setting	triclinic
loop_
_symmetry_equiv_pos_as_xyz
  x,y,z
_cell_length_a	10.686220
_cell_length_b	16.120484
_cell_length_c	10.686551
_cell_angle_alpha	88.707809
_cell_angle_beta	90.308082
_cell_angle_gamma	97.070967
loop_
_atom_site_label
_atom_site_type_symbol
_atom_site_fract_x
_atom_site_fract_y
_atom_site_fract_z
Zn1	Zn	1.957921	-0.203137	-0.579045
Zn2	Zn	2.457921	0.296863	-0.079045
Zn3	Zn	1.931025	-0.353948	-0.381655
Zn4	Zn	2.431025	0.146052	0.118345
Zn5	Zn	1.730532	-0.224452	-0.387111
Zn6	Zn	2.230532	0.275548	0.112889
Zn7	Zn	1.737575	-0.352260	-0.607294
Zn8	Zn	2.237575	0.147740	-0.107294
O9	O	1.839263	-0.283449	-0.488776
O10	O	2.339263	0.216551	0.011224
O11	O	2.130476	-0.214929	-0.538756
O12	O	2.630476	0.285071	-0.038756
O13	O	1.890226	-0.346397	-0.207623
O14	O	2.390226	0.153603	0.292377
O15	O	1.769004	-0.105021	-0.403033
O16	O	2.269004	0.394979	0.096967
O17	O	2.110716	-0.325729	-0.393734
O18	O	2.610716	0.174271	0.106266
O19	O	1.936065	-0.089361	-0.544046
O20	O	2.436065	0.410639	-0.044046
O21	O	1.742924	-0.251257	-0.211631
O22	O	2.242924	0.248743	0.288369
O23	O	1.555343	-0.249619	-0.430424
O24	O	2.055343	0.250381	0.069576
O25	O	1.781008	-0.322851	-0.778303
O26	O	2.281008	0.177149	-0.278303
O27	O	1.560518	-0.343519	-0.592192
O28	O	2.060518	0.156481	-0.092192
O29	O	1.942895	-0.213292	-0.757549
O30	O	2.442895	0.286708	-0.257549
O31	O	1.897056	-0.470327	-0.421125
O32	O	2.397056	0.029673	0.078875
O33	O	1.754928	-0.469087	-0.586902
O34	O	2.254928	0.030913	-0.086902
C35	C	1.512264	-0.298700	-0.514966
C36	C	2.012264	0.201300	-0.014966
C37	C	1.372373	-0.305242	-0.526202
C38	C	1.872373	0.194758	-0.026202
C39	C	1.823874	-0.499938	-0.506511
C40	C	2.323874	0.000062	-0.006511
C41	C	1.817409	-0.592545	-0.514131
C42	C	2.317409	-0.092545	-0.014131
C43	C	1.805615	-0.762098	-0.528067
C44	C	2.305615	-0.262098	-0.028067
C45	C	1.873138	-0.803948	-0.449488
C46	C	2.373138	-0.303948	0.050512
C47	C	1.866576	-0.898293	-0.457242
C48	C	2.366576	-0.398293	0.042758
C49	C	1.812176	-0.667744	-0.520315
C50	C	2.312176	-0.167744	-0.020315
C51	C	2.167539	-0.268140	-0.462485
C52	C	2.667539	0.231860	0.037515
C53	C	2.307431	-0.261616	-0.451281
C54	C	2.807431	0.238384	0.048719
C55	C	1.865737	-0.265505	-0.814505
C56	C	2.365737	0.234495	-0.314505
C57	C	1.877019	-0.257859	-0.953311
C58	C	2.377019	0.242141	-0.453311
C59	C	1.854749	-0.066112	-0.470997
C60	C	2.354749	0.433888	0.029003
C61	C	1.861348	0.026504	-0.463420
C62	C	2.361348	0.526504	0.036580
C63	C	1.812969	-0.301259	-0.164304
C64	C	2.312969	0.198741	0.335696
C65	C	1.801948	-0.308660	-0.025460
C66	C	2.301948	0.191340	0.474540
H67	H	1.358852	-0.219261	-0.378542
H68	H	1.858852	0.280739	0.121458
C69	C	2.096275	-0.205131	-0.973323
C70	C	2.596275	0.294869	-0.473323
C71	C	1.975439	-0.191247	-1.013272
C72	C	2.475439	0.308753	-0.513272
H73	H	2.157034	-0.164009	-1.010355
H74	H	2.657034	0.335991	-0.510355
H75	H	2.101343	-0.201697	-0.884792
H76	H	2.601343	0.298303	-0.384792
H77	H	2.112403	-0.259099	-0.997751
H78	H	2.612403	0.240901	-0.497751
H79	H	1.959307	-0.137280	-0.988837
H80	H	2.459307	0.362720	-0.488837
H81	H	1.970367	-0.194673	-1.101823
H82	H	2.470367	0.305327	-0.601823
C83	C	1.345994	-0.336286	-0.744142
C84	C	1.845994	0.163714	-0.244142
C85	C	1.302962	-0.362428	-0.624405
C86	C	1.802962	0.137572	-0.124405
H87	H	1.303146	-0.371592	-0.804765
H88	H	1.803146	0.128408	-0.304765
H89	H	1.329969	-0.280307	-0.759663
H90	H	1.829969	0.219693	-0.259663
H91	H	1.434052	-0.339243	-0.749204
H92	H	1.934052	0.160757	-0.249204
H93	H	1.214905	-0.359465	-0.619339
H94	H	1.714905	0.140535	-0.119339
H95	H	1.318977	-0.418420	-0.608879
H96	H	1.818977	0.081580	-0.108879
H97	H	1.742882	-0.797121	-0.601158
H98	H	2.242882	-0.297121	-0.101158
H99	H	1.935874	-0.768923	-0.376390
H100	H	2.435874	-0.268923	0.123610
C101	C	1.582690	-0.361405	-1.005463
C102	C	2.082690	0.138595	-0.505463
C103	C	1.703526	-0.375284	-0.965507
C104	C	2.203526	0.124716	-0.465507
H105	H	1.521935	-0.402541	-0.968457
H106	H	2.021935	0.097459	-0.468457
H107	H	1.566547	-0.307450	-0.981025
H108	H	2.066547	0.192550	-0.481025
H109	H	1.577636	-0.364827	-1.094008
H110	H	2.077636	0.135173	-0.594008
H111	H	1.708583	-0.371856	-0.876962
H112	H	2.208583	0.128144	-0.376962
H113	H	1.719674	-0.429252	-0.989937
H114	H	2.219674	0.070748	-0.489937
