data_functionalizedCrystal
_audit_creation_method	'MofGen! by Chris Wilmer'
_symmetry_space_group_name_H-M	'P1'
_symmetry_Int_Tables_number	1
_symmetry_cell_setting	triclinic
loop_
_symmetry_equiv_pos_as_xyz
  x,y,z
_cell_length_a	15.944545
_cell_length_b	22.010155
_cell_length_c	15.944551
_cell_angle_alpha	90.003301
_cell_angle_beta	96.502545
_cell_angle_gamma	90.005679
loop_
_atom_site_label
_atom_site_type_symbol
_atom_site_fract_x
_atom_site_fract_y
_atom_site_fract_z
O1	O	1.114534	0.050487	-0.108295
O2	O	0.869983	0.050497	-0.121657
O3	O	0.998937	0.050486	0.007299
O4	O	0.985580	0.050498	-0.237251
O5	O	0.998913	-0.050564	0.007279
O6	O	0.869960	-0.050553	-0.121676
O7	O	1.114510	-0.050563	-0.108315
Cu8	Cu	0.992233	-0.059785	-0.114997
Cu9	Cu	0.992261	0.059719	-0.114974
O10	O	0.985557	-0.050552	-0.237270
C11	C	0.838677	-0.000027	-0.121113
C12	C	0.745431	-0.000023	-0.119453
C13	C	0.474798	-0.000034	-0.034559
C14	C	0.525368	-0.049856	-0.075497
C15	C	0.409787	-0.000034	-0.113532
C16	C	0.525372	0.049771	-0.075500
C17	C	0.574701	-0.000028	-0.116437
C18	C	0.459129	-0.049898	-0.154449
C19	C	0.459129	0.049775	-0.154440
C20	C	0.509667	-0.000060	-0.195436
C21	C	0.314785	-0.000038	-0.111856
C22	C	0.669700	-0.000028	-0.118119
N23	N	0.992219	-0.143837	-0.115013
C24	C	1.049364	-0.563622	-0.057881
C25	C	1.049368	-0.627229	-0.057875
O26	O	1.097921	-0.660125	-0.009310
N27	N	0.992260	-0.659045	-0.114957
C28	C	0.935138	-0.627249	-0.172042
O29	O	0.886563	-0.660151	-0.220594
C30	C	0.935131	-0.563643	-0.172043
C31	C	0.992249	-0.531830	-0.114964
C32	C	1.106477	-0.531809	-0.000805
C33	C	1.106474	-0.468206	-0.000812
C34	C	1.049358	-0.436415	-0.057895
C35	C	0.992246	-0.468227	-0.114971
C36	C	0.878006	-0.531848	-0.229124
C37	C	0.878004	-0.468237	-0.229120
C38	C	0.935121	-0.436425	-0.172040
C39	C	0.935127	-0.372833	-0.172060
N40	N	0.992236	-0.341018	-0.114979
C41	C	1.049351	-0.372809	-0.057896
C42	C	0.935157	-0.760827	-0.172035
C43	C	0.935168	-0.824432	-0.172038
C44	C	1.049397	-0.824408	-0.057870
C45	C	1.049389	-0.760801	-0.057871
C46	C	0.992265	-0.729011	-0.114953
C47	C	1.049341	-0.239237	-0.057916
C48	C	1.049335	-0.175628	-0.057930
C49	C	0.935103	-0.175658	-0.172095
C50	C	0.935112	-0.239262	-0.172084
C51	C	0.992234	-0.271050	-0.114987
O52	O	0.886597	-0.339897	-0.220598
O53	O	1.097911	-0.339899	-0.009345
C54	C	1.145816	-0.000038	-0.108859
C55	C	1.239062	-0.000038	-0.110519
C56	C	0.998370	-0.000039	0.038583
C57	C	0.996708	-0.000039	0.131829
N58	N	0.992281	0.143771	-0.114952
C59	C	0.986123	-0.000026	-0.268555
C60	C	0.987785	-0.000022	-0.361801
C61	C	0.912803	-0.000027	0.346684
C62	C	0.951754	-0.049853	0.407693
C63	C	0.993701	-0.000034	0.302555
C64	C	0.951797	0.049775	0.407695
C65	C	0.990790	-0.000027	0.467468
C66	C	1.032674	-0.049901	0.362335
C67	C	1.032705	0.049771	0.362331
C68	C	1.071715	-0.000066	0.423322
C69	C	0.995375	-0.000039	0.207553
C70	C	0.989122	-0.000027	0.562469
H71	H	0.554299	0.091890	-0.042126
Br72	Br	1.183989	-0.425040	0.076660
H73	H	0.430310	-0.092064	-0.187785
H74	H	1.066902	0.091894	0.342210
Br75	Br	1.089645	-0.120186	0.329012
Br76	Br	1.126860	-0.132458	0.019537
Br77	Br	0.410896	0.119988	-0.209969
Br78	Br	0.573569	-0.120068	-0.019926
Br79	Br	1.183730	-0.000113	0.478595
Br80	Br	0.857604	-0.282433	-0.249563
H81	H	1.152987	-0.557688	0.045682
H82	H	0.525158	-0.000086	-0.263501
Br83	Br	0.894759	0.119977	0.441196
H84	H	1.095854	-0.265112	-0.011421
H85	H	0.888603	-0.149764	-0.218574
Br86	Br	1.126909	-0.717635	0.019597
H87	H	0.459145	-0.000085	0.033453
H88	H	0.888666	-0.850329	-0.218527
Br89	Br	1.126911	-0.867566	0.019600
Br90	Br	0.800469	-0.425098	-0.306590
Br91	Br	0.857629	-0.717689	-0.249516
Br92	Br	0.800886	-0.000100	0.291168
H93	H	0.831496	-0.557741	-0.275603
Br94	Br	0.894713	-0.120059	0.441192
