data_functionalizedCrystal
_audit_creation_method	'MofGen! by Chris Wilmer'
_symmetry_space_group_name_H-M	'P1'
_symmetry_Int_Tables_number	1
_symmetry_cell_setting	triclinic
loop_
_symmetry_equiv_pos_as_xyz
  x,y,z
_cell_length_a	14.519709
_cell_length_b	15.944551
_cell_length_c	13.596369
_cell_angle_alpha	89.993059
_cell_angle_beta	90.000291
_cell_angle_gamma	83.589442
loop_
_atom_site_label
_atom_site_type_symbol
_atom_site_fract_x
_atom_site_fract_y
_atom_site_fract_z
O1	O	1.223676	0.110109	-0.081665
O2	O	1.723676	0.610109	0.418335
O3	O	0.955176	0.123076	-0.081696
O4	O	1.455176	0.623076	0.418304
O5	O	1.096758	-0.005672	-0.081671
O6	O	1.596758	0.494328	0.418329
O7	O	1.082094	0.238856	-0.081690
O8	O	1.582094	0.738856	0.418310
O9	O	1.096744	-0.005679	0.081912
O10	O	1.596744	0.494321	0.581912
O11	O	0.955162	0.123069	0.081887
O12	O	1.455162	0.623069	0.581887
O13	O	1.223662	0.110102	0.081917
O14	O	1.723662	0.610102	0.581917
Zn15	Zn	1.089410	0.116584	0.107875
Zn16	Zn	1.589410	0.616584	0.607875
Zn17	Zn	1.089428	0.116593	-0.107653
Zn18	Zn	1.589428	0.616593	0.392347
O19	O	1.082080	0.238850	0.081893
O20	O	1.582080	0.738850	0.581893
C21	C	0.920810	0.122468	0.000092
C22	C	1.420810	0.622468	0.500092
C23	C	0.818432	0.120657	0.000081
C24	C	1.318432	0.620657	0.500081
C25	C	0.443548	0.113990	0.000126
C26	C	0.943548	0.613990	0.500126
C27	C	0.547853	0.115842	0.000113
C28	C	1.047853	0.615842	0.500113
C29	C	0.630987	0.117323	0.000102
C30	C	1.130987	0.617323	0.500102
C31	C	0.735298	0.119175	0.000091
C32	C	1.235298	0.619175	0.500091
C33	C	1.096142	-0.036970	0.000121
C34	C	1.596142	0.463030	0.500121
C35	C	1.094317	-0.130219	0.000121
C36	C	1.594317	0.369781	0.500121
C37	C	1.002196	-0.345209	0.000097
C38	C	1.502196	0.154791	0.500097
C39	C	1.044967	-0.406168	0.080758
C40	C	1.544967	0.093832	0.580758
C41	C	1.091015	-0.300950	0.000113
C42	C	1.591015	0.199050	0.500113
C43	C	1.045002	-0.406144	-0.080522
C44	C	1.545002	0.093856	0.419478
C45	C	1.087820	-0.465867	0.000101
C46	C	1.587820	0.034133	0.500101
C47	C	1.133811	-0.360680	0.080841
C48	C	1.633811	0.139320	0.580841
C49	C	1.133833	-0.360650	-0.080512
C50	C	1.633833	0.139350	0.419488
C51	C	1.176669	-0.421591	0.000169
C52	C	1.676669	0.078409	0.500169
C53	C	1.092854	-0.205945	0.000121
C54	C	1.592854	0.294055	0.500121
C55	C	1.085988	-0.560871	0.000100
C56	C	1.585988	-0.060871	0.500100
C57	C	1.258028	0.110710	0.000128
C58	C	1.758028	0.610710	0.500128
C59	C	1.360406	0.112521	0.000132
C60	C	1.860406	0.612521	0.500132
C61	C	1.082696	0.270148	0.000099
C62	C	1.582696	0.770148	0.500099
C63	C	1.084521	0.363397	0.000092
C64	C	1.584521	0.863397	0.500092
N65	N	1.089404	0.116578	0.254966
N66	N	1.589404	0.616578	0.754966
N67	N	1.089442	0.116593	-0.254745
N68	N	1.589442	0.616593	0.245255
C69	C	1.089427	0.116594	0.656257
C70	C	1.589427	0.616594	1.156257
C71	C	1.089418	0.116592	0.544606
C72	C	1.589418	0.616592	1.044606
C73	C	1.089416	0.116587	0.455615
C74	C	1.589416	0.616587	0.955615
C75	C	1.089406	0.116584	0.343957
C76	C	1.589406	0.616584	0.843957
H77	H	1.007394	-0.426333	0.148942
H78	H	1.507394	0.073667	0.648942
C79	C	0.995061	-0.432967	-0.171569
C80	C	1.495061	0.067033	0.328431
C81	C	1.040876	-0.408798	-0.255820
C82	C	1.540876	0.091202	0.244180
C83	C	0.994899	-0.433499	-0.339704
C84	C	1.494899	0.066501	0.160296
H85	H	0.933087	-0.406571	-0.171613
H86	H	1.433087	0.093429	0.328387
H87	H	0.994785	-0.492523	-0.171284
H88	H	1.494785	0.007477	0.328716
H89	H	1.041143	-0.349254	-0.256105
H90	H	1.541143	0.150746	0.243895
H91	H	1.102847	-0.435192	-0.255808
H92	H	1.602847	0.064808	0.244192
H93	H	0.994622	-0.493055	-0.339419
H94	H	1.494622	0.006945	0.160581
H95	H	0.932926	-0.407101	-0.339739
H96	H	1.432926	0.092899	0.160261
H97	H	1.025982	-0.417111	-0.396878
H98	H	1.525982	0.082889	0.103122
C99	C	0.903877	-0.300977	0.000390
C100	C	1.403877	0.199023	0.500390
C101	C	0.857791	-0.323902	0.085034
C102	C	1.357791	0.176098	0.585034
C103	C	0.767226	-0.283162	0.085348
C104	C	1.267226	0.216838	0.585348
H105	H	0.871899	-0.317161	-0.056263
H106	H	1.371899	0.182839	0.443737
H107	H	0.905684	-0.241600	-0.000143
H108	H	1.405684	0.258400	0.499857
H109	H	0.855979	-0.383266	0.085558
H110	H	1.355979	0.116734	0.585558
H111	H	0.889741	-0.307716	0.141701
H112	H	1.389741	0.192284	0.641701
H113	H	0.769034	-0.223785	0.084816
H114	H	1.269034	0.276215	0.584816
H115	H	0.735258	-0.299349	0.028692
H116	H	1.235258	0.200651	0.528692
H117	H	0.735949	-0.298705	0.142782
H118	H	1.235949	0.201295	0.642782
H119	H	1.171341	-0.340638	0.149108
H120	H	1.671341	0.159362	0.649108
C121	C	1.275074	-0.465627	0.000439
C122	C	1.775074	0.034373	0.500439
C123	C	1.321128	-0.442578	0.085042
C124	C	1.821128	0.057422	0.585042
C125	C	1.411773	-0.483137	0.085336
C126	C	1.911773	0.016863	0.585336
H127	H	1.306976	-0.449386	-0.056242
H128	H	1.806976	0.050614	0.443758
H129	H	1.273417	-0.525023	-0.000051
H130	H	1.773417	-0.025023	0.499949
H131	H	1.322789	-0.383194	0.085523
H132	H	1.822789	0.116806	0.585523
H133	H	1.289253	-0.458819	0.141737
H134	H	1.789253	0.041181	0.641737
H135	H	1.410116	-0.542533	0.084846
H136	H	1.910116	-0.042533	0.584846
H137	H	1.443666	-0.466893	0.028650
H138	H	1.943666	0.033107	0.528650
H139	H	1.443029	-0.467510	0.142742
H140	H	1.943029	0.032490	0.642742
C141	C	1.183902	-0.333559	-0.171343
C142	C	1.683902	0.166441	0.328657
C143	C	1.185681	-0.245955	-0.169625
C144	C	1.685681	0.254045	0.330375
C145	C	1.231797	-0.220967	-0.253283
C146	C	1.731797	0.279033	0.246717
H147	H	1.152329	-0.348864	-0.228672
H148	H	1.652329	0.151136	0.271328
H149	H	1.245563	-0.360721	-0.171917
H150	H	1.745563	0.139279	0.328083
H151	H	1.124031	-0.218802	-0.169059
H152	H	1.624031	0.281198	0.330941
H153	H	1.217259	-0.230629	-0.112314
H154	H	1.717259	0.269371	0.387686
H155	H	1.293458	-0.248129	-0.253858
H156	H	1.793458	0.251871	0.246142
H157	H	1.200220	-0.236276	-0.310606
H158	H	1.700220	0.263724	0.189394
H159	H	1.233018	-0.161527	-0.252125
H160	H	1.733018	0.338473	0.247875
