data_functionalizedCrystal
_audit_creation_method	'MofGen! by Chris Wilmer'
_symmetry_space_group_name_H-M	'P1'
_symmetry_Int_Tables_number	1
_symmetry_cell_setting	triclinic
loop_
_symmetry_equiv_pos_as_xyz
  x,y,z
_cell_length_a	16.959455
_cell_length_b	17.640280
_cell_length_c	16.959447
_cell_angle_alpha	78.772658
_cell_angle_beta	89.983056
_cell_angle_gamma	78.797529
loop_
_atom_site_label
_atom_site_type_symbol
_atom_site_fract_x
_atom_site_fract_y
_atom_site_fract_z
Zn1	Zn	1.272076	-0.314718	-0.383358
Zn2	Zn	1.772076	0.185282	0.116642
Zn3	Zn	1.298735	-0.446905	-0.224487
Zn4	Zn	1.798735	0.053095	0.275513
Zn5	Zn	1.139903	-0.314743	-0.251191
Zn6	Zn	1.639903	0.185257	0.248809
Zn7	Zn	1.166600	-0.446846	-0.356638
Zn8	Zn	1.666600	0.053154	0.143362
O9	O	1.219329	-0.380803	-0.303919
O10	O	1.719329	0.119197	0.196081
O11	O	1.386226	-0.332267	-0.362291
O12	O	1.886226	0.167733	0.137709
O13	O	1.277650	-0.429409	-0.117412
O14	O	1.777650	0.070591	0.382588
O15	O	1.135106	-0.204133	-0.291081
O16	O	1.635106	0.295867	0.208919
O17	O	1.405813	-0.429385	-0.245569
O18	O	1.905813	0.070615	0.254431
O19	O	1.232213	-0.204114	-0.388184
O20	O	1.732213	0.295886	0.111816
O21	O	1.160957	-0.332310	-0.137030
O22	O	1.660957	0.167690	0.362970
O23	O	1.032831	-0.332252	-0.265171
O24	O	1.532831	0.167748	0.234829
O25	O	1.180607	-0.429284	-0.470800
O26	O	1.680607	0.070716	0.029200
O27	O	1.052445	-0.429308	-0.342643
O28	O	1.552445	0.070692	0.157357
O29	O	1.258100	-0.332210	-0.490432
O30	O	1.758100	0.167790	0.009568
O31	O	1.303537	-0.557504	-0.219659
O32	O	1.803537	-0.057504	0.280341
O33	O	1.206458	-0.557461	-0.316750
O34	O	1.706458	-0.057461	0.183250
C35	C	1.013957	-0.380777	-0.303906
C36	C	1.513957	0.119223	0.196094
C37	C	0.926102	-0.380785	-0.303915
C38	C	1.426102	0.119215	0.196085
C39	C	1.260809	-0.586161	-0.262425
C40	C	1.760809	-0.086161	0.237575
C41	C	1.278627	-0.674015	-0.244700
C42	C	1.778627	-0.174015	0.255300
C43	C	0.544384	-0.330225	-0.263693
C44	C	1.044384	0.169775	0.236307
C45	C	0.564889	-0.431446	-0.344176
C46	C	1.064889	0.068554	0.155824
C47	C	0.647433	-0.431435	-0.344174
C48	C	1.147433	0.068565	0.155826
C49	C	0.678456	-0.380818	-0.303929
C50	C	1.178456	0.119182	0.196071
C51	C	0.626936	-0.330213	-0.263687
C52	C	1.126936	0.169787	0.236313
C53	C	0.698960	-0.482045	-0.384408
C54	C	1.198960	0.017955	0.115592
C55	C	0.781510	-0.482036	-0.384406
C56	C	1.281510	0.017964	0.115594
C57	C	0.812533	-0.431415	-0.344166
C58	C	1.312533	0.068585	0.155834
C59	C	0.761007	-0.380807	-0.303923
C60	C	1.261007	0.119193	0.196077
C61	C	0.792030	-0.330191	-0.263679
C62	C	1.292030	0.169809	0.236321
C63	C	0.740505	-0.279578	-0.223440
C64	C	1.240505	0.220422	0.276560
C65	C	0.657959	-0.279592	-0.223447
C66	C	1.157959	0.220408	0.276553
C67	C	0.895079	-0.431401	-0.344160
C68	C	1.395079	0.068599	0.155840
C69	C	0.874582	-0.330180	-0.263673
C70	C	1.374582	0.169820	0.236327
C71	C	1.084293	-0.962977	-0.438860
C72	C	1.584293	-0.462977	0.061140
C73	C	1.101037	-1.045528	-0.422179
C74	C	1.601037	-0.545528	0.077821
C75	C	1.202188	-1.045508	-0.321181
C76	C	1.702188	-0.545508	0.178819
C77	C	1.185455	-0.962955	-0.337856
C78	C	1.685455	-0.462955	0.162144
C79	C	1.126506	-0.921696	-0.396695
C80	C	1.626506	-0.421696	0.103305
C81	C	1.227669	-0.921674	-0.295692
C82	C	1.727669	-0.421674	0.204308
C83	C	1.210934	-0.839128	-0.312362
C84	C	1.710934	-0.339128	0.187638
C85	C	1.151986	-0.797863	-0.371197
C86	C	1.651986	-0.297863	0.128803
C87	C	1.109771	-0.839150	-0.413366
C88	C	1.609771	-0.339150	0.086634
C89	C	1.286614	-0.962935	-0.236849
C90	C	1.786614	-0.462935	0.263151
C91	C	1.328827	-0.921654	-0.194684
C92	C	1.828827	-0.421654	0.305316
C93	C	1.312096	-0.839106	-0.211359
C94	C	1.812096	-0.339106	0.288641
C95	C	1.253148	-0.797841	-0.270194
C96	C	1.753148	-0.297841	0.229806
C97	C	1.354311	-0.797820	-0.169190
C98	C	1.854311	-0.297820	0.330810
C99	C	1.337576	-0.715274	-0.185860
C100	C	1.837576	-0.215274	0.314140
C101	C	1.236414	-0.715296	-0.286864
C102	C	1.736414	-0.215296	0.213136
C103	C	1.425502	-0.380830	-0.303932
C104	C	1.925502	0.119170	0.196068
C105	C	1.513361	-0.380841	-0.303937
C106	C	2.013361	0.119159	0.196063
C107	C	1.219358	-0.380737	-0.510100
C108	C	1.719358	0.119263	-0.010100
C109	C	1.219370	-0.380709	-0.597962
C110	C	1.719370	0.119291	-0.097962
C111	C	1.177708	-0.174643	-0.345592
C112	C	1.677708	0.325357	0.154408
C113	C	1.159971	-0.086789	-0.363351
C114	C	1.659971	0.413211	0.136649
C115	C	1.158666	-0.330071	-0.979676
C116	C	1.658666	0.169929	-0.479676
C117	C	1.280180	-0.431181	-0.959234
C118	C	1.780180	0.068819	-0.459234
C119	C	1.280170	-0.431200	-0.876685
C120	C	1.780170	0.068800	-0.376685
C121	C	1.219406	-0.380654	-0.845627
C122	C	1.719406	0.119346	-0.345627
C123	C	1.158653	-0.330089	-0.897119
C124	C	1.658653	0.169911	-0.397119
C125	C	1.340918	-0.481769	-0.825185
C126	C	1.840918	0.018231	-0.325185
C127	C	1.340910	-0.481790	-0.742630
C128	C	1.840910	0.018210	-0.242630
C129	C	1.280149	-0.431239	-0.711572
C130	C	1.780149	0.068761	-0.211572
C131	C	1.219393	-0.380672	-0.763069
C132	C	1.719393	0.119328	-0.263069
C133	C	1.158630	-0.330126	-0.732012
C134	C	1.658630	0.169874	-0.232012
C135	C	1.097877	-0.279555	-0.783509
C136	C	1.597877	0.220445	-0.283509
C137	C	1.097892	-0.279539	-0.866060
C138	C	1.597892	0.220461	-0.366060
C139	C	1.280133	-0.431255	-0.629020
C140	C	1.780133	0.068745	-0.129020
C141	C	1.158617	-0.330145	-0.649454
C142	C	1.658617	0.169855	-0.149454
C143	C	1.219334	-0.380811	-0.098551
C144	C	1.719334	0.119189	0.401449
C145	C	1.219429	-0.380617	-0.010734
C146	C	1.719429	0.119383	0.489266
H147	H	0.899833	-0.288956	-0.230907
H148	H	1.399833	0.211044	0.269093
Br149	Br	0.851429	-0.550722	-0.439015
Br150	Br	1.351429	-0.050722	0.060985
Br151	Br	1.076223	-0.261436	-1.049561
Br152	Br	1.576223	0.238564	-0.549561
Br153	Br	0.588029	-0.210910	-0.168844
Br154	Br	1.088029	0.289090	0.331156
Br155	Br	1.043728	-1.101551	-0.479397
Br156	Br	1.543728	-0.601551	0.020603
H157	H	1.250182	-1.079113	-0.273272
H158	H	1.750182	-0.579113	0.226728
Br159	Br	0.965004	-0.500090	-0.398756
Br160	Br	1.465004	-0.000090	0.101244
H161	H	1.300239	-1.030149	-0.223279
H162	H	1.800239	-0.530149	0.276721
H163	H	1.036296	-0.929382	-0.486779
H164	H	1.536296	-0.429382	0.013221
H165	H	0.502428	-0.289015	-0.230934
H166	H	1.002428	0.210985	0.269066
H167	H	1.188417	-0.681701	-0.334783
H168	H	1.688417	-0.181701	0.165217
Br169	Br	1.129472	-0.685835	-0.394025
Br170	Br	1.629472	-0.185835	0.105975
Br171	Br	1.362570	-0.499890	-0.559134
Br172	Br	1.862570	0.000110	-0.059134
Br173	Br	1.029778	-0.783147	-0.493231
Br174	Br	1.529778	-0.283147	0.006769
Br175	Br	0.656860	-0.550764	-0.438986
Br176	Br	1.156860	-0.050764	0.061014
Br177	Br	0.782620	-0.210894	-0.168816
Br178	Br	1.282620	0.289106	0.331184
H179	H	1.371950	-0.681662	-0.151525
H180	H	1.871950	-0.181662	0.348475
H181	H	1.109138	-0.288980	-0.624175
H182	H	1.609138	0.211020	-0.124175
Br183	Br	1.408827	-0.977655	-0.114834
Br184	Br	1.908827	-0.477655	0.385166
Br185	Br	1.434303	-0.853824	-0.089332
Br186	Br	1.934303	-0.353824	0.410668
H187	H	1.329646	-0.472339	-0.984526
H188	H	1.829646	0.027661	-0.484526
Br189	Br	1.015448	-0.210914	-0.935951
Br190	Br	1.515448	0.289086	-0.435951
Br191	Br	1.015415	-0.210960	-0.741349
Br192	Br	1.515415	0.289040	-0.241349
H193	H	1.390381	-0.522929	-0.850477
H194	H	1.890381	-0.022929	-0.350477
H195	H	0.539626	-0.472661	-0.376936
H196	H	1.039626	0.027339	0.123064
Br197	Br	1.423360	-0.550418	-0.672749
Br198	Br	1.923360	-0.050418	-0.172749
