data_functionalizedCrystal
_audit_creation_method	'MofGen! by Chris Wilmer'
_symmetry_space_group_name_H-M	'P1'
_symmetry_Int_Tables_number	1
_symmetry_cell_setting	triclinic
loop_
_symmetry_equiv_pos_as_xyz
  x,y,z
_cell_length_a	10.489741
_cell_length_b	10.489746
_cell_length_c	14.586319
_cell_angle_alpha	89.994747
_cell_angle_beta	90.012046
_cell_angle_gamma	95.459762
loop_
_atom_site_label
_atom_site_type_symbol
_atom_site_fract_x
_atom_site_fract_y
_atom_site_fract_z
O1	O	0.180013	-1.694055	0.076178
O2	O	0.680013	-1.194055	0.576178
O3	O	0.196899	-1.322861	0.076193
O4	O	0.696899	-0.822861	0.576193
O5	O	0.002858	-1.516904	0.076180
O6	O	0.502858	-1.016904	0.576180
O7	O	0.374054	-1.500012	0.076192
O8	O	0.874054	-1.000012	0.576192
O9	O	0.002825	-1.516876	-0.076301
O10	O	0.502825	-1.016876	0.423699
O11	O	0.196866	-1.322833	-0.076287
O12	O	0.696866	-0.822833	0.423713
O13	O	0.179980	-1.694027	-0.076303
O14	O	0.679980	-1.194027	0.423697
Cu15	Cu	0.188420	-1.508427	-0.090218
Cu16	Cu	0.688420	-1.008427	0.409782
Cu17	Cu	0.188459	-1.508461	0.090109
Cu18	Cu	0.688459	-1.008461	0.590109
O19	O	0.374020	-1.499984	-0.076289
O20	O	0.874020	-0.999984	0.423711
C21	C	-0.044690	-1.515614	-0.000060
C22	C	0.455310	-1.015614	0.499940
C23	C	-0.186320	-1.511797	-0.000058
C24	C	0.313680	-1.011797	0.499942
C25	C	0.195606	-1.275315	-0.000045
C26	C	0.695606	-0.775315	0.499955
C27	C	0.191786	-1.133686	-0.000039
C28	C	0.691786	-0.633686	0.499961
C29	C	0.181273	-1.741573	-0.000062
C30	C	0.681273	-1.241573	0.499938
C31	C	0.185093	-1.883202	-0.000062
C32	C	0.685093	-1.383202	0.499938
C33	C	-0.254462	-1.388333	-0.000046
C34	C	0.245538	-0.888333	0.499954
C35	C	-0.346600	-1.446643	-0.075230
C36	C	0.153400	-0.946643	0.424770
C37	C	-0.346542	-1.446699	0.075105
C38	C	0.153458	-0.946699	0.575105
C39	C	-0.276592	-1.570158	-0.075303
C40	C	0.223408	-1.070158	0.424697
C41	C	-0.276524	-1.570197	0.075098
C42	C	0.223476	-1.070197	0.575098
C43	C	-0.368635	-1.628597	-0.000103
C44	C	0.131365	-1.128597	0.499897
C45	C	0.421569	-1.501273	-0.000047
C46	C	0.921569	-1.001273	0.499953
C47	C	0.563198	-1.505091	-0.000043
C48	C	1.063198	-1.005091	0.499957
C49	C	0.066062	-0.980828	-0.000056
C50	C	0.566062	-0.480828	0.499944
C51	C	0.128902	-1.058208	-0.075233
C52	C	0.628902	-0.558208	0.424767
C53	C	0.128965	-1.058191	0.075102
C54	C	0.628965	-0.558191	0.575102
C55	C	0.247884	-0.958716	-0.075300
C56	C	0.747884	-0.458716	0.424700
C57	C	0.247929	-0.958694	0.075101
C58	C	0.747929	-0.458694	0.575101
C59	C	0.310856	-1.036025	-0.000094
C60	C	0.810856	-0.536025	0.499906
N61	N	0.188391	-1.508413	-0.217049
N62	N	0.688391	-1.008413	0.282951
C63	C	0.110324	-1.430382	-0.548078
C64	C	0.610324	-0.930382	-0.048078
C65	C	0.110307	-1.430372	-0.452096
C66	C	0.610307	-0.930372	0.047904
C67	C	0.266547	-1.586525	-0.452038
C68	C	0.766547	-1.086525	0.047962
C69	C	0.266558	-1.586541	-0.548018
C70	C	0.766558	-1.086541	-0.048018
C71	C	0.188448	-1.508462	-0.596035
C72	C	0.688448	-1.008462	-0.096035
C73	C	0.188420	-1.508436	-0.404074
C74	C	0.688420	-1.008436	0.095926
C75	C	0.188402	-1.508425	-0.300007
C76	C	0.688402	-1.008425	0.199993
C77	C	0.188465	-1.508474	-0.700109
C78	C	0.688465	-1.008474	-0.200109
N79	N	0.188477	-1.508485	0.216940
N80	N	0.688477	-1.008485	0.716940
H81	H	-0.204813	-1.286821	-0.000118
H82	H	0.295187	-0.786821	0.499882
Br83	Br	0.004317	-1.324422	-0.613241
Br84	Br	0.504317	-0.824422	-0.113241
Br85	Br	0.004281	-1.324396	-0.387014
Br86	Br	0.504281	-0.824396	0.112986
H87	H	-0.377626	-1.394390	-0.138787
H88	H	0.122374	-0.894390	0.361213
H89	H	0.330176	-1.650130	-0.587066
H90	H	0.830176	-1.150130	-0.087066
H91	H	-0.418057	-1.730200	-0.000149
H92	H	0.081943	-1.230200	0.499851
H93	H	0.298146	-0.915206	0.138665
H94	H	0.798146	-0.415206	0.638665
Br95	Br	0.372551	-1.692481	-0.386867
Br96	Br	0.872551	-1.192481	0.113133
Br97	Br	0.331558	-0.886572	-0.181355
Br98	Br	0.831558	-0.386572	0.318645
H99	H	-0.245773	-1.622341	-0.138936
H100	H	0.254227	-1.122341	0.361064
H101	H	-0.037439	-0.956107	-0.000135
H102	H	0.462561	-0.456107	0.499865
Br103	Br	0.483496	-1.076818	-0.000147
Br104	Br	0.983496	-0.576818	0.499853
Br105	Br	0.045136	-1.130647	-0.181176
Br106	Br	0.545136	-0.630647	0.318824
Br107	Br	0.045202	-1.130625	0.181033
Br108	Br	0.545202	-0.630625	0.681033
Br109	Br	-0.224753	-1.657218	0.181039
Br110	Br	0.275247	-1.157218	0.681039
H111	H	-0.377493	-1.394455	0.138672
H112	H	0.122507	-0.894455	0.638672
