data_functionalizedCrystal
_audit_creation_method	'MofGen! by Chris Wilmer'
_symmetry_space_group_name_H-M	'P1'
_symmetry_Int_Tables_number	1
_symmetry_cell_setting	triclinic
loop_
_symmetry_equiv_pos_as_xyz
  x,y,z
_cell_length_a	11.792241
_cell_length_b	10.723024
_cell_length_c	9.798715
_cell_angle_alpha	90.003391
_cell_angle_beta	89.996704
_cell_angle_gamma	95.669357
loop_
_atom_site_label
_atom_site_type_symbol
_atom_site_fract_x
_atom_site_fract_y
_atom_site_fract_z
O1	O	0.159192	-1.656766	-0.113483
O2	O	0.659192	-1.156766	0.386517
O3	O	0.174430	-1.293573	-0.113488
O4	O	0.674430	-0.793573	0.386512
O5	O	0.001660	-1.483983	-0.113475
O6	O	0.501660	-0.983983	0.386525
O7	O	0.331962	-1.466356	-0.113495
O8	O	0.831962	-0.966356	0.386505
O9	O	0.001659	-1.483969	0.113507
O10	O	0.501659	-0.983969	0.613507
O11	O	0.174430	-1.293559	0.113495
O12	O	0.674430	-0.793559	0.613495
O13	O	0.159192	-1.656752	0.113499
O14	O	0.659192	-1.156752	0.613499
Zn15	Zn	0.166811	-1.475153	0.149535
Zn16	Zn	0.666811	-0.975153	0.649535
Zn17	Zn	0.166811	-1.475172	-0.149523
Zn18	Zn	0.666811	-0.975172	0.350477
O19	O	0.331962	-1.466342	0.113487
O20	O	0.831962	-0.966342	0.613487
C21	C	0.173321	-1.247070	0.000003
C22	C	0.673321	-0.747070	0.500003
C23	C	0.170003	-1.108524	0.000001
C24	C	0.670003	-0.608524	0.500001
C25	C	-0.040634	-1.482869	0.000015
C26	C	0.459366	-0.982869	0.500015
C27	C	-0.166655	-1.479555	0.000014
C28	C	0.333345	-0.979555	0.500014
N29	N	0.166809	-1.475150	0.353635
N30	N	0.666809	-0.975150	0.853635
C31	C	-0.397380	-1.473461	-0.000009
C32	C	0.102620	-0.973461	0.499991
C33	C	-0.268988	-1.476847	0.000003
C34	C	0.231012	-0.976847	0.500003
C35	C	0.374255	-1.467456	-0.000006
C36	C	0.874255	-0.967456	0.499994
C37	C	0.500276	-1.470770	-0.000014
C38	C	1.000276	-0.970770	0.499986
C39	C	0.160301	-1.703256	0.000006
C40	C	0.660301	-1.203256	0.500006
C41	C	0.163619	-1.841801	-0.000002
C42	C	0.663619	-1.341801	0.499998
C43	C	0.266676	-1.033286	-0.000005
C44	C	0.766676	-0.533286	0.499995
C45	C	0.263249	-0.890091	-0.000007
C46	C	0.763249	-0.390091	0.499993
N47	N	0.166803	-1.475186	-0.353623
N48	N	0.666803	-0.975186	0.146377
C49	C	0.093948	-1.555098	0.421417
C50	C	0.593948	-1.055098	0.921417
C51	C	0.093944	-1.555118	0.578580
C52	C	0.593944	-1.055118	1.078580
H53	H	0.351978	-1.074882	-0.000002
H54	H	0.851978	-0.574882	0.499998
H55	H	0.229190	-1.406739	0.588096
H56	H	0.729190	-0.906739	1.088096
N57	N	0.372880	-0.804462	0.000042
N58	N	0.872880	-0.304462	0.500042
H59	H	0.439839	-0.856369	0.000055
H60	H	0.939839	-0.356369	0.500055
H61	H	0.376052	-0.749821	-0.084090
H62	H	0.876052	-0.249821	0.415910
N63	N	0.053977	-0.927412	0.000005
N64	N	0.553977	-0.427412	0.500005
H65	H	0.050726	-0.982057	-0.084136
H66	H	0.550726	-0.482057	0.415864
H67	H	0.050792	-0.981965	0.084205
H68	H	0.550792	-0.481965	0.584205
N69	N	0.057010	-1.053429	0.000006
N70	N	0.557010	-0.553429	0.500006
H71	H	0.012368	-1.082222	-0.084133
H72	H	0.512368	-0.582222	0.415867
H73	H	0.012459	-1.082228	0.084208
H74	H	0.512459	-0.582228	0.584208
N75	N	0.011290	-1.645720	0.344182
N76	N	0.511290	-1.145720	0.844182
H77	H	0.022997	-1.632846	0.242858
H78	H	0.522997	-1.132846	0.742858
H79	H	0.024864	-1.734432	0.369048
H80	H	0.524864	-1.234432	0.869048
N81	N	0.011318	-1.645799	0.655777
N82	N	0.511318	-1.145799	1.155777
H83	H	0.023029	-1.632962	0.757105
H84	H	0.523029	-1.132962	1.257105
H85	H	-0.069283	-1.630612	0.630882
H86	H	0.430717	-1.130612	1.130882
N87	N	0.249430	-1.384492	0.430877
N88	N	0.749430	-0.884492	0.930877
H89	H	0.299899	-1.432737	0.490153
H90	H	0.799899	-0.932737	0.990153
H91	H	0.297977	-1.331155	0.363965
H92	H	0.797977	-0.831155	0.863965
