data_functionalizedCrystal
_audit_creation_method	'MofGen! by Chris Wilmer'
_symmetry_space_group_name_H-M	'P1'
_symmetry_Int_Tables_number	1
_symmetry_cell_setting	triclinic
loop_
_symmetry_equiv_pos_as_xyz
  x,y,z
_cell_length_a	10.489741
_cell_length_b	27.732048
_cell_length_c	8.965430
_cell_angle_alpha	89.995481
_cell_angle_beta	89.998843
_cell_angle_gamma	83.590915
loop_
_atom_site_label
_atom_site_type_symbol
_atom_site_fract_x
_atom_site_fract_y
_atom_site_fract_z
O1	O	1.691056	0.068187	-0.123965
O2	O	1.319579	0.074588	-0.123990
O3	O	1.516855	0.001064	-0.123949
O4	O	1.493781	0.141711	-0.124007
O5	O	1.516839	0.001068	0.124130
O6	O	1.319563	0.074593	0.124089
O7	O	1.691040	0.068192	0.124113
Cu8	Cu	1.505300	0.071393	0.146753
Cu9	Cu	1.505319	0.071387	-0.146629
O10	O	1.493764	0.141716	0.124072
C11	C	1.272061	0.074107	0.000046
C12	C	1.130495	0.072661	0.000038
C13	C	1.064411	0.025879	0.000072
C14	C	0.971321	0.047976	-0.122250
C15	C	0.971338	0.047992	0.122336
C16	C	1.039269	0.094776	-0.122385
C17	C	1.039296	0.094786	0.122311
C18	C	0.946232	0.116916	-0.000040
C19	C	1.516363	-0.016944	0.000095
C20	C	1.514904	-0.070608	0.000107
C21	C	1.622299	-0.408745	0.000038
C22	C	1.616888	-0.610439	0.000016
O23	O	1.715093	-0.641075	-0.000042
N24	N	1.499911	-0.630301	0.000010
C25	C	1.384279	-0.599736	-0.000001
O26	O	1.284660	-0.621258	-0.000022
C27	C	1.389692	-0.398044	0.000010
C28	C	1.506676	-0.378184	0.000031
C29	C	1.739274	-0.388886	0.000058
C30	C	1.740625	-0.338465	0.000071
C31	C	1.625002	-0.307904	0.000064
C32	C	1.508028	-0.327764	0.000045
C33	C	1.274062	-0.367480	-0.000012
C34	C	1.275425	-0.317054	-0.000013
C35	C	1.392409	-0.297195	0.000008
C36	C	1.393757	-0.246783	0.000052
N37	N	1.510733	-0.226920	0.000058
C38	C	1.626356	-0.257481	0.000064
C39	C	1.381446	-0.705628	-0.000003
C40	C	1.380092	-0.756051	-0.000003
C41	C	1.612701	-0.766751	0.000011
C42	C	1.614053	-0.716327	0.000022
C43	C	1.498422	-0.685766	0.000003
C44	C	1.629186	-0.151594	0.000094
C45	C	1.630527	-0.101169	0.000113
C46	C	1.397919	-0.090474	0.000091
C47	C	1.396577	-0.140895	0.000079
C48	C	1.512221	-0.171454	0.000076
O49	O	1.295604	-0.216118	0.000093
O50	O	1.725961	-0.235950	0.000053
C51	C	1.620947	-0.459166	0.000024
C52	C	1.503973	-0.479025	0.000004
C53	C	1.388350	-0.448464	-0.000002
C54	C	1.502619	-0.529448	0.000004
C55	C	1.618242	-0.560009	0.000011
C56	C	1.735219	-0.540147	0.000017
C57	C	1.736570	-0.489727	0.000031
C58	C	1.271374	-0.468327	-0.000009
C59	C	1.270032	-0.518748	-0.000020
C60	C	1.385654	-0.549308	-0.000014
C61	C	1.738559	0.068673	0.000074
C62	C	1.880124	0.070119	0.000072
C63	C	1.494257	0.159724	0.000025
C64	C	1.495715	0.213388	0.000003
N65	N	1.505295	0.071397	0.353102
N66	N	1.505334	0.071379	-0.352979
C67	C	1.414034	0.105388	0.450388
C68	C	1.529101	0.115168	0.549805
C69	C	1.390277	0.061621	0.549812
C70	C	1.620420	0.081198	0.450330
C71	C	1.481520	0.027633	0.450328
C72	C	1.596671	0.037394	0.549700
H73	H	0.895116	0.155414	-0.000123
H74	H	1.336927	0.134160	0.406783
Cl75	Cl	1.560192	0.172296	0.617270
Cl76	Cl	1.884649	-0.427297	0.000068
Cl77	Cl	1.085883	0.125325	0.281962
Cl78	Cl	1.887699	-0.313507	0.000056
H79	H	0.941184	0.028180	-0.225651
H80	H	1.461348	-0.009359	0.406599
Cl81	Cl	1.240079	0.048866	0.617283
H82	H	1.717725	0.089503	0.406815
H83	H	1.284832	-0.772216	0.000005
Cl84	Cl	1.143681	-0.033504	-0.000087
Cl85	Cl	1.249510	-0.165862	0.000080
Cl86	Cl	1.085526	0.125310	-0.282232
H87	H	1.725793	-0.085003	0.000135
Cl88	Cl	1.774568	-0.190004	0.000092
Cl89	Cl	0.924846	0.017423	0.282003
Cl90	Cl	1.761124	-0.691366	0.000047
Cl91	Cl	1.758055	-0.805179	0.000012
H92	H	1.287280	-0.680750	-0.000018
Cl93	Cl	1.126003	-0.429914	-0.000020
H94	H	1.178801	-0.383640	-0.000039
Cl95	Cl	1.130051	-0.278638	-0.000039
H96	H	1.303782	-0.065582	0.000091
H97	H	1.673947	0.008640	0.593031
Cl98	Cl	1.883644	-0.464769	0.000045
Cl99	Cl	1.122950	-0.543706	-0.000040
Cl100	Cl	1.880571	-0.578576	0.000032
