data_functionalizedCrystal
_audit_creation_method	'MofGen! by Chris Wilmer'
_symmetry_space_group_name_H-M	'P1'
_symmetry_Int_Tables_number	1
_symmetry_cell_setting	triclinic
loop_
_symmetry_equiv_pos_as_xyz
  x,y,z
_cell_length_a	17.052862
_cell_length_b	16.704494
_cell_length_c	16.704492
_cell_angle_alpha	119.825229
_cell_angle_beta	89.112958
_cell_angle_gamma	67.235903
loop_
_atom_site_label
_atom_site_type_symbol
_atom_site_fract_x
_atom_site_fract_y
_atom_site_fract_z
Zr1	Zr	-0.086406	0.762268	-0.870631
O2	O	-0.208506	0.903098	-0.763029
O3	O	-0.044207	0.605167	-0.896657
O4	O	-0.193173	0.723470	-0.927323
O5	O	0.052541	0.821074	-0.716091
O6	O	-0.186501	0.711374	-1.064837
O7	O	-0.059541	0.784795	-0.732364
O8	O	0.079970	0.499752	-1.009982
O9	O	-0.213931	1.032696	-0.770946
O10	O	-0.026993	0.666784	-1.018791
O11	O	0.051674	0.702886	-0.904021
O12	O	-0.123713	0.842172	-0.940126
O13	O	-0.045046	0.878273	-0.825356
Zr14	Zr	0.102991	0.800837	-1.063997
Zr15	Zr	-0.075766	0.742977	-1.089950
Zr16	Zr	0.092352	0.820129	-0.844677
Zr17	Zr	-0.095057	0.968962	-0.883257
Zr18	Zr	0.111643	0.594143	-1.051371
O19	O	0.060793	0.957939	-1.037970
O20	O	-0.193378	0.875668	-1.074873
O21	O	0.045664	0.985368	-0.726127
O22	O	0.225092	0.660008	-1.171598
O23	O	-0.029079	0.577737	-1.208501
O24	O	0.209963	0.687437	-0.859755
O25	O	-0.035956	0.742031	-1.218537
O26	O	0.209758	0.839636	-1.007305
O27	O	0.203087	0.851732	-0.869791
O28	O	0.076126	0.778310	-1.202264
O29	O	-0.205474	1.017362	-0.945275
O30	O	0.222059	0.545743	-0.989352
O31	O	0.230516	0.530410	-1.163682
O32	O	0.088427	0.484418	-1.184311
O33	O	-0.071842	1.078688	-0.750316
O34	O	-0.063385	1.063354	-0.924646
O35	O	0.140298	0.720933	-0.994502
O36	O	0.061631	0.684832	-1.109271
O37	O	-0.035089	0.860220	-1.030607
O38	O	0.043578	0.896321	-0.915837
C39	C	0.019114	0.523010	-0.951521
C40	C	0.022787	0.435263	-0.946161
C41	C	-0.215306	0.709178	-0.999778
C42	C	-0.291194	0.684614	-1.010796
C43	C	-0.052434	0.232670	-1.055931
C44	C	-0.048985	0.150223	-1.050898
C45	C	0.033138	0.187915	-0.931067
C46	C	0.029689	0.270362	-0.936100
C47	C	-0.013099	0.292737	-0.998533
C48	C	-0.016553	0.375191	-1.003561
C49	C	0.065575	0.412876	-0.883735
C50	C	0.069024	0.330429	-0.878702
C51	C	-0.707061	0.981586	-0.877590
C52	C	-0.635763	1.004668	-0.867232
C53	C	-0.549618	0.924657	-0.903122
C54	C	-0.534776	0.821559	-0.949371
C55	C	-0.606082	0.798475	-0.959724
C56	C	-0.448638	0.741546	-0.985256
C57	C	-0.433797	0.638448	-1.031505
C58	C	-0.505096	0.615369	-1.041856
C59	C	-0.591241	0.695380	-1.005966
C60	C	-0.377333	0.764630	-0.974904
C61	C	-0.276353	0.581519	-1.057038
C62	C	-0.347651	0.558437	-1.067396
C63	C	0.231891	0.853928	-0.934850
C64	C	0.307779	0.878491	-0.923832
C65	C	-0.005016	0.805683	-0.692979
C66	C	-0.009533	0.813873	-0.599872
C67	C	-0.002529	1.040096	-0.983107
C68	C	-0.006202	1.127843	-0.988467
C69	C	0.082977	0.646145	-0.507045
C70	C	0.078735	0.653835	-0.419565
C71	C	-0.022252	0.836944	-0.337430
C72	C	-0.018011	0.829254	-0.424910
C73	C	0.034605	0.733851	-0.509716
C74	C	0.038841	0.726160	-0.597198
C75	C	-0.062141	0.909269	-0.515062
C76	C	-0.066383	0.916959	-0.427582
C77	C	0.021602	0.757422	-0.241649
C78	C	0.026122	0.749231	-0.334756
C79	C	0.032423	0.498879	-1.225856
C80	C	0.040612	0.402943	-1.313602
C81	C	0.242713	0.595385	-0.919057
C82	C	0.322273	0.532201	-0.902679
C83	C	0.256022	0.571254	-1.193392
C84	C	0.340099	0.499881	-1.270120
C85	C	-0.239436	0.991851	-0.741236
C86	C	-0.323513	1.063224	-0.664507
C87	C	-0.015838	1.064226	-0.708772
C88	C	-0.024027	1.160163	-0.621025
C89	C	-0.226128	0.967721	-1.015571
C90	C	-0.305688	1.030904	-1.031949
C91	C	-0.001810	0.348467	-1.307580
C92	C	0.005867	0.258331	-1.390022
C93	C	0.055973	0.222668	-1.478484
C94	C	0.098396	0.277153	-1.484505
C95	C	0.090713	0.367292	-1.402065
C96	C	0.405904	0.511953	-0.942216
C97	C	0.480665	0.452599	-0.926823
C98	C	0.471794	0.413489	-0.871898
C99	C	0.388155	0.433743	-0.832355
C100	C	0.313395	0.493102	-0.847743
C101	C	0.338519	0.447518	-1.366071
C102	C	0.417511	0.380464	-1.438176
C103	C	0.498082	0.365768	-1.414328
C104	C	0.499659	0.418140	-1.318368
C105	C	0.420668	0.485198	-1.246265
C106	C	-0.321934	1.115597	-0.568557
C107	C	-0.400928	1.182677	-0.496454
C108	C	-0.481499	1.197377	-0.520302
C109	C	-0.483076	1.145000	-0.616262
C110	C	-0.404083	1.077927	-0.688364
C111	C	0.018388	1.214645	-0.627049
C112	C	0.010690	1.304797	-0.544611
C113	C	-0.039418	1.340462	-0.456150
C114	C	-0.081838	1.285974	-0.450128
C115	C	-0.074145	1.195827	-0.532566
C116	C	-0.296789	1.069996	-1.086879
C117	C	-0.371536	1.129353	-1.102286
C118	C	-0.455181	1.149624	-1.062757
C119	C	-0.464078	1.110524	-1.007824
C120	C	-0.389332	1.051162	-0.992423
H121	H	-0.051396	0.393409	-1.054394
C122	C	0.572661	0.430319	-0.970340
N123	N	0.641951	0.413537	-1.003120
H124	H	-0.647854	1.088611	-0.829576
C125	C	0.108846	0.478958	-0.820593
N126	N	0.141435	0.528733	-0.773034
H127	H	-0.777203	1.046721	-0.848367
H128	H	-0.228687	1.053503	-1.119072
H129	H	-0.087281	0.250894	-1.106760
C130	C	-0.056938	0.387681	-1.210280
N131	N	-0.098467	0.417215	-1.136998
C132	C	0.249899	0.463674	-1.392327
N133	N	0.183152	0.475842	-1.412112
C134	C	0.415757	0.322855	-1.543725
N135	N	0.414434	0.279463	-1.623222
H136	H	0.562396	0.311162	-1.473048
H137	H	-0.532193	1.127038	-0.975643
H138	H	-0.405379	1.035282	-0.766489
C139	C	0.064422	0.123506	-1.569161
N140	N	0.070787	0.048813	-1.637456
C141	C	0.153517	0.237905	-1.581822
N142	N	0.195040	0.208335	-1.655122
C143	C	0.415682	0.554971	-1.002633
N144	N	0.423054	0.587376	-1.048135
C145	C	-0.233314	1.099450	-0.542302
N146	N	-0.166569	1.087300	-0.522518
H147	H	-0.122636	1.315026	-0.378092
C148	C	0.140849	0.541201	-0.600333
N149	N	0.184441	0.462155	-0.670598
H150	H	-0.516037	1.197962	-1.075304
C151	C	-0.124262	1.021895	-0.334289
N152	N	-0.167861	1.100934	-0.264022
C153	C	-0.080125	0.941878	-0.244134
N154	N	-0.123719	1.020914	-0.173862
H155	H	0.081688	0.648479	-0.666247
C156	C	0.554043	0.348182	-0.854990
N157	N	0.615996	0.298988	-0.842263
H158	H	-0.396590	1.019340	-0.947691
H159	H	0.125265	0.411637	-1.406981
C160	C	0.588297	0.401955	-1.292150
N161	N	0.655062	0.389756	-1.272404
C162	C	-0.399173	1.240280	-0.390905
N163	N	-0.397849	1.283664	-0.311407
C164	C	-0.040796	0.198406	-1.383376
N165	N	-0.075941	0.153271	-1.378367
C166	C	0.080206	0.163282	-0.862400
N167	N	0.115658	0.144728	-0.810680
H168	H	0.380945	0.401891	-0.787634
H169	H	0.421966	0.527826	-1.168139
C170	C	-0.047868	1.439624	-0.365472
N171	N	-0.054226	1.514312	-0.297177
C172	C	0.116086	0.305808	-0.810026
N173	N	0.151530	0.287268	-0.758296
C174	C	-0.568385	1.271154	-0.440976
N175	N	-0.633825	1.326720	-0.381223
C176	C	0.057366	1.364712	-0.551254
N177	N	0.092526	1.409835	-0.556260
H178	H	-0.081013	0.101316	-1.097638
H179	H	-0.101532	0.980685	-0.517243
H180	H	-0.389426	0.848574	-0.937246
C181	C	-0.471190	0.950051	-0.891738
N182	N	-0.412116	0.969182	-0.883167
C183	C	-0.571713	1.161171	-0.642479
N184	N	-0.638477	1.173345	-0.662223
C185	C	-0.361729	1.172359	-1.162710
N186	N	-0.354341	1.204750	-1.208219
H187	H	0.245302	0.509578	-0.815548
H188	H	-0.649302	0.676592	-1.014398
H189	H	0.118126	0.582416	-0.417397
H190	H	-0.493006	0.531420	-1.079507
H191	H	0.059196	1.185617	-0.699071
H192	H	-0.335579	0.474494	-1.105051
H193	H	-0.206211	0.516368	-1.086259
H194	H	-0.108683	1.151471	-0.527648
