data_functionalizedCrystal
_audit_creation_method	'MofGen! by Chris Wilmer'
_symmetry_space_group_name_H-M	'P1'
_symmetry_Int_Tables_number	1
_symmetry_cell_setting	triclinic
loop_
_symmetry_equiv_pos_as_xyz
  x,y,z
_cell_length_a	10.489716
_cell_length_b	10.489741
_cell_length_c	9.730223
_cell_angle_alpha	89.995878
_cell_angle_beta	89.997085
_cell_angle_gamma	84.534155
loop_
_atom_site_label
_atom_site_type_symbol
_atom_site_fract_x
_atom_site_fract_y
_atom_site_fract_z
O1	O	1.694070	0.179818	-0.114278
O2	O	1.322870	0.196744	-0.114283
O3	O	1.516916	0.002683	-0.114272
O4	O	1.500023	0.373880	-0.114289
O5	O	1.516904	0.002677	0.114308
O6	O	1.322857	0.196739	0.114297
O7	O	1.694057	0.179813	0.114302
Zn8	Zn	1.508455	0.188275	0.150591
Zn9	Zn	1.508472	0.188282	-0.150573
O10	O	1.500011	0.373874	0.114291
C11	C	1.275332	0.195470	0.000006
C12	C	1.133701	0.191665	0.000004
C13	C	1.036027	0.310669	-0.000004
C14	C	0.958674	0.247782	0.112707
C15	C	0.958693	0.247759	-0.112655
C16	C	1.058214	0.128828	0.112808
C17	C	1.058238	0.128822	-0.112655
C18	C	0.980935	0.065848	0.000084
C19	C	1.515634	-0.044852	0.000017
C20	C	1.511817	-0.186481	0.000014
C21	C	1.388351	-0.254610	0.000003
C22	C	1.446669	-0.346740	0.112705
C23	C	1.446711	-0.346710	-0.112657
C24	C	1.570186	-0.276746	0.112810
C25	C	1.570210	-0.276705	-0.112653
C26	C	1.628618	-0.368808	0.000077
C27	C	1.741596	0.181087	0.000009
C28	C	1.883227	0.184892	0.000002
C29	C	1.501293	0.421409	-0.000001
C30	C	1.505110	0.563038	-0.000008
N31	N	1.508453	0.188269	0.356128
N32	N	1.508484	0.188278	-0.356109
C33	C	1.594407	0.102376	0.428058
C34	C	1.594419	0.102376	0.571941
C35	C	1.422521	0.274175	0.571950
C36	C	1.422503	0.274168	0.428070
H37	H	0.915187	0.298017	0.207989
F38	F	1.761420	-0.433424	0.000156
F39	F	1.638407	-0.236461	0.237488
F40	F	1.685900	0.010954	0.648491
F41	F	1.378406	-0.387201	-0.237190
F42	F	1.114819	0.063201	0.237482
F43	F	1.331011	0.365587	0.351510
F44	F	1.255667	-0.189702	0.000142
F45	F	1.115116	0.063223	-0.237202
F46	F	1.068283	0.445967	0.000128
H47	H	1.622412	-0.245663	-0.207939
H48	H	1.394422	-0.377749	0.207986
H49	H	0.956505	-0.037744	0.000153
F50	F	0.901865	0.313454	-0.237187
H51	H	1.664390	0.032430	0.369487
H52	H	1.352545	0.344114	0.630540
