data_functionalizedCrystal
_audit_creation_method	'MofGen! by Chris Wilmer'
_symmetry_space_group_name_H-M	'P1'
_symmetry_Int_Tables_number	1
_symmetry_cell_setting	triclinic
loop_
_symmetry_equiv_pos_as_xyz
  x,y,z
_cell_length_a	15.995350
_cell_length_b	15.072220
_cell_length_c	10.654550
_cell_angle_alpha	90.008214
_cell_angle_beta	83.988639
_cell_angle_gamma	90.000308
loop_
_atom_site_label
_atom_site_type_symbol
_atom_site_fract_x
_atom_site_fract_y
_atom_site_fract_z
O1	O	1.111924	0.073705	0.161882
O2	O	0.868265	0.073723	0.181871
O3	O	0.995697	0.073710	-0.010936
O4	O	0.984492	0.073718	0.354689
O5	O	0.995688	-0.073855	-0.010959
O6	O	0.868256	-0.073842	0.181848
O7	O	1.111916	-0.073860	0.161858
Zn8	Zn	0.990085	-0.097280	0.171849
Zn9	Zn	0.990096	0.097143	0.171880
O10	O	0.984484	-0.073847	0.354665
C11	C	0.837061	-0.000057	0.181033
C12	C	0.744096	-0.000050	0.178555
N13	N	0.990083	-0.229969	0.171828
C14	C	0.990097	-0.589171	0.171870
C15	C	1.058508	-0.551543	0.069047
C16	C	1.058326	-0.448717	0.068668
C17	C	0.990091	-0.410967	0.171849
C18	C	0.902567	-0.448304	0.143231
C19	C	0.902972	-0.551161	0.142505
C20	C	1.008423	-0.551246	0.303614
C21	C	1.010401	-0.448382	0.302731
C22	C	0.990082	-0.310253	0.171840
C23	C	0.990100	-0.689884	0.171877
C24	C	0.406297	-0.000069	0.169658
C25	C	0.452934	-0.000401	0.032344
C26	C	0.549639	-0.000062	0.034822
C27	C	0.573883	-0.000060	0.174071
C28	C	0.533195	0.084204	0.241812
C29	C	0.436539	0.084269	0.238363
C30	C	0.436206	-0.083540	0.241173
C31	C	0.533152	-0.084648	0.241141
C32	C	0.668595	-0.000052	0.176573
C33	C	0.311585	-0.000071	0.167161
C34	C	1.143119	-0.000078	0.162696
C35	C	1.236084	-0.000079	0.165174
C36	C	0.994870	-0.000071	-0.057735
C37	C	0.992409	-0.000068	-0.197146
N38	N	0.990104	0.229832	0.171892
C39	C	1.067438	-0.000076	-0.277612
C40	C	1.065121	-0.000070	-0.408603
C41	C	0.912737	-0.000051	-0.378648
C42	C	0.915055	-0.000051	-0.247660
C43	C	1.155416	-0.000091	-0.294907
C44	C	1.153098	-0.000085	-0.425897
C45	C	0.985311	-0.000064	0.401464
C46	C	0.987772	-0.000061	0.540875
H47	H	1.123361	-0.423473	0.085709
C48	C	1.042805	-0.586468	-0.062288
N49	N	1.030973	-0.612773	-0.161210
H50	H	0.850402	-0.423851	0.216128
H51	H	0.415407	-0.147411	0.196272
C52	C	0.411421	0.169358	0.171639
N53	N	0.392508	0.233448	0.121376
H54	H	0.404876	0.088094	0.339177
H55	H	0.434090	-0.060831	-0.022553
H56	H	1.070922	-0.577184	0.331120
C57	C	0.426028	0.080773	-0.041465
N58	N	0.405759	0.141913	-0.097055
H59	H	0.886158	-0.422552	0.048245
C60	C	0.947528	-0.413663	0.410946
N61	N	0.900167	-0.387511	0.492452
H62	H	1.189831	0.061658	-0.265989
C63	C	0.832517	-0.000022	-0.159151
N64	N	0.770345	0.000003	-0.092486
C65	C	1.097388	-0.415415	0.332073
N66	N	1.162907	-0.390579	0.354169
H67	H	1.046537	-0.424121	-0.029101
C68	C	1.189038	0.085978	-0.488024
N69	N	1.216112	0.150797	-0.534821
C70	C	0.941042	-0.584127	0.406988
N71	N	0.890289	-0.608899	0.484840
H72	H	0.849758	-0.000036	-0.419794
C73	C	0.587625	-0.081662	-0.037124
N74	N	0.616234	-0.143123	-0.091323
H75	H	1.186243	-0.061842	-0.468100
C76	C	1.146662	-0.584960	0.091691
N77	N	1.213062	-0.610139	0.108745
C78	C	0.881310	-0.583587	0.012704
N79	N	0.864994	-0.608006	-0.085065
H80	H	0.577189	0.060445	-0.018766
H81	H	1.183428	-0.063809	-0.259656
C82	C	0.569630	-0.168866	0.174297
N83	N	0.597104	-0.232298	0.123940
H84	H	0.850496	-0.576053	0.214548
H85	H	0.547914	0.087339	0.344115
C86	C	0.571155	0.168925	0.178270
N87	N	0.599746	0.232735	0.130402
H88	H	0.549106	-0.089736	0.342685
C89	C	0.394089	-0.084311	0.377942
N90	N	0.362362	-0.084886	0.480951
