data_functionalizedCrystal
_audit_creation_method	'MofGen! by Chris Wilmer'
_symmetry_space_group_name_H-M	'P1'
_symmetry_Int_Tables_number	1
_symmetry_cell_setting	triclinic
loop_
_symmetry_equiv_pos_as_xyz
  x,y,z
_cell_length_a	18.215407
_cell_length_b	12.645330
_cell_length_c	18.215399
_cell_angle_alpha	89.976970
_cell_angle_beta	89.980167
_cell_angle_gamma	90.018140
loop_
_atom_site_label
_atom_site_type_symbol
_atom_site_fract_x
_atom_site_fract_y
_atom_site_fract_z
Zn1	Zn	1.125109	-0.422038	-0.416141
Zn2	Zn	1.458442	-0.088704	-0.082808
Zn3	Zn	1.791775	0.244629	0.250526
Zn4	Zn	1.125033	-0.599320	-0.293085
Zn5	Zn	1.458366	-0.265986	0.040248
Zn6	Zn	1.791699	0.067347	0.373581
Zn7	Zn	1.002041	-0.422072	-0.293088
Zn8	Zn	1.335375	-0.088739	0.040245
Zn9	Zn	1.668708	0.244594	0.373578
Zn10	Zn	1.002023	-0.599261	-0.416110
Zn11	Zn	1.335356	-0.265927	-0.082777
Zn12	Zn	1.668689	0.067406	0.250556
O13	O	1.063551	-0.510673	-0.354606
O14	O	1.396885	-0.177339	-0.021273
O15	O	1.730218	0.155994	0.312060
O16	O	1.228083	-0.445565	-0.399829
O17	O	1.561416	-0.112231	-0.066496
O18	O	1.894750	0.221102	0.266838
O19	O	1.108693	-0.575847	-0.190101
O20	O	1.442027	-0.242513	0.143232
O21	O	1.775360	0.090820	0.476565
O22	O	1.018406	-0.273720	-0.309426
O23	O	1.351739	0.059613	0.023908
O24	O	1.685073	0.392946	0.357241
O25	O	1.228027	-0.575813	-0.309421
O26	O	1.561360	-0.242480	0.023913
O27	O	1.894694	0.090854	0.357246
O28	O	1.108823	-0.273695	-0.399832
O29	O	1.442157	0.059638	-0.066499
O30	O	1.775490	0.392972	0.266835
O31	O	1.018332	-0.445624	-0.190104
O32	O	1.351666	-0.112290	0.143230
O33	O	1.684999	0.221043	0.476563
O34	O	0.899055	-0.445566	-0.309396
O35	O	1.232388	-0.112233	0.023937
O36	O	1.565721	0.221100	0.357271
O37	O	1.018374	-0.575713	-0.519099
O38	O	1.351708	-0.242379	-0.185765
O39	O	1.685041	0.090954	0.147568
O40	O	0.899041	-0.575746	-0.399780
O41	O	1.232374	-0.242413	-0.066446
O42	O	1.565708	0.090920	0.266887
O43	O	1.108805	-0.445507	-0.519121
O44	O	1.442138	-0.112174	-0.185788
O45	O	1.775472	0.221159	0.147545
O46	O	1.108675	-0.747659	-0.309391
O47	O	1.442009	-0.414326	0.023943
O48	O	1.775342	-0.080993	0.357276
O49	O	1.018300	-0.747616	-0.399777
O50	O	1.351634	-0.414283	-0.066443
O51	O	1.684967	-0.080949	0.266890
C52	C	0.872345	-0.510654	-0.354585
C53	C	1.205678	-0.177321	-0.021252
C54	C	1.539012	0.156012	0.312082
C55	C	0.790546	-0.510672	-0.354594
C56	C	1.123880	-0.177339	-0.021260
C57	C	1.457213	0.155994	0.312073
C58	C	1.063498	-0.786102	-0.354596
C59	C	1.396831	-0.452769	-0.021263
C60	C	1.730164	-0.119436	0.312071
C61	C	1.063542	-0.903932	-0.354616
C62	C	1.396875	-0.570599	-0.021283
C63	C	1.730209	-0.237266	0.312051
C64	C	0.602364	-0.578563	-0.401597
C65	C	0.935698	-0.245230	-0.068264
C66	C	1.269031	0.088103	0.265069
C67	C	0.525506	-0.578567	-0.401606
C68	C	0.858839	-0.245233	-0.068273
C69	C	1.192172	0.088100	0.265060
C70	C	0.525490	-0.442801	-0.307631
C71	C	0.858824	-0.109468	0.025702
C72	C	1.192157	0.223866	0.359035
C73	C	0.602348	-0.442793	-0.307626
C74	C	0.935681	-0.109460	0.025707
C75	C	1.269014	0.223873	0.359040
C76	C	0.640783	-0.510680	-0.354608
C77	C	0.974116	-0.177347	-0.021275
C78	C	1.307449	0.155986	0.312058
C79	C	0.487067	-0.510692	-0.354622
C80	C	0.820400	-0.177358	-0.021289
C81	C	1.153733	0.155975	0.312044
C82	C	0.403733	-0.510695	-0.354632
C83	C	0.737066	-0.177361	-0.021299
C84	C	1.070400	0.155972	0.312035
C85	C	0.724122	-0.510676	-0.354600
C86	C	1.057455	-0.177343	-0.021267
C87	C	1.390788	0.155991	0.312067
C88	C	1.006922	-1.071513	-0.411653
C89	C	1.340255	-0.738180	-0.078320
C90	C	1.673588	-0.404847	0.255013
C91	C	1.006632	-0.948954	-0.411470
C92	C	1.339965	-0.615620	-0.078137
C93	C	1.673299	-0.282287	0.255197
C94	C	1.042549	-0.948523	-0.277058
C95	C	1.375882	-0.615190	0.056276
C96	C	1.709216	-0.281856	0.389609
C97	C	1.042203	-1.071122	-0.277404
C98	C	1.375537	-0.737788	0.055930
C99	C	1.708870	-0.404455	0.389263
C100	C	1.141502	-1.071022	-0.374509
C101	C	1.474835	-0.737688	-0.041175
C102	C	1.808168	-0.404355	0.292158
C103	C	1.141024	-0.948415	-0.376205
C104	C	1.474357	-0.615082	-0.042871
C105	C	1.807691	-0.281748	0.290462
C106	C	1.255504	-0.510692	-0.354628
C107	C	1.588838	-0.177358	-0.021295
C108	C	1.922171	0.155975	0.312039
C109	C	1.337303	-0.510700	-0.354637
C110	C	1.670636	-0.177366	-0.021304
C111	C	2.003970	0.155967	0.312030
C112	C	1.063596	-0.510600	-0.546559
C113	C	1.396929	-0.177266	-0.213226
C114	C	1.730263	0.156067	0.120107
C115	C	1.063615	-0.510568	-0.628358
C116	C	1.396949	-0.177235	-0.295025
C117	C	1.730282	0.156098	0.038308
C118	C	1.063625	-0.234167	-0.354633
C119	C	1.396959	0.099166	-0.021299
C120	C	1.730292	0.432499	0.312034
C121	C	1.063657	-0.116337	-0.354644
C122	C	1.396990	0.216996	-0.021311
C123	C	1.730323	0.550329	0.312023
C124	C	1.110720	-0.442707	-0.816565
C125	C	1.444053	-0.109374	-0.483232
C126	C	1.777386	0.223960	-0.149899
C127	C	1.110728	-0.442676	-0.893424
C128	C	1.444062	-0.109343	-0.560091
C129	C	1.777395	0.223990	-0.226757
C130	C	1.016563	-0.578266	-0.893389
C131	C	1.349896	-0.244932	-0.560056
C132	C	1.683230	0.088401	-0.226722
C133	C	1.016551	-0.578290	-0.816532
C134	C	1.349884	-0.244957	-0.483198
C135	C	1.683218	0.088376	-0.149865
C136	C	1.063634	-0.510513	-0.778122
C137	C	1.396967	-0.177179	-0.444788
C138	C	1.730300	0.156154	-0.111455
C139	C	1.063654	-0.510457	-0.931838
C140	C	1.396988	-0.177124	-0.598505
C141	C	1.730321	0.156210	-0.265171
C142	C	1.063663	-0.510424	-1.015172
C143	C	1.396997	-0.177091	-0.681838
C144	C	1.730330	0.156243	-0.348505
C145	C	1.063624	-0.510544	-0.694783
C146	C	1.396957	-0.177211	-0.361449
C147	C	1.730290	0.156123	-0.028116
C148	C	1.063549	-0.510669	-0.163400
C149	C	1.396882	-0.177336	0.169933
C150	C	1.730216	0.155998	0.503267
C151	C	1.063672	-0.510401	-0.081602
C152	C	1.397006	-0.177068	0.251732
C153	C	1.730339	0.156265	0.585065
H154	H	0.633656	-0.633839	-0.439855
H155	H	0.966989	-0.300506	-0.106521
H156	H	1.300323	0.032828	0.226812
H157	H	1.183771	-1.100007	-0.332986
H158	H	1.517104	-0.766674	0.000347
H159	H	1.850437	-0.433341	0.333680
C160	C	1.201140	-0.907014	-0.324200
C161	C	1.534473	-0.573681	0.009133
C162	C	1.867807	-0.240347	0.342466
H163	H	1.247326	-0.935140	-0.338534
H164	H	1.580660	-0.601806	-0.005201
H165	H	1.913993	-0.268473	0.328133
H166	H	1.190389	-0.928348	-0.275356
H167	H	1.523723	-0.595014	0.057977
H168	H	1.857056	-0.261681	0.391310
H169	H	1.202799	-0.832005	-0.326635
H170	H	1.536132	-0.498672	0.006699
H171	H	1.869466	-0.165338	0.340032
H172	H	0.978203	-0.633505	-0.785230
H173	H	1.311536	-0.300172	-0.451897
H174	H	1.644869	0.033162	-0.118564
H175	H	1.149069	-0.387460	-0.924721
H176	H	1.482403	-0.054127	-0.591388
H177	H	1.815736	0.279206	-0.258055
C178	C	0.483248	-0.653236	-0.453296
C179	C	0.816582	-0.319902	-0.119963
C180	C	1.149915	0.013431	0.213371
H181	H	0.517149	-0.693666	-0.481271
H182	H	0.850482	-0.360332	-0.147938
H183	H	1.183816	-0.026999	0.185395
H184	H	0.453290	-0.612742	-0.485411
H185	H	0.786623	-0.279409	-0.152077
H186	H	1.119956	0.053925	0.181256
H187	H	0.453245	-0.699382	-0.425092
H188	H	0.786578	-0.366049	-0.091759
H189	H	1.119911	-0.032715	0.241575
C190	C	0.483210	-0.368143	-0.255948
C191	C	0.816543	-0.034810	0.077386
C192	C	1.149876	0.298523	0.410719
H193	H	0.431933	-0.377878	-0.262673
H194	H	0.765267	-0.044544	0.070660
H195	H	1.098600	0.288789	0.403993
H196	H	0.495819	-0.296932	-0.266794
H197	H	0.829152	0.036401	0.066539
H198	H	1.162486	0.369735	0.399872
H199	H	0.495785	-0.383580	-0.206481
H200	H	0.829119	-0.050246	0.126852
H201	H	1.162452	0.283087	0.460186
H202	H	0.949572	-1.102414	-0.398661
H203	H	1.282905	-0.769081	-0.065327
H204	H	1.616238	-0.435747	0.268006
H205	H	0.978232	-0.633450	-0.924672
H206	H	1.311565	-0.300117	-0.591339
H207	H	1.644899	0.033217	-0.258005
C208	C	0.644611	-0.368120	-0.255935
C209	C	0.977944	-0.034786	0.077398
C210	C	1.311277	0.298547	0.410732
H211	H	0.610714	-0.327700	-0.227948
H212	H	0.944047	0.005633	0.105386
H213	H	1.277380	0.338966	0.438719
H214	H	0.674613	-0.321980	-0.284139
H215	H	1.007946	0.011353	0.049195
H216	H	1.341279	0.344687	0.382528
H217	H	0.674572	-0.408619	-0.223820
H218	H	1.007905	-0.075286	0.109514
H219	H	1.341239	0.258047	0.442847
H220	H	1.019935	-1.100928	-0.469351
H221	H	1.353268	-0.767594	-0.136018
H222	H	1.686602	-0.434261	0.197316
C223	C	1.024370	-0.908210	-0.489157
C224	C	1.357703	-0.574877	-0.155824
C225	C	1.691036	-0.241544	0.177510
H226	H	1.024218	-0.833081	-0.489148
H227	H	1.357552	-0.499748	-0.155815
H228	H	1.690885	-0.166415	0.177518
H229	H	0.988418	-0.933395	-0.522631
H230	H	1.321752	-0.600062	-0.189298
H231	H	1.655085	-0.266728	0.144036
H232	H	1.071426	-0.933011	-0.503617
H233	H	1.404759	-0.599677	-0.170283
H234	H	1.738093	-0.266344	0.163050
C235	C	0.928674	-0.909452	-0.393681
C236	C	1.262008	-0.576119	-0.060348
C237	C	1.595341	-0.242786	0.272986
H238	H	0.897060	-0.968333	-0.386532
H239	H	1.230393	-0.635000	-0.053198
H240	H	1.563727	-0.301666	0.280135
H241	H	0.910990	-0.867728	-0.433279
H242	H	1.244323	-0.534395	-0.099946
H243	H	1.577657	-0.201062	0.233388
H244	H	0.929877	-0.867938	-0.350242
H245	H	1.263210	-0.534605	-0.016908
H246	H	1.596544	-0.201271	0.316425
C247	C	0.965330	-1.109887	-0.254678
C248	C	1.298664	-0.776554	0.078655
C249	C	1.631997	-0.443220	0.411988
H250	H	0.934605	-1.050708	-0.245326
H251	H	1.267938	-0.717375	0.088008
H252	H	1.601272	-0.384041	0.421341
H253	H	0.969102	-1.151760	-0.211537
H254	H	1.302436	-0.818427	0.121797
H255	H	1.635769	-0.485093	0.455130
H256	H	0.944850	-1.151092	-0.293165
H257	H	1.278183	-0.817759	0.040168
H258	H	1.611517	-0.484426	0.373501
C259	C	1.095590	-1.111189	-0.218057
C260	C	1.428924	-0.777855	0.115276
C261	C	1.762257	-0.444522	0.448610
H262	H	1.117389	-1.052536	-0.193839
H263	H	1.450723	-0.719203	0.139494
H264	H	1.784056	-0.385869	0.472828
H265	H	1.132815	-1.152861	-0.240337
H266	H	1.466149	-0.819527	0.092996
H267	H	1.799482	-0.486194	0.426330
H268	H	1.069490	-1.152873	-0.183368
H269	H	1.402824	-0.819540	0.149965
H270	H	1.736157	-0.486207	0.483299
H271	H	1.082562	-0.919362	-0.233421
H272	H	1.415896	-0.586029	0.099913
H273	H	1.749229	-0.252696	0.433246
C274	C	0.966473	-0.907190	-0.253915
C275	C	1.299806	-0.573856	0.079418
C276	C	1.633139	-0.240523	0.412752
H277	H	0.947402	-0.862771	-0.291408
H278	H	1.280736	-0.529438	0.041925
H279	H	1.614069	-0.196105	0.375258
H280	H	0.970867	-0.868062	-0.209627
H281	H	1.304200	-0.534729	0.123706
H282	H	1.637533	-0.201395	0.457040
H283	H	0.934207	-0.965247	-0.246449
H284	H	1.267540	-0.631914	0.086884
H285	H	1.600874	-0.298581	0.420218
C286	C	1.162498	-0.368142	-0.774316
C287	C	1.495832	-0.034809	-0.440983
C288	C	1.829165	0.298525	-0.107650
H289	H	1.190536	-0.327747	-0.808223
H290	H	1.523869	0.005586	-0.474889
H291	H	1.857203	0.338919	-0.141556
H292	H	1.194552	-0.408696	-0.744333
H293	H	1.527885	-0.075363	-0.411000
H294	H	1.861219	0.257970	-0.077666
H295	H	1.134344	-0.321959	-0.744338
H296	H	1.467677	0.011374	-0.411005
H297	H	1.801011	0.344708	-0.077671
H298	H	1.160652	-1.101868	-0.430103
H299	H	1.493985	-0.768535	-0.096770
H300	H	1.827319	-0.435201	0.236564
C301	C	1.162421	-0.909026	-0.453306
C302	C	1.495754	-0.575693	-0.119973
C303	C	1.829088	-0.242360	0.213360
H304	H	1.124301	-0.865648	-0.472266
H305	H	1.457634	-0.532314	-0.138932
H306	H	1.790968	-0.198981	0.194401
H307	H	1.169609	-0.967906	-0.484868
H308	H	1.502943	-0.634572	-0.151534
H309	H	1.836276	-0.301239	0.181799
H310	H	1.206550	-0.869198	-0.450347
H311	H	1.539884	-0.535865	-0.117014
H312	H	1.873217	-0.202531	0.216319
