data_functionalizedCrystal
_audit_creation_method	'MofGen! by Chris Wilmer'
_symmetry_space_group_name_H-M	'P1'
_symmetry_Int_Tables_number	1
_symmetry_cell_setting	triclinic
loop_
_symmetry_equiv_pos_as_xyz
  x,y,z
_cell_length_a	6.817900
_cell_length_b	10.992668
_cell_length_c	10.992410
_cell_angle_alpha	91.832960
_cell_angle_beta	108.764651
_cell_angle_gamma	108.769342
loop_
_atom_site_label
_atom_site_type_symbol
_atom_site_fract_x
_atom_site_fract_y
_atom_site_fract_z
V1	V	-4.114280	-0.177763	-0.400588
O2	O	-4.072374	0.008542	-0.392968
O3	O	-4.091890	-0.352475	-0.397843
O4	O	-4.091871	-0.175029	-0.575300
O5	O	-4.072393	-0.170132	-0.214282
V6	V	-4.591170	-0.155479	-0.378305
O7	O	-4.390089	-0.226646	-0.449467
O8	O	-4.765558	-0.106597	-0.329425
O9	O	-4.390353	0.019232	-0.381050
O10	O	-4.750472	-0.341785	-0.385925
O11	O	-4.750453	-0.163110	-0.564611
O12	O	-4.390371	-0.158213	-0.203592
C13	C	-3.942377	-0.395066	-0.391522
C14	C	-4.005531	-0.537895	-0.390442
C15	C	-4.252012	-0.600203	-0.397771
C16	C	-4.317510	-0.748689	-0.396139
C17	C	-3.920752	-0.718266	-0.261985
C18	C	-3.856485	-0.569698	-0.263077
C19	C	-3.980036	-0.607725	-0.508433
C20	C	-4.050700	-0.756740	-0.509050
C21	C	-3.942352	-0.168714	-0.617885
C22	C	-4.005486	-0.167635	-0.760713
C23	C	-3.872608	-0.157798	-0.955837
C24	C	-3.807058	-0.159453	-0.807354
C25	C	-4.203525	-0.294317	-0.837814
C26	C	-4.267838	-0.293197	-0.986380
C27	C	-4.145561	-0.047894	-0.948356
C28	C	-4.074851	-0.047294	-0.799343
C29	C	-4.203208	0.061817	-0.387367
C30	C	-4.119294	0.204644	-0.388455
C31	C	-4.203232	-0.164532	-0.161001
C32	C	-4.119335	-0.165605	-0.018171
H33	H	-3.965929	-0.743867	-0.172458
C34	C	-3.738495	-0.552565	-0.502702
N35	N	-3.556566	-0.511009	-0.498377
C36	C	-4.406680	-0.308593	-0.798899
N37	N	-4.559693	-0.319345	-0.769584
H38	H	-4.449842	-0.304212	-1.029011
H39	H	-3.755388	-0.066082	-0.974669
H40	H	-3.658586	-0.068363	-0.754016
H41	H	-3.931581	0.046420	-0.746988
C42	C	-4.266650	-0.045188	-0.755271
N43	N	-4.411064	-0.043582	-0.722030
C44	C	-4.141724	-0.415024	-0.803229
N45	N	-4.095161	-0.505937	-0.777183
C46	C	-4.387354	-0.054105	-1.003539
N47	N	-4.569474	-0.058791	-1.045113
H48	H	-4.466340	-0.802018	-0.487059
C49	C	-4.410888	-0.574739	-0.521424
N50	N	-4.530552	-0.555549	-0.614563
H51	H	-4.276404	-0.552199	-0.312984
H52	H	-4.374121	-0.773496	-0.310189
H53	H	-4.083386	-0.587355	-0.604487
C54	C	-4.244805	-0.827395	-0.635448
N55	N	-4.391026	-0.880600	-0.730650
H56	H	-3.871482	-0.523419	-0.173753
C57	C	-4.006496	0.082068	-0.975857
N58	N	-3.901732	0.179951	-0.996571
H59	H	-3.674642	-0.527088	-0.252431
H60	H	-3.770509	-0.747089	-0.251787
C61	C	-3.858978	-0.800692	-0.511556
N62	N	-3.714553	-0.833790	-0.513432
H63	H	-3.847685	-0.242374	-1.003827
C64	C	-4.246813	-0.413598	-1.048887
N65	N	-4.230962	-0.504284	-1.095961
H66	H	-3.749893	-0.245204	-0.782536
