data_functionalizedCrystal
_audit_creation_method	'MofGen! by Chris Wilmer'
_symmetry_space_group_name_H-M	'P1'
_symmetry_Int_Tables_number	1
_symmetry_cell_setting	triclinic
loop_
_symmetry_equiv_pos_as_xyz
  x,y,z
_cell_length_a	13.897449
_cell_length_b	13.897447
_cell_length_c	12.759393
_cell_angle_alpha	90.029275
_cell_angle_beta	89.979470
_cell_angle_gamma	89.977525
loop_
_atom_site_label
_atom_site_type_symbol
_atom_site_fract_x
_atom_site_fract_y
_atom_site_fract_z
Zn1	Zn	1.474677	0.383925	-0.594055
Zn2	Zn	1.724677	0.633925	-0.344055
Zn3	Zn	1.974677	0.883925	-0.094055
Zn4	Zn	2.224677	1.133925	0.155945
Zn5	Zn	1.474562	0.545254	-0.418382
Zn6	Zn	1.724562	0.795254	-0.168382
Zn7	Zn	1.974562	1.045254	0.081618
Zn8	Zn	2.224562	1.295254	0.331618
Zn9	Zn	1.313367	0.383979	-0.418388
Zn10	Zn	1.563367	0.633979	-0.168388
Zn11	Zn	1.813367	0.883979	0.081612
Zn12	Zn	2.063367	1.133979	0.331612
Zn13	Zn	1.313338	0.545183	-0.594017
Zn14	Zn	1.563338	0.795183	-0.344017
Zn15	Zn	1.813338	1.045183	-0.094017
Zn16	Zn	2.063338	1.295183	0.155983
O17	O	1.393986	0.464585	-0.506211
O18	O	1.643986	0.714585	-0.256211
O19	O	1.893986	0.964585	-0.006211
O20	O	2.143986	1.214585	0.243789
O21	O	1.609644	0.405333	-0.570765
O22	O	1.859644	0.655333	-0.320765
O23	O	2.109644	0.905333	-0.070765
O24	O	2.359644	1.155333	0.179235
O25	O	1.453143	0.523913	-0.271362
O26	O	1.703143	0.773913	-0.021362
O27	O	1.953143	1.023913	0.228638
O28	O	2.203143	1.273913	0.478638
O29	O	1.334825	0.248990	-0.441709
O30	O	1.584825	0.498990	-0.191709
O31	O	1.834825	0.748990	0.058291
O32	O	2.084825	0.998990	0.308291
O33	O	1.609559	0.523861	-0.441699
O34	O	1.859559	0.773861	-0.191699
O35	O	2.109559	1.023861	0.058301
O36	O	2.359559	1.273861	0.308301
O37	O	1.453339	0.248951	-0.570771
O38	O	1.703339	0.498951	-0.320771
O39	O	1.953339	0.748951	-0.070771
O40	O	2.203339	0.998951	0.179229
O41	O	1.334714	0.405424	-0.271366
O42	O	1.584714	0.655424	-0.021366
O43	O	1.834714	0.905424	0.228634
O44	O	2.084714	1.155424	0.478634
O45	O	1.178382	0.405356	-0.441673
O46	O	1.428382	0.655356	-0.191673
O47	O	1.678382	0.905356	0.058327
O48	O	1.928382	1.155356	0.308327
O49	O	1.334776	0.523740	-0.741044
O50	O	1.584776	0.773740	-0.491044
O51	O	1.834776	1.023740	-0.241044
O52	O	2.084776	1.273740	0.008956
O53	O	1.178360	0.523792	-0.570707
O54	O	1.428360	0.773792	-0.320707
O55	O	1.678360	1.023792	-0.070707
O56	O	1.928360	1.273792	0.179293
O57	O	1.453311	0.405264	-0.741071
O58	O	1.703311	0.655264	-0.491071
O59	O	1.953311	0.905264	-0.241071
O60	O	2.203311	1.155264	0.008929
O61	O	1.453115	0.680227	-0.441662
O62	O	1.703115	0.930227	-0.191662
O63	O	1.953115	1.180227	0.058338
O64	O	2.203115	1.430227	0.308338
O65	O	1.334665	0.680174	-0.570701
O66	O	1.584665	0.930174	-0.320701
O67	O	1.834665	1.180174	-0.070701
O68	O	2.084665	1.430174	0.179299
C69	C	1.143372	0.464573	-0.506187
C70	C	1.393372	0.714573	-0.256187
C71	C	1.643372	0.964573	-0.006187
C72	C	1.893372	1.214573	0.243813
C73	C	1.036158	0.464590	-0.506201
C74	C	1.286158	0.714590	-0.256201
C75	C	1.536158	0.964590	-0.006201
C76	C	1.786158	1.214590	0.243799
C77	C	1.393900	0.715200	-0.506200
C78	C	1.643900	0.965200	-0.256200
C79	C	1.893900	1.215200	-0.006200
C80	C	2.143900	1.465200	0.243800
C81	C	1.393952	0.822414	-0.506230
C82	C	1.643952	1.072414	-0.256230
C83	C	1.893952	1.322414	-0.006230
C84	C	2.143952	1.572414	0.243770
C85	C	1.394054	0.464488	-0.780244
C86	C	1.644054	0.714488	-0.530244
C87	C	1.894054	0.964488	-0.280244
C88	C	2.144054	1.214488	-0.030244
C89	C	1.394082	0.464447	-0.897021
C90	C	1.644082	0.714447	-0.647021
C91	C	1.894082	0.964447	-0.397021
C92	C	2.144082	1.214447	-0.147021
C93	C	0.839863	0.464594	-0.506229
C94	C	1.089863	0.714594	-0.256229
C95	C	1.339863	0.964594	-0.006229
C96	C	1.589863	1.214594	0.243771
C97	C	0.949095	0.464589	-0.506211
C98	C	1.199095	0.714589	-0.256211
C99	C	1.449095	0.964589	-0.006211
C100	C	1.699095	1.214589	0.243789
C101	C	1.645579	0.464599	-0.506235
C102	C	1.895579	0.714599	-0.256235
C103	C	2.145579	0.964599	-0.006235
C104	C	2.395579	1.214599	0.243765
C105	C	1.752793	0.464605	-0.506246
C106	C	2.002793	0.714605	-0.256246
C107	C	2.252793	0.964605	-0.006246
C108	C	2.502793	1.214605	0.243754
C109	C	1.393996	0.909483	-0.506259
C110	C	1.643996	1.159483	-0.256259
C111	C	1.893996	1.409483	-0.006259
C112	C	2.143996	1.659483	0.243741
C113	C	1.394061	1.018716	-0.506292
C114	C	1.644061	1.268716	-0.256292
C115	C	1.894061	1.518716	-0.006292
C116	C	2.144061	1.768716	0.243708
C117	C	1.394091	1.212992	-0.506258
C118	C	1.644091	1.462992	-0.256258
C119	C	1.894091	1.712992	-0.006258
C120	C	2.144091	1.962992	0.243742
C121	C	1.394117	1.105778	-0.506313
C122	C	1.644117	1.355778	-0.256313
C123	C	1.894117	1.605778	-0.006313
C124	C	2.144117	1.855778	0.243687
C125	C	1.455812	0.402750	-0.951899
C126	C	1.705812	0.652750	-0.701899
C127	C	1.955812	0.902750	-0.451899
C128	C	2.205812	1.152750	-0.201899
C129	C	1.455835	0.402716	-1.061623
C130	C	1.705835	0.652716	-0.811623
C131	C	1.955835	0.902716	-0.561623
C132	C	2.205835	1.152716	-0.311623
C133	C	1.332396	0.526081	-1.061581
C134	C	1.582396	0.776081	-0.811581
C135	C	1.832396	1.026081	-0.561581
C136	C	2.082396	1.276081	-0.311581
C137	C	1.332369	0.526111	-0.951859
C138	C	1.582369	0.776111	-0.701859
C139	C	1.832369	1.026111	-0.451859
C140	C	2.082369	1.276111	-0.201859
C141	C	1.517526	0.341086	-0.897061
C142	C	1.767526	0.591086	-0.647061
C143	C	2.017526	0.841086	-0.397061
C144	C	2.267526	1.091086	-0.147061
C145	C	1.579261	0.279386	-0.951939
C146	C	1.829261	0.529386	-0.701939
C147	C	2.079261	0.779386	-0.451939
C148	C	2.329261	1.029386	-0.201939
C149	C	1.579284	0.279351	-1.061663
C150	C	1.829284	0.529351	-0.811663
C151	C	2.079284	0.779351	-0.561663
C152	C	2.329284	1.029351	-0.311663
C153	C	1.517572	0.341017	-1.116509
C154	C	1.767572	0.591017	-0.866509
C155	C	2.017572	0.841017	-0.616509
C156	C	2.267572	1.091017	-0.366509
C157	C	1.393974	0.464613	-0.233243
C158	C	1.643974	0.714613	0.016757
C159	C	1.893974	0.964613	0.266757
C160	C	2.143974	1.214613	0.516757
C161	C	1.394132	0.464382	-0.116467
C162	C	1.644132	0.714382	0.133533
C163	C	1.894132	0.964382	0.383533
C164	C	2.144132	1.214382	0.633533
H165	H	1.517516	0.341110	-0.807718
H166	H	1.767516	0.591110	-0.557718
H167	H	2.017516	0.841110	-0.307718
H168	H	2.267516	1.091110	-0.057718
H169	H	1.282152	0.576286	-1.106246
H170	H	1.532152	0.826286	-0.856246
H171	H	1.782152	1.076286	-0.606246
H172	H	2.032152	1.326286	-0.356246
O173	O	1.265786	0.592654	-0.892666
O174	O	1.515786	0.842654	-0.642666
O175	O	1.765786	1.092654	-0.392666
O176	O	2.015786	1.342654	-0.142666
H177	H	1.276128	0.582304	-0.807157
H178	H	1.526128	0.832304	-0.557157
H179	H	1.776128	1.082304	-0.307157
H180	H	2.026128	1.332304	-0.057157
H181	H	1.629499	0.229174	-0.907276
H182	H	1.879499	0.479174	-0.657276
H183	H	2.129499	0.729174	-0.407276
H184	H	2.379499	0.979174	-0.157276
H185	H	1.629545	0.229105	-1.106342
H186	H	1.879545	0.479105	-0.856342
H187	H	2.129545	0.729105	-0.606342
H188	H	2.379545	0.979105	-0.356342
H189	H	1.517584	0.340972	-1.205854
H190	H	1.767584	0.590972	-0.955854
H191	H	2.017584	0.840972	-0.705854
H192	H	2.267584	1.090972	-0.455854
