data_functionalizedCrystal
_audit_creation_method	'MofGen! by Chris Wilmer'
_symmetry_space_group_name_H-M	'P1'
_symmetry_Int_Tables_number	1
_symmetry_cell_setting	triclinic
loop_
_symmetry_equiv_pos_as_xyz
  x,y,z
_cell_length_a	14.044220
_cell_length_b	10.654550
_cell_length_c	9.730223
_cell_angle_alpha	90.000043
_cell_angle_beta	89.994583
_cell_angle_gamma	91.163096
loop_
_atom_site_label
_atom_site_type_symbol
_atom_site_fract_x
_atom_site_fract_y
_atom_site_fract_z
O1	O	0.133232	-1.681228	-0.114191
O2	O	0.633232	-1.181228	0.385809
O3	O	0.145925	-1.317025	-0.114216
O4	O	0.645925	-0.817025	0.385784
O5	O	0.001558	-1.493659	-0.114190
O6	O	0.501558	-0.993659	0.385810
O7	O	0.277599	-1.504593	-0.114217
O8	O	0.777599	-1.004593	0.385783
O9	O	0.001554	-1.493647	0.114390
O10	O	0.501554	-0.993647	0.614390
O11	O	0.145921	-1.317012	0.114364
O12	O	0.645921	-0.817012	0.614364
O13	O	0.133228	-1.681215	0.114389
O14	O	0.633228	-1.181215	0.614389
Zn15	Zn	0.139574	-1.499111	0.150668
Zn16	Zn	0.639574	-0.999111	0.650668
Zn17	Zn	0.139579	-1.499128	-0.150496
Zn18	Zn	0.639579	-0.999128	0.349504
O19	O	0.277595	-1.504580	0.114363
O20	O	0.777595	-1.004580	0.614363
C21	C	-0.033790	-1.488867	0.000100
C22	C	0.466210	-0.988867	0.500100
C23	C	-0.139110	-1.474592	0.000101
C24	C	0.360890	-0.974592	0.500101
C25	C	0.144991	-1.270127	0.000070
C26	C	0.644991	-0.770127	0.500070
C27	C	0.142202	-1.130403	0.000061
C28	C	0.642202	-0.630403	0.500061
C29	C	0.134162	-1.728113	0.000099
C30	C	0.634162	-1.228113	0.500099
C31	C	0.136950	-1.867836	0.000100
C32	C	0.636950	-1.367836	0.500100
C33	C	-0.331943	-1.448493	0.000079
C34	C	0.168057	-0.948493	0.500079
C35	C	-0.388910	-1.549741	0.000082
C36	C	0.111090	-1.049741	0.500082
C37	C	-0.496209	-1.535219	0.000070
C38	C	0.003791	-1.035219	0.500070
C39	C	-0.224634	-1.463013	0.000091
C40	C	0.275366	-0.963013	0.500091
C41	C	0.312943	-1.509372	0.000070
C42	C	0.812943	-1.009372	0.500070
C43	C	0.418262	-1.523648	0.000060
C44	C	0.918262	-1.023648	0.500060
N45	N	0.139570	-1.499109	0.356205
N46	N	0.639570	-0.999109	0.856205
C47	C	0.227204	-1.059459	0.000057
C48	C	0.727204	-0.559459	0.500057
C49	C	0.224578	-0.928175	0.000081
C50	C	0.724578	-0.428175	0.500081
C51	C	0.051942	-0.938790	0.000108
C52	C	0.551942	-0.438790	0.500108
C53	C	0.054569	-1.070072	0.000094
C54	C	0.554569	-0.570072	0.500094
N55	N	0.139576	-1.499140	-0.356032
N56	N	0.639576	-0.999140	0.143968
C57	C	0.075671	-1.577355	0.428142
C58	C	0.575671	-1.077355	0.928142
C59	C	0.075671	-1.577367	0.572025
C60	C	0.575671	-1.077367	1.072025
C61	C	0.203477	-1.420885	0.572021
C62	C	0.703477	-0.920885	1.072021
C63	C	0.203471	-1.420867	0.428140
C64	C	0.703471	-0.920867	0.928140
H65	H	-0.357098	-1.647328	-0.000004
H66	H	0.142902	-1.147328	0.499996
H67	H	-0.363754	-1.350913	0.000069
H68	H	0.136246	-0.850913	0.500069
H69	H	0.255506	-1.357144	0.369565
H70	H	0.755506	-0.857144	0.869565
C71	C	0.323603	-1.125819	0.000039
C72	C	0.823603	-0.625819	0.500039
N73	N	0.396213	-1.175797	0.000032
N74	N	0.896213	-0.675797	0.500032
C75	C	0.318086	-0.850142	0.000083
C76	C	0.818086	-0.350142	0.500083
N77	N	0.388521	-0.791368	0.000088
N78	N	0.888521	-0.291368	0.500088
C79	C	0.005370	-1.663433	0.651150
C80	C	0.505370	-1.163433	1.151150
N81	N	-0.047588	-1.728257	0.710746
N82	N	0.452412	-1.228257	1.210746
C83	C	-0.044449	-0.872413	0.000131
C84	C	0.455551	-0.372413	0.500131
N85	N	-0.117054	-0.822419	0.000143
N86	N	0.382946	-0.322419	0.500143
H87	H	-0.014653	-1.127837	0.000101
H88	H	0.485347	-0.627837	0.500101
C89	C	0.005369	-1.663412	0.349018
C90	C	0.505369	-1.163412	0.849018
N91	N	-0.047587	-1.728229	0.289426
N92	N	0.452413	-1.228229	0.789426
H93	H	0.255506	-1.357184	0.630605
H94	H	0.755506	-0.857184	1.130605
