data_functionalizedCrystal
_audit_creation_method	'MofGen! by Chris Wilmer'
_symmetry_space_group_name_H-M	'P1'
_symmetry_Int_Tables_number	1
_symmetry_cell_setting	triclinic
loop_
_symmetry_equiv_pos_as_xyz
  x,y,z
_cell_length_a	17.640968
_cell_length_b	12.759401
_cell_length_c	12.759399
_cell_angle_alpha	90.016641
_cell_angle_beta	78.769189
_cell_angle_gamma	78.777321
loop_
_atom_site_label
_atom_site_type_symbol
_atom_site_fract_x
_atom_site_fract_y
_atom_site_fract_z
Zn1	Zn	-0.446921	1.726340	-0.298114
Zn2	Zn	-0.314744	1.690717	-0.509337
Zn3	Zn	-0.314756	1.515129	-0.333674
Zn4	Zn	-0.446888	1.550620	-0.473765
O5	O	-0.380827	1.620702	-0.403722
O6	O	-0.429396	1.868638	-0.326138
O7	O	-0.204131	1.637663	-0.515804
O8	O	-0.332307	1.543202	-0.181930
O9	O	-0.332286	1.842466	-0.481322
O10	O	-0.429408	1.698377	-0.155805
O11	O	-0.204140	1.508660	-0.386745
O12	O	-0.332275	1.372814	-0.352252
O13	O	-0.557507	1.603691	-0.420695
O14	O	-0.429352	1.398889	-0.455176
O15	O	-0.557531	1.732792	-0.291645
O16	O	-0.332254	1.672078	-0.651644
O17	O	-0.429340	1.569149	-0.625509
C18	C	-0.380812	1.347730	-0.403714
C19	C	-0.380824	1.230957	-0.403730
C20	C	-0.431292	1.189678	-0.457446
C21	C	-0.431308	1.079958	-0.457446
C22	C	-0.330380	1.052803	-0.350012
C23	C	-0.330369	1.162522	-0.350007
C24	C	-0.587002	1.676174	-0.348235
C25	C	-0.674862	1.699813	-0.324590
C26	C	-0.963757	1.441521	-0.582780
C27	C	-1.046314	1.463756	-0.560549
C28	C	-1.046329	1.598176	-0.426180
C29	C	-0.963770	1.575949	-0.448397
C30	C	-0.922491	1.497621	-0.526699
C31	C	-0.922504	1.632050	-0.392316
C32	C	-0.839952	1.609828	-0.414535
C33	C	-0.798667	1.531506	-0.492836
C34	C	-0.839939	1.475400	-0.548918
C35	C	-0.963785	1.710383	-0.314020
C36	C	-0.922519	1.766483	-0.257938
C37	C	-0.839965	1.744257	-0.280152
C38	C	-0.798680	1.665934	-0.358452
C39	C	-0.798693	1.800363	-0.224069
C40	C	-0.716141	1.778141	-0.246288
C41	C	-0.716128	1.643713	-0.380671
C42	C	-0.175455	1.565505	-0.458917
C43	C	-0.087596	1.542070	-0.482266
C44	C	-0.380809	1.620632	-0.676694
C45	C	-0.380828	1.620706	-0.793466
C46	C	-0.380844	1.894739	-0.403731
C47	C	-0.380851	2.011518	-0.403735
C48	C	-0.330333	1.674393	-0.861886
C49	C	-0.330360	1.674467	-0.971603
C50	C	-0.431379	1.567160	-0.944470
C51	C	-0.431355	1.567092	-0.834754
C52	C	-0.380863	1.620804	-0.129679
C53	C	-0.380878	1.620848	-0.012899
H54	H	-0.472405	1.046356	-0.501185
H55	H	-0.472378	1.245395	-0.501188
H56	H	-0.289300	0.997071	-0.306275
C57	C	-0.275484	1.207133	-0.291667
C58	C	-0.231280	1.123715	-0.244651
C59	C	-0.180709	1.164770	-0.190912
H60	H	-0.305691	1.258085	-0.237729
H61	H	-0.240944	1.240603	-0.341055
H62	H	-0.265815	1.090262	-0.195268
H63	H	-0.201057	1.072757	-0.298566
H64	H	-0.146170	1.198239	-0.240300
H65	H	-0.210923	1.215721	-0.136980
H66	H	-0.150706	1.108176	-0.159014
H67	H	-0.682541	1.823822	-0.200619
H68	H	-0.682516	1.579905	-0.444407
C69	C	-0.795143	1.390516	-0.634109
C70	C	-0.815196	1.418791	-0.732661
C71	C	-0.773933	1.340645	-0.811169
H72	H	-0.808624	1.323512	-0.615260
H73	H	-0.740063	1.385346	-0.639376
H74	H	-0.870264	1.423949	-0.727393
H75	H	-0.801714	1.485782	-0.751543
H76	H	-0.718853	1.335474	-0.816435
H77	H	-0.787417	1.273645	-0.792310
H78	H	-0.787528	1.359823	-0.878047
C79	C	-0.709038	1.507598	-0.516969
C80	C	-0.681716	1.600265	-0.551104
C81	C	-0.599156	1.578285	-0.573331
H82	H	-0.690263	1.452969	-0.571657
H83	H	-0.690341	1.484475	-0.454192
H84	H	-0.700405	1.623374	-0.613874
H85	H	-0.700470	1.654906	-0.496432
H86	H	-0.580459	1.555161	-0.510554
H87	H	-0.580388	1.523653	-0.628017
H88	H	-0.580607	1.641157	-0.596485
H89	H	-0.930145	1.377713	-0.646517
C90	C	-0.275384	1.732407	-0.817026
C91	C	-0.224652	1.659289	-0.767791
C92	C	-0.174017	1.712694	-0.726469
H93	H	-0.305551	1.786264	-0.765961
H94	H	-0.245270	1.764363	-0.873471
H95	H	-0.254764	1.627351	-0.711352
H96	H	-0.194468	1.605430	-0.818834
H97	H	-0.143902	1.744649	-0.782914
H98	H	-0.204190	1.766550	-0.675409
H99	H	-0.139584	1.663090	-0.693067
C100	C	-1.090976	1.402686	-0.621520
C101	C	-1.037153	1.329319	-0.694828
C102	C	-1.078266	1.273039	-0.751004
H103	H	-1.123177	1.451413	-0.658723
H104	H	-1.123168	1.365529	-0.572689
H105	H	-1.004975	1.366474	-0.743653
H106	H	-1.004950	1.280571	-0.657654
H107	H	-1.110457	1.235882	-0.702173
H108	H	-1.110465	1.321774	-0.788200
H109	H	-1.041753	1.223247	-0.800743
H110	H	-0.832315	1.864145	-0.160323
C111	C	-0.486054	1.508704	-0.760360
C112	C	-0.441242	1.429340	-0.709489
C113	C	-0.491603	1.375549	-0.640940
H114	H	-0.516164	1.476682	-0.800537
H115	H	-0.520499	1.558077	-0.708174
H116	H	-0.406811	1.379975	-0.761668
H117	H	-0.411133	1.461334	-0.669293
H118	H	-0.526047	1.424922	-0.588754
H119	H	-0.521711	1.343534	-0.681125
H120	H	-0.461206	1.321701	-0.606409
H121	H	-1.079950	1.661954	-0.362430
C122	C	-0.486185	1.508762	-0.989177
C123	C	-0.468913	1.400170	-0.967210
C124	C	-0.519391	1.346341	-1.008363
H125	H	-0.479018	1.516358	-1.064322
H126	H	-0.539314	1.538306	-0.956829
H127	H	-0.415796	1.370636	-0.999562
H128	H	-0.476085	1.392543	-0.892074
H129	H	-0.572521	1.375884	-0.976014
H130	H	-0.512220	1.353945	-1.083506
H131	H	-0.507684	1.272658	-0.993455
C132	C	-1.053414	1.734520	-0.290116
C133	C	-1.080718	1.768607	-0.382800
C134	C	-1.163279	1.790838	-0.360824
H135	H	-1.072189	1.789230	-0.235509
H136	H	-1.072122	1.671755	-0.266959
H137	H	-1.062018	1.831364	-0.405942
H138	H	-1.061965	1.713911	-0.437418
H139	H	-1.181987	1.728073	-0.337668
H140	H	-1.182046	1.845546	-0.306216
H141	H	-1.181815	1.813959	-0.423708
H142	H	-0.956140	1.830261	-0.194188
H143	H	-0.289242	1.718186	-1.027306
