data_functionalizedCrystal
_audit_creation_method	'MofGen! by Chris Wilmer'
_symmetry_space_group_name_H-M	'P1'
_symmetry_Int_Tables_number	1
_symmetry_cell_setting	triclinic
loop_
_symmetry_equiv_pos_as_xyz
  x,y,z
_cell_length_a	19.121241
_cell_length_b	19.121063
_cell_length_c	19.120904
_cell_angle_alpha	94.741613
_cell_angle_beta	90.124528
_cell_angle_gamma	84.996879
loop_
_atom_site_label
_atom_site_type_symbol
_atom_site_fract_x
_atom_site_fract_y
_atom_site_fract_z
Zn1	Zn	1.043557	0.254510	0.452551
Zn2	Zn	1.293557	0.504510	0.702551
Zn3	Zn	1.543557	0.754510	0.952551
Zn4	Zn	1.793557	1.004510	1.202551
Zn5	Zn	1.043470	0.367161	0.339898
Zn6	Zn	1.293470	0.617161	0.589898
Zn7	Zn	1.543470	0.867161	0.839898
Zn8	Zn	1.793470	1.117161	1.089898
Zn9	Zn	0.931342	0.254092	0.330304
Zn10	Zn	1.181342	0.504092	0.580304
Zn11	Zn	1.431342	0.754092	0.830304
Zn12	Zn	1.681342	1.004092	1.080304
Zn13	Zn	0.920835	0.377147	0.452491
Zn14	Zn	1.170835	0.627147	0.702491
Zn15	Zn	1.420835	0.877147	0.952491
Zn16	Zn	1.670835	1.127147	1.202491
O17	O	0.984801	0.313228	0.393811
O18	O	1.234801	0.563228	0.643811
O19	O	1.484801	0.813228	0.893811
O20	O	1.734801	1.063228	1.143811
O21	O	1.141831	0.265449	0.441648
O22	O	1.391831	0.515449	0.691648
O23	O	1.641831	0.765449	0.941648
O24	O	1.891831	1.015449	1.191648
O25	O	1.032957	0.347808	0.240344
O26	O	1.282957	0.597808	0.490344
O27	O	1.532957	0.847808	0.740344
O28	O	1.782957	1.097808	0.990344
O29	O	0.950661	0.155504	0.342530
O30	O	1.200661	0.405504	0.592530
O31	O	1.450661	0.655504	0.842530
O32	O	1.700661	0.905504	1.092530
O33	O	1.141767	0.348213	0.358882
O34	O	1.391767	0.598213	0.608882
O35	O	1.641767	0.848213	0.858882
O36	O	1.891767	1.098213	1.108882
O37	O	1.033105	0.155811	0.432344
O38	O	1.283105	0.405811	0.682344
O39	O	1.533105	0.655811	0.932344
O40	O	1.783105	0.905811	1.182344
O41	O	0.950577	0.264736	0.233295
O42	O	1.200577	0.514736	0.483295
O43	O	1.450577	0.764736	0.733295
O44	O	1.700577	1.014736	0.983295
O45	O	0.831663	0.274420	0.342472
O46	O	1.081663	0.524420	0.592472
O47	O	1.331663	0.774420	0.842472
O48	O	1.581663	1.024420	1.092472
O49	O	0.932754	0.365234	0.550781
O50	O	1.182754	0.615234	0.800781
O51	O	1.432754	0.865234	1.050781
O52	O	1.682754	1.115234	1.300781
O53	O	0.823943	0.364828	0.432242
O54	O	1.073943	0.614828	0.682242
O55	O	1.323943	0.864828	0.932242
O56	O	1.573943	1.114828	1.182242
O57	O	1.022917	0.275133	0.550825
O58	O	1.272917	0.525133	0.800825
O59	O	1.522917	0.775133	1.050825
O60	O	1.772917	1.025133	1.300825
O61	O	1.022769	0.467129	0.358824
O62	O	1.272769	0.717129	0.608824
O63	O	1.522769	0.967129	0.858824
O64	O	1.772769	1.217129	1.108824
O65	O	0.932669	0.474466	0.441546
O66	O	1.182669	0.724466	0.691546
O67	O	1.432669	0.974466	0.941546
O68	O	1.682669	1.224466	1.191546
C69	C	0.802319	0.320663	0.386310
C70	C	1.052319	0.570663	0.636310
C71	C	1.302319	0.820663	0.886310
C72	C	1.552319	1.070663	1.136310
C73	C	0.724250	0.323861	0.383118
C74	C	0.974250	0.573861	0.633118
C75	C	1.224250	0.823861	0.883118
C76	C	1.474250	1.073861	1.133118
C77	C	0.687602	0.282348	0.424782
C78	C	0.937602	0.532348	0.674782
C79	C	1.187602	0.782348	0.924782
C80	C	1.437602	1.032348	1.174782
C81	C	0.614249	0.285349	0.421777
C82	C	0.864249	0.535349	0.671777
C83	C	1.114249	0.785349	0.921777
C84	C	1.364249	1.035349	1.171777
C85	C	0.577546	0.329869	0.377111
C86	C	0.827546	0.579869	0.627111
C87	C	1.077546	0.829869	0.877111
C88	C	1.327546	1.079869	1.127111
C89	C	0.614200	0.371384	0.335443
C90	C	0.864200	0.621384	0.585443
C91	C	1.114200	0.871384	0.835443
C92	C	1.364200	1.121384	1.085443
C93	C	0.687552	0.368378	0.338445
C94	C	0.937552	0.618378	0.588445
C95	C	1.187552	0.868378	0.838445
C96	C	1.437552	1.118378	1.088445
C97	C	0.356069	0.341093	0.365885
C98	C	0.606069	0.591093	0.615885
C99	C	0.856069	0.841093	0.865885
C100	C	1.106069	1.091093	1.115885
C101	C	0.282712	0.344097	0.362887
C102	C	0.532712	0.594097	0.612887
C103	C	0.782712	0.844097	0.862887
C104	C	1.032712	1.094097	1.112887
C105	C	0.282766	0.258061	0.449221
C106	C	0.532766	0.508061	0.699221
C107	C	0.782766	0.758061	0.949221
C108	C	1.032766	1.008061	1.199221
C109	C	0.356119	0.255063	0.452222
C110	C	0.606119	0.505063	0.702222
C111	C	0.856119	0.755063	0.952222
C112	C	1.106119	1.005063	1.202222
C113	C	0.392767	0.296575	0.410551
C114	C	0.642767	0.546575	0.660551
C115	C	0.892767	0.796575	0.910551
C116	C	1.142767	1.046575	1.160551
C117	C	0.502567	0.332939	0.374040
C118	C	0.752567	0.582939	0.624040
C119	C	1.002567	0.832939	0.874040
C120	C	1.252567	1.082939	1.124040
C121	C	0.467744	0.293500	0.413619
C122	C	0.717744	0.543500	0.663619
C123	C	0.967744	0.793500	0.913619
C124	C	1.217744	1.043500	1.163619
C125	C	0.976588	0.496375	0.401236
C126	C	1.226588	0.746375	0.651236
C127	C	1.476588	0.996375	0.901236
C128	C	1.726588	1.246375	1.151236
C129	C	0.973137	0.574724	0.404438
C130	C	1.223137	0.824724	0.654438
C131	C	1.473137	1.074724	0.904438
C132	C	1.723137	1.324724	1.154438
C133	C	0.976673	0.321344	0.576998
C134	C	1.226673	0.571344	0.826998
C135	C	1.476673	0.821344	1.076998
C136	C	1.726673	1.071344	1.326998
C137	C	0.973209	0.324803	0.655062
C138	C	1.223209	0.574803	0.905062
C139	C	1.473209	0.824803	1.155062
C140	C	1.723209	1.074803	1.405062
C141	C	1.167996	0.305764	0.401342
C142	C	1.417996	0.555764	0.651342
C143	C	1.667996	0.805764	0.901342
C144	C	1.917996	1.055764	1.151342
C145	C	1.246063	0.302584	0.404551
C146	C	1.496063	0.552584	0.654551
C147	C	1.746063	0.802584	0.904551
C148	C	1.996063	1.052584	1.154551
C149	C	0.993065	0.129365	0.386373
C150	C	1.243065	0.379365	0.636373
C151	C	1.493065	0.629365	0.886373
C152	C	1.743065	0.879365	1.136373
C153	C	0.996587	0.051014	0.383204
C154	C	1.246587	0.301014	0.633204
C155	C	1.496587	0.551014	0.883204
C156	C	1.746587	0.801014	1.133204
C157	C	1.018459	0.607690	0.362913
C158	C	1.268459	0.857690	0.612913
C159	C	1.518459	1.107690	0.862913
C160	C	1.768459	1.357690	1.112913
C161	C	1.015218	0.681308	0.365929
C162	C	1.265218	0.931308	0.615929
C163	C	1.515218	1.181308	0.865929
C164	C	1.765218	1.431308	1.115929
C165	C	0.966651	0.721959	0.410467
C166	C	1.216651	0.971959	0.660467
C167	C	1.466651	1.221959	0.910467
C168	C	1.716651	1.471959	1.160467
C169	C	0.921327	0.688989	0.451998
C170	C	1.171327	0.938989	0.701998
C171	C	1.421327	1.188989	0.951998
C172	C	1.671327	1.438989	1.201998
C173	C	0.924572	0.615372	0.448985
C174	C	1.174572	0.865372	0.698985
C175	C	1.424572	1.115372	0.948985
C176	C	1.674572	1.365372	1.198985
C177	C	0.954507	0.944426	0.421721
C178	C	1.204507	1.194426	0.671721
C179	C	1.454507	1.444426	0.921721
C180	C	1.704507	1.694426	1.171721
C181	C	0.951264	1.018048	0.424729
C182	C	1.201264	1.268048	0.674729
C183	C	1.451264	1.518048	0.924729
C184	C	1.701264	1.768048	1.174729
C185	C	1.045157	1.010363	0.338661
C186	C	1.295157	1.260363	0.588661
C187	C	1.545157	1.510363	0.838661
C188	C	1.795157	1.760363	1.088661
C189	C	1.048395	0.936745	0.335649
C190	C	1.298395	1.186745	0.585649
C191	C	1.548395	1.436745	0.835649
C192	C	1.798395	1.686745	1.085649
C193	C	1.003073	0.903781	0.377182
C194	C	1.253073	1.153781	0.627182
C195	C	1.503073	1.403781	0.877182
C196	C	1.753073	1.653781	1.127182
C197	C	0.963335	0.797209	0.413550
C198	C	1.213335	1.047209	0.663550
C199	C	1.463335	1.297209	0.913550
C200	C	1.713335	1.547209	1.163550
C201	C	1.006393	0.828532	0.374103
C202	C	1.256393	1.078532	0.624103
C203	C	1.506393	1.328532	0.874103
C204	C	1.756393	1.578532	1.124103
C205	C	0.992940	0.305090	0.211336
C206	C	1.242940	0.555090	0.461336
C207	C	1.492940	0.805090	0.711336
C208	C	1.742940	1.055090	0.961336
C209	C	0.996549	0.301428	0.133270
C210	C	1.246549	0.551428	0.383270
C211	C	1.496549	0.801428	0.633270
C212	C	1.746549	1.051428	0.883270
C213	C	1.018523	0.279519	0.691760
C214	C	1.268523	0.529519	0.941760
C215	C	1.518523	0.779519	1.191760
C216	C	1.768523	1.029519	1.441760
C217	C	1.015260	0.282766	0.765109
C218	C	1.265260	0.532766	1.015109
C219	C	1.515260	0.782766	1.265109
C220	C	1.765260	1.032766	1.515109
C221	C	0.966686	0.331301	0.801758
C222	C	1.216686	0.581301	1.051758
C223	C	1.466686	0.831301	1.301758
C224	C	1.716686	1.081301	1.551758
C225	C	0.921368	0.376587	0.765054
C226	C	1.171368	0.626587	1.015054
C227	C	1.421368	0.876587	1.265054
C228	C	1.671368	1.126587	1.515054
C229	C	0.924628	0.373336	0.691707
C230	C	1.174628	0.623336	0.941707
C231	C	1.424628	0.873336	1.191707
C232	C	1.674628	1.123336	1.441707
C233	C	0.954491	0.343462	1.023219
C234	C	1.204491	0.593462	1.273219
C235	C	1.454491	0.843462	1.523219
C236	C	1.704491	1.093462	1.773219
C237	C	0.951236	0.346711	1.096572
C238	C	1.201236	0.596711	1.346572
C239	C	1.451236	0.846711	1.596572
C240	C	1.701236	1.096711	1.846572
C241	C	1.045127	0.252889	1.096621
C242	C	1.295127	0.502889	1.346621
C243	C	1.545127	0.752889	1.596621
C244	C	1.795127	1.002889	1.846621
C245	C	1.048386	0.249645	1.023272
C246	C	1.298386	0.499645	1.273272
C247	C	1.548386	0.749645	1.523272
C248	C	1.798386	0.999645	1.773272
C249	C	1.003065	0.294928	0.986575
C250	C	1.253065	0.544928	1.236575
C251	C	1.503065	0.794928	1.486575
C252	C	1.753065	1.044928	1.736575
C253	C	0.963351	0.334623	0.876732
C254	C	1.213351	0.584623	1.126732
C255	C	1.463351	0.834623	1.376732
C256	C	1.713351	1.084623	1.626732
C257	C	1.006397	0.291602	0.911602
C258	C	1.256397	0.541602	1.161602
C259	C	1.506397	0.791602	1.411602
C260	C	1.756397	1.041602	1.661602
H261	H	0.497631	0.257250	0.449982
H262	H	0.747631	0.507250	0.699982
H263	H	0.997631	0.757250	0.949982
H264	H	1.247631	1.007250	1.199982
Br265	Br	0.855441	0.442453	0.814791
Br266	Br	1.105441	0.692453	1.064791
Br267	Br	1.355441	0.942453	1.314791
Br268	Br	1.605441	1.192453	1.564791
Br269	Br	0.885336	1.073218	0.485166
Br270	Br	1.135336	1.323218	0.735166
Br271	Br	1.385336	1.573218	0.985166
Br272	Br	1.635336	1.823218	1.235166
Br273	Br	1.072307	0.225726	0.861862
Br274	Br	1.322307	0.475726	1.111862
Br275	Br	1.572307	0.725726	1.361862
Br276	Br	1.822307	0.975726	1.611862
H277	H	1.058005	0.574597	0.326641
H278	H	1.308005	0.824597	0.576641
H279	H	1.558005	1.074597	0.826641
H280	H	1.808005	1.324597	1.076641
H281	H	1.082024	0.216022	1.126508
H282	H	1.332024	0.466022	1.376508
H283	H	1.582024	0.716022	1.626508
H284	H	1.832024	0.966022	1.876508
H285	H	0.472675	0.369187	0.337673
H286	H	0.722675	0.619187	0.587673
H287	H	0.972675	0.869187	0.837673
H288	H	1.222675	1.119187	1.087673
Br289	Br	0.863065	0.570632	0.505348
Br290	Br	1.113065	0.820632	0.755348
Br291	Br	1.363065	1.070632	1.005348
Br292	Br	1.613065	1.320632	1.255348
H293	H	0.252919	0.224264	0.483146
H294	H	0.502919	0.474264	0.733146
H295	H	0.752919	0.724264	0.983146
H296	H	1.002919	0.974264	1.233146
H297	H	1.045939	0.795432	0.337842
H298	H	1.295939	1.045432	0.587842
H299	H	1.545939	1.295432	0.837842
H300	H	1.795939	1.545432	1.087842
H301	H	0.917604	0.917593	0.455537
H302	H	1.167604	1.167593	0.705537
H303	H	1.417604	1.417593	0.955537
H304	H	1.667604	1.667593	1.205537
Br305	Br	0.855419	0.744157	0.512450
Br306	Br	1.105419	0.994157	0.762450
Br307	Br	1.355419	1.244157	1.012450
Br308	Br	1.605419	1.494157	1.262450
H309	H	1.052124	0.708145	0.332114
H310	H	1.302124	0.958145	0.582114
H311	H	1.552124	1.208145	0.832114
H312	H	1.802124	1.458145	1.082114
H313	H	0.717390	0.402182	0.304517
H314	H	0.967390	0.652182	0.554517
H315	H	1.217390	0.902182	0.804517
H316	H	1.467390	1.152182	1.054517
Br317	Br	0.897425	0.852384	0.473995
Br318	Br	1.147425	1.102384	0.723995
Br319	Br	1.397425	1.352384	0.973995
Br320	Br	1.647425	1.602384	1.223995
H321	H	0.252830	0.380353	0.326515
H322	H	0.502830	0.630353	0.576515
H323	H	0.752830	0.880353	0.826515
H324	H	1.002830	1.130353	1.076515
Br325	Br	0.885307	0.412582	1.146310
Br326	Br	1.135307	0.662582	1.396310
Br327	Br	1.385307	0.912582	1.646310
Br328	Br	1.635307	1.162582	1.896310
Br329	Br	0.564513	0.229007	0.478323
Br330	Br	0.814513	0.479007	0.728323
Br331	Br	1.064513	0.729007	0.978323
Br332	Br	1.314513	0.979007	1.228323
Br333	Br	1.084452	0.213652	0.642030
Br334	Br	1.334452	0.463652	0.892030
Br335	Br	1.584452	0.713652	1.142030
Br336	Br	1.834452	0.963652	1.392030
H337	H	0.917597	0.380345	0.993349
H338	H	1.167597	0.630345	1.243349
H339	H	1.417597	0.880345	1.493349
H340	H	1.667597	1.130345	1.743349
Br341	Br	0.897433	0.400492	0.926476
Br342	Br	1.147433	0.650492	1.176476
Br343	Br	1.397433	0.900492	1.426476
Br344	Br	1.647433	1.150492	1.676476
Br345	Br	1.114312	0.183776	0.973539
Br346	Br	1.364312	0.433776	1.223539
Br347	Br	1.614312	0.683776	1.473539
Br348	Br	1.864312	0.933776	1.723539
H349	H	1.052160	0.245893	0.794986
H350	H	1.302160	0.495893	1.044986
H351	H	1.552160	0.745893	1.294986
H352	H	1.802160	0.995893	1.544986
H353	H	0.887722	0.410204	0.661827
H354	H	1.137722	0.660204	0.911827
H355	H	1.387722	0.910204	1.161827
H356	H	1.637722	1.160204	1.411827
Br357	Br	0.405798	0.397412	0.309312
Br358	Br	0.655798	0.647412	0.559312
Br359	Br	0.905798	0.897412	0.809312
Br360	Br	1.155798	1.147412	1.059312
H361	H	0.385997	0.218813	0.488596
H362	H	0.635997	0.468813	0.738596
H363	H	0.885997	0.718813	0.988596
H364	H	1.135997	0.968813	1.238596
Br365	Br	0.737405	0.221931	0.485407
Br366	Br	0.987405	0.471931	0.735407
Br367	Br	1.237405	0.721931	0.985407
Br368	Br	1.487405	0.971931	1.235407
H369	H	0.584311	0.407629	0.299072
H370	H	0.834311	0.657629	0.549072
H371	H	1.084311	0.907629	0.799072
H372	H	1.334311	1.157629	1.049072
H373	H	1.087942	0.903648	0.299382
H374	H	1.337942	1.153648	0.549382
H375	H	1.587942	1.403648	0.799382
H376	H	1.837942	1.653648	1.049382
Br377	Br	1.106665	1.055103	0.282302
Br378	Br	1.356665	1.305103	0.532302
Br379	Br	1.606665	1.555103	0.782302
Br380	Br	1.856665	1.805103	1.032302
