data_functionalizedCrystal
_audit_creation_method	'MofGen! by Chris Wilmer'
_symmetry_space_group_name_H-M	'P1'
_symmetry_Int_Tables_number	1
_symmetry_cell_setting	triclinic
loop_
_symmetry_equiv_pos_as_xyz
  x,y,z
_cell_length_a	10.654550
_cell_length_b	10.654550
_cell_length_c	9.730223
_cell_angle_alpha	89.993189
_cell_angle_beta	89.998521
_cell_angle_gamma	84.484916
loop_
_atom_site_label
_atom_site_type_symbol
_atom_site_fract_x
_atom_site_fract_y
_atom_site_fract_z
O1	O	0.176398	1.667839	-0.114393
O2	O	0.193204	1.302361	-0.114370
O3	O	0.002062	1.493503	-0.114383
O4	O	0.367541	1.476697	-0.114380
O5	O	0.002057	1.493491	0.114197
O6	O	0.193199	1.302348	0.114210
O7	O	0.176393	1.667827	0.114187
Zn8	Zn	0.184795	1.485086	0.150490
Zn9	Zn	0.184802	1.485102	-0.150674
O10	O	0.367535	1.476684	0.114200
C11	C	0.191968	1.255556	-0.000078
C12	C	0.188276	1.116113	-0.000069
C13	C	0.300817	1.036627	-0.000088
C14	C	0.297341	0.905607	-0.000112
C15	C	0.068771	0.933570	-0.000103
C16	C	0.072249	1.064588	-0.000070
C17	C	0.416844	1.088152	-0.000088
C18	C	0.529395	1.008665	-0.000108
C19	C	0.525918	0.877645	-0.000132
C20	C	0.409891	0.826111	-0.000135
C21	C	-0.044739	1.492263	-0.000097
C22	C	-0.184182	1.488571	-0.000106
C23	C	-0.380719	1.483361	-0.124694
C24	C	-0.249699	1.486842	-0.124703
C25	C	-0.249693	1.486830	0.124508
C26	C	-0.380712	1.483357	0.124515
C27	C	0.414336	1.477925	-0.000090
C28	C	0.553779	1.481617	-0.000090
C29	C	0.177630	1.714631	-0.000109
C30	C	0.181321	1.854074	-0.000127
N31	N	0.184790	1.485084	0.356027
N32	N	0.184798	1.485114	-0.356210
C33	C	0.100188	1.569750	0.427947
C34	C	0.100188	1.569763	0.571830
C35	C	0.269404	1.400438	0.571860
C36	C	0.269396	1.400420	0.427979
H37	H	0.419688	1.194834	-0.000075
H38	H	-0.025693	0.891600	-0.000129
N39	N	-0.179028	1.488687	-0.259086
H40	H	-0.134166	1.567839	-0.264663
H41	H	-0.240471	1.486999	-0.337949
H42	H	-0.434045	1.481941	0.225989
N43	N	0.360647	1.309084	0.350408
H44	H	0.449924	1.324315	0.375427
H45	H	0.347692	1.321958	0.248367
N46	N	-0.049131	1.150330	-0.000043
H47	H	-0.123161	1.097811	-0.000058
H48	H	-0.052665	1.205330	-0.084764
N49	N	0.008937	1.661059	0.350337
H50	H	-0.044658	1.714695	0.417737
H51	H	-0.047037	1.612494	0.290658
H52	H	-0.196339	1.488245	0.225957
N53	N	0.008952	1.661099	0.649395
H54	H	-0.047116	1.612651	0.709109
H55	H	-0.044551	1.714703	0.581882
N56	N	-0.451377	1.481509	-0.259085
H57	H	-0.544317	1.479043	-0.240178
H58	H	-0.418972	1.404404	-0.313500
H59	H	0.623860	1.050633	-0.000094
H60	H	0.338290	1.331508	0.630458
N61	N	0.406137	0.684796	-0.000142
H62	H	0.495038	0.642258	-0.000146
H63	H	0.360376	0.658851	-0.084884
H64	H	0.617562	0.812929	-0.000135
