data_functionalizedCrystal
_audit_creation_method	'MofGen! by Chris Wilmer'
_symmetry_space_group_name_H-M	'P1'
_symmetry_Int_Tables_number	1
_symmetry_cell_setting	triclinic
loop_
_symmetry_equiv_pos_as_xyz
  x,y,z
_cell_length_a	12.759401
_cell_length_b	13.032721
_cell_length_c	12.759393
_cell_angle_alpha	97.148028
_cell_angle_beta	89.981504
_cell_angle_gamma	97.204304
loop_
_atom_site_label
_atom_site_type_symbol
_atom_site_fract_x
_atom_site_fract_y
_atom_site_fract_z
Zn1	Zn	1.553098	-0.415970	-0.647064
Zn2	Zn	1.530656	-0.590752	-0.493688
Zn3	Zn	1.377393	-0.416025	-0.471410
Zn4	Zn	1.355063	-0.590671	-0.669319
O5	O	1.454052	-0.503355	-0.570370
O6	O	1.697140	-0.439166	-0.626728
O7	O	1.510279	-0.567631	-0.343719
O8	O	1.419437	-0.269780	-0.476074
O9	O	1.680653	-0.567577	-0.514043
O10	O	1.548527	-0.269740	-0.605126
O11	O	1.397677	-0.439259	-0.327352
O12	O	1.227411	-0.439181	-0.497654
O13	O	1.381379	-0.567440	-0.813381
O14	O	1.211005	-0.567493	-0.643057
O15	O	1.526875	-0.439088	-0.797030
O16	O	1.488626	-0.736978	-0.535623
O17	O	1.359619	-0.736919	-0.664659
C18	C	1.181087	-0.503335	-0.570354
C19	C	1.064309	-0.503352	-0.570375
C20	C	1.000918	-0.570271	-0.645989
C21	C	0.891192	-0.570285	-0.646002
C22	C	0.908258	-0.436457	-0.494778
C23	C	1.017982	-0.436439	-0.494770
C24	C	0.991064	-0.647539	-0.733294
C25	C	0.881338	-0.647552	-0.733307
C26	C	1.419293	-0.774866	-0.604997
C27	C	1.404519	-0.891020	-0.619845
C28	C	1.461819	-0.942800	-0.562668
C29	C	1.446551	-1.062851	-0.578013
C30	C	1.728083	-0.503375	-0.570388
C31	C	1.844859	-0.503383	-0.570395
C32	C	1.454139	-0.503249	-0.844390
C33	C	1.454176	-0.503204	-0.961161
C34	C	1.488976	-0.230782	-0.535632
C35	C	1.503859	-0.114628	-0.520829
C36	C	1.529946	-0.436365	-1.007510
C37	C	1.529976	-0.436327	-1.117230
C38	C	1.378462	-0.569977	-1.134243
C39	C	1.378429	-0.570009	-1.024525
C40	C	1.617424	-0.359206	-0.997689
C41	C	1.617454	-0.359168	-1.107409
C42	C	1.454036	-0.503384	-0.297407
C43	C	1.454240	-0.503135	-0.180599
H44	H	1.015259	-0.724379	-0.713815
O45	O	0.845345	-0.613105	-0.821268
C46	C	0.890127	-0.548210	-0.986469
C47	C	0.931030	-0.587231	-0.886925
H48	H	0.959385	-0.527260	-1.039569
H49	H	0.831714	-0.612107	-1.031087
H50	H	0.848997	-0.476301	-0.962401
H51	H	0.972210	-0.659122	-0.910900
H52	H	0.989392	-0.523271	-0.842330
H53	H	1.564228	-1.070087	-0.460517
H54	H	1.605997	-0.278276	-0.957606
H55	H	1.316727	-0.624432	-0.986792
H56	H	1.316790	-0.624365	-1.185846
O57	O	0.833618	-0.744126	-0.719401
C58	C	0.856905	-0.920108	-0.694195
C59	C	0.911083	-0.810788	-0.709910
H60	H	0.919510	-0.974040	-0.686539
H61	H	0.807951	-0.914813	-0.619401
H62	H	0.803127	-0.952420	-0.765095
H63	H	0.964912	-0.778412	-0.639070
H64	H	0.959971	-0.816148	-0.784745
H65	H	1.522184	-0.898256	-0.502360
O66	O	1.374404	-1.115867	-0.649906
C67	C	1.191398	-1.149634	-0.704995
C68	C	1.272992	-1.089511	-0.623520
H69	H	1.109385	-1.128364	-0.683679
H70	H	1.212430	-1.128133	-0.787016
H71	H	1.191970	-1.236983	-0.704570
H72	H	1.272463	-1.002148	-0.623851
H73	H	1.251931	-1.111098	-0.541538
H74	H	1.344163	-0.935567	-0.680160
H75	H	1.690988	-0.388219	-0.967356
H76	H	0.870525	-0.381977	-0.433224
O77	O	1.594489	-0.267348	-1.136147
C78	C	1.551152	-0.094901	-1.077764
C79	C	1.577172	-0.198818	-1.045067
H80	H	1.537122	-0.039474	-1.004146
H81	H	1.620021	-0.058519	-1.123386
H82	H	1.476970	-0.109811	-1.129982
H83	H	1.651324	-0.183997	-0.992813
H84	H	1.508244	-0.235168	-0.999501
H85	H	1.696054	-0.380844	-1.139953
O86	O	1.030070	-0.621670	-0.827026
C87	C	1.147116	-0.501256	-0.915117
C88	C	1.103045	-0.530444	-0.808896
H89	H	1.206107	-0.427486	-0.900498
H90	H	1.188329	-0.567710	-0.955938
H91	H	1.079468	-0.486928	-0.967567
H92	H	1.170631	-0.544754	-0.756365
H93	H	1.061801	-0.463974	-0.768159
H94	H	1.069592	-0.381940	-0.433204
