data_functionalizedCrystal
_audit_creation_method	'MofGen! by Chris Wilmer'
_symmetry_space_group_name_H-M	'P1'
_symmetry_Int_Tables_number	1
_symmetry_cell_setting	triclinic
loop_
_symmetry_equiv_pos_as_xyz
  x,y,z
_cell_length_a	19.077409
_cell_length_b	19.077432
_cell_length_c	19.076919
_cell_angle_alpha	89.934943
_cell_angle_beta	85.523525
_cell_angle_gamma	90.120568
loop_
_atom_site_label
_atom_site_type_symbol
_atom_site_fract_x
_atom_site_fract_y
_atom_site_fract_z
Zn1	Zn	1.072168	-0.250959	0.344950
Zn2	Zn	1.572168	0.249041	0.844950
Zn3	Zn	1.081524	-0.363355	0.222369
Zn4	Zn	1.581524	0.136645	0.722369
Zn5	Zn	0.959025	-0.250982	0.231798
Zn6	Zn	1.459025	0.249018	0.731798
Zn7	Zn	0.959362	-0.373137	0.344522
Zn8	Zn	1.459362	0.126863	0.844522
O9	O	1.018020	-0.309608	0.285910
O10	O	1.518020	0.190392	0.785910
O11	O	1.171886	-0.261765	0.324923
O12	O	1.671886	0.238235	0.824923
O13	O	1.069048	-0.344365	0.125143
O14	O	1.569048	0.155635	0.625143
O15	O	0.969977	-0.152819	0.250934
O16	O	1.469977	0.347181	0.750934
O17	O	1.178759	-0.344342	0.234863
O18	O	1.678759	0.155658	0.734863
O19	O	1.053103	-0.152801	0.334066
O20	O	1.553103	0.347199	0.834066
O21	O	0.979049	-0.261805	0.132071
O22	O	1.479049	0.238195	0.632071
O23	O	0.860593	-0.271290	0.250518
O24	O	1.360593	0.228710	0.750518
O25	O	0.970552	-0.361014	0.443055
O26	O	1.470552	0.138986	0.943055
O27	O	0.860841	-0.361037	0.333335
O28	O	1.360841	0.138963	0.833335
O29	O	1.053430	-0.271250	0.443370
O30	O	1.553430	0.228750	0.943370
O31	O	1.069375	-0.462813	0.234447
O32	O	1.569375	0.037187	0.734447
O33	O	0.979623	-0.470000	0.324192
O34	O	1.479623	0.030000	0.824192
C35	C	0.835183	-0.317228	0.292904
C36	C	1.335183	0.182772	0.792904
C37	C	0.756965	-0.320505	0.295912
C38	C	1.256965	0.179495	0.795912
C39	C	0.316692	-0.343955	0.317521
C40	C	0.816692	0.156045	0.817521
C41	C	0.390187	-0.340880	0.314682
C42	C	0.890187	0.159120	0.814682
C43	C	0.426777	-0.292548	0.270221
C44	C	0.926777	0.207452	0.770221
C45	C	0.389868	-0.247292	0.228592
C46	C	0.889868	0.252708	0.728592
C47	C	0.316375	-0.250370	0.231428
C48	C	0.816375	0.249630	0.731428
C49	C	0.646563	-0.278327	0.257119
C50	C	1.146563	0.221673	0.757119
C51	C	0.720061	-0.275251	0.254287
C52	C	1.220061	0.224749	0.754287
C53	C	0.720375	-0.368841	0.340376
C54	C	1.220375	0.131159	0.840376
C55	C	0.646880	-0.371912	0.343212
C56	C	1.146880	0.128088	0.843212
C57	C	0.609978	-0.326658	0.301580
C58	C	1.109978	0.173342	0.801580
N59	N	0.501901	-0.289403	0.267319
N60	N	1.001901	0.210597	0.767319
N61	N	0.534856	-0.329807	0.304479
N62	N	1.034856	0.170193	0.804479
C63	C	1.025569	-0.491859	0.278264
C64	C	1.525569	0.008141	0.778264
C65	C	1.028863	-0.569824	0.275014
C66	C	1.528863	-0.069824	0.775014
C67	C	0.983652	-0.610220	0.320177
C68	C	1.483652	-0.110220	0.820177
C69	C	0.986749	-0.683477	0.317121
C70	C	1.486749	-0.183477	0.817121
C71	C	1.035062	-0.716336	0.268905
C72	C	1.535062	-0.216336	0.768905
C73	C	1.080275	-0.675936	0.223737
C74	C	1.580275	-0.175936	0.723737
C75	C	1.077174	-0.602680	0.226790
C76	C	1.577174	-0.102680	0.726790
C77	C	1.049349	-0.935023	0.254763
C78	C	1.549349	-0.435023	0.754763
C79	C	1.052448	-1.008283	0.251714
C80	C	1.552448	-0.508283	0.751714
C81	C	0.958921	-1.015819	0.345097
C82	C	1.458921	-0.515819	0.845097
C83	C	0.955827	-0.942562	0.348149
C84	C	1.455827	-0.442562	0.848149
C85	C	1.001037	-0.902168	0.302979
C86	C	1.501037	-0.402168	0.802979
N87	N	1.038231	-0.791217	0.265781
N88	N	1.538231	-0.291217	0.765781
N89	N	0.997865	-0.827289	0.306100
N90	N	1.497865	-0.327289	0.806100
C91	C	1.201570	-0.301960	0.278889
C92	C	1.701570	0.198040	0.778889
C93	C	1.279789	-0.298701	0.275897
C94	C	1.779789	0.201299	0.775897
C95	C	1.010985	-0.317221	0.469460
C96	C	1.510985	0.182779	0.969460
C97	C	1.007987	-0.320464	0.547678
C98	C	1.507987	0.179536	1.047678
C99	C	1.010459	-0.126646	0.293600
C100	C	1.510459	0.373354	0.793600
C101	C	1.007237	-0.048679	0.296877
C102	C	1.507237	0.451321	0.796877
C103	C	1.025065	-0.301974	0.103074
C104	C	1.525065	0.198026	0.603074
C105	C	1.028191	-0.298526	0.024859
C106	C	1.528191	0.201474	0.524859
C107	C	1.049727	-0.275255	0.584590
C108	C	1.549727	0.224745	1.084590
C109	C	1.046902	-0.278301	0.658085
C110	C	1.546902	0.221699	1.158085
C111	C	1.002340	-0.326559	0.694666
C112	C	1.502340	0.173441	1.194666
C113	C	0.960595	-0.371771	0.657748
C114	C	1.460595	0.128229	1.157748
C115	C	0.963417	-0.368721	0.584255
C116	C	1.463417	0.131279	1.084255
C117	C	0.989269	-0.340688	0.914449
C118	C	1.489269	0.159312	1.414449
C119	C	0.986451	-0.343736	0.987947
C120	C	1.486451	0.156264	1.487947
C121	C	1.072757	-0.250265	0.988279
C122	C	1.572757	0.249735	1.488279
C123	C	1.075579	-0.247222	0.914784
C124	C	1.575579	0.252778	1.414784
C125	C	1.033831	-0.292431	0.877873
C126	C	1.533831	0.207569	1.377873
N127	N	0.999452	-0.329675	0.769789
N128	N	1.499452	0.170325	1.269789
N129	N	1.036716	-0.289311	0.802752
N130	N	1.536716	0.210689	1.302752
H131	H	0.419666	-0.207941	0.192388
H132	H	0.919666	0.292059	0.692388
N133	N	0.910154	-1.059383	0.393811
N134	N	1.410154	-0.559383	0.893811
H135	H	0.938756	-1.089900	0.424089
H136	H	1.438756	-0.589900	0.924089
H137	H	0.879960	-1.089947	0.365114
H138	H	1.379960	-0.589947	0.865114
H139	H	0.916487	-0.915809	0.387411
H140	H	1.416487	-0.415809	0.887411
N141	N	0.944236	-0.389457	0.874663
N142	N	1.444236	0.110543	1.374663
H143	H	0.975336	-0.419515	0.841709
H144	H	1.475336	0.080485	1.341709
H145	H	0.911615	-0.361000	0.846662
H146	H	1.411615	0.139000	1.346662
H147	H	1.111868	-0.207927	0.885005
H148	H	1.611868	0.292073	1.385005
N149	N	1.117781	-0.201505	1.028089
N150	N	1.617781	0.298495	1.528089
H151	H	1.109233	-0.210757	1.080197
H152	H	1.609233	0.289243	1.580197
H153	H	1.105250	-0.151331	1.017766
H154	H	1.605250	0.348669	1.517766
H155	H	0.420231	-0.377733	0.348575
H156	H	0.920231	0.122267	0.848575
N157	N	0.759525	-0.223120	0.206326
N158	N	1.259525	0.276880	0.706326
H159	H	0.792442	-0.248948	0.171302
H160	H	1.292442	0.251052	0.671302
H161	H	0.787537	-0.190582	0.235215
H162	H	1.287537	0.309418	0.735215
N163	N	1.104562	-1.043728	0.199709
N164	N	1.604562	-0.543728	0.699709
H165	H	1.132732	-1.007023	0.171557
H166	H	1.632732	-0.507023	0.671557
H167	H	1.078480	-1.074009	0.166950
H168	H	1.578480	-0.574009	0.666950
N169	N	1.098121	-0.891460	0.206057
N170	N	1.598121	-0.391460	0.706057
H171	H	1.129201	-0.923394	0.175056
H172	H	1.629201	-0.423394	0.675056
H173	H	1.128273	-0.860859	0.234762
H174	H	1.628273	-0.360859	0.734762
N175	N	1.125935	-0.559107	0.178078
N176	N	1.625935	-0.059107	0.678078
H177	H	1.157013	-0.591038	0.147070
H178	H	1.657013	-0.091038	0.647070
H179	H	1.156091	-0.528500	0.206773
H180	H	1.656091	-0.028500	0.706773
H181	H	0.950161	-0.383035	1.017729
H182	H	1.450161	0.116965	1.517729
H183	H	0.949927	-0.716364	0.353891
H184	H	1.449927	-0.216364	0.853891
H185	H	1.119609	-0.702696	0.184475
H186	H	1.619609	-0.202696	0.684475
H187	H	0.944313	-0.583470	0.359443
H188	H	1.444313	-0.083470	0.859443
H189	H	1.086017	-0.235960	0.554811
H190	H	1.586017	0.264040	1.054811
N191	N	1.091906	-0.229527	0.697899
N192	N	1.591906	0.270473	1.197899
H193	H	1.120563	-0.198492	0.663574
H194	H	1.620563	0.301508	1.163574
H195	H	1.124483	-0.257976	0.725958
H196	H	1.624483	0.242024	1.225958
H197	H	0.924309	-0.411061	0.687539
H198	H	1.424309	0.088939	1.187539
H199	H	0.929421	-0.405528	0.554203
H200	H	1.429421	0.094472	1.054203
H201	H	0.286329	-0.213517	0.197535
H202	H	0.786329	0.286483	0.697535
N203	N	0.277230	-0.396083	0.365478
N204	N	0.777230	0.103917	0.865478
H205	H	0.311764	-0.424286	0.391414
H206	H	0.811764	0.075714	0.891414
H207	H	0.249174	-0.428586	0.336593
H208	H	0.749174	0.071414	0.836593
N209	N	0.607421	-0.424055	0.391155
N210	N	1.107421	0.075945	0.891155
H211	H	0.617851	-0.414800	0.441415
H212	H	1.117851	0.085200	0.941415
H213	H	0.622735	-0.473136	0.377474
H214	H	1.122735	0.026864	0.877474
N215	N	0.760176	-0.417652	0.385272
N216	N	1.260176	0.082348	0.885272
H217	H	0.812286	-0.408372	0.376729
H218	H	1.312286	0.091628	0.876729
H219	H	0.749825	-0.467810	0.372624
H220	H	1.249825	0.032190	0.872624
N221	N	0.606766	-0.229519	0.212219
N222	N	1.106766	0.270481	0.712219
H223	H	0.641099	-0.198433	0.183626
H224	H	1.141099	0.301567	0.683626
H225	H	0.573836	-0.199570	0.243453
H226	H	1.073836	0.300430	0.743453
