data_functionalizedCrystal
_audit_creation_method	'MofGen! by Chris Wilmer'
_symmetry_space_group_name_H-M	'P1'
_symmetry_Int_Tables_number	1
_symmetry_cell_setting	triclinic
loop_
_symmetry_equiv_pos_as_xyz
  x,y,z
_cell_length_a	19.188905
_cell_length_b	19.188925
_cell_length_c	9.730223
_cell_angle_alpha	89.999035
_cell_angle_beta	89.992681
_cell_angle_gamma	83.138552
loop_
_atom_site_label
_atom_site_type_symbol
_atom_site_fract_x
_atom_site_fract_y
_atom_site_fract_z
O1	O	0.926150	0.087082	-0.114515
O2	O	0.722836	0.098834	-0.114468
O3	O	0.830362	-0.008699	-0.114485
O4	O	0.818624	0.194614	-0.114498
O5	O	0.830361	-0.008696	0.114095
O6	O	0.722835	0.098837	0.114112
O7	O	0.926149	0.087084	0.114065
Zn8	Zn	0.824492	0.092961	0.150380
Zn9	Zn	0.824493	0.092957	-0.150784
O10	O	0.818623	0.194617	0.114082
C11	C	0.696824	0.098458	-0.000172
C12	C	0.619319	0.097324	-0.000154
C13	C	0.582928	0.096778	-0.124757
C14	C	0.510104	0.095705	-0.124774
C15	C	0.473676	0.095164	-0.000181
C16	C	0.510076	0.095714	0.124438
C17	C	0.582897	0.096794	0.124451
N18	N	0.364656	0.053736	0.092544
N19	N	0.295479	0.052709	0.092523
C20	C	0.254270	0.091911	-0.000214
N21	N	0.284852	0.132171	-0.092949
N22	N	0.354035	0.133196	-0.092932
C23	C	0.394714	0.093993	-0.000182
C24	C	0.138915	0.090203	-0.124844
C25	C	0.066089	0.089134	-0.124855
C26	C	0.066063	0.089136	0.124360
C27	C	0.138886	0.090212	0.124368
C28	C	0.175308	0.090742	-0.000237
C29	C	0.829982	-0.034708	-0.000196
C30	C	0.828843	-0.112213	-0.000199
C31	C	0.884308	-0.673988	-0.000246
C32	C	0.885384	-0.601165	-0.000234
C33	C	0.822291	-0.556225	-0.000220
C34	C	0.758117	-0.584113	-0.000183
C35	C	0.757043	-0.656935	-0.000181
N36	N	0.776615	-0.435541	-0.078012
N37	N	0.777640	-0.366364	-0.078016
C38	C	0.825525	-0.336816	-0.000222
N39	N	0.872357	-0.379060	0.077561
N40	N	0.871334	-0.448244	0.077559
C41	C	0.823450	-0.477261	-0.000221
C42	C	0.890863	-0.229973	-0.000236
C43	C	0.891937	-0.157148	-0.000215
C44	C	0.764668	-0.140097	-0.000178
C45	C	0.763596	-0.212921	-0.000184
C46	C	0.826695	-0.257855	-0.000220
C47	C	0.952161	0.087461	-0.000234
C48	C	1.029666	0.088594	-0.000261
C49	C	0.819003	0.220627	-0.000210
C50	C	0.820142	0.298131	-0.000217
N51	N	0.824496	0.092963	0.355917
N52	N	0.824495	0.092950	-0.356320
C53	C	0.872120	0.045363	0.427835
C54	C	0.872119	0.045355	0.571718
C55	C	0.776865	0.140552	0.571751
C56	C	0.776864	0.140556	0.427871
C57	C	0.919752	-0.002230	0.355881
C58	C	0.967381	-0.049833	0.427799
C59	C	0.967379	-0.049841	0.571682
C60	C	0.919748	-0.002247	0.643647
H61	H	0.036460	0.088694	-0.226326
F62	F	0.919759	-0.002222	0.202748
F63	F	1.018063	-0.100508	0.648221
H64	H	0.168517	0.090652	0.225833
F65	F	0.960234	-0.127477	-0.000250
F66	F	0.621628	0.097375	0.257077
F67	F	0.027298	0.088566	0.256962
H68	H	0.935689	-0.710569	-0.000268
F69	F	0.953681	-0.571485	-0.000252
F70	F	0.690969	-0.536284	-0.000162
H71	H	0.704790	-0.679634	-0.000154
H72	H	0.168570	0.090642	-0.226305
H73	H	0.919746	-0.002262	0.760806
H74	H	0.738087	0.179302	0.630354
H75	H	0.738083	0.179316	0.369315
F76	F	0.695301	-0.242595	-0.000164
H77	H	0.480469	0.095261	-0.226243
F78	F	0.471305	0.095142	0.257038
H79	H	0.942242	-0.266560	-0.000264
F80	F	0.621686	0.097344	-0.257374
F81	F	1.018065	-0.100489	0.351209
H82	H	0.713296	-0.103508	-0.000154
