data_functionalizedCrystal
_audit_creation_method	'MofGen! by Chris Wilmer'
_symmetry_space_group_name_H-M	'P1'
_symmetry_Int_Tables_number	1
_symmetry_cell_setting	triclinic
loop_
_symmetry_equiv_pos_as_xyz
  x,y,z
_cell_length_a	12.594517
_cell_length_b	12.594516
_cell_length_c	16.120297
_cell_angle_alpha	87.134964
_cell_angle_beta	92.877961
_cell_angle_gamma	89.979314
loop_
_atom_site_label
_atom_site_type_symbol
_atom_site_fract_x
_atom_site_fract_y
_atom_site_fract_z
Zn1	Zn	1.596705	0.454288	-0.471347
Zn2	Zn	1.605611	0.623255	-0.331920
Zn3	Zn	1.427737	0.445292	-0.331951
Zn4	Zn	1.418680	0.632220	-0.471284
O5	O	1.512183	0.538764	-0.401625
O6	O	1.746832	0.476715	-0.452865
O7	O	1.589533	0.592131	-0.215262
O8	O	1.450214	0.297542	-0.350482
O9	O	1.753374	0.600854	-0.350428
O10	O	1.574354	0.304152	-0.452895
O11	O	1.458849	0.461382	-0.215285
O12	O	1.277591	0.470076	-0.350420
O13	O	1.434779	0.616134	-0.587954
O14	O	1.270937	0.607411	-0.452787
O15	O	1.565573	0.485408	-0.588001
O16	O	1.580751	0.773388	-0.350367
O17	O	1.443414	0.779974	-0.452757
C18	C	1.235644	0.538741	-0.401601
C19	C	1.117338	0.538758	-0.401610
C20	C	1.512094	0.815301	-0.401570
C21	C	1.512151	0.933607	-0.401574
C22	C	1.498172	0.552775	-0.619072
C23	C	1.492201	0.558745	-0.711735
C24	C	1.051666	0.463971	-0.346039
C25	C	0.982176	0.559729	-0.325519
C26	C	0.976028	0.443049	-0.422144
C27	C	1.049408	0.634564	-0.381051
C28	C	1.043265	0.517821	-0.477710
C29	C	0.973805	0.613648	-0.457220
C30	C	1.789803	0.538788	-0.401650
C31	C	1.908107	0.538798	-0.401661
C32	C	1.586956	1.070008	-0.345966
C33	C	1.491161	0.997995	-0.325485
C34	C	1.607937	1.004046	-0.422018
C35	C	1.416387	1.072380	-0.381103
C36	C	1.533225	1.078440	-0.477671
C37	C	1.437362	1.006461	-0.457219
C38	C	1.512270	1.261146	-0.401672
C39	C	1.512230	1.142838	-0.401623
C40	C	1.481261	0.569622	-0.881392
C41	C	1.543315	0.507587	-0.922711
C42	C	1.537228	0.513639	-1.017113
C43	C	1.487347	0.563572	-0.786980
C44	C	1.526201	0.524731	-0.185024
C45	C	1.532378	0.518460	-0.092362
H46	H	1.085739	0.400782	-0.298986
C47	C	1.620082	0.430625	-0.875253
C48	C	1.563002	0.359271	-0.825251
C49	C	1.633679	0.288367	-0.781514
H50	H	1.658238	0.392395	-0.913505
H51	H	1.668580	0.469166	-0.841235
H52	H	1.514523	0.320735	-0.859266
H53	H	1.524849	0.397472	-0.786984
H54	H	1.682178	0.326907	-0.747496
H55	H	1.671832	0.250144	-0.819772
H56	H	1.594962	0.239951	-0.747577
H57	H	1.423569	0.627275	-0.916914
C58	C	0.928417	0.697991	-0.519903
C59	C	0.817267	0.696521	-0.519755
C60	C	0.775418	0.774193	-0.577492
H61	H	0.953596	0.765981	-0.505276
H62	H	0.950235	0.683672	-0.573803
H63	H	0.795459	0.710847	-0.465866
H64	H	0.792059	0.628549	-0.534391
H65	H	0.797236	0.759875	-0.631392
H66	H	0.800604	0.842178	-0.562859
H67	H	0.699999	0.773200	-0.577405
C68	C	1.308396	1.112115	-0.357835
C69	C	1.286440	1.070317	-0.278430
C70	C	1.186967	1.106889	-0.256971
H71	H	1.308977	1.187538	-0.357902
H72	H	1.255226	1.089834	-0.397072
H73	H	1.339597	1.092605	-0.239203
H74	H	1.285837	0.994898	-0.278343
H75	H	1.133797	1.084608	-0.296208
H76	H	1.187557	1.182311	-0.257042
H77	H	1.172053	1.078527	-0.203097
C78	C	0.946022	0.583148	-0.239737
C79	C	0.885295	0.498021	-0.209335
C80	C	0.851965	0.519529	-0.130313
H81	H	1.006399	0.592464	-0.203122
H82	H	0.904209	0.646165	-0.243375
H83	H	0.927106	0.435022	-0.205691
H84	H	0.824904	0.488692	-0.245926
H85	H	0.810152	0.582545	-0.133952
H86	H	0.912347	0.528845	-0.093706
H87	H	0.810750	0.461778	-0.109678
C88	C	1.092360	0.742449	-0.357793
C89	C	1.203509	0.741146	-0.357984
C90	C	1.243116	0.840501	-0.336552
H91	H	1.065174	0.795697	-0.397006
H92	H	1.071028	0.757472	-0.303899
H93	H	1.224832	0.726135	-0.411870
H94	H	1.230724	0.687919	-0.318771
H95	H	1.221784	0.855525	-0.282658
H96	H	1.215922	0.893742	-0.375767
H97	H	1.318534	0.839628	-0.336671
H98	H	1.473361	0.962818	-0.261151
C99	C	1.079247	0.493919	-0.563439
C100	C	1.042132	0.393546	-0.584591
C101	C	1.075273	0.371473	-0.663553
H102	H	1.051455	0.546266	-0.603159
H103	H	1.154707	0.494667	-0.562929
H104	H	0.966688	0.392806	-0.585108
H105	H	1.069921	0.341178	-0.544893
H106	H	1.150733	0.372221	-0.663043
H107	H	1.047478	0.423826	-0.703266
H108	H	1.050103	0.303365	-0.677912
C109	C	1.352808	0.969402	-0.519840
C110	C	1.252797	1.004136	-0.498076
C111	C	1.174877	0.970003	-0.555733
H112	H	1.367028	0.998110	-0.573750
H113	H	1.353561	0.893968	-0.519793
H114	H	1.252046	1.079555	-0.498132
H115	H	1.238543	0.975432	-0.444176
H116	H	1.175631	0.894569	-0.555686
H117	H	1.189108	0.998713	-0.609639
H118	H	1.107010	0.993556	-0.540970
H119	H	0.943787	0.362101	-0.439461
H120	H	1.650110	1.098024	-0.298883
H121	H	1.551055	1.113638	-0.541986
H122	H	1.688907	0.973986	-0.439287
