data_functionalizedCrystal
_audit_creation_method	'MofGen! by Chris Wilmer'
_symmetry_space_group_name_H-M	'P1'
_symmetry_Int_Tables_number	1
_symmetry_cell_setting	triclinic
loop_
_symmetry_equiv_pos_as_xyz
  x,y,z
_cell_length_a	14.519731
_cell_length_b	14.519709
_cell_length_c	11.892095
_cell_angle_alpha	93.895429
_cell_angle_beta	86.093342
_cell_angle_gamma	83.684499
loop_
_atom_site_label
_atom_site_type_symbol
_atom_site_fract_x
_atom_site_fract_y
_atom_site_fract_z
O1	O	1.229743	0.115099	-0.094008
O2	O	1.729743	0.615099	0.405992
O3	O	0.961268	0.129315	-0.094010
O4	O	1.461268	0.629315	0.405990
O5	O	1.102623	-0.012031	-0.093999
O6	O	1.602623	0.487969	0.406001
O7	O	1.088388	0.256444	-0.094019
O8	O	1.588388	0.756444	0.405981
O9	O	1.090837	-0.000264	0.094008
O10	O	1.590837	0.499736	0.594008
O11	O	0.949483	0.141082	0.093996
O12	O	1.449483	0.641082	0.593996
O13	O	1.217957	0.126866	0.093998
O14	O	1.717957	0.626866	0.593998
Zn15	Zn	1.081848	0.135842	0.123848
Zn16	Zn	1.581848	0.635842	0.623848
Zn17	Zn	1.097377	0.120339	-0.123859
Zn18	Zn	1.597377	0.620339	0.376141
O19	O	1.076602	0.268211	0.093987
O20	O	1.576602	0.768211	0.593987
C21	C	0.921016	0.134532	-0.000007
C22	C	1.421016	0.634532	0.499993
C23	C	0.818636	0.132536	-0.000007
C24	C	1.318636	0.632536	0.499993
C25	C	0.735492	0.130914	-0.000012
C26	C	1.235492	0.630914	0.499988
C27	C	0.631183	0.128887	-0.000012
C28	C	1.131183	0.628887	0.499988
C29	C	0.548044	0.127279	-0.000012
C30	C	1.048044	0.627279	0.499988
C31	C	0.443729	0.125252	-0.000014
C32	C	0.943729	0.625252	0.499986
C33	C	1.096067	-0.040507	0.000005
C34	C	1.596067	0.459493	0.500005
C35	C	1.094078	-0.142888	0.000005
C36	C	1.594078	0.357112	0.500005
C37	C	1.086761	-0.517786	-0.000024
C38	C	1.586761	-0.017786	0.499976
C39	C	1.088793	-0.413478	-0.000016
C40	C	1.588793	0.086522	0.499984
C41	C	1.090419	-0.330341	-0.000008
C42	C	1.590419	0.169659	0.499992
C43	C	1.092452	-0.226025	-0.000002
C44	C	1.592452	0.273975	0.499998
C45	C	1.258209	0.121648	-0.000007
C46	C	1.758209	0.621648	0.499993
C47	C	1.360590	0.123644	-0.000014
C48	C	1.860590	0.623644	0.499986
C49	C	1.083159	0.296687	-0.000019
C50	C	1.583159	0.796687	0.499981
C51	C	1.085147	0.399068	-0.000027
C52	C	1.585147	0.899068	0.499973
N53	N	1.071257	0.146422	0.292901
N54	N	1.571257	0.646422	0.792901
N55	N	1.107975	0.109751	-0.292912
N56	N	1.607975	0.609751	0.207088
C57	C	1.181672	0.036077	0.529557
C58	C	1.681672	0.536077	1.029557
C59	C	1.174276	0.043479	0.647899
C60	C	1.674276	0.543479	1.147899
C61	C	1.049064	0.168623	0.647927
C62	C	1.549064	0.668623	1.147927
C63	C	1.056461	0.161221	0.529586
C64	C	1.556461	0.661221	1.029586
C65	C	1.122768	0.094947	0.470405
C66	C	1.622768	0.594947	0.970405
C67	C	1.130168	0.087550	0.352062
C68	C	1.630168	0.587550	0.852062
C69	C	1.004953	0.212689	0.352092
C70	C	1.504953	0.712689	0.852092
C71	C	0.997556	0.220091	0.470433
C72	C	1.497556	0.720091	0.970433
H73	H	1.235668	-0.017880	0.481372
H74	H	1.735668	0.482120	0.981372
H75	H	0.995073	0.222576	0.696127
H76	H	1.495073	0.722576	1.196127
C77	C	1.263929	0.059425	0.218883
C78	C	1.763929	0.559425	0.718883
C79	C	1.203008	0.014677	0.286977
C80	C	1.703008	0.514677	0.786977
H81	H	1.308887	0.014425	0.178703
H82	H	1.808887	0.514425	0.678703
H83	H	1.229905	0.093441	0.166742
H84	H	1.729905	0.593441	0.666742
H85	H	1.294323	0.100745	0.265030
H86	H	1.794323	0.600745	0.765030
H87	H	1.172608	-0.026639	0.240829
H88	H	1.672608	0.473361	0.740829
H89	H	1.237036	-0.019356	0.339124
H90	H	1.737036	0.480644	0.839124
H91	H	0.943568	0.274049	0.518631
H92	H	1.443568	0.774049	1.018631
C93	C	1.298784	-0.080962	0.635979
C94	C	1.798784	0.419038	1.135979
C95	C	1.239026	-0.021231	0.712920
C96	C	1.739026	0.478769	1.212920
H97	H	1.338761	-0.120910	0.676123
H98	H	1.838761	0.379090	1.176123
H99	H	1.263226	-0.117105	0.589836
H100	H	1.763226	0.382895	1.089836
H101	H	1.334904	-0.045377	0.589809
H102	H	1.834904	0.454623	1.089809
H103	H	1.202902	-0.056816	0.759085
H104	H	1.702902	0.443184	1.259085
H105	H	1.274589	0.014915	0.759082
H106	H	1.774589	0.514915	1.259082
H107	H	0.956991	0.260628	0.303916
H108	H	1.456991	0.760628	0.803916
