data_functionalizedCrystal
_audit_creation_method	'MofGen! by Chris Wilmer'
_symmetry_space_group_name_H-M	'P1'
_symmetry_Int_Tables_number	1
_symmetry_cell_setting	triclinic
loop_
_symmetry_equiv_pos_as_xyz
  x,y,z
_cell_length_a	10.723023
_cell_length_b	14.519709
_cell_length_c	9.798715
_cell_angle_alpha	90.004344
_cell_angle_beta	89.995809
_cell_angle_gamma	95.926154
loop_
_atom_site_label
_atom_site_type_symbol
_atom_site_fract_x
_atom_site_fract_y
_atom_site_fract_z
O1	O	-1.655978	0.129344	0.113510
O2	O	-1.155978	0.629344	0.613510
O3	O	-1.292710	0.141726	0.113510
O4	O	-0.792710	0.641726	0.613510
O5	O	-1.483976	0.001346	0.113498
O6	O	-0.983976	0.501346	0.613498
O7	O	-1.464713	0.269724	0.113522
O8	O	-0.964713	0.769724	0.613522
O9	O	-1.483962	0.001345	-0.113484
O10	O	-0.983962	0.501345	0.386516
O11	O	-1.292696	0.141725	-0.113472
O12	O	-0.792696	0.641725	0.386528
O13	O	-1.655964	0.129343	-0.113472
O14	O	-1.155964	0.629343	0.386528
Zn15	Zn	-1.474328	0.135534	-0.149510
Zn16	Zn	-0.974328	0.635534	0.350490
Zn17	Zn	-1.474346	0.135535	0.149548
Zn18	Zn	-0.974346	0.635535	0.649548
O19	O	-1.464698	0.269723	-0.113460
O20	O	-0.964698	0.769723	0.386540
C21	C	-1.246212	0.140825	0.000019
C22	C	-0.746212	0.640825	0.500019
C23	C	-1.107683	0.138129	0.000018
C24	C	-0.607683	0.638129	0.500018
C25	C	-0.902745	0.134141	-0.117563
C26	C	-0.402745	0.634141	0.382437
C27	C	-1.045922	0.136927	-0.117565
C28	C	-0.545922	0.636927	0.382435
C29	C	-1.483071	-0.033019	0.000006
C30	C	-0.983071	0.466981	0.500006
C31	C	-1.480381	-0.135414	0.000006
C32	C	-0.980381	0.364586	0.500006
C33	C	-0.702462	0.130245	0.000019
C34	C	-0.202462	0.630245	0.500019
C35	C	-0.840992	0.132940	0.000020
C36	C	-0.340992	0.632940	0.500020
C37	C	-1.470477	-0.510360	0.000041
C38	C	-0.970477	-0.010360	0.500041
C39	C	-1.473227	-0.406038	0.000031
C40	C	-0.973227	0.093962	0.500031
C41	C	-1.475428	-0.322890	0.000022
C42	C	-0.975428	0.177110	0.500022
C43	C	-1.478179	-0.218562	0.000014
C44	C	-0.978179	0.281438	0.500014
C45	C	-1.465603	0.304088	0.000035
C46	C	-0.965603	0.804088	0.500035
C47	C	-1.468293	0.406483	0.000044
C48	C	-0.968293	0.906483	0.500044
N49	N	-1.474324	0.135533	-0.353610
N50	N	-0.974324	0.635533	0.146390
C51	C	-1.546589	0.189009	-0.421383
C52	C	-1.046589	0.689009	0.078617
C53	C	-1.546609	0.189008	-0.578545
C54	C	-1.046609	0.689008	-0.078545
N55	N	-1.474360	0.135530	0.353648
N56	N	-0.974360	0.635530	0.853648
H57	H	-1.099029	0.137956	-0.218233
H58	H	-0.599029	0.637956	0.281767
H59	H	-1.608471	0.234796	-0.636828
H60	H	-1.108471	0.734796	-0.136828
H61	H	-0.894120	0.133980	0.100686
H62	H	-0.394120	0.633980	0.600686
O63	O	-1.628521	0.249667	-0.344139
O64	O	-1.128521	0.749667	0.155861
H65	H	-1.615637	0.240157	-0.232819
H66	H	-1.115637	0.740157	0.267181
H67	H	-1.412474	0.089746	-0.411940
H68	H	-0.912474	0.589746	0.088060
O69	O	-1.037374	0.136755	0.133388
O70	O	-0.537374	0.636755	0.633388
H71	H	-0.967090	0.198351	0.139250
H72	H	-0.467090	0.698351	0.639250
H73	H	-1.412482	0.089748	-0.588078
H74	H	-0.912482	0.589748	-0.088078
H75	H	-0.849615	0.133112	-0.218229
H76	H	-0.349615	0.633112	0.281771
