data_functionalizedCrystal
_audit_creation_method	'MofGen! by Chris Wilmer'
_symmetry_space_group_name_H-M	'P1'
_symmetry_Int_Tables_number	1
_symmetry_cell_setting	triclinic
loop_
_symmetry_equiv_pos_as_xyz
  x,y,z
_cell_length_a	15.297475
_cell_length_b	12.594516
_cell_length_c	15.296720
_cell_angle_alpha	80.351634
_cell_angle_beta	91.617114
_cell_angle_gamma	99.669951
loop_
_atom_site_label
_atom_site_type_symbol
_atom_site_fract_x
_atom_site_fract_y
_atom_site_fract_z
Zn1	Zn	1.253340	0.828371	-0.726636
Zn2	Zn	1.278591	0.981633	-0.580158
Zn3	Zn	1.132222	0.768577	-0.554874
Zn4	Zn	1.106818	0.971171	-0.701286
O5	O	1.192743	0.887438	-0.640739
O6	O	1.379265	0.878104	-0.728396
O7	O	1.280374	0.932726	-0.454229
O8	O	1.148352	0.627581	-0.577686
O9	O	1.397817	0.990705	-0.620779
O10	O	1.237337	0.671512	-0.703878
O11	O	1.172837	0.776194	-0.435652
O12	O	1.006276	0.766049	-0.553105
O13	O	1.105055	0.972874	-0.827225
O14	O	0.987612	0.914894	-0.660674
O15	O	1.212704	0.867959	-0.845849
O16	O	1.255741	1.129173	-0.596199
O17	O	1.129540	1.121486	-0.685191
C18	C	0.965162	0.832848	-0.601396
C19	C	0.867798	0.809524	-0.584585
C20	C	0.554634	1.054150	-0.760887
C21	C	0.646112	1.076072	-0.776678
C22	C	0.701538	1.009437	-0.728657
C23	C	0.665476	0.920876	-0.664840
C24	C	0.573990	0.898957	-0.649042
C25	C	0.720894	0.854244	-0.616812
C26	C	0.684832	0.765683	-0.552996
C27	C	0.593354	0.743767	-0.537201
C28	C	0.537929	0.810403	-0.585223
C29	C	0.812381	0.876163	-0.632610
C30	C	0.831737	0.720970	-0.520766
C31	C	0.740258	0.699048	-0.504974
C32	C	1.192645	1.163953	-0.640711
C33	C	1.192678	1.282272	-0.640743
C34	C	1.124028	1.347372	-0.689101
C35	C	1.116519	1.399628	-0.605488
C36	C	1.200232	1.440829	-0.724377
C37	C	1.185134	1.332952	-0.557080
C38	C	1.268875	1.374165	-0.676029
C39	C	1.261406	1.426387	-0.592366
C40	C	1.421212	0.942242	-0.680236
C41	C	1.518573	0.965596	-0.697067
C42	C	1.153229	0.925919	-0.869208
C43	C	1.136391	0.942317	-0.966568
C44	C	1.192823	1.609842	-0.640781
C45	C	1.192760	1.491524	-0.640779
C46	C	1.313122	0.770058	-1.279797
C47	C	1.328948	0.754654	-1.188323
C48	C	1.280810	0.801568	-1.132880
C49	C	1.216843	0.863890	-1.168919
C50	C	1.201021	0.879302	-1.260402
C51	C	1.168709	0.910812	-1.113486
C52	C	1.104742	0.973134	-1.149525
C53	C	1.088922	0.988543	-1.240999
C54	C	1.137060	0.941629	-1.296442
C55	C	1.184531	0.895400	-1.022002
C56	C	1.072430	1.004644	-1.002608
C57	C	1.056604	1.020048	-1.094081
C58	C	1.232153	0.849042	-0.413167
C59	C	1.249161	0.832384	-0.315837
H60	H	0.463438	0.792557	-0.572370
H61	H	1.033234	1.042848	-0.957466
H62	H	1.036843	1.039300	-1.270340
H63	H	0.563998	0.671665	-0.485228
C64	C	1.399301	0.686091	-1.148686
N65	N	1.452292	0.634441	-1.118830
H66	H	0.776023	1.027291	-0.741518
C67	C	1.119667	0.958588	-1.397073
N68	N	1.106573	0.971367	-1.472870
C69	C	1.366061	0.718454	-1.340788
N70	N	1.405937	0.679579	-1.386729
C71	C	0.986241	1.088598	-1.133736
N72	N	0.933242	1.140228	-1.163605
C73	C	0.685773	1.173487	-0.846872
N74	N	0.715646	1.246866	-0.899746
C75	C	0.852037	0.973574	-0.702811
N76	N	0.881904	1.046948	-0.755692
C77	C	1.208824	1.504005	-0.819909
N78	N	1.215288	1.551583	-0.891865
C79	C	0.892701	0.647664	-0.467941
N80	N	0.938625	0.592455	-0.428156
C81	C	0.493661	1.127441	-0.813699
N82	N	0.447735	1.182649	-0.853481
H83	H	0.710884	0.626941	-0.453014
C84	C	1.029516	1.415752	-0.565184
N85	N	0.963982	1.427894	-0.534833
H86	H	1.236613	0.844656	-0.992668
H87	H	1.333253	1.362209	-0.705884
C88	C	1.045516	1.300638	-0.744231
N89	N	0.986380	1.265433	-0.785749
H90	H	1.178700	1.286295	-0.486333
H91	H	1.319506	1.460745	-0.551429
C92	C	1.298214	0.784611	-1.032255
N93	N	1.311321	0.771829	-0.956461
