data_functionalizedCrystal
_audit_creation_method	'MofGen! by Chris Wilmer'
_symmetry_space_group_name_H-M	'P1'
_symmetry_Int_Tables_number	1
_symmetry_cell_setting	triclinic
loop_
_symmetry_equiv_pos_as_xyz
  x,y,z
_cell_length_a	17.019383
_cell_length_b	17.038272
_cell_length_c	15.500227
_cell_angle_alpha	86.966746
_cell_angle_beta	83.288908
_cell_angle_gamma	92.753117
loop_
_atom_site_label
_atom_site_type_symbol
_atom_site_fract_x
_atom_site_fract_y
_atom_site_fract_z
O1	O	1.060538	-0.092039	-0.150878
O2	O	0.830914	-0.105591	-0.133790
O3	O	0.944361	0.014994	-0.142226
O4	O	0.947091	-0.212624	-0.142442
O5	O	0.937475	0.007705	0.002175
O6	O	0.824028	-0.112879	0.010611
O7	O	1.053652	-0.099328	-0.006478
Cu8	Cu	0.938211	-0.106769	0.015252
Cu9	Cu	0.946355	-0.098149	-0.155519
O10	O	0.940205	-0.219913	0.001958
C11	C	0.797945	-0.108863	-0.059392
C12	C	0.709967	-0.107744	-0.052845
C13	C	0.672381	-0.103248	-0.128475
C14	C	0.589714	-0.102210	-0.122310
C15	C	0.544636	-0.105663	-0.040514
C16	C	0.582228	-0.110162	0.035122
C17	C	0.664892	-0.111206	0.028956
C18	C	0.294855	-0.102717	-0.017960
C19	C	0.212185	-0.101671	-0.011800
C20	C	0.219678	-0.093720	-0.169233
C21	C	0.302344	-0.094759	-0.175391
C22	C	0.339928	-0.099262	-0.099755
C23	C	0.460138	-0.104600	-0.034211
C24	C	0.424424	-0.100331	-0.106059
C25	C	1.086621	-0.096056	-0.080877
C26	C	1.174599	-0.097174	-0.087430
C27	C	0.938435	0.040466	-0.069841
C28	C	0.931029	0.127226	-0.069290
C29	C	0.946130	-0.245385	-0.070429
C30	C	0.953537	-0.332144	-0.070985
N31	N	0.932489	-0.112832	0.135362
C32	C	0.999029	0.177650	-0.074349
C33	C	0.992066	0.259169	-0.073839
C34	C	0.917101	0.290262	-0.068263
C35	C	0.849095	0.239832	-0.063206
C36	C	0.856060	0.158314	-0.063722
C37	C	0.892496	0.535908	-0.066444
C38	C	0.885537	0.617432	-0.065926
C39	C	1.028508	0.636764	-0.076561
C40	C	1.035466	0.555244	-0.077071
C41	C	0.967461	0.504821	-0.072018
C42	C	0.909981	0.373587	-0.067739
C43	C	0.974581	0.421497	-0.072549
N44	N	0.952083	-0.092081	-0.275630
C45	C	0.980580	-0.061754	0.177063
C46	C	0.976260	-0.066346	0.267957
C47	C	0.923853	-0.122020	0.317148
C48	C	0.875757	-0.173099	0.275442
C49	C	0.880073	-0.168503	0.184550
C50	C	0.908303	-0.138564	0.591771
C51	C	0.903992	-0.143158	0.682670
C52	C	1.004494	-0.036404	0.675178
C53	C	1.008809	-0.031816	0.584285
C54	C	0.960710	-0.082892	0.542586
C55	C	0.919438	-0.126716	0.410057
C56	C	0.965122	-0.078191	0.449680
H57	H	0.189068	-0.090055	-0.230811
F58	F	0.164212	-0.105333	0.075262
H59	H	0.325446	-0.106378	0.043628
H60	H	0.869140	-0.180154	0.557828
F61	F	0.819977	-0.232348	0.327796
H62	H	0.545518	-0.112978	0.101722
F63	F	1.115255	0.522160	-0.083028
H64	H	0.837121	0.494863	-0.062329
H65	H	0.788057	0.265154	-0.058671
H66	H	1.051483	0.013518	0.544234
H67	H	0.861314	-0.188497	0.722718
H68	H	0.695493	-0.114870	0.090543
F69	F	0.783684	0.104649	-0.058340
H70	H	1.035618	0.396179	-0.077108
F71	F	1.055679	0.017954	0.719563
F72	F	0.805745	0.650521	-0.059986
F73	F	0.830200	0.406687	-0.061809
H74	H	0.461130	-0.097524	-0.172657
F75	F	1.036363	-0.002502	0.124717
F76	F	0.828886	-0.222865	0.140170
F77	F	0.350314	-0.091080	-0.262450
H78	H	0.423426	-0.107409	0.032388
H79	H	1.015418	-0.024755	0.301909
F80	F	0.549716	-0.097425	-0.202807
F81	F	1.064442	0.312831	-0.079223
H82	H	1.007789	-0.032859	0.409626
F83	F	1.078817	0.144566	-0.080276
H84	H	1.083874	0.677827	-0.080676
F85	F	0.863664	-0.185969	0.462415
H86	H	0.709078	-0.100434	-0.195082
