data_functionalizedCrystal
_audit_creation_method	'MofGen! by Chris Wilmer'
_symmetry_space_group_name_H-M	'P1'
_symmetry_Int_Tables_number	1
_symmetry_cell_setting	triclinic
loop_
_symmetry_equiv_pos_as_xyz
  x,y,z
_cell_length_a	16.109318
_cell_length_b	17.038272
_cell_length_c	15.500369
_cell_angle_alpha	93.041946
_cell_angle_beta	87.169167
_cell_angle_gamma	87.290060
loop_
_atom_site_label
_atom_site_type_symbol
_atom_site_fract_x
_atom_site_fract_y
_atom_site_fract_z
O1	O	1.106667	0.104186	0.071872
O2	O	1.606667	0.604186	0.571872
O3	O	0.865493	0.116679	0.071889
O4	O	1.365493	0.616679	0.571889
O5	O	0.984647	-0.003383	0.071874
O6	O	1.484647	0.496617	0.571874
O7	O	0.987513	0.224248	0.071887
O8	O	1.487513	0.724248	0.571887
O9	O	0.991838	-0.010644	-0.072013
O10	O	1.491838	0.489356	0.427987
O11	O	0.872684	0.109418	-0.071997
O12	O	1.372684	0.609418	0.428003
O13	O	1.113858	0.096925	-0.072015
O14	O	1.613858	0.596925	0.427985
Cu15	Cu	0.993928	0.102509	-0.085144
Cu16	Cu	1.493928	0.602509	0.414856
Cu17	Cu	0.985423	0.111095	0.085018
Cu18	Cu	1.485423	0.611095	0.585018
O19	O	0.994704	0.216987	-0.071999
O20	O	1.494704	0.716987	0.428001
C21	C	0.838078	0.112540	-0.000052
C22	C	1.338078	0.612540	0.499948
C23	C	0.745675	0.111016	-0.000045
C24	C	1.245675	0.611016	0.499955
C25	C	0.985635	-0.036142	-0.000069
C26	C	1.485635	0.463858	0.499931
C27	C	0.977856	-0.122935	-0.000068
C28	C	1.477856	0.377065	0.499932
C29	C	0.442332	0.110051	0.078372
C30	C	0.942332	0.610051	0.578372
C31	C	0.529155	0.111478	0.078377
C32	C	1.029155	0.611478	0.578377
C33	C	0.537013	0.103551	-0.078496
C34	C	1.037013	0.603551	0.421504
C35	C	0.450193	0.102118	-0.078500
C36	C	0.950193	0.602118	0.421500
C37	C	0.402854	0.105372	-0.000064
C38	C	0.902854	0.605372	0.499936
C39	C	0.576497	0.108232	-0.000054
C40	C	1.076497	0.608232	0.499946
C41	C	0.670633	0.109780	-0.000049
C42	C	1.170633	0.609780	0.499951
C43	C	0.308711	0.103823	-0.000069
C44	C	0.808711	0.603823	0.499931
C45	C	1.049277	-0.173046	-0.000075
C46	C	1.549277	0.326954	0.499925
C47	C	1.041962	-0.254597	-0.000066
C48	C	1.541962	0.245403	0.499934
C49	C	0.963227	-0.286035	-0.000057
C50	C	1.463227	0.213965	0.499943
C51	C	0.891800	-0.235918	-0.000048
C52	C	1.391800	0.264082	0.499952
C53	C	0.899115	-0.154368	-0.000051
C54	C	1.399115	0.345632	0.499949
C55	C	0.937384	-0.531794	-0.000043
C56	C	1.437384	-0.031794	0.499957
C57	C	0.930074	-0.613349	-0.000043
C58	C	1.430074	-0.113349	0.499957
C59	C	1.080237	-0.632023	-0.000059
C60	C	1.580237	-0.132023	0.499941
C61	C	1.087545	-0.550471	-0.000067
C62	C	1.587545	-0.050471	0.499933
C63	C	1.016119	-0.500361	-0.000054
C64	C	1.516119	-0.000361	0.499946
C65	C	0.955748	-0.369393	-0.000051
C66	C	1.455748	0.130607	0.499949
C67	C	1.023597	-0.417005	-0.000054
C68	C	1.523597	0.082995	0.499946
C69	C	1.141273	0.101064	-0.000072
C70	C	1.641273	0.601064	0.499928
C71	C	1.233676	0.102588	-0.000073
C72	C	1.733676	0.602588	0.499927
C73	C	0.993716	0.249746	-0.000054
C74	C	1.493716	0.749746	0.499946
C75	C	1.001495	0.336540	-0.000050
C76	C	1.501495	0.836540	0.499950
N77	N	0.999916	0.096469	-0.204827
N78	N	1.499916	0.596469	0.295173
C79	C	1.029942	0.066274	-0.750006
C80	C	1.529942	0.566274	-0.250006
C81	C	1.025396	0.070852	-0.659435
C82	C	1.525396	0.570852	-0.159435
C83	C	0.970343	0.126281	-0.614157
C84	C	1.470343	0.626281	-0.114157
C85	C	0.919841	0.177141	-0.659456
C86	C	1.419841	0.677141	-0.159456
C87	C	0.924392	0.172567	-0.750026
C88	C	1.424392	0.672567	-0.250026
C89	C	0.953964	0.142754	-0.340696
C90	C	1.453964	0.642754	0.159304
C91	C	0.949415	0.147323	-0.250120
C92	C	1.449415	0.647323	0.249880
C93	C	1.054972	0.041035	-0.250104
C94	C	1.554972	0.541035	0.249896
C95	C	1.059515	0.036462	-0.340676
C96	C	1.559515	0.536462	0.159324
C97	C	1.009015	0.087325	-0.385967
C98	C	1.509015	0.587325	0.114033
C99	C	0.965693	0.130960	-0.521579
C100	C	1.465693	0.630960	-0.021579
C101	C	1.013670	0.082650	-0.478543
C102	C	1.513670	0.582650	0.021457
N103	N	0.979442	0.117129	0.204701
N104	N	1.479442	0.617129	0.704701
H105	H	0.403792	0.112699	0.142240
H106	H	0.903792	0.612699	0.642240
C107	C	0.406764	0.096978	-0.164790
C108	C	0.906764	0.596978	0.335210
N109	N	0.374053	0.093107	-0.229781
N110	N	0.874053	0.593107	0.270219
H111	H	0.920867	0.176090	-0.484707
H112	H	1.420867	0.676090	0.015293
C113	C	1.080947	0.014904	-0.609617
C114	C	1.580947	0.514904	-0.109617
N115	N	1.122790	-0.027240	-0.572095
N116	N	1.622790	0.472760	-0.072095
C117	C	0.859282	0.238113	-0.609648
C118	C	1.359282	0.738113	-0.109648
N119	N	0.813665	0.284037	-0.572133
N120	N	1.313665	0.784037	-0.072133
H121	H	0.883270	0.213979	-0.786902
H122	H	1.383270	0.713979	-0.286902
H123	H	0.827692	-0.261521	-0.000036
H124	H	1.327692	0.238479	0.499964
C125	C	0.572576	0.116622	0.164663
C126	C	1.072576	0.616622	0.664663
N127	N	0.605281	0.120495	0.229657
N128	N	1.105281	0.620495	0.729657
C129	C	1.110513	-0.014914	-0.200277
C130	C	1.610513	0.485086	0.299723
N131	N	1.152349	-0.057057	-0.162746
N132	N	1.652349	0.442943	0.337254
H133	H	0.904581	0.192463	-0.213259
H134	H	1.404581	0.692463	0.286741
H135	H	1.113392	-0.147456	-0.000087
H136	H	1.613392	0.352544	0.499913
H137	H	1.100121	-0.295394	-0.000073
H138	H	1.600121	0.204606	0.499927
C139	C	0.589090	0.100014	-0.164771
C140	C	1.089090	0.600014	0.335229
N141	N	0.628313	0.097365	-0.229755
N142	N	1.128313	0.597365	0.270245
C143	C	1.174160	-0.515896	-0.000077
C144	C	1.674160	-0.015896	0.499923
N145	N	1.239401	-0.489855	-0.000089
N146	N	1.739401	0.010145	0.499911
C147	C	0.820547	-0.099246	-0.000046
C148	C	1.320547	0.400754	0.499954
N149	N	0.761366	-0.057729	-0.000041
N150	N	1.261366	0.442271	0.499959
C151	C	1.158800	-0.687150	-0.000066
C152	C	1.658800	-0.187150	0.499934
N153	N	1.217976	-0.728672	-0.000067
N154	N	1.717976	-0.228672	0.499933
C155	C	0.843455	-0.647928	-0.000027
C156	C	1.343455	-0.147928	0.499973
N157	N	0.778216	-0.673974	-0.000015
N158	N	1.278216	-0.173974	0.499985
H159	H	1.058497	0.037522	-0.515411
H160	H	1.558497	0.537522	-0.015411
C161	C	0.858811	-0.476682	-0.000024
C162	C	1.358811	0.023318	0.499976
N163	N	0.799626	-0.435169	-0.000007
N164	N	1.299626	0.064831	0.499993
H165	H	1.104342	-0.008672	-0.377538
H166	H	1.604342	0.491328	0.122462
C167	C	1.110205	-0.382420	-0.000068
C168	C	1.610205	0.117580	0.499932
N169	N	1.175438	-0.356364	-0.000084
N170	N	1.675438	0.143636	0.499916
C171	C	0.898404	0.198698	-0.390504
C172	C	1.398404	0.698698	0.109496
N173	N	0.856551	0.240836	-0.428023
N174	N	1.356551	0.740836	0.071977
C175	C	1.090502	0.005296	-0.799803
C176	C	1.590502	0.505296	-0.299803
N177	N	1.136120	-0.040634	-0.837307
N178	N	1.636120	0.459366	-0.337307
H179	H	0.891641	-0.394999	-0.000046
H180	H	1.391641	0.105001	0.499954
