data_functionalizedCrystal
_audit_creation_method	'MofGen! by Chris Wilmer'
_symmetry_space_group_name_H-M	'P1'
_symmetry_Int_Tables_number	1
_symmetry_cell_setting	triclinic
loop_
_symmetry_equiv_pos_as_xyz
  x,y,z
_cell_length_a	19.188930
_cell_length_b	14.421503
_cell_length_c	15.944551
_cell_angle_alpha	90.003340
_cell_angle_beta	83.321759
_cell_angle_gamma	89.978519
loop_
_atom_site_label
_atom_site_type_symbol
_atom_site_fract_x
_atom_site_fract_y
_atom_site_fract_z
O1	O	0.926420	-0.077412	0.104854
O2	O	0.723145	-0.077348	0.118971
O3	O	0.830334	-0.077374	-0.010383
O4	O	0.819232	-0.077387	0.234208
O5	O	0.830316	0.076850	-0.010364
O6	O	0.723128	0.076875	0.118990
O7	O	0.926402	0.076812	0.104874
Cu8	Cu	0.824763	0.090925	0.111934
Cu9	Cu	0.824784	-0.091462	0.111911
O10	O	0.819214	0.076837	0.234228
C11	C	0.697124	-0.000229	0.118524
C12	C	0.619616	-0.000204	0.117151
N13	N	0.824754	0.219206	0.111949
N14	N	0.824800	-0.219743	0.111889
C15	C	0.574889	-0.000223	0.193052
C16	C	0.502061	-0.000233	0.191763
C17	C	0.473965	-0.000243	0.114568
C18	C	0.518703	-0.000219	0.038658
C19	C	0.591528	-0.000200	0.039949
N20	N	0.365839	-0.052766	0.055556
N21	N	0.296657	-0.052787	0.054335
C22	C	0.254547	-0.000300	0.110673
N23	N	0.284230	0.052197	0.168291
N24	N	0.353418	0.052213	0.169515
C25	C	0.394999	-0.000263	0.113160
C26	C	0.130851	-0.000328	0.185181
C27	C	0.058023	-0.000332	0.183888
C28	C	0.074666	-0.000328	0.030781
C29	C	0.147492	-0.000314	0.032076
C30	C	0.175580	-0.000319	0.109278
C31	C	0.952423	-0.000310	0.105321
C32	C	1.029932	-0.000341	0.106693
C33	C	0.829864	-0.000261	-0.041666
C34	C	0.828482	-0.000261	-0.134906
C35	C	0.775181	0.468872	0.171736
C36	C	0.838271	0.530653	0.187807
C37	C	0.824771	0.408368	0.111929
C38	C	0.761697	0.530680	0.095877
C39	C	0.824781	0.591089	0.111912
C40	C	0.887892	0.468789	0.128038
C41	C	0.811277	0.468810	0.036076
C42	C	0.874413	0.530564	0.052114
C43	C	0.824764	0.303107	0.111941
C44	C	0.824796	0.696348	0.111899
C45	C	0.758739	-0.000252	-0.349502
C46	C	0.791117	0.075780	-0.410631
C47	C	0.825983	-0.000267	-0.305623
C48	C	0.791150	-0.076272	-0.410634
C49	C	0.823563	-0.000277	-0.470527
C50	C	0.858379	0.075827	-0.365524
C51	C	0.858403	-0.076293	-0.365520
C52	C	0.890829	-0.000243	-0.426631
C53	C	0.827374	-0.000260	-0.210626
C54	C	0.822176	-0.000277	-0.565522
C55	C	0.819684	-0.000277	0.265510
C56	C	0.821066	-0.000284	0.358751
H57	H	0.597753	-0.000228	0.255916
F58	F	0.454450	-0.000250	0.272550
F59	F	0.853203	0.566160	0.271641
H60	H	0.799834	0.441624	-0.028044
H61	H	0.708353	0.557868	0.082309
F62	F	0.957634	0.433408	0.145871
F63	F	0.720424	0.433461	0.237893
F64	F	0.929290	0.565753	-0.014006
F65	F	0.963846	-0.000213	-0.470247
F66	F	0.160747	-0.000326	0.267345
H67	H	0.495822	-0.000240	-0.024194
F68	F	0.639133	-0.000180	-0.040838
H69	H	0.886827	-0.140592	-0.345504
F70	F	0.685785	-0.000134	-0.305695
F71	F	0.753934	0.159820	-0.436765
F72	F	0.753970	-0.160282	-0.436765
F73	F	0.010419	-0.000347	0.264677
F74	F	0.044769	-0.000329	-0.051375
F75	F	0.195097	-0.000299	-0.048709
F76	F	0.895515	0.159935	-0.339527
