data_functionalizedCrystal
_audit_creation_method	'MofGen! by Chris Wilmer'
_symmetry_space_group_name_H-M	'P1'
_symmetry_Int_Tables_number	1
_symmetry_cell_setting	triclinic
loop_
_symmetry_equiv_pos_as_xyz
  x,y,z
_cell_length_a	17.699077
_cell_length_b	13.262508
_cell_length_c	16.776229
_cell_angle_alpha	105.911687
_cell_angle_beta	89.993415
_cell_angle_gamma	83.880229
loop_
_atom_site_label
_atom_site_type_symbol
_atom_site_fract_x
_atom_site_fract_y
_atom_site_fract_z
O1	O	1.004672	0.132697	-0.037506
O2	O	1.504672	0.632697	0.462494
O3	O	0.784370	0.149971	-0.033764
O4	O	1.284370	0.649971	0.466236
O5	O	0.900067	-0.011467	-0.068761
O6	O	1.400067	0.488533	0.431239
O7	O	0.888976	0.294135	-0.002510
O8	O	1.388976	0.794135	0.497490
O9	O	0.900052	-0.011477	0.063814
O10	O	1.400052	0.488523	0.563814
O11	O	0.784355	0.149961	0.098810
O12	O	1.284355	0.649961	0.598810
O13	O	1.004657	0.132687	0.095068
O14	O	1.504657	0.632687	0.595068
Zn15	Zn	0.894503	0.141322	0.117988
Zn16	Zn	1.394503	0.641322	0.617988
Zn17	Zn	0.894524	0.141335	-0.056684
Zn18	Zn	1.394524	0.641335	0.443316
O19	O	0.888960	0.294125	0.130064
O20	O	1.388960	0.794125	0.630064
C21	C	0.756163	0.149348	0.032388
C22	C	1.256163	0.649348	0.532388
C23	C	0.672136	0.147494	0.031985
C24	C	1.172136	0.647494	0.531985
C25	C	0.632657	0.146616	0.104063
C26	C	1.132657	0.646616	0.604063
C27	C	0.553706	0.144857	0.103682
C28	C	1.053706	0.644857	0.603682
C29	C	0.514236	0.143985	0.031225
C30	C	1.014236	0.643985	0.531225
C31	C	0.553722	0.144861	-0.040859
C32	C	1.053722	0.644861	0.459141
C33	C	0.632671	0.146612	-0.040479
C34	C	1.132671	0.646612	0.459521
C35	C	0.235327	0.137798	-0.042392
C36	C	0.735327	0.637798	0.457608
C37	C	0.156372	0.136050	-0.042765
C38	C	0.656372	0.636050	0.457235
C39	C	0.156362	0.136043	0.101770
C40	C	0.656362	0.636043	0.601770
C41	C	0.235311	0.137794	0.102150
C42	C	0.735311	0.637794	0.602150
C43	C	0.274791	0.138664	0.030065
C44	C	0.774791	0.638664	0.530065
C45	C	0.360398	0.140569	0.030478
C46	C	0.860398	0.640569	0.530478
C47	C	0.428630	0.142088	0.030813
C48	C	0.928630	0.642088	0.530813
C49	C	0.899439	-0.050573	-0.010952
C50	C	1.399439	0.449427	0.489048
C51	C	0.897581	-0.167082	-0.036215
C52	C	1.397581	0.332918	0.463785
C53	C	0.892308	-0.495536	0.181648
C54	C	1.392308	0.004464	0.681648
C55	C	0.894047	-0.386069	0.205385
C56	C	1.394047	0.113931	0.705385
C57	C	0.894931	-0.331317	0.144987
C58	C	1.394931	0.168683	0.644987
C59	C	0.894075	-0.386042	0.060848
C60	C	1.394075	0.113958	0.560848
C61	C	0.892329	-0.495519	0.037110
C62	C	1.392329	0.004481	0.537110
C63	C	0.894953	-0.331300	0.000448
C64	C	1.394953	0.168700	0.500448
C65	C	0.894096	-0.386026	-0.083690
C66	C	1.394096	0.113974	0.416310
C67	C	0.892352	-0.495491	-0.107425
C68	C	1.392352	0.004509	0.392575
C69	C	0.891468	-0.550243	-0.047027
C70	C	1.391468	-0.050243	0.452973
C71	C	0.896698	-0.221823	0.024187
C72	C	1.396698	0.278177	0.524187
C73	C	0.896720	-0.221807	-0.120351
C74	C	1.396720	0.278193	0.379649
C75	C	0.894980	-0.331273	-0.144088
C76	C	1.394980	0.168727	0.355912
C77	C	1.032865	0.133309	0.028914
C78	C	1.532865	0.633309	0.528914
C79	C	1.116891	0.135163	0.029312
C80	C	1.616891	0.635163	0.529312
C81	C	0.889588	0.333231	0.072254
C82	C	1.389588	0.833231	0.572254
C83	C	0.891446	0.449740	0.097511
C84	C	1.391446	0.949740	0.597511
N85	N	0.894495	0.141313	0.237197
N86	N	1.394495	0.641313	0.737197
N87	N	0.894538	0.141337	-0.175895
N88	N	1.394538	0.641337	0.324105
C89	C	0.945741	0.069857	0.263424
C90	C	1.445741	0.569857	0.763424
C91	C	0.945746	0.069856	0.346876
C92	C	1.445746	0.569856	0.846876
C93	C	0.894507	0.141317	0.404101
C94	C	1.394507	0.641317	0.904101
C95	C	0.843255	0.212776	0.377869
C96	C	1.343255	0.712776	0.877869
C97	C	0.843248	0.212771	0.294417
C98	C	1.343248	0.712771	0.794417
C99	C	0.843282	0.212796	0.714420
C100	C	1.343282	0.712796	1.214420
C101	C	0.843295	0.212798	0.797877
C102	C	1.343295	0.712798	1.297877
C103	C	0.945780	0.069882	0.766880
C104	C	1.445780	0.569882	1.266880
C105	C	0.945773	0.069877	0.683428
C106	C	1.445773	0.569877	1.183428
C107	C	0.894519	0.141332	0.657202
C108	C	1.394519	0.641332	1.157202
C109	C	0.894514	0.141330	0.566714
C110	C	1.394514	0.641330	1.066714
C111	C	0.894515	0.141324	0.494589
C112	C	1.394515	0.641324	0.994589
H113	H	0.664786	0.147334	0.163068
H114	H	1.164786	0.647334	0.663068
F115	F	0.511691	0.143936	0.180401
F116	F	1.011691	0.643936	0.680401
F117	F	0.114339	0.135112	0.178489
F118	F	0.614339	0.635112	0.678489
F119	F	0.277313	0.138728	0.179270
F120	F	0.777313	0.638728	0.679270
H121	H	0.124237	0.135339	-0.101772
H122	H	0.624237	0.635339	0.398228
H123	H	0.987499	0.011691	0.636838
H124	H	1.487499	0.511691	1.136838
H125	H	0.267462	0.138503	-0.101088
H126	H	0.767462	0.638503	0.398912
F127	F	0.511716	0.143900	-0.117981
F128	F	1.011716	0.643900	0.382019
H129	H	0.890055	-0.639381	-0.066350
H130	H	1.390055	-0.139381	0.433650
F131	F	0.674689	0.147543	-0.117195
F132	F	1.174689	0.647543	0.382805
F133	F	0.788737	0.288845	0.686516
F134	F	1.288737	0.788845	1.186516
H135	H	0.891648	-0.540045	-0.175936
H136	H	1.391648	-0.040045	0.324064
F137	F	0.897610	-0.163593	0.113731
F138	F	1.397610	0.336407	0.613731
F139	F	0.891354	-0.553810	0.245918
F140	F	1.391354	-0.053810	0.745918
F141	F	0.896780	-0.214811	0.170252
F142	F	1.396780	0.285189	0.670252
F143	F	0.897648	-0.163539	-0.184635
F144	F	1.397648	0.336461	0.315365
H145	H	0.894752	-0.341520	0.273890
H146	H	1.394752	0.158480	0.773890
F147	F	1.000282	-0.006198	0.202529
F148	F	1.500282	0.493802	0.702529
H149	H	0.894283	-0.375846	-0.212595
H150	H	1.394283	0.124154	0.287405
H151	H	0.987474	0.011671	0.368229
H152	H	1.487474	0.511671	0.868229
F153	F	1.000328	-0.006171	0.794796
F154	F	1.500328	0.493829	1.294796
H155	H	0.801567	0.270992	0.844471
H156	H	1.301567	0.770992	1.344471
H157	H	0.801531	0.270957	0.424465
H158	H	1.301531	0.770957	0.924465
F159	F	0.788702	0.288821	0.266506
F160	F	1.288702	0.788821	0.766506
