data_functionalizedCrystal
_audit_creation_method	'MofGen! by Chris Wilmer'
_symmetry_space_group_name_H-M	'P1'
_symmetry_Int_Tables_number	1
_symmetry_cell_setting	triclinic
loop_
_symmetry_equiv_pos_as_xyz
  x,y,z
_cell_length_a	19.805407
_cell_length_b	19.077432
_cell_length_c	19.805399
_cell_angle_alpha	92.324821
_cell_angle_beta	90.017803
_cell_angle_gamma	87.724333
loop_
_atom_site_label
_atom_site_type_symbol
_atom_site_fract_x
_atom_site_fract_y
_atom_site_fract_z
Zn1	Zn	1.045563	-0.280264	0.371870
Zn2	Zn	1.545563	0.219736	0.871870
Zn3	Zn	1.050025	-0.397961	0.254139
Zn4	Zn	1.550025	0.102039	0.754139
Zn5	Zn	0.932379	-0.280278	0.258697
Zn6	Zn	1.432379	0.219722	0.758697
Zn7	Zn	0.936887	-0.397918	0.367291
Zn8	Zn	1.436887	0.102082	0.867291
O9	O	0.991214	-0.339105	0.312999
O10	O	1.491214	0.160895	0.812999
O11	O	1.140872	-0.295889	0.356261
O12	O	1.640872	0.204111	0.856261
O13	O	1.034400	-0.382374	0.160026
O14	O	1.534400	0.117626	0.660026
O15	O	0.943639	-0.181786	0.277534
O16	O	1.443639	0.318214	0.777534
O17	O	1.144151	-0.382360	0.269765
O18	O	1.644151	0.117640	0.769765
O19	O	1.026795	-0.181776	0.360682
O20	O	1.526795	0.318224	0.860682
O21	O	0.947965	-0.295913	0.163375
O22	O	1.447965	0.204087	0.663375
O23	O	0.838260	-0.295871	0.273094
O24	O	1.338260	0.204129	0.773094
O25	O	0.951323	-0.382287	0.462616
O26	O	1.451323	0.117713	0.962616
O27	O	0.841572	-0.382301	0.352877
O28	O	1.341572	0.117699	0.852877
O29	O	1.031167	-0.295847	0.465980
O30	O	1.531167	0.204153	0.965980
O31	O	1.038771	-0.496445	0.265324
O32	O	1.538771	0.003555	0.765324
O33	O	0.955649	-0.496413	0.348456
O34	O	1.455649	0.003587	0.848456
C35	C	0.815357	-0.339083	0.312983
C36	C	1.315357	0.160917	0.812983
C37	C	0.740125	-0.339091	0.312992
C38	C	1.240125	0.160909	0.812992
C39	C	0.703078	-0.294145	0.358094
C40	C	1.203078	0.205855	0.858094
C41	C	0.632389	-0.294148	0.358096
C42	C	1.132389	0.205852	0.858096
C43	C	0.598750	-0.339102	0.313000
C44	C	1.098750	0.160898	0.813000
C45	C	0.635802	-0.384050	0.267894
C46	C	1.135802	0.115950	0.767894
C47	C	0.706489	-0.384043	0.267888
C48	C	1.206489	0.115957	0.767888
C49	C	0.350730	-0.384082	0.267913
C50	C	0.850730	0.115918	0.767913
C51	C	0.280038	-0.384088	0.267923
C52	C	0.780038	0.115912	0.767923
C53	C	0.276630	-0.294188	0.358121
C54	C	0.776630	0.205812	0.858121
C55	C	0.347317	-0.294180	0.358116
C56	C	0.847317	0.205820	0.858116
C57	C	0.384363	-0.339125	0.313007
C58	C	0.884363	0.160875	0.813007
C59	C	0.461012	-0.339120	0.313004
C60	C	0.961012	0.160880	0.813004
C61	C	0.522103	-0.339112	0.313006
C62	C	1.022103	0.160888	0.813006
C63	C	0.998202	-0.521966	0.305913
C64	C	1.498202	-0.021966	0.805913
C65	C	1.001254	-0.600195	0.302905
C66	C	1.501254	-0.100195	0.802905
C67	C	0.959381	-0.636957	0.344738
C68	C	1.459381	-0.136957	0.844738
C69	C	0.962251	-0.710461	0.341908
C70	C	1.462251	-0.210461	0.841908
C71	C	1.006998	-0.747202	0.297248
C72	C	1.506998	-0.247202	0.797248
C73	C	1.048873	-0.710436	0.255410
C74	C	1.548873	-0.210436	0.755410
C75	C	1.045999	-0.636933	0.258237
C76	C	1.545999	-0.136933	0.758237
C77	C	1.020235	-0.967032	0.284154
C78	C	1.520235	-0.467032	0.784154
C79	C	1.023108	-1.040540	0.281332
C80	C	1.523108	-0.540540	0.781332
C81	C	0.936484	-1.040560	0.367829
C82	C	1.436484	-0.540560	0.867829
C83	C	0.933617	-0.967055	0.370655
C84	C	1.433617	-0.467055	0.870655
C85	C	0.975489	-0.930295	0.328814
C86	C	1.475489	-0.430295	0.828814
N87	N	1.009935	-0.822336	0.294356
N88	N	1.509935	-0.322336	0.794356
N89	N	0.972549	-0.855163	0.331703
N90	N	1.472549	-0.355163	0.831703
C91	C	1.167757	-0.339128	0.313015
C92	C	1.667757	0.160872	0.813015
C93	C	1.242990	-0.339138	0.313022
C94	C	1.742990	0.160862	0.813022
C95	C	0.991250	-0.339061	0.489544
C96	C	1.491250	0.160939	0.989544
C97	C	0.991265	-0.339042	0.564776
C98	C	1.491265	0.160958	1.064776
C99	C	0.984216	-0.155530	0.320127
C100	C	1.484216	0.344470	0.820127
C101	C	0.981234	-0.077301	0.323165
C102	C	1.481234	0.422699	0.823165
C103	C	0.991214	-0.339099	0.137143
C104	C	1.491214	0.160901	0.637143
C105	C	0.991323	-0.338919	0.061919
C106	C	1.491323	0.161081	0.561919
C107	C	1.032841	-0.294030	0.601874
C108	C	1.532841	0.205970	1.101874
C109	C	1.032847	-0.294010	0.672563
C110	C	1.532847	0.205990	1.172563
C111	C	0.991281	-0.339005	0.706153
C112	C	1.491281	0.160995	1.206153
C113	C	0.949700	-0.384019	0.669051
C114	C	1.449700	0.115981	1.169051
C115	C	0.949691	-0.384035	0.598363
C116	C	1.449691	0.115965	1.098363
C117	C	0.949736	-0.383953	0.954127
C118	C	1.449736	0.116047	1.454127
C119	C	0.949750	-0.383935	1.024820
C120	C	1.449750	0.116065	1.524820
C121	C	1.032892	-0.293928	1.028327
C122	C	1.532892	0.206072	1.528327
C123	C	1.032883	-0.293944	0.957639
C124	C	1.532883	0.206056	1.457639
C125	C	0.991300	-0.338955	0.920543
C126	C	1.491300	0.161045	1.420543
C127	C	0.991293	-0.338976	0.843894
C128	C	1.491293	0.161024	1.343894
C129	C	0.991291	-0.338989	0.782801
C130	C	1.491291	0.161011	1.282801
H131	H	0.608407	-0.420649	0.231172
H132	H	1.108407	0.079351	0.731172
H133	H	1.066704	-0.257359	0.702764
H134	H	1.566704	0.242641	1.202764
H135	H	0.246459	-0.257589	0.394848
H136	H	0.746459	0.242411	0.894848
O137	O	0.921510	-0.746205	0.382451
O138	O	1.421510	-0.246205	0.882451
C139	C	0.833402	-0.829306	0.388290
C140	C	1.333402	-0.329306	0.888290
C141	C	0.879490	-0.788857	0.342296
C142	C	1.379490	-0.288857	0.842296
H143	H	0.799427	-0.863812	0.355844
H144	H	1.299427	-0.363812	0.855844
H145	H	0.800881	-0.790455	0.420688
H146	H	1.300881	-0.290455	0.920688
H147	H	0.865818	-0.863635	0.422398
H148	H	1.365818	-0.363635	0.922398
H149	H	0.847125	-0.754527	0.308147
H150	H	1.347125	-0.254527	0.808147
H151	H	0.912015	-0.827746	0.309944
H152	H	1.412015	-0.327746	0.809944
O153	O	1.086608	-0.601112	0.217628
O154	O	1.586608	-0.101112	0.717628
C155	C	1.120598	-0.487866	0.183675
C156	C	1.620598	0.012134	0.683675
C157	C	1.074561	-0.528344	0.229696
C158	C	1.574561	-0.028344	0.729696
H159	H	1.110884	-0.429026	0.193426
H160	H	1.610884	0.070974	0.693426
H161	H	1.109307	-0.502313	0.128517
H162	H	1.609307	-0.002313	0.628517
H163	H	1.175726	-0.502300	0.195047
H164	H	1.675726	-0.002300	0.695047
H165	H	1.019418	-0.513932	0.218384
H166	H	1.519418	-0.013932	0.718384
H167	H	1.085909	-0.513893	0.284840
H168	H	1.585909	-0.013893	0.784840
O169	O	0.742454	-0.427806	0.224148
O170	O	1.242454	0.072194	0.724148
C171	C	0.768629	-0.547476	0.186438
C172	C	1.268629	-0.047476	0.686438
C173	C	0.727873	-0.497996	0.236026
C174	C	1.227873	0.002004	0.736026
H175	H	0.756845	-0.604234	0.196015
H176	H	1.256845	-0.104234	0.696015
H177	H	0.824939	-0.539809	0.194179
H178	H	1.324939	-0.039809	0.694179
H179	H	0.754240	-0.535008	0.132368
H180	H	1.254240	-0.035008	0.632368
H181	H	0.742205	-0.510434	0.290115
H182	H	1.242205	-0.010434	0.790115
H183	H	0.671574	-0.505672	0.228225
H184	H	1.171574	-0.005672	0.728225
H185	H	1.054331	-0.937108	0.250087
H186	H	1.554331	-0.437108	0.750087
O187	O	0.890080	-0.931475	0.414046
O188	O	1.390080	-0.431475	0.914046
C189	C	0.804477	-0.939254	0.499553
C190	C	1.304477	-0.439254	0.999553
C191	C	0.853741	-0.979636	0.450434
C192	C	1.353741	-0.479636	0.950434
H193	H	0.775094	-0.978174	0.528996
H194	H	1.275094	-0.478174	1.028996
H195	H	0.767720	-0.904920	0.469789
H196	H	1.267720	-0.404920	0.969789
H197	H	0.834185	-0.904766	0.536272
H198	H	1.334185	-0.404766	1.036272
H199	H	0.824089	-1.014162	0.413704
H200	H	1.324089	-0.514162	0.913704
H201	H	0.890498	-1.013926	0.480242
H202	H	1.390498	-0.513926	0.980242
H203	H	0.915829	-0.420681	0.568160
H204	H	1.415829	0.079319	1.068160
O205	O	0.915856	-0.601378	0.388142
O206	O	1.415856	-0.101378	0.888142
C207	C	0.830272	-0.609164	0.473668
C208	C	1.330272	-0.109164	0.973668
C209	C	0.879523	-0.649541	0.424532
C210	C	1.379523	-0.149541	0.924532
H211	H	0.800895	-0.648086	0.503113
H212	H	1.300895	-0.148086	1.003113
H213	H	0.793510	-0.574822	0.443918
H214	H	1.293510	-0.074822	0.943918
H215	H	0.859992	-0.574682	0.510384
H216	H	1.359992	-0.074682	1.010384
H217	H	0.849860	-0.684060	0.387805
H218	H	1.349860	-0.184060	0.887805
H219	H	0.916286	-0.683838	0.454326
H220	H	1.416286	-0.183838	0.954326
H221	H	1.066691	-0.257392	0.574529
H222	H	1.566691	0.242608	1.074529
O223	O	1.073279	-0.250169	0.925117
O224	O	1.573279	0.249831	1.425117
C225	C	1.155774	-0.160915	0.936056
C226	C	1.655774	0.339085	1.436056
C227	C	1.110049	-0.210446	0.972972
C228	C	1.610049	0.289554	1.472972
H229	H	1.185525	-0.128796	0.974730
H230	H	1.685525	0.371204	1.474730
H231	H	1.123321	-0.124071	0.904408
H232	H	1.623321	0.375929	1.404408
H233	H	1.192364	-0.193251	0.901693
H234	H	1.692364	0.306749	1.401693
H235	H	1.073452	-0.178167	1.007369
H236	H	1.573452	0.321833	1.507369
H237	H	1.142545	-0.247291	1.004578
H238	H	1.642545	0.252709	1.504578
O239	O	0.895834	-1.076377	0.408398
O240	O	1.395834	-0.576377	0.908398
C241	C	0.861894	-1.189621	0.442407
C242	C	1.361894	-0.689621	0.942407
C243	C	0.907961	-1.149146	0.396415
C244	C	1.407961	-0.649146	0.896415
H245	H	0.871692	-1.248462	0.432745
H246	H	1.371692	-0.748462	0.932745
H247	H	0.806748	-1.175279	0.431020
H248	H	1.306748	-0.675279	0.931020
H249	H	0.873170	-1.175079	0.497548
H250	H	1.373170	-0.675079	0.997548
H251	H	0.896745	-1.163666	0.341259
H252	H	1.396745	-0.663666	0.841259
H253	H	0.963092	-1.163492	0.407860
H254	H	1.463092	-0.663492	0.907860
H255	H	0.252651	-0.420696	0.231198
H256	H	0.752651	0.079304	0.731198
H257	H	1.066748	-0.257276	1.058539
H258	H	1.566748	0.242724	1.558539
H259	H	0.730462	-0.257540	0.394818
H260	H	1.230462	0.242460	0.894818
O261	O	0.909303	-0.427665	1.057346
O262	O	1.409303	0.072335	1.557346
C263	C	0.826855	-0.516967	1.046411
C264	C	1.326855	-0.016967	1.546411
C265	C	0.872611	-0.467471	1.009491
C266	C	1.372611	0.032529	1.509491
H267	H	0.797188	-0.549173	1.007737
H268	H	1.297188	-0.049173	1.507737
H269	H	0.790198	-0.484671	1.080738
H270	H	1.290198	0.015329	1.580738
H271	H	0.859347	-0.553737	1.078099
H272	H	1.359347	-0.053737	1.578099
H273	H	0.840174	-0.430691	0.977767
H274	H	1.340174	0.069309	1.477767
H275	H	0.909272	-0.499811	0.975206
H276	H	1.409272	0.000189	1.475206
O277	O	0.909273	-0.427573	0.918065
O278	O	1.409273	0.072427	1.418065
C279	C	0.818269	-0.437037	0.837839
C280	C	1.318269	0.062963	1.337839
C281	C	0.864038	-0.387557	0.878661
C282	C	1.364038	0.112443	1.378661
H283	H	0.781695	-0.404705	0.805960
H284	H	1.281695	0.095295	1.305960
H285	H	0.788511	-0.469186	0.873954
H286	H	1.288511	0.030814	1.373954
H287	H	0.850757	-0.473861	0.803347
H288	H	1.350757	0.026139	1.303347
H289	H	0.831601	-0.350691	0.913156
H290	H	1.331601	0.149309	1.413156
H291	H	0.893801	-0.355458	0.842508
H292	H	1.393801	0.144542	1.342508
O293	O	0.596506	-0.250466	0.401973
O294	O	1.096506	0.249534	0.901973
C295	C	0.600584	-0.161264	0.491413
C296	C	1.100584	0.338736	0.991413
C297	C	0.641305	-0.210714	0.441769
C298	C	1.141305	0.289286	0.941769
H299	H	0.636786	-0.129102	0.523591
H300	H	1.136786	0.370898	1.023591
H301	H	0.568759	-0.193594	0.525547
H302	H	1.068759	0.306406	1.025547
H303	H	0.566051	-0.124451	0.461814
H304	H	1.066051	0.375549	0.961814
H305	H	0.675874	-0.247537	0.471313
H306	H	1.175874	0.252463	0.971313
H307	H	0.673085	-0.178341	0.407635
H308	H	1.173085	0.321659	0.907635
O309	O	0.379887	-0.250445	0.401946
O310	O	0.879887	0.249555	0.901946
C311	C	0.369045	-0.161299	0.491437
C312	C	0.869045	0.338701	0.991437
C313	C	0.332076	-0.210784	0.441827
C314	C	0.832076	0.289216	0.941827
H315	H	0.330407	-0.129231	0.523704
H316	H	0.830407	0.370769	1.023704
H317	H	0.400693	-0.124406	0.461878
H318	H	0.900693	0.375594	0.961878
H319	H	0.403413	-0.193667	0.525492
H320	H	0.903413	0.306333	1.025492
H321	H	0.297674	-0.178473	0.407760
H322	H	0.797674	0.321527	0.907760
H323	H	0.300471	-0.247680	0.471429
H324	H	0.800471	0.252320	0.971429
H325	H	0.915854	-0.420652	0.696406
H326	H	1.415854	0.079348	1.196406
O327	O	1.066593	-1.076123	0.237885
O328	O	1.566593	-0.576123	0.737885
C329	C	1.152234	-1.068351	0.152414
C330	C	1.652234	-0.568351	0.652414
C331	C	1.103009	-1.027966	0.201570
C332	C	1.603009	-0.527966	0.701570
H333	H	1.181700	-1.029434	0.123050
H334	H	1.681700	-0.529434	0.623050
H335	H	1.122557	-1.102800	0.115630
H336	H	1.622557	-0.602800	0.615630
H337	H	1.188924	-1.102727	0.182212
H338	H	1.688924	-0.602727	0.682212
H339	H	1.066309	-0.993553	0.171828
H340	H	1.566309	-0.493553	0.671828
H341	H	1.132730	-0.993562	0.238354
H342	H	1.632730	-0.493562	0.738354
O343	O	1.092314	-0.746233	0.212077
O344	O	1.592314	-0.246233	0.712077
C345	C	1.135084	-0.859457	0.169338
C346	C	1.635084	-0.359457	0.669338
C347	C	1.085872	-0.819007	0.218461
C348	C	1.585872	-0.319007	0.718461
H349	H	1.129883	-0.918302	0.174473
H350	H	1.629883	-0.418302	0.674473
H351	H	1.189109	-0.845005	0.181817
H352	H	1.689109	-0.345005	0.681817
H353	H	1.122659	-0.845004	0.115318
H354	H	1.622659	-0.345004	0.615318
H355	H	1.098235	-0.833439	0.272498
H356	H	1.598235	-0.333439	0.772498
H357	H	1.031862	-0.833463	0.205924
H358	H	1.531862	-0.333463	0.705924
O359	O	0.386609	-0.427808	0.224074
O360	O	0.886609	0.072192	0.724074
C361	C	0.382522	-0.516948	0.134578
C362	C	0.882522	-0.016948	0.634578
C363	C	0.341804	-0.467475	0.184204
C364	C	0.841804	0.032525	0.684204
H365	H	0.346314	-0.549021	0.102321
H366	H	0.846314	-0.049021	0.602321
H367	H	0.417026	-0.553837	0.164126
H368	H	0.917026	-0.053837	0.664126
H369	H	0.414376	-0.484571	0.100517
H370	H	0.914376	0.015429	0.600517
H371	H	0.309911	-0.499795	0.218277
H372	H	0.809911	0.000205	0.718277
H373	H	0.307342	-0.430583	0.154614
H374	H	0.807342	0.069417	0.654614
