data_functionalizedCrystal
_audit_creation_method	'MofGen! by Chris Wilmer'
_symmetry_space_group_name_H-M	'P1'
_symmetry_Int_Tables_number	1
_symmetry_cell_setting	triclinic
loop_
_symmetry_equiv_pos_as_xyz
  x,y,z
_cell_length_a	12.645323
_cell_length_b	12.759401
_cell_length_c	12.759399
_cell_angle_alpha	90.016641
_cell_angle_beta	90.026803
_cell_angle_gamma	90.020678
loop_
_atom_site_label
_atom_site_type_symbol
_atom_site_fract_x
_atom_site_fract_y
_atom_site_fract_z
Zn1	Zn	-0.599376	-1.606261	0.418215
Zn2	Zn	-0.422110	-1.606151	0.593918
Zn3	Zn	-0.422126	-1.430560	0.418259
Zn4	Zn	-0.599331	-1.430550	0.593857
O5	O	-0.510736	-1.518380	0.506062
O6	O	-0.575873	-1.753267	0.441530
O7	O	-0.273764	-1.582817	0.570660
O8	O	-0.445664	-1.453917	0.271232
O9	O	-0.445636	-1.753187	0.570618
O10	O	-0.575888	-1.583004	0.271200
O11	O	-0.273777	-1.453811	0.441604
O12	O	-0.445621	-1.283538	0.441545
O13	O	-0.747684	-1.453900	0.570515
O14	O	-0.575813	-1.283530	0.570557
O15	O	-0.747717	-1.582994	0.441471
O16	O	-0.445593	-1.582807	0.740931
O17	O	-0.575797	-1.453794	0.740887
C18	C	-0.510715	-1.245413	0.506050
C19	C	-0.510731	-1.128636	0.506069
C20	C	-0.510712	-1.518316	0.779030
C21	C	-0.510737	-1.518385	0.895806
C22	C	-0.787241	-1.518458	0.505981
C23	C	-0.905071	-1.518491	0.505947
C24	C	-1.072615	-1.437027	0.586745
C25	C	-0.950055	-1.437241	0.587145
C26	C	-0.949586	-1.629193	0.535991
C27	C	-1.072184	-1.628746	0.536498
C28	C	-1.072274	-1.490299	0.394651
C29	C	-0.949667	-1.487829	0.395318
C30	C	-0.235306	-1.518364	0.506067
C31	C	-0.117476	-1.518534	0.505806
C32	C	-0.510757	-1.792414	0.506076
C33	C	-0.510767	-1.909190	0.506082
C34	C	-0.578415	-1.073798	0.573348
C35	C	-0.578436	-0.964074	0.573352
C36	C	-0.443079	-0.964036	0.438796
C37	C	-0.443065	-1.073758	0.438787
C38	C	-0.510783	-1.518474	0.232029
C39	C	-0.510803	-1.518514	0.115252
C40	C	-0.443017	-1.585639	0.950657
C41	C	-0.443052	-1.585706	1.060381
C42	C	-0.578531	-1.451257	1.060394
C43	C	-0.578500	-1.451195	0.950672
H44	H	-1.102092	-1.354695	0.568125
H45	H	-0.387948	-1.118409	0.383994
H46	H	-0.918894	-1.653536	0.616396
H47	H	-0.920737	-1.455881	0.669549
H48	H	-0.919046	-1.542857	0.331826
O49	O	-0.651372	-0.904987	0.646033
H50	H	-0.734623	-0.926089	0.628210
H51	H	-1.103182	-1.410980	0.367264
H52	H	-0.387909	-1.640473	1.105035
H53	H	-0.387841	-1.640350	0.905987
H54	H	-0.633651	-1.396429	0.906010
H55	H	-1.100792	-1.652679	0.617754
O56	O	-0.911109	-1.379926	0.365293
H57	H	-0.938698	-1.322089	0.424233
O58	O	-0.651597	-1.378769	1.119570
H59	H	-0.640230	-1.390097	1.205082
H60	H	-1.101287	-1.549664	0.334349
O61	O	-0.370075	-0.904830	0.366266
H62	H	-0.417606	-0.854854	0.312883
H63	H	-0.919956	-1.355151	0.568345
H64	H	-1.101863	-1.691535	0.480104
O65	O	-1.113479	-1.461457	0.695204
H66	H	-1.087898	-1.541411	0.718227
O67	O	-0.910983	-1.711808	0.460393
H68	H	-0.859534	-1.674752	0.400463
H69	H	-0.633516	-1.118477	0.628131
