data_functionalizedCrystal
_audit_creation_method	'MofGen! by Chris Wilmer'
_symmetry_space_group_name_H-M	'P1'
_symmetry_Int_Tables_number	1
_symmetry_cell_setting	triclinic
loop_
_symmetry_equiv_pos_as_xyz
  x,y,z
_cell_length_a	16.959455
_cell_length_b	29.839131
_cell_length_c	16.959447
_cell_angle_alpha	89.966085
_cell_angle_beta	89.985678
_cell_angle_gamma	90.038367
loop_
_atom_site_label
_atom_site_type_symbol
_atom_site_fract_x
_atom_site_fract_y
_atom_site_fract_z
Zn1	Zn	1.208267	-0.178881	-0.446889
Zn2	Zn	1.708267	0.321119	0.053111
Zn3	Zn	1.208140	-0.254014	-0.314702
Zn4	Zn	1.708140	0.245986	0.185298
Zn5	Zn	1.076095	-0.178895	-0.314726
Zn6	Zn	1.576095	0.321105	0.185274
Zn7	Zn	1.076010	-0.253981	-0.446841
Zn8	Zn	1.576010	0.246019	0.053159
O9	O	1.142128	-0.216443	-0.380790
O10	O	1.642128	0.283557	0.119210
O11	O	1.318861	-0.188856	-0.429364
O12	O	1.818861	0.311144	0.070636
O13	O	1.190606	-0.244070	-0.204094
O14	O	1.690606	0.255930	0.295906
O15	O	1.093716	-0.116026	-0.332288
O16	O	1.593716	0.383974	0.167712
O17	O	1.318767	-0.244056	-0.332247
O18	O	1.818767	0.255944	0.167753
O19	O	1.190822	-0.116016	-0.429388
O20	O	1.690822	0.383984	0.070612
O21	O	1.093593	-0.188880	-0.204112
O22	O	1.593593	0.311120	0.295888
O23	O	0.965473	-0.188847	-0.332242
O24	O	1.465473	0.311153	0.167758
O25	O	1.093572	-0.243999	-0.557458
O26	O	1.593572	0.256001	-0.057458
O27	O	0.965411	-0.244012	-0.429305
O28	O	1.465411	0.255988	0.070695
O29	O	1.190740	-0.188823	-0.557493
O30	O	1.690740	0.311177	-0.057493
O31	O	1.190524	-0.316877	-0.332200
O32	O	1.690524	0.183123	0.167800
O33	O	1.093449	-0.316852	-0.429282
O34	O	1.593449	0.183148	0.070718
C35	C	0.936762	-0.216428	-0.380771
C36	C	1.436762	0.283572	0.119229
C37	C	0.848905	-0.216433	-0.380782
C38	C	1.348905	0.283567	0.119218
C39	C	0.477437	-0.187695	-0.330354
C40	C	0.977437	0.312305	0.169646
C41	C	0.477421	-0.245228	-0.431270
C42	C	0.977421	0.254772	0.068730
C43	C	0.559967	-0.245221	-0.431265
C44	C	1.059967	0.254779	0.068735
C45	C	0.601252	-0.216452	-0.380803
C46	C	1.101252	0.283548	0.119197
C47	C	0.559991	-0.187688	-0.330346
C48	C	1.059991	0.312312	0.169654
C49	C	0.601235	-0.273987	-0.481716
C50	C	1.101235	0.226013	0.018284
C51	C	0.683786	-0.273982	-0.481713
C52	C	1.183786	0.226018	0.018287
C53	C	0.725072	-0.245210	-0.431254
C54	C	1.225072	0.254790	0.068746
C55	C	0.683806	-0.216445	-0.380795
C56	C	1.183806	0.283555	0.119205
C57	C	0.725090	-0.187676	-0.330333
C58	C	1.225090	0.312324	0.169667
C59	C	0.683826	-0.158908	-0.279878
C60	C	1.183826	0.341092	0.220122
C61	C	0.601277	-0.158916	-0.279887
C62	C	1.101277	0.341084	0.220113
C63	C	0.807620	-0.245202	-0.431245
C64	C	1.307620	0.254798	0.068755
C65	C	0.807644	-0.187669	-0.330325
C66	C	1.307644	0.312331	0.169675
C67	C	1.141985	-0.333165	-0.380750
C68	C	1.641985	0.166835	0.119250
C69	C	1.141996	-0.383100	-0.380760
C70	C	1.641996	0.116900	0.119240
C71	C	1.192767	-0.692743	-0.330313
C72	C	1.692767	-0.192743	0.169687
C73	C	1.192864	-0.880416	-0.330344
C74	C	1.692864	-0.380416	0.169656
O75	O	1.235918	-0.904681	-0.287422
O76	O	1.735918	-0.404681	0.212578
N77	N	1.142292	-0.903885	-0.380849
N78	N	1.642292	-0.403885	0.119151
C79	C	1.091695	-0.880432	-0.431354
C80	C	1.591695	-0.380432	0.068646
O81	O	1.048688	-0.904700	-0.474319
O82	O	1.548688	-0.404700	0.025681
C83	C	1.091602	-0.692760	-0.431327
C84	C	1.591602	-0.192760	0.068673
C85	C	1.142172	-0.669294	-0.380812
C86	C	1.642172	-0.169294	0.119188
C87	C	1.243333	-0.669277	-0.279803
C88	C	1.743333	-0.169277	0.220197
C89	C	1.243305	-0.622362	-0.279793
C90	C	1.743305	-0.122362	0.220207
C91	C	1.192711	-0.598913	-0.330293
C92	C	1.692711	-0.098913	0.169707
C93	C	1.142144	-0.622379	-0.380802
C94	C	1.642144	-0.122379	0.119198
C95	C	1.041010	-0.669308	-0.481835
C96	C	1.541010	-0.169308	0.018165
C97	C	1.040992	-0.622387	-0.481826
C98	C	1.540992	-0.122387	0.018174
C99	C	1.091563	-0.598921	-0.431311
C100	C	1.591563	-0.098921	0.068689
C101	C	1.091522	-0.552014	-0.431292
C102	C	1.591522	-0.052014	0.068708
N103	N	1.142094	-0.528545	-0.380786
N104	N	1.642094	-0.028545	0.119214
C105	C	1.192689	-0.551995	-0.330287
C106	C	1.692689	-0.051995	0.169713
C107	C	1.091746	-0.978963	-0.431364
C108	C	1.591746	-0.478963	0.068636
C109	C	1.091768	-1.025881	-0.431370
C110	C	1.591768	-0.525881	0.068630
C111	C	1.192939	-1.025862	-0.330360
C112	C	1.692939	-0.525862	0.169640
C113	C	1.192912	-0.978943	-0.330351
C114	C	1.692912	-0.478943	0.169649
C115	C	1.142319	-0.955494	-0.380858
C116	C	1.642319	-0.455494	0.119142
C117	C	1.192626	-0.453469	-0.330268
C118	C	1.692626	0.046531	0.169732
C119	C	1.192591	-0.406549	-0.330260
C120	C	1.692591	0.093451	0.169740
C121	C	1.091424	-0.406572	-0.431273
C122	C	1.591424	0.093428	0.068727
C123	C	1.091455	-0.453488	-0.431278
C124	C	1.591455	0.046512	0.068722
C125	C	1.142063	-0.476935	-0.380773
C126	C	1.642063	0.023065	0.119227
O127	O	1.048497	-0.527720	-0.474197
O128	O	1.548497	-0.027720	0.025803
O129	O	1.235702	-0.527719	-0.287341
O130	O	1.735702	-0.027719	0.212659
C131	C	1.192795	-0.739659	-0.330323
C132	C	1.692795	-0.239659	0.169677
C133	C	1.142228	-0.763125	-0.380833
C134	C	1.642228	-0.263125	0.119167
C135	C	1.091633	-0.739675	-0.431332
C136	C	1.591633	-0.239675	0.068668
C137	C	1.142250	-0.810043	-0.380839
C138	C	1.642250	-0.310043	0.119161
C139	C	1.192845	-0.833492	-0.330339
C140	C	1.692845	-0.333492	0.169661
C141	C	1.243417	-0.810024	-0.279834
C142	C	1.743417	-0.310024	0.220166
C143	C	1.243389	-0.763108	-0.279824
C144	C	1.743389	-0.263108	0.220176
C145	C	1.041061	-0.763144	-0.481838
C146	C	1.541061	-0.263144	0.018162
C147	C	1.041092	-0.810059	-0.481843
C148	C	1.541092	-0.310059	0.018157
C149	C	1.091687	-0.833509	-0.431344
C150	C	1.591687	-0.333509	0.068656
C151	C	1.348296	-0.216458	-0.380808
C152	C	1.848296	0.283542	0.119192
C153	C	1.436153	-0.216465	-0.380816
C154	C	1.936153	0.283535	0.119184
C155	C	1.142161	-0.216406	-0.586958
C156	C	1.642161	0.283594	-0.086958
C157	C	1.142175	-0.216390	-0.674814
C158	C	1.642175	0.283610	-0.174814
C159	C	1.142293	-0.099264	-0.380846
C160	C	1.642293	0.400736	0.119154
C161	C	1.142363	-0.049330	-0.380870
C162	C	1.642363	0.450670	0.119130
C163	C	1.091678	-0.245070	-1.046274
C164	C	1.591678	0.254930	-0.546274
C165	C	1.192860	-0.187615	-1.046306
C166	C	1.692860	0.312385	-0.546306
C167	C	1.192839	-0.187625	-0.963760
C168	C	1.692839	0.312375	-0.463760
C169	C	1.142238	-0.216358	-0.922468
C170	C	1.642238	0.283642	-0.422468
C171	C	1.091657	-0.245081	-0.963721
C172	C	1.591657	0.254919	-0.463721
C173	C	1.243424	-0.158905	-0.922501
C174	C	1.743424	0.341095	-0.422501
C175	C	1.243406	-0.158914	-0.839950
C176	C	1.743406	0.341086	-0.339950
C177	C	1.192800	-0.187645	-0.798656
C178	C	1.692800	0.312355	-0.298656
C179	C	1.142217	-0.216369	-0.839914
C180	C	1.642217	0.283631	-0.339914
C181	C	1.091615	-0.245102	-0.798621
C182	C	1.591615	0.254898	-0.298621
C183	C	1.041028	-0.273824	-0.839878
C184	C	1.541028	0.226176	-0.339878
C185	C	1.041051	-0.273812	-0.922426
C186	C	1.541051	0.226188	-0.422426
C187	C	1.192776	-0.187657	-0.716107
C188	C	1.692776	0.312343	-0.216107
C189	C	1.091594	-0.245113	-0.716068
C190	C	1.591594	0.254887	-0.216068
C191	C	1.142141	-0.216447	-0.175423
C192	C	1.642141	0.283553	0.324577
C193	C	1.142280	-0.216337	-0.087567
C194	C	1.642280	0.283663	0.412433
H195	H	0.717450	-0.135486	-0.238788
H196	H	1.217450	0.364514	0.261212
O197	O	1.241802	-0.159739	-0.675943
O198	O	1.741802	0.340261	-0.175943
C199	C	1.252504	-0.099081	-0.582817
C200	C	1.752504	0.400919	-0.082817
C201	C	1.196891	-0.130678	-0.628239
C202	C	1.696891	0.369322	-0.128239
H203	H	1.216215	-0.075571	-0.544249
H204	H	1.716215	0.424429	-0.044249
H205	H	1.293778	-0.119693	-0.544102
H206	H	1.793778	0.380307	-0.044102
H207	H	1.288696	-0.078565	-0.626523
H208	H	1.788696	0.421435	-0.126523
H209	H	1.160648	-0.151200	-0.584589
H210	H	1.660648	0.348800	-0.084589
H211	H	1.155669	-0.110040	-0.666966
H212	H	1.655669	0.389960	-0.166966
H213	H	1.050489	-0.268453	-1.079869
H214	H	1.550489	0.231547	-0.579869
O215	O	1.292536	-0.130935	-0.962528
O216	O	1.792536	0.369065	-0.462528
C217	C	1.330991	-0.054517	-0.987885
C218	C	1.830991	0.445483	-0.487885
C219	C	1.275335	-0.086143	-0.942485
C220	C	1.775335	0.413857	-0.442485
H221	H	1.317093	-0.018296	-0.971709
H222	H	1.817093	0.481704	-0.471709
H223	H	1.394727	-0.062377	-0.971642
H224	H	1.894727	0.437623	-0.471642
H225	H	1.322322	-0.059467	-1.053966
H226	H	1.822322	0.440533	-0.553966
H227	H	1.283934	-0.081210	-0.876393
H228	H	1.783934	0.418790	-0.376393
H229	H	1.211620	-0.078275	-0.958793
H230	H	1.711620	0.421725	-0.458793
H231	H	1.050582	-1.044983	-0.472496
H232	H	1.550582	-0.544983	0.027504
O233	O	0.991973	-0.692074	-0.531024
O234	O	1.491973	-0.192074	-0.031024
C235	C	0.953508	-0.706357	-0.665455
C236	C	1.453508	-0.206357	-0.165455
C237	C	1.009106	-0.680557	-0.609833
C238	C	1.509106	-0.180557	-0.109833
H239	H	0.967329	-0.697048	-0.729183
H240	H	1.467329	-0.197048	-0.229183
H241	H	0.962207	-0.743926	-0.656869
H242	H	1.462207	-0.243926	-0.156869
H243	H	0.889782	-0.697174	-0.651481
H244	H	1.389782	-0.197174	-0.151481
H245	H	1.072854	-0.689702	-0.623773
H246	H	1.572854	-0.189702	-0.123773
H247	H	1.000339	-0.642994	-0.618429
H248	H	1.500339	-0.142994	-0.118429
H249	H	0.443836	-0.164272	-0.289277
H250	H	0.943836	0.335728	0.210723
H251	H	1.234062	-0.164225	-1.079932
H252	H	1.734062	0.335775	-0.579932
H253	H	0.443803	-0.268653	-0.472350
H254	H	0.943803	0.231347	0.027650
H255	H	0.841252	-0.164238	-0.289237
H256	H	1.341252	0.335762	0.210763
H257	H	0.567615	-0.297413	-0.522794
H258	H	1.067615	0.202587	-0.022794
H259	H	1.050279	-0.472595	-0.472414
H260	H	1.550279	0.027405	0.027586
O261	O	1.292399	-0.692116	-0.230749
O262	O	1.792399	-0.192116	0.269251
C263	C	1.303214	-0.745135	-0.124078
C264	C	1.803214	-0.245135	0.375922
C265	C	1.247544	-0.719302	-0.179573
C266	C	1.747544	-0.219302	0.320427
H267	H	1.266971	-0.767114	-0.082676
H268	H	1.766971	-0.267114	0.417324
H269	H	1.344494	-0.767082	-0.160418
H270	H	1.844494	-0.267082	0.339582
H271	H	1.339398	-0.720305	-0.088017
H272	H	1.839398	-0.220305	0.411983
H273	H	1.211310	-0.744100	-0.215645
H274	H	1.711310	-0.244100	0.284355
H275	H	1.206317	-0.697348	-0.143187
H276	H	1.706317	-0.197348	0.356813
O277	O	1.292512	-0.599640	-0.230706
O278	O	1.792512	-0.099640	0.269294
C279	C	1.392839	-0.604590	-0.130499
C280	C	1.892839	-0.104590	0.369501
C281	C	1.337158	-0.630375	-0.186061
C282	C	1.837158	-0.130375	0.313939
H283	H	1.428938	-0.629428	-0.094377
H284	H	1.928938	-0.129428	0.405623
H285	H	1.434189	-0.582603	-0.166787
H286	H	1.934189	-0.082603	0.333213
H287	H	1.356564	-0.582647	-0.089158
H288	H	1.856564	-0.082647	0.410842
H289	H	1.373369	-0.652343	-0.227413
H290	H	1.873369	-0.152343	0.272587
H291	H	1.295805	-0.652334	-0.149723
H292	H	1.795805	-0.152334	0.350277
H293	H	0.717376	-0.297406	-0.522797
H294	H	1.217376	0.202594	-0.022797
O295	O	0.991957	-0.599589	-0.530973
O296	O	1.491957	-0.099589	-0.030973
C297	C	0.981226	-0.546562	-0.637642
C298	C	1.481226	-0.046562	-0.137642
C299	C	1.036848	-0.572360	-0.582048
C300	C	1.536848	-0.072360	-0.082048
H301	H	1.017496	-0.524534	-0.678938
H302	H	1.517496	-0.024534	-0.178938
H303	H	0.945103	-0.571374	-0.673802
H304	H	1.445103	-0.071374	-0.173802
H305	H	0.939888	-0.524654	-0.601297
H306	H	1.439888	-0.024654	-0.101297
H307	H	1.078233	-0.594268	-0.618331
H308	H	1.578233	-0.094268	-0.118331
H309	H	1.072915	-0.547523	-0.545885
H310	H	1.572915	-0.047523	-0.045885
H311	H	0.841214	-0.268625	-0.472322
H312	H	1.341214	0.231375	0.027678
H313	H	1.050545	-0.959874	-0.472494
H314	H	1.550545	-0.459874	0.027506
H315	H	0.567672	-0.135496	-0.238808
H316	H	1.067672	0.364504	0.261192
O317	O	1.042354	-0.383719	-0.480302
O318	O	1.542354	0.116281	0.019698
C319	C	0.997465	-0.311442	-0.525018
C320	C	1.497465	0.188558	-0.025018
C321	C	1.053083	-0.337268	-0.469460
C322	C	1.553083	0.162732	0.030540
H323	H	1.006108	-0.273882	-0.516260
H324	H	1.506108	0.226118	-0.016260
H325	H	1.011315	-0.320599	-0.588785
H326	H	1.511315	0.179401	-0.088785
H327	H	0.933748	-0.320731	-0.511098
H328	H	1.433748	0.179269	-0.011098
H329	H	1.116819	-0.327993	-0.483309
H330	H	1.616819	0.172007	0.016691
H331	H	1.039165	-0.328110	-0.405709
H332	H	1.539165	0.171890	0.094291
H333	H	1.233771	-0.387445	-0.289123
H334	H	1.733771	0.112555	0.210877
O335	O	1.241807	-0.476172	-0.281132
O336	O	1.741807	0.023828	0.218868
C337	C	1.342174	-0.471189	-0.180969
C338	C	1.842174	0.028811	0.319031
C339	C	1.286510	-0.445422	-0.236566
C340	C	1.786510	0.054578	0.263434
H341	H	1.378343	-0.446339	-0.144935
H342	H	1.878343	0.053661	0.355065
H343	H	1.305963	-0.493178	-0.139554
H344	H	1.805963	0.006822	0.360446
H345	H	1.383467	-0.493129	-0.217304
H346	H	1.883467	0.006871	0.282696
H347	H	1.245207	-0.423458	-0.200294
H348	H	1.745207	0.076542	0.299706
H349	H	1.322771	-0.423461	-0.277983
H350	H	1.822771	0.076539	0.222017
O351	O	1.242113	-0.956219	-0.281259
O352	O	1.742113	-0.456219	0.218741
C353	C	1.342422	-0.961166	-0.181034
C354	C	1.842422	-0.461166	0.318966
C355	C	1.286753	-0.986952	-0.236604
C356	C	1.786753	-0.486952	0.263396
H357	H	1.378517	-0.986002	-0.144904
H358	H	1.878517	-0.486002	0.355096
H359	H	1.383777	-0.939177	-0.217316
H360	H	1.883777	-0.439177	0.282684
H361	H	1.306138	-0.939222	-0.139700
H362	H	1.806138	-0.439222	0.360300
H363	H	1.322973	-1.008920	-0.277949
H364	H	1.822973	-0.508920	0.222051
H365	H	1.245396	-1.008912	-0.200273
H366	H	1.745396	-0.508912	0.299727
O367	O	0.991989	-0.301757	-0.799671
O368	O	1.491989	0.198243	-0.299671
C369	C	0.981274	-0.362438	-0.706459
C370	C	1.481274	0.137562	-0.206459
C371	C	1.036893	-0.330826	-0.751936
C372	C	1.536893	0.169174	-0.251936
H373	H	1.017557	-0.385954	-0.667866
H374	H	1.517557	0.114046	-0.167866
H375	H	0.939984	-0.341838	-0.667764
H376	H	1.439984	0.158162	-0.167764
H377	H	0.945100	-0.382946	-0.750129
H378	H	1.445100	0.117054	-0.250129
H379	H	1.073119	-0.310311	-0.708322
H380	H	1.573119	0.189689	-0.208322
H381	H	1.078131	-0.351452	-0.790643
H382	H	1.578131	0.148548	-0.290643
O383	O	0.991870	-0.740319	-0.530782
O384	O	1.491870	-0.240319	-0.030782
C385	C	0.885069	-0.687433	-0.541303
C386	C	1.385069	-0.187433	-0.041303
C387	C	0.940749	-0.713244	-0.485785
C388	C	1.440749	-0.213244	0.014215
H389	H	0.843714	-0.665543	-0.504944
H390	H	1.343714	-0.165543	-0.004944
H391	H	0.921267	-0.665398	-0.582655
H392	H	1.421267	-0.165398	-0.082655
H393	H	0.848969	-0.712277	-0.577416
H394	H	1.348969	-0.212277	-0.077416
H395	H	0.976862	-0.688431	-0.449621
H396	H	1.476862	-0.188431	0.050379
H397	H	0.904506	-0.735285	-0.444485
H398	H	1.404506	-0.235285	0.055515
H399	H	1.234135	-1.044962	-0.289242
H400	H	1.734135	-0.544962	0.210758
H401	H	1.284568	-0.744006	-0.238690
H402	H	1.784568	-0.244006	0.261310
H403	H	1.284611	-0.829124	-0.238713
H404	H	1.784611	-0.329124	0.261287
H405	H	0.999905	-0.829161	-0.522978
H406	H	1.499905	-0.329161	-0.022978
H407	H	1.050381	-0.268507	-0.682453
H408	H	1.550381	0.231493	-0.182453
O409	O	0.991991	-0.301697	-0.962625
O410	O	1.491991	0.198303	-0.462625
C411	C	0.947151	-0.327122	-1.089784
C412	C	1.447151	0.172878	-0.589784
C413	C	1.002763	-0.295527	-1.044355
C414	C	1.502763	0.204473	-0.544355
H415	H	0.955830	-0.322138	-1.155871
H416	H	1.455830	0.177862	-0.655871
H417	H	0.960975	-0.363360	-1.073591
H418	H	1.460975	0.136640	-0.573591
H419	H	0.883430	-0.319234	-1.073515
H420	H	1.383430	0.180766	-0.573515
H421	H	1.066503	-0.303375	-1.060600
H422	H	1.566503	0.196625	-0.560600
H423	H	0.988872	-0.259298	-1.060552
H424	H	1.488872	0.240702	-0.560552
O425	O	1.292422	-0.130982	-0.799798
O426	O	1.792422	0.369018	-0.299798
C427	C	1.303082	-0.070306	-0.706702
C428	C	1.803082	0.429694	-0.206702
C429	C	1.247491	-0.101923	-0.752108
C430	C	1.747491	0.398077	-0.252108
H431	H	1.266777	-0.046798	-0.668147
H432	H	1.766777	0.453202	-0.168147
H433	H	1.344371	-0.090902	-0.667977
H434	H	1.844371	0.409098	-0.167977
H435	H	1.339259	-0.049790	-0.750420
H436	H	1.839259	0.450210	-0.250420
H437	H	1.211262	-0.122446	-0.708447
H438	H	1.711262	0.377554	-0.208447
H439	H	1.206254	-0.081301	-0.790845
H440	H	1.706254	0.418699	-0.290845
