data_functionalizedCrystal
_audit_creation_method	'MofGen! by Chris Wilmer'
_symmetry_space_group_name_H-M	'P1'
_symmetry_Int_Tables_number	1
_symmetry_cell_setting	triclinic
loop_
_symmetry_equiv_pos_as_xyz
  x,y,z
_cell_length_a	18.215407
_cell_length_b	19.121449
_cell_length_c	18.215399
_cell_angle_alpha	92.467880
_cell_angle_beta	90.019833
_cell_angle_gamma	87.585577
loop_
_atom_site_label
_atom_site_type_symbol
_atom_site_fract_x
_atom_site_fract_y
_atom_site_fract_z
Zn1	Zn	1.137562	-0.279608	0.403625
Zn2	Zn	1.142717	-0.397061	0.275311
Zn3	Zn	1.014496	-0.279631	0.280571
Zn4	Zn	1.019706	-0.397022	0.398338
O5	O	1.078620	-0.338330	0.339461
O6	O	1.241231	-0.295195	0.386615
O7	O	1.125685	-0.381510	0.173023
O8	O	1.026483	-0.181345	0.301308
O9	O	1.245018	-0.381487	0.292343
O10	O	1.116899	-0.181328	0.391715
O11	O	1.031482	-0.295234	0.176888
O12	O	0.912202	-0.295196	0.296182
O13	O	1.035362	-0.381421	0.502025
O14	O	0.916030	-0.381443	0.382704
O15	O	1.121951	-0.295157	0.505909
O16	O	1.130737	-0.495339	0.287217
O17	O	1.040361	-0.495310	0.377604
C18	C	0.887413	-0.338318	0.339440
C19	C	0.805615	-0.338330	0.339448
C20	C	0.619437	-0.383309	0.384439
C21	C	0.542578	-0.383312	0.384448
C22	C	0.538556	-0.293364	0.294499
C23	C	0.615414	-0.293359	0.294494
C24	C	0.655852	-0.338336	0.339463
C25	C	0.502136	-0.338343	0.339477
C26	C	0.418802	-0.338345	0.339486
C27	C	0.739191	-0.338333	0.339455
C28	C	1.086694	-0.520808	0.331282
C29	C	1.090215	-0.598873	0.327808
C30	C	1.044783	-0.635558	0.373196
C31	C	1.048095	-0.708908	0.369929
C32	C	1.096843	-0.745571	0.321276
C33	C	1.142277	-0.708881	0.275883
C34	C	1.138961	-0.635532	0.279147
C35	C	1.109207	-0.967036	0.309064
C36	C	1.112522	-1.040390	0.305805
C37	C	1.018339	-1.040413	0.399851
C38	C	1.015030	-0.967063	0.403114
C39	C	1.060461	-0.930378	0.357718
C40	C	1.100231	-0.820547	0.317937
C41	C	1.057069	-0.855404	0.361054
C42	C	1.270574	-0.338343	0.339482
C43	C	1.352373	-0.338348	0.339491
C44	C	1.078663	-0.338282	0.531416
C45	C	1.078681	-0.338261	0.613216
C46	C	1.070535	-0.155140	0.347688
C47	C	1.067090	-0.077076	0.351194
C48	C	1.078618	-0.338328	0.148255
C49	C	1.078733	-0.338151	0.066464
C50	C	1.123783	-0.293302	0.803436
C51	C	1.123791	-0.293281	0.880295
C52	C	1.033626	-0.383112	0.876239
C53	C	1.033615	-0.383128	0.799381
C54	C	1.078698	-0.338224	0.762981
C55	C	1.078717	-0.338188	0.916699
C56	C	1.078725	-0.338166	1.000034
C57	C	1.078689	-0.338245	0.679641
H58	H	0.645063	-0.256732	0.257870
H59	H	0.505622	-0.256747	0.257886
Cl60	Cl	0.976959	-0.439563	0.922004
Cl61	Cl	0.983500	-0.589474	0.434367
H62	H	1.017375	-0.825551	0.400664
Cl63	Cl	1.180479	-0.236811	0.931149
H64	H	0.975336	-0.937213	0.442731
H65	H	0.996896	-0.419709	0.766442
Cl66	Cl	1.203560	-0.754972	0.214719
H67	H	0.512932	-0.419933	0.421073
Cl68	Cl	0.670270	-0.439848	0.440973
H69	H	1.011093	-0.738774	0.406883
Cl70	Cl	0.961227	-1.086534	0.456914
H71	H	1.152222	-1.070239	0.266187
Cl72	Cl	1.166334	-0.920928	0.252007
Cl73	Cl	1.196073	-0.589413	0.222080
H74	H	1.160490	-0.256736	0.773801
H75	H	1.139922	-0.850406	0.278324
