data_functionalizedCrystal
_audit_creation_method	'MofGen! by Chris Wilmer'
_symmetry_space_group_name_H-M	'P1'
_symmetry_Int_Tables_number	1
_symmetry_cell_setting	triclinic
loop_
_symmetry_equiv_pos_as_xyz
  x,y,z
_cell_length_a	16.974800
_cell_length_b	10.723024
_cell_length_c	15.455313
_cell_angle_alpha	92.691723
_cell_angle_beta	90.973911
_cell_angle_gamma	83.927745
loop_
_atom_site_label
_atom_site_type_symbol
_atom_site_fract_x
_atom_site_fract_y
_atom_site_fract_z
O1	O	1.049934	0.159071	0.001601
O2	O	1.549934	0.659071	0.501601
O3	O	0.820605	0.178127	-0.014504
O4	O	1.320605	0.678127	0.485496
O5	O	0.940559	-0.013030	-0.006077
O6	O	1.440559	0.486970	0.493923
O7	O	0.929980	0.350228	-0.006826
O8	O	1.429980	0.850228	0.493174
O9	O	0.933699	-0.002144	0.137703
O10	O	1.433699	0.497856	0.637703
O11	O	0.813745	0.189013	0.129276
O12	O	1.313745	0.689013	0.629276
O13	O	1.043075	0.169957	0.145381
O14	O	1.543075	0.669957	0.645381
Cu15	Cu	0.927783	0.180479	0.150457
Cu16	Cu	1.427783	0.680479	0.650457
Cu17	Cu	0.935896	0.167605	-0.019580
Cu18	Cu	1.435896	0.667605	0.480420
O19	O	0.923120	0.361114	0.136954
O20	O	1.423120	0.861114	0.636954
C21	C	0.787810	0.182646	0.055323
C22	C	1.287810	0.682646	0.555323
C23	C	0.700314	0.179877	0.049178
C24	C	1.200314	0.679877	0.549178
C25	C	0.655473	0.184507	0.124668
C26	C	1.155473	0.684507	0.624668
C27	C	0.573262	0.181886	0.118897
C28	C	1.073262	0.681886	0.618897
C29	C	0.535893	0.174643	0.037635
C30	C	1.035893	0.674643	0.537635
C31	C	0.580740	0.170009	-0.037860
C32	C	1.080740	0.670009	0.462140
C33	C	0.662950	0.172621	-0.032088
C34	C	1.162950	0.672621	0.467912
C35	C	0.290423	0.166185	0.011968
C36	C	0.790423	0.666185	0.511968
C37	C	0.208206	0.163576	0.006201
C38	C	0.708206	0.663576	0.506201
C39	C	0.200735	0.175451	0.162959
C40	C	0.700735	0.675451	0.662959
C41	C	0.282946	0.178071	0.168724
C42	C	0.782946	0.678071	0.668724
C43	C	0.327786	0.173429	0.093229
C44	C	0.827786	0.673429	0.593229
N45	N	0.451860	0.171967	0.031734
N46	N	0.951860	0.671967	0.531734
N47	N	0.411818	0.176096	0.099131
N48	N	0.911818	0.676096	0.599131
C49	C	0.936359	-0.054079	0.065758
C50	C	1.436359	0.445921	0.565758
C51	C	0.934056	-0.192611	0.065593
C52	C	1.434056	0.307389	0.565593
C53	C	1.001176	-0.268267	0.070306
C54	C	1.501176	0.231733	0.570306
C55	C	0.998797	-0.411447	0.070136
C56	C	1.498797	0.088553	0.570136
C57	C	1.075869	0.165438	0.075552
C58	C	1.575869	0.665438	0.575552
C59	C	1.163366	0.168206	0.081691
C60	C	1.663366	0.668206	0.581691
C61	C	0.927320	0.402163	0.065117
C62	C	1.427320	0.902163	0.565117
C63	C	0.929624	0.540694	0.065276
C64	C	1.429624	1.040694	0.565276
N65	N	0.922083	0.189533	0.270052
N66	N	1.422083	0.689533	0.770052
N67	N	0.941602	0.158541	-0.139174
N68	N	1.441602	0.658541	0.360826
C69	C	0.973062	0.108353	0.319028
C70	C	1.473062	0.608353	0.819028
C71	C	0.968759	0.115212	0.409533
C72	C	1.468759	0.615212	0.909533
C73	C	0.913480	0.203258	0.451062
C74	C	1.413480	0.703258	0.951062
C75	C	0.862495	0.284442	0.402079
C76	C	1.362495	0.784442	0.902079
C77	C	0.866795	0.277576	0.311575
C78	C	1.366795	0.777576	0.811575
C79	C	0.894918	0.232859	0.721339
C80	C	1.394918	0.732859	1.221339
C81	C	0.890623	0.239721	0.811850
C82	C	1.390623	0.739721	1.311850
C83	C	0.996886	0.070489	0.819298
C84	C	1.496886	0.570489	1.319298
C85	C	1.001185	0.063636	0.728792
C86	C	1.501185	0.563636	1.228792
C87	C	0.950198	0.144815	0.679817
C88	C	1.450198	0.644815	1.179817
N89	N	0.909081	0.210273	0.543573
N90	N	1.409081	0.710273	1.043573
N91	N	0.954593	0.137793	0.587307
N92	N	1.454593	0.637793	1.087307
H93	H	0.164217	0.179227	0.224423
H94	H	0.664217	0.679227	0.724423
H95	H	0.536758	0.185635	0.180369
H96	H	1.036758	0.685635	0.680369
F97	F	0.322711	0.185786	0.255214
F98	F	0.822711	0.685786	0.755214
F99	F	0.168437	0.155870	-0.080293
F100	F	0.668437	0.655870	0.419707
F101	F	1.078592	-0.214388	0.075738
F102	F	1.578592	0.285612	0.575738
H103	H	1.018080	0.036662	0.285222
H104	H	1.518080	0.536662	0.785222
F105	F	0.856642	-0.246491	0.060149
F106	F	1.356642	0.253509	0.560149
H107	H	1.046197	-0.008058	0.694981
H108	H	1.546197	0.491942	1.194981
H109	H	0.872160	-0.394304	0.061247
H110	H	1.372160	0.105696	0.561247
F111	F	1.023015	0.028809	0.461657
F112	F	1.523015	0.528809	0.961657
H113	H	0.326922	0.162401	-0.049506
H114	H	0.826922	0.662401	0.450494
F115	F	0.540969	0.162262	-0.124345
F116	F	1.040969	0.662262	0.375655
F117	F	1.051145	-0.015905	0.871425
F118	F	1.551145	0.484095	1.371425
H119	H	0.699458	0.168853	-0.093560
H120	H	1.199458	0.668853	0.406440
F121	F	0.831785	0.333440	0.856041
F122	F	1.331785	0.833440	1.356041
F123	F	0.812534	0.363976	0.259452
F124	F	1.312534	0.863976	0.759452
H125	H	1.056257	-0.476457	0.074174
H126	H	1.556257	0.023543	0.574174
H127	H	0.685892	0.190415	0.190840
H128	H	1.185892	0.690415	0.690840
F129	F	0.840657	0.319259	0.669224
F130	F	1.340657	0.819259	1.169224
H131	H	0.817482	0.356127	0.435896
H132	H	1.317482	0.856127	0.935896
