data_functionalizedCrystal
_audit_creation_method	'MofGen! by Chris Wilmer'
_symmetry_space_group_name_H-M	'P1'
_symmetry_Int_Tables_number	1
_symmetry_cell_setting	triclinic
loop_
_symmetry_equiv_pos_as_xyz
  x,y,z
_cell_length_a	13.897448
_cell_length_b	21.395364
_cell_length_c	21.395355
_cell_angle_alpha	89.975448
_cell_angle_beta	89.984371
_cell_angle_gamma	90.032644
loop_
_atom_site_label
_atom_site_type_symbol
_atom_site_fract_x
_atom_site_fract_y
_atom_site_fract_z
Zn1	Zn	-0.383742	0.957916	-0.354274
Zn2	Zn	0.116258	1.457916	0.145726
Zn3	Zn	-0.545021	0.957842	-0.249502
Zn4	Zn	-0.045021	1.457842	0.250498
Zn5	Zn	-0.383784	0.853131	-0.249511
Zn6	Zn	0.116216	1.353131	0.250489
Zn7	Zn	-0.545039	0.853124	-0.354242
Zn8	Zn	-0.045039	1.353124	0.145758
O9	O	-0.464396	0.905503	-0.301882
O10	O	0.035604	1.405503	0.198118
O11	O	-0.405111	1.045584	-0.340385
O12	O	0.094889	1.545584	0.159615
O13	O	-0.523643	0.943924	-0.161825
O14	O	-0.023643	1.443924	0.338175
O15	O	-0.248797	0.867065	-0.263425
O16	O	0.251203	1.367065	0.236575
O17	O	-0.523602	1.045530	-0.263410
O18	O	-0.023602	1.545530	0.236590
O19	O	-0.248766	0.944050	-0.340394
O20	O	0.251234	1.444050	0.159606
O21	O	-0.405183	0.866993	-0.161832
O22	O	0.094817	1.366993	0.338168
O23	O	-0.405200	0.765452	-0.263394
O24	O	0.094800	1.265452	0.236606
O25	O	-0.523632	0.867053	-0.441924
O26	O	-0.023632	1.367053	0.058076
O27	O	-0.523673	0.765447	-0.340340
O28	O	-0.023673	1.265447	0.159660
O29	O	-0.405128	0.944043	-0.441948
O30	O	0.094872	1.444043	0.058052
O31	O	-0.680005	0.943917	-0.263379
O32	O	-0.180005	1.443917	0.236621
O33	O	-0.680018	0.866981	-0.340331
O34	O	-0.180018	1.366981	0.159669
C35	C	-0.464443	0.742716	-0.301865
C36	C	0.035557	1.242716	0.198135
C37	C	-0.464487	0.673074	-0.301872
C38	C	0.035513	1.173074	0.198128
C39	C	-0.402889	0.640412	-0.342015
C40	C	0.097111	1.140412	0.157985
C41	C	-0.402864	0.574976	-0.342018
C42	C	0.097136	1.074976	0.157982
C43	C	-0.464453	0.542206	-0.301883
C44	C	0.035547	1.042206	0.198117
C45	C	-0.526054	0.574876	-0.261732
C46	C	-0.026054	1.074876	0.238268
C47	C	-0.526071	0.640311	-0.261727
C48	C	-0.026071	1.140311	0.238273
C49	C	-0.551319	0.438494	-0.296849
C50	C	-0.051319	0.938494	0.203151
C51	C	-0.551304	0.373061	-0.296859
C52	C	-0.051304	0.873061	0.203141
C53	C	-0.464400	0.340385	-0.301897
C54	C	0.035600	0.840385	0.198103
C55	C	-0.377508	0.373150	-0.306939
C56	C	0.122492	0.873150	0.193061
C57	C	-0.377525	0.438584	-0.306933
C58	C	0.122475	0.938584	0.193067
C59	C	-0.464441	0.471254	-0.301885
C60	C	0.035559	0.971254	0.198115
C61	C	-0.402769	0.236770	-0.342045
C62	C	0.097231	0.736770	0.157955
C63	C	-0.402742	0.171334	-0.342043
C64	C	0.097258	0.671334	0.157957
C65	C	-0.525941	0.171235	-0.261761
C66	C	-0.025941	0.671235	0.238239
C67	C	-0.525960	0.236670	-0.261760
C68	C	-0.025960	0.736670	0.238240
C69	C	-0.464375	0.269434	-0.301905
C70	C	0.035625	0.769434	0.198095
C71	C	-0.715011	0.905457	-0.301864
C72	C	-0.215011	1.405457	0.198136
C73	C	-0.822225	0.905495	-0.301877
C74	C	-0.322225	1.405495	0.198123
C75	C	-1.018520	0.905561	-0.301917
C76	C	-0.518520	1.405561	0.198083
C77	C	-0.909287	0.905523	-0.301897
C78	C	-0.409287	1.405523	0.198103
C79	C	-0.212803	0.905566	-0.301914
C80	C	0.287197	1.405566	0.198086
C81	C	-0.105590	0.905593	-0.301928
C82	C	0.394410	1.405593	0.198072
C83	C	-0.464377	0.905555	-0.465306
C84	C	0.035623	1.405555	0.034694
C85	C	-0.464369	0.905577	-0.534947
C86	C	0.035631	1.405577	-0.034947
C87	C	-0.464350	1.068926	-0.301900
C88	C	0.035650	1.568926	0.198100
C89	C	-0.464330	1.138568	-0.301908
C90	C	0.035670	1.638568	0.198092
C91	C	-0.402661	0.945664	-0.567673
C92	C	0.097339	1.445664	-0.067673
C93	C	-0.402619	0.945664	-0.633109
C94	C	0.097381	1.445664	-0.133109
C95	C	-0.464303	0.905582	-0.665815
C96	C	0.035697	1.405582	-0.165815
C97	C	-0.526015	0.865487	-0.633081
C98	C	-0.026015	1.365487	-0.133081
C99	C	-0.526048	0.865485	-0.567647
C100	C	-0.026048	1.365485	-0.067647
C101	C	-0.551157	0.900619	-0.769484
C102	C	-0.051157	1.400619	-0.269484
C103	C	-0.551126	0.900626	-0.834917
C104	C	-0.051126	1.400626	-0.334917
C105	C	-0.464201	0.905586	-0.867636
C106	C	0.035799	1.405586	-0.367636
C107	C	-0.377304	0.910553	-0.834915
C108	C	0.122696	1.410553	-0.334915
C109	C	-0.377337	0.910550	-0.769480
C110	C	0.122663	1.410550	-0.269480
C111	C	-0.464274	0.905580	-0.736768
C112	C	0.035726	1.405580	-0.236768
C113	C	-0.402443	0.945674	-0.971315
C114	C	0.097557	1.445674	-0.471315
C115	C	-0.402400	0.945669	-1.036752
C116	C	0.097600	1.445669	-0.536752
C117	C	-0.525804	0.865496	-1.036723
C118	C	-0.025804	1.365496	-0.536723
C119	C	-0.525838	0.865498	-0.971287
C120	C	-0.025838	1.365498	-0.471287
C121	C	-0.464159	0.905591	-0.938587
C122	C	0.035841	1.405591	-0.438587
C123	C	-0.464346	0.905487	-0.139095
C124	C	0.035654	1.405487	0.360905
C125	C	-0.464083	0.905587	-0.069454
C126	C	0.035917	1.405587	0.430546
H127	H	-0.352576	0.144741	-0.374732
H128	H	0.147424	0.644741	0.125268
O129	O	-0.644922	0.895263	-0.734201
O130	O	-0.144922	1.395263	-0.234201
H131	H	-0.654771	0.937227	-0.704400
H132	H	-0.154771	1.437227	-0.204400
O133	O	-0.335829	0.988904	-1.072049
O134	O	0.164171	1.488904	-0.572049
H135	H	-0.346154	0.982164	-1.123044
H136	H	0.153846	1.482164	-0.623044
H137	H	-0.352617	0.263448	-0.374730
H138	H	0.147383	0.763448	0.125270
O139	O	-0.592545	0.822253	-0.668351
O140	O	-0.092545	1.322253	-0.168351
H141	H	-0.582161	0.828993	-0.719351
H142	H	-0.082161	1.328993	-0.219351
H143	H	-0.576018	0.832855	-1.063352
H144	H	-0.076018	1.332855	-0.563352
O145	O	-0.592373	0.135901	-0.218472
O146	O	-0.092373	0.635901	0.281528
H147	H	-0.582017	0.084912	-0.225221
H148	H	-0.082017	0.584912	0.274779
O149	O	-0.335912	0.988906	-0.936038
O150	O	0.164088	1.488906	-0.436038
H151	H	-0.292981	1.016775	-0.969791
H152	H	0.207019	1.516775	-0.469791
O153	O	-0.592369	0.822244	-0.935983
O154	O	-0.092369	1.322244	-0.435983
H155	H	-0.635248	0.794367	-0.969717
H156	H	-0.135248	1.294367	-0.469717
H157	H	-0.306775	0.465259	-0.311036
H158	H	0.193225	0.965259	0.188964
H159	H	-0.306583	0.914592	-0.742841
H160	H	0.193417	1.414592	-0.242841
H161	H	-0.576233	0.666904	-0.229036
H162	H	-0.076233	1.166904	0.270964
H163	H	-0.576123	0.263264	-0.229074
H164	H	-0.076123	0.763264	0.270926
H165	H	-0.621882	0.896586	-0.861553
H166	H	-0.121882	1.396586	-0.361553
H167	H	-0.576296	0.832838	-0.541001
H168	H	-0.076296	1.332838	-0.041001
O169	O	-0.645066	0.473727	-0.291408
O170	O	-0.145066	0.973727	0.208592
H171	H	-0.643451	0.503509	-0.248956
H172	H	-0.143451	1.003509	0.251044
O173	O	-0.336451	0.675751	-0.385301
O174	O	0.163549	1.175751	0.114699
H175	H	-0.293604	0.642041	-0.413210
H176	H	0.206396	1.142041	0.086790
H177	H	-0.576200	0.548191	-0.229054
H178	H	-0.076200	1.048191	0.270946
H179	H	-0.352436	0.978310	-0.541053
H180	H	0.147564	1.478310	-0.041053
O181	O	-0.283532	0.915893	-0.870187
O182	O	0.216468	1.415893	-0.370187
H183	H	-0.273683	0.873916	-0.899970
H184	H	0.226317	1.373916	-0.399970
O185	O	-0.336432	0.539735	-0.385321
O186	O	0.163568	1.039735	0.114679
H187	H	-0.293617	0.573511	-0.413238
H188	H	0.206383	1.073511	0.086762
H189	H	-0.306742	0.346546	-0.311042
H190	H	0.193258	0.846546	0.188958
O191	O	-0.645014	0.337723	-0.291409
O192	O	-0.145014	0.837723	0.208591
H193	H	-0.705445	0.371436	-0.287887
H194	H	-0.205445	0.871436	0.212113
H195	H	-0.352364	0.978306	-0.659760
H196	H	0.147636	1.478306	-0.159760
