data_functionalizedCrystal
_audit_creation_method	'MofGen! by Chris Wilmer'
_symmetry_space_group_name_H-M	'P1'
_symmetry_Int_Tables_number	1
_symmetry_cell_setting	triclinic
loop_
_symmetry_equiv_pos_as_xyz
  x,y,z
_cell_length_a	19.188933
_cell_length_b	19.188924
_cell_length_c	18.266242
_cell_angle_alpha	89.991576
_cell_angle_beta	89.992377
_cell_angle_gamma	83.143767
loop_
_atom_site_label
_atom_site_type_symbol
_atom_site_fract_x
_atom_site_fract_y
_atom_site_fract_z
O1	O	0.926146	0.087175	-0.060860
O2	O	1.426146	0.587175	0.439140
O3	O	0.722835	0.098908	-0.060867
O4	O	1.222835	0.598908	0.439133
O5	O	0.830360	-0.008614	-0.060855
O6	O	1.330360	0.491386	0.439145
O7	O	0.818621	0.194698	-0.060872
O8	O	1.318621	0.694698	0.439128
O9	O	0.830342	-0.008620	0.060907
O10	O	1.330342	0.491380	0.560907
O11	O	0.722817	0.098903	0.060895
O12	O	1.222817	0.598903	0.560895
O13	O	0.926128	0.087170	0.060902
O14	O	1.426128	0.587170	0.560902
Zn15	Zn	0.824469	0.093036	0.080231
Zn16	Zn	1.324469	0.593036	0.580231
Zn17	Zn	0.824493	0.093043	-0.080196
Zn18	Zn	1.324493	0.593043	0.419804
O19	O	0.818603	0.194692	0.060890
O20	O	1.318603	0.694692	0.560890
C21	C	0.696815	0.098525	0.000013
C22	C	1.196815	0.598525	0.500013
C23	C	0.619310	0.097384	0.000011
C24	C	1.119310	0.597384	0.500011
C25	C	0.066065	0.089242	-0.066353
C26	C	0.566065	0.589242	0.433647
C27	C	0.138889	0.090310	-0.066356
C28	C	0.638889	0.590310	0.433644
C29	C	0.175296	0.090844	0.000016
C30	C	0.675296	0.590844	0.500016
C31	C	0.138876	0.090293	0.066396
C32	C	0.638876	0.590293	0.566396
C33	C	0.066054	0.089217	0.066397
C34	C	0.566054	0.589217	0.566397
N35	N	0.284308	0.132261	0.049416
N36	N	0.784308	0.632261	0.549416
N37	N	0.353486	0.133284	0.049411
N38	N	0.853486	0.633284	0.549411
C39	C	0.394705	0.094082	0.000017
C40	C	0.894705	0.594082	0.500017
N41	N	0.364132	0.053828	-0.049382
N42	N	0.864132	0.553828	0.450618
N43	N	0.294948	0.052808	-0.049379
N44	N	0.794948	0.552808	0.450621
C45	C	0.254260	0.092010	0.000022
C46	C	0.754260	0.592010	0.500022
C47	C	0.510082	0.095787	-0.066362
C48	C	1.010082	0.595787	0.433638
C49	C	0.582908	0.096851	-0.066362
C50	C	1.082908	0.596851	0.433638
C51	C	0.582892	0.096841	0.066392
C52	C	1.082892	0.596841	0.566392
C53	C	0.510068	0.095770	0.066390
C54	C	1.010068	0.595770	0.566390
C55	C	0.473667	0.095246	0.000011
C56	C	0.973667	0.595246	0.500011
C57	C	0.829972	-0.034628	0.000027
C58	C	1.329972	0.465372	0.500027
C59	C	0.828833	-0.112133	0.000029
C60	C	1.328833	0.387867	0.500029
C61	C	0.828311	-0.148529	-0.066344
C62	C	1.328311	0.351471	0.433656
C63	C	0.827231	-0.221351	-0.066349
C64	C	1.327231	0.278649	0.433651
C65	C	0.826687	-0.257777	0.000021
C66	C	1.326687	0.242223	0.500021
C67	C	0.827205	-0.221372	0.066403
C68	C	1.327205	0.278628	0.566403
C69	C	0.828278	-0.148550	0.066407
C70	C	1.328278	0.351450	0.566407
N71	N	0.864728	-0.377442	0.049421
N72	N	1.364728	0.122558	0.549421
N73	N	0.863710	-0.446621	0.049413
N74	N	1.363710	0.053379	0.549413
C75	C	0.823453	-0.477186	0.000014
C76	C	1.323453	0.022814	0.500014
N77	N	0.784261	-0.435962	-0.049387
N78	N	1.284261	0.064038	0.450613
N79	N	0.785282	-0.366777	-0.049381
N80	N	1.285282	0.133223	0.450619
C81	C	0.825523	-0.336741	0.000025
C82	C	1.325523	0.163259	0.500025
C83	C	0.821760	-0.592545	-0.066369
C84	C	1.321760	-0.092545	0.433631
C85	C	0.820675	-0.665368	-0.066372
C86	C	1.320675	-0.165368	0.433628
C87	C	0.820656	-0.665389	0.066382
C88	C	1.320656	-0.165389	0.566382
C89	C	0.821733	-0.592566	0.066383
C90	C	1.321733	-0.092566	0.566383
C91	C	0.822288	-0.556149	0.000006
C92	C	1.322288	-0.056149	0.500006
C93	C	0.952148	0.087553	0.000020
C94	C	1.452148	0.587553	0.500020
C95	C	1.029653	0.088694	0.000018
C96	C	1.529653	0.588694	0.500018
C97	C	0.818991	0.220706	0.000006
C98	C	1.318991	0.720706	0.500006
C99	C	0.820130	0.298211	-0.000000
C100	C	1.320130	0.798211	0.500000
N101	N	0.824458	0.093030	0.189718
N102	N	1.324458	0.593030	0.689718
N103	N	0.824510	0.093043	-0.189683
N104	N	1.324510	0.593043	0.310317
C105	C	0.872086	0.045442	0.228032
C106	C	1.372086	0.545442	0.728032
C107	C	0.872090	0.045439	0.304677
C108	C	1.372090	0.545439	0.804677
C109	C	0.824474	0.093036	0.343005
C110	C	1.324474	0.593036	0.843005
C111	C	0.776837	0.140627	0.304681
C112	C	1.276837	0.640627	0.804681
C113	C	0.776829	0.140624	0.228038
C114	C	1.276829	0.640624	0.728038
N115	N	0.815397	0.154843	0.463331
N116	N	1.315397	0.654843	0.963331
N117	N	0.815408	0.154844	0.536140
N118	N	1.315408	0.654844	1.036140
C119	C	0.824493	0.093046	0.573927
C120	C	1.324493	0.593046	1.073927
N121	N	0.833580	0.031245	0.536156
N122	N	1.333580	0.531245	1.036156
N123	N	0.833572	0.031246	0.463341
N124	N	1.333572	0.531246	0.963341
C125	C	0.824477	0.093044	0.426112
C126	C	1.324477	0.593044	0.926112
C127	C	0.872129	0.045451	0.695349
C128	C	1.372129	0.545451	1.195349
C129	C	0.872128	0.045446	0.771995
C130	C	1.372128	0.545446	1.271995
C131	C	0.776878	0.140640	0.771997
C132	C	1.276878	0.640640	1.271997
C133	C	0.776875	0.140638	0.695353
C134	C	1.276875	0.640638	1.195353
C135	C	0.824504	0.093044	0.657033
C136	C	1.324504	0.593044	1.157033
H137	H	0.480420	0.095326	0.120437
H138	H	0.980420	0.595326	0.620437
C139	C	0.681808	0.156029	0.609180
C140	C	1.181808	0.656029	1.109180
C141	C	0.724529	0.192957	0.653231
C142	C	1.224529	0.692957	1.153231
H143	H	0.649488	0.188331	0.583179
H144	H	1.149488	0.688331	1.083179
H145	H	0.710167	0.127688	0.575391
H146	H	1.210167	0.627688	1.075391
H147	H	0.656786	0.127033	0.639098
H148	H	1.156786	0.627033	1.139098
H149	H	0.749555	0.221949	0.623312
H150	H	1.249555	0.721949	1.123312
H151	H	0.696167	0.221310	0.687023
H152	H	1.196167	0.721310	1.187023
C153	C	0.035631	0.148922	-0.179514
C154	C	0.535631	0.648922	0.320486
C155	C	0.026059	0.088655	-0.139318
C156	C	0.526059	0.588655	0.360682
H157	H	0.010936	0.148554	-0.224561
H158	H	0.510936	0.648554	0.275439
H159	H	0.018235	0.189443	-0.152247
H160	H	0.518235	0.689443	0.347753
H161	H	0.084216	0.149635	-0.189003
H162	H	0.584216	0.649635	0.310997
H163	H	-0.022526	0.087944	-0.129824
H164	H	0.477474	0.587944	0.370176
H165	H	0.043452	0.048124	-0.166591
H166	H	0.543452	0.548124	0.333409
H167	H	0.480443	0.095359	-0.120412
H168	H	0.980443	0.595359	0.379588
H169	H	0.612555	0.097292	-0.120412
H170	H	1.112555	0.597292	0.379588
H171	H	0.738105	0.179391	0.803203
H172	H	1.238105	0.679391	1.303203
C173	C	0.823461	-0.480908	-0.125310
C174	C	1.323461	0.019092	0.374690
C175	C	0.822389	-0.552511	-0.139328
C176	C	1.322389	-0.052511	0.360672
H177	H	0.823861	-0.456198	-0.170352
H178	H	1.323861	0.043802	0.329648
H179	H	0.782922	-0.463520	-0.098061
H180	H	1.282922	0.036480	0.401939
H181	H	0.864335	-0.474448	-0.098017
H182	H	1.364335	0.025552	0.401983
H183	H	0.781512	-0.558973	-0.166616
H184	H	1.281512	-0.058973	0.333384
H185	H	0.862931	-0.569905	-0.166589
H186	H	1.362931	-0.069905	0.333411
H187	H	0.168542	0.090760	-0.120405
H188	H	0.668542	0.590760	0.379595
H189	H	0.910909	0.006694	0.664147
H190	H	1.410909	0.506694	1.164147
H191	H	0.910876	0.006686	0.335878
H192	H	1.410876	0.506686	0.835878
H193	H	0.910910	0.006691	0.803191
H194	H	1.410910	0.506691	1.303191
C195	C	0.250499	0.091947	0.125338
C196	C	0.750499	0.591947	0.625338
C197	C	0.178891	0.090883	0.139354
C198	C	0.678891	0.590883	0.639354
H199	H	0.275201	0.092313	0.170382
H200	H	0.775201	0.592313	0.670382
H201	H	0.267884	0.051422	0.098072
H202	H	0.767884	0.551422	0.598072
H203	H	0.256976	0.132835	0.098063
H204	H	0.756976	0.632835	0.598063
H205	H	0.172414	0.049992	0.166624
H206	H	0.672414	0.549992	0.666624
H207	H	0.161501	0.131411	0.166631
H208	H	0.661501	0.631411	0.666631
H209	H	0.612534	0.097273	0.120433
H210	H	1.112534	0.597273	0.620433
C211	C	0.825603	-0.332979	-0.125294
C212	C	1.325603	0.167021	0.374706
C213	C	0.826661	-0.261371	-0.139311
C214	C	1.326661	0.238629	0.360689
H215	H	0.825248	-0.357682	-0.170338
H216	H	1.325248	0.142318	0.329662
H217	H	0.866124	-0.350360	-0.098020
H218	H	1.366124	0.149640	0.401980
H219	H	0.784712	-0.339460	-0.098028
H220	H	1.284712	0.160540	0.401972
H221	H	0.867556	-0.254889	-0.166572
H222	H	1.367556	0.245111	0.333428
H223	H	0.786136	-0.243985	-0.166596
H224	H	1.286136	0.256015	0.333404
H225	H	0.036407	0.088774	0.120446
H226	H	0.536407	0.588774	0.620446
C227	C	0.760378	-0.679729	-0.179543
C228	C	1.260378	-0.179729	0.320457
C229	C	0.820109	-0.705374	-0.139338
C230	C	1.320109	-0.205374	0.360662
H231	H	0.760035	-0.704424	-0.224592
H232	H	1.260035	-0.204424	0.275408
H233	H	0.719494	-0.686225	-0.152285
H234	H	1.219494	-0.186225	0.347715
H235	H	0.761105	-0.631145	-0.189029
H236	H	1.261105	-0.131145	0.310971
H237	H	0.819380	-0.753957	-0.129847
H238	H	1.319380	-0.253957	0.370153
H239	H	0.861004	-0.698884	-0.166602
H240	H	1.361004	-0.198884	0.333398
C241	C	0.828221	-0.155829	-0.197565
C242	C	1.328221	0.344171	0.302435
C243	C	0.828911	-0.108499	-0.139305
C244	C	1.328911	0.391501	0.360695
H245	H	0.828585	-0.131112	-0.242607
H246	H	1.328585	0.368888	0.257393
H247	H	0.868507	-0.189678	-0.194803
H248	H	1.368507	0.310322	0.305197
H249	H	0.787095	-0.178786	-0.194799
H250	H	1.287095	0.321214	0.305201
H251	H	0.870040	-0.085545	-0.142067
H252	H	1.370040	0.414455	0.357933
H253	H	0.788620	-0.074637	-0.142068
H254	H	1.288620	0.425363	0.357932
C255	C	0.768583	-0.118112	0.179555
C256	C	1.268583	0.381888	0.679555
C257	C	0.828855	-0.108540	0.139369
C258	C	1.328855	0.391460	0.639369
H259	H	0.768943	-0.093413	0.224601
H260	H	1.268943	0.406587	0.724601
H261	H	0.728066	-0.100720	0.152281
H262	H	1.228066	0.399280	0.652281
H263	H	0.767871	-0.166697	0.189048
H264	H	1.267871	0.333303	0.689048
H265	H	0.829564	-0.059955	0.129871
H266	H	1.329564	0.440045	0.629871
H267	H	0.869382	-0.125929	0.166649
H268	H	1.369382	0.374071	0.666649
C269	C	0.825558	-0.333014	0.125341
C270	C	1.325558	0.166986	0.625341
C271	C	0.826606	-0.261409	0.139359
C272	C	1.326606	0.238591	0.639359
H273	H	0.825189	-0.357729	0.170383
H274	H	1.325189	0.142271	0.670383
H275	H	0.784684	-0.339492	0.098069
H276	H	1.284684	0.160508	0.598069
H277	H	0.866097	-0.350386	0.098071
H278	H	1.366097	0.149614	0.598071
H279	H	0.786064	-0.244035	0.166624
H280	H	1.286064	0.255965	0.666624
H281	H	0.867484	-0.254927	0.166643
H282	H	1.367484	0.245073	0.666643
C283	C	0.734565	0.182905	0.422172
C284	C	1.234565	0.682905	0.922172
C285	C	0.724498	0.192948	0.346808
C286	C	1.224498	0.692948	0.846808
H287	H	0.702252	0.215209	0.448177
H288	H	1.202252	0.715209	0.948177
H289	H	0.727129	0.136331	0.434742
H290	H	1.227129	0.636331	0.934742
H291	H	0.781140	0.190376	0.434710
H292	H	1.281140	0.690376	0.934710
H293	H	0.677924	0.185472	0.334270
H294	H	1.177924	0.685472	0.834270
H295	H	0.731928	0.239533	0.334233
H296	H	1.231928	0.739533	0.834233
C297	C	0.818976	-0.777021	0.125322
C298	C	1.318976	-0.277021	0.625322
C299	C	0.820037	-0.705417	0.139340
C300	C	1.320037	-0.205417	0.639340
H301	H	0.818590	-0.801733	0.170365
H302	H	1.318590	-0.301733	0.670365
H303	H	0.778106	-0.783490	0.098039
H304	H	1.278106	-0.283490	0.598039
H305	H	0.859519	-0.794403	0.098064
H306	H	1.359519	-0.294403	0.598064
H307	H	0.779491	-0.688033	0.166593
H308	H	1.279491	-0.188033	0.666593
H309	H	0.860911	-0.698944	0.166634
H310	H	1.360911	-0.198944	0.666634
C311	C	0.821620	-0.599905	0.197600
C312	C	1.321620	-0.099905	0.697600
C313	C	0.822322	-0.552556	0.139343
C314	C	1.322322	-0.052556	0.639343
H315	H	0.821988	-0.575204	0.242644
H316	H	1.321988	-0.075204	0.742644
H317	H	0.780497	-0.622854	0.194841
H318	H	1.280497	-0.122854	0.694841
H319	H	0.861909	-0.633761	0.194830
H320	H	1.361909	-0.133761	0.694830
H321	H	0.782030	-0.518703	0.142110
H322	H	1.282030	-0.018703	0.642110
H323	H	0.863450	-0.529596	0.142104
H324	H	1.363450	-0.029596	0.642104
C325	C	0.966235	-0.048653	0.235734
C326	C	1.466235	0.451347	0.735734
C327	C	0.924432	-0.006880	0.185912
C328	C	1.424432	0.493120	0.685912
H329	H	0.998547	-0.080957	0.209728
H330	H	1.498547	0.419043	0.709728
H331	H	0.991260	-0.019648	0.265611
H332	H	1.491260	0.480352	0.765611
H333	H	0.937247	-0.073691	0.265644
H334	H	1.437247	0.426309	0.765644
H335	H	0.953419	0.018163	0.156005
H336	H	1.453419	0.518163	0.656005
H337	H	0.899405	-0.035888	0.156023
H338	H	1.399405	0.464112	0.656023
C339	C	0.682682	0.234719	0.235740
C340	C	1.182682	0.734719	0.735740
C341	C	0.724478	0.192942	0.185918
C342	C	1.224478	0.692942	0.685918
H343	H	0.650367	0.267021	0.209735
H344	H	1.150367	0.767021	0.709735
H345	H	0.657661	0.205718	0.265641
H346	H	1.157661	0.705718	0.765641
H347	H	0.711673	0.259761	0.265626
H348	H	1.211673	0.759761	0.765626
H349	H	0.695487	0.167896	0.156035
H350	H	1.195487	0.667896	0.656035
H351	H	0.749501	0.221947	0.156004
H352	H	1.249501	0.721947	0.656004
