data_functionalizedCrystal
_audit_creation_method	'MofGen! by Chris Wilmer'
_symmetry_space_group_name_H-M	'P1'
_symmetry_Int_Tables_number	1
_symmetry_cell_setting	triclinic
loop_
_symmetry_equiv_pos_as_xyz
  x,y,z
_cell_length_a	31.640172
_cell_length_b	23.096457
_cell_length_c	31.640172
_cell_angle_alpha	60.012858
_cell_angle_beta	90.011976
_cell_angle_gamma	59.998714
loop_
_atom_site_label
_atom_site_type_symbol
_atom_site_fract_x
_atom_site_fract_y
_atom_site_fract_z
Zr1	Zr	0.407192	0.633644	-0.055385
Zr2	Zr	0.907192	1.133644	0.444615
O3	O	0.339701	0.754423	-0.122869
O4	O	0.839701	1.254423	0.377131
O5	O	0.427879	0.512860	-0.034700
O6	O	0.927879	1.012860	0.465300
O7	O	0.427878	0.633622	-0.122861
O8	O	0.927878	1.133622	0.377139
O9	O	0.339705	0.633680	0.034838
O10	O	0.839705	1.133680	0.534838
O11	O	0.497435	0.633610	-0.122852
O12	O	0.997435	1.133610	0.377148
O13	O	0.339703	0.633661	-0.034708
O14	O	0.839703	1.133661	0.465292
O15	O	0.497437	0.417589	0.034852
O16	O	0.997437	0.917589	0.534852
O17	O	0.339703	0.849701	-0.122866
O18	O	0.839703	1.349701	0.377134
O19	O	0.488614	0.562533	-0.025868
O20	O	0.988614	1.062533	0.474132
O21	O	0.436706	0.562556	0.026026
O22	O	0.936706	1.062556	0.526026
O23	O	0.436705	0.704737	-0.077772
O24	O	0.936705	1.204737	0.422228
O25	O	0.384797	0.704761	-0.025878
O26	O	0.884797	1.204761	0.474122
Zr27	Zr	0.518131	0.633655	0.055547
Zr28	Zr	1.018131	1.133655	0.555547
Zr29	Zr	0.518127	0.633625	-0.055370
Zr30	Zr	1.018127	1.133625	0.444630
Zr31	Zr	0.407196	0.633674	0.055532
Zr32	Zr	0.907196	1.133674	0.555532
Zr33	Zr	0.407194	0.785601	-0.055380
Zr34	Zr	0.907194	1.285601	0.444620
Zr35	Zr	0.518129	0.481698	0.055543
Zr36	Zr	1.018129	0.981698	0.555543
O37	O	0.497444	0.754439	0.034862
O38	O	0.997444	1.254439	0.534862
O39	O	0.497437	0.754396	-0.122848
O40	O	0.997437	1.254396	0.377152
O41	O	0.339708	0.754466	0.034841
O42	O	0.839708	1.254466	0.534841
O43	O	0.585621	0.512876	0.123031
O44	O	1.085621	1.012876	0.623031
O45	O	0.585615	0.512833	-0.034679
O46	O	1.085615	1.012833	0.465321
O47	O	0.427885	0.512903	0.123010
O48	O	0.927885	1.012903	0.623010
O49	O	0.585617	0.633619	-0.034675
O50	O	1.085617	1.133619	0.465325
O51	O	0.497445	0.633677	0.123023
O52	O	0.997445	1.133677	0.623023
O53	O	0.427888	0.633689	0.123014
O54	O	0.927888	1.133689	0.623014
O55	O	0.585620	0.633638	0.034870
O56	O	1.085620	1.133638	0.534870
O57	O	0.427882	0.849686	-0.122854
O58	O	0.927882	1.349686	0.377146
O59	O	0.497441	0.417613	0.123017
O60	O	0.997441	0.917613	0.623017
O61	O	0.585620	0.417598	0.123028
O62	O	1.085620	0.917598	0.623028
O63	O	0.585616	0.417574	0.034864
O64	O	1.085616	0.917574	0.534864
O65	O	0.339707	0.849725	-0.034701
O66	O	0.839707	1.349725	0.465299
O67	O	0.427886	0.849710	-0.034690
O68	O	0.927886	1.349710	0.465310
O69	O	0.488618	0.562561	0.077934
O70	O	0.988618	1.062561	0.577934
O71	O	0.540526	0.562538	0.026040
O72	O	1.040526	1.062538	0.526040
O73	O	0.488617	0.704743	-0.025864
O74	O	0.988617	1.204743	0.474136
O75	O	0.436709	0.704766	0.026030
O76	O	0.936709	1.204766	0.526030
C77	C	0.462658	0.443574	0.000075
C78	C	0.962658	0.943574	0.500075
C79	C	0.462657	0.379064	0.000073
C80	C	0.962657	0.879064	0.500073
C81	C	0.489748	0.348751	-0.027017
C82	C	0.989748	0.848751	0.472983
C83	C	0.489753	0.288129	-0.027013
C84	C	0.989753	0.788129	0.472987
C85	C	0.462657	0.257833	0.000075
C86	C	0.962657	0.757833	0.500075
C87	C	0.435564	0.288150	0.027171
C88	C	0.935564	0.788150	0.527171
C89	C	0.435564	0.348766	0.027170
C90	C	0.935564	0.848766	0.527170
N91	N	0.418560	0.195444	-0.003688
N92	N	0.918560	0.695444	0.496312
N93	N	0.418561	0.137863	-0.003690
N94	N	0.918561	0.637863	0.496310
C95	C	0.462656	0.075201	0.000080
C96	C	0.962656	0.575201	0.500080
N97	N	0.506750	0.072303	0.003841
N98	N	1.006750	0.572303	0.503841
N99	N	0.506748	0.129891	0.003840
N100	N	1.006748	0.629891	0.503840
C101	C	0.462654	0.192106	0.000079
C102	C	0.962654	0.692106	0.500079
C103	C	0.489756	-0.020846	-0.027007
C104	C	0.989756	0.479154	0.472993
C105	C	0.489762	-0.081473	-0.026999
C106	C	0.989762	0.418527	0.473001
C107	C	0.435568	-0.081444	0.027181
C108	C	0.935568	0.418556	0.527181
C109	C	0.435566	-0.020824	0.027176
C110	C	0.935566	0.479176	0.527176
C111	C	0.462659	0.009474	0.000079
C112	C	0.962659	0.509474	0.500079
C113	C	0.323898	0.633673	0.000063
C114	C	0.823898	1.133673	0.500063
C115	C	0.276803	0.633681	0.000056
C116	C	0.776803	1.133681	0.500056
C117	C	0.011893	0.559412	0.027185
C118	C	0.511893	1.059412	0.527185
C119	C	-0.165092	0.559398	0.027195
C120	C	0.334908	1.059398	0.527195
O121	O	-0.164934	0.496268	0.050256
O122	O	0.335066	0.996268	0.550256
N123	N	-0.214318	0.633627	0.000101
N124	N	0.285682	1.133627	0.500101
C125	C	-0.219296	0.707864	-0.026994
C126	C	0.280704	1.207864	0.473006
O127	O	-0.265227	0.771000	-0.050035
O128	O	0.234773	1.271000	0.449965
C129	C	-0.042312	0.707878	-0.027001
C130	C	0.457688	1.207878	0.472999
C131	C	0.006913	0.633644	0.000090
C132	C	0.506913	1.133644	0.500090
C133	C	0.061116	0.485185	0.054274
C134	C	0.561116	0.985185	0.554274
C135	C	0.105359	0.485189	0.054269
C136	C	0.605359	0.985189	0.554269
C137	C	0.100380	0.559421	0.027175
C138	C	0.600380	1.059421	0.527175
C139	C	0.051157	0.633648	0.000085
C140	C	0.551157	1.133648	0.500085
C141	C	-0.047291	0.782114	-0.054094
C142	C	0.452709	1.282114	0.445906
C143	C	-0.003040	0.782111	-0.054092
C144	C	0.496960	1.282111	0.445908
C145	C	0.046186	0.707878	-0.027000
C146	C	0.546186	1.207878	0.473000
C147	C	0.090420	0.707885	-0.027015
C148	C	0.590420	1.207885	0.472985
N149	N	0.139646	0.633656	0.000079
N150	N	0.639646	1.133656	0.500079
C151	C	0.144626	0.559424	0.027174
C152	C	0.644626	1.059424	0.527174
C153	C	-0.312214	0.707852	-0.026990
C154	C	0.187786	1.207852	0.473010
C155	C	-0.356460	0.707849	-0.026989
C156	C	0.143540	1.207849	0.473011
C157	C	-0.302252	0.559382	0.027202
C158	C	0.197748	1.059382	0.527202
C159	C	-0.258006	0.559386	0.027197
C160	C	0.241994	1.059386	0.527197
C161	C	-0.262988	0.633623	0.000104
C162	C	0.237012	1.133623	0.500104
C163	C	0.237538	0.559439	0.027160
C164	C	0.737538	1.059439	0.527160
C165	C	0.281783	0.559450	0.027151
C166	C	0.781783	1.059450	0.527151
C167	C	0.227572	0.707916	-0.027037
C168	C	0.727572	1.207916	0.472963
C169	C	0.183330	0.707905	-0.027030
C170	C	0.683330	1.207905	0.472970
C171	C	0.188317	0.633660	0.000073
C172	C	0.688317	1.133660	0.500073
O173	O	0.090301	0.770981	-0.050059
O174	O	0.590301	1.270981	0.449941
O175	O	0.190560	0.496298	0.050220
O176	O	0.690560	0.996298	0.550220
C177	C	-0.032350	0.559408	0.027190
C178	C	0.467650	1.059408	0.527190
C179	C	-0.081573	0.633636	0.000100
C180	C	0.418427	1.133636	0.500100
C181	C	-0.086553	0.707867	-0.026994
C182	C	0.413447	1.207867	0.473006
C183	C	-0.125819	0.633632	0.000101
C184	C	0.374181	1.133632	0.500101
C185	C	-0.120840	0.559401	0.027196
C186	C	0.379160	1.059401	0.527196
C187	C	-0.071614	0.485172	0.054290
C188	C	0.428386	0.985172	0.554290
C189	C	-0.027371	0.485176	0.054285
C190	C	0.472629	0.985176	0.554285
C191	C	-0.135779	0.782096	-0.054088
C192	C	0.364221	1.282096	0.445912
C193	C	-0.180020	0.782086	-0.054081
C194	C	0.319980	1.282086	0.445919
C195	C	-0.175040	0.707854	-0.026987
C196	C	0.324960	1.207854	0.473013
C197	C	0.601425	0.633625	0.000100
C198	C	1.101425	1.133625	0.500100
C199	C	0.648520	0.633617	0.000106
C200	C	1.148520	1.133617	0.500106
C201	C	0.462656	0.633611	-0.138660
C202	C	0.962656	1.133611	0.361340
C203	C	0.462654	0.633599	-0.185747
C204	C	0.962654	1.133599	0.314253
C205	C	0.462665	0.823725	0.000087
C206	C	0.962665	1.323725	0.500087
C207	C	0.462666	0.888235	0.000089
C208	C	0.962666	1.388235	0.500089
C209	C	0.489769	0.559414	-0.494959
C210	C	0.989769	1.059414	0.005041
C211	C	0.489761	0.559389	-0.317960
C212	C	0.989761	1.059389	0.182040
O213	O	0.512820	0.496258	-0.272034
O214	O	1.012820	0.996258	0.227966
N215	N	0.462663	0.633616	-0.322919
N216	N	0.962663	1.133616	0.177081
C217	C	0.435569	0.707855	-0.372133
C218	C	0.935569	1.207855	0.127867
O219	O	0.412525	0.770990	-0.372290
O220	O	0.912525	1.270990	0.127710
C221	C	0.435580	0.707879	-0.549132
C222	C	0.935580	1.207879	-0.049132
C223	C	0.462675	0.633647	-0.544168
C224	C	0.962675	1.133647	-0.044168
C225	C	0.516862	0.485187	-0.489998
C226	C	1.016862	0.985187	0.010002
C227	C	0.516861	0.485194	-0.534245
C228	C	1.016861	0.985194	-0.034245
C229	C	0.489767	0.559427	-0.583454
C230	C	0.989767	1.059427	-0.083454
C231	C	0.462674	0.633654	-0.588415
C232	C	0.962674	1.133654	-0.088415
C233	C	0.408488	0.782117	-0.598344
C234	C	0.908488	1.282117	-0.098344
C235	C	0.408495	0.782116	-0.642594
C236	C	0.908495	1.282116	-0.142594
C237	C	0.435590	0.707884	-0.637631
C238	C	0.935590	1.207884	-0.137631
C239	C	0.435580	0.707894	-0.681872
C240	C	0.935580	1.207894	-0.181872
N241	N	0.462677	0.633666	-0.676912
N242	N	0.962677	1.133666	-0.176912
C243	C	0.489771	0.559433	-0.627703
C244	C	0.989771	1.059433	-0.127703
C245	C	0.435564	0.707837	-0.279205
C246	C	0.935564	1.207837	0.220795
C247	C	0.435560	0.707832	-0.234956
C248	C	0.935560	1.207832	0.265044
C249	C	0.489753	0.559365	-0.180785
C250	C	0.989753	1.059365	0.319215
C251	C	0.489754	0.559372	-0.225036
C252	C	0.989754	1.059372	0.274964
C253	C	0.462661	0.633610	-0.274245
C254	C	0.962661	1.133610	0.225755
C255	C	0.489767	0.559453	-0.720628
C256	C	0.989767	1.059453	-0.220628
C257	C	0.489763	0.559467	-0.764882
C258	C	0.989763	1.059467	-0.264882
C259	C	0.435572	0.707933	-0.819048
C260	C	0.935572	1.207933	-0.319048
C261	C	0.435574	0.707920	-0.774799
C262	C	0.935574	1.207920	-0.274799
C263	C	0.462676	0.633674	-0.725587
C264	C	0.962676	1.133674	-0.225587
O265	O	0.412537	0.770992	-0.727813
O266	O	0.912537	1.270992	-0.227813
O267	O	0.512821	0.496308	-0.627557
O268	O	1.012821	0.996308	-0.127557
C269	C	0.489769	0.559407	-0.450712
C270	C	0.989769	1.059407	0.049288
C271	C	0.462676	0.633633	-0.455673
C272	C	0.962676	1.133633	0.044327
C273	C	0.435582	0.707866	-0.504882
C274	C	0.935582	1.207866	-0.004882
C275	C	0.462672	0.633627	-0.411424
C276	C	0.962672	1.133627	0.088576
C277	C	0.489766	0.559394	-0.362215
C278	C	0.989766	1.059394	0.137785
C279	C	0.516864	0.485167	-0.357256
C280	C	1.016864	0.985167	0.142744
C281	C	0.516863	0.485174	-0.401503
C282	C	1.016863	0.985174	0.098497
C283	C	0.408485	0.782094	-0.509841
C284	C	0.908485	1.282094	-0.009841
C285	C	0.408487	0.782081	-0.465592
C286	C	0.908487	1.282081	0.034408
C287	C	0.435581	0.707847	-0.416383
C288	C	0.935581	1.207847	0.083617
C289	C	0.462667	0.633687	0.138822
C290	C	0.962667	1.133687	0.638822
C291	C	0.462669	0.633700	0.185909
C292	C	0.962669	1.133700	0.685909
C293	C	0.601421	0.443550	0.000094
C294	C	1.101421	0.943550	0.500094
C295	C	0.648515	0.379032	0.000098
C296	C	1.148515	0.879032	0.500098
C297	C	0.462663	0.443612	0.138816
C298	C	0.962663	0.943612	0.638816
C299	C	0.462664	0.379115	0.185901
C300	C	0.962664	0.879115	0.685901
C301	C	0.601427	0.443588	0.138835
C302	C	1.101427	0.943588	0.638835
C303	C	0.648522	0.379083	0.185926
C304	C	1.148522	0.879083	0.685926
C305	C	0.323896	0.823711	-0.138672
C306	C	0.823896	1.323711	0.361328
C307	C	0.276801	0.888216	-0.185764
C308	C	0.776801	1.388216	0.314236
C309	C	0.323902	0.823749	0.000069
C310	C	0.823902	1.323749	0.500069
C311	C	0.276808	0.888267	0.000064
C312	C	0.776808	1.388267	0.500064
C313	C	0.462660	0.823687	-0.138654
C314	C	0.962660	1.323687	0.361346
C315	C	0.462659	0.888184	-0.185739
C316	C	0.962659	1.388184	0.314261
C317	C	0.643533	0.348731	-0.027000
C318	C	1.143533	0.848731	0.473000
C319	C	0.687779	0.288118	-0.027006
C320	C	1.187779	0.788118	0.472994
C321	C	0.737005	0.257803	0.000089
C322	C	1.237005	0.757803	0.500089
C323	C	0.741986	0.288110	0.027188
C324	C	1.241986	0.788110	0.527188
C325	C	0.697741	0.348726	0.027191
C326	C	1.197741	0.848726	0.527191
C327	C	0.489762	0.348829	0.235113
C328	C	0.989762	0.848829	0.735113
C329	C	0.489760	0.288236	0.279359
C330	C	0.989760	0.788236	0.779359
C331	C	0.462664	0.257925	0.274392
C332	C	0.962664	0.757925	0.774392
C333	C	0.435563	0.288217	0.225175
C334	C	0.935563	0.788217	0.725175
C335	C	0.435562	0.348813	0.180930
C336	C	0.935562	0.848813	0.680930
C337	C	0.697739	0.348778	0.180953
C338	C	1.197739	0.848778	0.680953
C339	C	0.741994	0.288177	0.225196
C340	C	1.241994	0.788177	0.725196
C341	C	0.737032	0.257878	0.274412
C342	C	1.237032	0.757878	0.774412
C343	C	0.687811	0.288188	0.279385
C344	C	1.187811	0.788188	0.779385
C345	C	0.643556	0.348792	0.235142
C346	C	1.143556	0.848792	0.735142
C347	C	0.227584	0.918528	-0.180790
C348	C	0.727584	1.418528	0.319210
C349	C	0.183328	0.979148	-0.225034
C350	C	0.683328	1.479148	0.274966
C351	C	0.188290	1.009450	-0.274250
C352	C	0.688290	1.509450	0.225750
C353	C	0.237512	0.979136	-0.279223
C354	C	0.737512	1.479136	0.220777
C355	C	0.281767	0.918522	-0.234980
C356	C	0.781767	1.418522	0.265020
C357	C	0.281789	0.918574	0.027158
C358	C	0.781789	1.418574	0.527158
C359	C	0.237544	0.979204	0.027152
C360	C	0.737544	1.479204	0.527152
C361	C	0.188318	1.009521	0.000055
C362	C	0.688318	1.509521	0.500055
C363	C	0.183337	0.979211	-0.027042
C364	C	0.683337	1.479211	0.472958
C365	C	0.227582	0.918587	-0.027038
C366	C	0.727582	1.418587	0.472962
C367	C	0.489760	0.918475	-0.180755
C368	C	0.989760	1.418475	0.319245
C369	C	0.489770	0.979069	-0.224993
C370	C	0.989770	1.479069	0.275007
C371	C	0.462675	1.009374	-0.274213
C372	C	0.962675	1.509374	0.225787
C373	C	0.435572	0.979077	-0.279196
C374	C	0.935572	1.479077	0.220804
C375	C	0.435566	0.918480	-0.234959
C376	C	0.935566	1.418480	0.265041
H377	H	0.511810	0.373416	-0.049079
H378	H	1.011810	0.873416	0.450921
O379	O	0.462677	0.192559	0.322120
O380	O	0.962677	0.692559	0.822120
H381	H	0.422332	0.215821	0.322098
H382	H	0.922332	0.715821	0.822098
H383	H	0.603484	0.373458	0.239199
H384	H	1.103484	0.873458	0.739199
O385	O	0.518991	0.885796	-0.127672
O386	O	1.018991	1.385796	0.372328
H387	H	0.514435	0.838572	-0.097742
H388	H	1.014435	1.338572	0.402258
O389	O	0.379259	0.862154	-0.470952
O390	O	0.879259	1.362154	0.029048
H391	H	0.349304	0.865721	-0.452104
H392	H	0.849304	1.365721	0.047896
H393	H	0.511813	0.498921	-0.140711
H394	H	1.011813	0.998921	0.359289
O395	O	0.518986	0.381518	0.240477
O396	O	1.018986	0.881518	0.740477
H397	H	0.537821	0.350278	0.282134
H398	H	1.037821	0.850278	0.782134
H399	H	0.773028	0.208444	0.000083
H400	H	1.273028	0.708444	0.500083
H401	H	0.012707	0.424727	0.076346
H402	H	0.512707	0.924727	0.576346
O403	O	0.406363	1.011769	-0.332292
O404	O	0.906363	1.511769	0.167708
H405	H	0.422028	0.960888	-0.336797
H406	H	0.922028	1.460888	0.163203
O407	O	0.590443	0.381424	-0.056231
O408	O	1.090443	0.881424	0.443769
H409	H	0.568989	0.448284	-0.086171
H410	H	1.068989	0.948284	0.413829
H411	H	0.701789	0.373439	0.140882
H412	H	1.201789	0.873439	0.640882
H413	H	0.321864	0.498997	0.049214
H414	H	0.821864	0.998997	0.549214
O415	O	0.795080	0.255482	0.219827
O416	O	1.295080	0.755482	0.719827
H417	H	0.791091	0.286724	0.178171
H418	H	1.291091	0.786724	0.678171
H419	H	0.511839	1.003731	-0.220926
H420	H	1.011839	1.503731	0.279074
O421	O	0.518986	-0.114169	-0.056220
O422	O	1.018986	0.385831	0.443780
H423	H	0.514441	-0.161417	-0.051663
H424	H	1.014441	0.338583	0.448337
H425	H	0.511831	0.263579	0.319430
H426	H	1.011831	0.763579	0.819430
O427	O	0.140552	1.074832	-0.321964
O428	O	0.640552	1.574832	0.178036
H429	H	0.140569	1.051577	-0.345334
H430	H	0.640569	1.551577	0.154666
H431	H	0.321868	0.893894	0.049227
H432	H	0.821868	1.393894	0.549227
O433	O	0.334855	0.885819	-0.240337
O434	O	0.834855	1.385819	0.259663
H435	H	0.339352	0.858196	-0.261819
H436	H	0.839352	1.358196	0.238181
O437	O	0.222226	0.885855	-0.127709
O438	O	0.722226	1.385855	0.372291
H439	H	0.180564	0.917132	-0.131692
H440	H	0.680564	1.417132	0.368308
O441	O	0.406326	0.885821	-0.240337
O442	O	0.906326	1.385821	0.259663
H443	H	0.387483	0.917086	-0.281996
H444	H	0.887483	1.417086	0.218004
O445	O	0.682402	0.255429	-0.056231
O446	O	1.182402	0.755429	0.443769
H447	H	0.640737	0.286685	-0.075061
H448	H	1.140737	0.786685	0.424939
H449	H	0.413497	0.373464	0.140861
H450	H	0.913497	0.873464	0.640861
O451	O	0.406341	0.255521	0.219816
O452	O	0.906341	0.755521	0.719816
H453	H	0.422003	0.227898	0.198335
H454	H	0.922003	0.727898	0.698335
H455	H	0.773071	0.208530	0.310434
H456	H	1.273071	0.708530	0.810434
H457	H	0.782072	0.263418	0.049247
H458	H	1.282072	0.763418	0.549247
O459	O	0.462676	1.074744	-0.321923
O460	O	0.962676	1.574744	0.178077
H461	H	0.503027	1.051474	-0.321884
H462	H	1.003027	1.551474	0.178116
O463	O	0.518969	0.255430	-0.056238
O464	O	1.018969	0.755430	0.443762
H465	H	0.537805	0.286686	-0.075083
H466	H	1.037805	0.786686	0.424917
H467	H	0.511826	0.499015	-0.760835
H468	H	1.011826	0.999015	-0.260835
H469	H	0.143254	1.003819	-0.220975
H470	H	0.643254	1.503819	0.279025
H471	H	0.538927	0.424747	-0.530197
H472	H	1.038927	0.924747	-0.030197
O473	O	0.242921	1.011879	0.056386
O474	O	0.742921	1.511879	0.556386
H475	H	0.284586	0.980596	0.075236
H476	H	0.784586	1.480596	0.575236
O477	O	0.406334	0.255485	0.056384
O478	O	0.906334	0.755485	0.556384
H479	H	0.410880	0.208249	0.051829
H480	H	0.910880	0.708249	0.551829
H481	H	0.511819	0.003821	-0.049069
H482	H	1.011819	0.503821	0.450931
O483	O	0.682461	0.255494	0.332469
O484	O	1.182461	0.755494	0.832469
H485	H	0.721506	0.208252	0.362394
H486	H	1.221506	0.708252	0.862394
O487	O	0.140597	1.074887	0.000070
O488	O	0.640597	1.574887	0.500070
H489	H	0.152337	1.090850	0.023474
H490	H	0.652337	1.590850	0.523474
H491	H	0.241546	1.003817	-0.319300
H492	H	0.741546	1.503817	0.180700
H493	H	0.143251	1.003905	-0.049103
H494	H	0.643251	1.503905	0.450897
H495	H	0.223518	0.893912	-0.049100
H496	H	0.723518	1.393912	0.450900
O497	O	-0.100378	0.862182	-0.083313
O498	O	0.399622	1.362182	0.416687
H499	H	-0.104871	0.897773	-0.067649
H500	H	0.395129	1.397773	0.432351
O501	O	0.406337	0.381474	0.056385
O502	O	0.906337	0.881474	0.556385
H503	H	0.387493	0.350229	0.075220
H504	H	0.887493	0.850229	0.575220
H505	H	0.413503	0.003860	0.049234
H506	H	0.913503	0.503860	0.549234
O507	O	0.406339	-0.114108	0.056397
O508	O	0.906339	0.385892	0.556397
H509	H	0.410887	-0.161348	0.051844
H510	H	0.910887	0.338652	0.551844
O511	O	0.130234	0.787968	-0.056250
O512	O	0.630234	1.287968	0.443750
H513	H	0.134207	0.839586	-0.075089
H514	H	0.634207	1.339586	0.424911
O515	O	0.703118	0.381390	0.056430
O516	O	1.203118	0.881390	0.556430
H517	H	0.724611	0.408988	0.040785
H518	H	1.224611	0.908988	0.540785
O519	O	0.242918	0.479363	0.056385
O520	O	0.742918	0.979363	0.556385
H521	H	0.284583	0.427755	0.075214
H522	H	0.784583	0.927755	0.575214
H523	H	0.145437	0.424740	0.076328
H524	H	0.645437	0.924740	0.576328
H525	H	0.538922	0.424723	-0.317181
H526	H	1.038922	0.924723	0.182819
H527	H	0.065180	0.424733	0.076341
H528	H	0.565180	0.924733	0.576341
H529	H	-0.217927	0.498939	0.049262
H530	H	0.282073	0.998939	0.549262
H531	H	-0.298204	0.498940	0.049260
H532	H	0.201796	0.998940	0.549260
H533	H	-0.396538	0.768298	-0.049056
H534	H	0.103462	1.268298	0.450944
H535	H	-0.316279	0.768308	-0.049056
H536	H	0.183721	1.268308	0.450944
H537	H	-0.139841	0.842546	-0.076154
H538	H	0.360159	1.342546	0.423846
O539	O	-0.008390	0.862164	-0.083325
O540	O	0.491610	1.362164	0.416675
H541	H	-0.029870	0.897797	-0.067685
H542	H	0.470130	1.397797	0.432315
O543	O	0.222238	0.787952	-0.056299
O544	O	0.722238	1.287952	0.443701
H545	H	0.241113	0.791545	-0.028975
H546	H	0.741113	1.291545	0.471025
O547	O	-0.066245	0.405104	0.083513
O548	O	0.433755	0.905104	0.583513
H549	H	-0.085100	0.401561	0.113460
H550	H	0.414900	0.901561	0.613460
O551	O	-0.233114	0.862157	-0.083306
O552	O	0.266886	1.362157	0.416694
H553	H	-0.237609	0.897752	-0.067645
H554	H	0.262391	1.397752	0.432355
O555	O	0.518997	0.479387	-0.667548
O556	O	1.018997	0.979387	-0.167548
H557	H	0.503337	0.443796	-0.663054
H558	H	1.003337	0.943796	-0.163054
O559	O	0.546086	0.405122	-0.436920
O560	O	1.046086	0.905122	0.063080
H561	H	0.530422	0.369539	-0.432436
H562	H	1.030422	0.869539	0.067564
O563	O	0.518993	0.479302	-0.219674
O564	O	1.018993	0.979302	0.280326
H565	H	0.503340	0.443701	-0.198198
H566	H	1.003340	0.943701	0.301802
O567	O	0.406330	0.787896	-0.240310
O568	O	0.906330	1.287896	0.259690
H569	H	0.387496	0.839511	-0.281965
H570	H	0.887496	1.339511	0.218035
H571	H	0.386426	0.842565	-0.602396
H572	H	0.886426	1.342565	-0.102396
O573	O	0.406337	0.787913	-0.332281
O574	O	0.906337	1.287913	0.167719
H575	H	0.387492	0.839520	-0.328289
H576	H	0.887492	1.339520	0.171711
O577	O	0.379270	0.862189	-0.695672
O578	O	0.879270	1.362189	-0.195672
H579	H	0.360428	0.913800	-0.691684
H580	H	0.860428	1.413800	-0.191684
H581	H	0.413503	0.768366	-0.778841
H582	H	0.913503	1.268366	-0.278841
H583	H	0.413511	0.768372	-0.859121
H584	H	0.913511	1.268372	-0.359121
H585	H	0.386422	0.842544	-0.549906
H586	H	0.886422	1.342544	-0.049906
O587	O	0.546107	0.405109	-0.396148
O588	O	1.046107	0.905109	0.103852
H589	H	0.564954	0.353496	-0.354492
H590	H	1.064954	0.853496	0.145508
