data_functionalizedCrystal
_audit_creation_method	'MofGen! by Chris Wilmer'
_symmetry_space_group_name_H-M	'P1'
_symmetry_Int_Tables_number	1
_symmetry_cell_setting	triclinic
loop_
_symmetry_equiv_pos_as_xyz
  x,y,z
_cell_length_a	15.995350
_cell_length_b	10.723024
_cell_length_c	9.798715
_cell_angle_alpha	90.001978
_cell_angle_beta	89.999961
_cell_angle_gamma	96.019878
loop_
_atom_site_label
_atom_site_type_symbol
_atom_site_fract_x
_atom_site_fract_y
_atom_site_fract_z
O1	O	1.111909	-0.160839	-0.113372
O2	O	0.868247	-0.180701	-0.113399
O3	O	0.995698	0.010878	-0.113380
O4	O	0.984458	-0.352418	-0.113391
O5	O	0.995689	0.010878	0.113602
O6	O	0.868238	-0.180701	0.113583
O7	O	1.111899	-0.160839	0.113610
Zn8	Zn	0.990067	-0.170770	0.149635
Zn9	Zn	0.990080	-0.170770	-0.149424
O10	O	0.984448	-0.352418	0.113591
C11	C	0.837043	-0.179880	0.000088
C12	C	0.744079	-0.177418	0.000077
N13	N	0.990064	-0.170768	0.353735
C14	C	0.994876	0.057367	0.000109
C15	C	0.992428	0.195890	0.000104
C16	C	0.406280	-0.168577	0.000106
C17	C	0.452931	-0.032138	0.000617
C18	C	0.549635	-0.034601	0.000096
C19	C	0.573866	-0.172962	0.000093
C20	C	0.533171	-0.240259	-0.129522
C21	C	0.436516	-0.236831	-0.129621
C22	C	0.436182	-0.239650	0.128500
C23	C	0.533127	-0.239618	0.130204
C24	C	0.668578	-0.175448	0.000081
C25	C	0.311568	-0.166096	0.000109
C26	C	1.143103	-0.161660	0.000120
C27	C	1.236068	-0.164122	0.000121
C28	C	0.985271	-0.398907	0.000098
C29	C	0.987718	-0.537430	0.000095
C30	C	1.063743	0.271783	0.000111
C31	C	1.061215	0.414954	0.000105
N32	N	0.990089	-0.170761	-0.353524
C33	C	1.043578	-0.089978	0.421520
C34	C	1.043591	-0.089974	0.578682
H35	H	0.434091	0.022400	0.093569
O36	O	0.550757	-0.361499	-0.135533
C37	C	0.615037	-0.518074	-0.263348
C38	C	0.595157	-0.380748	-0.256731
H39	H	0.650952	-0.533674	-0.361314
H40	H	0.553881	-0.583061	-0.261993
H41	H	0.655046	-0.539132	-0.171569
H42	H	0.555172	-0.359570	-0.348491
H43	H	0.656345	-0.315835	-0.258020
O44	O	0.935312	-0.253236	0.577103
C45	C	0.790263	-0.326728	0.533078
C46	C	0.852203	-0.233277	0.611765
H47	H	0.723056	-0.310606	0.561051
H48	H	0.801851	-0.426656	0.561115
H49	H	0.800035	-0.312047	0.418723
H50	H	0.842467	-0.247843	0.726138
H51	H	0.840600	-0.133382	0.583614
H52	H	0.433029	0.022148	-0.091819
H53	H	0.577191	0.018655	-0.092976
H54	H	1.122266	0.480165	0.000117
O55	O	0.935451	-0.253455	0.423144
C56	C	0.888081	-0.470482	0.467202
C57	C	0.949969	-0.376976	0.388494
H58	H	0.899809	-0.570370	0.439239
H59	H	0.820843	-0.454578	0.439174
H60	H	0.897815	-0.455713	0.581554
H61	H	0.940312	-0.391690	0.274125
H62	H	1.017184	-0.392905	0.416636
H63	H	0.561281	-0.193518	-0.225982
O64	O	0.411579	-0.186471	0.245859
C65	C	0.455037	-0.084220	0.457019
C66	C	0.482977	-0.144435	0.324158
H67	H	0.512747	-0.050194	0.520348
H68	H	0.412943	-0.156461	0.517880
H69	H	0.418730	-0.001343	0.431135
H70	H	0.519317	-0.227302	0.349920
H71	H	0.525029	-0.072116	0.263334
H72	H	0.560157	-0.190492	0.226092
H73	H	1.089409	-0.020810	0.636975
H74	H	1.089380	-0.020809	0.363204
O75	O	0.552243	-0.359929	0.139731
C76	C	0.617406	-0.511826	0.273220
C77	C	0.595827	-0.375525	0.262604
H78	H	0.652632	-0.524486	0.372569
H79	H	0.658576	-0.533622	0.183137
H80	H	0.556924	-0.578307	0.271848
H81	H	0.656264	-0.308955	0.264015
H82	H	0.554624	-0.353833	0.352682
O83	O	0.583057	0.028600	0.110971
C84	C	0.556154	0.145702	0.313323
C85	C	0.518201	0.074179	0.187795
H86	H	0.503734	0.182549	0.375485
H87	H	0.602316	0.227723	0.278396
H88	H	0.590512	0.079696	0.379071
H89	H	0.483800	0.140085	0.121994
H90	H	0.472082	-0.007857	0.222816
O91	O	0.399080	-0.359713	0.129732
C92	C	0.384145	-0.558550	0.246544
C93	C	0.426240	-0.422629	0.245312
H94	H	0.406074	-0.609450	0.339996
H95	H	0.402183	-0.608851	0.150109
H96	H	0.312958	-0.557944	0.250481
H97	H	0.497434	-0.423120	0.241425
H98	H	0.408134	-0.372384	0.341742
O99	O	0.414187	-0.178358	-0.245160
C100	C	0.301205	-0.108060	-0.377696
C101	C	0.326367	-0.174333	-0.246808
H102	H	0.230204	-0.104761	-0.379058
H103	H	0.320764	-0.161819	-0.470768
H104	H	0.334038	-0.008447	-0.380115
H105	H	0.293547	-0.273945	-0.244256
H106	H	0.306825	-0.120478	-0.153796
O107	O	0.914900	0.384739	-0.000155
C108	C	0.829215	0.220327	-0.117712
C109	C	0.911704	0.308429	-0.117615
H110	H	0.826613	0.158589	-0.212654
H111	H	0.773453	0.278391	-0.117811
H112	H	0.826540	0.158714	-0.022675
H113	H	0.914461	0.370059	-0.212636
H114	H	0.967427	0.250290	-0.117445
H115	H	0.404843	-0.337003	-0.135505
H116	H	1.126670	0.230763	0.000126
O117	O	0.917302	0.244665	0.000273
C118	C	0.786400	0.259393	0.117887
C119	C	0.871445	0.204053	0.117851
H120	H	0.749308	0.226601	0.212953
H121	H	0.749202	0.226492	0.022957
H122	H	0.797758	0.366141	0.117816
H123	H	0.860164	0.097304	0.117970
H124	H	0.908616	0.237053	0.212773
