data_functionalizedCrystal
_audit_creation_method	'MofGen! by Chris Wilmer'
_symmetry_space_group_name_H-M	'P1'
_symmetry_Int_Tables_number	1
_symmetry_cell_setting	triclinic
loop_
_symmetry_equiv_pos_as_xyz
  x,y,z
_cell_length_a	15.297475
_cell_length_b	25.639239
_cell_length_c	25.639234
_cell_angle_alpha	89.975416
_cell_angle_beta	80.317879
_cell_angle_gamma	80.340538
loop_
_atom_site_label
_atom_site_type_symbol
_atom_site_fract_x
_atom_site_fract_y
_atom_site_fract_z
Zn1	Zn	1.379042	-0.346723	-0.433686
Zn2	Zn	1.378897	-0.434136	-0.346235
Zn3	Zn	1.228187	-0.331576	-0.331160
Zn4	Zn	1.228105	-0.418966	-0.418542
O5	O	1.303558	-0.382851	-0.382406
O6	O	1.505263	-0.371007	-0.434732
O7	O	1.358879	-0.420541	-0.271068
O8	O	1.248293	-0.260430	-0.344789
O9	O	1.505157	-0.435229	-0.370483
O10	O	1.359125	-0.271558	-0.420114
O11	O	1.248152	-0.345191	-0.259992
O12	O	1.101935	-0.330481	-0.330104
O13	O	1.248153	-0.409373	-0.493718
O14	O	1.101875	-0.394686	-0.394303
O15	O	1.359046	-0.356297	-0.504845
O16	O	1.358799	-0.505280	-0.355798
O17	O	1.248013	-0.494134	-0.408922
C18	C	1.069172	-0.359294	-0.358925
C19	C	0.968901	-0.349229	-0.348892
C20	C	0.686228	-0.454790	-0.454112
C21	C	0.780437	-0.464250	-0.463537
C22	C	0.827558	-0.435496	-0.434877
C23	C	0.780460	-0.397279	-0.396790
C24	C	0.686241	-0.387821	-0.387361
C25	C	0.827571	-0.368527	-0.368126
C26	C	0.780472	-0.330310	-0.330039
C27	C	0.686263	-0.320853	-0.320612
C28	C	0.639142	-0.349608	-0.349273
C29	C	0.921790	-0.377985	-0.377554
C30	C	0.921803	-0.311016	-0.310804
C31	C	0.827593	-0.301556	-0.301379
C32	C	1.303406	-0.518678	-0.382367
C33	C	1.303423	-0.576794	-0.382376
C34	C	1.361395	-0.942976	-0.354816
C35	C	1.361430	-0.997584	-0.354827
O36	O	1.410561	-1.030753	-0.331353
N37	N	1.303716	-1.019105	-0.382456
C38	C	1.245970	-0.986017	-0.410081
O39	O	1.196884	-1.009337	-0.433583
C40	C	1.245941	-0.931410	-0.410073
C41	C	1.303651	-0.909891	-0.382438
C42	C	1.419102	-0.921457	-0.327184
C43	C	1.419065	-0.866853	-0.327173
C44	C	1.361322	-0.833768	-0.354794
C45	C	1.303615	-0.855287	-0.382427
C46	C	1.188200	-0.898323	-0.437701
C47	C	1.188176	-0.843714	-0.437691
C48	C	1.245887	-0.822195	-0.410056
C49	C	1.245835	-0.767598	-0.410037
N50	N	1.303549	-0.746077	-0.382408
C51	C	1.361292	-0.779161	-0.354786
C52	C	1.246038	-1.100694	-0.410096
C53	C	1.246063	-1.155299	-0.410101
C54	C	1.361524	-1.166863	-0.354847
C55	C	1.361494	-1.112256	-0.354840
C56	C	1.303752	-1.079173	-0.382467
C57	C	1.361211	-0.664488	-0.354765
C58	C	1.361167	-0.609878	-0.354754
C59	C	1.245710	-0.598320	-0.410010
C60	C	1.245750	-0.652925	-0.410018
C61	C	1.303508	-0.686008	-0.382394
O62	O	1.196731	-0.734398	-0.433501
O63	O	1.410378	-0.755835	-0.331294
C64	C	1.538858	-0.406499	-0.405978
C65	C	1.639129	-0.416577	-0.416024
C66	C	1.303606	-0.382832	-0.518784
C67	C	1.303627	-0.382825	-0.576900
C68	C	1.303734	-0.246495	-0.382459
C69	C	1.303810	-0.188389	-0.382481
C70	C	1.361306	-0.422019	-0.833855
C71	C	1.361297	-0.422029	-0.779250
O72	O	1.410295	-0.455407	-0.755908
N73	N	1.303647	-0.382801	-0.746176
C74	C	1.245996	-0.343564	-0.767708
O75	O	1.196959	-0.310199	-0.734562
C76	C	1.246002	-0.343557	-0.822312
C77	C	1.303662	-0.382784	-0.855385
C78	C	1.418961	-0.461243	-0.866927
C79	C	1.418971	-0.461233	-0.921529
C80	C	1.361327	-0.421998	-0.943059
C81	C	1.303672	-0.382773	-0.909986
C82	C	1.188347	-0.304322	-0.843844
C83	C	1.188358	-0.304318	-0.898452
C84	C	1.246018	-0.343546	-0.931524
C85	C	1.246039	-0.343528	-0.986118
N86	N	1.303689	-0.382755	-1.019192
C87	C	1.361333	-0.421990	-0.997662
C88	C	1.245988	-0.343583	-0.653037
C89	C	1.245986	-0.343588	-0.598434
C90	C	1.361286	-0.422053	-0.609980
C91	C	1.361291	-0.422046	-0.664584
C92	C	1.303638	-0.382811	-0.686111
C93	C	1.361351	-0.421965	-1.112329
C94	C	1.361359	-0.421949	-1.166936
C95	C	1.246056	-0.343485	-1.155385
C96	C	1.246051	-0.343499	-1.100784
C97	C	1.303702	-0.382743	-1.079258
O98	O	1.197062	-0.310168	-1.009496
O99	O	1.410353	-0.455354	-1.030814
C100	C	1.303561	-0.382836	-0.246563
C101	C	1.303715	-0.382714	-0.188465
H102	H	0.904268	-0.443201	-0.442553
N103	N	1.420188	-0.698276	-0.326536
N104	N	1.388497	-0.725594	-0.290030
H105	H	1.430144	-0.749457	-0.270090
H106	H	0.960168	-0.287603	-0.287465
N107	N	1.186727	-0.564511	-0.438215
N108	N	1.186711	-0.515757	-0.438198
H109	H	1.145056	-0.491877	-0.458120
N110	N	1.187172	-0.303416	-1.067008
N111	N	1.135720	-0.268382	-1.086242
H112	H	1.094134	-0.240072	-1.062391
N113	N	0.828530	-0.503288	-0.502439
N114	N	0.786452	-0.528958	-0.528025
H115	H	0.820418	-0.556531	-0.555502
N116	N	0.969893	-0.417025	-0.416451
N117	N	0.959320	-0.464204	-0.411833
H118	H	0.993293	-0.491778	-0.439306
N119	N	1.420126	-0.587896	-0.326530
N120	N	1.477574	-0.563151	-0.350700
H121	H	1.519212	-0.547626	-0.330767
N122	N	1.420501	-1.200671	-0.326633
N123	N	1.420515	-1.249425	-0.326648
H124	H	1.462163	-1.273304	-0.306723
N125	N	1.420458	-1.090278	-0.326622
N126	N	1.477915	-1.065542	-0.350796
H127	H	1.519563	-1.050022	-0.330867
H128	H	0.647854	-0.478201	-0.477440
H129	H	0.562429	-0.341906	-0.341602
H130	H	1.198760	-0.670446	-0.432523
H131	H	1.466061	-0.849336	-0.304671
N132	N	1.129452	-0.264249	-0.810071
N133	N	1.135487	-0.216609	-0.816792
H134	H	1.093886	-0.188305	-0.792941
H135	H	1.465921	-0.493177	-0.948452
N136	N	0.638165	-0.281823	-0.281699
N137	N	0.680242	-0.256154	-0.256111
H138	H	0.646276	-0.228589	-0.228627
N139	N	1.187186	-0.303412	-1.177392
N140	N	1.187208	-0.303415	-1.226147
H141	H	1.145626	-0.275114	-1.241691
N142	N	1.420185	-0.462127	-0.587987
N143	N	1.477690	-0.449512	-0.563289
H144	H	1.519290	-0.477811	-0.547757
H145	H	1.408317	-0.453893	-1.193862
H146	H	1.141156	-0.816779	-0.460190
H147	H	1.408243	-0.453988	-0.691508
N148	N	1.478100	-0.955240	-0.298967
N149	N	1.529617	-0.936008	-0.274301
H150	H	1.571286	-0.959864	-0.254368
N151	N	1.420241	-0.462056	-1.090354
N152	N	1.471710	-0.497072	-1.119898
H153	H	1.513305	-0.525386	-1.104379
N154	N	0.779478	-0.262515	-0.262481
N155	N	0.726953	-0.223952	-0.275686
H156	H	0.692971	-0.196378	-0.248215
H157	H	1.199060	-1.172814	-0.432599
H158	H	1.199010	-1.073759	-0.432591
N159	N	1.129242	-0.920286	-0.465933
N160	N	1.077701	-0.890731	-0.490594
H161	H	1.036059	-0.906241	-0.510535
H162	H	1.199044	-0.311640	-0.571512
N163	N	1.477850	-0.501331	-0.844950
N164	N	1.529315	-0.536347	-0.874494
H165	H	1.570914	-0.564660	-0.858977
N166	N	1.187089	-0.303497	-0.675016
N167	N	1.135624	-0.268478	-0.645475
H168	H	1.094026	-0.240167	-0.660994
H169	H	1.141408	-0.272368	-0.915976
