data_functionalizedCrystal
_audit_creation_method	'MofGen! by Chris Wilmer'
_symmetry_space_group_name_H-M	'P1'
_symmetry_Int_Tables_number	1
_symmetry_cell_setting	triclinic
loop_
_symmetry_equiv_pos_as_xyz
  x,y,z
_cell_length_a	17.699083
_cell_length_b	10.654551
_cell_length_c	16.776229
_cell_angle_alpha	89.995142
_cell_angle_beta	89.998886
_cell_angle_gamma	83.884222
loop_
_atom_site_label
_atom_site_type_symbol
_atom_site_fract_x
_atom_site_fract_y
_atom_site_fract_z
O1	O	1.005089	0.158809	-0.066173
O2	O	1.505089	0.658809	0.433827
O3	O	0.784842	0.179470	-0.066199
O4	O	1.284842	0.679470	0.433801
O5	O	0.900028	-0.013689	-0.066184
O6	O	1.400028	0.486311	0.433816
O7	O	0.889902	0.351967	-0.066188
O8	O	1.389902	0.851967	0.433812
O9	O	0.900013	-0.013700	0.066393
O10	O	1.400013	0.486300	0.566393
O11	O	0.784826	0.179458	0.066377
O12	O	1.284826	0.679458	0.566377
O13	O	1.005073	0.158797	0.066403
O14	O	1.505073	0.658797	0.566403
Zn15	Zn	0.894947	0.169126	0.087440
Zn16	Zn	1.394947	0.669126	0.587440
Zn17	Zn	0.894968	0.169141	-0.087236
Zn18	Zn	1.394968	0.669141	0.412764
O19	O	0.889886	0.351955	0.066388
O20	O	1.389886	0.851955	0.566388
C21	C	0.756632	0.178724	0.000086
C22	C	1.256632	0.678724	0.500086
C23	C	0.672600	0.176503	0.000076
C24	C	1.172600	0.676503	0.500076
C25	C	0.899277	-0.060479	0.000103
C26	C	1.399277	0.439521	0.500103
C27	C	0.897052	-0.199884	0.000099
C28	C	1.397052	0.300116	0.500099
C29	C	0.624700	0.289883	0.000075
C30	C	1.124700	0.789883	0.500075
C31	C	0.545743	0.287788	0.000085
C32	C	1.045743	0.787788	0.500085
C33	C	0.514688	0.172313	0.000091
C34	C	1.014688	0.672313	0.500091
C35	C	0.562594	0.058924	0.000095
C36	C	1.062594	0.558924	0.500095
C37	C	0.641549	0.061020	0.000090
C38	C	1.141549	0.561020	0.500090
C39	C	0.244177	0.050470	0.000114
C40	C	0.744177	0.550470	0.500114
C41	C	0.165216	0.048383	0.000117
C42	C	0.665216	0.548383	0.500117
C43	C	0.148372	0.277238	0.000110
C44	C	0.648372	0.777238	0.500110
C45	C	0.227327	0.279334	0.000105
C46	C	0.727327	0.779334	0.500105
C47	C	0.275226	0.165946	0.000113
C48	C	0.775226	0.665946	0.500113
C49	C	0.360839	0.168218	0.000103
C50	C	0.860839	0.668218	0.500103
C51	C	0.429076	0.170039	0.000095
C52	C	0.929076	0.670039	0.500095
C53	C	0.896016	-0.265363	-0.072169
C54	C	1.396016	0.234637	0.427831
C55	C	0.893919	-0.396346	-0.072170
C56	C	1.393919	0.103654	0.427830
C57	C	0.893897	-0.396361	0.072372
C58	C	1.393897	0.103639	0.572372
C59	C	0.895988	-0.265378	0.072372
C60	C	1.395988	0.234622	0.572372
C61	C	0.846809	-0.565586	-0.159001
C62	C	1.346809	-0.065586	0.340999
C63	C	0.845786	-0.631072	-0.231273
C64	C	1.345786	-0.131072	0.268727
C65	C	0.890745	-0.598313	-0.295074
C66	C	1.390745	-0.098313	0.204926
C67	C	0.936745	-0.500074	-0.286606
C68	C	1.436745	-0.000074	0.213394
C69	C	0.937775	-0.434595	-0.214332
C70	C	1.437775	0.065405	0.285668
C71	C	0.892798	-0.467349	-0.150534
C72	C	1.392798	0.032651	0.349466
C73	C	0.943105	-0.096138	0.159198
C74	C	1.443105	0.403862	0.659198
C75	C	0.944140	-0.030658	0.231472
C76	C	1.444140	0.469342	0.731472
C77	C	0.899185	-0.063416	0.295280
C78	C	1.399185	0.436584	0.795280
C79	C	0.853196	-0.161662	0.286819
C80	C	1.353196	0.338338	0.786819
C81	C	0.852161	-0.227142	0.214545
C82	C	1.352161	0.272858	0.714545
C83	C	0.897114	-0.194375	0.150737
C84	C	1.397114	0.305625	0.650737
C85	C	1.033283	0.159543	0.000117
C86	C	1.533283	0.659543	0.500117
C87	C	1.117315	0.161764	0.000121
C88	C	1.617315	0.661764	0.500121
C89	C	0.890638	0.398746	0.000099
C90	C	1.390638	0.898746	0.500099
C91	C	0.892863	0.538150	0.000098
C92	C	1.392863	1.038150	0.500098
N93	N	0.894939	0.169114	0.206651
N94	N	1.394939	0.669114	0.706651
N95	N	0.894982	0.169143	-0.206447
N96	N	1.394982	0.669143	0.293553
C97	C	0.945959	0.083619	0.248375
C98	C	1.445959	0.583619	0.748375
C99	C	0.945964	0.083618	0.331827
C100	C	1.445964	0.583618	0.831827
C101	C	0.894950	0.169119	0.373554
C102	C	1.394950	0.669119	0.873554
C103	C	0.843924	0.254619	0.331824
C104	C	1.343924	0.754619	0.831824
C105	C	0.843917	0.254613	0.248374
C106	C	1.343917	0.754613	0.748374
C107	C	0.843952	0.254643	0.668371
C108	C	1.343952	0.754643	1.168371
C109	C	0.843964	0.254645	0.751828
C110	C	1.343964	0.754645	1.251828
C111	C	0.945998	0.083648	0.751825
C112	C	1.445998	0.583648	1.251825
C113	C	0.945991	0.083642	0.668374
C114	C	1.445991	0.583642	1.168374
C115	C	0.894963	0.169137	0.626652
C116	C	1.394963	0.669137	1.126652
C117	C	0.894958	0.169135	0.536163
C118	C	1.394958	0.669135	1.036163
C119	C	0.894958	0.169127	0.464041
C120	C	1.394958	0.669127	0.964041
H121	H	0.649979	0.383916	0.000069
H122	H	1.149979	0.883916	0.500069
Cl123	Cl	0.779806	0.362124	0.615926
Cl124	Cl	1.279806	0.862124	1.115926
H125	H	0.889911	-0.651641	-0.353919
H126	H	1.389911	-0.151641	0.146081
H127	H	0.810188	-0.592257	-0.107057
H128	H	1.310188	-0.092257	0.392943
Cl129	Cl	1.010147	-0.023838	0.804280
Cl130	Cl	1.510147	0.476162	1.304280
H131	H	0.252607	0.373366	0.000097
H132	H	0.752607	0.873366	0.500097
Cl133	Cl	0.993278	-0.458912	-0.366815
Cl134	Cl	1.493278	0.041088	0.133185
H135	H	0.680549	-0.031306	0.000090
H136	H	1.180549	0.468694	0.500090
Cl137	Cl	0.126177	-0.096798	0.000125
Cl138	Cl	0.626177	0.403202	0.500125
H139	H	0.283168	-0.041858	0.000121
H140	H	0.783168	0.458142	0.500121
H141	H	0.987533	0.014023	0.634403
H142	H	1.487533	0.514023	1.134403
Cl143	Cl	0.779827	0.362139	0.804284
Cl144	Cl	1.279827	0.862139	1.304284
Cl145	Cl	1.001965	0.092841	0.242111
Cl146	Cl	1.501965	0.592841	0.742111
H147	H	0.537303	-0.035098	0.000111
H148	H	1.037303	0.464902	0.500111
H149	H	0.802384	0.324231	0.365803
H150	H	1.302384	0.824231	0.865803
Cl151	Cl	0.897348	-0.183030	-0.163026
Cl152	Cl	1.397348	0.316970	0.336974
Cl153	Cl	0.485529	0.430330	0.000079
Cl154	Cl	0.985529	0.930330	0.500079
Cl155	Cl	0.794347	-0.350657	0.203910
Cl156	Cl	1.294347	0.149343	0.703910
Cl157	Cl	0.995598	-0.311103	-0.203683
Cl158	Cl	1.495598	0.188897	0.296317
H159	H	0.893032	-0.449703	0.131214
H160	H	1.393032	0.050297	0.631214
H161	H	0.109362	0.369564	0.000108
H162	H	0.609362	0.869564	0.500108
Cl163	Cl	1.010098	-0.023870	0.195927
Cl164	Cl	1.510098	0.476130	0.695927
Cl165	Cl	0.779771	0.362094	0.195921
Cl166	Cl	1.279771	0.862094	0.695921
Cl167	Cl	0.796684	-0.202857	0.367038
Cl168	Cl	1.296684	0.297143	0.867038
Cl169	Cl	0.787956	-0.754565	-0.241918
Cl170	Cl	1.287956	-0.254565	0.258082
H171	H	0.900038	-0.010099	0.354131
H172	H	1.400038	0.489901	0.854131
H173	H	0.979706	-0.069446	0.107239
H174	H	1.479706	0.430554	0.607239
Cl175	Cl	1.010104	-0.023866	0.384281
Cl176	Cl	1.510104	0.476134	0.884281
