data_functionalizedCrystal
_audit_creation_method	'MofGen! by Chris Wilmer'
_symmetry_space_group_name_H-M	'P1'
_symmetry_Int_Tables_number	1
_symmetry_cell_setting	triclinic
loop_
_symmetry_equiv_pos_as_xyz
  x,y,z
_cell_length_a	12.759401
_cell_length_b	16.625546
_cell_length_c	16.625539
_cell_angle_alpha	90.030397
_cell_angle_beta	90.017468
_cell_angle_gamma	90.021512
loop_
_atom_site_label
_atom_site_type_symbol
_atom_site_fract_x
_atom_site_fract_y
_atom_site_fract_z
Zn1	Zn	1.606187	-0.321021	0.455831
Zn2	Zn	1.939521	0.012313	0.789164
Zn3	Zn	2.272854	0.345646	1.122498
Zn4	Zn	1.606061	-0.455864	0.320993
Zn5	Zn	1.939394	-0.122531	0.654327
Zn6	Zn	2.272728	0.210803	0.987660
Zn7	Zn	1.430493	-0.321047	0.321019
Zn8	Zn	1.763826	0.012287	0.654352
Zn9	Zn	2.097159	0.345620	0.987685
Zn10	Zn	1.430454	-0.455813	0.455790
Zn11	Zn	1.763787	-0.122480	0.789124
Zn12	Zn	2.097121	0.210854	1.122457
O13	O	1.518299	-0.388436	0.388408
O14	O	1.851632	-0.055103	0.721742
O15	O	2.184965	0.278231	1.055075
O16	O	1.753192	-0.338919	0.437951
O17	O	2.086525	-0.005585	0.771284
O18	O	2.419858	0.327748	1.104617
O19	O	1.582735	-0.438012	0.208164
O20	O	1.916068	-0.104679	0.541497
O21	O	2.249402	0.228654	0.874831
O22	O	1.453868	-0.208211	0.338930
O23	O	1.787201	0.125122	0.672263
O24	O	2.120534	0.458456	1.005596
O25	O	1.753099	-0.437987	0.338886
O26	O	2.086432	-0.104654	0.672219
O27	O	2.419766	0.228679	1.005553
O28	O	1.582950	-0.208192	0.437975
O29	O	1.916283	0.125142	0.771309
O30	O	2.249617	0.458475	1.104642
O31	O	1.453745	-0.338963	0.208183
O32	O	1.787079	-0.005629	0.541516
O33	O	2.120412	0.327704	0.874850
O34	O	1.283466	-0.338913	0.338890
O35	O	1.616800	-0.005580	0.672224
O36	O	1.950133	0.327753	1.005557
O37	O	1.453802	-0.437900	0.568628
O38	O	1.787135	-0.104567	0.901962
O39	O	2.120469	0.228767	1.235295
O40	O	1.283438	-0.437925	0.437906
O41	O	1.616771	-0.104592	0.771240
O42	O	1.950105	0.228741	1.104573
O43	O	1.582913	-0.338869	0.568658
O44	O	1.916246	-0.005536	0.901991
O45	O	2.249579	0.327798	1.235325
O46	O	1.582698	-0.568690	0.338847
O47	O	1.916031	-0.235356	0.672180
O48	O	2.249364	0.097977	1.005513
O49	O	1.453680	-0.568652	0.437882
O50	O	1.787013	-0.235319	0.771215
O51	O	2.120346	0.098015	1.104548
C52	C	1.245331	-0.388417	0.388397
C53	C	1.578665	-0.055084	0.721730
C54	C	1.911998	0.278250	1.055064
C55	C	1.128555	-0.388428	0.388411
C56	C	1.461888	-0.055095	0.721745
C57	C	1.795221	0.278238	1.055078
C58	C	1.073734	-0.336941	0.440074
C59	C	1.407067	-0.003607	0.773408
C60	C	1.740401	0.329726	1.106741
C61	C	0.964010	-0.336956	0.440079
C62	C	1.297343	-0.003623	0.773413
C63	C	1.630677	0.329710	1.106746
C64	C	0.963937	-0.439954	0.336756
C65	C	1.297270	-0.106621	0.670090
C66	C	1.630604	0.226713	1.003423
C67	C	1.073659	-0.439934	0.336748
C68	C	1.406992	-0.106601	0.670081
C69	C	1.740326	0.226733	1.003415
C70	C	1.128630	-0.285435	0.491738
C71	C	1.461963	0.047898	0.825071
C72	C	1.795296	0.381231	1.158405
C73	C	1.073809	-0.233944	0.543406
C74	C	1.407142	0.099389	0.876739
C75	C	1.740475	0.432723	1.210072
C76	C	0.964085	-0.233960	0.543411
C77	C	1.297418	0.099374	0.876744
C78	C	1.630751	0.432707	1.210077
C79	C	0.909182	-0.285466	0.491748
C80	C	1.242515	0.047867	0.825081
C81	C	1.575848	0.381200	1.158415
C82	C	1.518199	-0.597927	0.388375
C83	C	1.851533	-0.264594	0.721708
C84	C	2.184866	0.068740	1.055041
C85	C	1.518253	-0.687548	0.388387
C86	C	1.851586	-0.354215	0.721720
C87	C	2.184920	-0.020881	1.055054
C88	C	1.518436	-1.015724	0.388471
C89	C	1.851770	-0.682390	0.721804
C90	C	2.185103	-0.349057	1.055138
C91	C	1.518382	-0.924415	0.388450
C92	C	1.851715	-0.591082	0.721783
C93	C	2.185048	-0.257748	1.055117
C94	C	1.518344	-0.851639	0.388429
C95	C	1.851677	-0.518305	0.721762
C96	C	2.185010	-0.184972	1.055095
C97	C	1.518291	-0.760324	0.388408
C98	C	1.851624	-0.426991	0.721742
C99	C	2.184958	-0.093658	1.055075
C100	C	1.792332	-0.388456	0.388420
C101	C	2.125665	-0.055122	0.721753
C102	C	2.458999	0.278211	1.055087
C103	C	1.909109	-0.388464	0.388425
C104	C	2.242442	-0.055131	0.721758
C105	C	2.575775	0.278203	1.055092
C106	C	1.518367	-0.388376	0.598717
C107	C	1.851700	-0.055043	0.932051
C108	C	2.185034	0.278291	1.265384
C109	C	1.518396	-0.388350	0.688338
C110	C	1.851730	-0.055017	1.021672
C111	C	2.185063	0.278316	1.355005
C112	C	1.518427	-0.178127	0.388460
C113	C	1.851761	0.155206	0.721793
C114	C	2.185094	0.488540	1.055126
C115	C	1.518482	-0.088506	0.388482
C116	C	1.851815	0.244827	0.721815
C117	C	2.185149	0.578161	1.055148
C118	C	1.518291	-0.388438	0.178917
C119	C	1.851625	-0.055104	0.512251
C120	C	2.184958	0.278229	0.845584
C121	C	1.518466	-0.388236	0.089297
C122	C	1.851799	-0.054903	0.422630
C123	C	2.185132	0.278430	0.755963
C124	C	1.518445	-0.388260	1.016514
C125	C	1.851778	-0.054927	1.349848
C126	C	2.185111	0.278407	1.683181
C127	C	1.518428	-0.388288	0.925206
C128	C	1.851762	-0.054954	1.258539
C129	C	2.185095	0.278379	1.591872
C130	C	1.518421	-0.388306	0.852429
C131	C	1.851754	-0.054973	1.185763
C132	C	2.185088	0.278361	1.519096
C133	C	1.518403	-0.388332	0.761115
C134	C	1.851737	-0.054999	1.094448
C135	C	2.185070	0.278334	1.427782
H136	H	0.919453	-0.192027	0.585475
H137	H	1.252786	0.141306	0.918808
H138	H	1.586119	0.474640	1.252142
Cl139	Cl	1.266568	-0.285416	0.491738
Cl140	Cl	1.599901	0.047918	0.825072
Cl141	Cl	1.933235	0.381251	1.158405
H142	H	1.118295	-0.481860	0.294680
H143	H	1.451629	-0.148526	0.628013
H144	H	1.784962	0.184807	0.961346
H145	H	0.819837	-0.285457	0.491739
H146	H	1.153170	0.047876	0.825072
H147	H	1.486503	0.381209	1.158406
H148	H	0.919226	-0.481890	0.294697
H149	H	1.252559	-0.148556	0.628030
H150	H	1.585893	0.184777	0.961363
H151	H	1.118518	-0.192004	0.585462
H152	H	1.451851	0.141329	0.918796
H153	H	1.785185	0.474662	1.252129
