data_functionalizedCrystal
_audit_creation_method	'MofGen! by Chris Wilmer'
_symmetry_space_group_name_H-M	'P1'
_symmetry_Int_Tables_number	1
_symmetry_cell_setting	triclinic
loop_
_symmetry_equiv_pos_as_xyz
  x,y,z
_cell_length_a	13.032831
_cell_length_b	14.908520
_cell_length_c	13.033454
_cell_angle_alpha	85.650961
_cell_angle_beta	89.091650
_cell_angle_gamma	86.522975
loop_
_atom_site_label
_atom_site_type_symbol
_atom_site_fract_x
_atom_site_fract_y
_atom_site_fract_z
Zn1	Zn	1.466505	-0.431767	-0.805641
Zn2	Zn	1.475637	-0.601449	-0.643383
Zn3	Zn	1.315993	-0.436508	-0.612143
Zn4	Zn	1.284665	-0.564184	-0.791379
O5	O	1.385700	-0.508477	-0.713137
O6	O	1.610628	-0.467888	-0.803160
O7	O	1.471393	-0.597149	-0.496323
O8	O	1.345248	-0.311434	-0.630705
O9	O	1.617338	-0.592552	-0.683950
O10	O	1.455828	-0.307951	-0.772867
O11	O	1.354104	-0.475968	-0.473371
O12	O	1.168926	-0.439833	-0.616877
O13	O	1.291853	-0.529039	-0.936188
O14	O	1.145909	-0.533635	-0.748561
O15	O	1.425450	-0.431753	-0.946666
O16	O	1.441015	-0.720951	-0.670121
O17	O	1.300709	-0.693572	-0.778853
C18	C	1.120362	-0.483205	-0.677782
C19	C	1.006844	-0.472412	-0.662682
C20	C	0.944878	-0.514110	-0.721017
C21	C	0.827552	-0.502956	-0.705412
C22	C	1.368479	-0.739529	-0.726355
C23	C	1.361201	-0.838378	-0.732057
C24	C	1.493747	-1.052575	-0.629671
C25	C	1.486913	-1.145454	-0.635025
C26	C	1.340702	-1.117016	-0.748125
C27	C	1.347537	-1.024137	-0.742770
C28	C	1.424061	-0.991921	-0.683540
C29	C	1.430890	-0.899040	-0.678181
C30	C	1.284685	-0.870604	-0.791286
C31	C	1.277850	-0.963483	-0.796640
C32	C	1.652074	-0.533848	-0.748630
C33	C	1.765587	-0.544660	-0.763755
C34	C	1.354138	-0.475710	-0.979519
C35	C	1.340689	-0.461747	-1.093036
C36	C	1.403014	-0.276523	-0.699893
C37	C	1.410392	-0.177678	-0.694249
C38	C	1.392725	-0.515480	-1.155001
C39	C	1.378825	-0.501049	-1.272327
C40	C	1.417203	-0.541058	-0.447794
C41	C	1.430869	-0.554790	-0.334291
H42	H	0.973035	-0.428451	-0.601191
H43	H	1.285853	-0.405057	-1.126845
H44	H	1.215549	-0.989727	-0.844866
O45	O	1.458221	-0.583131	-1.114850
C46	C	1.578004	-0.706994	-1.149572
C47	C	1.503885	-0.630396	-1.195177
H48	H	1.614928	-0.745241	-1.214493
H49	H	1.640392	-0.677404	-1.104445
H50	H	1.533501	-0.755085	-1.096000
H51	H	1.548300	-0.582278	-1.248793
H52	H	1.441497	-0.660049	-1.240243
H53	H	1.323986	-0.444356	-1.306131
H54	H	0.978687	-0.558063	-0.782516
H55	H	1.543661	-1.194837	-0.591161
O56	O	0.787270	-0.450379	-0.632149
C57	C	0.771549	-0.302019	-0.569812
C58	C	0.817217	-0.361451	-0.652860
H59	H	0.795761	-0.230113	-0.586515
H60	H	0.684103	-0.302293	-0.570302
H61	H	0.801034	-0.329678	-0.491085
H62	H	0.787811	-0.333836	-0.731627
H63	H	0.904659	-0.361175	-0.652279
O64	O	1.505311	-0.867893	-0.620635
C65	C	1.649573	-0.905908	-0.508974
C66	C	1.565354	-0.941300	-0.574124
H67	H	1.698126	-0.965240	-0.471335
H68	H	1.700648	-0.861710	-0.560469
H69	H	1.612241	-0.864564	-0.446825
H70	H	1.602598	-0.982683	-0.636280
H71	H	1.514288	-0.985450	-0.522562
O72	O	1.266346	-1.148168	-0.805749
C73	C	1.122019	-1.110172	-0.917331
C74	C	1.206189	-1.074771	-0.852125
H75	H	1.073346	-1.050850	-0.954827
H76	H	1.159292	-1.151444	-0.979577
H77	H	1.071062	-1.154444	-0.865795
H78	H	1.257173	-1.030462	-0.903578
H79	H	1.168849	-1.033550	-0.789871
H80	H	1.485718	-0.611477	-1.300489
H81	H	1.227939	-0.821207	-0.835146
O82	O	1.568031	-1.021383	-0.571989
C83	C	1.640364	-1.019024	-0.403278
C84	C	1.556200	-1.054428	-0.468488
H85	H	1.630815	-1.045711	-0.319581
H86	H	1.719256	-1.042865	-0.433211
H87	H	1.633285	-0.942221	-0.408761
H88	H	1.563182	-1.131229	-0.463033
H89	H	1.477342	-1.030518	-0.438536
O90	O	0.806075	-0.597100	-0.837053
C91	C	0.959925	-0.655951	-0.919510
C92	C	0.914211	-0.596557	-0.836449
H93	H	1.047358	-0.655517	-0.919064
H94	H	0.935891	-0.727912	-0.902794
H95	H	0.930355	-0.628342	-0.998222
H96	H	0.943759	-0.624087	-0.757704
H97	H	0.938239	-0.524605	-0.853254
