data_functionalizedCrystal
_audit_creation_method	'MofGen! by Chris Wilmer'
_symmetry_space_group_name_H-M	'P1'
_symmetry_Int_Tables_number	1
_symmetry_cell_setting	triclinic
loop_
_symmetry_equiv_pos_as_xyz
  x,y,z
_cell_length_a	11.792254
_cell_length_b	10.868271
_cell_length_c	17.699092
_cell_angle_alpha	90.003449
_cell_angle_beta	83.742483
_cell_angle_gamma	90.004259
loop_
_atom_site_label
_atom_site_type_symbol
_atom_site_fract_x
_atom_site_fract_y
_atom_site_fract_z
O1	O	1.505661	0.102316	0.103782
O2	O	1.175194	0.102318	0.114463
O3	O	1.349759	0.102314	-0.001016
O4	O	1.331096	0.102320	0.219261
O5	O	1.349744	-0.102330	-0.001021
O6	O	1.175179	-0.102326	0.114458
O7	O	1.505646	-0.102328	0.103777
Zn8	Zn	1.340411	-0.134819	0.109117
Zn9	Zn	1.340429	0.134809	0.109123
O10	O	1.331081	-0.102324	0.219257
C11	C	1.132904	-0.000004	0.113788
C12	C	1.006915	-0.000003	0.111774
C13	C	0.904598	0.000003	0.110138
C14	C	0.776236	0.000003	0.108091
N15	N	1.340406	-0.318833	0.109113
C16	C	1.340423	-0.569839	0.109121
C17	C	1.340410	-0.430162	0.109119
C18	C	1.547936	-0.000004	0.104452
C19	C	1.673925	0.000003	0.106466
C20	C	1.349081	-0.000006	-0.029219
C21	C	1.347070	-0.000000	-0.113248
N22	N	1.340443	0.318823	0.109122
C23	C	1.346136	0.111553	-0.152718
C24	C	1.344239	0.111554	-0.231671
C25	C	1.343285	0.000001	-0.271153
C26	C	1.344216	-0.111560	-0.231677
C27	C	1.346105	-0.111561	-0.152725
C28	C	1.336598	-0.111562	-0.550083
C29	C	1.334712	-0.111553	-0.629041
C30	C	1.334732	0.111553	-0.629029
C31	C	1.336621	0.111553	-0.550077
C32	C	1.337546	-0.000008	-0.510607
C33	C	1.339600	-0.000009	-0.424997
C34	C	1.341238	0.000000	-0.356763
C35	C	1.331759	-0.000001	0.247459
C36	C	1.333770	0.000001	0.331488
H37	H	1.343483	0.202392	-0.263804
H38	H	1.337403	0.202391	-0.517934
H39	H	1.346919	0.202393	-0.120577
N40	N	1.337574	-0.225512	-0.509773
N41	N	1.418597	-0.250404	-0.472363
H42	H	1.419289	-0.330886	-0.443890
N43	N	1.347076	-0.225499	-0.112394
N44	N	1.348762	-0.225485	-0.041902
H45	H	1.349445	-0.305956	-0.013417
H46	H	1.333932	-0.202399	-0.661186
H47	H	1.333973	0.202391	-0.661174
N48	N	1.343228	-0.225500	-0.272016
N49	N	1.341542	-0.225486	-0.342508
H50	H	1.340847	-0.305958	-0.370997
