data_functionalizedCrystal
_audit_creation_method	'MofGen! by Chris Wilmer'
_symmetry_space_group_name_H-M	'P1'
_symmetry_Int_Tables_number	1
_symmetry_cell_setting	triclinic
loop_
_symmetry_equiv_pos_as_xyz
  x,y,z
_cell_length_a	17.699104
_cell_length_b	22.610064
_cell_length_c	17.699092
_cell_angle_alpha	89.994252
_cell_angle_beta	83.288943
_cell_angle_gamma	90.009101
loop_
_atom_site_label
_atom_site_type_symbol
_atom_site_fract_x
_atom_site_fract_y
_atom_site_fract_z
O1	O	1.004074	0.049194	0.095776
O2	O	0.783698	0.049193	0.108212
O3	O	0.900109	0.049192	-0.008195
O4	O	0.887663	0.049195	0.212182
O5	O	0.900088	-0.049177	-0.008178
O6	O	0.783678	-0.049177	0.108228
O7	O	1.004053	-0.049175	0.095793
Zn8	Zn	0.893862	-0.064794	0.102013
Zn9	Zn	0.893889	0.064812	0.101991
O10	O	0.887643	-0.049174	0.212199
C11	C	0.755491	0.000008	0.107772
C12	C	0.671474	0.000007	0.106427
C13	C	0.146605	0.000014	0.167170
C14	C	0.225548	0.000016	0.168430
C15	C	0.274164	0.000015	0.100095
C16	C	0.243832	0.000018	0.030496
C17	C	0.164890	0.000021	0.029238
C18	C	0.562198	0.000009	0.035569
C19	C	0.641145	0.000005	0.036833
C20	C	0.622857	0.000004	0.174761
C21	C	0.543915	0.000006	0.173503
C22	C	0.513590	0.000013	0.103905
C23	C	0.427990	0.000012	0.102540
C24	C	0.359762	0.000011	0.101458
N25	N	0.893849	-0.153246	0.102028
C26	C	0.945438	-0.561888	0.050454
C27	C	0.945442	-0.623808	0.050449
O28	O	0.989273	-0.655827	0.006610
N29	N	0.893889	-0.654784	0.101975
C30	C	0.842323	-0.623836	0.153505
O31	O	0.798472	-0.655869	0.197332
C32	C	0.842316	-0.561917	0.153507
C33	C	0.893878	-0.530945	0.101982
C34	C	0.996996	-0.530916	-0.001067
C35	C	0.996992	-0.469000	-0.001061
C36	C	0.945432	-0.438057	0.050467
C37	C	0.893875	-0.469029	0.101989
C38	C	0.790747	-0.530971	0.205033
C39	C	0.790744	-0.469048	0.205029
C40	C	0.842306	-0.438076	0.153504
C41	C	0.842311	-0.376170	0.153523
N42	N	0.893865	-0.345195	0.101996
C43	C	0.945425	-0.376138	0.050469
C44	C	0.842340	-0.753870	0.153498
C45	C	0.842350	-0.815787	0.153501
C46	C	0.945469	-0.815755	0.050443
C47	C	0.945462	-0.753836	0.050444
C48	C	0.893894	-0.722894	0.101971
C49	C	0.945415	-0.246111	0.050487
C50	C	0.945410	-0.184190	0.050500
C51	C	0.842289	-0.184227	0.153555
C52	C	0.842297	-0.246143	0.153545
C53	C	0.893863	-0.277083	0.102004
O54	O	0.798501	-0.344112	0.197337
O55	O	0.989262	-0.344097	0.006643
C56	C	1.032260	0.000011	0.096232
C57	C	1.116278	0.000016	0.097577
N58	N	0.893908	0.153264	0.101970
C59	C	0.899652	0.000008	-0.036383
C60	C	0.898311	0.000011	-0.120401
C61	C	0.897694	0.053633	-0.159878
C62	C	0.896429	0.053634	-0.238821
C63	C	0.895786	0.000012	-0.278286
C64	C	0.896401	-0.053614	-0.238804
C65	C	0.897661	-0.053614	-0.159862
C66	C	0.891321	-0.053615	-0.557169
C67	C	0.890063	-0.053611	-0.636117
C68	C	0.890089	0.053633	-0.636129
C69	C	0.891348	0.053633	-0.557186
C70	C	0.891959	0.000007	-0.517710
C71	C	0.893329	0.000007	-0.432111
C72	C	0.894421	0.000011	-0.363885
C73	C	0.888100	0.000011	0.240387
C74	C	0.889441	0.000012	0.324405
H75	H	0.140199	0.000023	-0.027432
C76	C	0.898400	0.112618	-0.116472
H77	H	0.897844	0.144552	-0.151292
H78	H	0.943009	0.114849	-0.091525
H79	H	0.854767	0.114846	-0.079829
C80	C	0.528846	0.000017	-0.040983
H81	H	0.474869	0.000027	-0.031951
H82	H	0.545529	-0.034285	-0.069113
H83	H	0.545555	0.034326	-0.069111
C84	C	1.053721	-0.564944	-0.057749
H85	H	1.084424	-0.537621	-0.088424
H86	H	1.026570	-0.589103	-0.089232
H87	H	1.085183	-0.589090	-0.030554
H88	H	0.987400	-0.158974	0.008542
H89	H	0.800311	-0.159024	0.195511
H90	H	0.895929	0.097298	-0.270960
C91	C	0.656213	0.000004	0.251321
H92	H	0.615952	-0.000001	0.291837
H93	H	0.686636	0.034307	0.254677
H94	H	0.686619	-0.034304	0.254684
C95	C	0.895697	-0.112597	-0.282214
H96	H	0.894867	-0.104918	-0.334885
H97	H	0.851781	-0.134632	-0.263427
H98	H	0.940024	-0.134626	-0.275120
C99	C	0.892058	0.112615	-0.513775
H100	H	0.892904	0.104934	-0.461107
H101	H	0.847739	0.134649	-0.520865
H102	H	0.935982	0.134645	-0.532566
H103	H	0.250236	0.000020	0.225099
H104	H	0.891833	-0.097280	-0.525039
C105	C	0.694625	0.000008	-0.038337
H106	H	0.745983	-0.000001	-0.027617
H107	H	0.685457	0.034314	-0.066883
H108	H	0.685435	-0.034297	-0.066878
H109	H	0.898152	-0.097278	-0.127719
H110	H	0.504335	0.000004	0.229148
H111	H	0.987404	-0.271295	0.008517
C112	C	0.889406	0.112621	-0.679553
H113	H	0.888555	0.104944	-0.732219
H114	H	0.933736	0.134653	-0.672468
H115	H	0.845494	0.134652	-0.660765
H116	H	0.107027	0.000010	0.222817
H117	H	0.800372	-0.841001	0.195465
H118	H	0.283421	0.000021	-0.025143
C119	C	0.889348	-0.112597	-0.679527
H120	H	0.889884	-0.144535	-0.644710
H121	H	0.932974	-0.114830	-0.716172
H122	H	0.844731	-0.114819	-0.704472
C123	C	0.734022	-0.435012	0.261712
H124	H	0.741396	-0.393699	0.254336
H125	H	0.742145	-0.445167	0.312215
H126	H	0.683527	-0.445168	0.253542
C127	C	1.053702	-0.434938	-0.057747
H128	H	1.084400	-0.462242	-0.088437
H129	H	1.085160	-0.410778	-0.030567
H130	H	1.026528	-0.410789	-0.089225
H131	H	0.987448	-0.728622	0.008488
C132	C	1.002178	-0.849800	-0.006245
H133	H	0.994787	-0.891112	0.001132
H134	H	1.052675	-0.839650	0.001907
H135	H	0.994042	-0.839649	-0.056750
H136	H	0.800349	-0.728680	0.195464
H137	H	0.748760	-0.556180	0.246988
C138	C	0.785552	-0.280214	0.210192
H139	H	0.754833	-0.252915	0.240869
H140	H	0.812681	-0.304387	0.241677
H141	H	0.754108	-0.304351	0.182959
