data_functionalizedCrystal
_audit_creation_method	'MofGen! by Chris Wilmer'
_symmetry_space_group_name_H-M	'P1'
_symmetry_Int_Tables_number	1
_symmetry_cell_setting	triclinic
loop_
_symmetry_equiv_pos_as_xyz
  x,y,z
_cell_length_a	16.992701
_cell_length_b	14.044190
_cell_length_c	16.053802
_cell_angle_alpha	92.795827
_cell_angle_beta	87.243340
_cell_angle_gamma	91.929473
loop_
_atom_site_label
_atom_site_type_symbol
_atom_site_fract_x
_atom_site_fract_y
_atom_site_fract_z
O1	O	1.057573	0.198288	-0.069451
O2	O	0.829133	0.196073	-0.069451
O3	O	0.939921	0.058937	-0.069435
O4	O	0.946786	0.335424	-0.069468
O5	O	0.933820	0.066452	0.069423
O6	O	0.823033	0.203589	0.069407
O7	O	1.051473	0.205803	0.069407
Zn8	Zn	0.936284	0.205889	0.091454
Zn9	Zn	0.944322	0.195987	-0.091498
O10	O	0.940685	0.342939	0.069390
C11	C	0.796671	0.196980	-0.000022
C12	C	0.709031	0.188472	-0.000021
C13	C	0.216072	0.131308	-0.000018
C14	C	0.298418	0.139309	-0.000014
C15	C	0.336266	0.229407	-0.000028
C16	C	0.291762	0.311509	-0.000038
C17	C	0.209418	0.303507	-0.000036
C18	C	0.582183	0.262572	-0.000030
C19	C	0.664534	0.270568	-0.000034
C20	C	0.671184	0.098367	-0.000008
C21	C	0.588838	0.090373	-0.000011
C22	C	0.544341	0.172475	-0.000017
N23	N	0.420437	0.237588	-0.000026
N24	N	0.460172	0.164294	-0.000012
C25	C	0.933868	0.027152	-0.000003
C26	C	0.924911	-0.078751	0.000004
C27	C	0.972059	-0.325469	-0.000029
C28	C	0.908551	-0.272650	-0.000023
C29	C	0.917656	-0.164755	-0.000008
C30	C	0.962955	-0.433374	-0.000044
C31	C	1.083935	0.204896	-0.000024
C32	C	1.171575	0.213404	-0.000030
C33	C	0.946738	0.374724	-0.000043
C34	C	0.955695	0.480627	-0.000056
N35	N	0.930805	0.212646	0.216313
N36	N	0.949807	0.189223	-0.216357
C37	C	0.977965	0.154318	0.260014
C38	C	0.974140	0.159054	0.347420
C39	C	0.923158	0.222125	0.391124
C40	C	0.875992	0.280455	0.347417
C41	C	0.879814	0.275713	0.260012
C42	C	0.906463	0.242811	0.652531
C43	C	0.902647	0.247551	0.739942
C44	C	1.000794	0.126148	0.739939
C45	C	1.004614	0.121416	0.652533
C46	C	0.957446	0.179743	0.608833
N47	N	0.919249	0.226970	0.480467
N48	N	0.961351	0.174892	0.519492
H49	H	0.334644	0.072458	0.000000
C50	C	1.054743	-0.277101	-0.000010
H51	H	1.093396	-0.324428	-0.000019
H52	H	1.058789	-0.235915	0.048419
H53	H	1.063058	-0.241123	-0.048432
H54	H	0.545964	0.329426	-0.000038
H55	H	0.847342	-0.308461	-0.000028
H56	H	1.019484	0.102964	0.224436
C57	C	0.333393	0.410615	-0.000056
H58	H	0.388808	0.403624	-0.000064
H59	H	0.316405	0.447307	0.048360
H60	H	0.320655	0.442051	-0.048491
H61	H	0.868057	0.290305	0.616958
H62	H	0.558028	0.017006	0.000001
C63	C	0.720131	0.008064	0.000009
H64	H	0.774593	0.025730	0.000013
H65	H	0.710130	-0.031252	-0.048405
H66	H	0.705873	-0.025993	0.048447
C67	C	0.827940	0.339875	0.211937
H68	H	0.837512	0.328011	0.153623
H69	H	0.840320	0.404905	0.226243
H70	H	0.773978	0.326273	0.226278
H71	H	0.173189	0.370359	-0.000044
C72	C	0.706169	0.369678	-0.000045
H73	H	0.761583	0.362680	-0.000055
H74	H	0.689185	0.406366	0.048375
H75	H	0.693433	0.401122	-0.048477
H76	H	1.012541	0.111558	0.383001
C77	C	1.060690	0.052033	0.604465
H78	H	1.088225	0.017966	0.643011
H79	H	1.097391	0.086968	0.570350
H80	H	1.031043	0.008345	0.570387
H81	H	1.039196	0.078660	0.775527
C82	C	0.846518	0.316877	0.788015
H83	H	0.818955	0.350915	0.749471
H84	H	0.876118	0.360582	0.822117
H85	H	0.809833	0.281881	0.822105
H86	H	0.834477	0.331805	0.383005
H87	H	0.185263	0.057940	-0.000011
