data_functionalizedCrystal
_audit_creation_method	'MofGen! by Chris Wilmer'
_symmetry_space_group_name_H-M	'P1'
_symmetry_Int_Tables_number	1
_symmetry_cell_setting	triclinic
loop_
_symmetry_equiv_pos_as_xyz
  x,y,z
_cell_length_a	34.490303
_cell_length_b	34.489386
_cell_length_c	34.485816
_cell_angle_alpha	60.004462
_cell_angle_beta	60.008900
_cell_angle_gamma	59.994399
loop_
_atom_site_label
_atom_site_type_symbol
_atom_site_fract_x
_atom_site_fract_y
_atom_site_fract_z
O1	O	0.053846	-0.566517	0.473678
O2	O	0.020329	-0.441078	0.381663
O3	O	0.099768	-0.520436	0.381578
O4	O	-0.025592	-0.487159	0.473762
O5	O	0.126127	-0.494082	0.407849
O6	O	0.046689	-0.414724	0.407933
O7	O	0.080206	-0.540163	0.499949
Zn8	Zn	0.067632	-0.473259	0.458112
Zn9	Zn	0.032903	-0.507982	0.423499
O10	O	0.000767	-0.460805	0.500033
N11	N	0.091336	-0.449565	0.481736
N12	N	0.009203	-0.531680	0.399875
C13	C	0.142510	-0.268211	0.532817
C14	C	0.142641	-0.398441	0.662987
C15	C	0.142524	-0.398421	0.532817
C16	C	0.272762	-0.398394	0.532723
C17	C	0.156853	-0.311177	0.547124
C18	C	0.156928	-0.384109	0.620020
C19	C	0.229794	-0.384081	0.547073
C20	C	0.156863	-0.384097	0.547124
C21	C	0.124253	-0.213522	0.514606
C22	C	0.124277	-0.416652	0.514606
C23	C	0.175110	-0.365866	0.565335
C24	C	0.352285	-0.384669	0.490824
C25	C	0.401998	-0.401229	0.474223
C26	C	0.402027	-0.481671	0.504898
C27	C	0.352316	-0.465109	0.521500
C28	C	0.136220	-0.188652	0.465734
C29	C	0.119621	-0.138936	0.449181
C30	C	0.079092	-0.138961	0.530374
C31	C	0.095691	-0.188678	0.546927
C32	C	0.075398	-0.404656	0.526651
C33	C	0.058814	-0.421229	0.510091
C34	C	0.139984	-0.461794	0.469452
C35	C	0.156570	-0.445221	0.486007
C36	C	0.075593	-0.404694	0.742565
C37	C	0.059066	-0.421281	0.792280
C38	C	0.140274	-0.461856	0.792215
C39	C	0.156800	-0.445269	0.742499
C40	C	0.124458	-0.416687	0.717675
C41	C	0.327446	-0.416608	0.514460
C42	C	-0.023585	-0.564792	0.161919
C43	C	-0.023910	-0.769260	0.366530
C44	C	-0.023880	-0.564780	0.366623
C45	C	-0.228325	-0.564561	0.366222
C46	C	-0.129610	-0.597564	0.333467
C47	C	-0.056729	-0.597644	0.333613
C48	C	-0.074925	-0.615849	0.315324
C49	C	-0.088689	-0.695351	0.357144
C50	C	-0.072155	-0.745068	0.373736
C51	C	0.008283	-0.745150	0.343188
C52	C	-0.008252	-0.695435	0.326596
C53	C	-0.154529	-0.609541	0.382326
C54	C	-0.204241	-0.592916	0.398818
C55	C	-0.204114	-0.552341	0.317588
C56	C	-0.154401	-0.568966	0.301096
C57	C	-0.068707	-0.548770	0.321590
C58	C	-0.052166	-0.532225	0.338221
C59	C	-0.011669	-0.613425	0.378886
C60	C	-0.028210	-0.629972	0.362261
C61	C	-0.068581	-0.548777	0.235758
C62	C	-0.051939	-0.532234	0.186043
C63	C	-0.011379	-0.613438	0.186090
C64	C	-0.028020	-0.629981	0.235806
C65	C	-0.056622	-0.597649	0.260639
C66	C	-0.056739	-0.670537	0.333576
C67	C	-0.005614	-0.545951	0.107238
C68	C	-0.006360	-0.823943	0.385033
C69	C	-0.005995	-0.545937	0.384582
C70	C	-0.283006	-0.545971	0.383725
N71	N	0.426163	-0.449489	0.481488
O72	O	0.588601	-0.457377	0.364497
O73	O	0.588789	-0.549696	0.489801
O74	O	0.588709	-0.549485	0.410335
O75	O	0.588681	-0.457588	0.443963
O76	O	0.509731	-0.523223	0.436741
O77	O	0.509811	-0.523434	0.516207
O78	O	0.509624	-0.431115	0.390903
Zn79	Zn	0.497178	-0.473105	0.457747
Zn80	Zn	0.601234	-0.507706	0.422956
O81	O	0.509704	-0.431326	0.470368
N82	N	0.672250	-0.531322	0.399211
N83	N	0.091303	-0.114798	0.481730
O84	O	-0.025603	0.047729	0.473733
O85	O	0.099703	0.047764	0.381394
O86	O	0.020199	0.047731	0.381655
O87	O	0.053901	0.047761	0.473472
O88	O	0.046564	-0.031252	0.407974
O89	O	0.126068	-0.031219	0.407713
O90	O	0.000762	-0.031254	0.500052
Zn91	Zn	0.067601	-0.043777	0.458061
Zn92	Zn	0.032864	0.060287	0.423385
O93	O	0.080266	-0.031222	0.499791
N94	N	0.009156	0.131307	0.399717
N95	N	0.091635	-0.449614	0.816396
O96	O	0.083664	-0.566502	0.978913
O97	O	-0.008637	-0.441152	0.978954
O98	O	-0.008421	-0.520640	0.978930
O99	O	0.083448	-0.487013	0.978936
O100	O	0.017877	-0.494296	0.899950
O101	O	0.017661	-0.414807	0.899974
O102	O	0.109961	-0.540157	0.899933
Zn103	Zn	0.067986	-0.473299	0.887414
Zn104	Zn	0.033338	-0.508010	0.991473
O105	O	0.109746	-0.460669	0.899956
N106	N	0.009689	-0.531700	1.062491
C107	C	0.030367	-0.412095	0.382120
C108	C	0.128741	-0.510370	0.382016
C109	C	0.070168	-0.569147	0.499490
C110	C	-0.028207	-0.470871	0.499595
C111	C	0.549323	-0.549278	0.518791
C112	C	0.549225	-0.549017	0.420381
C113	C	0.549087	-0.431532	0.361914
C114	C	0.549188	-0.431794	0.460322
C115	C	0.128638	0.008374	0.381806
C116	C	0.030215	0.008236	0.382161
C117	C	-0.028206	0.008233	0.499608
C118	C	0.070250	0.008272	0.499285
C119	C	-0.008199	-0.412187	0.939469
C120	C	-0.007927	-0.510619	0.939425
C121	C	0.109523	-0.569121	0.939417
C122	C	0.109257	-0.470684	0.939444
H123	H	0.019274	-0.411508	0.812539
C124	C	0.020584	0.008320	0.343650
C125	C	0.025787	0.048962	0.303906
C126	C	0.016910	0.049057	0.268426
H127	H	0.042477	-0.019190	0.334940
H128	H	-0.010868	0.008334	0.355252
H129	H	0.057235	0.048944	0.292305
H130	H	0.003895	0.076479	0.312601
H131	H	-0.014542	0.049071	0.280028
H132	H	0.038805	0.021545	0.259720
H133	H	0.020435	0.076634	0.241457
H134	H	-0.036776	-0.517804	0.939391
C135	C	0.549165	-0.587532	0.410881
C136	C	0.508574	-0.600236	0.443264
C137	C	0.508506	-0.635718	0.434532
H138	H	0.549101	-0.575975	0.379467
H139	H	0.576716	-0.614545	0.414414
H140	H	0.481030	-0.573228	0.439728
H141	H	0.508629	-0.611801	0.474682
H142	H	0.536057	-0.662732	0.438064
H143	H	0.508443	-0.624158	0.403116
H144	H	0.480968	-0.644346	0.456505
H145	H	0.159477	-0.208876	0.439413
C146	C	0.176570	0.008606	0.343124
C147	C	0.212275	-0.031924	0.359092
C148	C	0.256437	-0.031725	0.323476
H149	H	0.176650	0.008638	0.315524
H150	H	0.182232	0.036202	0.335738
H151	H	0.206615	-0.059513	0.366472
H152	H	0.212210	-0.031965	0.386688
H153	H	0.262098	-0.004129	0.316090
H154	H	0.256512	-0.031691	0.295878
H155	H	0.280668	-0.059221	0.334307
H156	H	0.023205	-0.376060	0.353221
C157	C	-0.076231	0.008326	0.538212
C158	C	-0.111765	0.048961	0.522064
C159	C	-0.156011	0.049069	0.557616
H160	H	-0.082094	-0.019189	0.545725
H161	H	-0.076280	0.008360	0.565769
H162	H	-0.111717	0.048924	0.494516
H163	H	-0.105919	0.076483	0.514555
H164	H	-0.156060	0.049103	0.585173
H165	H	-0.161869	0.021552	0.565126
H166	H	-0.180126	0.076641	0.546666
H167	H	0.164745	-0.517463	0.353068
H168	H	-0.064213	-0.463781	0.528541
C169	C	0.079828	0.008204	0.537823
C170	C	0.074596	-0.032430	0.577569
C171	C	0.083409	-0.032507	0.613082
H172	H	0.111267	0.008190	0.526273
H173	H	0.057908	0.035730	0.546508
H174	H	0.096516	-0.059948	0.568884
H175	H	0.043161	-0.032424	0.589132
H176	H	0.061488	-0.004981	0.621768
H177	H	0.114847	-0.032520	0.601528
H178	H	0.079856	-0.060074	0.640055
C179	C	-0.046825	-0.364162	0.939386
C180	C	-0.059458	-0.343318	0.898750
C181	C	-0.095033	-0.299075	0.898654
H182	H	-0.073843	-0.368262	0.966898
H183	H	-0.035364	-0.344184	0.939365
H184	H	-0.070919	-0.363291	0.898775
H185	H	-0.032451	-0.339206	0.871231
H186	H	-0.083572	-0.279097	0.898633
H187	H	-0.122048	-0.303179	0.926167
H188	H	-0.103606	-0.284925	0.871080
H189	H	0.138503	-0.605120	0.939399
H190	H	0.077330	-0.605181	0.528391
H191	H	0.138119	-0.463487	0.939440
C192	C	0.549416	-0.587873	0.566798
C193	C	0.549444	-0.570853	0.596101
C194	C	0.549536	-0.606395	0.640327
H195	H	0.521898	-0.596552	0.581087
H196	H	0.576984	-0.614848	0.562633
H197	H	0.521878	-0.543887	0.600268
H198	H	0.576959	-0.562177	0.581828
H199	H	0.577104	-0.633370	0.636161
H200	H	0.522018	-0.615072	0.654610
H201	H	0.549559	-0.594854	0.660213
H202	H	0.049253	-0.381417	0.722357
H203	H	0.166284	-0.485062	0.446169
C204	C	0.549103	-0.393230	0.469870
C205	C	0.508443	-0.353504	0.464653
C206	C	0.508353	-0.317968	0.473437
H207	H	0.549120	-0.404770	0.501300
H208	H	0.576607	-0.384527	0.447928
H209	H	0.480946	-0.362207	0.486593
H210	H	0.508417	-0.341950	0.433226
H211	H	0.535856	-0.309264	0.451496
H212	H	0.508371	-0.329512	0.504867
H213	H	0.480767	-0.291008	0.469895
C214	C	0.175463	-0.492900	0.819081
C215	C	0.221796	-0.499863	0.786644
C216	C	0.254224	-0.528469	0.811375
H217	H	0.170767	-0.477768	0.838479
H218	H	0.170733	-0.522721	0.838459
H219	H	0.226525	-0.470048	0.767274
H220	H	0.226508	-0.515001	0.767245
H221	H	0.249493	-0.558290	0.830753
H222	H	0.249523	-0.513334	0.830772
H223	H	0.285664	-0.533201	0.789370
C224	C	0.209839	-0.458259	0.715391
C225	C	0.217393	-0.437628	0.666540
C226	C	0.266245	-0.449589	0.641555
H227	H	0.223864	-0.446827	0.723468
H228	H	0.223829	-0.491804	0.723499
H229	H	0.203409	-0.404090	0.658436
H230	H	0.203380	-0.449058	0.658449
H231	H	0.280235	-0.483134	0.649663
H232	H	0.280266	-0.438156	0.649636
H233	H	0.271377	-0.435597	0.608407
C234	C	0.040262	-0.373621	0.557672
C235	C	-0.006094	-0.366650	0.564661
C236	C	-0.038474	-0.338057	0.593231
H237	H	0.045001	-0.388766	0.587486
H238	H	0.044997	-0.343802	0.542493
H239	H	-0.010827	-0.396463	0.579841
H240	H	-0.010849	-0.351499	0.534856
H241	H	-0.033739	-0.308238	0.578051
H242	H	-0.033730	-0.353205	0.623042
H243	H	-0.069930	-0.333320	0.597972
C244	C	0.005758	-0.408307	0.523188
C245	C	-0.006093	-0.449826	0.548021
C246	C	-0.054961	-0.437942	0.560086
H247	H	-0.011158	-0.388941	0.542616
H248	H	-0.002433	-0.391453	0.495095
H249	H	0.002093	-0.466673	0.576109
H250	H	0.010811	-0.469197	0.528602
H251	H	-0.063153	-0.421088	0.531993
H252	H	-0.071874	-0.418575	0.579513
H253	H	-0.063009	-0.466110	0.576933
H254	H	0.196371	-0.454985	0.476195
H255	H	0.332093	-0.491119	0.540748
C256	C	0.548935	-0.392899	0.313935
C257	C	0.508287	-0.382020	0.305555
C258	C	0.508133	-0.346438	0.261360
H259	H	0.548891	-0.365288	0.313839
H260	H	0.576447	-0.403759	0.289733
H261	H	0.480782	-0.371159	0.329750
H262	H	0.508322	-0.409620	0.305641
H263	H	0.535644	-0.357297	0.237158
H264	H	0.508090	-0.318830	0.261268
H265	H	0.480556	-0.339055	0.255666
C266	C	0.428944	-0.534349	0.512604
C267	C	0.396550	-0.558779	0.536869
C268	C	0.421330	-0.607308	0.543980
H269	H	0.448318	-0.539018	0.482759
H270	H	0.448348	-0.546030	0.530823
H271	H	0.377154	-0.547102	0.518650
H272	H	0.377174	-0.554123	0.566717
H273	H	0.440734	-0.618988	0.562199
H274	H	0.440703	-0.611972	0.514133
H275	H	0.399354	-0.623890	0.560448
H276	H	0.332037	-0.345175	0.485091
C277	C	0.428885	-0.366474	0.448546
C278	C	0.396467	-0.320452	0.445923
C279	C	0.421218	-0.288424	0.422265
H280	H	0.448302	-0.374725	0.465435
H281	H	0.448245	-0.367711	0.417382
H282	H	0.377116	-0.319216	0.477081
H283	H	0.377049	-0.312187	0.429031
H284	H	0.440578	-0.289660	0.391101
H285	H	0.440635	-0.296678	0.439155
H286	H	0.399226	-0.257193	0.420478
H287	H	0.055841	-0.118733	0.556693
C288	C	0.132587	-0.111990	0.396106
C289	C	0.115676	-0.124095	0.375664
C290	C	0.127614	-0.099289	0.326771
H291	H	0.118618	-0.078816	0.390811
H292	H	0.166129	-0.120134	0.382099
H293	H	0.082140	-0.115948	0.389667
H294	H	0.129642	-0.157265	0.380945
H295	H	0.161157	-0.107432	0.312764
H296	H	0.113645	-0.066115	0.321481
H297	H	0.116146	-0.107502	0.312894
C298	C	0.082666	-0.215592	0.600006
C299	C	0.054108	-0.183191	0.624766
C300	C	0.042103	-0.207968	0.673665
H301	H	0.065780	-0.234995	0.608232
H302	H	0.110783	-0.234970	0.608158
H303	H	0.025995	-0.163821	0.616618
H304	H	0.070983	-0.163787	0.616555
H305	H	0.070221	-0.227346	0.681816
H306	H	0.025220	-0.227370	0.681886
H307	H	0.022730	-0.185988	0.690470
H308	H	-0.061683	-0.492436	0.165791
H309	H	-0.091873	-0.522445	0.255974
H310	H	-0.018278	-0.669778	0.256062
C311	C	0.019681	-0.648618	0.159219
C312	C	0.026597	-0.694958	0.191652
C313	C	0.055213	-0.727380	0.166916
H314	H	0.004576	-0.643890	0.139780
H315	H	0.049513	-0.643909	0.139881
H316	H	-0.003229	-0.699666	0.210981
H317	H	0.041708	-0.699701	0.211092
H318	H	0.085044	-0.722670	0.147578
H319	H	0.040105	-0.722647	0.147478
H320	H	0.059913	-0.758825	0.188918
H321	H	-0.091926	-0.522444	0.298262
H322	H	0.011557	-0.639751	0.402207
C323	C	-0.065089	-0.479157	0.325069
C324	C	-0.048097	-0.458737	0.275620
C325	C	-0.059981	-0.409855	0.263485
H326	H	-0.098623	-0.465086	0.336398
H327	H	-0.051135	-0.473919	0.339048
H328	H	-0.062053	-0.463971	0.261647
H329	H	-0.014564	-0.472794	0.264280
H330	H	-0.046026	-0.404618	0.277464
H331	H	-0.093514	-0.395789	0.274817
H332	H	-0.048449	-0.395995	0.229934
C333	C	-0.015134	-0.683054	0.375341
C334	C	0.013394	-0.707825	0.403977
C335	C	0.025455	-0.756725	0.416029
H336	H	-0.043218	-0.691236	0.392184
H337	H	0.001791	-0.691241	0.347243
H338	H	-0.003531	-0.699643	0.432071
H339	H	0.041484	-0.699658	0.387143
H340	H	0.042380	-0.764911	0.387931
H341	H	-0.002631	-0.764902	0.432870
H342	H	0.044816	-0.773538	0.435456
H343	H	0.017768	-0.675232	0.307405
H344	H	0.047765	-0.765423	0.337508
H345	H	-0.098172	-0.765271	0.392919
H346	H	-0.134345	-0.632833	0.408685
C347	C	-0.141321	-0.668339	0.364632
C348	C	-0.156301	-0.680408	0.342376
C349	C	-0.204780	-0.655525	0.349251
H350	H	-0.158760	-0.676435	0.397663
H351	H	-0.146603	-0.635172	0.351353
H352	H	-0.151024	-0.713567	0.355658
H353	H	-0.138875	-0.672311	0.309344
H354	H	-0.210062	-0.622358	0.335971
H355	H	-0.222215	-0.663623	0.382283
H356	H	-0.214950	-0.663707	0.334148
C357	C	-0.231214	-0.605995	0.451887
C358	C	-0.198863	-0.634611	0.476706
C359	C	-0.223692	-0.646676	0.525593
H360	H	-0.250611	-0.577913	0.460089
H361	H	-0.250600	-0.622859	0.460013
H362	H	-0.179485	-0.617746	0.468583
H363	H	-0.179465	-0.662698	0.468518
H364	H	-0.243078	-0.663541	0.533719
H365	H	-0.243087	-0.618592	0.533790
H366	H	-0.201745	-0.666097	0.542438
H367	H	-0.224299	-0.529059	0.291228
H368	H	-0.134111	-0.559208	0.261309
