data_functionalizedCrystal
_audit_creation_method	'MofGen! by Chris Wilmer'
_symmetry_space_group_name_H-M	'P1'
_symmetry_Int_Tables_number	1
_symmetry_cell_setting	triclinic
loop_
_symmetry_equiv_pos_as_xyz
  x,y,z
_cell_length_a	18.215407
_cell_length_b	16.625539
_cell_length_c	18.215405
_cell_angle_alpha	90.031772
_cell_angle_beta	89.980602
_cell_angle_gamma	89.981287
loop_
_atom_site_label
_atom_site_type_symbol
_atom_site_fract_x
_atom_site_fract_y
_atom_site_fract_z
Zn1	Zn	1.125078	-0.455850	0.293091
Zn2	Zn	1.625078	0.044150	0.793091
Zn3	Zn	1.124985	-0.321009	0.416165
Zn4	Zn	1.624985	0.178991	0.916165
Zn5	Zn	1.002009	-0.321035	0.293105
Zn6	Zn	1.502009	0.178965	0.793105
Zn7	Zn	1.001977	-0.455803	0.416108
Zn8	Zn	1.501977	0.044197	0.916108
O9	O	1.063512	-0.388424	0.354617
O10	O	1.563512	0.111576	0.854617
O11	O	1.228050	-0.437972	0.309434
O12	O	1.728050	0.062028	0.809434
O13	O	1.108646	-0.208180	0.399870
O14	O	1.608646	0.291820	0.899870
O15	O	1.018387	-0.338949	0.190119
O16	O	1.518387	0.161051	0.690119
O17	O	1.227982	-0.338905	0.399856
O18	O	1.727982	0.161095	0.899856
O19	O	1.108806	-0.437997	0.190108
O20	O	1.608806	0.062003	0.690108
O21	O	1.018296	-0.208199	0.309458
O22	O	1.518296	0.291801	0.809458
O23	O	0.899021	-0.338903	0.309404
O24	O	1.399021	0.161097	0.809404
O25	O	1.018332	-0.568642	0.399760
O26	O	1.518332	-0.068642	0.899760
O27	O	0.898997	-0.437917	0.399774
O28	O	1.398997	0.062083	0.899774
O29	O	1.108774	-0.568676	0.309380
O30	O	1.608774	-0.068676	0.809380
O31	O	1.108615	-0.338859	0.519141
O32	O	1.608615	0.161141	1.019141
O33	O	1.018242	-0.437892	0.519100
O34	O	1.518242	0.062108	1.019100
C35	C	0.872306	-0.388408	0.354585
C36	C	1.372306	0.111592	0.854585
C37	C	0.790507	-0.388421	0.354589
C38	C	1.290507	0.111579	0.854589
C39	C	0.525480	-0.440091	0.307625
C40	C	1.025480	0.059909	0.807625
C41	C	0.602338	-0.440088	0.307613
C42	C	1.102338	0.059912	0.807613
C43	C	0.602286	-0.336775	0.401633
C44	C	1.102286	0.163225	0.901633
C45	C	0.525429	-0.336783	0.401648
C46	C	1.025429	0.163217	0.901648
C47	C	0.487028	-0.388439	0.354640
C48	C	0.987028	0.111561	0.854640
C49	C	0.640744	-0.388429	0.354613
C50	C	1.140744	0.111571	0.854613
C51	C	0.724077	-0.388426	0.354600
C52	C	1.224077	0.111574	0.854600
C53	C	0.403689	-0.388443	0.354653
C54	C	0.903689	0.111557	0.854653
C55	C	1.063560	-0.598733	0.354562
C56	C	1.563560	-0.098733	0.854562
C57	C	1.063581	-0.688354	0.354539
C58	C	1.563581	-0.188354	0.854539
C59	C	1.063614	-1.016530	0.354456
C60	C	1.563614	-0.516530	0.854456
C61	C	1.063603	-0.925222	0.354482
C62	C	1.563603	-0.425222	0.854482
C63	C	1.063598	-0.852445	0.354498
C64	C	1.563598	-0.352445	0.854498
C65	C	1.063586	-0.761131	0.354522
C66	C	1.563586	-0.261131	0.854522
C67	C	1.255465	-0.388441	0.354650
C68	C	1.755465	0.111559	0.854650
C69	C	1.337264	-0.388447	0.354664
C70	C	1.837264	0.111553	0.854664
C71	C	1.063435	-0.388385	0.545823
C72	C	1.563435	0.111615	1.045823
C73	C	1.063469	-0.388396	0.627622
C74	C	1.563469	0.111604	1.127622
C75	C	1.063507	-0.178933	0.354619
C76	C	1.563507	0.321067	0.854619
C77	C	1.063629	-0.089313	0.354435
C78	C	1.563629	0.410687	0.854435
C79	C	1.063610	-0.388481	0.162664
C80	C	1.563610	0.111519	0.662664
C81	C	1.063652	-0.388505	0.080865
C82	C	1.563652	0.111495	0.580865
C83	C	1.110637	-0.336924	0.815813
C84	C	1.610637	0.163076	1.315813
C85	C	1.110670	-0.336944	0.892672
C86	C	1.610670	0.163056	1.392672
C87	C	1.016482	-0.439982	0.892669
C88	C	1.516482	0.060018	1.392669
C89	C	1.016453	-0.439966	0.815812
C90	C	1.516453	0.060034	1.315812
C91	C	1.063530	-0.388433	0.777386
C92	C	1.563530	0.111567	1.277386
C93	C	1.063591	-0.388468	0.931102
C94	C	1.563591	0.111532	1.431102
C95	C	1.063627	-0.388490	1.014435
C96	C	1.563627	0.111510	1.514435
C97	C	1.063496	-0.388412	0.694047
C98	C	1.563496	0.111588	1.194047
H99	H	0.633562	-0.294717	0.439904
H100	H	1.133562	0.205283	0.939904
H101	H	1.148970	-0.294964	0.784529
H102	H	1.648970	0.205036	1.284529
H103	H	0.978153	-0.481938	0.923964
H104	H	1.478153	0.018062	1.423964
H105	H	0.633643	-0.482149	0.269330
H106	H	1.133643	0.017851	0.769330
O107	O	1.161473	-0.281385	0.934122
O108	O	1.661473	0.218615	1.434122
H109	H	1.194197	-0.245546	0.894487
H110	H	1.694197	0.254454	1.394487
O111	O	0.484065	-0.495811	0.256928
O112	O	0.984065	0.004189	0.756928
H113	H	0.449047	-0.459797	0.219447
H114	H	0.949047	0.040203	0.719447
H115	H	0.978093	-0.481914	0.784522
H116	H	1.478093	0.018086	1.284522
H117	H	0.494120	-0.294721	0.439937
H118	H	0.994120	0.205279	0.939937
