data_functionalizedCrystal
_audit_creation_method	'MofGen! by Chris Wilmer'
_symmetry_space_group_name_H-M	'P1'
_symmetry_Int_Tables_number	1
_symmetry_cell_setting	triclinic
loop_
_symmetry_equiv_pos_as_xyz
  x,y,z
_cell_length_a	27.731993
_cell_length_b	27.732048
_cell_length_c	26.210047
_cell_angle_alpha	90.000479
_cell_angle_beta	89.997422
_cell_angle_gamma	82.631525
loop_
_atom_site_label
_atom_site_type_symbol
_atom_site_fract_x
_atom_site_fract_y
_atom_site_fract_z
O1	O	0.640948	0.057384	0.042297
O2	O	0.974282	0.390718	0.375630
O3	O	1.307615	0.724051	0.708964
O4	O	0.500151	0.066158	0.042329
O5	O	0.833485	0.399491	0.375662
O6	O	1.166818	0.732824	0.708996
O7	O	0.574923	-0.008627	0.042302
O8	O	0.908256	0.324707	0.375636
O9	O	1.241589	0.658040	0.708969
O10	O	0.566177	0.132169	0.042324
O11	O	0.899510	0.465502	0.375657
O12	O	1.232844	0.798835	0.708990
O13	O	0.574908	-0.008615	-0.042556
O14	O	0.908242	0.324718	0.290778
O15	O	1.241575	0.658052	0.624111
O16	O	0.500137	0.066169	-0.042529
O17	O	0.833470	0.399503	0.290804
O18	O	1.166803	0.732836	0.624138
O19	O	0.640934	0.057396	-0.042561
O20	O	0.974267	0.390729	0.290772
O21	O	1.307601	0.724063	0.624106
Cu22	Cu	0.570534	0.061784	-0.050293
Cu23	Cu	0.903867	0.395117	0.283040
Cu24	Cu	1.237201	0.728450	0.616374
Cu25	Cu	0.570551	0.061770	0.050061
Cu26	Cu	0.903885	0.395103	0.383395
Cu27	Cu	1.237218	0.728437	0.716728
O28	O	0.566163	0.132180	-0.042534
O29	O	0.899496	0.465514	0.290799
O30	O	1.232829	0.798847	0.624132
C31	C	0.482137	0.065983	-0.000096
C32	C	0.815470	0.399317	0.333237
C33	C	1.148803	0.732650	0.666571
C34	C	0.428480	0.065441	-0.000084
C35	C	0.761814	0.398774	0.333249
C36	C	1.095147	0.732108	0.666582
C37	C	0.045328	0.061504	0.046147
C38	C	0.378661	0.394837	0.379480
C39	C	0.711995	0.728171	0.712813
C40	C	0.246985	0.063571	0.046161
C41	C	0.580319	0.396904	0.379494
C42	C	0.913652	0.730238	0.712827
O43	O	0.273065	0.063813	0.085501
O44	O	0.606399	0.397147	0.418834
O45	O	0.939732	0.730480	0.752167
N46	N	0.272198	0.063836	-0.000094
N47	N	0.605531	0.397169	0.333239
N48	N	0.938864	0.730503	0.666572
C49	C	0.246993	0.063581	-0.046356
C50	C	0.580327	0.396914	0.286977
C51	C	0.913660	0.730248	0.620310
O52	O	0.273066	0.063849	-0.085699
O53	O	0.606399	0.397182	0.247635
O54	O	0.939732	0.730516	0.580968
C55	C	0.045337	0.061511	-0.046370
C56	C	0.378671	0.394844	0.286963
C57	C	0.712004	0.728177	0.620297
C58	C	0.020127	0.061251	-0.000112
C59	C	0.353460	0.394584	0.333222
C60	C	0.686793	0.727917	0.666555
C61	C	0.020118	0.061243	0.092401
C62	C	0.353451	0.394577	0.425734
C63	C	0.686784	0.727910	0.759067
C64	C	-0.030294	0.060729	0.092397
C65	C	0.303039	0.394063	0.425730
C66	C	0.636373	0.727396	0.759063
C67	C	-0.055495	0.060476	0.046139
C68	C	0.277838	0.393809	0.379472
C69	C	0.611171	0.727143	0.712805
C70	C	-0.030285	0.060736	-0.000116
C71	C	0.303048	0.394070	0.333218
C72	C	0.636382	0.727403	0.666551
C73	C	0.020134	0.061252	-0.092631
C74	C	0.353467	0.394585	0.240702
C75	C	0.686801	0.727919	0.574035
C76	C	-0.030283	0.060733	-0.092630
C77	C	0.303050	0.394067	0.240703
C78	C	0.636384	0.727400	0.574036
C79	C	-0.055493	0.060473	-0.046372
C80	C	0.277840	0.393807	0.286961
C81	C	0.611173	0.727140	0.620294
C82	C	-0.105898	0.059969	-0.046378
C83	C	0.227435	0.393302	0.286955
C84	C	0.560769	0.726636	0.620289
N85	N	-0.131110	0.059704	-0.000123
N86	N	0.202223	0.393037	0.333210
N87	N	0.535556	0.726371	0.666544
C88	C	-0.105909	0.059957	0.046135
C89	C	0.227424	0.393291	0.379469
C90	C	0.560758	0.726624	0.712802
C91	C	0.352865	0.064669	-0.046346
C92	C	0.686199	0.398002	0.286988
C93	C	1.019532	0.731336	0.620321
C94	C	0.403279	0.065188	-0.046343
C95	C	0.736612	0.398521	0.286991
C96	C	1.069946	0.731854	0.620324
C97	C	0.403268	0.065177	0.046175
C98	C	0.736601	0.398510	0.379508
C99	C	1.069935	0.731843	0.712841
C100	C	0.352853	0.064662	0.046171
C101	C	0.686186	0.397995	0.379504
C102	C	1.019519	0.731328	0.712837
C103	C	0.327653	0.064404	-0.000091
C104	C	0.660986	0.397737	0.333243
C105	C	0.994320	0.731071	0.666576
C106	C	-0.211777	0.058878	0.046123
C107	C	0.121556	0.392212	0.379457
C108	C	0.454889	0.725545	0.712790
C109	C	-0.262194	0.058366	0.046115
C110	C	0.071140	0.391699	0.379449
C111	C	0.404473	0.725033	0.712782
C112	C	-0.262178	0.058375	-0.046402
C113	C	0.071156	0.391708	0.286932
C114	C	0.404489	0.725041	0.620265
C115	C	-0.211766	0.058889	-0.046394
C116	C	0.121567	0.392223	0.286940
C117	C	0.454901	0.725556	0.620273
C118	C	-0.186567	0.059139	-0.000127
C119	C	0.146766	0.392473	0.333206
C120	C	0.480100	0.725806	0.666539
O121	O	-0.132008	0.059721	-0.085698
O122	O	0.201325	0.393054	0.247636
O123	O	0.534659	0.726387	0.580969
O124	O	-0.131989	0.059679	0.085472
O125	O	0.201345	0.393012	0.418805
O126	O	0.534678	0.726345	0.752138
C127	C	0.095740	0.062018	0.046151
C128	C	0.429073	0.395351	0.379484
C129	C	0.762406	0.728685	0.712817
C130	C	0.120950	0.062279	-0.000104
C131	C	0.454283	0.395612	0.333230
C132	C	0.787617	0.728945	0.666563
C133	C	0.095749	0.062025	-0.046362
C134	C	0.429082	0.395359	0.286971
C135	C	0.762416	0.728692	0.620305
C136	C	0.171364	0.062797	-0.000101
C137	C	0.504697	0.396131	0.333233
C138	C	0.838030	0.729464	0.666566
C139	C	0.196565	0.063051	0.046158
C140	C	0.529898	0.396384	0.379491
C141	C	0.863232	0.729717	0.712824
C142	C	0.171353	0.062786	0.092413
C143	C	0.504686	0.396119	0.425746
C144	C	0.838019	0.729452	0.759080
C145	C	0.120941	0.062272	0.092409
C146	C	0.454274	0.395605	0.425742
C147	C	0.787608	0.728938	0.759075
C148	C	0.120961	0.062290	-0.092617
C149	C	0.454295	0.395624	0.240716
C150	C	0.787628	0.728957	0.574050
C151	C	0.171373	0.062805	-0.092609
C152	C	0.504706	0.396138	0.240724
C153	C	0.838040	0.729471	0.574057
C154	C	0.196574	0.063058	-0.046351
C155	C	0.529908	0.396392	0.286982
C156	C	0.863241	0.729725	0.620316
C157	C	0.574732	-0.026628	-0.000128
C158	C	0.908065	0.306706	0.333205
C159	C	1.241399	0.640039	0.666539
C160	C	0.574179	-0.080282	-0.000132
C161	C	0.907512	0.253051	0.333201
C162	C	1.240846	0.586384	0.666535
C163	C	0.614884	-0.419105	-0.000115
C164	C	0.948217	-0.085772	0.333218
C165	C	1.281551	0.247561	0.666552
C166	C	0.612833	-0.620765	-0.000108
C167	C	0.946166	-0.287431	0.333226
C168	C	1.279500	0.045902	0.666559
O169	O	0.650055	-0.652028	-0.000094
O170	O	0.983388	-0.318694	0.333240
O171	O	1.316721	0.014639	0.666573
N172	N	0.568497	-0.639880	-0.000098
N173	N	0.901830	-0.306546	0.333235
N174	N	1.235163	0.026787	0.666569
C175	C	0.524670	-0.608576	-0.000087
C176	C	0.858003	-0.275243	0.333246
C177	C	1.191336	0.058090	0.666580
O178	O	0.486912	-0.629462	-0.000073
O179	O	0.820245	-0.296129	0.333260
O180	O	1.153579	0.037204	0.666593
C181	C	0.526721	-0.406918	-0.000091
C182	C	0.860055	-0.073585	0.333243
C183	C	1.193388	0.259748	0.666576
C184	C	0.571061	-0.387806	-0.000106
C185	C	0.904394	-0.054473	0.333228
C186	C	1.237727	0.278860	0.666561
C187	C	0.659220	-0.399993	-0.000129
C188	C	0.992553	-0.066660	0.333204
C189	C	1.325886	0.266674	0.666537
C190	C	0.659732	-0.349581	-0.000134
C191	C	0.993065	-0.016248	0.333199
C192	C	1.326399	0.317086	0.666533
C193	C	0.615909	-0.318282	-0.000124
C194	C	0.949242	0.015052	0.333209
C195	C	1.282575	0.348385	0.666542
C196	C	0.571573	-0.337394	-0.000110
C197	C	0.904906	-0.004061	0.333223
C198	C	1.238240	0.329272	0.666556
C199	C	0.482895	-0.375616	-0.000076
C200	C	0.816228	-0.042283	0.333257
C201	C	1.149562	0.291051	0.666591
C202	C	0.483412	-0.325199	-0.000076
C203	C	0.816745	0.008135	0.333258
C204	C	1.150079	0.341468	0.666591
C205	C	0.527751	-0.306087	-0.000091
C206	C	0.861085	0.027247	0.333243
C207	C	1.194418	0.360580	0.666576
C208	C	0.528262	-0.255683	-0.000105
C209	C	0.861595	0.077650	0.333228
C210	C	1.194928	0.410983	0.666561
N211	N	0.572598	-0.236568	-0.000115
N212	N	0.905932	0.096765	0.333218
N213	N	1.239265	0.430098	0.666552
C214	C	0.616422	-0.267867	-0.000124
C215	C	0.949755	0.065466	0.333209
C216	C	1.283088	0.398799	0.666542
C217	C	0.523596	-0.714450	-0.000086
C218	C	0.856929	-0.381117	0.333247
C219	C	1.190262	-0.047784	0.666581
C220	C	0.523083	-0.764865	-0.000086
C221	C	0.856416	-0.431531	0.333248
C222	C	1.189749	-0.098198	0.666581
C223	C	0.611246	-0.777049	-0.000105
C224	C	0.944579	-0.443716	0.333228
C225	C	1.277913	-0.110383	0.666561
C226	C	0.611759	-0.726634	-0.000109
C227	C	0.945092	-0.393301	0.333224
C228	C	1.278425	-0.059967	0.666558
C229	C	0.567932	-0.695335	-0.000095
C230	C	0.901266	-0.362002	0.333238
C231	C	1.234599	-0.028669	0.666571
C232	C	0.617494	-0.161998	-0.000135
C233	C	0.950827	0.171335	0.333199
C234	C	1.284161	0.504668	0.666532
C235	C	0.618003	-0.111582	-0.000142
C236	C	0.951336	0.221752	0.333192
C237	C	1.284669	0.555085	0.666525
C238	C	0.529839	-0.099401	-0.000119
C239	C	0.863173	0.233932	0.333214
C240	C	1.196506	0.567265	0.666547
C241	C	0.529331	-0.149814	-0.000115
C242	C	0.862664	0.183520	0.333218
C243	C	1.195997	0.516853	0.666552
C244	C	0.573162	-0.181112	-0.000121
C245	C	0.906495	0.152222	0.333212
C246	C	1.239829	0.485555	0.666546
O247	O	0.491060	-0.224392	-0.000114
O248	O	0.824393	0.108941	0.333220
O249	O	1.157727	0.442275	0.666553
O250	O	0.654174	-0.246972	-0.000127
O251	O	0.987507	0.086361	0.333207
O252	O	1.320841	0.419694	0.666540
C253	C	0.614372	-0.469517	-0.000110
C254	C	0.947705	-0.136184	0.333223
C255	C	1.281038	0.197149	0.666556
C256	C	0.570036	-0.488630	-0.000096
C257	C	0.903369	-0.155297	0.333237
C258	C	1.236703	0.178037	0.666570
C259	C	0.526213	-0.457331	-0.000087
C260	C	0.859546	-0.123997	0.333247
C261	C	1.192879	0.209336	0.666580
C262	C	0.569523	-0.539044	-0.000096
C263	C	0.902856	-0.205711	0.333237
C264	C	1.236190	0.127622	0.666571
C265	C	0.613346	-0.570343	-0.000106
C266	C	0.946680	-0.237010	0.333228
C267	C	1.280013	0.096323	0.666561
C268	C	0.657683	-0.551228	-0.000115
C269	C	0.991016	-0.217895	0.333218
C270	C	1.324349	0.115438	0.666551
C271	C	0.658195	-0.500817	-0.000120
C272	C	0.991528	-0.167483	0.333213
C273	C	1.324862	0.165850	0.666547
C274	C	0.481876	-0.476446	-0.000077
C275	C	0.815210	-0.143112	0.333256
C276	C	1.148543	0.190221	0.666590
C277	C	0.481368	-0.526858	-0.000073
C278	C	0.814701	-0.193525	0.333260
C279	C	1.148034	0.139809	0.666594
C280	C	0.525191	-0.558157	-0.000083
C281	C	0.858524	-0.224824	0.333251
C282	C	1.191858	0.108509	0.666584
C283	C	0.658949	0.057570	-0.000135
C284	C	0.992282	0.390904	0.333199
C285	C	1.325615	0.724237	0.666532
C286	C	0.712605	0.058113	-0.000143
C287	C	1.045938	0.391446	0.333190
C288	C	1.379272	0.724779	0.666524
C289	C	0.566353	0.150181	-0.000103
C290	C	0.899687	0.483515	0.333231
C291	C	1.233020	0.816848	0.666564
C292	C	0.566906	0.203836	-0.000095
C293	C	0.900239	0.537169	0.333238
C294	C	1.233573	0.870503	0.666571
N295	N	0.570526	0.061793	-0.120877
N296	N	0.903859	0.395126	0.212456
N297	N	1.237192	0.728460	0.545790
C298	C	0.603657	0.028663	-0.473403
C299	C	0.936990	0.361996	-0.140070
C300	C	1.270323	0.695330	0.193264
C301	C	0.603667	0.028656	-0.687062
C302	C	0.937001	0.361990	-0.353728
C303	C	1.270334	0.695323	-0.020395
O304	O	0.631818	0.000490	-0.714693
O305	O	0.965151	0.333823	-0.381360
O306	O	1.298484	0.667157	-0.048027
N307	N	0.570554	0.061759	-0.713771
N308	N	0.903887	0.395093	-0.380438
N309	N	1.237220	0.728426	-0.047104
C310	C	0.537433	0.094864	-0.687063
C311	C	0.870767	0.428198	-0.353729
C312	C	1.204100	0.761531	-0.020396
O313	O	0.509265	0.123017	-0.714683
O314	O	0.842598	0.456350	-0.381350
O315	O	1.175932	0.789684	-0.048016
C316	C	0.537421	0.094868	-0.473405
C317	C	0.870754	0.428202	-0.140072
C318	C	1.204087	0.761535	0.193262
C319	C	0.570540	0.061766	-0.446698
C320	C	0.903873	0.395100	-0.113365
C321	C	1.237206	0.728433	0.219968
C322	C	0.636772	-0.004437	-0.446696
C323	C	0.970106	0.328897	-0.113363
C324	C	1.303439	0.662230	0.219970
C325	C	0.636771	-0.004433	-0.393285
C326	C	0.970104	0.328900	-0.059951
C327	C	1.303438	0.662234	0.273382
C328	C	0.603654	0.028671	-0.366580
C329	C	0.936987	0.362004	-0.033247
C330	C	1.270321	0.695337	0.300087
C331	C	0.570538	0.061770	-0.393287
C332	C	0.903872	0.395104	-0.059953
C333	C	1.237205	0.728437	0.273380
C334	C	0.504298	0.127971	-0.446697
C335	C	0.837631	0.461304	-0.113364
C336	C	1.170965	0.794638	0.219969
C337	C	0.504297	0.127968	-0.393280
C338	C	0.837630	0.461301	-0.059946
C339	C	1.170964	0.794635	0.273387
C340	C	0.537416	0.094866	-0.366573
C341	C	0.870749	0.428199	-0.033240
C342	C	1.204083	0.761533	0.300094
C343	C	0.537420	0.094877	-0.313171
C344	C	0.870753	0.428211	0.020163
C345	C	1.204087	0.761544	0.353496
N346	N	0.570533	0.061774	-0.286461
N347	N	0.903867	0.395108	0.046872
N348	N	1.237200	0.728441	0.380206
C349	C	0.603650	0.028671	-0.313166
C350	C	0.936984	0.362004	0.020167
C351	C	1.270317	0.695338	0.353501
C352	C	0.537443	0.094861	-0.799236
C353	C	0.870776	0.428194	-0.465903
C354	C	1.204109	0.761527	-0.132569
C355	C	0.537446	0.094860	-0.852650
C356	C	0.870780	0.428193	-0.519317
C357	C	1.204113	0.761527	-0.185983
C358	C	0.603680	0.028651	-0.852645
C359	C	0.937013	0.361985	-0.519312
C360	C	1.270347	0.695318	-0.185979
C361	C	0.603678	0.028654	-0.799230
C362	C	0.937012	0.361988	-0.465897
C363	C	1.270345	0.695321	-0.132564
C364	C	0.570556	0.061757	-0.772526
C365	C	0.903890	0.395091	-0.439193
C366	C	1.237223	0.728424	-0.105860
C367	C	0.603646	0.028682	-0.200998
C368	C	0.936979	0.362015	0.132335
C369	C	1.270312	0.695348	0.465669
C370	C	0.603643	0.028690	-0.147582
C371	C	0.936976	0.362023	0.185752
C372	C	1.270309	0.695356	0.519085
C373	C	0.537408	0.094897	-0.147591
C374	C	0.870741	0.428230	0.185742
C375	C	1.204074	0.761563	0.519076
C376	C	0.537412	0.094891	-0.201003
C377	C	0.870745	0.428224	0.132331
C378	C	1.204079	0.761557	0.465664
C379	C	0.570533	0.061779	-0.227705
C380	C	0.903866	0.395112	0.105629
C381	C	1.237200	0.728446	0.438962
O382	O	0.509281	0.123025	-0.285506
O383	O	0.842614	0.456359	0.047828
O384	O	1.175947	0.789692	0.381161
O385	O	0.631807	0.000515	-0.285536
O386	O	0.965141	0.333849	0.047797
O387	O	1.298474	0.667182	0.381131
C388	C	0.603658	0.028659	-0.526814
C389	C	0.936991	0.361993	-0.193481
C390	C	1.270325	0.695326	0.139852
C391	C	0.570542	0.061759	-0.553521
C392	C	0.903875	0.395092	-0.220188
C393	C	1.237209	0.728426	0.113146
C394	C	0.537425	0.094862	-0.526816
C395	C	0.870758	0.428196	-0.193483
C396	C	1.204092	0.761529	0.139850
C397	C	0.570546	0.061759	-0.606935
C398	C	0.903879	0.395092	-0.273602
C399	C	1.237212	0.728425	0.059731
C400	C	0.603663	0.028655	-0.633640
C401	C	0.936996	0.361988	-0.300307
C402	C	1.270329	0.695322	0.033027
C403	C	0.636776	-0.004448	-0.606931
C404	C	0.970110	0.328885	-0.273597
C405	C	1.303443	0.662219	0.059736
C406	C	0.636775	-0.004444	-0.553519
C407	C	0.970108	0.328889	-0.220186
C408	C	1.303442	0.662222	0.113148
C409	C	0.504311	0.127965	-0.553526
C410	C	0.837645	0.461299	-0.220193
C411	C	1.170978	0.794632	0.113141
C412	C	0.504316	0.127959	-0.606937
C413	C	0.837649	0.461293	-0.273604
C414	C	1.170982	0.794626	0.059729
C415	C	0.537433	0.094856	-0.633642
C416	C	0.870766	0.428189	-0.300309
C417	C	1.204100	0.761523	0.033025
N418	N	0.570564	0.061757	0.120645
N419	N	0.903897	0.395090	0.453979
N420	N	1.237230	0.728423	0.787312
H421	H	0.423800	0.065407	-0.084011
H422	H	0.757133	0.398741	0.249323
H423	H	1.090467	0.732074	0.582656
H424	H	-0.050799	0.060528	-0.130303
H425	H	0.282535	0.393861	0.203030
H426	H	0.615868	0.727194	0.536364
H427	H	0.100419	0.062060	0.130077
H428	H	0.433752	0.395393	0.463410
H429	H	0.767086	0.728727	0.796744
H430	H	0.486977	-0.780421	-0.000083
H431	H	0.820311	-0.447088	0.333251
H432	H	1.153644	-0.113754	0.666584
Cl433	Cl	0.645285	-0.012944	-0.234558
Cl434	Cl	0.978618	0.320389	0.098776
Cl435	Cl	1.311951	0.653722	0.432109
Cl436	Cl	0.645314	-0.012962	-0.765662
Cl437	Cl	0.978647	0.320371	-0.432329
Cl438	Cl	1.311981	0.653704	-0.098995
Cl439	Cl	0.473589	-0.173841	-0.000106
Cl440	Cl	0.806923	0.159492	0.333227
Cl441	Cl	1.140256	0.492826	0.666561
Cl442	Cl	0.672597	-0.201337	-0.000143
Cl443	Cl	1.005930	0.131997	0.333190
Cl444	Cl	1.339264	0.465330	0.666523
H445	H	-0.191240	0.059111	-0.084061
H446	H	0.142093	0.392444	0.249273
H447	H	0.475427	0.725777	0.582606
H448	H	0.191894	0.063021	-0.130281
H449	H	0.525228	0.396354	0.203052
H450	H	0.858561	0.729687	0.536386
H451	H	0.445259	-0.542414	-0.000065
H452	H	0.778592	-0.209080	0.333268
H453	H	1.111925	0.124253	0.666601
H454	H	-0.282718	0.058156	0.083786
H455	H	0.050615	0.391489	0.417119
H456	H	0.383949	0.724822	0.750452
H457	H	0.191880	0.062995	0.130078
H458	H	0.525213	0.396328	0.463411
H459	H	0.858547	0.729662	0.796745
H460	H	0.630646	0.001698	-0.874397
H461	H	0.963979	0.335031	-0.541064
H462	H	1.297313	0.668364	-0.207731
Cl463	Cl	0.678410	-0.046062	-0.640512
Cl464	Cl	1.011743	0.287271	-0.307179
Cl465	Cl	1.345077	0.620604	0.026154
Cl466	Cl	0.678411	-0.046058	-0.480259
Cl467	Cl	1.011744	0.287276	-0.146926
Cl468	Cl	1.345078	0.620609	0.186408
Cl469	Cl	0.426778	-0.437105	-0.000064
Cl470	Cl	0.760111	-0.103772	0.333269
Cl471	Cl	1.093445	0.229562	0.666602
H472	H	0.100448	0.062081	-0.130287
H473	H	0.433781	0.395415	0.203046
H474	H	0.767115	0.728748	0.536380
Cl475	Cl	0.678405	-0.046052	-0.359716
Cl476	Cl	1.011738	0.287282	-0.026383
Cl477	Cl	1.345071	0.620615	0.306950
Cl478	Cl	0.713939	-0.476798	-0.000134
Cl479	Cl	1.047272	-0.143465	0.333199
Cl480	Cl	1.380606	0.189869	0.666533
Cl481	Cl	0.714320	-0.439332	-0.000142
Cl482	Cl	1.047653	-0.105999	0.333191
Cl483	Cl	1.380986	0.227334	0.666525
Cl484	Cl	-0.180106	0.059194	0.104288
Cl485	Cl	0.153227	0.392527	0.437621
Cl486	Cl	0.486560	0.725861	0.770954
Cl487	Cl	0.495816	0.136482	-0.886218
Cl488	Cl	0.829149	0.469815	-0.552885
Cl489	Cl	1.162483	0.803149	-0.219551
H490	H	0.510470	0.121818	-0.777497
H491	H	0.843803	0.455152	-0.444164
H492	H	1.177137	0.788485	-0.110831
H493	H	-0.282706	0.058170	-0.084064
H494	H	0.050627	0.391503	0.249269
H495	H	0.383961	0.724837	0.582603
H496	H	0.494160	-0.073909	-0.000113
H497	H	0.827493	0.259425	0.333220
H498	H	1.160826	0.592758	0.666553
Cl499	Cl	0.666338	-0.816406	-0.000115
Cl500	Cl	0.999671	-0.483073	0.333218
Cl501	Cl	1.333005	-0.149740	0.666552
H502	H	0.477324	0.154924	-0.371540
H503	H	0.810657	0.488258	-0.038207
H504	H	1.143990	0.821591	0.295127
Cl505	Cl	0.673747	-0.087559	-0.000159
Cl506	Cl	1.007081	0.245775	0.333174
Cl507	Cl	1.340414	0.579108	0.666508
Cl508	Cl	0.715476	-0.325562	-0.000138
Cl509	Cl	1.048809	0.007771	0.333195
Cl510	Cl	1.382143	0.341104	0.666529
Cl511	Cl	0.462660	0.169586	-0.480261
Cl512	Cl	0.795993	0.502919	-0.146928
Cl513	Cl	1.129327	0.836252	0.186406
H514	H	-0.050816	0.060515	0.130065
H515	H	0.282518	0.393849	0.463398
H516	H	0.615851	0.727182	0.796732
Cl517	Cl	0.428312	-0.285854	-0.000058
Cl518	Cl	0.761645	0.047479	0.333275
Cl519	Cl	1.094979	0.380812	0.666609
Cl520	Cl	0.667501	-0.702613	-0.000127
Cl521	Cl	1.000835	-0.369280	0.333206
Cl522	Cl	1.334168	-0.035946	0.666540
H523	H	0.040631	0.061448	0.130072
H524	H	0.373965	0.394782	0.463405
H525	H	0.707298	0.728115	0.796739
Cl526	Cl	0.321165	0.064333	0.104326
Cl527	Cl	0.654498	0.397667	0.437659
Cl528	Cl	0.987832	0.731000	0.770992
Cl529	Cl	0.321192	0.064353	-0.104509
Cl530	Cl	0.654525	0.397686	0.228824
Cl531	Cl	0.987858	0.731019	0.562157
Cl532	Cl	0.495781	0.136511	-0.234575
Cl533	Cl	0.829114	0.469844	0.098758
Cl534	Cl	1.162447	0.803178	0.432091
H535	H	0.630614	0.001734	-0.125839
H536	H	0.963947	0.335067	0.207495
H537	H	1.297280	0.668401	0.540828
H538	H	0.510445	0.121851	-0.125840
H539	H	0.843779	0.455184	0.207493
H540	H	1.177112	0.788517	0.540827
H541	H	0.663743	-0.031399	-0.531778
H542	H	0.997077	0.301934	-0.198445
H543	H	1.330410	0.635268	0.134888
Cl544	Cl	0.462678	0.169579	-0.640506
Cl545	Cl	0.796012	0.502913	-0.307172
Cl546	Cl	1.129345	0.836246	0.026161
H547	H	0.477343	0.154922	-0.531787
H548	H	0.810676	0.488255	-0.198454
H549	H	1.144010	0.821588	0.134880
H550	H	0.423795	0.065385	0.083840
H551	H	0.757128	0.398718	0.417173
H552	H	1.090462	0.732051	0.750507
H553	H	0.487905	-0.688970	-0.000075
H554	H	0.821238	-0.355637	0.333259
H555	H	1.154572	-0.022304	0.666592
Cl556	Cl	0.712774	-0.590586	-0.000129
Cl557	Cl	1.046108	-0.257252	0.333204
Cl558	Cl	1.379441	0.076081	0.666537
H559	H	0.446789	-0.391168	-0.000061
H560	H	0.780123	-0.057834	0.333272
H561	H	1.113456	0.275499	0.666606
Cl562	Cl	0.051815	0.061579	-0.150788
Cl563	Cl	0.385148	0.394912	0.182545
Cl564	Cl	0.718482	0.728245	0.515878
