data_functionalizedCrystal
_audit_creation_method	'MofGen! by Chris Wilmer'
_symmetry_space_group_name_H-M	'P1'
_symmetry_Int_Tables_number	1
_symmetry_cell_setting	triclinic
loop_
_symmetry_equiv_pos_as_xyz
  x,y,z
_cell_length_a	14.519709
_cell_length_b	14.519709
_cell_length_c	12.376457
_cell_angle_alpha	101.296542
_cell_angle_beta	78.691279
_cell_angle_gamma	83.680145
loop_
_atom_site_label
_atom_site_type_symbol
_atom_site_fract_x
_atom_site_fract_y
_atom_site_fract_z
O1	O	1.241497	0.103271	-0.093858
O2	O	1.741497	0.603271	0.406142
O3	O	0.973026	0.117501	-0.093893
O4	O	1.473026	0.617501	0.406107
O5	O	1.114378	-0.023850	-0.093864
O6	O	1.614378	0.476150	0.406136
O7	O	1.100145	0.244623	-0.093886
O8	O	1.600145	0.744623	0.406114
O9	O	1.079053	0.011440	0.094141
O10	O	1.579053	0.511440	0.594141
O11	O	0.937701	0.152791	0.094112
O12	O	1.437701	0.652791	0.594112
O13	O	1.206172	0.138561	0.094147
O14	O	1.706172	0.638561	0.594147
Zn15	Zn	1.066328	0.151279	0.123980
Zn16	Zn	1.566328	0.651279	0.623980
Zn17	Zn	1.112870	0.104783	-0.123725
Zn18	Zn	1.612870	0.604783	0.376275
O19	O	1.064820	0.279912	0.094119
O20	O	1.564820	0.779912	0.594119
C21	C	0.921005	0.134482	0.000106
C22	C	1.421005	0.634482	0.500106
C23	C	0.818626	0.132491	0.000093
C24	C	1.318626	0.632491	0.500093
C25	C	0.443720	0.125182	0.000145
C26	C	0.943720	0.625182	0.500145
C27	C	0.548031	0.127211	0.000130
C28	C	1.048031	0.627211	0.500130
C29	C	0.631170	0.128836	0.000118
C30	C	1.131170	0.628836	0.500118
C31	C	0.735487	0.130867	0.000105
C32	C	1.235487	0.630867	0.500105
C33	C	1.096052	-0.040565	0.000139
C34	C	1.596052	0.459435	0.500139
C35	C	1.094063	-0.142946	0.000139
C36	C	1.594063	0.357054	0.500139
C37	C	1.086750	-0.517848	0.000109
C38	C	1.586750	-0.017848	0.500109
C39	C	1.088781	-0.413538	0.000117
C40	C	1.588781	0.086462	0.500117
C41	C	1.090406	-0.330400	0.000125
C42	C	1.590406	0.169600	0.500125
C43	C	1.092438	-0.226084	0.000132
C44	C	1.592438	0.273916	0.500132
C45	C	1.258194	0.121580	0.000147
C46	C	1.758194	0.621580	0.500147
C47	C	1.360574	0.123569	0.000152
C48	C	1.860574	0.623569	0.500152
C49	C	1.083147	0.296627	0.000114
C50	C	1.583147	0.796627	0.500114
C51	C	1.085136	0.399007	0.000106
C52	C	1.585136	0.899007	0.500106
N53	N	1.034570	0.183010	0.293032
N54	N	1.534570	0.683010	0.793032
N55	N	1.144635	0.073045	-0.292777
N56	N	1.644635	0.573045	0.207223
C57	C	1.218354	-0.000632	0.648054
C58	C	1.718354	0.499368	1.148054
C59	C	1.240576	-0.022842	0.529718
C60	C	1.740576	0.477158	1.029718
C61	C	1.189076	0.028619	0.470541
C62	C	1.689076	0.528619	0.970541
C63	C	1.115351	0.102294	0.529710
C64	C	1.615351	0.602294	1.029710
C65	C	1.093132	0.124510	0.648057
C66	C	1.593132	0.624510	1.148057
C67	C	1.063854	0.153762	0.470544
C68	C	1.563854	0.653762	0.970544
C69	C	0.990129	0.227436	0.529714
C70	C	1.490129	0.727436	1.029714
C71	C	0.967913	0.249648	0.648049
C72	C	1.467913	0.749648	1.148049
C73	C	1.019413	0.198187	0.707227
C74	C	1.519413	0.698187	1.207227
C75	C	1.086073	0.131545	0.352197
C76	C	1.586073	0.631545	0.852197
C77	C	0.960851	0.256688	0.352201
C78	C	1.460851	0.756688	0.852201
C79	C	0.938629	0.278897	0.470536
C80	C	1.438629	0.778897	0.970536
H81	H	1.146101	0.071560	0.304032
H82	H	1.646101	0.571560	0.804032
H83	H	1.260283	-0.042521	0.696244
H84	H	1.760283	0.457479	1.196244
N85	N	0.996719	0.220855	0.828107
N86	N	1.496719	0.720855	1.328107
N87	N	1.042704	0.174892	0.880923
N88	N	1.542704	0.674892	1.380923
H89	H	1.026678	0.190899	0.966296
H90	H	1.526678	0.690899	1.466296
H91	H	0.907889	0.309644	0.696225
H92	H	1.407889	0.809644	1.196225
H93	H	0.878601	0.338884	0.518727
H94	H	1.378601	0.838884	1.018727
N95	N	1.315949	-0.098047	0.469362
N96	N	1.815949	0.401953	0.969362
N97	N	1.312171	-0.180823	0.482592
N98	N	1.812171	0.319177	0.982592
H99	H	1.365436	-0.233921	0.439989
H100	H	1.865436	0.266079	0.939989
N101	N	0.908256	0.309257	0.291749
N102	N	1.408256	0.809257	0.791749
N103	N	0.928105	0.289415	0.186089
N104	N	1.428105	0.789415	0.686089
H105	H	0.890966	0.326541	0.143386
H106	H	1.390966	0.826541	0.643386
H107	H	1.207173	0.010533	0.374187
H108	H	1.707173	0.510533	0.874187
