data_functionalizedCrystal
_audit_creation_method	'MofGen! by Chris Wilmer'
_symmetry_space_group_name_H-M	'P1'
_symmetry_Int_Tables_number	1
_symmetry_cell_setting	triclinic
loop_
_symmetry_equiv_pos_as_xyz
  x,y,z
_cell_length_a	12.759401
_cell_length_b	12.759400
_cell_length_c	12.759393
_cell_angle_alpha	89.970195
_cell_angle_beta	89.979062
_cell_angle_gamma	90.016169
loop_
_atom_site_label
_atom_site_type_symbol
_atom_site_fract_x
_atom_site_fract_y
_atom_site_fract_z
Zn1	Zn	1.606267	-0.418173	-0.594025
Zn2	Zn	2.106267	0.081827	-0.094025
Zn3	Zn	1.606158	-0.593888	-0.418347
Zn4	Zn	2.106158	-0.093888	0.081653
Zn5	Zn	1.430565	-0.418229	-0.418360
Zn6	Zn	1.930565	0.081771	0.081640
Zn7	Zn	1.430558	-0.593815	-0.593985
Zn8	Zn	1.930558	-0.093815	-0.093985
O9	O	1.518387	-0.506026	-0.506179
O10	O	2.018387	-0.006026	-0.006179
O11	O	1.753273	-0.441489	-0.570733
O12	O	2.253273	0.058511	-0.070733
O13	O	1.582823	-0.570641	-0.271328
O14	O	2.082823	-0.070641	0.228672
O15	O	1.453921	-0.271200	-0.441685
O16	O	1.953921	0.228800	0.058315
O17	O	1.753193	-0.570587	-0.441663
O18	O	2.253193	-0.070587	0.058337
O19	O	1.583008	-0.271159	-0.570745
O20	O	2.083008	0.228841	-0.070745
O21	O	1.453816	-0.441584	-0.271337
O22	O	1.953816	0.058416	0.228663
O23	O	1.283543	-0.441513	-0.441646
O24	O	1.783543	0.058487	0.058354
O25	O	1.453908	-0.570461	-0.741011
O26	O	1.953908	-0.070461	-0.241011
O27	O	1.283538	-0.570516	-0.570676
O28	O	1.783538	-0.070516	-0.070676
O29	O	1.583001	-0.441418	-0.741041
O30	O	2.083001	0.058582	-0.241041
O31	O	1.582815	-0.740900	-0.441624
O32	O	2.082815	-0.240900	0.058376
O33	O	1.453803	-0.740846	-0.570664
O34	O	1.953803	-0.240846	-0.070664
C35	C	1.245420	-0.506013	-0.506159
C36	C	1.745420	-0.006013	-0.006159
C37	C	1.128643	-0.506033	-0.506175
C38	C	1.628643	-0.006033	-0.006175
C39	C	1.073805	-0.573307	-0.573255
C40	C	1.573805	-0.073307	-0.073255
C41	C	0.964081	-0.573311	-0.573276
C42	C	1.464081	-0.073311	-0.073276
C43	C	0.964042	-0.438764	-0.439127
C44	C	1.464042	0.061236	0.060873
C45	C	1.073764	-0.438756	-0.439112
C46	C	1.573764	0.061244	0.060888
C47	C	1.518325	-0.778994	-0.506161
C48	C	2.018325	-0.278994	-0.006161
C49	C	1.518394	-0.895770	-0.506188
C50	C	2.018394	-0.395770	-0.006188
C51	C	1.585581	-0.950521	-0.573447
C52	C	2.085581	-0.450521	-0.073447
C53	C	1.585640	-1.060245	-0.573475
C54	C	2.085640	-0.560245	-0.073475
C55	C	1.451323	-1.060458	-0.438977
C56	C	1.951323	-0.560458	0.061023
C57	C	1.451260	-0.950736	-0.438955
C58	C	1.951260	-0.450736	0.061045
C59	C	1.792420	-0.506040	-0.506201
C60	C	2.292420	-0.006040	-0.006201
C61	C	1.909197	-0.506046	-0.506210
C62	C	2.409197	-0.006046	-0.006210
C63	C	1.518466	-0.505925	-0.780213
C64	C	2.018466	-0.005925	-0.280213
C65	C	1.518499	-0.505882	-0.896990
C66	C	2.018499	-0.005882	-0.396990
C67	C	1.518478	-0.231993	-0.506221
C68	C	2.018478	0.268007	-0.006221
C69	C	1.518517	-0.115216	-0.506239
C70	C	2.018517	0.384784	-0.006239
C71	C	1.585723	-0.438679	-0.951869
C72	C	2.085723	0.061321	-0.451869
C73	C	1.585740	-0.438633	-1.061593
C74	C	2.085740	0.061367	-0.561593
C75	C	1.451308	-0.573004	-1.061549
C76	C	1.951308	-0.073004	-0.561549
C77	C	1.451286	-0.573044	-0.951827
C78	C	1.951286	-0.073044	-0.451827
C79	C	1.518369	-0.506051	-0.233212
C80	C	2.018369	-0.006051	0.266788
C81	C	1.518539	-0.505798	-0.116436
C82	C	2.018539	-0.005798	0.383564
H83	H	1.118485	-0.628086	-0.627864
H84	H	1.618485	-0.128086	-0.127864
H85	H	1.640347	-1.104818	-0.628246
H86	H	2.140347	-0.604818	-0.128246
C87	C	1.377335	-0.890506	-0.364972
C88	C	1.877335	-0.390506	0.135028
N89	N	1.321651	-0.845142	-0.309255
N90	N	1.821651	-0.345142	0.190745
H91	H	1.640479	-0.383908	-1.106271
H92	H	2.140479	0.116092	-0.606271
H93	H	1.396537	-0.627768	-0.907143
H94	H	1.896537	-0.127768	-0.407143
H95	H	1.640449	-0.383989	-0.907223
H96	H	2.140449	0.116011	-0.407223
C97	C	0.903765	-0.647327	-0.647060
C98	C	1.403765	-0.147327	-0.147060
N99	N	0.858336	-0.703083	-0.702635
N100	N	1.358336	-0.203083	-0.202635
C101	C	1.377376	-0.646876	-1.121880
C102	C	1.877376	-0.146876	-0.621880
N103	N	1.321687	-0.702517	-1.167321
N104	N	1.821687	-0.202517	-0.667321
H105	H	0.919346	-0.383991	-0.384525
H106	H	1.419346	0.116009	0.115475
H107	H	1.640244	-0.905770	-0.628194
H108	H	2.140244	-0.405770	-0.128194
C109	C	1.134089	-0.364746	-0.365314
C110	C	1.634089	0.135254	0.134686
N111	N	1.179526	-0.309002	-0.309733
N112	N	1.679526	0.190998	0.190267
C113	C	1.377551	-1.120930	-0.364953
C114	C	1.877551	-0.620930	0.135047
N115	N	1.322010	-1.166477	-0.309169
N116	N	1.822010	-0.666477	0.190831
