data_functionalizedCrystal
_audit_creation_method	'MofGen! by Chris Wilmer'
_symmetry_space_group_name_H-M	'P1'
_symmetry_Int_Tables_number	1
_symmetry_cell_setting	triclinic
loop_
_symmetry_equiv_pos_as_xyz
  x,y,z
_cell_length_a	16.974939
_cell_length_b	16.992694
_cell_length_c	15.455313
_cell_angle_alpha	87.142206
_cell_angle_beta	83.693782
_cell_angle_gamma	92.970755
loop_
_atom_site_label
_atom_site_type_symbol
_atom_site_fract_x
_atom_site_fract_y
_atom_site_fract_z
O1	O	-0.164928	1.043109	-0.060465
O2	O	0.168406	1.376442	0.272869
O3	O	0.501739	1.709775	0.606202
O4	O	-0.163082	0.814832	-0.060619
O5	O	0.170252	1.148166	0.272714
O6	O	0.503585	1.481499	0.606047
O7	O	-0.048945	0.935709	-0.068599
O8	O	0.284389	1.269042	0.264735
O9	O	0.617722	1.602376	0.598068
O10	O	-0.279065	0.922232	-0.052485
O11	O	0.054269	1.255565	0.280848
O12	O	0.387602	1.588899	0.614181
O13	O	-0.055443	0.928797	0.076118
O14	O	0.277891	1.262130	0.409451
O15	O	0.611224	1.595463	0.742785
O16	O	-0.169580	0.807920	0.084097
O17	O	0.163754	1.141254	0.417430
O18	O	0.497087	1.474587	0.750764
O19	O	-0.171426	1.036196	0.084252
O20	O	0.161907	1.369530	0.417585
O21	O	0.495241	1.702863	0.750919
Cu22	Cu	-0.171096	0.921427	0.097388
Cu23	Cu	0.162237	1.254761	0.430722
Cu24	Cu	0.495571	1.588094	0.764055
Cu25	Cu	-0.163411	0.929602	-0.073756
Cu26	Cu	0.169922	1.262935	0.259578
Cu27	Cu	0.503255	1.596268	0.592911
O28	O	-0.285563	0.915320	0.092231
O29	O	0.047770	1.248653	0.425564
O30	O	0.381104	1.581987	0.758898
C31	C	-0.163957	0.782174	0.011569
C32	C	0.169376	1.115508	0.344903
C33	C	0.502710	1.448841	0.678236
C34	C	-0.156875	0.695161	0.011063
C35	C	0.176458	1.028495	0.344397
C36	C	0.509792	1.361828	0.677730
C37	C	-0.022612	0.931865	0.001686
C38	C	0.310721	1.265198	0.335020
C39	C	0.644054	1.598532	0.668353
C40	C	0.065532	0.930700	-0.004492
C41	C	0.398865	1.264033	0.328842
C42	C	0.732198	1.597367	0.662175
C43	C	-0.225204	0.644625	0.015848
C44	C	0.108130	0.977958	0.349182
C45	C	0.441463	1.311292	0.682515
C46	C	-0.218545	0.562867	0.015394
C47	C	0.114788	0.896200	0.348728
C48	C	0.448121	1.229533	0.682061
C49	C	-0.143557	0.531646	0.010149
C50	C	0.189776	0.864980	0.343482
C51	C	0.523109	1.198313	0.676815
C52	C	-0.075224	0.582189	0.005366
C53	C	0.258110	0.915522	0.338699
C54	C	0.591443	1.248856	0.672032
C55	C	-0.081883	0.663945	0.005826
C56	C	0.251450	0.997279	0.339160
C57	C	0.584784	1.330612	0.672493
C58	C	-0.115958	0.288167	0.008239
C59	C	0.217376	0.621500	0.341573
C60	C	0.550709	0.954834	0.674906
C61	C	-0.109303	0.206404	0.007776
C62	C	0.224030	0.539738	0.341110
C63	C	0.557363	0.873071	0.674443
C64	C	-0.252626	0.187087	0.017807
C65	C	0.080707	0.520421	0.351140
C66	C	0.414041	0.853754	0.684473
C67	C	-0.259278	0.268846	0.018261
C68	C	0.074055	0.602180	0.351595
C69	C	0.407388	0.935513	0.684928
C70	C	-0.190945	0.319382	0.013483
C71	C	0.142389	0.652715	0.346816
C72	C	0.475722	0.986048	0.680150
N73	N	-0.136750	0.448077	0.009681
N74	N	0.196583	0.781410	0.343015
N75	N	0.529917	1.114743	0.676348
N76	N	-0.197753	0.402950	0.013957
N77	N	0.135580	0.736283	0.347290
N78	N	0.468913	1.069616	0.680623
C79	C	0.562075	0.924623	-0.047831
C80	C	0.895409	1.257956	0.285502
C81	C	1.228742	1.591289	0.618836
C82	C	0.479254	0.925709	-0.042008
C83	C	0.812587	1.259042	0.291325
C84	C	1.145920	1.592375	0.624658
C85	C	0.434317	0.922478	0.039788
C86	C	0.767650	1.255811	0.373121
C87	C	1.100983	1.589145	0.706455
C88	C	0.472206	0.918168	0.115767
C89	C	0.805539	1.251502	0.449100
C90	C	1.138873	1.584835	0.782433
C91	C	0.555027	0.917088	0.109943
C92	C	0.888360	1.250421	0.443277
C93	C	1.221693	1.583755	0.776610
C94	C	0.186242	0.925310	0.065663
C95	C	0.519575	1.258644	0.398997
C96	C	0.852908	1.591977	0.732330
C97	C	0.103415	0.926389	0.071481
C98	C	0.436749	1.259722	0.404815
C99	C	0.770082	1.593055	0.738148
C100	C	0.110469	0.933930	-0.086295
C101	C	0.443802	1.267264	0.247039
C102	C	0.777135	1.600597	0.580372
C103	C	0.193290	0.932845	-0.092111
C104	C	0.526623	1.266178	0.241222
C105	C	0.859957	1.599511	0.574556
C106	C	0.231173	0.928540	-0.016132
C107	C	0.564506	1.261873	0.317201
C108	C	0.897839	1.595206	0.650534
N109	N	0.349659	0.923586	0.045742
N110	N	0.682993	1.256919	0.379075
N111	N	1.016326	1.590252	0.712408
N112	N	0.315829	0.927438	-0.022087
N113	N	0.649162	1.260771	0.311247
N114	N	0.982496	1.594104	0.644580
C115	C	0.688104	0.919159	0.021951
C116	C	1.021438	1.252493	0.355284
C117	C	1.354771	1.585826	0.688617
C118	C	0.599959	0.920311	0.028142
C119	C	0.933292	1.253645	0.361475
C120	C	1.266626	1.586978	0.694809
C121	C	-0.170550	1.068855	0.012061
C122	C	0.162783	1.402188	0.345395
C123	C	0.496116	1.735521	0.678728
C124	C	-0.177632	1.155868	0.012562
C125	C	0.155701	1.489201	0.345895
C126	C	0.489034	1.822535	0.679228
N127	N	-0.176501	0.915683	0.217762
N128	N	0.156832	1.249017	0.551095
N129	N	0.490166	1.582350	0.884428
N130	N	-0.158000	0.935352	-0.194130
N131	N	0.175333	1.268685	0.139204
N132	N	0.508666	1.602018	0.472537
C133	C	-0.128032	0.967054	0.259767
C134	C	0.205301	1.300387	0.593101
C135	C	0.538635	1.633720	0.926434
C136	C	-0.132127	0.962717	0.350861
C137	C	0.201206	1.296051	0.684195
C138	C	0.534539	1.629384	1.017528
C139	C	-0.184696	0.907014	0.399949
C140	C	0.148637	1.240347	0.733282
C141	C	0.481970	1.573680	1.066615
C142	C	-0.233168	0.855638	0.357937
C143	C	0.100166	1.188971	0.691270
C144	C	0.433499	1.522305	1.024603
C145	C	-0.229068	0.859971	0.266844
C146	C	0.104266	1.193305	0.600177
C147	C	0.437599	1.526638	0.933510
C148	C	-0.202372	0.888309	0.672766
C149	C	0.130962	1.221643	1.006099
C150	C	0.464295	1.554976	1.339432
C151	C	-0.206470	0.883981	0.763865
C152	C	0.126864	1.217315	1.097198
C153	C	0.460197	1.550648	1.430531
C154	C	-0.105428	0.991060	0.756783
C155	C	0.227906	1.324393	1.090117
C156	C	0.561239	1.657727	1.423450
C157	C	-0.101336	0.995392	0.665689
C158	C	0.231997	1.328725	0.999023
C159	C	0.565331	1.662058	1.332356
C160	C	-0.149804	0.944013	0.623685
C161	C	0.183529	1.277347	0.957018
C162	C	0.516863	1.610680	1.290352
N163	N	-0.188885	0.902581	0.493062
N164	N	0.144448	1.235915	0.826395
N165	N	0.477781	1.569248	1.159728
N166	N	-0.145610	0.948442	0.530573
N167	N	0.187723	1.281776	0.863907
N168	N	0.521056	1.615109	1.197240
H169	H	-0.286267	0.670037	0.020119
H170	H	0.047067	1.003371	0.353453
H171	H	0.380400	1.336704	0.686786
O172	O	0.595883	0.912441	0.191892
O173	O	0.929216	1.245774	0.525225
O174	O	1.262549	1.579108	0.858558
H175	H	0.637111	0.965200	0.192765
H176	H	0.970445	1.298533	0.526098
H177	H	1.303778	1.631867	0.859432
H178	H	-0.274186	0.521723	0.019290
H179	H	0.059147	0.855056	0.352623
H180	H	0.392480	1.188389	0.685956
O181	O	-0.340159	0.302519	0.023941
O182	O	-0.006826	0.635853	0.357275
O183	O	0.326508	0.969186	0.690608
H184	H	-0.386556	0.253641	0.027206
H185	H	-0.053223	0.586975	0.360539
H186	H	0.280111	0.920308	0.693873
H187	H	-0.308259	0.145933	0.021698
H188	H	0.025074	0.479266	0.355032
H189	H	0.358408	0.812600	0.688365
O190	O	0.610541	0.928104	-0.136056
O191	O	0.943874	1.261437	0.197278
O192	O	1.277207	1.594771	0.530611
H193	H	0.644760	0.874362	-0.142233
H194	H	0.978093	1.207696	0.191100
H195	H	1.311426	1.541029	0.524434
H196	H	0.066828	0.923734	0.138093
H197	H	0.400161	1.257067	0.471427
H198	H	0.733494	1.590401	0.804760
H199	H	0.217075	0.921806	0.127531
H200	H	0.550409	1.255139	0.460864
H201	H	0.883742	1.588472	0.794197
H202	H	0.079616	0.937436	-0.148152
H203	H	0.412949	1.270770	0.185181
H204	H	0.746282	1.604103	0.518515
H205	H	-0.275968	0.810279	0.397908
H206	H	0.057366	1.143612	0.731242
H207	H	0.390699	1.476945	1.064575
O208	O	-0.079853	1.018123	0.396175
O209	O	0.253480	1.351456	0.729508
O210	O	0.586814	1.684789	1.062842
H211	H	-0.117552	1.054087	0.440183
H212	H	0.215782	1.387420	0.773517
H213	H	0.549115	1.720753	1.106850
O214	O	-0.044636	1.055481	0.612760
O215	O	0.288698	1.388815	0.946093
O216	O	0.622031	1.722148	1.279427
H217	H	-0.078600	1.095410	0.573770
H218	H	0.254733	1.428743	0.907104
H219	H	0.588067	1.762076	1.240437
O220	O	-0.263165	0.823895	0.816819
O221	O	0.070168	1.157229	1.150152
O222	O	0.403501	1.490562	1.483485
H223	H	-0.248351	0.763666	0.798376
H224	H	0.084983	1.096999	1.131709
H225	H	0.418316	1.430333	1.465043
O226	O	-0.008182	0.718452	0.000664
O227	O	0.325151	1.051785	0.333998
O228	O	0.658485	1.385119	0.667331
H229	H	-0.010437	0.753345	0.059625
H230	H	0.322897	1.086678	0.392958
H231	H	0.656230	1.420012	0.726292
H232	H	-0.268535	0.818139	0.232644
H233	H	0.064798	1.151472	0.565977
H234	H	0.398131	1.484806	0.899310
O235	O	0.438401	0.930353	-0.123957
O236	O	0.771734	1.263686	0.209376
O237	O	1.105068	1.597020	0.542709
H238	H	0.404520	0.984455	-0.125340
H239	H	0.737853	1.317788	0.207993
H240	H	1.071186	1.651122	0.541326
H241	H	-0.048236	0.180989	0.003504
H242	H	0.285097	0.514322	0.336837
H243	H	0.618430	0.847655	0.670170
H244	H	-0.060315	0.329304	0.004349
H245	H	0.273018	0.662637	0.337682
H246	H	0.606351	0.995970	0.671016
H247	H	-0.065966	1.032889	0.790991
H248	H	0.267367	1.366223	1.124325
H249	H	0.600700	1.699556	1.457658
H250	H	-0.241838	0.846476	0.638573
H251	H	0.091495	1.179809	0.971907
H252	H	0.424829	1.513143	1.305240
O253	O	-0.071329	1.027131	0.206824
O254	O	0.262005	1.360465	0.540157
O255	O	0.595338	1.693798	0.873490
H256	H	-0.038307	1.062117	0.251340
H257	H	0.295026	1.395450	0.584674
H258	H	0.628360	1.728784	0.918007
O259	O	0.005659	0.548521	-0.000285
O260	O	0.338992	0.881854	0.333049
O261	O	0.672325	1.215188	0.666382
H262	H	0.014777	0.514550	-0.059723
H263	H	0.348110	0.847883	0.273611
H264	H	0.681444	1.181216	0.606944
O265	O	0.241756	0.936284	-0.180334
O266	O	0.575089	1.269617	0.153000
O267	O	0.908422	1.602950	0.486333
H268	H	0.201497	0.939452	-0.232186
H269	H	0.534830	1.272786	0.101147
H270	H	0.868164	1.606119	0.434481
H271	H	0.435612	0.915543	0.182367
H272	H	0.768946	1.248876	0.515701
H273	H	1.102279	1.582209	0.849034
