data_functionalizedCrystal
_audit_creation_method	'MofGen! by Chris Wilmer'
_symmetry_space_group_name_H-M	'P1'
_symmetry_Int_Tables_number	1
_symmetry_cell_setting	triclinic
loop_
_symmetry_equiv_pos_as_xyz
  x,y,z
_cell_length_a	19.805407
_cell_length_b	19.805405
_cell_length_c	19.805399
_cell_angle_alpha	90.029462
_cell_angle_beta	90.023391
_cell_angle_gamma	90.031790
loop_
_atom_site_label
_atom_site_type_symbol
_atom_site_fract_x
_atom_site_fract_y
_atom_site_fract_z
Zn1	Zn	-1.034686	0.269494	-0.382835
Zn2	Zn	-0.534686	0.769494	0.117165
Zn3	Zn	-1.034593	0.382686	-0.269646
Zn4	Zn	-0.534593	0.882686	0.230354
Zn5	Zn	-0.921506	0.269513	-0.269647
Zn6	Zn	-0.421506	0.769513	0.230353
Zn7	Zn	-0.921451	0.382644	-0.382780
Zn8	Zn	-0.421451	0.882644	0.117220
O9	O	-0.978059	0.326084	-0.326227
O10	O	-0.478059	0.826084	0.173773
O11	O	-1.129390	0.284519	-0.367843
O12	O	-0.629390	0.784519	0.132157
O13	O	-1.019576	0.367698	-0.174929
O14	O	-0.519576	0.867698	0.325071
O15	O	-0.936582	0.174794	-0.284685
O16	O	-0.436582	0.674794	0.215315
O17	O	-1.129322	0.367680	-0.284683
O18	O	-0.629322	0.867680	0.215317
O19	O	-1.019734	0.174780	-0.367844
O20	O	-0.519734	0.674780	0.132156
O21	O	-0.936491	0.284551	-0.174930
O22	O	-0.436491	0.784551	0.325070
O23	O	-0.826782	0.284511	-0.284631
O24	O	-0.326782	0.784511	0.215369
O25	O	-0.936488	0.367609	-0.477504
O26	O	-0.436488	0.867609	0.022496
O27	O	-0.826742	0.367628	-0.367749
O28	O	-0.326742	0.867628	0.132251
O29	O	-1.019681	0.284479	-0.477544
O30	O	-0.519681	0.784479	0.022456
O31	O	-1.019522	0.477397	-0.284630
O32	O	-0.519522	0.977397	0.215370
O33	O	-0.936397	0.477366	-0.367749
O34	O	-0.436397	0.977366	0.132251
C35	C	-0.802203	0.326067	-0.326185
C36	C	-0.302203	0.826067	0.173815
C37	C	-0.726971	0.326076	-0.326183
C38	C	-0.226971	0.826076	0.173817
C39	C	-0.265176	0.369437	-0.369458
C40	C	0.234824	0.869437	0.130542
C41	C	-0.335865	0.369436	-0.369446
C42	C	0.164135	0.869436	0.130554
C43	C	-0.371209	0.326094	-0.326233
C44	C	0.128791	0.826094	0.173767
C45	C	-0.335861	0.282754	-0.283024
C46	C	0.164139	0.782754	0.216976
C47	C	-0.265174	0.282758	-0.283034
C48	C	0.234826	0.782758	0.216966
C49	C	-0.620935	0.282736	-0.282986
C50	C	-0.120935	0.782736	0.217014
C51	C	-0.691627	0.282734	-0.282982
C52	C	-0.191627	0.782734	0.217018
C53	C	-0.691625	0.369415	-0.369399
C54	C	-0.191625	0.869415	0.130601
C55	C	-0.620938	0.369419	-0.369408
C56	C	-0.120938	0.869419	0.130592
C57	C	-0.585596	0.326082	-0.326197
C58	C	-0.085596	0.826082	0.173803
C59	C	-0.508948	0.326083	-0.326210
C60	C	-0.008948	0.826083	0.173790
C61	C	-0.447856	0.326088	-0.326224
C62	C	0.052144	0.826088	0.173776
C63	C	-0.977962	0.501940	-0.326198
C64	C	-0.477962	1.001940	0.173802
C65	C	-0.977982	0.577172	-0.326208
C66	C	-0.477982	1.077172	0.173792
C67	C	-0.978089	0.326037	-0.502769
C68	C	-0.478089	0.826037	-0.002769
C69	C	-0.978101	0.326017	-0.578001
C70	C	-0.478101	0.826017	-0.078001
C71	C	-0.154602	0.326099	-0.326261
C72	C	0.345398	0.826099	0.173739
C73	C	-0.229834	0.326099	-0.326254
C74	C	0.270166	0.826099	0.173746
C75	C	-1.021251	0.612451	-0.369542
C76	C	-0.521251	1.112451	0.130458
C77	C	-1.021267	0.683140	-0.369553
C78	C	-0.521267	1.183140	0.130447
C79	C	-0.978018	0.718548	-0.326226
C80	C	-0.478018	1.218548	0.173774
C81	C	-0.934745	0.683264	-0.282890
C82	C	-0.434745	1.183264	0.217110
C83	C	-0.934726	0.612577	-0.282883
C84	C	-0.434726	1.112577	0.217117
C85	C	-0.934822	0.968337	-0.282917
C86	C	-0.434822	1.468337	0.217083
C87	C	-0.934846	1.039030	-0.282926
C88	C	-0.434846	1.539030	0.217074
C89	C	-1.021363	1.038900	-0.369587
C90	C	-0.521363	1.538900	0.130413
C91	C	-1.021344	0.968213	-0.369580
C92	C	-0.521344	1.468213	0.130420
C93	C	-0.978069	0.932935	-0.326247
C94	C	-0.478069	1.432935	0.173753
C95	C	-0.978050	0.856287	-0.326237
C96	C	-0.478050	1.356287	0.173763
C97	C	-0.978039	0.795195	-0.326232
C98	C	-0.478039	1.295195	0.173768
C99	C	-0.978146	1.149542	-0.326264
C100	C	-0.478146	1.649542	0.173736
C101	C	-0.978111	1.074310	-0.326264
C102	C	-0.478111	1.574310	0.173736
C103	C	-0.934851	0.282718	-0.613345
C104	C	-0.434851	0.782718	-0.113345
C105	C	-0.934861	0.282705	-0.684034
C106	C	-0.434861	0.782705	-0.184034
C107	C	-0.978124	0.325988	-0.719377
C108	C	-0.478124	0.825988	-0.219377
C109	C	-1.021375	0.369292	-0.684028
C110	C	-0.521375	0.869292	-0.184028
C111	C	-1.021362	0.369308	-0.613341
C112	C	-0.521362	0.869308	-0.113341
C113	C	-1.021429	0.369228	-0.969102
C114	C	-0.521429	0.869228	-0.469102
C115	C	-1.021440	0.369208	-1.039794
C116	C	-0.521440	0.869208	-0.539794
C117	C	-0.934928	0.282626	-1.039795
C118	C	-0.434928	0.782626	-0.539795
C119	C	-0.934914	0.282642	-0.969107
C120	C	-0.434914	0.782642	-0.469107
C121	C	-0.978163	0.325948	-0.933765
C122	C	-0.478163	0.825948	-0.433765
C123	C	-0.978152	0.325963	-0.857116
C124	C	-0.478152	0.825963	-0.357116
C125	C	-0.978139	0.325970	-0.796024
C126	C	-0.478139	0.825970	-0.296024
C127	C	-0.978068	0.326082	-0.150371
C128	C	-0.478068	0.826082	0.349629
C129	C	-0.978187	0.325912	-0.075139
C130	C	-0.478187	0.825912	0.424861
H131	H	-0.720409	0.404704	-0.404582
H132	H	-0.220409	0.904704	0.095418
H133	H	-1.056563	0.939385	-0.404859
H134	H	-0.556563	1.439385	0.095141
H135	H	-0.899710	0.247366	-1.068579
H136	H	-0.399710	0.747366	-0.568579
O137	O	-1.063540	0.411160	-1.074156
O138	O	-0.563540	0.911160	-0.574156
C139	C	-1.107281	0.372620	-1.115074
C140	C	-0.607281	0.872620	-0.615074
H141	H	-1.111495	0.319318	-1.093783
H142	H	-0.611495	0.819318	-0.593783
H143	H	-1.159353	0.397108	-1.115881
H144	H	-0.659353	0.897108	-0.615881
H145	H	-1.086366	0.370269	-1.168643
H146	H	-0.586366	0.870269	-0.668643
H147	H	-0.592168	0.247451	-0.247799
H148	H	-0.092168	0.747451	0.252201
O149	O	-0.892766	0.717583	-0.240708
O150	O	-0.392766	1.217583	0.259292
C151	C	-0.907607	0.700349	-0.173262
C152	C	-0.407607	1.200349	0.326738
H153	H	-0.933613	0.649004	-0.171883
H154	H	-0.433613	1.149004	0.328117
H155	H	-0.858777	0.697989	-0.142861
H156	H	-0.358777	1.197989	0.357139
H157	H	-0.942431	0.740117	-0.150503
H158	H	-0.442431	1.240117	0.349497
O159	O	-0.370297	0.240673	-0.241110
O160	O	0.129703	0.740673	0.258890
C161	C	-0.440267	0.249971	-0.250355
C162	C	0.059733	0.749971	0.249645
H163	H	-0.449938	0.272205	-0.302549
H164	H	0.050062	0.772205	0.197451
H165	H	-0.467153	0.199264	-0.245852
H166	H	0.032847	0.699264	0.254148
H167	H	-0.460289	0.285962	-0.210140
H168	H	0.039711	0.785962	0.289860
O169	O	-1.063283	0.578163	-0.411696
O170	O	-0.563283	1.078163	0.088304
C171	C	-1.101486	0.624463	-0.449935
C172	C	-0.601486	1.124463	0.050065
H173	H	-1.073774	0.674873	-0.452251
H174	H	-0.573774	1.174873	0.047749
H175	H	-1.108662	0.604002	-0.503271
H176	H	-0.608662	1.104002	-0.003271
H177	H	-1.152911	0.631952	-0.425208
H178	H	-0.652911	1.131952	0.074792
O179	O	-0.725857	0.240612	-0.240933
O180	O	-0.225857	0.740612	0.259067
C181	C	-0.679506	0.202352	-0.202806
C182	C	-0.179506	0.702352	0.297194
H183	H	-0.629102	0.230073	-0.200419
H184	H	-0.129102	0.730073	0.299581
H185	H	-0.699909	0.195070	-0.149488
H186	H	-0.199909	0.695070	0.350512
H187	H	-0.672028	0.150974	-0.227677
H188	H	-0.172028	0.650974	0.272323
O189	O	-0.230944	0.240594	-0.241045
O190	O	0.269056	0.740594	0.258955
C191	C	-0.277296	0.202349	-0.202890
C192	C	0.222704	0.702349	0.297110
H193	H	-0.327700	0.200036	-0.230612
H194	H	0.172300	0.700036	0.269388
H195	H	-0.256893	0.149014	-0.195765
H196	H	0.243107	0.649014	0.304235
H197	H	-0.284775	0.227071	-0.151440
H198	H	0.215225	0.727071	0.348560
H199	H	-0.899688	0.247394	-0.940334
H200	H	-0.399688	0.747394	-0.440334
H201	H	-0.899625	1.067857	-0.247643
H202	H	-0.399625	1.567857	0.252357
H203	H	-1.056638	0.404498	-0.940334
H204	H	-0.556638	0.904498	-0.440334
O205	O	-1.063207	0.717434	-0.411717
O206	O	-0.563207	1.217434	0.088283
C207	C	-1.024667	0.758340	-0.455396
C208	C	-0.524667	1.258340	0.044604
H209	H	-0.971348	0.737085	-0.459524
H210	H	-0.471348	1.237085	0.040476
H211	H	-1.049121	0.759081	-0.507507
H212	H	-0.549121	1.259081	-0.007507
H213	H	-1.022367	0.811930	-0.434478
H214	H	-0.522367	1.311930	0.065522
H215	H	-1.056597	0.404537	-0.712810
H216	H	-0.556597	0.904537	-0.212810
O217	O	-1.063341	0.411462	-0.579079
O218	O	-0.563341	0.911462	-0.079079
C219	C	-1.048492	0.478916	-0.596318
C220	C	-0.548492	0.978916	-0.096318
H221	H	-1.022485	0.480302	-0.647637
H222	H	-0.522485	0.980302	-0.147637
H223	H	-1.097319	0.509274	-0.598735
H224	H	-0.597319	1.009274	-0.098735
H225	H	-1.013667	0.501716	-0.556523
H226	H	-0.513667	1.001716	-0.056523
O227	O	-0.230919	0.411504	-0.411532
O228	O	0.269081	0.911504	0.088468
C229	C	-0.248224	0.396784	-0.479016
C230	C	0.251776	0.896784	0.020984
H231	H	-0.299562	0.370766	-0.480457
H232	H	0.200438	0.870766	0.019543
H233	H	-0.250633	0.445671	-0.509280
H234	H	0.249367	0.945671	-0.009280
H235	H	-0.208472	0.362015	-0.501880
H236	H	0.291528	0.862015	-0.001880
O237	O	-0.370268	0.411437	-0.411454
O238	O	0.129732	0.911437	0.088546
C239	C	-0.411186	0.372951	-0.455243
C240	C	0.088814	0.872951	0.044757
H241	H	-0.421793	0.321630	-0.431455
H242	H	0.078207	0.821630	0.068545
H243	H	-0.460882	0.400532	-0.464266
H244	H	0.039118	0.900532	0.035734
H245	H	-0.383971	0.365571	-0.505416
H246	H	0.116029	0.865571	-0.005416
O247	O	-0.586710	0.411586	-0.411406
O248	O	-0.086710	0.911586	0.088594
C249	C	-0.633064	0.449828	-0.449549
C250	C	-0.133064	0.949828	0.050451
H251	H	-0.683437	0.452132	-0.421817
H252	H	-0.183437	0.952132	0.078183
H253	H	-0.612617	0.503167	-0.456674
H254	H	-0.112617	1.003167	0.043326
H255	H	-0.640620	0.425109	-0.500999
H256	H	-0.140620	0.925109	-0.000999
H257	H	-1.056597	1.067631	-0.404873
H258	H	-0.556597	1.567631	0.095127
H259	H	-0.899587	0.939620	-0.247633
H260	H	-0.399587	1.439620	0.252367
H261	H	-0.899492	0.583854	-0.247597
H262	H	-0.399492	1.083854	0.252403
H263	H	-0.899625	0.247469	-0.584574
H264	H	-0.399625	0.747469	-0.084574
H265	H	-0.899640	0.247450	-0.712808
H266	H	-0.399640	0.747450	-0.212808
