data_functionalizedCrystal
_audit_creation_method	'MofGen! by Chris Wilmer'
_symmetry_space_group_name_H-M	'P1'
_symmetry_Int_Tables_number	1
_symmetry_cell_setting	triclinic
loop_
_symmetry_equiv_pos_as_xyz
  x,y,z
_cell_length_a	10.654541
_cell_length_b	16.109301
_cell_length_c	14.586319
_cell_angle_alpha	89.998390
_cell_angle_beta	90.004543
_cell_angle_gamma	96.027295
loop_
_atom_site_label
_atom_site_type_symbol
_atom_site_fract_x
_atom_site_fract_y
_atom_site_fract_z
O1	O	1.666263	-0.116759	0.076216
O2	O	2.166263	0.383241	0.576216
O3	O	1.300633	-0.127886	0.076224
O4	O	1.800633	0.372114	0.576224
O5	O	1.493492	-0.001351	0.076210
O6	O	1.993492	0.498649	0.576210
O7	O	1.473404	-0.243294	0.076229
O8	O	1.973404	0.256706	0.576229
O9	O	1.493469	-0.001359	-0.076271
O10	O	1.993469	0.498641	0.423729
O11	O	1.300610	-0.127894	-0.076257
O12	O	1.800610	0.372106	0.423743
O13	O	1.666240	-0.116766	-0.076265
O14	O	2.166240	0.383234	0.423735
Cu15	Cu	1.483423	-0.122331	-0.090184
Cu16	Cu	1.983423	0.377669	0.409816
Cu17	Cu	1.483450	-0.122322	0.090142
Cu18	Cu	1.983450	0.377678	0.590142
O19	O	1.473381	-0.243301	-0.076252
O20	O	1.973381	0.256699	0.423748
C21	C	1.253835	-0.127073	-0.000016
C22	C	1.753835	0.372927	0.499984
C23	C	1.114424	-0.124630	-0.000013
C24	C	1.614424	0.375370	0.499987
C25	C	1.492667	0.029625	-0.000031
C26	C	1.992667	0.529625	0.499969
C27	C	1.490227	0.121935	-0.000032
C28	C	1.990227	0.621935	0.499968
N29	N	1.483412	-0.122336	-0.217016
N30	N	1.983412	0.377664	0.282984
C31	C	1.084401	-0.275937	0.000011
C32	C	1.584401	0.224063	0.500011
C33	C	1.003896	-0.350439	0.000026
C34	C	1.503896	0.149561	0.500026
C35	C	0.872909	-0.348139	0.000027
C36	C	1.372909	0.151861	0.500027
C37	C	0.822426	-0.271327	0.000009
C38	C	1.322426	0.228673	0.500009
C39	C	0.902931	-0.196825	-0.000006
C40	C	1.402931	0.303175	0.499994
C41	C	1.033919	-0.199134	-0.000004
C42	C	1.533919	0.300866	0.499996
C43	C	0.932954	-0.045520	-0.000036
C44	C	1.432954	0.454480	0.499964
C45	C	1.063941	-0.047819	-0.000030
C46	C	1.563941	0.452181	0.499970
C47	C	0.882471	0.031291	-0.000053
C48	C	1.382471	0.531291	0.499947
C49	C	0.962976	0.105795	-0.000062
C50	C	1.462976	0.605795	0.499938
C51	C	1.093970	0.103491	-0.000062
C52	C	1.593970	0.603491	0.499938
C53	C	1.144446	0.026683	-0.000045
C54	C	1.644446	0.526683	0.499955
C55	C	1.713038	-0.117579	-0.000024
C56	C	2.213038	0.382421	0.499976
C57	C	1.852449	-0.120022	-0.000021
C58	C	2.352449	0.379978	0.499979
C59	C	1.474206	-0.274277	-0.000009
C60	C	1.974206	0.225723	0.499991
C61	C	1.476646	-0.366587	-0.000001
C62	C	1.976646	0.133413	0.499999
C63	C	1.598994	0.343561	-0.000020
C64	C	2.098994	0.843561	0.499980
C65	C	1.596692	0.430295	-0.000012
C66	C	2.096692	0.930295	0.499988
C67	C	1.367871	0.411780	-0.000011
C68	C	1.867871	0.911780	0.499989
C69	C	1.370174	0.325047	-0.000012
C70	C	1.870174	0.825047	0.499988
C71	C	1.485739	0.290941	-0.000021
C72	C	1.985739	0.790941	0.499979
C73	C	1.481134	0.464407	-0.000012
C74	C	1.981134	0.964407	0.499988
C75	C	1.478637	0.558448	-0.000004
C76	C	1.978637	1.058448	0.499996
C77	C	1.488237	0.196894	-0.000028
C78	C	1.988237	0.696894	0.499972
C79	C	1.559575	-0.173217	-0.452020
C80	C	2.059575	0.326783	0.047980
C81	C	1.559588	-0.173212	-0.548001
C82	C	2.059588	0.326788	-0.048001
C83	C	1.407305	-0.071423	-0.548015
C84	C	1.907305	0.428577	-0.048015
C85	C	1.407300	-0.071425	-0.452036
C86	C	1.907300	0.428575	0.047964
C87	C	1.483432	-0.122327	-0.404040
C88	C	1.983432	0.377673	0.095960
C89	C	1.483451	-0.122319	-0.596001
C90	C	1.983451	0.377681	-0.096001
C91	C	1.483464	-0.122313	-0.700068
C92	C	1.983464	0.377687	-0.200068
C93	C	1.483421	-0.122332	-0.299967
C94	C	1.983421	0.377668	0.200033
N95	N	1.483471	-0.122310	0.216974
N96	N	1.983471	0.377690	0.716974
H97	H	1.191055	-0.277818	0.000030
H98	H	1.691055	0.222182	0.500030
Cl99	Cl	1.311591	-0.007442	-0.608359
Cl100	Cl	1.811591	0.492558	-0.108359
H101	H	1.273781	0.439561	-0.000005
H102	H	1.773781	0.939561	0.499995
Cl103	Cl	1.655295	-0.237201	-0.391686
Cl104	Cl	2.155295	0.262799	0.108314
H105	H	1.159511	0.164161	-0.000078
H106	H	1.659511	0.664161	0.499922
Cl107	Cl	1.655317	-0.237190	-0.608314
Cl108	Cl	2.155317	0.262810	-0.108314
Cl109	Cl	1.227785	0.258891	-0.000005
Cl110	Cl	1.727785	0.758891	0.499995
H111	H	1.045014	-0.412978	0.000038
H112	H	1.545014	0.087022	0.500038
Cl113	Cl	0.771699	-0.441799	0.000037
Cl114	Cl	1.271699	0.058201	0.500037
H115	H	1.345294	-0.029979	-0.412970
H116	H	1.845294	0.470021	0.087030
H117	H	0.715768	-0.269461	-0.000001
H118	H	1.215768	0.230539	0.499999
Cl119	Cl	1.309114	0.023781	-0.000040
Cl120	Cl	1.809114	0.523781	0.499960
H121	H	0.775813	0.033159	-0.000058
H122	H	1.275813	0.533159	0.499942
H123	H	0.921861	0.168329	-0.000076
H124	H	1.421861	0.668329	0.499924
H125	H	1.688915	0.473136	-0.000009
H126	H	2.188915	0.973136	0.499991
Cl127	Cl	1.744275	0.300687	-0.000029
Cl128	Cl	2.244275	0.800687	0.499971
