data_functionalizedCrystal
_audit_creation_method	'MofGen! by Chris Wilmer'
_symmetry_space_group_name_H-M	'P1'
_symmetry_Int_Tables_number	1
_symmetry_cell_setting	triclinic
loop_
_symmetry_equiv_pos_as_xyz
  x,y,z
_cell_length_a	38.077507
_cell_length_b	38.067005
_cell_length_c	38.067077
_cell_angle_alpha	89.996982
_cell_angle_beta	59.999325
_cell_angle_gamma	60.000154
loop_
_atom_site_label
_atom_site_type_symbol
_atom_site_fract_x
_atom_site_fract_y
_atom_site_fract_z
O1	O	-0.251364	-0.299414	0.010450
O2	O	-0.179450	-0.248330	-0.010400
O3	O	-0.251362	-0.248329	0.061532
O4	O	-0.179451	-0.299415	-0.061482
O5	O	-0.309770	-0.189904	0.061527
O6	O	-0.237857	-0.189905	-0.010405
O7	O	-0.309771	-0.240989	0.010445
Cu8	Cu	-0.279147	-0.210112	0.000020
Cu9	Cu	-0.210074	-0.279207	0.000026
O10	O	-0.237859	-0.240990	-0.061487
C11	C	-0.102951	-0.064615	-0.025245
C12	C	-0.123885	-0.085952	-0.025545
C13	C	-0.039352	-0.128230	-0.025249
C14	C	-0.060383	-0.149470	-0.025549
C15	C	-0.102947	-0.128230	-0.025251
C16	C	-0.060387	-0.085951	-0.025543
C17	C	-0.107950	0.004139	-0.020076
C18	C	-0.131228	0.047583	-0.016814
C19	C	-0.174742	0.069372	-0.015178
C20	C	-0.199985	0.116478	-0.011639
C21	C	-0.194982	0.047721	-0.016808
C22	C	-0.171704	0.004278	-0.020072
C23	C	-0.128190	-0.017511	-0.021704
C24	C	-0.171845	-0.128066	-0.020091
C25	C	-0.195256	-0.148091	-0.016836
C26	C	-0.175157	-0.189984	-0.015205
C27	C	-0.200541	-0.211698	-0.011674
C28	C	-0.131643	-0.211858	-0.016834
C29	C	-0.108231	-0.191835	-0.020091
C30	C	-0.128334	-0.149939	-0.021718
C31	C	0.024220	-0.128065	-0.020086
C32	C	0.064392	-0.148089	-0.016823
C33	C	0.084543	-0.189981	-0.015192
C34	C	0.128102	-0.211695	-0.011658
C35	C	0.064526	-0.211854	-0.016820
C36	C	0.024354	-0.191833	-0.020081
C37	C	0.004203	-0.149938	-0.021714
C38	C	-0.431919	-0.463703	0.031683
C39	C	-0.474480	-0.442368	0.031978
C40	C	-0.431915	-0.400092	0.031677
C41	C	-0.474477	-0.378854	0.031972
C42	C	-0.495511	-0.400092	0.031677
C43	C	-0.410982	-0.442368	0.031978
C44	C	-0.317400	-0.617101	0.020179
C45	C	-0.293989	-0.660541	0.016926
C46	C	-0.314087	-0.682334	0.015294
C47	C	-0.288700	-0.729438	0.011759
C48	C	-0.357599	-0.660682	0.016917
C49	C	-0.381010	-0.617243	0.020175
C50	C	-0.360909	-0.595452	0.021806
C51	C	-0.637355	-0.361250	0.020158
C52	C	-0.677528	-0.341229	0.016900
C53	C	-0.697679	-0.299337	0.015260
C54	C	-0.741232	-0.277628	0.011721
C55	C	-0.677655	-0.277465	0.016883
C56	C	-0.637489	-0.297483	0.020148
C57	C	-0.617339	-0.339380	0.021783
C58	C	-0.317388	-0.361247	0.020156
C59	C	-0.293970	-0.341227	0.016892
C60	C	-0.314064	-0.299333	0.015254
C61	C	-0.288674	-0.277624	0.011714
C62	C	-0.357573	-0.277463	0.016876
C63	C	-0.380987	-0.297486	0.020138
C64	C	-0.360893	-0.339377	0.021782
C65	C	-0.386296	-0.548350	0.025335
C66	C	-0.406532	-0.510805	0.028150
C67	C	-0.406525	-0.378385	0.028138
C68	C	-0.386287	-0.361082	0.025319
C69	C	-0.539064	-0.378386	0.028139
C70	C	-0.573782	-0.361084	0.025320
C71	C	-0.057321	-0.400364	-0.406363
C72	C	-0.014760	-0.442640	-0.427599
C73	C	-0.057321	-0.400365	-0.342750
C74	C	-0.014760	-0.442641	-0.364083
C75	C	0.006272	-0.463976	-0.406359
C76	C	-0.078256	-0.379126	-0.364087
C77	C	-0.171844	-0.297325	-0.445213
C78	C	-0.195256	-0.277162	-0.465237
C79	C	-0.175161	-0.298898	-0.507130
C80	C	-0.200549	-0.277041	-0.528840
C81	C	-0.131649	-0.340797	-0.529000
C82	C	-0.108236	-0.360955	-0.508978
C83	C	-0.128335	-0.339217	-0.467083
C84	C	0.148111	-0.617374	-0.509391
C85	C	0.188284	-0.660815	-0.529552
C86	C	0.208436	-0.682609	-0.507815
C87	C	0.251988	-0.729711	-0.529668
C88	C	0.188414	-0.660957	-0.465917
C89	C	0.148249	-0.617516	-0.445760
C90	C	0.128097	-0.595727	-0.467501
C91	C	-0.171842	-0.297327	-0.189354
C92	C	-0.195258	-0.277166	-0.145912
C93	C	-0.175162	-0.298902	-0.124118
C94	C	-0.200550	-0.277046	-0.077014
C95	C	-0.131654	-0.340800	-0.145767
C96	C	-0.108241	-0.360959	-0.189208
C97	C	-0.128337	-0.339217	-0.211000
C98	C	-0.102947	-0.361080	-0.445375
C99	C	-0.082710	-0.378505	-0.428071
C100	C	-0.082709	-0.378506	-0.295648
C101	C	-0.102946	-0.361081	-0.258103
C102	C	0.049824	-0.511078	-0.428216
C103	C	0.084541	-0.548623	-0.445639
O104	O	0.244509	-0.240993	0.010453
O105	O	0.142363	-0.189902	-0.010389
O106	O	0.142367	-0.189914	0.061540
O107	O	0.244504	-0.240981	-0.061475
O108	O	0.142370	-0.248342	0.061533
O109	O	0.142366	-0.248331	-0.010395
O110	O	0.244512	-0.299421	0.010447
Cu111	Cu	0.193439	-0.279211	0.000025
Cu112	Cu	0.193435	-0.210113	0.000033
O113	O	0.244507	-0.299410	-0.061482
O114	O	-0.309796	0.255030	0.010489
O115	O	-0.237879	0.132013	-0.010366
O116	O	-0.309789	0.203934	0.061568
O117	O	-0.237886	0.183108	-0.061445
O118	O	-0.251380	0.203935	0.061569
O119	O	-0.179470	0.132013	-0.010365
O120	O	-0.251386	0.255030	0.010491
Cu121	Cu	-0.210095	0.193522	0.000063
Cu122	Cu	-0.279171	0.193521	0.000061
O123	O	-0.179476	0.183109	-0.061443
O124	O	0.368384	-0.868258	-0.558375
O125	O	0.266246	-0.745244	-0.507296
O126	O	0.266242	-0.817174	-0.507291
O127	O	0.368388	-0.796329	-0.558380
O128	O	0.266241	-0.817172	-0.565717
O129	O	0.266245	-0.745243	-0.565722
O130	O	0.368383	-0.868257	-0.616801
Cu131	Cu	0.317314	-0.806750	-0.596596
Cu132	Cu	0.317315	-0.806751	-0.527501
O133	O	0.368386	-0.796328	-0.616806
O134	O	-0.251363	-0.248328	-0.616562
O135	O	-0.179454	-0.299412	-0.565472
O136	O	-0.251366	-0.299412	-0.565472
O137	O	-0.179451	-0.248328	-0.616563
O138	O	-0.309774	-0.240987	-0.507049
O139	O	-0.237863	-0.240987	-0.507050
O140	O	-0.309771	-0.189903	-0.558139
Cu141	Cu	-0.279150	-0.210110	-0.527260
Cu142	Cu	-0.210075	-0.279205	-0.596352
O143	O	-0.237860	-0.189902	-0.558140
C144	C	-0.449870	-0.064625	0.321758
C145	C	-0.428838	-0.085960	0.342998
C146	C	-0.386277	-0.128237	0.258149
C147	C	-0.365342	-0.149475	0.279486
C148	C	-0.386277	-0.128236	0.321762
C149	C	-0.428838	-0.085960	0.279482
C150	C	-0.513440	0.004126	0.321588
C151	C	-0.553612	0.047569	0.341609
C152	C	-0.573760	0.069357	0.383498
C153	C	-0.617316	0.116461	0.405208
C154	C	-0.553743	0.047706	0.405374
C155	C	-0.513574	0.004265	0.385355
C156	C	-0.493422	-0.017523	0.343461
C157	C	-0.381282	-0.128071	0.385518
C158	C	-0.358007	-0.148095	0.405681
C159	C	-0.314495	-0.189985	0.383947
C160	C	-0.289256	-0.211697	0.405806
C161	C	-0.294255	-0.211858	0.342050
C162	C	-0.317529	-0.191837	0.321889
C163	C	-0.361041	-0.149943	0.343623
C164	C	-0.381281	-0.128072	0.189396
C165	C	-0.358002	-0.148093	0.145951
C166	C	-0.314491	-0.189984	0.124165
C167	C	-0.289251	-0.211696	0.077062
C168	C	-0.294250	-0.211855	0.145817
C169	C	-0.317525	-0.191835	0.189259
C170	C	-0.361041	-0.149943	0.211047
C171	C	-0.102945	-0.128275	0.321760
C172	C	-0.123884	-0.085999	0.343002
C173	C	-0.039350	-0.128268	0.258154
C174	C	-0.060385	-0.085992	0.279492
C175	C	-0.102949	-0.064661	0.321767
C176	C	-0.060381	-0.149510	0.279485
C177	C	-0.107937	-0.192034	0.321588
C178	C	-0.131211	-0.212198	0.341607
C179	C	-0.174726	-0.190466	0.383496
C180	C	-0.199965	-0.212327	0.405204
C181	C	-0.194970	-0.148569	0.405373
C182	C	-0.171695	-0.128406	0.385355
C183	C	-0.128181	-0.150138	0.343462
C184	C	-0.171851	0.004086	0.385523
C185	C	-0.195267	0.047529	0.405687
C186	C	-0.175171	0.069321	0.383954
C187	C	-0.200559	0.116425	0.405814
C188	C	-0.131657	0.047674	0.342058
C189	C	-0.108241	0.004233	0.321896
C190	C	-0.128341	-0.017559	0.343628
C191	C	0.024227	-0.192017	0.189400
C192	C	0.064399	-0.212172	0.145956
C193	C	0.084547	-0.190432	0.124172
C194	C	0.128106	-0.212285	0.077069
C195	C	0.064526	-0.148537	0.145824
C196	C	0.024353	-0.128380	0.189266
C197	C	0.004206	-0.150122	0.211052
C198	C	-0.386278	0.218755	0.321796
C199	C	-0.428839	0.219049	0.343034
C200	C	-0.386283	0.218765	0.258186
C201	C	-0.428844	0.219059	0.279520
C202	C	-0.449873	0.218755	0.321795
C203	C	-0.365345	0.219059	0.279521
C204	C	-0.317379	0.213594	0.321631
C205	C	-0.293964	0.210332	0.341654
C206	C	-0.314057	0.208691	0.383543
C207	C	-0.288670	0.205153	0.405255
C208	C	-0.357569	0.210315	0.405416
C209	C	-0.380984	0.213578	0.385395
C210	C	-0.360887	0.215215	0.343502
C211	C	-0.513440	0.213582	0.385547
C212	C	-0.553612	0.210321	0.405707
C213	C	-0.573762	0.208689	0.383971
C214	C	-0.617318	0.205150	0.405826
C215	C	-0.553747	0.210323	0.342074
C216	C	-0.513579	0.213587	0.321916
C217	C	-0.493425	0.215214	0.343653
C218	C	-0.317390	0.213615	0.189436
C219	C	-0.293976	0.210358	0.145992
C220	C	-0.314074	0.208726	0.124204
C221	C	-0.288693	0.205199	0.077101
C222	C	-0.357582	0.210348	0.145852
C223	C	-0.380996	0.213603	0.189294
C224	C	-0.360898	0.215236	0.211084
C225	C	0.568099	-0.463664	-0.406355
C226	C	0.589034	-0.442325	-0.427589
C227	C	0.504501	-0.400057	-0.342742
C228	C	0.525532	-0.378815	-0.364073
C229	C	0.568096	-0.400049	-0.406348
C230	C	0.525535	-0.442333	-0.364080
C231	C	0.618454	-0.617065	-0.445210
C232	C	0.641728	-0.660506	-0.465235
C233	C	0.685246	-0.682294	-0.507127
C234	C	0.710489	-0.729398	-0.528838
C235	C	0.705487	-0.660638	-0.528995
C236	C	0.682209	-0.617199	-0.508973
C237	C	0.638691	-0.595413	-0.467078
C238	C	0.682619	-0.361191	-0.509373
C239	C	0.706031	-0.341165	-0.529532
C240	C	0.685936	-0.299274	-0.507794
C241	C	0.711320	-0.277560	-0.529645
C242	C	0.642421	-0.277406	-0.465896
C243	C	0.619005	-0.297428	-0.445741
C244	C	0.639112	-0.339325	-0.467484
C245	C	0.362651	-0.361230	-0.189349
C246	C	0.322479	-0.341214	-0.145907
C247	C	0.302324	-0.299320	-0.124112
C248	C	0.258768	-0.277617	-0.077009
C249	C	0.322345	-0.277447	-0.145759
C250	C	0.362518	-0.297464	-0.189199
C251	C	0.382665	-0.339356	-0.210992
C252	C	0.613455	-0.548311	-0.445369
C253	C	0.593338	-0.510766	-0.428064
C254	C	0.460945	-0.378355	-0.295640
C255	C	0.426225	-0.361056	-0.258096
C256	C	0.593484	-0.378339	-0.428202
C257	C	0.613720	-0.361033	-0.445624
O258	O	-0.251400	0.254980	0.434531
O259	O	-0.179474	0.131965	0.383444
O260	O	-0.251397	0.203889	0.383450
O261	O	-0.179477	0.183055	0.434524
O262	O	-0.309796	0.203878	0.441878
O263	O	-0.237873	0.131953	0.441872
O264	O	-0.309799	0.254968	0.492959
Cu265	Cu	-0.279168	0.193459	0.472750
Cu266	Cu	-0.210105	0.193473	0.403652
O267	O	-0.237875	0.183043	0.492952
C268	C	0.005950	0.161947	-0.406317
C269	C	-0.015084	0.161653	-0.427555
C270	C	-0.057639	0.161937	-0.342707
C271	C	-0.078577	0.161643	-0.364042
C272	C	-0.057645	0.161947	-0.406317
C273	C	-0.015078	0.161643	-0.364042
C274	C	0.147792	0.173471	-0.445159
C275	C	0.187965	0.176731	-0.465179
C276	C	0.208113	0.178372	-0.507072
C277	C	0.251665	0.181915	-0.528780
C278	C	0.188089	0.176750	-0.528944
C279	C	0.147924	0.173485	-0.508925
C280	C	0.127775	0.171845	-0.467030
C281	C	-0.108002	0.173480	-0.509353
C282	C	-0.131276	0.176739	-0.529515
C283	C	-0.174792	0.178372	-0.507781
C284	C	-0.200034	0.181912	-0.529635
C285	C	-0.195029	0.176740	-0.465883
C286	C	-0.171751	0.173473	-0.445724
C287	C	-0.128236	0.171846	-0.467464
C288	C	-0.107973	0.173429	-0.189311
C289	C	-0.131245	0.176684	-0.145869
C290	C	-0.174761	0.178315	-0.124078
C291	C	-0.199997	0.181846	-0.076974
C292	C	-0.195004	0.176695	-0.145728
C293	C	-0.171732	0.173442	-0.189168
C294	C	-0.128213	0.171805	-0.210958
C295	C	0.084219	0.168309	-0.445325
C296	C	0.049502	0.165488	-0.428023
C297	C	-0.082872	0.165466	-0.295606
C298	C	-0.102984	0.168278	-0.258061
C299	C	-0.082884	0.165487	-0.428176
C300	C	-0.103001	0.168308	-0.445600
H301	H	-0.230684	-0.130277	-0.015513
C302	C	-0.242895	0.178533	-0.441975
N303	N	-0.278950	0.179886	-0.423966
C304	C	-0.379669	0.208507	0.451498
N305	N	-0.396316	0.207145	0.486206
C306	C	-0.170149	-0.062866	0.389929
N307	N	-0.204994	-0.045443	0.425275
C308	C	-0.242844	-0.124662	0.451453
N309	N	-0.278903	-0.106654	0.486160
C310	C	-0.615466	-0.273423	0.021932
N311	N	-0.598877	-0.255302	0.023274
H312	H	0.002840	-0.459769	-0.346951
H313	H	-0.569904	0.208991	0.439819
C314	C	-0.060378	-0.407042	-0.533035
N315	N	-0.024332	-0.441756	-0.551154
H316	H	-0.416438	-0.599616	0.021499
C317	C	0.571143	-0.273373	-0.399656
N318	N	0.535094	-0.255255	-0.364943
C319	C	-0.575908	0.071680	0.451456
N320	N	-0.592601	0.089735	0.486165
C321	C	0.086421	-0.258258	0.122143
N322	N	0.103009	-0.292970	0.104205
H323	H	-0.115291	-0.358499	-0.128020
H324	H	-0.331097	0.219539	0.262394
C325	C	0.704475	-0.593381	-0.533028
N326	N	0.721248	-0.575442	-0.551146
H327	H	-0.416411	0.214900	0.403205
H328	H	-0.230438	0.178023	-0.127983
H329	H	0.626054	-0.243294	-0.448199
H330	H	-0.569907	0.065193	0.323795
H331	H	-0.188217	0.172122	-0.206794
H332	H	0.002845	-0.459765	-0.462338
C333	C	-0.379692	0.208553	0.121882
N334	N	-0.396345	0.207204	0.103827
H335	H	-0.570161	0.208995	0.324378
H336	H	-0.374488	-0.130282	0.128328
H337	H	-0.230416	0.065468	-0.015477
H338	H	-0.230695	0.065148	0.439799
H339	H	-0.042785	-0.068821	-0.026022
H340	H	-0.258542	-0.359038	0.015569
H341	H	-0.230684	-0.243052	-0.128288
C342	C	-0.429149	-0.081989	0.409430
N343	N	-0.465201	-0.047278	0.427440
C344	C	-0.380274	-0.124030	0.451765
N345	N	-0.397043	-0.105906	0.486476
H346	H	-0.497286	0.214921	0.287806
C347	C	-0.060376	-0.019578	0.275812
N348	N	-0.024324	-0.037513	0.241101
H349	H	-0.072815	-0.395072	-0.206832
C350	C	0.086694	-0.257941	-0.015026
N351	N	0.103394	-0.292653	-0.013676
H352	H	-0.416715	-0.093962	0.207135
H353	H	0.007826	-0.209724	0.207138
C354	C	0.002055	-0.081981	-0.021881
N355	N	-0.014642	-0.047267	-0.023229
C356	C	-0.036597	-0.196400	-0.026205
N357	N	-0.018680	-0.231748	-0.026702
H358	H	-0.158131	-0.068822	-0.026028
H359	H	-0.497035	0.214911	0.403250
H360	H	0.008057	-0.209644	-0.021407
C361	C	0.209982	0.178521	-0.441117
N362	N	0.226564	0.179871	-0.422992
H363	H	-0.497277	-0.013362	0.403167
C364	C	0.300176	-0.231363	-0.121784
N365	N	0.283479	-0.196654	-0.103726
H366	H	-0.072570	0.172152	-0.527057
C367	C	-0.243119	-0.231077	-0.441177
N368	N	-0.279171	-0.196366	-0.423053
H369	H	-0.115280	-0.245973	-0.015507
H370	H	0.131391	0.172136	-0.411047
H371	H	0.698992	-0.395303	-0.527079
C372	C	-0.124523	-0.332199	-0.340949
N373	N	-0.159370	-0.296856	-0.323522
H374	H	0.131708	-0.599636	-0.527097
C375	C	-0.699821	-0.231383	0.015081
N376	N	-0.716514	-0.196675	0.013720
H377	H	-0.497036	-0.013613	0.287477
H378	H	0.204499	0.178085	-0.563053
H379	H	-0.331090	-0.184209	0.262355
C380	C	-0.428850	-0.273425	0.021927
N381	N	-0.464901	-0.255301	0.023275
C382	C	0.635305	-0.465462	-0.474514
N383	N	0.670157	-0.482887	-0.509857
C384	C	-0.109017	0.178540	-0.575598
N385	N	-0.092252	0.179899	-0.610307
H386	H	-0.115297	0.065424	0.324365
C387	C	0.384817	-0.407313	-0.213319
N388	N	0.401515	-0.442024	-0.231373
C389	C	0.086690	-0.124621	0.121858
N390	N	0.103388	-0.106609	0.103806
C391	C	-0.295286	-0.593135	0.021973
N392	N	-0.278629	-0.575083	0.023323
C393	C	-0.452625	0.219708	0.256379
N394	N	-0.470537	0.220197	0.238951
C395	C	-0.108963	0.071397	-0.015020
N396	N	-0.092193	0.089334	-0.013669
H397	H	-0.620953	-0.395362	0.021491
C398	C	0.753897	-0.365223	-0.575615
N399	N	0.789952	-0.383345	-0.610324
C400	C	-0.452613	0.219685	0.389958
N401	N	-0.470519	0.220163	0.425300
C402	C	-0.699548	-0.365291	0.015112
N403	N	-0.716132	-0.383415	0.013765
H404	H	-0.188178	-0.094294	0.403168
H405	H	-0.258822	-0.245971	0.324356
H406	H	0.204827	-0.678701	-0.448220
C407	C	-0.193953	-0.273411	-0.213323
N408	N	-0.210607	-0.255401	-0.231376
H409	H	0.378815	-0.279650	-0.206822
H410	H	-0.301049	-0.209648	0.287777
C411	C	-0.295280	0.215411	0.213404
N412	N	-0.278624	0.216762	0.231455
C413	C	0.086411	-0.124027	-0.015037
N414	N	0.102997	-0.105904	-0.013690
C415	C	-0.498256	-0.331927	0.032616
N416	N	-0.516167	-0.296582	0.033102
C417	C	-0.193953	-0.273408	-0.399131
N418	N	-0.210604	-0.255395	-0.364422
C419	C	-0.193955	-0.081982	-0.021889
N420	N	-0.210610	-0.047271	-0.023242
H421	H	-0.112825	0.161162	-0.346912
H422	H	0.002518	0.161180	-0.462291
C423	C	-0.295262	-0.215897	0.213076
N424	N	-0.278493	-0.234022	0.231015
H425	H	-0.258561	-0.678168	0.015602
C426	C	-0.108975	0.178466	-0.122057
N427	N	-0.092198	0.179806	-0.104122
H428	H	-0.416421	0.214921	0.206919
C429	C	-0.452619	-0.062821	0.256340
N430	N	-0.470530	-0.045393	0.238911
C431	C	-0.379680	-0.231378	0.015076
N432	N	-0.396331	-0.196667	0.013721
H433	H	-0.446443	-0.068830	0.377734
H434	H	-0.072516	-0.013601	-0.021408
C435	C	-0.108943	-0.258282	0.317541
N436	N	-0.092169	-0.292993	0.299415
H437	H	-0.258815	-0.245966	0.128073
H438	H	-0.115289	-0.358490	-0.563110
C439	C	-0.498250	-0.465515	0.032610
N440	N	-0.516149	-0.482950	0.033078
H441	H	0.507942	-0.459470	-0.346952
C442	C	0.210299	-0.684630	-0.575635
N443	N	0.226879	-0.702567	-0.610345
H444	H	-0.042784	-0.068860	0.262363
C445	C	-0.246122	0.208580	0.122184
N446	N	-0.210076	0.207241	0.104250
C447	C	0.501755	-0.331892	-0.340926
N448	N	0.483849	-0.296551	-0.323492
C449	C	-0.246104	0.208545	0.317593
N450	N	-0.210054	0.207200	0.299470
C451	C	0.300458	-0.365277	-0.122098
N452	N	0.283870	-0.383402	-0.104167
C453	C	0.126231	-0.593701	-0.399675
N454	N	0.109647	-0.575764	-0.364963
H455	H	-0.376731	-0.459499	0.032454
H456	H	-0.188230	0.172142	-0.411612
C457	C	0.570577	-0.593101	-0.399131
N458	N	0.534514	-0.575050	-0.364426
C459	C	0.619465	-0.684325	-0.441176
N460	N	0.602697	-0.702266	-0.423054
H461	H	-0.042780	-0.184245	0.262355
H462	H	-0.072539	0.172099	-0.207050
H463	H	-0.072503	-0.209733	0.287477
H464	H	0.008049	-0.094265	0.206893
C465	C	0.753355	-0.684606	-0.575076
N466	N	0.789411	-0.702659	-0.609785
H467	H	0.131623	0.172165	-0.526735
C468	C	0.008706	0.160991	-0.340903
N469	N	0.026621	0.160497	-0.323476
H470	H	-0.188182	-0.013351	-0.021402
C471	C	-0.295277	-0.407331	0.021957
N472	N	-0.278623	-0.442042	0.023310
H473	H	-0.301015	0.214930	0.287521
H474	H	-0.072800	-0.209647	-0.021419
H475	H	-0.373960	-0.678428	0.015590
H476	H	-0.188218	-0.013656	0.403223
