data_functionalizedCrystal
_audit_creation_method	'MofGen! by Chris Wilmer'
_symmetry_space_group_name_H-M	'P1'
_symmetry_Int_Tables_number	1
_symmetry_cell_setting	triclinic
loop_
_symmetry_equiv_pos_as_xyz
  x,y,z
_cell_length_a	19.851628
_cell_length_b	23.196402
_cell_length_c	23.196401
_cell_angle_alpha	60.008822
_cell_angle_beta	90.016862
_cell_angle_gamma	59.998845
loop_
_atom_site_label
_atom_site_type_symbol
_atom_site_fract_x
_atom_site_fract_y
_atom_site_fract_z
Zr1	Zr	0.648976	0.630934	-0.075560
O2	O	0.541388	0.751211	-0.167618
O3	O	0.681955	0.510665	-0.047343
O4	O	0.681925	0.630932	-0.167608
O5	O	0.541444	0.630943	0.047519
O6	O	0.792787	0.630921	-0.167597
O7	O	0.541417	0.630944	-0.047352
O8	O	0.792841	0.415785	0.047536
O9	O	0.541391	0.846079	-0.167613
O10	O	0.778759	0.560122	-0.035296
O11	O	0.696043	0.560129	0.035497
O12	O	0.696008	0.701728	-0.106100
O13	O	0.613293	0.701735	-0.035307
Zr14	Zr	0.825830	0.630914	0.075767
Zr15	Zr	0.825788	0.630916	-0.075541
Zr16	Zr	0.649019	0.630931	0.075749
Zr17	Zr	0.648981	0.782236	-0.075553
Zr18	Zr	0.825825	0.479611	0.075761
O19	O	0.792851	0.751183	0.047550
O20	O	0.792791	0.751186	-0.167591
O21	O	0.541448	0.751208	0.047524
O22	O	0.933419	0.510636	0.167825
O23	O	0.933359	0.510639	-0.047317
O24	O	0.682015	0.510661	0.167799
O25	O	0.933363	0.630905	-0.047312
O26	O	0.792881	0.630915	0.167816
O27	O	0.682019	0.630927	0.167804
O28	O	0.933389	0.630903	0.047560
O29	O	0.681932	0.846064	-0.167599
O30	O	0.792874	0.415783	0.167806
O31	O	0.933416	0.415769	0.167821
O32	O	0.933382	0.415771	0.047551
O33	O	0.541424	0.846077	-0.047343
O34	O	0.681966	0.846063	-0.047328
O35	O	0.778798	0.560119	0.106307
O36	O	0.861513	0.560112	0.035514
O37	O	0.778763	0.701718	-0.035290
O38	O	0.696048	0.701726	0.035503
C39	C	0.737397	0.441667	0.000096
C40	C	0.737395	0.377436	0.000093
C41	C	0.780566	0.347261	-0.036863
C42	C	0.780574	0.286900	-0.036857
C43	C	0.737395	0.256727	0.000095
C44	C	0.694222	0.286906	0.037059
C45	C	0.694222	0.347260	0.037058
C46	C	0.665055	0.194705	-0.005187
C47	C	0.665052	0.134356	-0.005191
C48	C	0.737396	0.070573	0.000102
C49	C	0.809742	0.067153	0.005385
C50	C	0.809742	0.127508	0.005384
C51	C	0.737390	0.191283	0.000100
C52	C	0.780579	-0.025053	-0.036849
C53	C	0.780590	-0.085418	-0.036839
C54	C	0.694230	-0.085406	0.037072
C55	C	0.694228	-0.025048	0.037066
C56	C	0.737400	0.005128	0.000102
C57	C	0.516239	0.630946	0.000081
C58	C	0.441177	0.630953	0.000073
C59	C	0.214714	0.708145	-0.038509
C60	C	0.192343	0.669551	-0.066486
C61	C	0.303771	0.630932	0.000093
C62	C	0.192401	0.669531	0.028057
C63	C	0.171039	0.630918	0.000112
C64	C	0.282389	0.592338	-0.027923
C65	C	0.282444	0.592329	0.066657
C66	C	0.260127	0.553679	0.038697
C67	C	0.380233	0.630943	0.000081
C68	C	0.094582	0.630901	0.000124
C69	C	0.958568	0.630901	0.000127
C70	C	1.033629	0.630894	0.000135
C71	C	0.737350	0.630927	-0.189161
C72	C	0.737332	0.630928	-0.253395
C73	C	0.737409	0.820180	0.000112
C74	C	0.737411	0.884412	0.000115
C75	C	0.694142	0.704842	-0.320527
C76	C	0.694163	0.704843	-0.380882
C77	C	0.737363	0.630926	-0.374101
C78	C	0.780563	0.557001	-0.306957
C79	C	0.780548	0.557002	-0.246604
C80	C	0.731227	0.574298	-0.441422
C81	C	0.731236	0.574300	-0.501775
C82	C	0.737415	0.630919	-0.560249
C83	C	0.743568	0.687550	-0.558369
C84	C	0.743553	0.687551	-0.498016
C85	C	0.737385	0.630916	-0.439540
C86	C	0.694245	0.704840	-0.692828
C87	C	0.694272	0.704838	-0.753183
C88	C	0.780667	0.556994	-0.679255
C89	C	0.780646	0.556998	-0.618903
C90	C	0.737430	0.630924	-0.625694
C91	C	0.737456	0.630921	0.189368
C92	C	0.737474	0.630920	0.253603
C93	C	0.958562	0.441645	0.000119
C94	C	1.033621	0.377406	0.000124
C95	C	0.737450	0.441664	0.189360
C96	C	0.737466	0.377432	0.253592
C97	C	0.958615	0.441642	0.189383
C98	C	1.033692	0.377402	0.253623
C99	C	0.516192	0.820205	-0.189175
C100	C	0.441115	0.884445	-0.253415
C101	C	0.516245	0.820202	0.000089
C102	C	0.441186	0.884442	0.000084
C103	C	0.737356	0.820183	-0.189152
C104	C	0.737341	0.884416	-0.253384
C105	C	1.025672	0.347243	-0.036842
C106	C	1.096192	0.286892	-0.036852
C107	C	1.174659	0.256700	0.000109
C108	C	1.182606	0.286869	0.037077
C109	C	1.112087	0.347223	0.037082
C110	C	0.780671	0.347262	0.320724
C111	C	0.780682	0.286917	0.381083
C112	C	0.737494	0.256738	0.374307
C113	C	0.694284	0.286914	0.307168
C114	C	0.694268	0.347262	0.246811
C115	C	1.112133	0.347230	0.246837
C116	C	1.182682	0.286878	0.307191
C117	C	1.174789	0.256694	0.374330
C118	C	1.096340	0.286872	0.381115
C119	C	1.025792	0.347227	0.320761
C120	C	0.362674	0.914625	-0.246630
C121	C	0.292124	0.974996	-0.306984
C122	C	0.300017	1.005182	-0.374123
C123	C	0.378466	0.975001	-0.380907
C124	C	0.449014	0.914635	-0.320553
C125	C	0.449134	0.914610	0.037044
C126	C	0.378615	0.974978	0.037036
C127	C	0.300148	1.005172	0.000073
C128	C	0.292201	0.975001	-0.036891
C129	C	0.362719	0.914638	-0.036888
C130	C	0.780537	0.914575	-0.246586
C131	C	0.780539	0.974921	-0.306933
C132	C	0.737338	1.005110	-0.374077
C133	C	0.694139	0.974944	-0.380874
C134	C	0.694144	0.914596	-0.320528
H135	H	0.868648	0.124719	0.009688
H136	H	0.815730	0.262328	-0.066952
N137	N	1.246704	0.194986	0.000178
N138	N	1.258861	0.127640	0.024137
H139	H	1.309750	0.084032	0.024213
H140	H	1.118570	0.371774	0.067188
H141	H	0.242734	1.054324	0.000076
N142	N	1.246857	0.195025	0.435977
N143	N	1.259075	0.127664	0.479410
H144	H	1.309975	0.084107	0.522946
N145	N	0.212054	1.005834	-0.074648
N146	N	0.190977	1.039514	-0.139813
H147	H	0.134372	1.061285	-0.166476
N148	N	0.737505	0.195094	0.435956
N149	N	0.671003	0.208569	0.446398
H150	H	0.671015	0.165030	0.489939
N151	N	0.354577	0.883821	-0.074634
N152	N	0.317771	0.850163	-0.058959
H153	H	0.312014	0.828402	-0.085620
H154	H	0.815717	0.890005	-0.191919
H155	H	0.815813	0.496808	-0.564240
H156	H	0.815840	0.371827	0.326255
N157	N	0.529274	0.883782	0.074810
N158	N	0.536344	0.910739	0.107801
H159	H	0.592942	0.888973	0.134474
N160	N	0.883655	0.002019	0.010786
N161	N	0.917362	0.017230	-0.035007
H162	H	0.969562	-0.028769	-0.031196
H163	H	0.961925	0.371785	0.326296
H164	H	0.815736	-0.000485	-0.066946
H165	H	1.246503	0.262278	0.067169
H166	H	0.321266	0.559724	0.122930
H167	H	1.089926	0.262288	0.435787
N168	N	0.824826	0.256111	0.449652
N169	N	0.863390	0.283061	0.455686
H170	H	0.894568	0.261306	0.504111
N171	N	0.650175	0.256073	0.300266
N172	N	0.650207	0.202188	0.354167
H173	H	0.619059	0.180401	0.349295
N174	N	1.088077	0.256061	-0.074598
N175	N	1.151039	0.202173	-0.074601
H176	H	1.145308	0.180397	-0.101257
H177	H	0.658964	0.890046	-0.326073
N178	N	0.650034	1.005738	-0.449450
N179	N	0.573885	1.039410	-0.467492
H180	H	0.542745	1.061140	-0.515921
N181	N	0.143613	0.710481	-0.137081
N182	N	0.129466	0.673025	-0.153735
H183	H	0.095043	0.701937	-0.203592
N184	N	0.824671	1.005717	-0.299968
N185	N	0.863230	0.978758	-0.240011
H186	H	0.894400	1.000505	-0.235089
N187	N	0.737350	1.066746	-0.435715
N188	N	0.803866	1.053250	-0.446133
H189	H	0.803878	1.096780	-0.489662
N190	N	0.824664	0.378084	-0.074622
N191	N	0.806336	0.411759	-0.139786
H192	H	0.837483	0.433526	-0.166453
N193	N	0.824703	-0.116241	-0.074586
N194	N	0.863246	-0.089290	-0.107583
H195	H	0.894403	-0.111059	-0.134243
H196	H	0.726189	0.528193	-0.393814
N197	N	0.354584	0.883804	-0.178059
N198	N	0.284534	0.910769	-0.172023
H199	H	0.278813	0.889008	-0.123597
H200	H	0.321076	0.559728	-0.051629
H201	H	0.278740	0.488339	0.071342
N202	N	0.824700	0.481488	-0.300014
N203	N	0.900852	0.431990	-0.268503
H204	H	0.932029	0.378654	-0.263596
H205	H	0.384883	0.999587	-0.435579
N206	N	0.212004	1.005809	-0.300032
N207	N	0.204976	0.978838	-0.240080
H208	H	0.148393	1.000598	-0.235167
H209	H	0.815720	0.496810	-0.191940
H210	H	0.242566	1.054336	-0.423261
N211	N	0.650127	-0.116215	0.074833
N212	N	0.668462	-0.149884	0.139996
H213	H	0.637316	-0.171647	0.166671
N214	N	0.650130	0.378065	0.178243
N215	N	0.611577	0.351106	0.172212
H216	H	0.580400	0.372859	0.123786
N217	N	0.529132	0.883819	-0.327503
N218	N	0.536158	0.910783	-0.387456
H219	H	0.592741	0.889023	-0.392370
H220	H	0.385101	0.999534	0.067140
N221	N	1.262815	0.256038	0.300264
N222	N	1.325804	0.202149	0.354150
H223	H	1.382397	0.180367	0.349258
H224	H	0.659070	-0.000477	0.067157
H225	H	1.118575	0.371797	0.192175
N226	N	0.591147	0.137868	-0.010597
N227	N	0.526562	0.194814	-0.015315
H228	H	0.474364	0.197298	-0.019134
H229	H	0.196255	0.773432	-0.071200
H230	H	0.606135	0.246648	-0.009512
N231	N	0.749888	0.745377	-0.618100
N232	N	0.811662	0.746558	-0.611937
H233	H	0.816119	0.787397	-0.654129
H234	H	0.659065	0.371828	0.067152
N235	N	0.650128	0.256072	0.074807
N236	N	0.650134	0.202184	0.074804
H237	H	0.618996	0.180404	0.101469
N238	N	0.945520	0.378095	-0.074607
N239	N	0.882555	0.431986	-0.074609
H240	H	0.825948	0.453776	-0.101285
H241	H	0.726221	0.528191	-0.503301
H242	H	0.153607	0.702179	0.051699
H243	H	0.658956	0.765038	-0.326063
N244	N	0.650041	0.780356	-0.449461
N245	N	0.611463	0.846353	-0.455513
H246	H	0.580301	0.899685	-0.503945
N247	N	0.824783	0.481487	-0.672319
N248	N	0.806470	0.432000	-0.640855
H249	H	0.837629	0.378670	-0.635957
N250	N	0.749838	0.745399	-0.496104
N251	N	0.755351	0.795952	-0.548314
H252	H	0.759792	0.836807	-0.546964
H253	H	0.659104	0.765031	-0.807846
N254	N	0.650122	0.780356	-0.699771
N255	N	0.611580	0.846349	-0.759719
H256	H	0.580424	0.899684	-0.764625
