data_functionalizedCrystal
_audit_creation_method	'MofGen! by Chris Wilmer'
_symmetry_space_group_name_H-M	'P1'
_symmetry_Int_Tables_number	1
_symmetry_cell_setting	triclinic
loop_
_symmetry_equiv_pos_as_xyz
  x,y,z
_cell_length_a	12.594517
_cell_length_b	12.594516
_cell_length_c	17.077396
_cell_angle_alpha	89.976855
_cell_angle_beta	89.987112
_cell_angle_gamma	90.016010
loop_
_atom_site_label
_atom_site_type_symbol
_atom_site_fract_x
_atom_site_fract_y
_atom_site_fract_z
Zn1	Zn	1.627252	-0.423743	-0.443733
Zn2	Zn	2.127252	0.076257	0.056267
Zn3	Zn	1.627147	-0.601744	-0.312480
Zn4	Zn	2.127147	-0.101744	0.187520
Zn5	Zn	1.449260	-0.423780	-0.312496
Zn6	Zn	1.949260	0.076220	0.187504
Zn7	Zn	1.449238	-0.601680	-0.443718
Zn8	Zn	1.949238	-0.101680	0.056282
O9	O	1.538224	-0.512737	-0.378107
O10	O	2.038224	-0.012737	0.121893
O11	O	1.776184	-0.447367	-0.426321
O12	O	2.276184	0.052633	0.073679
O13	O	1.603516	-0.578179	-0.202635
O14	O	2.103516	-0.078179	0.297365
O15	O	1.472924	-0.274829	-0.329919
O16	O	1.972924	0.225171	0.170081
O17	O	1.776107	-0.578143	-0.329890
O18	O	2.276107	-0.078143	0.170110
O19	O	1.603694	-0.274802	-0.426338
O20	O	2.103694	0.225198	0.073662
O21	O	1.472823	-0.447429	-0.202647
O22	O	1.972823	0.052571	0.297353
O23	O	1.300312	-0.447367	-0.329904
O24	O	1.800312	0.052633	0.170096
O25	O	1.472887	-0.578034	-0.553567
O26	O	1.972887	-0.078034	-0.053567
O27	O	1.300295	-0.578070	-0.426312
O28	O	1.800295	-0.078070	0.073688
O29	O	1.603673	-0.447305	-0.553578
O30	O	2.103673	0.052695	-0.053578
O31	O	1.603494	-0.750681	-0.329875
O32	O	2.103494	-0.250681	0.170125
O33	O	1.472785	-0.750634	-0.426296
O34	O	1.972785	-0.250634	0.073704
C35	C	1.261683	-0.512716	-0.378109
C36	C	1.761683	-0.012716	0.121891
C37	C	1.143378	-0.512733	-0.378128
C38	C	1.643378	-0.012733	0.121872
C39	C	1.003383	-0.583951	-0.430467
C40	C	1.503383	-0.083951	0.069533
C41	C	1.074156	-0.609854	-0.358827
C42	C	1.574156	-0.109854	0.141173
C43	C	1.074177	-0.486878	-0.449761
C44	C	1.574177	0.013122	0.050239
C45	C	1.003365	-0.538720	-0.306426
C46	C	1.503365	-0.038720	0.193574
C47	C	1.003380	-0.415700	-0.397409
C48	C	1.503380	0.084300	0.102591
C49	C	1.074121	-0.441565	-0.325719
C50	C	1.574121	0.058435	0.174281
C51	C	1.538155	-0.789278	-0.378099
C52	C	2.038155	-0.289278	0.121901
C53	C	1.538222	-0.907583	-0.378122
C54	C	2.038222	-0.407583	0.121878
C55	C	1.467123	-0.976850	-0.430528
C56	C	1.967123	-0.476850	0.069472
C57	C	1.441192	-1.047710	-0.358903
C58	C	1.941192	-0.547710	0.141097
C59	C	1.564250	-1.047522	-0.449760
C60	C	2.064250	-0.547522	0.050240
C61	C	1.512240	-0.976885	-0.306459
C62	C	2.012240	-0.476885	0.193541
C63	C	1.635344	-0.976691	-0.397364
C64	C	2.135344	-0.476691	0.102636
C65	C	1.609449	-1.047520	-0.325689
C66	C	2.109449	-0.547520	0.174311
C67	C	1.815845	-0.512758	-0.378105
C68	C	2.315845	-0.012758	0.121895
C69	C	1.934151	-0.512767	-0.378105
C70	C	2.434151	-0.012767	0.121895
C71	C	1.538289	-0.512658	-0.582851
C72	C	2.038289	-0.012658	-0.082851
C73	C	1.538316	-0.512625	-0.670101
C74	C	2.038316	-0.012625	-0.170101
C75	C	1.538323	-0.235116	-0.378132
C76	C	2.038323	0.264884	0.121868
C77	C	1.538366	-0.116811	-0.378142
C78	C	2.038366	0.383189	0.121858
C79	C	1.606419	-0.444549	-0.711098
C80	C	2.106419	0.055451	-0.211098
C81	C	1.606432	-0.444513	-0.793079
C82	C	2.106432	0.055487	-0.293079
C83	C	1.538346	-0.512560	-0.834061
C84	C	2.038346	-0.012560	-0.334061
C85	C	1.470236	-0.580640	-0.793058
C86	C	1.970236	-0.080640	-0.293058
C87	C	1.470219	-0.580669	-0.711079
C88	C	1.970219	-0.080669	-0.211079
C89	C	1.470279	-0.580576	-0.963928
C90	C	1.970279	-0.080576	-0.463928
C91	C	1.470297	-0.580548	-1.045912
C92	C	1.970297	-0.080548	-0.545912
C93	C	1.606492	-0.444420	-1.045928
C94	C	2.106492	0.055580	-0.545928
C95	C	1.606475	-0.444449	-0.963949
C96	C	2.106475	0.055551	-0.463949
C97	C	1.538366	-0.512530	-0.922952
C98	C	2.038366	-0.012530	-0.422952
C99	C	1.538222	-0.512738	-0.174159
C100	C	2.038222	-0.012738	0.325841
C101	C	1.538400	-0.512472	-0.086910
C102	C	2.038400	-0.012472	0.413090
H103	H	0.972267	-0.333650	-0.413753
H104	H	1.472267	0.166350	0.086247
H105	H	1.406889	-0.945818	-0.474782
H106	H	1.906889	-0.445818	0.025218
H107	H	1.661922	-0.389045	-0.930584
H108	H	2.161922	0.110955	-0.430584
F109	F	1.678953	-0.372093	-0.836707
F110	F	2.178953	0.127907	-0.336707
H111	H	1.717392	-0.945476	-0.413657
H112	H	2.217392	-0.445476	0.086343
H113	H	1.586207	-1.078550	-0.510335
H114	H	2.086207	-0.578550	-0.010335
H115	H	1.105281	-0.464995	-0.510350
H116	H	1.605281	0.035005	-0.010350
F117	F	1.688122	-1.087824	-0.267709
F118	F	2.188122	-0.587824	0.232291
F119	F	1.333919	-1.088481	-0.337633
F120	F	1.833919	-0.588481	0.162367
F121	F	1.483420	-0.936501	-0.227259
F122	F	1.983420	-0.436501	0.272741
H123	H	1.661865	-0.389140	-0.677737
H124	H	2.161865	0.110860	-0.177737
F125	F	1.678980	-0.371963	-1.089561
F126	F	2.178980	0.128037	-0.589561
H127	H	1.414801	-0.635998	-0.930550
H128	H	1.914801	-0.135998	-0.430550
F129	F	1.397825	-0.652963	-1.089527
F130	F	1.897825	-0.152963	-0.589527
H131	H	1.414796	-0.636041	-0.826432
H132	H	1.914796	-0.136041	-0.326432
F133	F	1.397732	-0.653123	-0.667447
F134	F	1.897732	-0.153123	-0.167447
F135	F	1.114797	-0.717128	-0.337492
F136	F	1.614797	-0.217128	0.162508
H137	H	0.972392	-0.560703	-0.245821
H138	H	1.472392	-0.060703	0.254179
H139	H	1.104984	-0.381353	-0.281396
H140	H	1.604984	0.118647	0.218604
F141	F	0.962783	-0.662709	-0.488261
F142	F	1.462783	-0.162709	0.011739
