data_functionalizedCrystal
_audit_creation_method	'MofGen! by Chris Wilmer'
_symmetry_space_group_name_H-M	'P1'
_symmetry_Int_Tables_number	1
_symmetry_cell_setting	triclinic
loop_
_symmetry_equiv_pos_as_xyz
  x,y,z
_cell_length_a	10.540539
_cell_length_b	19.188924
_cell_length_c	9.016244
_cell_angle_alpha	89.995687
_cell_angle_beta	89.994699
_cell_angle_gamma	83.833728
loop_
_atom_site_label
_atom_site_type_symbol
_atom_site_fract_x
_atom_site_fract_y
_atom_site_fract_z
O1	O	1.683721	0.098389	-0.123278
O2	O	1.314103	0.107659	-0.123297
O3	O	1.509583	0.001439	-0.123270
O4	O	1.488241	0.204609	-0.123306
O5	O	1.509554	0.001441	0.123411
O6	O	1.314074	0.107662	0.123384
O7	O	1.683692	0.098391	0.123403
Cu8	Cu	1.498881	0.103027	0.145917
Cu9	Cu	1.498914	0.103024	-0.145811
O10	O	1.488212	0.204611	0.123375
C11	C	1.266801	0.106965	0.000041
C12	C	1.125899	0.104885	0.000035
C13	C	0.944232	0.025184	0.000624
C14	C	1.090803	0.027292	0.000053
C15	C	1.063418	0.142225	-0.140833
C16	C	0.916932	0.139577	-0.140936
C17	C	0.916376	0.141158	0.139586
C18	C	1.063342	0.141873	0.141433
C19	C	1.508879	-0.024575	0.000072
C20	C	1.506809	-0.102094	0.000076
C21	C	1.505858	-0.138501	-0.134390
C22	C	1.503895	-0.211336	-0.134401
C23	C	1.502908	-0.247764	0.000061
C24	C	1.503851	-0.211349	0.134545
C25	C	1.505802	-0.138513	0.134552
N26	N	1.572066	-0.366966	0.100142
N27	N	1.570216	-0.436156	0.100125
C28	C	1.497028	-0.467213	0.000046
N29	N	1.425776	-0.426466	-0.100038
N30	N	1.427632	-0.357269	-0.100026
C31	C	1.500792	-0.326742	0.000068
C32	C	1.493947	-0.582596	-0.134441
C33	C	1.491976	-0.655433	-0.134447
C34	C	1.491945	-0.655444	0.134503
C35	C	1.493903	-0.582608	0.134505
C36	C	1.494910	-0.546189	0.000029
C37	C	1.730994	0.099085	0.000061
C38	C	1.871896	0.101165	0.000058
C39	C	1.488916	0.230626	0.000030
C40	C	1.490987	0.308144	0.000017
N41	N	1.498866	0.103028	0.351103
N42	N	1.498939	0.103017	-0.350998
C43	C	1.393985	0.159658	0.586121
C44	C	1.394209	0.159870	0.414230
C45	C	1.631223	0.119601	0.413445
C46	C	1.630649	0.120002	0.585390
C47	C	1.472713	0.029640	0.585658
C48	C	1.469657	0.030115	0.413704
H49	H	1.133214	-0.002297	-0.101092
N50	N	1.340695	0.013448	0.359781
H51	H	1.283319	0.007684	0.447662
H52	H	1.301414	0.052971	0.295025
H53	H	1.549256	-0.012519	0.626321
N54	N	1.416081	0.232043	0.359870
H55	H	1.500951	0.244527	0.397700
H56	H	1.416191	0.232524	0.247860
N57	N	1.506966	-0.099231	-0.279438
H58	H	1.586456	-0.074291	-0.285407
H59	H	1.506027	-0.133402	-0.364522
H60	H	1.503044	-0.241013	0.244025
N61	N	1.662660	0.189710	0.356375
H62	H	1.594531	0.227587	0.389327
H63	H	1.748023	0.199842	0.397121
H64	H	1.711164	0.079472	0.372551
N65	N	1.347663	0.008757	0.643161
H66	H	1.275815	0.044852	0.611885
H67	H	1.332838	-0.038475	0.601123
N68	N	1.661343	0.190910	0.638497
H69	H	1.675116	0.221614	0.550213
H70	H	1.588069	0.213493	0.700017
N71	N	1.093761	0.216809	0.152696
H72	H	1.189241	0.217705	0.158969
H73	H	1.060003	0.243690	0.062129
H74	H	1.503113	-0.240984	-0.243903
H75	H	1.541160	-0.014060	0.370739
N76	N	1.148106	-0.011620	0.133814
H77	H	1.078160	-0.030301	0.193679
H78	H	1.211033	-0.051908	0.100068
N79	N	0.907260	-0.015421	0.134448
H80	H	0.843257	0.015039	0.196007
H81	H	0.868180	-0.058542	0.100738
H82	H	0.914710	-0.005341	-0.099827
H83	H	1.506571	-0.108871	0.244054
H84	H	1.104895	0.114595	0.245646
N85	N	1.495028	-0.543308	-0.279473
H86	H	1.494117	-0.577426	-0.364662
H87	H	1.417172	-0.507816	-0.285332
H88	H	0.867912	0.197203	0.140528
H89	H	0.885372	0.116048	0.246363
H90	H	0.889343	0.111977	-0.246226
H91	H	0.867731	0.195380	-0.147339
H92	H	1.491132	-0.685103	0.243985
N93	N	1.091369	0.217702	-0.147818
H94	H	1.144931	0.228442	-0.059521
H95	H	1.139314	0.225676	-0.242235
H96	H	1.491195	-0.685073	-0.243950
N97	N	1.120581	0.107870	-0.279706
H98	H	1.215474	0.111442	-0.281326
H99	H	1.104722	0.056895	-0.281009
N100	N	1.494942	-0.543337	0.279537
H101	H	1.494022	-0.577464	0.364720
H102	H	1.574423	-0.518388	0.285397
H103	H	1.295813	0.149898	0.372083
H104	H	1.295276	0.149840	0.627512
N105	N	1.415833	0.231369	0.643246
H106	H	1.493417	0.227324	0.709688
H107	H	1.429958	0.263088	0.556763
H108	H	1.711165	0.080409	0.626983
