data_functionalizedCrystal
_audit_creation_method	'MofGen! by Chris Wilmer'
_symmetry_space_group_name_H-M	'P1'
_symmetry_Int_Tables_number	1
_symmetry_cell_setting	triclinic
loop_
_symmetry_equiv_pos_as_xyz
  x,y,z
_cell_length_a	18.101395
_cell_length_b	18.101398
_cell_length_c	16.959434
_cell_angle_alpha	89.934424
_cell_angle_beta	89.911397
_cell_angle_gamma	90.028835
loop_
_atom_site_label
_atom_site_type_symbol
_atom_site_fract_x
_atom_site_fract_y
_atom_site_fract_z
Zn1	Zn	-0.294427	1.132419	-0.447060
Zn2	Zn	-0.418408	1.132227	-0.314884
Zn3	Zn	-0.294580	1.008490	-0.314882
Zn4	Zn	-0.418227	1.008529	-0.447006
O5	O	-0.356411	1.070416	-0.380958
O6	O	-0.310886	1.236027	-0.429550
O7	O	-0.402122	1.115716	-0.204272
O8	O	-0.190927	1.024994	-0.332437
O9	O	-0.401974	1.235885	-0.332440
O10	O	-0.190815	1.116044	-0.429548
O11	O	-0.311146	1.024807	-0.204271
O12	O	-0.310970	0.904862	-0.332385
O13	O	-0.401665	1.025060	-0.557625
O14	O	-0.401813	0.904891	-0.429456
O15	O	-0.310710	1.116082	-0.557665
O16	O	-0.522017	1.115754	-0.332388
O17	O	-0.521884	1.024874	-0.429458
C18	C	-0.356389	0.878006	-0.380915
C19	C	-0.356397	0.795692	-0.380915
C20	C	-0.356412	0.644983	-0.380951
C21	C	-0.299175	0.613587	-0.319978
C22	C	-0.298959	0.527969	-0.320178
C23	C	-0.356427	0.496601	-0.380985
C24	C	-0.335510	0.527796	-0.464381
C25	C	-0.335086	0.613441	-0.464008
C26	C	-0.434715	0.613365	-0.359264
C27	C	-0.434304	0.527712	-0.357446
C28	C	-0.356437	0.412741	-0.381009
C29	C	-0.356401	0.728843	-0.380932
C30	C	-0.548821	1.070317	-0.380935
C31	C	-0.631135	1.070343	-0.380951
C32	C	-0.930226	1.070505	-0.380994
C33	C	-0.898848	1.013458	-0.442219
C34	C	-0.813230	1.013187	-0.442028
C35	C	-0.781844	1.070425	-0.380973
C36	C	-0.813078	1.049240	-0.297666
C37	C	-0.898722	1.048872	-0.298032
C38	C	-0.898551	1.148861	-0.402342
C39	C	-0.812899	1.148402	-0.404169
C40	C	-0.697984	1.070380	-0.380957
C41	C	-1.014086	1.070548	-0.381005
C42	C	-0.163249	1.070536	-0.380999
C43	C	-0.080934	1.070587	-0.381016
C44	C	-0.356150	1.070597	-0.587127
C45	C	-0.356039	1.070674	-0.674984
C46	C	-0.356433	1.263578	-0.381002
C47	C	-0.356442	1.345892	-0.381020
C48	C	-0.356617	1.070279	-0.175591
C49	C	-0.356519	1.070346	-0.087735
C50	C	-0.403496	1.118051	-0.046422
C51	C	-0.309446	1.022707	-0.046495
C52	C	-0.309350	1.022771	0.036051
C53	C	-0.356327	1.070476	0.077364
C54	C	-0.403400	1.118118	0.036131
C55	C	-0.262273	0.975136	0.077290
C56	C	-0.262174	0.975198	0.159840
C57	C	-0.309155	1.022900	0.201155
C58	C	-0.356231	1.070543	0.159917
C59	C	-0.403208	1.118248	0.201230
C60	C	-0.450288	1.165888	0.159994
C61	C	-0.450381	1.165820	0.077446
C62	C	-0.309062	1.022968	0.283703
C63	C	-0.403112	1.118315	0.283784
H64	H	-0.277856	0.633458	-0.482340
H65	H	-0.278913	0.506389	-0.483035
H66	H	-0.920446	0.955733	-0.428256
C67	C	-0.926779	1.102556	-0.234296
N68	N	-0.947907	1.142986	-0.186286
H69	H	-0.792475	1.164376	-0.465479
H70	H	-0.374976	0.634218	-0.511011
C71	C	-0.785652	0.934713	-0.422981
N72	N	-0.764881	0.875599	-0.408653
H73	H	-0.488533	1.204733	0.193642
C74	C	-0.785619	1.103598	-0.234354
N75	N	-0.764935	1.144540	-0.186668
H76	H	-0.919334	1.026588	-0.504191
H77	H	-0.450081	0.507315	-0.296070
H78	H	-0.479218	0.506352	-0.398589
C79	C	-0.502361	1.218024	0.032082
N80	N	-0.541583	1.257274	-0.002090
H81	H	-0.477357	0.633669	-0.403673
H82	H	-0.792104	1.026448	-0.503799
C83	C	-0.455418	1.170317	-0.091781
N84	N	-0.494575	1.209636	-0.125946
C85	C	-0.257771	0.970238	-0.091942
N86	N	-0.218849	0.930715	-0.126176
C87	C	-0.390106	0.500355	-0.527457
N88	N	-0.431227	0.479684	-0.574965
C89	C	-0.210391	0.922789	0.205193
N90	N	-0.171390	0.883311	0.239353
C91	C	-0.316556	0.641362	-0.236189
N92	N	-0.329633	0.662310	-0.173082
H93	H	-0.791529	1.193157	-0.362827
H94	H	-0.224024	0.936300	0.043647
H95	H	-0.270725	0.984186	0.317274
C96	C	-0.460494	0.642432	-0.278476
N97	N	-0.479902	0.664325	-0.217623
H98	H	-0.918781	0.991592	-0.279949
C99	C	-0.784218	0.972673	-0.272801
N100	N	-0.762483	0.915000	-0.254077
C101	C	-0.927577	1.174937	-0.483015
N102	N	-0.949439	1.194569	-0.543782
C103	C	-0.454784	1.170803	0.329221
N104	N	-0.493700	1.210341	0.363444
C105	C	-0.221234	0.642699	-0.339186
N106	N	-0.162529	0.664624	-0.353658
C107	C	-0.316589	0.499464	-0.236649
N108	N	-0.329860	0.477997	-0.173730
H109	H	-0.240943	0.507516	-0.334577
C110	C	-0.925975	1.206281	-0.342104
N111	N	-0.946636	1.249525	-0.296730
