data_functionalizedCrystal
_audit_creation_method	'MofGen! by Chris Wilmer'
_symmetry_space_group_name_H-M	'P1'
_symmetry_Int_Tables_number	1
_symmetry_cell_setting	triclinic
loop_
_symmetry_equiv_pos_as_xyz
  x,y,z
_cell_length_a	10.723024
_cell_length_b	14.519709
_cell_length_c	9.198806
_cell_angle_alpha	89.995869
_cell_angle_beta	89.996352
_cell_angle_gamma	84.074007
loop_
_atom_site_label
_atom_site_type_symbol
_atom_site_fract_x
_atom_site_fract_y
_atom_site_fract_z
O1	O	1.655978	0.129347	-0.120886
O2	O	2.155978	0.629347	0.379114
O3	O	1.292710	0.141728	-0.120892
O4	O	1.792710	0.641728	0.379108
O5	O	1.483976	0.001349	-0.120876
O6	O	1.983976	0.501349	0.379124
O7	O	1.464713	0.269727	-0.120902
O8	O	1.964713	0.769727	0.379098
O9	O	1.483960	0.001348	0.120909
O10	O	1.983960	0.501348	0.620909
O11	O	1.292695	0.141728	0.120893
O12	O	1.792695	0.641728	0.620893
O13	O	1.655963	0.129347	0.120899
O14	O	2.155963	0.629347	0.620899
Cu15	Cu	1.474328	0.135538	0.142973
Cu16	Cu	1.974328	0.635538	0.642973
Cu17	Cu	1.474345	0.135538	-0.142966
Cu18	Cu	1.974345	0.635538	0.357034
O19	O	1.464697	0.269727	0.120883
O20	O	1.964697	0.769727	0.620883
C21	C	1.246211	0.140827	0.000000
C22	C	1.746211	0.640827	0.500000
C23	C	1.107682	0.138132	-0.000001
C24	C	1.607682	0.638132	0.499999
C25	C	1.483070	-0.033016	0.000017
C26	C	1.983070	0.466984	0.500017
C27	C	1.480380	-0.135411	0.000018
C28	C	1.980380	0.364589	0.500018
C29	C	1.031965	0.216681	-0.000010
C30	C	1.531965	0.716681	0.499990
C31	C	0.888788	0.213896	-0.000012
C32	C	1.388788	0.713896	0.499988
C33	C	1.470476	-0.510357	-0.000020
C34	C	1.970476	-0.010357	0.499980
C35	C	1.473227	-0.406035	-0.000009
C36	C	1.973227	0.093965	0.499991
C37	C	1.475428	-0.322887	0.000000
C38	C	1.975428	0.177113	0.500000
C39	C	1.478179	-0.218559	0.000008
C40	C	1.978179	0.281441	0.500008
C41	C	1.702462	0.130248	0.000003
C42	C	2.202462	0.630248	0.500003
C43	C	1.840991	0.132944	-0.000005
C44	C	2.340991	0.632944	0.499995
C45	C	1.465603	0.304091	-0.000013
C46	C	1.965603	0.804091	0.499987
C47	C	1.468293	0.406486	-0.000024
C48	C	1.968293	0.906486	0.499976
N49	N	1.474324	0.135537	0.344087
N50	N	1.974324	0.635537	0.844087
N51	N	1.474359	0.135532	-0.344080
N52	N	1.974359	0.635532	0.155920
C53	C	1.554633	0.076335	0.416290
C54	C	2.054633	0.576335	0.916290
C55	C	1.554653	0.076332	0.583703
C56	C	2.054653	0.576332	1.083703
H57	H	1.073139	0.285991	-0.000009
H58	H	1.573139	0.785991	0.499991
C59	C	1.304742	0.154638	0.515481
C60	C	1.804742	0.654638	1.015481
C61	C	1.381520	0.203959	0.427940
C62	C	1.881520	0.703959	0.927940
H63	H	1.247453	0.196882	0.567251
H64	H	1.747453	0.696882	1.067251
H65	H	1.259562	0.116098	0.456112
H66	H	1.759562	0.616098	0.956112
H67	H	1.355143	0.117498	0.582465
H68	H	1.855143	0.617498	1.082465
H69	H	1.331119	0.241094	0.360948
H70	H	1.831119	0.741094	0.860948
H71	H	1.426704	0.242515	0.487314
H72	H	1.926704	0.742515	0.987314
C73	C	0.676130	0.284350	-0.000019
C74	C	1.176130	0.784350	0.499981
C75	C	0.800967	0.304680	-0.000021
C76	C	1.300967	0.804680	0.499979
H77	H	0.621913	0.340399	-0.000016
H78	H	1.121913	0.840399	0.499984
H79	H	0.660908	0.249442	-0.084327
H80	H	1.160908	0.749442	0.415673
H81	H	0.660901	0.249433	0.084305
H82	H	1.160901	0.749433	0.584305
H83	H	0.816198	0.339591	-0.084351
H84	H	1.316198	0.839591	0.415649
H85	H	0.816194	0.339603	0.084296
H86	H	1.316194	0.839603	0.584296
H87	H	0.906045	0.065696	-0.000006
H88	H	1.406045	0.565696	0.499994
H89	H	1.066508	0.068822	-0.000032
H90	H	1.566508	0.568822	0.499968
H91	H	1.623371	0.025649	0.354170
H92	H	2.123371	0.525649	0.854170
C93	C	1.721713	-0.046834	0.568715
C94	C	2.221713	0.453166	1.068715
C95	C	1.647475	0.007903	0.667512
C96	C	2.147475	0.507903	1.167512
H97	H	1.779022	-0.089077	0.620461
H98	H	2.279022	0.410923	1.120461
H99	H	1.669599	-0.080273	0.509366
H100	H	2.169599	0.419727	1.009366
H101	H	1.766880	-0.008272	0.509332
H102	H	2.266880	0.491728	1.009332
H103	H	1.602300	-0.030659	0.726889
H104	H	2.102300	0.469341	1.226889
H105	H	1.699596	0.041344	0.726886
H106	H	2.199596	0.541344	1.226886
H107	H	1.405604	0.186222	0.593837
H108	H	1.905604	0.686222	1.093837
