data_functionalizedCrystal
_audit_creation_method	'MofGen! by Chris Wilmer'
_symmetry_space_group_name_H-M	'P1'
_symmetry_Int_Tables_number	1
_symmetry_cell_setting	triclinic
loop_
_symmetry_equiv_pos_as_xyz
  x,y,z
_cell_length_a	13.033748
_cell_length_b	16.959453
_cell_length_c	13.033109
_cell_angle_alpha	97.151746
_cell_angle_beta	89.076084
_cell_angle_gamma	97.214817
loop_
_atom_site_label
_atom_site_type_symbol
_atom_site_fract_x
_atom_site_fract_y
_atom_site_fract_z
Zn1	Zn	1.646089	-0.193006	-0.382076
Zn2	Zn	1.624135	-0.310793	-0.210111
Zn3	Zn	1.452273	-0.197262	-0.231930
Zn4	Zn	1.474072	-0.343785	-0.403836
O5	O	1.549142	-0.261212	-0.306988
O6	O	1.787092	-0.193043	-0.341027
O7	O	1.583026	-0.283707	-0.069094
O8	O	1.478048	-0.086083	-0.251872
O9	O	1.770962	-0.279580	-0.214685
O10	O	1.620445	-0.082956	-0.362183
O11	O	1.456760	-0.200296	-0.085125
O12	O	1.311250	-0.232287	-0.272971
O13	O	1.515201	-0.335810	-0.544860
O14	O	1.327265	-0.339937	-0.399270
O15	O	1.641582	-0.225034	-0.528873
O16	O	1.604163	-0.425785	-0.235785
O17	O	1.493912	-0.450024	-0.378113
C18	C	1.281942	-0.290155	-0.340850
C19	C	1.167636	-0.302557	-0.355361
C20	C	1.108735	-0.254761	-0.299440
C21	C	0.990594	-0.267579	-0.314437
C22	C	1.549052	-0.466584	-0.306961
C23	C	1.549111	-0.554436	-0.306972
C24	C	1.623388	-0.924225	-0.364541
C25	C	1.475203	-0.927577	-0.249552
C26	C	1.475162	-0.845033	-0.249533
C27	C	1.549234	-0.802082	-0.307020
C28	C	1.623347	-0.841674	-0.364526
C29	C	1.401044	-0.805437	-0.192036
C30	C	1.400999	-0.722888	-0.192016
C31	C	1.475076	-0.679934	-0.249498
C32	C	1.549193	-0.719531	-0.307006
C33	C	1.623265	-0.676579	-0.364493
C34	C	1.697387	-0.716174	-0.421995
C35	C	1.697425	-0.798720	-0.422008
C36	C	1.475039	-0.597388	-0.249485
C37	C	1.623224	-0.594028	-0.364478
C38	C	1.817386	-0.232157	-0.272995
C39	C	1.931695	-0.219775	-0.258509
C40	C	1.583272	-0.283627	-0.575225
C41	C	1.597816	-0.293180	-0.689531
C42	C	1.549264	-0.055036	-0.307034
C43	C	1.549316	0.032823	-0.307054
C44	C	1.541826	-0.256168	-0.748424
C45	C	1.556857	-0.266040	-0.866566
C46	C	1.515204	-0.238820	-0.039788
C47	C	1.500860	-0.229023	0.074543
H48	H	1.683547	-0.559061	-0.411287
H49	H	0.968726	-0.169363	-0.199523
C50	C	1.803899	-0.934850	-0.392741
C51	C	1.704855	-0.967739	-0.427759
H52	H	1.854190	-0.961717	-0.431771
H53	H	1.814461	-0.879548	-0.400957
H54	H	1.810222	-0.940992	-0.321746
H55	H	1.698530	-0.961592	-0.498753
H56	H	1.694290	-1.023055	-0.419552
H57	H	1.482760	-0.217177	-0.711381
C58	C	1.409478	-1.055602	-0.198515
C59	C	1.393790	-0.974787	-0.186359
H60	H	1.359219	-1.084746	-0.159493
H61	H	1.403157	-1.076521	-0.269509
H62	H	1.476693	-1.060345	-0.174770
H63	H	1.326576	-0.970043	-0.210112
H64	H	1.400102	-0.953862	-0.115351
H65	H	1.340736	-0.840414	-0.145236
H66	H	1.130598	-0.352970	-0.414335
C67	C	1.685491	-0.351025	-0.839512
C68	C	1.636596	-0.318689	-0.916556
H69	H	1.734712	-0.383531	-0.870378
H70	H	1.719557	-0.308848	-0.792639
H71	H	1.635362	-0.382637	-0.803281
H72	H	1.686724	-0.287072	-0.952782
H73	H	1.602529	-0.360871	-0.963447
C74	C	1.763108	-0.588143	-0.473025
C75	C	1.778807	-0.668955	-0.485184
H76	H	1.813376	-0.558991	-0.512030
H77	H	1.695905	-0.583402	-0.496779
H78	H	1.769414	-0.567226	-0.402019
H79	H	1.772493	-0.689873	-0.556189
H80	H	1.846027	-0.673700	-0.461435
C81	C	1.769517	-0.833200	-0.589876
C82	C	1.778871	-0.842253	-0.485233
H83	H	1.819796	-0.860078	-0.628910
H84	H	1.702317	-0.855491	-0.613604
H85	H	1.780112	-0.777889	-0.598081
H86	H	1.768268	-0.897565	-0.477027
H87	H	1.846087	-0.819966	-0.461497
C88	C	1.369181	-0.620087	-0.055450
C89	C	1.319534	-0.679365	-0.128806
H90	H	1.318888	-0.593214	-0.016431
H91	H	1.409024	-0.644139	-0.010479
H92	H	1.413287	-0.582698	-0.089696
H93	H	1.275433	-0.716757	-0.094560
H94	H	1.279673	-0.655312	-0.173783
H95	H	1.414686	-0.565155	-0.202673
C96	C	1.421661	-0.176785	-0.768108
C97	C	1.421119	-0.176376	-0.875467
H98	H	1.372437	-0.144279	-0.737249
H99	H	1.404359	-0.230064	-0.752457
H100	H	1.488553	-0.156274	-0.741808
H101	H	1.354228	-0.196892	-0.901768
H102	H	1.438415	-0.123086	-0.891126
H103	H	1.656877	-0.332176	-0.726575
H104	H	0.953561	-0.317994	-0.373415
C105	C	1.212056	-0.219040	-0.145904
C106	C	1.158729	-0.186708	-0.219820
H107	H	1.242923	-0.177025	-0.096753
H108	H	1.165112	-0.254643	-0.111772
H109	H	1.264311	-0.247367	-0.179059
H110	H	1.106469	-0.158386	-0.186666
H111	H	1.205677	-0.151091	-0.253955
