data_functionalizedCrystal
_audit_creation_method	'MofGen! by Chris Wilmer'
_symmetry_space_group_name_H-M	'P1'
_symmetry_Int_Tables_number	1
_symmetry_cell_setting	triclinic
loop_
_symmetry_equiv_pos_as_xyz
  x,y,z
_cell_length_a	12.759395
_cell_length_b	19.121063
_cell_length_c	19.120904
_cell_angle_alpha	94.741613
_cell_angle_beta	92.425096
_cell_angle_gamma	92.470426
loop_
_atom_site_label
_atom_site_type_symbol
_atom_site_fract_x
_atom_site_fract_y
_atom_site_fract_z
Zn1	Zn	1.561004	-0.297081	-0.409726
Zn2	Zn	1.560874	-0.409728	-0.297077
Zn3	Zn	1.393148	-0.292085	-0.292083
Zn4	Zn	1.377431	-0.414711	-0.414702
O5	O	1.473114	-0.353401	-0.353397
O6	O	1.708007	-0.312029	-0.394790
O7	O	1.545148	-0.389946	-0.197954
O8	O	1.422046	-0.194285	-0.303517
O9	O	1.707912	-0.394790	-0.312027
O10	O	1.545370	-0.197955	-0.389948
O11	O	1.421920	-0.303514	-0.194285
O12	O	1.244042	-0.308346	-0.308342
O13	O	1.395259	-0.403284	-0.512503
O14	O	1.232495	-0.398440	-0.398430
O15	O	1.530130	-0.316861	-0.508846
O16	O	1.529908	-0.508852	-0.316852
O17	O	1.395133	-0.512513	-0.403271
C18	C	1.200148	-0.353392	-0.353384
C19	C	1.083370	-0.353406	-0.353397
C20	C	1.071384	-0.447359	-0.447065
C21	C	1.010530	-0.494342	-0.493902
C22	C	0.900807	-0.494351	-0.493911
C23	C	0.851937	-0.447371	-0.447080
C24	C	0.912791	-0.400388	-0.400243
C25	C	1.022515	-0.400386	-0.400238
C26	C	0.924776	-0.306433	-0.306579
C27	C	1.034499	-0.306426	-0.306565
C28	C	0.875906	-0.259453	-0.259748
C29	C	0.936760	-0.212473	-0.212906
C30	C	1.046489	-0.212466	-0.212899
C31	C	1.095353	-0.259444	-0.259729
C32	C	1.460828	-0.536213	-0.361159
C33	C	1.455667	-0.614422	-0.364503
C34	C	1.523462	-0.649237	-0.321117
C35	C	1.518614	-0.722723	-0.324267
C36	C	1.445964	-0.761392	-0.370798
C37	C	1.378166	-0.726573	-0.414189
C38	C	1.383020	-0.653089	-0.411042
C39	C	1.427799	-0.983364	-0.382550
C40	C	1.422948	-1.056854	-0.385692
C41	C	1.563398	-1.052998	-0.295770
C42	C	1.568241	-0.979513	-0.292625
C43	C	1.500447	-0.944700	-0.336018
C44	C	1.441005	-0.836507	-0.374017
C45	C	1.505412	-0.869587	-0.332803
C46	C	1.747146	-0.353411	-0.353410
C47	C	1.863922	-0.353415	-0.353415
C48	C	1.460956	-0.361186	-0.536918
C49	C	1.455774	-0.364503	-0.615124
C50	C	1.485476	-0.169876	-0.345620
C51	C	1.490743	-0.091668	-0.342306
C52	C	1.523556	-0.321068	-0.649963
C53	C	1.518675	-0.324182	-0.723445
C54	C	1.446017	-0.370736	-0.762088
C55	C	1.378227	-0.414173	-0.727244
C56	C	1.383104	-0.411054	-0.653762
C57	C	1.427775	-0.382399	-0.984049
C58	C	1.422905	-0.385516	-1.057535
C59	C	1.563353	-0.295524	-1.053731
C60	C	1.568227	-0.292413	-0.980249
C61	C	1.500434	-0.335847	-0.945411
C62	C	1.441028	-0.373922	-0.837199
C63	C	1.505418	-0.332657	-0.870302
C64	C	1.485289	-0.345596	-0.170588
C65	C	1.490687	-0.342081	-0.092374
H66	H	1.096031	-0.174203	-0.174763
O67	O	0.841640	-0.539889	-0.539478
C68	C	0.777833	-0.501833	-0.583280
H69	H	0.814334	-0.446612	-0.585369
H70	H	0.771289	-0.529665	-0.638469
H71	H	0.696282	-0.498451	-0.561425
H72	H	1.319018	-0.758064	-0.452079
H73	H	1.184694	-0.259445	-0.259725
O74	O	1.575858	-0.287397	-0.832690
C75	C	1.521921	-0.240134	-0.788269
H76	H	1.441358	-0.264478	-0.778310
H77	H	1.568773	-0.228517	-0.736199
H78	H	1.512018	-0.189191	-0.814377
O79	O	1.361971	-0.949638	-0.424794
C80	C	1.379023	-0.970516	-0.495702
H81	H	1.415800	-1.023906	-0.499466
H82	H	1.300899	-0.974406	-0.527308
H83	H	1.434157	-0.930121	-0.517668
O84	O	0.745361	-0.447371	-0.446961
C85	C	0.711943	-0.462489	-0.380268
H86	H	0.778658	-0.448683	-0.339242
H87	H	0.641495	-0.430205	-0.366474
H88	H	0.688653	-0.520802	-0.381159
H89	H	0.786563	-0.259461	-0.259761
O90	O	1.317059	-0.619377	-0.453216
C91	C	1.251915	-0.669264	-0.494975
H92	H	1.246751	-0.720437	-0.468394
H93	H	1.170037	-0.648389	-0.501533
H94	H	1.286278	-0.679306	-0.548764
H95	H	1.627396	-0.254506	-0.948791
O96	O	1.575837	-0.831992	-0.287526
C97	C	1.521882	-0.787597	-0.240248
H98	H	1.437967	-0.809609	-0.236807
H99	H	1.563579	-0.784461	-0.186084
H100	H	1.520469	-0.732822	-0.259622
O101	O	1.370596	-0.419221	-0.874774
C102	C	1.424533	-0.466454	-0.919226
H103	H	1.508453	-0.469867	-0.897271
H104	H	1.382831	-0.520637	-0.922361
H105	H	1.425928	-0.447052	-0.973991
O106	O	1.584631	-0.281965	-0.757178
C107	C	1.649795	-0.240199	-0.707314
H108	H	1.654963	-0.266799	-0.656156
H109	H	1.731669	-0.233602	-0.728235
H110	H	1.615447	-0.186425	-0.697230
O111	O	1.352515	-1.094500	-0.430934
C112	C	1.406466	-1.138873	-0.478234
H113	H	1.487031	-1.148791	-0.453931
H114	H	1.359628	-1.190969	-0.489845
H115	H	1.416365	-1.112743	-0.529173
O116	O	0.889120	-0.166909	-0.167445
C117	C	0.779228	-0.176975	-0.177513
H118	H	0.759080	-0.232287	-0.202775
H119	H	0.741323	-0.169885	-0.124618
H120	H	0.748419	-0.136893	-0.213287
H121	H	1.627398	-0.948029	-0.254736
O122	O	1.177956	-0.447431	-0.447162
C123	C	1.208041	-0.498985	-0.498520
H124	H	1.141440	-0.510650	-0.540043
H125	H	1.281117	-0.478936	-0.524345
H126	H	1.225896	-0.549058	-0.472703
O127	O	1.317377	-0.453355	-0.619949
C128	C	1.334414	-0.524244	-0.640890
H129	H	1.416762	-0.528651	-0.661255
H130	H	1.326245	-0.556953	-0.594035
H131	H	1.274013	-0.544450	-0.684311
O132	O	1.370291	-0.873991	-0.419176
C133	C	1.267799	-0.855464	-0.402959
H134	H	1.270964	-0.800975	-0.373627
H135	H	1.217427	-0.855111	-0.453603
H136	H	1.232127	-0.895324	-0.368534
H137	H	1.618545	-0.260161	-1.082104
O138	O	1.629216	-1.086928	-0.253701
C139	C	1.609344	-1.160079	-0.266443
H140	H	1.570599	-1.172414	-0.321148
H141	H	1.686521	-1.187760	-0.262920
H142	H	1.554845	-1.179215	-0.225565
H143	H	1.582616	-0.617757	-0.283223
O144	O	1.584512	-0.756430	-0.282049
C145	C	1.649686	-0.706542	-0.240313
H146	H	1.610274	-0.654082	-0.235612
H147	H	1.663225	-0.725441	-0.185793
H148	H	1.728261	-0.699763	-0.265785
H149	H	1.582726	-0.283161	-0.618505
O150	O	1.307502	-0.459319	-0.764743
C151	C	1.205019	-0.443187	-0.746114
H152	H	1.204840	-0.386118	-0.723536
H153	H	1.149500	-0.451299	-0.794690
H154	H	1.177847	-0.479097	-0.705055
H155	H	1.363734	-0.423427	-1.088996
O156	O	1.361866	-0.424652	-0.950325
C157	C	1.296669	-0.466391	-1.000191
H158	H	1.336077	-0.471066	-1.052672
H159	H	1.283104	-0.520923	-0.981302
H160	H	1.218109	-0.440937	-1.006920
H161	H	1.050333	-0.532591	-0.532032
