data_functionalizedCrystal
_audit_creation_method	'MofGen! by Chris Wilmer'
_symmetry_space_group_name_H-M	'P1'
_symmetry_Int_Tables_number	1
_symmetry_cell_setting	triclinic
loop_
_symmetry_equiv_pos_as_xyz
  x,y,z
_cell_length_a	14.044209
_cell_length_b	9.130313
_cell_length_c	10.654550
_cell_angle_alpha	89.996249
_cell_angle_beta	88.836442
_cell_angle_gamma	90.002757
loop_
_atom_site_label
_atom_site_type_symbol
_atom_site_fract_x
_atom_site_fract_y
_atom_site_fract_z
O1	O	-1.259697	0.121622	-0.302971
O2	O	-0.759697	0.621622	0.197029
O3	O	-0.983656	0.121663	-0.292041
O4	O	-0.483656	0.621663	0.207959
O5	O	-1.128024	0.121632	-0.115405
O6	O	-0.628024	0.621632	0.384595
O7	O	-1.115330	0.121653	-0.479608
O8	O	-0.615330	0.621653	0.020392
O9	O	-1.128015	-0.121966	-0.115400
O10	O	-0.628015	0.378034	0.384600
O11	O	-0.983648	-0.121935	-0.292037
O12	O	-0.483648	0.378065	0.207963
O13	O	-1.259689	-0.121977	-0.302967
O14	O	-0.759689	0.378023	0.197033
Cu15	Cu	-1.121668	-0.144199	-0.297501
Cu16	Cu	-0.621668	0.355801	0.202499
Cu17	Cu	-1.121678	0.143885	-0.297507
Cu18	Cu	-0.621678	0.643885	0.202493
O19	O	-1.115322	-0.121946	-0.479603
O20	O	-0.615322	0.378054	0.020397
C21	C	-0.948306	-0.000131	-0.287253
C22	C	-0.448306	0.499869	0.212747
C23	C	-0.842986	-0.000115	-0.272979
C24	C	-0.342986	0.499885	0.227021
N25	N	-1.121668	-0.346821	-0.297498
N26	N	-0.621668	0.153179	0.202502
C27	C	-1.185620	-0.576834	-0.219318
C28	C	-0.685620	-0.076834	0.280682
C29	C	-1.185614	-0.423497	-0.219319
C30	C	-0.685614	0.076503	0.280681
C31	C	-1.057730	-0.423491	-0.375690
C32	C	-0.557730	0.076509	0.124310
C33	C	-1.057741	-0.576825	-0.375695
C34	C	-0.557741	-0.076825	0.124305
C35	C	-0.650153	-0.000142	-0.246882
C36	C	-0.150153	0.499858	0.253118
C37	C	-0.593186	-0.000142	-0.348131
C38	C	-0.093186	0.499858	0.151869
C39	C	-0.485887	-0.000157	-0.333610
C40	C	0.014113	0.499843	0.166390
C41	C	-0.757462	-0.000127	-0.261401
C42	C	-0.257462	0.499873	0.238599
C43	C	-0.295039	-0.000176	-0.307757
C44	C	0.204961	0.499824	0.192243
C45	C	-0.400358	-0.000169	-0.322040
C46	C	0.099642	0.499831	0.177960
C47	C	-1.127087	-0.000166	-0.068511
C48	C	-0.627087	0.499834	0.431489
C49	C	-1.124299	-0.000163	0.071213
C50	C	-0.624299	0.499837	0.571213
N51	N	-1.121685	0.346508	-0.297501
N52	N	-0.621685	0.846508	0.202499
C53	C	-1.116258	-0.000144	-0.526497
C54	C	-0.616258	0.499856	-0.026497
C55	C	-1.119047	-0.000137	-0.666221
C56	C	-0.619047	0.499863	-0.166221
C57	C	-1.209300	-0.000176	0.142157
C58	C	-0.709300	0.499824	0.642157
C59	C	-1.206674	-0.000157	0.273442
C60	C	-0.706674	0.499843	0.773442
C61	C	-1.034039	-0.000121	0.262825
C62	C	-0.534039	0.499879	0.762825
C63	C	-1.036666	-0.000128	0.131543
C64	C	-0.536666	0.499872	0.631543
H65	H	-1.237689	-0.639253	-0.155650
H66	H	-0.737689	-0.139253	0.344350
H67	H	-0.967443	-0.000114	0.073777
H68	H	-0.467443	0.499886	0.573777
O69	O	-0.608018	-0.000145	-0.117624
O70	O	-0.108018	0.499855	0.382376
H71	H	-0.632009	-0.099435	-0.065853
H72	H	-0.132009	0.400565	0.434147
H73	H	-0.624998	-0.000130	-0.445718
H74	H	-0.124998	0.499870	0.054282
O75	O	-1.298356	-0.000192	0.349959
O76	O	-0.798356	0.499808	0.849959
H77	H	-1.340266	0.099071	0.327288
H78	H	-0.840266	0.599071	0.827288
O79	O	-1.303814	-0.000183	0.077080
O80	O	-0.803814	0.499817	0.577080
H81	H	-1.362478	-0.000170	0.148474
H82	H	-0.862478	0.499830	0.648474
H83	H	-0.962690	-0.000095	0.311962
H84	H	-0.462690	0.499905	0.811962
H85	H	-1.005677	-0.639244	-0.439367
H86	H	-0.505677	-0.139244	0.060633
H87	H	-1.237677	-0.361086	-0.155656
H88	H	-0.737677	0.138914	0.344344
H89	H	-1.005667	-0.361053	-0.439352
H90	H	-0.505667	0.138947	0.060648
