data_functionalizedCrystal
_audit_creation_method	'MofGen! by Chris Wilmer'
_symmetry_space_group_name_H-M	'P1'
_symmetry_Int_Tables_number	1
_symmetry_cell_setting	triclinic
loop_
_symmetry_equiv_pos_as_xyz
  x,y,z
_cell_length_a	14.519709
_cell_length_b	15.944493
_cell_length_c	15.021413
_cell_angle_alpha	89.997322
_cell_angle_beta	90.000611
_cell_angle_gamma	83.577594
loop_
_atom_site_label
_atom_site_type_symbol
_atom_site_fract_x
_atom_site_fract_y
_atom_site_fract_z
O1	O	1.223650	0.110115	-0.073904
O2	O	1.556983	0.443448	0.259429
O3	O	1.890317	0.776782	0.592763
O4	O	0.955147	0.123082	-0.073930
O5	O	1.288481	0.456415	0.259403
O6	O	1.621814	0.789749	0.592737
O7	O	1.096759	-0.005669	-0.073924
O8	O	1.430092	0.327664	0.259410
O9	O	1.763425	0.660998	0.592743
O10	O	1.082039	0.238866	-0.073910
O11	O	1.415372	0.572199	0.259423
O12	O	1.748705	0.905533	0.592756
O13	O	1.096746	-0.005682	0.074140
O14	O	1.430080	0.327651	0.407474
O15	O	1.763413	0.660985	0.740807
O16	O	0.955135	0.123069	0.074134
O17	O	1.288468	0.456402	0.407468
O18	O	1.621802	0.789736	0.740801
O19	O	1.223637	0.110102	0.074160
O20	O	1.556971	0.443435	0.407493
O21	O	1.890304	0.776769	0.740827
Zn22	Zn	1.089384	0.116583	0.097656
Zn23	Zn	1.422717	0.449917	0.430989
Zn24	Zn	1.756051	0.783250	0.764322
Zn25	Zn	1.089401	0.116601	-0.097425
Zn26	Zn	1.422734	0.449934	0.235908
Zn27	Zn	1.756067	0.783267	0.569241
O28	O	1.082026	0.238853	0.074154
O29	O	1.415359	0.572186	0.407487
O30	O	1.748693	0.905519	0.740821
C31	C	0.920783	0.122471	0.000099
C32	C	1.254116	0.455804	0.333432
C33	C	1.587449	0.789138	0.666765
C34	C	0.818405	0.120660	0.000088
C35	C	1.151738	0.453994	0.333422
C36	C	1.485072	0.787327	0.666755
C37	C	1.096151	-0.036971	0.000104
C38	C	1.429484	0.296362	0.333438
C39	C	1.762817	0.629695	0.666771
C40	C	1.094347	-0.130222	0.000093
C41	C	1.427680	0.203111	0.333426
C42	C	1.761014	0.536444	0.666760
C43	C	0.443522	0.113993	0.000128
C44	C	0.776856	0.447327	0.333462
C45	C	1.110189	0.780660	0.666795
C46	C	0.547826	0.115845	0.000117
C47	C	0.881160	0.449178	0.333450
C48	C	1.214493	0.782511	0.666784
C49	C	0.630960	0.117327	0.000107
C50	C	0.964294	0.450660	0.333441
C51	C	1.297627	0.783993	0.666774
C52	C	0.735271	0.119178	0.000098
C53	C	1.068604	0.452512	0.333431
C54	C	1.401938	0.785845	0.666764
C55	C	1.177703	-0.365861	0.000118
C56	C	1.511036	-0.032528	0.333451
C57	C	1.844369	0.300805	0.666785
C58	C	1.132758	-0.416488	-0.072889
C59	C	1.466092	-0.083155	0.260444
C60	C	1.799425	0.250179	0.593777
C61	C	1.091005	-0.300948	0.000104
C62	C	1.424338	0.032385	0.333437
C63	C	1.757672	0.365718	0.666770
C64	C	1.132726	-0.416477	0.073090
C65	C	1.466059	-0.083144	0.406424
C66	C	1.799392	0.250189	0.739757
C67	C	1.087783	-0.465863	0.000118
C68	C	1.421116	-0.132529	0.333451
C69	C	1.754450	0.200804	0.666784
C70	C	1.046084	-0.350347	-0.072964
C71	C	1.379417	-0.017013	0.260369
C72	C	1.712750	0.316320	0.593703
C73	C	1.046064	-0.350333	0.073081
C74	C	1.379397	-0.016999	0.406415
C75	C	1.712731	0.316334	0.739748
C76	C	1.001056	-0.400926	0.000056
C77	C	1.334389	-0.067593	0.333390
C78	C	1.667723	0.265740	0.666723
C79	C	1.092863	-0.205946	0.000095
C80	C	1.426197	0.127388	0.333428
C81	C	1.759530	0.460721	0.666761
C82	C	1.085918	-0.560862	0.000120
C83	C	1.419251	-0.227529	0.333454
C84	C	1.752584	0.105804	0.666787
C85	C	1.258002	0.110713	0.000129
C86	C	1.591336	0.444046	0.333463
C87	C	1.924669	0.777379	0.666796
C88	C	1.360380	0.112524	0.000134
C89	C	1.693713	0.445857	0.333467
C90	C	2.027047	0.779190	0.666801
C91	C	1.082634	0.270155	0.000124
C92	C	1.415967	0.603488	0.333457
C93	C	1.749301	0.936822	0.666790
C94	C	1.084438	0.363406	0.000129
C95	C	1.417771	0.696740	0.333463
C96	C	1.751104	1.030073	0.666796
N97	N	1.089380	0.116571	0.230793
N98	N	1.422713	0.449904	0.564126
N99	N	1.756046	0.783237	0.897460
N100	N	1.089412	0.116606	-0.230563
N101	N	1.422746	0.449940	0.102770
N102	N	1.756079	0.783273	0.436104
C103	C	1.154371	0.056562	0.529787
C104	C	1.487704	0.389895	0.863120
C105	C	1.821037	0.723229	1.196454
C106	C	1.173004	0.132262	0.470427
C107	C	1.506337	0.465595	0.803760
C108	C	1.839671	0.798928	1.137093
C109	C	1.089402	0.116596	0.587830
C110	C	1.422735	0.449930	0.921163
C111	C	1.756068	0.783263	1.254497
C112	C	1.070801	0.040886	0.470449
C113	C	1.404134	0.374220	0.803782
C114	C	1.737468	0.707553	1.137115
C115	C	1.089393	0.116580	0.412406
C116	C	1.422727	0.449913	0.745739
C117	C	1.756060	0.783246	1.079073
C118	C	1.108077	0.192334	0.529776
C119	C	1.441410	0.525667	0.863109
C120	C	1.774743	0.859001	1.196443
C121	C	1.005837	0.100909	0.529803
C122	C	1.339170	0.434242	0.863137
C123	C	1.672504	0.767576	1.196470
C124	C	1.024435	0.176663	0.470470
C125	C	1.357769	0.509997	0.803803
C126	C	1.691102	0.843330	1.137136
C127	C	1.089409	0.116605	0.688887
C128	C	1.422742	0.449938	1.022221
C129	C	1.756075	0.783271	1.355554
C130	C	1.089386	0.116580	0.311351
C131	C	1.422719	0.449913	0.644684
C132	C	1.756052	0.783247	0.978017
H133	H	1.252382	-0.350125	0.000052
H134	H	1.585715	-0.016791	0.333385
H135	H	1.919049	0.316542	0.666718
H136	H	1.169352	-0.445361	0.134808
H137	H	1.502686	-0.112027	0.468142
H138	H	1.836019	0.221306	0.801475
H139	H	1.169377	-0.445375	-0.134605
H140	H	1.502710	-0.112042	0.198728
H141	H	1.836044	0.221292	0.532061
Cl142	Cl	0.989599	-0.305931	-0.168363
Cl143	Cl	1.322932	0.027403	0.164970
Cl144	Cl	1.656266	0.360736	0.498303
H145	H	1.123882	0.256369	0.555727
H146	H	1.457216	0.589703	0.889061
H147	H	1.790549	0.923036	1.222394
Cl148	Cl	0.939600	0.255117	0.430504
Cl149	Cl	1.272934	0.588451	0.763837
Cl150	Cl	1.606267	0.921784	1.097170
H151	H	0.926319	-0.416501	0.000009
H152	H	1.259652	-0.083168	0.333342
H153	H	1.592985	0.250166	0.666676
Cl154	Cl	0.989595	-0.305686	0.168371
Cl155	Cl	1.322928	0.027647	0.501704
Cl156	Cl	1.656262	0.360980	0.835038
H157	H	1.055071	-0.023133	0.444387
H158	H	1.388405	0.310200	0.777721
H159	H	1.721738	0.643533	1.111054
H160	H	1.209353	0.005857	0.555831
H161	H	1.542687	0.339190	0.889164
H162	H	1.876020	0.672524	1.222498
Cl163	Cl	0.896768	0.080388	0.570105
Cl164	Cl	1.230101	0.413722	0.903438
Cl165	Cl	1.563435	0.747055	1.236771
Cl166	Cl	1.282099	0.152733	0.430134
Cl167	Cl	1.615433	0.486066	0.763467
Cl168	Cl	1.948766	0.819399	1.096800
