data_functionalizedCrystal
_audit_creation_method	'MofGen! by Chris Wilmer'
_symmetry_space_group_name_H-M	'P1'
_symmetry_Int_Tables_number	1
_symmetry_cell_setting	triclinic
loop_
_symmetry_equiv_pos_as_xyz
  x,y,z
_cell_length_a	17.699083
_cell_length_b	15.995350
_cell_length_c	16.776229
_cell_angle_alpha	89.995580
_cell_angle_beta	89.998886
_cell_angle_gamma	83.387695
loop_
_atom_site_label
_atom_site_type_symbol
_atom_site_fract_x
_atom_site_fract_y
_atom_site_fract_z
O1	O	1.004255	0.105885	-0.066173
O2	O	0.783899	0.119661	-0.066198
O3	O	0.900100	-0.009127	-0.066184
O4	O	0.888053	0.234673	-0.066187
O5	O	0.900085	-0.009135	0.066393
O6	O	0.783884	0.119653	0.066378
O7	O	1.004239	0.105877	0.066404
Zn8	Zn	0.894059	0.112764	0.087441
Zn9	Zn	0.894079	0.112774	-0.087235
O10	O	0.888038	0.234665	0.066390
C11	C	0.755694	0.119163	0.000087
C12	C	0.671673	0.117683	0.000077
C13	C	0.623178	0.193278	0.000076
C14	C	0.544232	0.191882	0.000087
C15	C	0.513783	0.114889	0.000092
C16	C	0.562285	0.039287	0.000095
C17	C	0.641229	0.040685	0.000090
C18	C	0.243912	0.033651	0.000115
C19	C	0.164962	0.032259	0.000117
C20	C	0.146916	0.184848	0.000111
C21	C	0.225860	0.186245	0.000106
C22	C	0.274354	0.110644	0.000114
C23	C	0.359956	0.112159	0.000104
C24	C	0.428183	0.113373	0.000096
C25	C	0.899595	-0.040324	0.000103
C26	C	0.898101	-0.133272	0.000098
C27	C	0.892739	-0.471008	0.000100
C28	C	0.809983	-0.423406	-0.000207
C29	C	0.811476	-0.326719	0.000092
C30	C	0.895399	-0.303453	0.000099
C31	C	0.936209	-0.344618	0.075810
C32	C	0.934130	-0.441250	0.075873
C33	C	0.935857	-0.441602	-0.074891
C34	C	0.935837	-0.344657	-0.075892
C35	C	0.896907	-0.208759	0.000101
C36	C	0.891234	-0.565703	0.000104
C37	C	1.032445	0.106375	0.000117
C38	C	1.116465	0.107856	0.000122
C39	C	0.888544	0.265863	0.000101
C40	C	0.890037	0.358810	0.000101
N41	N	0.894051	0.112756	0.206652
N42	N	0.894094	0.112775	-0.206446
C43	C	0.945520	0.055752	0.248375
C44	C	0.945524	0.055752	0.331827
C45	C	0.894062	0.112760	0.373555
C46	C	0.842587	0.169766	0.331825
C47	C	0.842580	0.169762	0.248375
C48	C	0.842614	0.169783	0.668373
C49	C	0.842627	0.169784	0.751829
C50	C	0.945559	0.055772	0.751825
C51	C	0.945552	0.055768	0.668375
C52	C	0.894074	0.112771	0.626653
C53	C	0.894069	0.112770	0.536164
C54	C	0.894070	0.112765	0.464041
H55	H	0.647962	0.255975	0.000071
H56	H	0.997864	-0.330618	0.078630
N57	N	0.529448	-0.043757	0.000113
H58	H	0.472078	-0.033173	0.000116
H59	H	0.547187	-0.076833	-0.049031
H60	H	0.800681	0.216180	0.365805
N61	N	1.001050	-0.005728	0.623372
H62	H	0.993235	0.002918	0.564175
H63	H	1.054743	0.003864	0.637947
N64	N	0.258691	0.269292	0.000103
H65	H	0.291045	0.273270	0.049247
H66	H	0.291003	0.273230	-0.049078
N67	N	0.768693	-0.289721	0.072102
H68	H	0.769485	-0.226687	0.072595
H69	H	0.714324	-0.303022	0.069726
N70	N	0.896368	-0.308403	-0.150081
H71	H	0.933587	-0.280429	-0.183700
H72	H	0.876591	-0.355053	-0.181649
H73	H	0.776912	-0.441867	-0.054501
N74	N	0.132115	-0.050785	0.000137
H75	H	0.099762	-0.054768	-0.049007
H76	H	0.174853	-0.098420	0.000175
N77	N	0.894696	-0.465426	0.150830
H78	H	0.878823	-0.413334	0.183520
H79	H	0.848244	-0.493283	0.136092
N80	N	0.898642	-0.306967	0.150437
H81	H	0.925303	-0.333864	0.198831
H82	H	0.902006	-0.244369	0.151227
H83	H	0.987473	0.009354	0.785804
N84	N	0.491926	0.273417	0.000176
H85	H	0.523194	0.322403	0.000196
H86	H	0.458732	0.276226	-0.048939
N87	N	0.787114	0.231269	0.796838
H88	H	0.754499	0.267377	0.757745
H89	H	0.753669	0.199250	0.831470
N90	N	1.001021	-0.005732	0.203362
H91	H	1.054738	0.003832	0.217874
H92	H	0.992241	-0.065120	0.217908
H93	H	0.987434	0.009334	0.365798
N94	N	1.014609	-0.484126	0.080451
H95	H	1.020725	-0.520018	0.130078
H96	H	1.025699	-0.520811	0.031892
N97	N	0.693538	-0.040850	0.000097
H98	H	0.662272	-0.089838	0.000101
H99	H	0.726687	-0.043595	-0.049050
H100	H	0.908806	-0.462084	-0.132275
N101	N	0.787091	0.231257	0.623379
H102	H	0.754494	0.267371	0.662478
H103	H	0.816052	0.268236	0.588741
N104	N	1.016906	-0.324481	-0.081947
H105	H	1.028622	-0.288184	-0.035306
H106	H	1.052607	-0.378492	-0.081294
N107	N	0.787062	0.231240	0.203369
H108	H	0.754462	0.267356	0.242464
H109	H	0.816028	0.268217	0.168734
H110	H	0.777046	-0.442936	0.053777
H111	H	0.107421	0.246406	0.000109
N112	N	0.768988	-0.288980	-0.071801
H113	H	0.804441	-0.258972	-0.105871
H114	H	0.749125	-0.335194	-0.103905
H115	H	0.283388	-0.027909	0.000121
H116	H	0.996873	-0.473487	-0.075395
