data_functionalizedCrystal
_audit_creation_method	'MofGen! by Chris Wilmer'
_symmetry_space_group_name_H-M	'P1'
_symmetry_Int_Tables_number	1
_symmetry_cell_setting	triclinic
loop_
_symmetry_equiv_pos_as_xyz
  x,y,z
_cell_length_a	16.109301
_cell_length_b	16.992695
_cell_length_c	15.186229
_cell_angle_alpha	89.995943
_cell_angle_beta	89.999362
_cell_angle_gamma	87.064852
loop_
_atom_site_label
_atom_site_type_symbol
_atom_site_fract_x
_atom_site_fract_y
_atom_site_fract_z
O1	O	1.109856	0.100784	-0.073174
O2	O	0.868631	0.113326	-0.073188
O3	O	0.988276	-0.007088	-0.073174
O4	O	0.990210	0.221197	-0.073188
O5	O	0.988268	-0.007089	0.073284
O6	O	0.868622	0.113324	0.073270
O7	O	1.109847	0.100782	0.073284
Zn8	Zn	0.989233	0.107053	0.096530
Zn9	Zn	0.989245	0.107055	-0.096434
O10	O	0.990202	0.221196	0.073270
C11	C	0.837618	0.112817	0.000039
C12	C	0.745221	0.111294	0.000034
C13	C	0.527480	0.179203	0.000040
C14	C	0.440664	0.177766	0.000046
C15	C	0.451005	0.034899	0.000051
C16	C	0.537819	0.036337	0.000051
C17	C	0.576055	0.108492	0.000042
C18	C	0.402424	0.105616	0.000047
C19	C	0.308294	0.104057	0.000053
C20	C	0.670191	0.110051	0.000037
C21	C	0.985784	-0.036300	0.000055
C22	C	0.978361	-0.123343	0.000054
C23	C	1.049987	-0.173601	0.000059
C24	C	1.043007	-0.255386	0.000050
C25	C	0.964400	-0.286911	0.000043
C26	C	0.892768	-0.236645	0.000035
C27	C	0.899749	-0.154862	0.000038
C28	C	0.935467	-0.530501	0.000029
C29	C	0.928491	-0.612291	0.000029
C30	C	1.078731	-0.631026	0.000043
C31	C	1.085704	-0.549240	0.000051
C32	C	1.014073	-0.498982	0.000038
N33	N	0.957263	-0.370508	0.000037
N34	N	1.021210	-0.415387	0.000038
C35	C	1.140860	0.101291	0.000055
C36	C	1.233257	0.102814	0.000054
C37	C	0.992694	0.250408	0.000039
C38	C	1.000118	0.337451	0.000034
N39	N	0.989232	0.107051	0.228223
N40	N	0.989253	0.107051	-0.228127
C41	C	1.042231	0.053750	0.453952
C42	C	1.042234	0.053748	0.546141
C43	C	0.936247	0.160355	0.546138
C44	C	0.936241	0.160352	0.453950
C45	C	0.989238	0.107051	0.407859
C46	C	0.989246	0.107051	0.592237
C47	C	0.989249	0.107050	0.692193
C48	C	0.989235	0.107051	0.307897
H49	H	0.558608	0.237956	0.000039
H50	H	1.113997	-0.147941	0.000071
H51	H	0.864477	-0.637954	0.000037
H52	H	1.085384	0.010345	0.583667
H53	H	0.401118	0.235347	0.000046
F54	F	0.589519	-0.038928	0.000059
H55	H	0.877139	-0.489590	0.000019
F56	F	0.410304	-0.041888	0.000058
F57	F	0.809109	-0.270198	0.000017
H58	H	1.137048	-0.671954	0.000051
H59	H	1.101332	-0.296304	0.000056
H60	H	1.149714	-0.523580	0.000057
F61	F	0.823515	-0.101373	0.000029
F62	F	1.098633	-0.002981	0.404902
H63	H	0.893100	0.203753	0.583674
F64	F	0.879832	0.217082	0.404891
