data_functionalizedCrystal
_audit_creation_method	'MofGen! by Chris Wilmer'
_symmetry_space_group_name_H-M	'P1'
_symmetry_Int_Tables_number	1
_symmetry_cell_setting	triclinic
loop_
_symmetry_equiv_pos_as_xyz
  x,y,z
_cell_length_a	18.215407
_cell_length_b	25.639239
_cell_length_c	18.215399
_cell_angle_alpha	90.030035
_cell_angle_beta	90.019833
_cell_angle_gamma	90.039134
loop_
_atom_site_label
_atom_site_type_symbol
_atom_site_fract_x
_atom_site_fract_y
_atom_site_fract_z
Zn1	Zn	1.125001	-0.208150	0.416105
Zn2	Zn	1.458335	0.125183	0.749439
Zn3	Zn	1.791668	0.458517	1.082772
Zn4	Zn	1.124880	-0.295586	0.293034
Zn5	Zn	1.458213	0.037747	0.626368
Zn6	Zn	1.791547	0.371081	0.959701
Zn7	Zn	1.001934	-0.208167	0.293053
Zn8	Zn	1.335267	0.125166	0.626386
Zn9	Zn	1.668601	0.458500	0.959719
Zn10	Zn	1.001870	-0.295557	0.416059
Zn11	Zn	1.335204	0.037777	0.749393
Zn12	Zn	1.668537	0.371110	1.082726
O13	O	1.063421	-0.251865	0.354563
O14	O	1.396755	0.081468	0.687896
O15	O	1.730088	0.414802	1.021230
O16	O	1.227970	-0.219754	0.399791
O17	O	1.561303	0.113580	0.733125
O18	O	1.894636	0.446913	1.066458
O19	O	1.108547	-0.284009	0.190052
O20	O	1.441880	0.049324	0.523386
O21	O	1.775214	0.382658	0.856719
O22	O	1.018337	-0.135000	0.309403
O23	O	1.351670	0.198334	0.642736
O24	O	1.685003	0.531667	0.976069
O25	O	1.227880	-0.283992	0.309372
O26	O	1.561214	0.049341	0.642705
O27	O	1.894547	0.382674	0.976038
O28	O	1.108754	-0.134987	0.399809
O29	O	1.442087	0.198346	0.733142
O30	O	1.775420	0.531680	1.066475
O31	O	1.018219	-0.219783	0.190066
O32	O	1.351552	0.113551	0.523399
O33	O	1.684886	0.446884	0.856732
O34	O	0.898941	-0.219754	0.309358
O35	O	1.232275	0.113579	0.642691
O36	O	1.565608	0.446912	0.976025
O37	O	1.018228	-0.283943	0.519050
O38	O	1.351561	0.049391	0.852383
O39	O	1.684895	0.382724	1.185716
O40	O	0.898894	-0.283959	0.399731
O41	O	1.232228	0.049374	0.733064
O42	O	1.565561	0.382707	1.066397
O43	O	1.108692	-0.219725	0.519083
O44	O	1.442025	0.113608	0.852417
O45	O	1.775358	0.446941	1.185750
O46	O	1.108485	-0.368747	0.309327
O47	O	1.441819	-0.035414	0.642660
O48	O	1.775152	0.297919	0.975994
O49	O	1.018110	-0.368726	0.399713
O50	O	1.351444	-0.035393	0.733046
O51	O	1.684777	0.297941	1.066380
C52	C	0.872215	-0.251856	0.354542
C53	C	1.205548	0.081477	0.687875
C54	C	1.538882	0.414811	1.021208
C55	C	0.790416	-0.251865	0.354550
C56	C	1.123750	0.081469	0.687883
C57	C	1.457083	0.414802	1.021217
C58	C	0.602217	-0.285349	0.401548
C59	C	0.935551	0.047985	0.734881
C60	C	1.268884	0.381318	1.068215
C61	C	0.525358	-0.285350	0.401557
C62	C	0.858692	0.047983	0.734891
C63	C	1.192025	0.381316	1.068224
C64	C	0.525378	-0.218391	0.307594
C65	C	0.858711	0.114943	0.640927
C66	C	1.192044	0.448276	0.974260
C67	C	0.602235	-0.218387	0.307589
C68	C	0.935568	0.114947	0.640922
C69	C	1.268902	0.448280	0.974255
C70	C	0.640653	-0.251869	0.354565
C71	C	0.973986	0.081465	0.687898
C72	C	1.307319	0.414798	1.021232
C73	C	0.486937	-0.251874	0.354579
C74	C	0.820270	0.081459	0.687912
C75	C	1.153603	0.414792	1.021246
C76	C	0.403603	-0.251876	0.354589
C77	C	0.736936	0.081458	0.687922
C78	C	1.070270	0.414791	1.021255
C79	C	0.723992	-0.251867	0.354556
C80	C	1.057325	0.081467	0.687890
C81	C	1.390658	0.414800	1.021223
C82	C	1.063298	-0.387708	0.354529
C83	C	1.396631	-0.054374	0.687862
C84	C	1.729964	0.278959	1.021196
C85	C	1.063312	-0.445822	0.354539
C86	C	1.396645	-0.112488	0.687873
C87	C	1.729979	0.220845	1.021206
C88	C	1.110602	-0.806183	0.307579
C89	C	1.443936	-0.472850	0.640912
C90	C	1.777269	-0.139516	0.974246
C91	C	1.110631	-0.860787	0.307589
C92	C	1.443964	-0.527454	0.640922
C93	C	1.777298	-0.194121	0.974256
O94	O	1.150711	-0.889023	0.267625
O95	O	1.484044	-0.555690	0.600958
O96	O	1.817377	-0.222356	0.934291
N97	N	1.063551	-0.888104	0.354612
N98	N	1.396884	-0.554771	0.687945
N99	N	1.730217	-0.221437	1.021278
C100	C	1.016444	-0.860813	0.401633
C101	C	1.349778	-0.527480	0.734966
C102	C	1.683111	-0.194147	1.068299
O103	O	0.976402	-0.889062	0.441631
O104	O	1.309735	-0.555729	0.774964
O105	O	1.643069	-0.222395	1.108297
C106	C	1.016420	-0.806210	0.401626
C107	C	1.349753	-0.472877	0.734959
C108	C	1.683087	-0.139543	1.068293
C109	C	1.063498	-0.778896	0.354595
C110	C	1.396831	-0.445563	0.687928
C111	C	1.730165	-0.112230	1.021262
C112	C	1.157677	-0.778869	0.260553
C113	C	1.491010	-0.445536	0.593886
C114	C	1.824344	-0.112203	0.927219
C115	C	1.157647	-0.724269	0.260542
C116	C	1.490981	-0.390935	0.593875
C117	C	1.824314	-0.057602	0.927209
C118	C	1.110543	-0.696982	0.307558
C119	C	1.443876	-0.363649	0.640891
C120	C	1.777210	-0.030315	0.974225
C121	C	1.063468	-0.724296	0.354584
C122	C	1.396802	-0.390962	0.687918
C123	C	1.730135	-0.057629	1.021251
C124	C	0.969318	-0.778920	0.448650
C125	C	1.302651	-0.445587	0.781984
C126	C	1.635984	-0.112254	1.115317
C127	C	0.969298	-0.724313	0.448640
C128	C	1.302631	-0.390980	0.781973
C129	C	1.635965	-0.057647	1.115307
C130	C	1.016376	-0.697000	0.401609
C131	C	1.349709	-0.363666	0.734942
C132	C	1.683043	-0.030333	1.068276
C133	C	1.016334	-0.642408	0.401590
C134	C	1.349668	-0.309075	0.734923
C135	C	1.683001	0.024258	1.068256
N136	N	1.063414	-0.615092	0.354567
N137	N	1.396748	-0.281759	0.687900
N138	N	1.730081	0.051575	1.021234
C139	C	1.110519	-0.642379	0.307551
C140	C	1.443852	-0.309045	0.640885
C141	C	1.777185	0.024288	0.974218
C142	C	1.016500	-0.975484	0.401644
C143	C	1.349833	-0.642151	0.734977
C144	C	1.683166	-0.308817	1.068311
C145	C	1.016520	-1.030086	0.401648
C146	C	1.349853	-0.696753	0.734981
C147	C	1.683186	-0.363420	1.068314
C148	C	1.110708	-1.030057	0.307605
C149	C	1.444041	-0.696723	0.640938
C150	C	1.777374	-0.363390	0.974271
C151	C	1.110683	-0.975453	0.307598
C152	C	1.444017	-0.642120	0.640931
C153	C	1.777350	-0.308787	0.974265
C154	C	1.063580	-0.948167	0.354621
C155	C	1.396913	-0.614834	0.687955
C156	C	1.730247	-0.281501	1.021288
C157	C	1.110452	-0.527714	0.307532
C158	C	1.443786	-0.194380	0.640865
C159	C	1.777119	0.138953	0.974199
C160	C	1.110416	-0.473108	0.307523
C161	C	1.443750	-0.139775	0.640857
C162	C	1.777083	0.193558	0.974190
C163	C	1.016232	-0.473143	0.401569
C164	C	1.349565	-0.139809	0.734902
C165	C	1.682898	0.193524	1.068235
C166	C	1.016265	-0.527743	0.401575
C167	C	1.349598	-0.194410	0.734908
C168	C	1.682931	0.138923	1.068242
C169	C	1.063381	-0.555027	0.354554
C170	C	1.396714	-0.221694	0.687887
C171	C	1.730048	0.111639	1.021221
O172	O	0.976277	-0.614138	0.441536
O173	O	1.309611	-0.280805	0.774869
O174	O	1.642944	0.052528	1.108202
O175	O	1.150561	-0.614123	0.267567
O176	O	1.483894	-0.280790	0.600900
O177	O	1.817228	0.052543	0.934234
C178	C	1.255374	-0.251874	0.354584
C179	C	1.588708	0.081459	0.687918
C180	C	1.922041	0.414792	1.021251
C181	C	1.337173	-0.251878	0.354594
C182	C	1.670507	0.081455	0.687927
C183	C	2.003840	0.414788	1.021260
C184	C	1.063466	-0.251829	0.546516
C185	C	1.396800	0.081504	0.879849
C186	C	1.730133	0.414838	1.213183
C187	C	1.063485	-0.251814	0.628315
C188	C	1.396819	0.081520	0.961648
C189	C	1.730152	0.414853	1.294981
C190	C	1.063566	-0.115492	0.354613
C191	C	1.396899	0.217841	0.687946
C192	C	1.730232	0.551175	1.021279
C193	C	1.063627	-0.057378	0.354634
C194	C	1.396961	0.275956	0.687967
C195	C	1.730294	0.609289	1.021301
C196	C	1.063419	-0.251863	0.163357
C197	C	1.396752	0.081470	0.496690
C198	C	1.730086	0.414804	0.830023
C199	C	1.063543	-0.251731	0.081558
C200	C	1.396876	0.081602	0.414891
C201	C	1.730209	0.414935	0.748225
C202	C	1.110607	-0.218344	0.816528
C203	C	1.443940	0.114989	1.149861
C204	C	1.777274	0.448322	1.483194
C205	C	1.110616	-0.218329	0.893386
C206	C	1.443949	0.115004	1.226720
C207	C	1.777282	0.448338	1.560053
C208	C	1.016416	-0.285202	0.893340
C209	C	1.349749	0.048131	1.226673
C210	C	1.683083	0.381465	1.560007
C211	C	1.016404	-0.285214	0.816483
C212	C	1.349737	0.048119	1.149816
C213	C	1.683071	0.381452	1.483149
C214	C	1.063504	-0.251786	0.778078
C215	C	1.396837	0.081547	1.111412
C216	C	1.730170	0.414881	1.444745
C217	C	1.063524	-0.251759	0.931795
C218	C	1.396858	0.081575	1.265128
C219	C	1.730191	0.414908	1.598461
C220	C	1.063534	-0.251742	1.015128
C221	C	1.396867	0.081591	1.348462
C222	C	1.730200	0.414924	1.681795
C223	C	1.063494	-0.251801	0.694739
C224	C	1.396827	0.081532	1.028073
C225	C	1.730160	0.414865	1.361406
H226	H	1.148753	-0.450871	0.269223
H227	H	1.482086	-0.117538	0.602556
H228	H	1.815420	0.215796	0.935889
H229	H	0.978136	-0.953270	0.439934
H230	H	1.311470	-0.619937	0.773267
H231	H	1.644803	-0.286604	1.106601
O232	O	1.203559	-0.805296	0.214913
O233	O	1.536893	-0.471963	0.548246
O234	O	1.870226	-0.138629	0.881580
C235	C	1.276878	-0.791876	0.231098
C236	C	1.610211	-0.458542	0.564431
C237	C	1.943544	-0.125209	0.897764
H238	H	1.278327	-0.752226	0.259413
H239	H	1.611661	-0.418893	0.592746
H240	H	1.944994	-0.085559	0.926079
H241	H	1.309915	-0.789973	0.178022
H242	H	1.643248	-0.456640	0.511356
H243	H	1.976581	-0.123306	0.844689
H244	H	1.301678	-0.822575	0.268943
H245	H	1.635011	-0.489242	0.602277
H246	H	1.968344	-0.155908	0.935610
O247	O	0.487909	-0.317825	0.447171
O248	O	0.821242	0.015508	0.780505
O249	O	1.154575	0.348842	1.113838
C250	C	0.411834	-0.310659	0.437095
C251	C	0.745167	0.022674	0.770428
C252	C	1.078500	0.356007	1.103761
H253	H	0.401361	-0.270288	0.413096
H254	H	0.734694	0.063045	0.746430
H255	H	1.068028	0.396379	1.079763
H256	H	0.382646	-0.314257	0.492213
H257	H	0.715979	0.019076	0.825547
H258	H	1.049313	0.352409	1.158880
H259	H	0.389978	-0.341637	0.397828
H260	H	0.723311	-0.008303	0.731161
H261	H	1.056645	0.325030	1.064494
H262	H	1.195984	-0.702033	0.222248
H263	H	1.529318	-0.368700	0.555581
H264	H	1.862651	-0.035366	0.888914
H265	H	1.148821	-0.549922	0.269245
H266	H	1.482154	-0.216589	0.602578
H267	H	1.815487	0.116745	0.935911
O268	O	0.970748	-0.317728	0.779047
O269	O	1.304082	0.015605	1.112380
O270	O	1.637415	0.348939	1.445714
C271	C	1.012609	-0.351512	0.734596
C272	C	1.345942	-0.018179	1.067929
C273	C	1.679275	0.315154	1.401262
H274	H	1.068397	-0.333075	0.723104
H275	H	1.401731	0.000258	1.056437
H276	H	1.735064	0.333591	1.389770
H277	H	0.982619	-0.358524	0.680539
H278	H	1.315952	-0.025191	1.013872
H279	H	1.649285	0.308142	1.347205
H280	H	1.020658	-0.390256	0.764198
H281	H	1.353992	-0.056922	1.097531
H282	H	1.687325	0.276411	1.430865
H283	H	0.633495	-0.312611	0.439801
H284	H	0.966828	0.020723	0.773134
H285	H	1.300161	0.354056	1.106468
O286	O	0.970586	-0.446605	0.447318
O287	O	1.303919	-0.113272	0.780651
O288	O	1.637252	0.220061	1.113985
C289	C	1.012456	-0.414960	0.494860
C290	C	1.345790	-0.081627	0.828194
C291	C	1.679123	0.251707	1.161527
H292	H	1.070420	-0.431378	0.499457
H293	H	1.403753	-0.098044	0.832790
H294	H	1.737087	0.235289	1.166123
H295	H	0.985815	-0.414326	0.551475
H296	H	1.319148	-0.080993	0.884809
H297	H	1.652481	0.252341	1.218142
H298	H	1.014991	-0.373588	0.472095
H299	H	1.348325	-0.040255	0.805428
H300	H	1.681658	0.293079	1.138761
H301	H	1.148956	-0.191123	0.785261
H302	H	1.482290	0.142210	1.118594
H303	H	1.815623	0.475543	1.451928
O304	O	0.487943	-0.185918	0.261986
O305	O	0.821277	0.147416	0.595319
O306	O	1.154610	0.480749	0.928653
C307	C	0.411865	-0.193090	0.272077
C308	C	0.745198	0.140243	0.605410
C309	C	1.078531	0.473577	0.938744
H310	H	0.401342	-0.233462	0.296075
H311	H	0.734675	0.099871	0.629409
H312	H	1.068008	0.433204	0.962742
H313	H	0.382635	-0.189493	0.216964
H314	H	0.715968	0.143840	0.550297
H315	H	1.049301	0.477174	0.883631
H316	H	0.390098	-0.162115	0.311350
H317	H	0.723432	0.171218	0.644683
H318	H	1.056765	0.504552	0.978016
H319	H	0.633530	-0.191120	0.269329
H320	H	0.966863	0.142213	0.602663
H321	H	1.300197	0.475547	0.935996
O322	O	0.923645	-0.697784	0.494397
O323	O	1.256978	-0.364451	0.827731
O324	O	1.590312	-0.031118	1.161064
C325	C	0.965501	-0.666136	0.541949
C326	C	1.298834	-0.332803	0.875282
C327	C	1.632168	0.000530	1.208616
H328	H	1.023470	-0.682545	0.546548
H329	H	1.356803	-0.349212	0.879881
H330	H	1.690136	-0.015878	1.213214
H331	H	0.938854	-0.665512	0.598562
H332	H	1.272187	-0.332178	0.931895
H333	H	1.605521	0.001155	1.265228
H334	H	0.968025	-0.624762	0.519191
H335	H	1.301358	-0.291428	0.852524
H336	H	1.634691	0.041905	1.185858
H337	H	1.149019	-0.953218	0.269302
H338	H	1.482352	-0.619884	0.602635
H339	H	1.815685	-0.286551	0.935968
O340	O	1.156496	-1.056649	0.262054
O341	O	1.489830	-0.723316	0.595388
O342	O	1.823163	-0.389982	0.928721
C343	C	1.146433	-1.110699	0.272166
C344	C	1.479766	-0.777366	0.605500
C345	C	1.813100	-0.444033	0.938833
H346	H	1.122230	-1.118131	0.328914
H347	H	1.455563	-0.784798	0.662247
H348	H	1.788896	-0.451464	0.995580
H349	H	1.201590	-1.131398	0.267321
H350	H	1.534923	-0.798065	0.600655
H351	H	1.868256	-0.464732	0.933988
H352	H	1.107343	-1.126275	0.228442
H353	H	1.440677	-0.792942	0.561775
H354	H	1.774010	-0.459608	0.895108
O355	O	0.970759	-1.056535	0.447397
O356	O	1.304092	-0.723201	0.780730
O357	O	1.637425	-0.389868	1.114064
C358	C	0.929167	-1.020735	0.488874
C359	C	1.262500	-0.687402	0.822208
C360	C	1.595833	-0.354068	1.155541
H361	H	0.959293	-0.981789	0.491438
H362	H	1.292626	-0.648456	0.824771
H363	H	1.625959	-0.315123	1.158105
H364	H	0.921289	-1.036486	0.546855
H365	H	1.254622	-0.703153	0.880189
H366	H	1.587955	-0.369819	1.213522
H367	H	0.873287	-1.014981	0.461870
H368	H	1.206621	-0.681648	0.795204
H369	H	1.539954	-0.348314	1.128537
H370	H	0.977932	-0.549983	0.439874
H371	H	1.311266	-0.216650	0.773207
H372	H	1.644599	0.116683	1.106540
H373	H	0.930978	-0.801150	0.486945
H374	H	1.264312	-0.467817	0.820278
H375	H	1.597645	-0.134483	1.153611
H376	H	1.148971	-0.191096	0.924688
H377	H	1.482304	0.142237	1.258022
H378	H	1.815637	0.475570	1.591355
H379	H	0.978071	-0.312419	0.924618
H380	H	1.311404	0.020914	1.257951
H381	H	1.644737	0.354248	1.591285
