data_functionalizedCrystal
_audit_creation_method	'MofGen! by Chris Wilmer'
_symmetry_space_group_name_H-M	'P1'
_symmetry_Int_Tables_number	1
_symmetry_cell_setting	triclinic
loop_
_symmetry_equiv_pos_as_xyz
  x,y,z
_cell_length_a	17.038272
_cell_length_b	10.654562
_cell_length_c	9.730223
_cell_angle_alpha	90.003039
_cell_angle_beta	90.004749
_cell_angle_gamma	92.199170
loop_
_atom_site_label
_atom_site_type_symbol
_atom_site_fract_x
_atom_site_fract_y
_atom_site_fract_z
O1	O	-0.109922	1.678031	0.114361
O2	O	-0.120380	1.313526	0.114342
O3	O	-0.001324	1.493612	0.114363
O4	O	-0.228979	1.497945	0.114339
O5	O	-0.001327	1.493610	-0.114217
O6	O	-0.120383	1.313524	-0.114238
O7	O	-0.109925	1.678030	-0.114219
Zn8	Zn	-0.115155	1.495777	-0.150521
Zn9	Zn	-0.115151	1.495779	0.150643
O10	O	-0.228982	1.497943	-0.114241
C11	C	-0.119612	1.266656	0.000050
C12	C	-0.117308	1.127000	0.000043
C13	C	-0.116235	1.061368	-0.124545
C14	C	-0.114077	0.930145	-0.124522
C15	C	-0.114068	0.930197	0.124689
C16	C	-0.116221	1.061418	0.124664
C17	C	-0.116244	1.061337	-0.268425
C18	C	-0.114086	0.930114	-0.268402
C19	C	-0.258131	1.501885	0.000046
C20	C	-0.344990	1.513642	0.000038
C21	C	-0.394498	1.405698	0.000033
C22	C	-0.476110	1.416753	0.000051
C23	C	-0.508213	1.535752	0.000064
C24	C	-0.458699	1.643704	0.000073
C25	C	-0.377088	1.632648	0.000065
C26	C	-0.754190	1.574810	0.000097
C27	C	-0.835808	1.585857	0.000101
C28	C	-0.853214	1.358905	0.000082
C29	C	-0.771601	1.347860	0.000065
C30	C	-0.722093	1.455812	0.000082
C31	C	-0.591634	1.547054	0.000078
C32	C	-0.638674	1.444508	0.000078
C33	C	0.027825	1.489671	0.000079
C34	C	0.114684	1.477914	0.000096
C35	C	-0.110694	1.724900	0.000076
C36	C	-0.112997	1.864556	0.000091
N37	N	-0.115157	1.495784	-0.356057
C38	C	-0.062457	1.575550	-0.427974
C39	C	-0.062447	1.575546	-0.571857
C40	C	-0.167845	1.416006	-0.571894
C41	C	-0.167850	1.416005	-0.428014
C42	C	-0.001608	1.667663	-0.427954
C43	C	-0.001599	1.667658	-0.571837
N44	N	-0.115142	1.495781	0.356179
H45	H	-0.113183	0.876784	0.226151
C46	C	-0.043210	1.117062	-0.343050
C47	C	-0.031234	1.260444	-0.357541
C48	C	0.041798	1.316169	-0.432162
C49	C	0.102855	1.228513	-0.492291
C50	C	0.090882	1.085123	-0.477802
C51	C	0.017849	1.029397	-0.403181
H52	H	-0.076434	1.325340	-0.313028
H53	H	0.050662	1.422316	-0.442888
H54	H	0.156918	1.269764	-0.547530
H55	H	0.136081	1.020227	-0.522314
H56	H	0.008986	0.923250	-0.392455
C57	C	-0.736299	1.216950	0.000051
C58	C	-0.754723	1.124865	-0.118652
C59	C	-0.719426	0.993952	-0.118676
C60	C	-0.665706	0.955123	0.000005
C61	C	-0.647280	1.047211	0.118717
C62	C	-0.682576	1.178124	0.118741
H63	H	-0.794492	1.153606	-0.206515
H64	H	-0.733067	0.925783	-0.206555
H65	H	-0.639577	0.858213	-0.000013
H66	H	-0.607510	1.018469	0.206579
H67	H	-0.668936	1.246293	0.206620
C68	C	-0.907673	1.240164	0.000079
C69	C	-0.966162	1.216556	0.118782
C70	C	-1.020621	1.097809	0.118785
C71	C	-1.016593	1.002672	0.000085
C72	C	-0.958102	1.026278	-0.118627
C73	C	-0.903642	1.145024	-0.118630
H74	H	-0.969146	1.286984	0.206658
H75	H	-1.063920	1.080335	0.206664
H76	H	-1.056907	0.914769	0.000088
H77	H	-0.955118	0.955849	-0.206503
H78	H	-0.860344	1.162499	-0.206509
H79	H	-0.117082	1.114851	0.226116
H80	H	-0.173299	1.096209	-0.313074
C81	C	-0.187135	0.874351	-0.342985
C82	C	-0.248207	0.961977	-0.403128
C83	C	-0.321257	0.906214	-0.477693
C84	C	-0.333235	0.762825	-0.492115
C85	C	-0.272162	0.675191	-0.431970
C86	C	-0.199111	0.730954	-0.357405
H87	H	-0.239341	1.068130	-0.392454
H88	H	-0.366468	0.971088	-0.522216
H89	H	-0.387312	0.721546	-0.547312
H90	H	-0.281027	0.569038	-0.442644
H91	H	-0.153900	0.666080	-0.312881
C92	C	-0.871126	1.716762	0.000113
C93	C	-0.852733	1.808862	-0.118574
C94	C	-0.888055	1.939757	-0.118571
C95	C	-0.941770	1.978553	0.000120
C96	C	-0.960166	1.886451	0.118817
C97	C	-0.924844	1.755556	0.118813
H98	H	-0.812968	1.780145	-0.206444
H99	H	-0.874437	2.007937	-0.206438
H100	H	-0.967917	2.075449	0.000123
H101	H	-0.999931	1.915169	0.206687
H102	H	-0.938462	1.687377	0.206680
C103	C	0.075169	1.619322	-0.632101
C104	C	0.154165	1.687680	-0.598850
C105	C	0.230932	1.639344	-0.659109
C106	C	0.228703	1.522651	-0.752619
C107	C	0.149704	1.454286	-0.785874
C108	C	0.072937	1.502622	-0.725616
H109	H	0.155818	1.774069	-0.529624
H110	H	0.289412	1.689952	-0.634490
H111	H	0.285530	1.486870	-0.797226
H112	H	0.148051	1.367897	-0.855100
H113	H	0.014456	1.452014	-0.750234
C114	C	-0.359188	1.274795	0.000020
C115	C	-0.377602	1.182697	-0.118675
C116	C	-0.342294	1.051791	-0.118683
C117	C	-0.288573	1.012984	0.000005
C118	C	-0.270156	1.105085	0.118709
C119	C	-0.305463	1.235991	0.118716
H120	H	-0.417372	1.211422	-0.206543
H121	H	-0.355928	0.983612	-0.206556
H122	H	-0.262436	0.916080	-0.000001
H123	H	-0.230386	1.076359	0.206576
H124	H	-0.291830	1.304169	0.206590
C125	C	-0.699736	1.693551	0.000094
C126	C	-0.641227	1.717171	0.118784
C127	C	-0.586767	1.835916	0.118776
C128	C	-0.590815	1.931041	0.000077
C129	C	-0.649326	1.907424	-0.118621
C130	C	-0.703786	1.788679	-0.118613
H131	H	-0.638228	1.646751	0.206660
H132	H	-0.543453	1.853398	0.206645
H133	H	-0.550500	2.018943	0.000071
H134	H	-0.652324	1.977844	-0.206497
H135	H	-0.747100	1.771196	-0.206482
H136	H	-0.057033	0.895228	-0.313041
C137	C	-0.322624	1.751388	0.000066
C138	C	-0.326668	1.846524	-0.118622
C139	C	-0.272205	1.965267	-0.118614
C140	C	-0.213699	1.988873	0.000082
C141	C	-0.209653	1.893734	0.118780
C142	C	-0.264116	1.774991	0.118771
H143	H	-0.369980	1.829052	-0.206496
H144	H	-0.275201	2.035695	-0.206482
H145	H	-0.173382	2.076773	0.000088
H146	H	-0.166341	1.911206	0.206654
H147	H	-0.261121	1.704563	0.206640
H148	H	-0.516417	1.328853	0.000051
H149	H	-0.484843	1.740596	0.000081
H150	H	-0.612532	1.347619	0.000074
H151	H	-0.617781	1.643945	0.000042
H152	H	-0.210756	1.351042	-0.369460
H153	H	-0.210746	1.351051	-0.630496
H154	H	0.058522	1.640636	-0.388894
H155	H	-0.020664	1.760615	-0.383325
H156	H	-0.015005	1.765414	-0.610884
