data_functionalizedCrystal
_audit_creation_method	'MofGen! by Chris Wilmer'
_symmetry_space_group_name_H-M	'P1'
_symmetry_Int_Tables_number	1
_symmetry_cell_setting	triclinic
loop_
_symmetry_equiv_pos_as_xyz
  x,y,z
_cell_length_a	16.956995
_cell_length_b	16.053811
_cell_length_c	16.956995
_cell_angle_alpha	92.373810
_cell_angle_beta	76.054471
_cell_angle_gamma	87.607598
loop_
_atom_site_label
_atom_site_type_symbol
_atom_site_fract_x
_atom_site_fract_y
_atom_site_fract_z
O1	O	1.059454	-0.069486	0.029595
O2	O	0.825443	-0.069475	0.057711
O3	O	0.956506	-0.069478	-0.073352
O4	O	0.928390	-0.069483	0.160658
O5	O	0.949293	0.069381	-0.066165
O6	O	0.818230	0.069385	0.064898
O7	O	1.052240	0.069373	0.036781
Zn8	Zn	0.934090	0.091426	0.051981
Zn9	Zn	0.943593	-0.091527	0.042512
O10	O	0.921177	0.069376	0.167845
C11	C	0.792033	-0.000044	0.062744
C12	C	0.703230	-0.000039	0.067024
N13	N	0.927610	0.216286	0.058442
C14	C	0.201821	-0.000071	0.099040
C15	C	0.285262	-0.000070	0.095013
C16	C	0.341333	-0.000062	0.019412
C17	C	0.313960	-0.000064	-0.052166
C18	C	0.230521	-0.000070	-0.048138
C19	C	0.592419	-0.000047	-0.000526
C20	C	0.675862	-0.000038	-0.004548
C21	C	0.647159	-0.000046	0.142631
C22	C	0.563719	-0.000048	0.146652
C23	C	0.536354	-0.000054	0.075074
N24	N	0.426623	-0.000059	0.015294
N25	N	0.451065	-0.000063	0.079193
C26	C	0.983395	0.259979	0.002692
C27	C	0.978869	0.347386	0.007219
C28	C	0.918561	0.391098	0.067500
C29	C	0.862770	0.347400	0.123253
C30	C	0.867293	0.259994	0.118722
C31	C	0.898806	0.652508	0.087270
C32	C	0.894288	0.739920	0.091798
C33	C	1.010387	0.739900	-0.024237
C34	C	1.014908	0.652493	-0.028760
C35	C	0.959114	0.608802	0.026990
N36	N	0.913934	0.480442	0.072131
N37	N	0.963737	0.519459	0.022356
C38	C	1.085650	-0.000060	0.031748
C39	C	1.174453	-0.000070	0.027468
C40	C	0.954339	-0.000049	-0.099562
C41	C	0.958619	-0.000052	-0.188364
N42	N	0.950073	0.783612	0.036048
C43	C	0.990637	-0.000057	-0.689775
C44	C	0.986609	-0.000052	-0.606334
C45	C	0.911008	-0.000052	-0.550263
C46	C	0.839430	-0.000049	-0.577636
C47	C	0.843459	-0.000048	-0.661075
C48	C	0.891069	-0.000049	-0.299177
C49	C	0.887046	-0.000052	-0.215733
C50	C	1.034226	-0.000053	-0.244437
C51	C	1.038248	-0.000057	-0.327876
C52	C	0.966670	-0.000050	-0.355242
N53	N	0.906889	-0.000049	-0.464973
N54	N	0.970789	-0.000047	-0.440530
C55	C	0.923344	-0.000054	0.194054
C56	C	0.919065	-0.000057	0.282856
H57	H	0.156173	-0.000071	0.160603
C58	C	0.837442	0.604459	0.148599
H59	H	0.800885	0.643014	0.185153
H60	H	0.807767	0.570376	0.120204
H61	H	0.865819	0.570350	0.178291
H62	H	1.055811	0.775481	-0.069627
C63	C	0.200412	-0.000069	-0.126865
H64	H	0.142689	-0.000083	-0.113640
H65	H	0.217458	0.048355	-0.155256
H66	H	0.222505	-0.048497	-0.160266
C67	C	0.315363	-0.000061	0.173743
H68	H	0.270019	-0.000054	0.219345
H69	H	0.349838	-0.048480	0.172731
H70	H	0.344793	0.048372	0.177733
H71	H	1.092501	-0.000066	-0.222146
H72	H	0.570148	-0.000049	-0.058810
H73	H	1.024293	0.382960	-0.038177
C74	C	1.081242	0.604415	-0.095074
H75	H	1.113814	0.642956	-0.127633
H76	H	1.114442	0.570302	-0.070211
H77	H	1.056391	0.570334	-0.128299
C78	C	0.737540	-0.000045	-0.087713
H79	H	0.709293	-0.000060	-0.129767
H80	H	0.768169	0.048379	-0.089844
H81	H	0.773203	-0.048474	-0.094839
H82	H	0.832786	-0.000053	-0.321447
C83	C	1.065337	-0.000048	-0.576228
H84	H	1.052112	-0.000036	-0.518504
H85	H	1.098754	-0.048470	-0.598301
H86	H	1.093710	0.048382	-0.593297
H87	H	0.813662	0.382996	0.172333
C88	C	0.805932	0.211932	0.180050
H89	H	0.769372	0.250483	0.216605
H90	H	0.776262	0.177849	0.151651
H91	H	0.834310	0.177824	0.209741
H92	H	0.845176	0.775507	0.140890
C93	C	0.375632	-0.000062	-0.135327
H94	H	0.347380	-0.000072	-0.177377
H95	H	0.406260	0.048362	-0.137454
H96	H	0.411296	-0.048491	-0.142462
H97	H	1.099810	-0.000054	-0.373525
H98	H	1.052200	-0.000064	-0.735424
H99	H	1.032507	0.224393	-0.046392
H100	H	0.825480	-0.000049	-0.170079
H101	H	0.777874	-0.000044	-0.531976
C102	C	0.764729	-0.000055	-0.691181
H103	H	0.719127	-0.000064	-0.645838
H104	H	0.760721	0.048367	-0.720629
H105	H	0.765763	-0.048486	-0.725639
H106	H	0.669449	-0.000043	0.200906
C107	C	0.502047	-0.000058	0.229813
H108	H	0.530298	-0.000064	0.271863
H109	H	0.466380	0.048363	0.236951
H110	H	0.471423	-0.048490	0.231934
