data_functionalizedCrystal
_audit_creation_method	'MofGen! by Chris Wilmer'
_symmetry_space_group_name_H-M	'P1'
_symmetry_Int_Tables_number	1
_symmetry_cell_setting	triclinic
loop_
_symmetry_equiv_pos_as_xyz
  x,y,z
_cell_length_a	12.645331
_cell_length_b	19.121063
_cell_length_c	12.645323
_cell_angle_alpha	92.406114
_cell_angle_beta	89.978207
_cell_angle_gamma	92.467980
loop_
_atom_site_label
_atom_site_type_symbol
_atom_site_fract_x
_atom_site_fract_y
_atom_site_fract_z
Zn1	Zn	1.602645	-0.279613	-0.617387
Zn2	Zn	1.594936	-0.397075	-0.447664
Zn3	Zn	1.425361	-0.279641	-0.440134
Zn4	Zn	1.417751	-0.397025	-0.624877
O5	O	1.510173	-0.338339	-0.532515
O6	O	1.749969	-0.295204	-0.594891
O7	O	1.572400	-0.381530	-0.298320
O8	O	1.455289	-0.181353	-0.457361
O9	O	1.744305	-0.381503	-0.470196
O10	O	1.585539	-0.181332	-0.587588
O11	O	1.447814	-0.295251	-0.292787
O12	O	1.276005	-0.295203	-0.464623
O13	O	1.442319	-0.381418	-0.772228
O14	O	1.270414	-0.381445	-0.600353
O15	O	1.578160	-0.295155	-0.766726
O16	O	1.565021	-0.495353	-0.477458
O17	O	1.434844	-0.495316	-0.607655
C18	C	1.234745	-0.338322	-0.532484
C19	C	1.116914	-0.338332	-0.532496
C20	C	0.952848	-0.283827	-0.447545
C21	C	1.075398	-0.283968	-0.447195
C22	C	1.067611	-0.412320	-0.506729
C23	C	0.945032	-0.412022	-0.506154
C24	C	0.950977	-0.319552	-0.643575
C25	C	1.073689	-0.317900	-0.642846
C26	C	1.498299	-0.520819	-0.544209
C27	C	1.493316	-0.598884	-0.549247
C28	C	1.558803	-0.635556	-0.483884
C29	C	1.554123	-0.708907	-0.488629
C30	C	1.483949	-0.745585	-0.558732
C31	C	1.418459	-0.708909	-0.624103
C32	C	1.423145	-0.635559	-0.619363
C33	C	1.466411	-0.967054	-0.576437
C34	C	1.461727	-1.040409	-0.581170
C35	C	1.597394	-1.040402	-0.445697
C36	C	1.602070	-0.967051	-0.440958
C37	C	1.536583	-0.930381	-0.506333
C38	C	1.479161	-0.820562	-0.563581
C39	C	1.541377	-0.855406	-0.501488
C40	C	1.786677	-0.338356	-0.532548
C41	C	1.904507	-0.338363	-0.532562
C42	C	1.510251	-0.338278	-0.809017
C43	C	1.510284	-0.338252	-0.926846
C44	C	1.522123	-0.155146	-0.520799
C45	C	1.527215	-0.077080	-0.515806
C46	C	1.424832	-0.392509	-0.975188
C47	C	1.424557	-0.392305	-1.097735
C48	C	1.485208	-0.264116	-1.089991
C49	C	1.484557	-0.264474	-0.967415
C50	C	1.621135	-0.357392	-0.973265
C51	C	1.620464	-0.358981	-1.095973
C52	C	1.510160	-0.338348	-0.257086
C53	C	1.510345	-0.338176	-0.139246
H54	H	0.923507	-0.266542	-0.667926
H55	H	1.404596	-1.070271	-0.638275
H56	H	1.650711	-1.070266	-0.392474
H57	H	1.342339	-0.379596	-1.126246
H58	H	1.343060	-0.379976	-0.943572
H59	H	1.413087	-0.937203	-0.629666
H60	H	1.361326	-0.738778	-0.681187
H61	H	1.639510	-0.413487	-1.128554
H62	H	1.439690	-0.447215	-1.131348
H63	H	1.659211	-0.937189	-0.383874
H64	H	1.422023	-0.850434	-0.620657
H65	H	1.545766	-0.222563	-1.116461
H66	H	1.094082	-0.454039	-0.566916
H67	H	1.615942	-0.605697	-0.426794
H68	H	1.439716	-0.447612	-0.949248
H69	H	1.403683	-0.248279	-0.937778
H70	H	1.607450	-0.738761	-0.435402
H71	H	1.544370	-0.222655	-0.935055
H72	H	1.369819	-0.605702	-0.672590
H73	H	1.644997	-0.410504	-0.945757
H74	H	1.097218	-0.428546	-0.426612
H75	H	1.687141	-0.322346	-1.124247
H76	H	1.405269	-0.247620	-1.119634
H77	H	1.106313	-0.263453	-0.662362
H78	H	0.912670	-0.454031	-0.565635
H79	H	1.109046	-0.229103	-0.462801
H80	H	0.926941	-0.228797	-0.462935
H81	H	1.598517	-0.825540	-0.444414
H82	H	0.921206	-0.296123	-0.365663
H83	H	1.103874	-0.296401	-0.364832
H84	H	0.915356	-0.427974	-0.425139
H85	H	1.101966	-0.354723	-0.709194
H86	H	0.919429	-0.359274	-0.706862
H87	H	1.684739	-0.317872	-0.941724
