data_functionalizedCrystal
_audit_creation_method	'MofGen! by Chris Wilmer'
_symmetry_space_group_name_H-M	'P1'
_symmetry_Int_Tables_number	1
_symmetry_cell_setting	triclinic
loop_
_symmetry_equiv_pos_as_xyz
  x,y,z
_cell_length_a	6.817900
_cell_length_b	11.353959
_cell_length_c	14.858572
_cell_angle_alpha	104.864136
_cell_angle_beta	104.524003
_cell_angle_gamma	107.526623
loop_
_atom_site_label
_atom_site_type_symbol
_atom_site_fract_x
_atom_site_fract_y
_atom_site_fract_z
V1	V	-4.080045	-0.181811	-0.319400
V2	V	-3.746712	0.151523	0.013933
V3	V	-3.413378	0.484856	0.347266
O4	O	-4.023802	0.007890	-0.283163
O5	O	-3.690468	0.341223	0.050170
O6	O	-3.357135	0.674556	0.383504
O7	O	-4.072306	-0.359685	-0.346220
O8	O	-3.738972	-0.026352	-0.012887
O9	O	-3.405639	0.306981	0.320447
O10	O	-4.036129	-0.179386	-0.445469
O11	O	-3.702795	0.153947	-0.112136
O12	O	-3.369462	0.487281	0.221197
O13	O	-4.060229	-0.173658	-0.183227
O14	O	-3.726896	0.159675	0.150107
O15	O	-3.393563	0.493009	0.483440
V16	V	-4.557823	-0.159077	-0.299589
V17	V	-4.224490	0.174257	0.033744
V18	V	-3.891157	0.507590	0.367077
O19	O	-4.353905	-0.231680	-0.362857
O20	O	-4.020572	0.101653	-0.029524
O21	O	-3.687238	0.434986	0.303810
O22	O	-4.734161	-0.109207	-0.256133
O23	O	-4.400828	0.224126	0.077201
O24	O	-4.067494	0.557460	0.410534
O25	O	-4.342356	0.018798	-0.272770
O26	O	-4.009023	0.352132	0.060564
O27	O	-3.675690	0.685465	0.393897
O28	O	-4.731464	-0.348777	-0.335827
O29	O	-4.398130	-0.015444	-0.002493
O30	O	-4.064797	0.317890	0.330840
O31	O	-4.695036	-0.167229	-0.435763
O32	O	-4.361703	0.166104	-0.102430
O33	O	-4.028369	0.499438	0.230903
O34	O	-4.378533	-0.161501	-0.173520
O35	O	-4.045200	0.171832	0.159813
O36	O	-3.711867	0.505165	0.493146
C37	C	-3.927053	-0.403036	-0.348665
C38	C	-3.593720	-0.069703	-0.015332
C39	C	-3.260386	0.263631	0.318001
C40	C	-4.002042	-0.548453	-0.371434
C41	C	-3.668708	-0.215120	-0.038101
C42	C	-3.335375	0.118214	0.295233
C43	C	-3.989874	-0.595303	-0.297737
C44	C	-3.656540	-0.261969	0.035596
C45	C	-3.323207	0.071364	0.368929
C46	C	-4.067378	-0.745598	-0.321268
C47	C	-3.734044	-0.412265	0.012065
C48	C	-3.400711	-0.078932	0.345399
C49	C	-3.880904	-0.173044	-0.475266
C50	C	-3.547571	0.160289	-0.141933
C51	C	-3.214237	0.493623	0.191400
C52	C	-3.926550	-0.172238	-0.578519
C53	C	-3.593217	0.161095	-0.245186
C54	C	-3.259883	0.494428	0.088148
C55	C	-4.093616	-0.169294	-0.956610
C56	C	-3.760283	0.164039	-0.623277
C57	C	-3.426950	0.497373	-0.289943
C58	C	-4.047125	-0.170113	-0.851413
C59	C	-3.713792	0.163220	-0.518080
C60	C	-3.380458	0.496553	-0.184747
C61	C	-4.010085	-0.170767	-0.767568
C62	C	-3.676752	0.162566	-0.434235
C63	C	-3.343418	0.495899	-0.100902
C64	C	-3.963590	-0.171584	-0.662364
C65	C	-3.630257	0.161749	-0.329031
C66	C	-3.296923	0.495082	0.004303
C67	C	-4.150952	0.062142	-0.270323
C68	C	-3.817619	0.395475	0.063010
C69	C	-3.484286	0.728808	0.396344
C70	C	-4.055202	0.207558	-0.247561
C71	C	-3.721869	0.540891	0.085773
C72	C	-3.388536	0.874224	0.419106
C73	C	-4.197101	-0.167847	-0.143719
C74	C	-3.863767	0.165486	0.189614
C75	C	-3.530434	0.498819	0.522947
C76	C	-4.130692	-0.168646	-0.040465
C77	C	-3.797358	0.164687	0.292869
C78	C	-3.464025	0.498020	0.626202
H79	H	-4.135181	-0.816754	-0.401788
H80	H	-3.801847	-0.483421	-0.068455
H81	H	-3.468514	-0.150087	0.264878
H82	H	-3.922089	-0.524144	-0.217223
H83	H	-3.588756	-0.190811	0.116110
H84	H	-3.255423	0.142523	0.449444
H85	H	-3.987414	-0.721289	-0.167040
H86	H	-3.654081	-0.387956	0.166293
H87	H	-3.320747	-0.054622	0.499626
H88	H	-4.069844	-0.619612	-0.451949
H89	H	-3.736511	-0.286279	-0.118615
H90	H	-3.403178	0.047054	0.214718
