data_functionalizedCrystal
_audit_creation_method	'MofGen! by Chris Wilmer'
_symmetry_space_group_name_H-M	'P1'
_symmetry_Int_Tables_number	1
_symmetry_cell_setting	triclinic
loop_
_symmetry_equiv_pos_as_xyz
  x,y,z
_cell_length_a	17.077404
_cell_length_b	18.050589
_cell_length_c	17.077396
_cell_angle_alpha	89.974523
_cell_angle_beta	89.982756
_cell_angle_gamma	90.028446
loop_
_atom_site_label
_atom_site_type_symbol
_atom_site_fract_x
_atom_site_fract_y
_atom_site_fract_z
Zn1	Zn	1.200008	-0.295649	-0.443864
Zn2	Zn	1.700008	0.204351	0.056136
Zn3	Zn	1.199908	-0.419848	-0.312606
Zn4	Zn	1.699908	0.080152	0.187394
Zn5	Zn	1.068745	-0.295677	-0.312612
Zn6	Zn	1.568745	0.204323	0.187388
Zn7	Zn	1.068696	-0.419802	-0.443830
Zn8	Zn	1.568696	0.080198	0.056170
O9	O	1.134339	-0.357744	-0.378228
O10	O	1.634339	0.142256	0.121772
O11	O	1.309842	-0.312132	-0.426464
O12	O	1.809842	0.187868	0.073536
O13	O	1.182488	-0.403407	-0.202760
O14	O	1.682488	0.096593	0.297240
O15	O	1.086220	-0.191748	-0.330039
O16	O	1.586220	0.308252	0.169961
O17	O	1.309768	-0.403380	-0.330030
O18	O	1.809768	0.096620	0.169970
O19	O	1.182658	-0.191728	-0.426469
O20	O	1.682658	0.308272	0.073531
O21	O	1.086123	-0.312179	-0.202764
O22	O	1.586123	0.187821	0.297236
O23	O	0.958892	-0.312135	-0.330006
O24	O	1.458892	0.187865	0.169994
O25	O	1.086136	-0.403302	-0.553681
O26	O	1.586136	0.096698	-0.053681
O27	O	0.958855	-0.403329	-0.426412
O28	O	1.458855	0.096671	0.073588
O29	O	1.182610	-0.312087	-0.553706
O30	O	1.682610	0.187913	-0.053706
O31	O	1.182440	-0.523766	-0.329997
O32	O	1.682440	-0.023766	0.170003
O33	O	1.086039	-0.523733	-0.426407
O34	O	1.586039	-0.023733	0.073593
C35	C	0.930391	-0.357730	-0.378206
C36	C	1.430391	0.142270	0.121794
C37	C	0.843142	-0.357743	-0.378216
C38	C	1.343142	0.142257	0.121784
C39	C	0.802153	-0.405299	-0.428333
C40	C	1.302153	0.094701	0.071667
C41	C	0.720173	-0.405301	-0.428346
C42	C	1.220173	0.094699	0.071654
C43	C	0.679182	-0.357749	-0.378236
C44	C	1.179182	0.142251	0.121764
C45	C	0.720176	-0.310187	-0.328116
C46	C	1.220176	0.189813	0.171884
C47	C	0.802155	-0.310182	-0.328108
C48	C	1.302155	0.189818	0.171892
C49	C	0.549306	-0.310202	-0.328135
C50	C	1.049306	0.189798	0.171865
C51	C	0.467322	-0.310207	-0.328142
C52	C	0.967322	0.189793	0.171858
C53	C	0.467324	-0.405320	-0.428373
C54	C	0.967324	0.094680	0.071627
C55	C	0.549303	-0.405315	-0.428365
C56	C	1.049303	0.094685	0.071635
C57	C	0.590291	-0.357754	-0.378244
C58	C	1.090291	0.142246	0.121756
C59	C	1.134244	-0.550696	-0.378215
C60	C	1.634244	-0.050696	0.121785
C61	C	1.134276	-0.633242	-0.378236
C62	C	1.634276	-0.133242	0.121764
C63	C	1.081904	-0.832701	-0.430645
C64	C	1.581904	-0.332701	0.069355
C65	C	1.062772	-0.882144	-0.359016
C66	C	1.562772	-0.382144	0.140984
C67	C	1.134353	-0.784372	-0.378246
C68	C	1.634353	-0.284372	0.121754
C69	C	1.153524	-0.882011	-0.449883
C70	C	1.653524	-0.382011	0.050117
C71	C	1.134426	-0.930357	-0.378262
C72	C	1.634426	-0.430357	0.121738
C73	C	1.115183	-0.832728	-0.306579
C74	C	1.615183	-0.332728	0.193421
C75	C	1.205968	-0.832591	-0.397495
C76	C	1.705968	-0.332591	0.102505
C77	C	1.186863	-0.882011	-0.325816
C78	C	1.686863	-0.382011	0.174184
C79	C	1.134309	-0.700274	-0.378238
C80	C	1.634309	-0.200274	0.121762
C81	C	1.134470	-1.014454	-0.378262
C82	C	1.634470	-0.514454	0.121738
C83	C	1.339083	-0.357758	-0.378250
C84	C	1.839083	0.142242	0.121750
C85	C	1.426333	-0.357764	-0.378260
C86	C	1.926333	0.142236	0.121740
C87	C	1.134379	-0.357686	-0.582972
C88	C	1.634379	0.142314	-0.082972
C89	C	1.134395	-0.357662	-0.670222
C90	C	1.634395	0.142338	-0.170222
C91	C	1.134456	-0.164038	-0.378258
C92	C	1.634456	0.335962	0.121742
C93	C	1.134505	-0.081492	-0.378271
C94	C	1.634505	0.418508	0.121729
C95	C	1.084234	-0.310154	-0.711214
C96	C	1.584234	0.189846	-0.211214
C97	C	1.084246	-0.310137	-0.793194
C98	C	1.584246	0.189863	-0.293194
C99	C	1.134426	-0.357625	-0.834182
C100	C	1.634426	0.142375	-0.334182
C101	C	1.184590	-0.405138	-0.793184
C102	C	1.684590	0.094862	-0.293184
C103	C	1.184572	-0.405158	-0.711205
C104	C	1.684572	0.094842	-0.211205
C105	C	1.184624	-0.405092	-0.964054
C106	C	1.684624	0.094908	-0.464054
C107	C	1.184642	-0.405071	-1.046039
C108	C	1.684642	0.094929	-0.546039
C109	C	1.084298	-0.310070	-1.046043
C110	C	1.584298	0.189930	-0.546043
C111	C	1.084280	-0.310090	-0.964064
C112	C	1.584280	0.189910	-0.464064
C113	C	1.134446	-0.357603	-0.923073
C114	C	1.634446	0.142397	-0.423073
C115	C	1.134345	-0.357748	-0.174280
C116	C	1.634345	0.142252	0.325720
C117	C	1.134480	-0.357563	-0.087031
C118	C	1.634480	0.142437	0.412969
H119	H	0.433947	-0.444044	-0.469186
H120	H	0.933947	0.055956	0.030814
H121	H	0.686795	-0.271467	-0.287319
H122	H	1.186795	0.228533	0.212681
O123	O	1.172884	-0.907714	-0.522185
O124	O	1.672884	-0.407714	-0.022185
C125	C	1.185679	-0.847376	-0.573072
C126	C	1.685679	-0.347376	-0.073072
H127	H	1.201252	-0.796106	-0.537357
H128	H	1.701252	-0.296106	-0.037357
H129	H	1.235879	-0.860990	-0.614655
H130	H	1.735879	-0.360990	-0.114655
H131	H	1.130254	-0.836243	-0.608352
H132	H	1.630254	-0.336243	-0.108352
O133	O	0.427623	-0.263943	-0.279445
O134	O	0.927623	0.236057	0.220555
C135	C	0.481378	-0.221971	-0.235196
C136	C	0.981378	0.278029	0.264804
H137	H	0.539830	-0.219434	-0.267345
H138	H	1.039830	0.280566	0.232655
H139	H	0.457710	-0.163451	-0.226939
H140	H	0.957710	0.336549	0.273061
H141	H	0.490060	-0.249088	-0.175525
H142	H	0.990060	0.250912	0.324475
O143	O	1.035413	-0.264000	-0.671523
O144	O	1.535413	0.236000	-0.171523
C145	C	0.991154	-0.222054	-0.725287
C146	C	1.491154	0.277946	-0.225287
H147	H	0.988434	-0.252459	-0.783719
H148	H	1.488434	0.247541	-0.283719
H149	H	0.929306	-0.214136	-0.701599
H150	H	1.429306	0.285864	-0.201599
H151	H	1.019933	-0.165650	-0.734019
H152	H	1.519933	0.334350	-0.234019
H153	H	0.582677	-0.271466	-0.287328
H154	H	1.082677	0.228534	0.212672
H155	H	1.043423	-0.271418	-0.930695
H156	H	1.543423	0.228582	-0.430695
H157	H	1.225425	-0.443839	-0.677831
H158	H	1.725425	0.056161	-0.177831
H159	H	0.582675	-0.444040	-0.469164
H160	H	1.082675	0.055960	0.030836
O161	O	0.990556	-0.908027	-0.339483
O162	O	1.490556	-0.408027	0.160517
C163	C	0.969981	-0.881854	-0.264474
C164	C	1.469981	-0.381854	0.235526
H165	H	1.004707	-0.829454	-0.250926
H166	H	1.504707	-0.329454	0.249074
H167	H	0.904677	-0.868865	-0.262956
H168	H	1.404677	-0.368865	0.237044
H169	H	0.983922	-0.926077	-0.218888
H170	H	1.483922	-0.426077	0.281112
O171	O	1.095765	-0.806890	-0.234346
O172	O	1.595765	-0.306890	0.265654
C173	C	1.095947	-0.728784	-0.235213
C174	C	1.595947	-0.228784	0.264787
H175	H	1.087169	-0.708315	-0.297756
H176	H	1.587169	-0.208315	0.202244
H177	H	1.046443	-0.707282	-0.196635
H178	H	1.546443	-0.207282	0.303365
H179	H	1.154376	-0.707597	-0.211950
H180	H	1.654376	-0.207597	0.288050
H181	H	0.835522	-0.444024	-0.469136
H182	H	1.335522	0.055976	0.030864
H183	H	1.231248	-0.903526	-0.281460
H184	H	1.731248	-0.403526	0.218540
O185	O	1.035450	-0.263955	-1.085767
O186	O	1.535450	0.236045	-0.585767
C187	C	0.957202	-0.280197	-1.065728
C188	C	1.457202	0.219803	-0.565728
H189	H	0.955554	-0.308763	-1.006201
H190	H	1.455554	0.191237	-0.506201
H191	H	0.922037	-0.226597	-1.062922
H192	H	1.422037	0.273403	-0.562922
H193	H	0.930742	-0.318363	-1.111855
H194	H	1.430742	0.181637	-0.611855
O195	O	0.680266	-0.451535	-0.476916
O196	O	1.180266	0.048465	0.023084
C197	C	0.632819	-0.499457	-0.432136
C198	C	1.132819	0.000543	0.067864
H199	H	0.620530	-0.473188	-0.372699
H200	H	1.120530	0.026812	0.127301
H201	H	0.575178	-0.509450	-0.464095
H202	H	1.075178	-0.009450	0.035905
H203	H	0.664381	-0.554481	-0.423405
H204	H	1.164381	-0.054481	0.076595
O205	O	1.035624	-0.263960	-0.833106
O206	O	1.535624	0.236040	-0.333106
C207	C	1.080347	-0.215976	-0.880537
C208	C	1.580347	0.284024	-0.380537
H209	H	1.139825	-0.242164	-0.892814
H210	H	1.639825	0.257836	-0.392814
H211	H	1.048388	-0.206023	-0.938185
H212	H	1.548388	0.293977	-0.438185
H213	H	1.088990	-0.160941	-0.848967
H214	H	1.588990	0.339059	-0.348967
O215	O	1.278136	-0.806634	-0.417075
O216	O	1.778136	-0.306634	0.082925
C217	C	1.298093	-0.831714	-0.492666
C218	C	1.798093	-0.331714	0.007334
H219	H	1.242454	-0.845620	-0.526482
H220	H	1.742454	-0.345620	-0.026482
H221	H	1.331758	-0.786458	-0.524889
H222	H	1.831758	-0.286458	-0.024889
H223	H	1.336204	-0.883343	-0.487753
H224	H	1.836204	-0.383343	0.012247
O225	O	0.841853	-0.263967	-0.279345
O226	O	1.341853	0.236033	0.220655
C227	C	0.788097	-0.221986	-0.235129
C228	C	1.288097	0.278014	0.264871
H229	H	0.729644	-0.252404	-0.232364
H230	H	1.229644	0.247596	0.267636
H231	H	0.811762	-0.213992	-0.173293
H232	H	1.311762	0.286008	0.326707
H233	H	0.779417	-0.165616	-0.263974
H234	H	1.279417	0.334384	0.236026
H235	H	1.037485	-0.811049	-0.474894
H236	H	1.537485	-0.311049	0.025106
O237	O	1.233407	-0.451273	-1.085735
O238	O	1.733407	0.048727	-0.585735
C239	C	1.277690	-0.493205	-1.031978
C240	C	1.777690	0.006795	-0.531978
H241	H	1.245525	-0.495790	-0.973536
H242	H	1.745525	0.004210	-0.473536
H243	H	1.286025	-0.551712	-1.055659
H244	H	1.786025	-0.051712	-0.555659
H245	H	1.337325	-0.466023	-1.023269
H246	H	1.837325	0.033977	-0.523269
O247	O	1.233394	-0.451143	-0.924150
O248	O	1.733394	0.048857	-0.424150
C249	C	1.284122	-0.408876	-0.876758
C250	C	1.784122	0.091124	-0.376758
H251	H	1.256468	-0.352598	-0.864483
H252	H	1.756468	0.147402	-0.364483
H253	H	1.294614	-0.439142	-0.819107
H254	H	1.794614	0.060858	-0.319107
H255	H	1.342305	-0.400711	-0.908361
H256	H	1.842305	0.099289	-0.408361
O257	O	1.233360	-0.451338	-0.832876
O258	O	1.733360	0.048662	-0.332876
C259	C	1.277645	-0.493262	-0.779113
C260	C	1.777645	0.006738	-0.279113
H261	H	1.245477	-0.495847	-0.720673
H262	H	1.745477	0.004153	-0.220673
H263	H	1.285990	-0.551769	-0.802790
H264	H	1.785990	-0.051769	-0.302790
H265	H	1.337275	-0.466071	-0.770402
H266	H	1.837275	0.033929	-0.270402
