data_functionalizedCrystal
_audit_creation_method	'MofGen! by Chris Wilmer'
_symmetry_space_group_name_H-M	'P1'
_symmetry_Int_Tables_number	1
_symmetry_cell_setting	triclinic
loop_
_symmetry_equiv_pos_as_xyz
  x,y,z
_cell_length_a	14.044220
_cell_length_b	12.503572
_cell_length_c	14.044220
_cell_angle_alpha	93.843168
_cell_angle_beta	86.811122
_cell_angle_gamma	93.835250
loop_
_atom_site_label
_atom_site_type_symbol
_atom_site_fract_x
_atom_site_fract_y
_atom_site_fract_z
O1	O	1.282200	0.089210	-0.225116
O2	O	1.615533	0.422543	0.108217
O3	O	1.948867	0.755877	0.441550
O4	O	1.005530	0.089237	-0.216809
O5	O	1.338863	0.422570	0.116524
O6	O	1.672197	0.755904	0.449858
O7	O	1.139712	0.089213	-0.082627
O8	O	1.473045	0.422547	0.250706
O9	O	1.806378	0.755880	0.584039
O10	O	1.148019	0.089234	-0.359298
O11	O	1.481352	0.422567	-0.025964
O12	O	1.814685	0.755900	0.307369
O13	O	1.129622	-0.089427	-0.092737
O14	O	1.462955	0.243907	0.240596
O15	O	1.796289	0.577240	0.573930
O16	O	0.995440	-0.089403	-0.226918
O17	O	1.328774	0.243930	0.106415
O18	O	1.662107	0.577264	0.439748
O19	O	1.272110	-0.089430	-0.235226
O20	O	1.605444	0.243903	0.098108
O21	O	1.938777	0.577237	0.431441
Cu22	Cu	1.132854	-0.105728	-0.231995
Cu23	Cu	1.466187	0.227605	0.101338
Cu24	Cu	1.799521	0.560939	0.434672
Cu25	Cu	1.144786	0.105535	-0.220040
Cu26	Cu	1.478120	0.438868	0.113294
Cu27	Cu	1.811453	0.772202	0.446627
O28	O	1.137929	-0.089406	-0.369407
O29	O	1.471262	0.243927	-0.036074
O30	O	1.804595	0.577260	0.297259
C31	C	0.964864	-0.000080	-0.218228
C32	C	1.298197	0.333254	0.115105
C33	C	1.631530	0.666587	0.448439
C34	C	0.858721	-0.000070	-0.207383
C35	C	1.192055	0.333264	0.125951
C36	C	1.525388	0.666597	0.459284
N37	N	1.124469	-0.254319	-0.240404
N38	N	1.457802	0.079015	0.092929
N39	N	1.791135	0.412348	0.426263
C40	C	0.664382	-0.000092	-0.187558
C41	C	0.997716	0.333241	0.145776
C42	C	1.331049	0.666574	0.479109
C43	C	0.613253	-0.000091	-0.264472
C44	C	0.946586	0.333242	0.068861
C45	C	1.279919	0.666575	0.402195
C46	C	0.505116	-0.000104	-0.253441
C47	C	0.838449	0.333229	0.079892
C48	C	1.171782	0.666563	0.413225
C49	C	0.772529	-0.000080	-0.198587
C50	C	1.105863	0.333254	0.134746
C51	C	1.439196	0.666587	0.468079
C52	C	1.112134	-0.473432	-0.252782
C53	C	1.445467	-0.140098	0.080551
C54	C	1.778800	0.193235	0.413885
C55	C	1.165511	-0.526768	-0.199249
C56	C	1.498844	-0.193435	0.134085
C57	C	1.832178	0.139898	0.467418
C58	C	1.158648	-0.648690	-0.206136
C59	C	1.491981	-0.315357	0.127198
C60	C	1.825314	0.017976	0.460531
C61	C	1.118996	-0.351499	-0.245896
C62	C	1.452329	-0.018165	0.087437
C63	C	1.785662	0.315168	0.420771
C64	C	1.312777	-0.000111	-0.233807
C65	C	1.646110	0.333222	0.099527
C66	C	1.979444	0.666556	0.432860
C67	C	1.418920	-0.000114	-0.244651
C68	C	1.752253	0.333219	0.088682
C69	C	2.085586	0.666553	0.422015
C70	C	1.131031	-0.000107	-0.052060
C71	C	1.464365	0.333227	0.281273
C72	C	1.797698	0.666560	0.614606
C73	C	1.120187	-0.000107	0.054082
C74	C	1.453520	0.333226	0.387416
C75	C	1.786853	0.666560	0.720749
N76	N	1.153179	0.254126	-0.211624
N77	N	1.486512	0.587459	0.121710
N78	N	1.819846	0.920792	0.455043
C79	C	1.146609	-0.000084	-0.399974
C80	C	1.479943	0.333249	-0.066641
C81	C	1.813276	0.666583	0.266692
C82	C	1.157454	-0.000077	-0.506117
C83	C	1.490788	0.333257	-0.172783
C84	C	1.824121	0.666590	0.160550
C85	C	1.100361	-0.000090	0.248421
C86	C	1.433695	0.333244	0.581754
C87	C	1.767028	0.666577	0.915088
C88	C	1.177275	-0.000094	0.299551
C89	C	1.510609	0.333239	0.632884
C90	C	1.843942	0.666573	0.966217
C91	C	1.166244	-0.000084	0.407687
C92	C	1.499578	0.333249	0.741021
C93	C	1.832911	0.666582	1.074354
C94	C	1.111391	-0.000099	0.140274
C95	C	1.444724	0.333234	0.473608
C96	C	1.778058	0.666567	0.806941
H97	H	0.626945	-0.000104	-0.113431
H98	H	0.960278	0.333230	0.219902
H99	H	1.293612	0.666563	0.553236
N100	N	1.229300	-0.469175	-0.135266
N101	N	1.562633	-0.135842	0.198067
N102	N	1.895967	0.197491	0.531401
N103	N	1.234859	-0.368779	-0.129689
N104	N	1.568192	-0.035445	0.203644
N105	N	1.901525	0.297888	0.536977
H106	H	1.279909	-0.328098	-0.084505
H107	H	1.613243	0.005236	0.248828
H108	H	1.946576	0.338569	0.582162
H109	H	1.061285	-0.519330	-0.303783
H110	H	1.394619	-0.185997	0.029550
H111	H	1.727952	0.147337	0.362883
H112	H	1.251413	-0.000029	0.262115
H113	H	1.584746	0.333304	0.595449
H114	H	1.918079	0.666638	0.928782
H115	H	1.026234	-0.000080	0.285859
H116	H	1.359568	0.333253	0.619192
H117	H	1.692901	0.666587	0.952525
N118	N	0.660217	-0.000045	-0.357471
N119	N	0.993550	0.333288	-0.024137
N120	N	1.326883	0.666622	0.309196
N121	N	0.650713	0.075271	-0.409674
N122	N	0.984047	0.408605	-0.076341
N123	N	1.317380	0.741938	0.256992
H124	H	0.683886	0.075310	-0.475352
H125	H	1.017220	0.408644	-0.142019
H126	H	1.350553	0.741977	0.191315
