data_functionalizedCrystal
_audit_creation_method	'MofGen! by Chris Wilmer'
_symmetry_space_group_name_H-M	'P1'
_symmetry_Int_Tables_number	1
_symmetry_cell_setting	triclinic
loop_
_symmetry_equiv_pos_as_xyz
  x,y,z
_cell_length_a	12.827893
_cell_length_b	12.759400
_cell_length_c	12.827885
_cell_angle_alpha	90.030494
_cell_angle_beta	90.019081
_cell_angle_gamma	90.014655
loop_
_atom_site_label
_atom_site_type_symbol
_atom_site_fract_x
_atom_site_fract_y
_atom_site_fract_z
Zn1	Zn	1.597675	-0.418216	0.590838
Zn2	Zn	1.597571	-0.593932	0.416096
Zn3	Zn	1.422916	-0.418267	0.416112
Zn4	Zn	1.422904	-0.593854	0.590797
O5	O	1.510266	-0.506067	0.503461
O6	O	1.743897	-0.441537	0.567669
O7	O	1.574364	-0.570684	0.269862
O8	O	1.446147	-0.271240	0.439314
O9	O	1.743821	-0.570634	0.439287
O10	O	1.574541	-0.271202	0.567684
O11	O	1.446046	-0.441624	0.269874
O12	O	1.276678	-0.441548	0.439274
O13	O	1.446125	-0.570501	0.737039
O14	O	1.276669	-0.570550	0.567614
O15	O	1.574529	-0.441461	0.737069
O16	O	1.574352	-0.740942	0.439247
O17	O	1.446025	-0.740885	0.567599
C18	C	1.238756	-0.506047	0.503442
C19	C	1.122603	-0.506064	0.503459
C20	C	0.950812	-0.442314	0.567101
C21	C	1.070862	-0.442295	0.567085
C22	C	1.510204	-0.779035	0.503439
C23	C	1.510273	-0.895811	0.503465
C24	C	1.577168	-0.950668	0.436706
C25	C	1.577232	-1.060392	0.436738
C26	C	1.443499	-1.060393	0.570291
C27	C	1.443440	-0.950671	0.570263
C28	C	1.644001	-0.895809	0.369907
C29	C	1.710899	-0.950666	0.303142
C30	C	1.710964	-1.060390	0.303175
C31	C	1.644129	-1.115257	0.369972
C32	C	1.782836	-0.506088	0.503481
C33	C	1.898990	-0.506097	0.503489
C34	C	1.510337	-0.505966	0.776031
C35	C	1.510368	-0.505923	0.892185
C36	C	1.510357	-0.232034	0.503506
C37	C	1.510396	-0.115257	0.503525
C38	C	1.510256	-0.506092	0.231951
C39	C	1.510428	-0.505839	0.115798
C40	C	1.573913	-0.442058	0.943984
C41	C	1.573946	-0.442012	1.064035
H42	H	1.078044	-0.560672	0.448993
H43	H	1.628352	-0.387338	1.108581
H44	H	1.455982	-0.560560	0.936714
Cl45	Cl	0.882101	-0.358030	0.651215
Cl46	Cl	1.644217	-0.757871	0.370155
H47	H	1.628288	-0.387410	0.899455
H48	H	1.456025	-0.560523	1.071259
H49	H	1.115428	-0.387684	0.621541
H50	H	1.765320	-0.905988	0.248764
H51	H	1.644195	-1.204602	0.370001
Cl52	Cl	0.967700	-0.590396	0.419390
Cl53	Cl	1.795072	-1.129351	0.219252
H54	H	1.389084	-1.105074	0.624673
H55	H	1.388970	-0.906006	0.624626
