data_functionalizedCrystal
_audit_creation_method	'MofGen! by Chris Wilmer'
_symmetry_space_group_name_H-M	'P1'
_symmetry_Int_Tables_number	1
_symmetry_cell_setting	triclinic
loop_
_symmetry_equiv_pos_as_xyz
  x,y,z
_cell_length_a	25.639240
_cell_length_b	14.908571
_cell_length_c	14.908308
_cell_angle_alpha	89.824947
_cell_angle_beta	93.255449
_cell_angle_gamma	93.271695
loop_
_atom_site_label
_atom_site_type_symbol
_atom_site_fract_x
_atom_site_fract_y
_atom_site_fract_z
Zn1	Zn	-0.272845	-1.345200	-0.587486
Zn2	Zn	-0.355542	-1.353751	-0.437097
Zn3	Zn	-0.262803	-1.203518	-0.428487
Zn4	Zn	-0.354921	-1.194779	-0.578749
O5	O	-0.311527	-1.274312	-0.507955
O6	O	-0.288277	-1.472158	-0.574796
O7	O	-0.339297	-1.341059	-0.310132
O8	O	-0.190974	-1.222392	-0.449632
O9	O	-0.349035	-1.478441	-0.464306
O10	O	-0.198352	-1.326484	-0.566448
O11	O	-0.271162	-1.230683	-0.303806
O12	O	-0.270560	-1.076535	-0.441160
O13	O	-0.347976	-1.207496	-0.705731
O14	O	-0.338238	-1.070114	-0.551557
O15	O	-0.287675	-1.318010	-0.712150
O16	O	-0.428620	-1.332584	-0.455834
O17	O	-0.428164	-1.215788	-0.559905
C18	C	-0.303242	-1.040699	-0.494477
C19	C	-0.299711	-0.940758	-0.488732
C20	C	-0.447363	-1.274189	-0.507877
C21	C	-0.505478	-1.274217	-0.507879
C22	C	-0.318876	-1.260824	-0.742477
C23	C	-0.322008	-1.255077	-0.842417
C24	C	-0.869655	-1.328536	-0.568886
C25	C	-0.924260	-1.328561	-0.568906
O26	O	-0.955732	-1.374598	-0.620696
N27	N	-0.947774	-1.274432	-0.508049
C28	C	-0.916678	-1.220267	-0.447174
O29	O	-0.941692	-1.174227	-0.395413
C30	C	-0.862073	-1.220237	-0.447159
C31	C	-0.838563	-1.274377	-0.508014
C32	C	-0.846144	-1.382670	-0.629737
C33	C	-0.791542	-1.382646	-0.629716
C34	C	-0.760450	-1.328487	-0.568844
C35	C	-0.783961	-1.274352	-0.507993
C36	C	-0.830978	-1.166068	-0.386290
C37	C	-0.776370	-1.166042	-0.386281
C38	C	-0.752860	-1.220182	-0.447135
C39	C	-0.698267	-1.220169	-0.447100
N40	N	-0.674754	-1.274298	-0.507957
C41	C	-0.705846	-1.328457	-0.568829
C42	C	-1.031352	-1.220332	-0.447211
C43	C	-1.085956	-1.220366	-0.447221
C44	C	-1.093534	-1.328659	-0.568954
C45	C	-1.038930	-1.328629	-0.568939
C46	C	-1.007839	-1.274461	-0.508068
C47	C	-0.591177	-1.328402	-0.568779
C48	C	-0.536570	-1.328376	-0.568750
C49	C	-0.528996	-1.220079	-0.447021
C50	C	-0.583598	-1.220109	-0.447046
C51	C	-0.614688	-1.274273	-0.507933
O52	O	-0.666763	-1.174153	-0.395339
O53	O	-0.680825	-1.374480	-0.620589
C54	C	-0.175163	-1.274459	-0.508054
C55	C	-0.117052	-1.274521	-0.508096
C56	C	-0.319845	-1.508837	-0.521486
C57	C	-0.323390	-1.608777	-0.527252
C58	C	-0.363648	-0.746328	-0.592738
C59	C	-0.360332	-0.652423	-0.587344
C60	C	-0.289760	-0.659043	-0.472553
C61	C	-0.293077	-0.752947	-0.477948
C62	C	-0.330022	-0.796586	-0.538041
C63	C	-0.333341	-0.890492	-0.543431
C64	C	-0.262767	-0.897110	-0.428646
C65	C	-0.259451	-0.803205	-0.423251
C66	C	-0.265089	-1.359351	-1.036900
C67	C	-0.268030	-1.353954	-1.130802
C68	C	-0.330827	-1.238880	-1.124126
C69	C	-0.327886	-1.244277	-1.030223
C70	C	-0.295017	-1.304516	-0.986614
C71	C	-0.292079	-1.309918	-0.892710
C72	C	-0.354873	-1.194840	-0.886035
C73	C	-0.357814	-1.189442	-0.979937
C74	C	-0.304171	-1.287799	-0.274347
C75	C	-0.300898	-1.293721	-0.174419
H76	H	-0.616484	-1.372501	-0.618365
H77	H	-0.602741	-1.176032	-0.397487
H78	H	-0.363425	-0.926022	-0.592361
H79	H	-0.259678	-0.623495	-0.423634
H80	H	-0.357588	-1.189836	-1.159649
H81	H	-0.238328	-1.408404	-1.001393
C82	C	-0.404289	-0.794339	-0.658833
C83	C	-0.463026	-0.781820	-0.650552
C84	C	-0.503667	-0.829831	-0.716646
C85	C	-0.485571	-0.890361	-0.791021
C86	C	-0.426831	-0.902882	-0.799305
C87	C	-0.386189	-0.854871	-0.733211
H88	H	-0.476424	-0.737011	-0.595492
H89	H	-0.547151	-0.820562	-0.710514
H90	H	-0.515656	-0.925901	-0.839948
H91	H	-0.413432	-0.947692	-0.854364
H92	H	-0.342706	-0.864141	-0.739343
H93	H	-0.384574	-1.140396	-1.015457
H94	H	-0.265316	-1.358968	-0.857205
H95	H	-0.379244	-1.150191	-0.845082
H96	H	-0.517430	-1.372466	-0.618306
H97	H	-0.229369	-0.767661	-0.374327
H98	H	-0.387713	-0.611506	-0.631886
C99	C	-0.235111	-1.414276	-1.186118
C100	C	-0.198957	-1.480533	-1.138145
C101	C	-0.166036	-1.540856	-1.193461
C102	C	-0.169268	-1.534923	-1.296750
C103	C	-0.205423	-1.468663	-1.344729
C104	C	-0.238344	-1.408339	-1.289413
H105	H	-0.196563	-1.484928	-1.061679
H106	H	-0.139271	-1.589906	-1.157944
H107	H	-0.144897	-1.579578	-1.337699
H108	H	-0.207817	-1.464268	-1.421195
H109	H	-0.265109	-1.359289	-1.324930
H110	H	-0.772404	-1.426728	-0.679271
H111	H	-0.850111	-1.121982	-0.336735
C112	C	-0.997154	-1.160753	-0.380236
C113	C	-1.001757	-1.174066	-0.278460
C114	C	-0.967563	-1.114488	-0.211486
C115	C	-0.928766	-1.041597	-0.246290
C116	C	-0.924162	-1.028281	-0.348071
C117	C	-0.958356	-1.087859	-0.415045
H118	H	-1.030478	-1.228027	-0.252692
H119	H	-0.970972	-1.124345	-0.136141
H120	H	-0.903454	-0.997493	-0.196712
H121	H	-0.895441	-0.974320	-0.373839
H122	H	-0.954947	-1.078002	-0.490390
H123	H	-0.235387	-0.938040	-0.384105
H124	H	-0.871454	-1.426772	-0.679311
H125	H	-1.019791	-1.372714	-0.618493
H126	H	-1.118859	-1.372757	-0.618521
H127	H	-1.105093	-1.176290	-0.397657
H128	H	-0.503673	-1.175987	-0.397457
C129	C	-0.742170	-1.106457	-0.319317
C130	C	-0.746770	-1.119757	-0.217539
C131	C	-0.712572	-1.060175	-0.150575
C132	C	-0.673773	-0.987294	-0.185390
C133	C	-0.669171	-0.973992	-0.287174
C134	C	-0.703370	-1.033573	-0.354138
H135	H	-0.775493	-1.173710	-0.191762
H136	H	-0.715978	-1.070023	-0.075228
H137	H	-0.648457	-0.943188	-0.135820
H138	H	-0.640448	-0.920038	-0.312951
H139	H	-0.699963	-1.023726	-0.429485
