data_functionalizedCrystal
_audit_creation_method	'MofGen! by Chris Wilmer'
_symmetry_space_group_name_H-M	'P1'
_symmetry_Int_Tables_number	1
_symmetry_cell_setting	triclinic
loop_
_symmetry_equiv_pos_as_xyz
  x,y,z
_cell_length_a	16.109301
_cell_length_b	10.540510
_cell_length_c	14.586319
_cell_angle_alpha	89.998684
_cell_angle_beta	89.999213
_cell_angle_gamma	83.987396
loop_
_atom_site_label
_atom_site_type_symbol
_atom_site_fract_x
_atom_site_fract_y
_atom_site_fract_z
O1	O	1.104117	0.163161	-0.076177
O2	O	1.604117	0.663161	0.423823
O3	O	0.862178	0.183466	-0.076191
O4	O	1.362178	0.683466	0.423809
O5	O	0.988680	-0.011474	-0.076184
O6	O	1.488680	0.488526	0.423816
O7	O	0.977615	0.358101	-0.076185
O8	O	1.477615	0.858101	0.423815
O9	O	0.988671	-0.011477	0.076297
O10	O	1.488671	0.488523	0.576297
O11	O	0.862169	0.183463	0.076290
O12	O	1.362169	0.683463	0.576290
O13	O	1.104108	0.163158	0.076304
O14	O	1.604108	0.663158	0.576304
Cu15	Cu	0.983138	0.173311	0.090219
Cu16	Cu	1.483138	0.673311	0.590219
Cu17	Cu	0.983148	0.173314	-0.090107
Cu18	Cu	1.483148	0.673314	0.409893
O19	O	0.977606	0.358099	0.076296
O20	O	1.477606	0.858099	0.576296
C21	C	0.831194	0.182642	0.000047
C22	C	1.331194	0.682642	0.500047
C23	C	0.738883	0.180176	0.000042
C24	C	1.238883	0.680176	0.500042
C25	C	0.987851	-0.058767	0.000055
C26	C	1.487851	0.441233	0.500055
C27	C	0.985384	-0.199682	0.000049
C28	C	1.485384	0.300318	0.500049
C29	C	0.517276	0.290116	0.000052
C30	C	1.017276	0.790116	0.500052
C31	C	0.430541	0.287789	0.000058
C32	C	0.930541	0.787789	0.500058
C33	C	0.449017	0.056499	0.000055
C34	C	0.949017	0.556499	0.500055
C35	C	0.535750	0.058828	0.000056
C36	C	1.035750	0.558828	0.500056
C37	C	0.569877	0.175640	0.000050
C38	C	1.069877	0.675640	0.500050
C39	C	0.396409	0.170985	0.000055
C40	C	0.896409	0.670985	0.500055
C41	C	0.302368	0.168461	0.000061
C42	C	0.802368	0.668461	0.500061
C43	C	0.663924	0.178164	0.000045
C44	C	1.163924	0.678164	0.500045
C45	C	1.073265	-0.418390	0.000404
C46	C	1.573265	0.081610	0.500404
C47	C	1.075896	-0.271832	0.000055
C48	C	1.575896	0.228168	0.500055
C49	C	0.939056	-0.243779	-0.087026
C50	C	1.439056	0.256221	0.412974
C51	C	0.937065	-0.390511	-0.087094
C52	C	1.437065	0.109489	0.412906
C53	C	0.935170	-0.390296	0.086305
C54	C	1.435170	0.109704	0.586305
C55	C	0.939463	-0.244016	0.087452
C56	C	1.439463	0.255984	0.587452
C57	C	1.135093	0.163982	0.000063
C58	C	1.635093	0.663982	0.500063
C59	C	1.227403	0.166448	0.000062
C60	C	1.727403	0.666448	0.500062
C61	C	0.978435	0.405392	0.000055
C62	C	1.478435	0.905392	0.500055
C63	C	0.980902	0.546307	0.000055
C64	C	1.480902	1.046307	0.500055
N65	N	0.983136	0.173307	0.217051
N66	N	1.483136	0.673307	0.717051
N67	N	0.983156	0.173307	-0.216939
N68	N	1.483156	0.673307	0.283061
C69	C	1.039171	0.087017	0.452061
C70	C	1.539171	0.587017	0.952061
C71	C	1.039173	0.087014	0.548042
C72	C	1.539173	0.587014	1.048042
C73	C	0.927116	0.259602	0.548045
C74	C	1.427116	0.759602	1.048045
C75	C	0.927110	0.259598	0.452065
C76	C	1.427110	0.759598	0.952065
C77	C	0.983142	0.173307	0.404076
C78	C	1.483142	0.673307	0.904076
C79	C	0.983150	0.173308	0.596037
C80	C	1.483150	0.673308	1.096037
C81	C	0.983153	0.173305	0.700104
C82	C	1.483153	0.673305	1.200104
C83	C	0.983139	0.173307	0.300002
C84	C	1.483139	0.673307	0.800002
H85	H	0.545058	0.385232	0.000054
H86	H	1.045058	0.885232	0.500054
O87	O	0.981937	-0.203780	-0.172769
O88	O	1.481937	0.296220	0.327231
H89	H	0.981061	-0.098356	-0.173872
H90	H	1.481061	0.401644	0.326128
H91	H	0.578580	-0.034399	0.000056
H92	H	1.078580	0.465601	0.500056
O93	O	0.373804	0.411259	0.000058
O94	O	0.873804	0.911259	0.500058
H95	H	0.412109	0.492871	0.000048
H96	H	0.912109	0.992871	0.500048
H97	H	0.881481	0.329866	0.412993
H98	H	1.381481	0.829866	0.912993
H99	H	0.421221	-0.038605	0.000065
H100	H	0.921221	0.461395	0.500065
O101	O	1.123929	-0.233635	0.082719
O102	O	1.623929	0.266365	0.582719
H103	H	1.145484	-0.319918	0.123304
H104	H	1.645484	0.180082	0.623304
O105	O	1.099613	-0.006040	0.599801
O106	O	1.599613	0.493960	1.099801
H107	H	1.138578	-0.066029	0.550303
H108	H	1.638578	0.433971	1.050303
O109	O	1.119960	-0.474606	0.083136
O110	O	1.619960	0.025394	0.583136
H111	H	1.120940	-0.580037	0.081749
H112	H	1.620940	-0.080037	0.581749
O113	O	1.119717	-0.476661	-0.081841
O114	O	1.619717	0.023339	0.418159
H115	H	1.077307	-0.530653	-0.122967
H116	H	1.577307	-0.030653	0.377033
H117	H	0.867213	-0.411477	0.086888
H118	H	1.367213	0.088523	0.586888
H119	H	1.112363	-0.243946	-0.062467
H120	H	1.612363	0.256054	0.437533
H121	H	0.881497	0.329860	0.587127
H122	H	1.381497	0.829860	1.087127
H123	H	0.869368	-0.412541	-0.091043
H124	H	1.369368	0.087459	0.408957
H125	H	0.968733	-0.431177	-0.152180
H126	H	1.468733	0.068823	0.347820
O127	O	0.850794	-0.179746	-0.091337
O128	O	1.350794	0.320254	0.408663
H129	H	0.838984	-0.115656	-0.031322
H130	H	1.338984	0.384344	0.468678
H131	H	0.963930	-0.432889	0.152308
H132	H	1.463930	0.067111	0.652308
H133	H	0.973174	-0.215886	0.151869
H134	H	1.473174	0.284114	0.651869
H135	H	0.873382	-0.194008	0.092706
H136	H	1.373382	0.305992	0.592706
O137	O	1.099592	-0.006063	0.400296
O138	O	1.599592	0.493937	0.900296
H139	H	1.138545	-0.066076	0.449792
H140	H	1.638545	0.433924	0.949792
