data_functionalizedCrystal
_audit_creation_method	'MofGen! by Chris Wilmer'
_symmetry_space_group_name_H-M	'P1'
_symmetry_Int_Tables_number	1
_symmetry_cell_setting	triclinic
loop_
_symmetry_equiv_pos_as_xyz
  x,y,z
_cell_length_a	10.654559
_cell_length_b	16.109304
_cell_length_c	9.730223
_cell_angle_alpha	90.001479
_cell_angle_beta	89.999563
_cell_angle_gamma	83.975661
loop_
_atom_site_label
_atom_site_type_symbol
_atom_site_fract_x
_atom_site_fract_y
_atom_site_fract_z
O1	O	1.666244	0.116807	-0.114288
O2	O	1.300617	0.127924	-0.114288
O3	O	1.493473	0.001394	-0.114289
O4	O	1.473388	0.243336	-0.114287
O5	O	1.493471	0.001398	0.114291
O6	O	1.300614	0.127927	0.114292
O7	O	1.666242	0.116810	0.114292
Zn8	Zn	1.483428	0.122369	0.150584
Zn9	Zn	1.483431	0.122365	-0.150580
O10	O	1.473386	0.243339	0.114293
C11	C	1.253829	0.127108	0.000002
C12	C	1.114419	0.124661	0.000001
C13	C	1.063920	0.047862	0.000004
C14	C	0.932929	0.045568	-0.000006
C15	C	0.902947	0.196878	-0.000017
C16	C	1.033935	0.199171	-0.000016
C17	C	1.081229	-0.039496	0.000016
C18	C	0.950238	-0.041790	0.000006
C19	C	1.492658	-0.029584	-0.000002
C20	C	1.490217	-0.121893	-0.000011
C21	C	1.484578	-0.334266	-0.124605
C22	C	1.482273	-0.421000	-0.124604
C23	C	1.482277	-0.420994	0.124607
C24	C	1.484573	-0.334260	0.124604
C25	C	1.485730	-0.290900	-0.000006
C26	C	1.481129	-0.464366	-0.000002
C27	C	1.478630	-0.558407	0.000000
C28	C	1.488227	-0.196853	-0.000009
C29	C	1.713030	0.117626	-0.000001
C30	C	1.852439	0.120073	-0.000010
C31	C	1.474201	0.274318	0.000003
C32	C	1.476642	0.366627	0.000003
N33	N	1.483435	0.122371	0.356120
N34	N	1.483434	0.122356	-0.356116
C35	C	1.568853	0.066363	0.428046
C36	C	1.568850	0.066353	0.571929
C37	C	1.398006	0.178367	0.571948
C38	C	1.398004	0.178372	0.428067
C39	C	1.667493	0.001696	0.428036
C40	C	1.667490	0.001685	0.571919
H41	H	0.921331	-0.075948	0.095667
O42	O	1.485632	-0.292268	-0.245769
C43	C	1.484150	-0.349150	-0.355741
H44	H	1.442781	-0.407762	-0.319204
H45	H	1.423875	-0.319167	-0.442885
H46	H	1.584592	-0.366516	-0.394062
H47	H	1.485504	-0.298950	0.226073
O48	O	1.131706	-0.078648	-0.114138
C49	C	1.193959	-0.021958	-0.192867
H50	H	1.220968	0.030545	-0.123901
H51	H	1.282756	-0.055881	-0.240457
H52	H	1.128494	0.005300	-0.277903
H53	H	1.758402	0.021947	0.383410
O54	O	0.824635	0.269198	-0.000210
C55	C	0.747999	0.272403	-0.118616
H56	H	0.741394	0.206373	-0.158082
H57	H	0.649540	0.302811	-0.091999
H58	H	0.791089	0.310618	-0.201512
H59	H	1.328439	0.223971	0.369507
H60	H	1.328450	0.223960	0.630543
H61	H	1.646916	-0.062208	0.388982
H62	H	1.637795	-0.058704	0.616534
H63	H	1.481332	-0.456305	-0.226065
H64	H	1.075045	0.261708	-0.000042
H65	H	0.914987	-0.069615	-0.098690
H66	H	1.763808	0.015932	0.610970
O67	O	1.136083	-0.071124	0.117678
C68	C	1.111669	-0.154959	0.133129
H69	H	1.089987	-0.181814	0.028418
H70	H	1.198000	-0.192716	0.179205
H71	H	1.027281	-0.158139	0.204258
O72	O	1.481223	-0.463250	0.245523
C73	C	1.478925	-0.549101	0.218811
H74	H	1.518336	-0.564160	0.111720
H75	H	1.538996	-0.586986	0.298382
H76	H	1.377587	-0.565579	0.224731
