data_functionalizedCrystal
_audit_creation_method	'MofGen! by Chris Wilmer'
_symmetry_space_group_name_H-M	'P1'
_symmetry_Int_Tables_number	1
_symmetry_cell_setting	triclinic
loop_
_symmetry_equiv_pos_as_xyz
  x,y,z
_cell_length_a	16.120490
_cell_length_b	12.827892
_cell_length_c	12.827885
_cell_angle_alpha	90.029786
_cell_angle_beta	92.917123
_cell_angle_gamma	87.107940
loop_
_atom_site_label
_atom_site_type_symbol
_atom_site_fract_x
_atom_site_fract_y
_atom_site_fract_z
Zn1	Zn	1.274622	-0.497187	0.671786
Zn2	Zn	1.274538	-0.671959	0.497041
Zn3	Zn	1.135200	-0.488355	0.488207
Zn4	Zn	1.135188	-0.663003	0.662893
O5	O	1.204887	-0.580126	0.579982
O6	O	1.391278	-0.527815	0.656025
O7	O	1.256024	-0.647655	0.349631
O8	O	1.153735	-0.343293	0.512584
O9	O	1.391216	-0.656219	0.527641
O10	O	1.256168	-0.349782	0.647459
O11	O	1.153653	-0.512763	0.343141
O12	O	1.018531	-0.504079	0.503960
O13	O	1.153715	-0.640956	0.810310
O14	O	1.018522	-0.632392	0.632301
O15	O	1.256156	-0.519131	0.816845
O16	O	1.256012	-0.817004	0.519017
O17	O	1.153633	-0.810425	0.640867
C18	C	1.204835	-0.851633	0.579960
C19	C	1.204889	-0.967789	0.579990
C20	C	0.988276	-0.566306	0.566207
C21	C	0.895609	-0.560419	0.560339
C22	C	1.255610	-1.022799	0.519769
C23	C	1.255667	-1.142853	0.519799
C24	C	0.684675	-0.610655	0.610422
C25	C	0.725951	-0.549680	0.549624
C26	C	0.820357	-0.555657	0.555588
C27	C	0.590259	-0.604680	0.604459
C28	C	1.422344	-0.594001	0.593811
C29	C	1.515011	-0.599913	0.599704
C30	C	1.204944	-0.580029	0.852556
C31	C	1.204968	-0.579988	0.968710
C32	C	1.204962	-0.307561	0.580028
C33	C	1.204994	-0.191410	0.580047
C34	C	1.204878	-0.580150	0.308471
C35	C	1.205016	-0.579907	0.192327
C36	C	1.255665	-0.519693	1.023729
C37	C	1.255691	-0.519649	1.143781
H38	H	1.298995	-0.981018	0.468193
N39	N	1.310145	-0.454902	1.203128
N40	N	1.310092	-0.454961	1.300566
H41	H	1.348552	-0.409233	1.342484
H42	H	1.161578	-0.631569	1.010485
N43	N	1.150462	-1.020212	0.644685
N44	N	1.097428	-1.077846	0.604445
H45	H	1.058987	-1.114869	0.650136
H46	H	1.299046	-0.468102	0.981954
N47	N	0.681355	-0.478570	0.478685
N48	N	0.720110	-0.421248	0.421512
H49	H	0.688613	-0.371031	0.371408
N50	N	1.150559	-0.644656	1.132987
N51	N	1.097476	-0.604464	1.068691
H52	H	1.059014	-0.650191	1.026773
H53	H	1.299088	-1.190147	0.468239
H54	H	1.161564	-1.144122	0.631604
H55	H	0.720237	-0.667343	0.666946
