data_functionalizedCrystal
_audit_creation_method	'MofGen! by Chris Wilmer'
_symmetry_space_group_name_H-M	'P1'
_symmetry_Int_Tables_number	1
_symmetry_cell_setting	triclinic
loop_
_symmetry_equiv_pos_as_xyz
  x,y,z
_cell_length_a	17.699083
_cell_length_b	10.868271
_cell_length_c	17.699092
_cell_angle_alpha	90.003449
_cell_angle_beta	83.284691
_cell_angle_gamma	89.998288
loop_
_atom_site_label
_atom_site_type_symbol
_atom_site_fract_x
_atom_site_fract_y
_atom_site_fract_z
O1	O	1.004078	0.102145	0.095711
O2	O	1.337412	0.435479	0.429045
O3	O	1.670745	0.768812	0.762378
O4	O	0.783700	0.102185	0.108164
O5	O	1.117034	0.435518	0.441497
O6	O	1.450367	0.768852	0.774830
O7	O	0.900112	0.102161	-0.008251
O8	O	1.233446	0.435494	0.325082
O9	O	1.566779	0.768828	0.658415
O10	O	0.887666	0.102169	0.212126
O11	O	1.221000	0.435502	0.545460
O12	O	1.554333	0.768836	0.878793
O13	O	0.900103	-0.102484	-0.008256
O14	O	1.233436	0.230850	0.325078
O15	O	1.566769	0.564183	0.658411
O16	O	0.783691	-0.102460	0.108159
O17	O	1.117024	0.230874	0.441493
O18	O	1.450357	0.564207	0.774826
O19	O	1.004069	-0.102499	0.095707
O20	O	1.337402	0.230834	0.429040
O21	O	1.670736	0.564167	0.762373
Zn22	Zn	0.893878	-0.134971	0.101932
Zn23	Zn	1.227212	0.198362	0.435266
Zn24	Zn	1.560545	0.531695	0.768599
Zn25	Zn	0.893891	0.134657	0.101938
Zn26	Zn	1.227224	0.467990	0.435272
Zn27	Zn	1.560558	0.801323	0.768605
O28	O	0.887657	-0.102476	0.212122
O29	O	1.220990	0.230858	0.545455
O30	O	1.554324	0.564191	0.878788
C31	C	0.755499	-0.000132	0.107715
C32	C	1.088832	0.333201	0.441049
C33	C	1.422165	0.666534	0.774382
C34	C	0.671480	-0.000117	0.106377
C35	C	1.004814	0.333216	0.439710
C36	C	1.338147	0.666550	0.773043
N37	N	0.893875	-0.318985	0.101928
N38	N	1.227209	0.014348	0.435261
N39	N	1.560542	0.347681	0.768594
C40	C	0.622862	-0.000115	0.174710
C41	C	0.956195	0.333218	0.508043
C42	C	1.289528	0.666552	0.841376
C43	C	0.543918	-0.000131	0.173448
C44	C	0.877251	0.333202	0.506781
C45	C	1.210585	0.666536	0.840114
C46	C	0.513595	-0.000140	0.103851
C47	C	0.846929	0.333193	0.437185
C48	C	1.180262	0.666526	0.770518
C49	C	0.562220	-0.000146	0.035513
C50	C	0.895554	0.333187	0.368846
C51	C	1.228887	0.666521	0.702180
C52	C	0.641162	-0.000139	0.036776
C53	C	0.974496	0.333195	0.370109
C54	C	1.307829	0.666528	0.703443
C55	C	0.243857	-0.000177	0.030418
C56	C	0.577191	0.333157	0.363751
C57	C	0.910524	0.666490	0.697084
C58	C	0.164909	-0.000180	0.029160
C59	C	0.498243	0.333153	0.362493
C60	C	0.831576	0.666487	0.695827
C61	C	0.146613	-0.000169	0.167089
C62	C	0.479946	0.333165	0.500423
C63	C	0.813280	0.666498	0.833756
C64	C	0.225555	-0.000162	0.168352
C65	C	0.558888	0.333172	0.501686
C66	C	0.892222	0.666505	0.835019
C67	C	0.274173	-0.000174	0.100014
C68	C	0.607507	0.333160	0.433348
C69	C	0.940840	0.666493	0.766681
C70	C	0.359772	-0.000159	0.101384
C71	C	0.693106	0.333175	0.434717
C72	C	1.026439	0.666508	0.768051
C73	C	0.427998	-0.000146	0.102481
C74	C	0.761331	0.333187	0.435814
C75	C	1.094664	0.666520	0.769148
C76	C	0.893887	-0.569991	0.101937
C77	C	1.227220	-0.236658	0.435270
C78	C	1.560554	0.096675	0.768603
C79	C	0.893878	-0.430314	0.101934
C80	C	1.227211	-0.096981	0.435267
C81	C	1.560545	0.236353	0.768601
C82	C	1.032271	-0.000180	0.096155
C83	C	1.365604	0.333154	0.429489
C84	C	1.698937	0.666487	0.762822
C85	C	1.116289	-0.000187	0.097494
C86	C	1.449622	0.333147	0.430827
C87	C	1.782955	0.666480	0.764160
C88	C	0.899661	-0.000159	-0.036450
C89	C	1.232994	0.333174	0.296883
C90	C	1.566327	0.666507	0.630216
C91	C	0.898319	-0.000153	-0.120468
C92	C	1.231653	0.333180	0.212865
C93	C	1.564986	0.666513	0.546199
N94	N	0.893900	0.318671	0.101937
N95	N	1.227233	0.652004	0.435270
N96	N	1.560567	0.985338	0.768603
C97	C	0.897696	0.111400	-0.159933
C98	C	1.231030	0.444733	0.173400
C99	C	1.564363	0.778067	0.506734
C100	C	0.896431	0.111402	-0.238876
C101	C	1.229765	0.444735	0.094457
C102	C	1.563098	0.778068	0.427791
C103	C	0.895795	-0.000151	-0.278353
C104	C	1.229128	0.333182	0.054980
C105	C	1.562462	0.666515	0.388313
C106	C	0.896416	-0.111713	-0.238883
C107	C	1.229749	0.221620	0.094451
C108	C	1.563083	0.554953	0.427784
C109	C	0.897675	-0.111714	-0.159940
C110	C	1.231009	0.221620	0.173393
C111	C	1.564342	0.554953	0.506726
C112	C	0.891336	-0.111714	-0.557248
C113	C	1.224669	0.221619	-0.223914
C114	C	1.558002	0.554953	0.109419
C115	C	0.890078	-0.111705	-0.636196
C116	C	1.223412	0.221628	-0.302862
C117	C	1.556745	0.554962	0.030471
C118	C	0.890092	0.111401	-0.636183
C119	C	1.223425	0.444735	-0.302850
C120	C	1.556758	0.778068	0.030483
C121	C	0.891351	0.111401	-0.557241
C122	C	1.224684	0.444734	-0.223908
C123	C	1.558018	0.778067	0.109426
C124	C	0.891968	-0.000160	-0.517777
C125	C	1.225301	0.333173	-0.184443
C126	C	1.558635	0.666506	0.148890
C127	C	0.893338	-0.000161	-0.432178
C128	C	1.226671	0.333173	-0.098844
C129	C	1.560005	0.666506	0.234489
C130	C	0.894430	-0.000152	-0.363952
C131	C	1.227764	0.333181	-0.030618
C132	C	1.561097	0.666515	0.302715
C133	C	0.888109	-0.000153	0.240321
C134	C	1.221442	0.333181	0.573654
C135	C	1.554775	0.666514	0.906988
C136	C	0.889450	-0.000150	0.324339
C137	C	1.222783	0.333183	0.657672
C138	C	1.556116	0.666516	0.991005
H139	H	0.647544	-0.000107	0.231383
H140	H	0.980877	0.333227	0.564716
H141	H	1.314210	0.666560	0.898050
H142	H	0.107018	-0.000165	0.222733
H143	H	0.440352	0.333168	0.556067
H144	H	0.773685	0.666501	0.889400
C145	C	0.086742	-0.105396	-0.052273
C146	C	0.420075	0.227937	0.281060
C147	C	0.753408	0.561271	0.614394
C148	C	0.131574	-0.000198	-0.047345
C149	C	0.464908	0.333136	0.285989
C150	C	0.798241	0.666469	0.619322
H151	H	0.066158	-0.105399	-0.099499
H152	H	0.399492	0.227935	0.233834
H153	H	0.732825	0.561268	0.567168
H154	H	0.117160	-0.176746	-0.048918
H155	H	0.450494	0.156588	0.284415
H156	H	0.783827	0.489921	0.617749
H157	H	0.046493	-0.105375	-0.011749
H158	H	0.379826	0.227959	0.321584
H159	H	0.713160	0.561292	0.654917
H160	H	0.171827	-0.000224	-0.087865
H161	H	0.505160	0.333110	0.245468
H162	H	0.838493	0.666443	0.578801
H163	H	0.101154	0.071171	-0.050707
H164	H	0.434487	0.404504	0.282626
H165	H	0.767821	0.737837	0.615960
H166	H	0.889558	-0.202550	-0.668336
H167	H	1.222891	0.130783	-0.335002
H168	H	1.556225	0.464116	-0.001669
H169	H	0.895893	-0.202542	-0.271031
H170	H	1.229226	0.130792	0.062303
H171	H	1.562560	0.464125	0.395636
H172	H	0.283433	-0.000188	-0.025227
H173	H	0.616767	0.333146	0.308106
H174	H	0.950100	0.666479	0.641439
H175	H	0.898172	-0.202552	-0.127808
H176	H	1.231505	0.130782	0.205526
H177	H	1.564839	0.464115	0.538859
C178	C	0.740557	0.105062	-0.041818
C179	C	1.073890	0.438396	0.291515
C180	C	1.407224	0.771729	0.624849
C181	C	0.694611	-0.000137	-0.038336
C182	C	1.027944	0.333197	0.294997
C183	C	1.361277	0.666530	0.628331
H184	H	0.773556	0.105053	-0.088189
H185	H	1.106889	0.438386	0.245145
H186	H	1.440223	0.771720	0.578478
H187	H	0.709378	0.176412	-0.039448
H188	H	1.042711	0.509745	0.293885
H189	H	1.376045	0.843078	0.627218
H190	H	0.769907	0.105054	-0.000183
H191	H	1.103241	0.438388	0.333150
H192	H	1.436574	0.771721	0.666484
H193	H	0.665256	-0.000124	-0.079968
H194	H	0.998589	0.333209	0.253365
H195	H	1.331923	0.666543	0.586699
H196	H	0.725793	-0.071505	-0.040713
H197	H	1.059127	0.261829	0.292620
H198	H	1.392460	0.595162	0.625954
H199	H	0.537525	-0.000171	-0.021154
H200	H	0.870859	0.333162	0.312180
H201	H	1.204192	0.666496	0.645513
H202	H	0.895927	0.202240	-0.271005
H203	H	1.229261	0.535573	0.062328
H204	H	1.562594	0.868906	0.395661
H205	H	0.504335	-0.000128	0.229091
H206	H	0.837669	0.333206	0.562425
H207	H	1.171002	0.666539	0.895758
H208	H	0.898219	0.202240	-0.127797
H209	H	1.231552	0.535573	0.205536
H210	H	1.564885	0.868906	0.538870
C211	C	0.199538	-0.000167	0.304568
C212	C	0.532871	0.333167	0.637901
C213	C	0.866205	0.666500	0.971235
C214	C	0.258885	-0.000158	0.244854
C215	C	0.592218	0.333176	0.578188
C216	C	0.925551	0.666509	0.911521
H217	H	0.220115	-0.000176	0.351797
H218	H	0.553449	0.333158	0.685130
H219	H	0.886782	0.666491	1.018464
H220	H	0.169127	0.071192	0.301212
H221	H	0.502461	0.404525	0.634545
H222	H	0.835794	0.737859	0.967879
H223	H	0.169130	-0.071537	0.301198
H224	H	0.502464	0.261797	0.634531
H225	H	0.835797	0.595130	0.967864
H226	H	0.289289	0.071218	0.248221
H227	H	0.622623	0.404551	0.581555
H228	H	0.955956	0.737884	0.914888
H229	H	0.289308	-0.071523	0.248212
H230	H	0.622641	0.261810	0.581545
H231	H	0.955975	0.595143	0.914879
H232	H	0.891873	0.202239	-0.525103
H233	H	1.225206	0.535572	-0.191770
H234	H	1.558540	0.868905	0.141564
H235	H	0.889585	0.202240	-0.668324
H236	H	1.222919	0.535573	-0.334991
H237	H	1.556252	0.868906	-0.001658
H238	H	0.891853	-0.202554	-0.525127
H239	H	1.225186	0.130779	-0.191794
H240	H	1.558520	0.464113	0.141540
