data_functionalizedCrystal
_audit_creation_method	'MofGen! by Chris Wilmer'
_symmetry_space_group_name_H-M	'P1'
_symmetry_Int_Tables_number	1
_symmetry_cell_setting	triclinic
loop_
_symmetry_equiv_pos_as_xyz
  x,y,z
_cell_length_a	11.026607
_cell_length_b	15.538191
_cell_length_c	10.065875
_cell_angle_alpha	95.296196
_cell_angle_beta	79.302338
_cell_angle_gamma	77.929055
loop_
_atom_site_label
_atom_site_type_symbol
_atom_site_fract_x
_atom_site_fract_y
_atom_site_fract_z
O1	O	1.470678	0.356970	-0.113462
O2	O	1.135783	0.315173	-0.113467
O3	O	1.368422	0.209996	-0.113470
O4	O	1.238039	0.462147	-0.113459
O5	O	1.324016	0.230155	0.113519
O6	O	1.091377	0.335332	0.113522
O7	O	1.426272	0.377128	0.113528
Zn8	Zn	1.251774	0.359431	0.149564
Zn9	Zn	1.310281	0.332871	-0.149504
O10	O	1.193633	0.482306	0.113530
C11	C	1.071766	0.317542	0.000026
C12	C	0.947177	0.294556	0.000024
C13	C	0.845415	0.358023	0.000026
C14	C	0.716645	0.334268	0.000023
C15	C	1.359861	0.187293	0.000020
C16	C	1.400496	0.089608	0.000008
C17	C	0.996816	-0.266634	0.000030
C18	C	1.035024	-0.358420	0.000034
C19	C	1.249941	-0.344418	0.000037
C20	C	1.211752	-0.252629	0.000026
C21	C	1.085188	-0.213744	0.000025
C22	C	1.300124	-0.199740	0.000021
C23	C	1.261936	-0.107959	0.000018
C24	C	1.135376	-0.069067	0.000020
C25	C	1.047000	-0.121963	0.000021
C26	C	1.426686	-0.238625	0.000032
C27	C	1.515058	-0.185736	0.000027
C28	C	1.476872	-0.093954	0.000014
C29	C	1.350313	-0.055062	0.000016
C30	C	1.565249	-0.041058	0.000013
C31	C	1.527061	0.050724	0.000009
C32	C	1.312125	0.036719	0.000013
C33	C	1.490290	0.374759	0.000031
C34	C	1.614881	0.397744	0.000025
C35	C	1.202195	0.505009	0.000037
C36	C	1.161561	0.602692	0.000041
N37	N	1.211853	0.377558	0.353670
N38	N	1.350215	0.314738	-0.353610
C39	C	1.296387	0.339171	0.421448
C40	C	1.265668	0.353131	0.578616
H41	H	0.623080	0.469674	0.000037
H42	H	1.599022	0.093788	0.000007
Cl43	Cl	1.443073	0.272233	0.331405
H44	H	1.170544	0.396329	0.636938
Cl45	Cl	0.934511	0.183510	0.000029
H46	H	1.445333	0.271532	0.588068
Cl47	Cl	1.153014	0.085609	-0.000003
Cl48	Cl	1.087363	0.046318	0.000029
H49	H	0.853624	0.429947	0.000036
H50	H	0.943940	-0.090302	0.000010
H51	H	0.893756	-0.234973	0.000019
Cl52	Cl	0.703987	0.223217	0.000028
Cl53	Cl	0.923911	-0.424907	0.000050
Cl54	Cl	1.409043	-0.393309	0.000050
H55	H	1.457777	-0.313361	0.000023
Cl56	Cl	1.674160	-0.234628	0.000040
Cl57	Cl	1.724347	-0.089950	0.000041
Cl58	Cl	1.064994	0.444251	0.443713
