data_functionalizedCrystal
_audit_creation_method	'MofGen! by Chris Wilmer'
_symmetry_space_group_name_H-M	'P1'
_symmetry_Int_Tables_number	1
_symmetry_cell_setting	triclinic
loop_
_symmetry_equiv_pos_as_xyz
  x,y,z
_cell_length_a	15.944551
_cell_length_b	10.268362
_cell_length_c	11.792254
_cell_angle_alpha	90.005455
_cell_angle_beta	96.151332
_cell_angle_gamma	89.999906
loop_
_atom_site_label
_atom_site_type_symbol
_atom_site_fract_x
_atom_site_fract_y
_atom_site_fract_z
O1	O	1.115190	-0.108165	-0.146380
O2	O	0.870722	-0.108197	-0.164427
O3	O	0.998883	-0.108171	0.009815
O4	O	0.987029	-0.108191	-0.320622
O5	O	0.998872	0.108429	0.009822
O6	O	0.870711	0.108403	-0.164420
O7	O	1.115178	0.108436	-0.146373
Cu8	Cu	0.992944	0.128197	-0.155395
Cu9	Cu	0.992957	-0.127959	-0.155404
O10	O	0.987018	0.108409	-0.320615
C11	C	0.839419	0.000099	-0.163674
C12	C	0.746163	0.000087	-0.161428
N13	N	0.992940	0.308363	-0.155389
N14	N	0.992967	-0.308124	-0.155402
C15	C	0.530791	0.000119	-0.048056
C16	C	0.470015	-0.106680	-0.100705
C17	C	0.575418	0.000102	-0.157364
C18	C	0.470027	0.106871	-0.100724
C19	C	0.410488	0.000123	-0.153431
C20	C	0.515872	-0.106785	-0.210044
C21	C	0.515889	0.106863	-0.210048
C22	C	0.455132	0.000038	-0.262777
C23	C	0.670431	0.000089	-0.159627
C24	C	0.315477	0.000127	-0.151177
C25	C	1.146481	0.000137	-0.147125
C26	C	1.239738	0.000140	-0.149371
C27	C	0.998131	0.000129	0.052103
C28	C	0.995895	0.000127	0.178098
C29	C	0.992953	0.574033	-0.155402
C30	C	0.992943	0.426195	-0.155398
C31	C	0.987770	0.000107	-0.362903
C32	C	0.990005	0.000100	-0.488897
C33	C	0.994079	0.000122	0.280420
C34	C	0.991809	0.000110	0.408787
H35	H	0.449700	-0.196965	-0.054475
H36	H	0.536226	0.197152	-0.256240
H37	H	0.422386	-0.000027	-0.353588
H38	H	0.536074	-0.197173	-0.256246
N39	N	0.444560	0.220127	-0.042686
N40	N	0.471870	0.239130	0.059325
H41	H	0.453887	0.319111	0.100323
H42	H	0.563711	-0.000008	0.042661
