data_functionalizedCrystal
_audit_creation_method	'MofGen! by Chris Wilmer'
_symmetry_space_group_name_H-M	'P1'
_symmetry_Int_Tables_number	1
_symmetry_cell_setting	triclinic
loop_
_symmetry_equiv_pos_as_xyz
  x,y,z
_cell_length_a	16.974897
_cell_length_b	8.634740
_cell_length_c	15.455425
_cell_angle_alpha	92.553917
_cell_angle_beta	96.649483
_cell_angle_gamma	91.968344
loop_
_atom_site_label
_atom_site_type_symbol
_atom_site_fract_x
_atom_site_fract_y
_atom_site_fract_z
O1	O	1.071352	0.208842	0.147251
O2	O	1.571352	0.708842	0.647251
O3	O	0.842264	0.232514	0.131188
O4	O	1.342264	0.732514	0.631188
O5	O	0.945964	-0.003839	0.138458
O6	O	1.445964	0.496161	0.638458
O7	O	0.967652	0.445196	0.139982
O8	O	1.467652	0.945196	0.639982
O9	O	0.938836	-0.015863	-0.006302
O10	O	1.438836	0.484137	0.493698
O11	O	0.835136	0.220490	-0.013571
O12	O	1.335136	0.720490	0.486429
O13	O	1.064224	0.196818	0.002492
O14	O	1.564224	0.696818	0.502492
Cu15	Cu	0.949029	0.207556	-0.018757
Cu16	Cu	1.449029	0.707556	0.481243
Cu17	Cu	0.957459	0.221776	0.152438
Cu18	Cu	1.457459	0.721776	0.652438
O19	O	0.960525	0.433172	-0.004778
O20	O	1.460525	0.933172	0.495222
C21	C	0.809067	0.225374	0.056731
C22	C	1.309067	0.725374	0.556731
C23	C	0.720769	0.221996	0.050540
C24	C	1.220769	0.721996	0.550540
C25	C	0.683164	0.226966	0.126533
C26	C	1.183164	0.726966	0.626533
C27	C	0.600198	0.223815	0.120704
C28	C	1.100198	0.723815	0.620704
C29	C	0.554838	0.215683	0.038879
C30	C	1.054838	0.715683	0.538879
C31	C	0.592449	0.210717	-0.037120
C32	C	1.092449	0.710717	0.462880
C33	C	0.675413	0.213879	-0.031289
C34	C	1.175413	0.713879	0.468711
C35	C	0.306295	0.205534	0.012979
C36	C	0.806295	0.705534	0.512979
C37	C	0.223325	0.202367	0.007154
C38	C	0.723325	0.702367	0.507154
C39	C	0.231080	0.215468	0.164979
C40	C	0.731080	0.715468	0.664979
C41	C	0.314046	0.218621	0.170802
C42	C	0.814046	0.718621	0.670802
C43	C	0.351649	0.213663	0.094803
C44	C	0.851649	0.713663	0.594803
N45	N	0.470034	0.212457	0.032918
N46	N	0.970034	0.712457	0.532918
N47	N	0.436452	0.216900	0.100765
N48	N	0.936452	0.716900	0.600765
C49	C	0.937487	-0.067320	0.065735
C50	C	1.437487	0.432680	0.565735
C51	C	0.922837	-0.238559	0.064713
C52	C	1.422837	0.261441	0.564713
C53	C	1.097421	0.203958	0.076951
C54	C	1.597421	0.703958	0.576951
C55	C	1.185720	0.207337	0.083148
C56	C	1.685720	0.707337	0.583148
C57	C	0.969002	0.496653	0.067947
C58	C	1.469002	0.996653	0.567947
C59	C	0.983651	0.667892	0.068975
C60	C	1.483651	1.167892	0.568975
N61	N	0.943106	0.197554	-0.139166
N62	N	1.443106	0.697554	0.360834
C63	C	0.910367	0.141788	-0.685460
C64	C	1.410367	0.641788	-0.185460
C65	C	0.914845	0.149412	-0.594339
C66	C	1.414845	0.649412	-0.094339
C67	C	0.972342	0.247024	-0.544914
C68	C	1.472342	0.747024	-0.044914
C69	C	1.025368	0.337006	-0.586613
C70	C	1.525368	0.837006	-0.086613
C71	C	1.020892	0.329372	-0.677732
C72	C	1.520892	0.829372	-0.177732
C73	C	0.991657	0.279903	-0.271984
C74	C	1.491657	0.779903	0.228016
C75	C	0.996127	0.287533	-0.180860
C76	C	1.496127	0.787533	0.319140
C77	C	0.885605	0.099936	-0.188592
C78	C	1.385605	0.599936	0.311408
C79	C	0.881131	0.092318	-0.279712
C80	C	1.381131	0.592318	0.220288
C81	C	0.934160	0.182294	-0.321403
C82	C	1.434160	0.682294	0.178597
N83	N	0.976920	0.254822	-0.451774
N84	N	1.476920	0.754822	0.048226
N85	N	0.929585	0.174486	-0.414541
N86	N	1.429585	0.674486	0.085459
N87	N	0.963387	0.231766	0.272847
N88	N	1.463387	0.731766	0.772847
H89	H	0.569585	0.227863	0.182586
H90	H	1.069585	0.727863	0.682586
Cl91	Cl	1.068433	0.410210	-0.118724
Cl92	Cl	1.568433	0.910210	0.381276
Cl93	Cl	1.081348	-0.253505	0.075834
Cl94	Cl	1.581348	0.246495	0.575834
Cl95	Cl	0.825146	-0.317156	0.057868
Cl96	Cl	1.325146	0.182844	0.557868
H97	H	0.863543	0.062310	-0.725696
H98	H	1.363543	0.562310	-0.225696
Cl99	Cl	0.535425	0.200506	-0.139985
Cl100	Cl	1.035425	0.700506	0.360015
H101	H	0.834312	0.012830	-0.319948
H102	H	1.334312	0.512830	0.180052
Cl103	Cl	0.848166	0.036338	-0.541930
Cl104	Cl	1.348166	0.536338	-0.041930
H105	H	1.072186	0.416476	-0.546364
H106	H	1.572186	0.916476	-0.046364
Cl107	Cl	0.371064	0.228835	0.273671
Cl108	Cl	0.871064	0.728835	0.773671
H109	H	0.842432	0.026681	-0.154637
H110	H	1.342432	0.526681	0.345363
H111	H	1.034836	0.353169	-0.305918
H112	H	1.534836	0.853169	0.194082
Cl113	Cl	0.166301	0.192112	-0.095718
Cl114	Cl	0.666301	0.692112	0.404282
Cl115	Cl	0.740180	0.237179	0.229404
Cl116	Cl	1.240180	0.737179	0.729404
Cl117	Cl	0.183803	0.221684	0.260514
Cl118	Cl	0.683803	0.721684	0.760514
Cl119	Cl	0.722688	0.207637	-0.126828
Cl120	Cl	1.222688	0.707637	0.373172
Cl121	Cl	0.353556	0.199298	-0.082563
Cl122	Cl	0.853556	0.699298	0.417437
Cl123	Cl	1.087553	0.442486	-0.730146
Cl124	Cl	1.587553	0.942486	-0.230146
