data_functionalizedCrystal
_audit_creation_method	'MofGen! by Chris Wilmer'
_symmetry_space_group_name_H-M	'P1'
_symmetry_Int_Tables_number	1
_symmetry_cell_setting	triclinic
loop_
_symmetry_equiv_pos_as_xyz
  x,y,z
_cell_length_a	12.759401
_cell_length_b	21.395361
_cell_length_c	12.759393
_cell_angle_alpha	89.960721
_cell_angle_beta	89.980163
_cell_angle_gamma	90.032233
loop_
_atom_site_label
_atom_site_type_symbol
_atom_site_fract_x
_atom_site_fract_y
_atom_site_fract_z
Zn1	Zn	1.606138	-0.249376	-0.593964
Zn2	Zn	2.106138	0.250624	-0.093964
Zn3	Zn	1.605983	-0.354168	-0.418261
Zn4	Zn	2.105983	0.145832	0.081739
Zn5	Zn	1.430440	-0.249411	-0.418299
Zn6	Zn	1.930440	0.250589	0.081701
Zn7	Zn	1.430380	-0.354122	-0.593898
Zn8	Zn	1.930380	0.145878	-0.093898
O9	O	1.518235	-0.301769	-0.506106
O10	O	2.018235	0.198231	-0.006106
O11	O	1.753139	-0.263281	-0.570668
O12	O	2.253139	0.236719	-0.070668
O13	O	1.582658	-0.340306	-0.271245
O14	O	2.082658	0.159694	0.228755
O15	O	1.453837	-0.161729	-0.441645
O16	O	1.953837	0.338271	0.058355
O17	O	1.753025	-0.340272	-0.441580
O18	O	2.253025	0.159728	0.058420
O19	O	1.582921	-0.161703	-0.570706
O20	O	2.082921	0.338297	-0.070706
O21	O	1.453687	-0.263341	-0.271273
O22	O	1.953687	0.236659	0.228727
O23	O	1.283411	-0.263297	-0.441581
O24	O	1.783411	0.236703	0.058419
O25	O	1.453734	-0.340193	-0.740928
O26	O	1.953734	0.159807	-0.240928
O27	O	1.283367	-0.340228	-0.570593
O28	O	1.783367	0.159772	-0.070593
O29	O	1.582863	-0.263237	-0.740977
O30	O	2.082863	0.236763	-0.240977
O31	O	1.582599	-0.441840	-0.441516
O32	O	2.082599	0.058160	0.058484
O33	O	1.453584	-0.441806	-0.570556
O34	O	1.953584	0.058194	-0.070556
C35	C	1.245268	-0.301762	-0.506085
C36	C	1.745268	0.198238	-0.006085
C37	C	1.128491	-0.301773	-0.506101
C38	C	1.628491	0.198227	-0.006101
C39	C	1.073634	-0.341892	-0.573171
C40	C	1.573634	0.158108	-0.073171
C41	C	0.963910	-0.341895	-0.573192
C42	C	1.463910	0.158105	-0.073192
C43	C	0.963911	-0.261658	-0.439063
C44	C	1.463911	0.238342	0.060937
C45	C	1.073633	-0.261653	-0.439048
C46	C	1.573633	0.238347	0.060952
C47	C	1.518097	-0.464557	-0.506047
C48	C	2.018097	0.035443	-0.006047
C49	C	1.518133	-0.534198	-0.506057
C50	C	2.018133	-0.034198	-0.006057
C51	C	1.585371	-0.566908	-0.438935
C52	C	2.085371	-0.066908	0.061065
C53	C	1.585420	-0.632343	-0.438958
C54	C	2.085420	-0.132343	0.061042
C55	C	1.518212	-0.665067	-0.506093
C56	C	2.018212	-0.165067	-0.006093
C57	C	1.450970	-0.632349	-0.573229
C58	C	1.950970	-0.132349	-0.073229
C59	C	1.450930	-0.566915	-0.573211
C60	C	1.950930	-0.066915	-0.073211
C61	C	1.423614	-0.768782	-0.514329
C62	C	1.923614	-0.268782	-0.014329
C63	C	1.423652	-0.834215	-0.514340
C64	C	1.923652	-0.334215	-0.014340
C65	C	1.518335	-0.866887	-0.506155
C66	C	2.018335	-0.366887	-0.006155
C67	C	1.612983	-0.834119	-0.497937
C68	C	2.112983	-0.334119	0.002063
C69	C	1.612943	-0.768685	-0.497919
C70	C	2.112943	-0.268685	0.002081
C71	C	1.518248	-0.736019	-0.506121
C72	C	2.018248	-0.236019	-0.006121
C73	C	1.585631	-0.970550	-0.439054
C74	C	2.085631	-0.470550	0.060946
C75	C	1.585682	-1.035986	-0.439085
C76	C	2.085682	-0.535986	0.060915
C77	C	1.451222	-1.035990	-0.573350
C78	C	1.951222	-0.535990	-0.073350
C79	C	1.451181	-0.970555	-0.573325
C80	C	1.951181	-0.470555	-0.073325
C81	C	1.518384	-0.937839	-0.506171
C82	C	2.018384	-0.437839	-0.006171
C83	C	1.792269	-0.301777	-0.506127
C84	C	2.292269	0.198223	-0.006127
C85	C	1.909045	-0.301781	-0.506136
C86	C	2.409045	0.198219	-0.006136
C87	C	1.518309	-0.301706	-0.780139
C88	C	2.018309	0.198294	-0.280139
C89	C	1.518340	-0.301679	-0.896916
C90	C	2.018340	0.198321	-0.396916
C91	C	1.518403	-0.138346	-0.506187
C92	C	2.018403	0.361654	-0.006187
C93	C	1.518475	-0.068705	-0.506222
C94	C	2.018475	0.431295	-0.006222
C95	C	1.451209	-0.261596	-0.951792
C96	C	1.951209	0.238404	-0.451792
C97	C	1.451233	-0.261577	-1.061516
C98	C	1.951233	0.238423	-0.561516
C99	C	1.585529	-0.341725	-1.061478
C100	C	2.085529	0.158275	-0.561478
C101	C	1.585498	-0.341747	-0.951756
C102	C	2.085498	0.158253	-0.451756
C103	C	1.518223	-0.301787	-0.233138
C104	C	2.018223	0.198213	0.266862
C105	C	1.518395	-0.301638	-0.116362
C106	C	2.018395	0.198362	0.383638
H107	H	1.118299	-0.228979	-0.384431
H108	H	1.618299	0.271021	0.115569
H109	H	1.346583	-0.860890	-0.521021
H110	H	1.846583	-0.360890	-0.021021
H111	H	1.690008	-0.742006	-0.491231
H112	H	2.190008	-0.242006	0.008769
H113	H	1.640208	-0.374346	-1.106142
H114	H	2.140208	0.125654	-0.606142
H115	H	1.690083	-0.860719	-0.491272
H116	H	2.190083	-0.360719	0.008728
H117	H	1.118296	-0.374560	-0.627773
H118	H	1.618296	0.125440	-0.127773
H119	H	0.919249	-0.374563	-0.627809
H120	H	1.419249	0.125437	-0.127809
H121	H	1.396176	-0.540282	-0.627871
H122	H	1.896176	-0.040282	-0.127871
H123	H	0.919231	-0.228994	-0.384469
H124	H	1.419231	0.271006	0.115531
H125	H	1.640094	-0.540272	-0.384257
H126	H	2.140094	-0.040272	0.115743
H127	H	1.640177	-0.658981	-0.384300
H128	H	2.140177	-0.158981	0.115700
H129	H	1.396524	-0.228971	-0.907144
H130	H	1.896524	0.271029	-0.407144
H131	H	1.396568	-0.228938	-1.106192
H132	H	1.896568	0.271062	-0.606192
H133	H	1.640356	-0.943911	-0.384377
H134	H	2.140356	-0.443911	0.115623
H135	H	1.346506	-0.742186	-0.520999
H136	H	1.846506	-0.242186	-0.020999
H137	H	1.640167	-0.374389	-0.907075
H138	H	2.140167	0.125611	-0.407075
H139	H	1.640442	-1.062617	-0.384428
H140	H	2.140442	-0.562617	0.115572
H141	H	1.396505	-1.062633	-0.628017
H142	H	1.896505	-0.562633	-0.128017
H143	H	1.396425	-0.943921	-0.627978
H144	H	1.896425	-0.443921	-0.127978
H145	H	1.396251	-0.658996	-0.627892
H146	H	1.896251	-0.158996	-0.127892
