data_functionalizedCrystal
_audit_creation_method	'MofGen! by Chris Wilmer'
_symmetry_space_group_name_H-M	'P1'
_symmetry_Int_Tables_number	1
_symmetry_cell_setting	triclinic
loop_
_symmetry_equiv_pos_as_xyz
  x,y,z
_cell_length_a	10.654550
_cell_length_b	9.130313
_cell_length_c	10.654551
_cell_angle_alpha	90.001552
_cell_angle_beta	84.485132
_cell_angle_gamma	89.996220
loop_
_atom_site_label
_atom_site_type_symbol
_atom_site_fract_x
_atom_site_fract_y
_atom_site_fract_z
O1	O	1.667835	-0.121910	0.176393
O2	O	1.302356	-0.121885	0.193199
O3	O	1.493498	-0.121899	0.002057
O4	O	1.476693	-0.121896	0.367535
O5	O	1.493496	0.121700	0.002062
O6	O	1.302354	0.121713	0.193204
O7	O	1.667832	0.121689	0.176398
Cu8	Cu	1.485093	0.143944	0.184802
Cu9	Cu	1.485096	-0.144140	0.184796
O10	O	1.476691	0.121703	0.367540
C11	C	1.255557	-0.000083	0.191968
C12	C	1.116114	-0.000074	0.188276
N13	N	1.485100	0.346566	0.184805
N14	N	1.485098	-0.346763	0.184782
C15	C	1.036629	-0.000095	0.300817
C16	C	0.905608	-0.000120	0.297341
C17	C	0.933570	-0.000110	0.068771
C18	C	1.064589	-0.000074	0.072249
C19	C	1.088154	-0.000094	0.416844
C20	C	1.008667	-0.000116	0.529395
C21	C	0.877647	-0.000142	0.525918
C22	C	0.826112	-0.000145	0.409891
C23	C	1.714632	-0.000117	0.177629
C24	C	1.854075	-0.000135	0.181321
C25	C	1.492263	-0.000103	-0.044739
C26	C	1.488570	-0.000112	-0.184182
C27	C	1.569760	0.423212	0.100196
C28	C	1.569756	0.576549	0.100181
C29	C	1.400430	0.576581	0.269395
C30	C	1.400428	0.423246	0.269403
C31	C	1.654431	0.346532	0.015599
C32	C	1.739099	0.423178	-0.069016
C33	C	1.739095	0.576515	-0.069031
C34	C	1.654425	0.653206	0.015569
C35	C	1.486839	-0.132895	-0.249696
C36	C	1.483359	-0.132888	-0.380717
C37	C	1.483346	0.132696	-0.380697
C38	C	1.486817	0.132688	-0.249678
C39	C	1.488592	-0.265696	-0.184201
C40	C	1.486863	-0.398490	-0.249716
C41	C	1.483382	-0.398483	-0.380736
C42	C	1.481632	-0.265682	-0.446241
C43	C	1.477926	-0.000097	0.414336
C44	C	1.481619	-0.000097	0.553779
H45	H	1.050636	-0.000101	0.623860
H46	H	1.488200	0.240812	-0.196331
C47	C	1.481431	0.278766	-0.452755
C48	C	1.370182	0.315289	-0.529519
C49	C	1.368270	0.461360	-0.601577
C50	C	1.477608	0.570908	-0.596872
C51	C	1.588865	0.534387	-0.520105
C52	C	1.590776	0.388316	-0.448046
H53	H	1.289236	0.234193	-0.533005
H54	H	1.285910	0.488394	-0.658406
H55	H	1.476193	0.679038	-0.650214
H56	H	1.669811	0.615483	-0.516619
H57	H	1.673137	0.361282	-0.391218
H58	H	1.194836	-0.000080	0.419687
C59	C	1.832229	0.338827	-0.162076
C60	C	1.832251	0.170166	-0.162057
C61	C	1.925383	0.085820	-0.255120
C62	C	2.018493	0.170135	-0.348203
C63	C	2.018475	0.338806	-0.348225
C64	C	1.925343	0.423152	-0.255162
H65	H	1.763322	0.107743	-0.093148
H66	H	1.925396	-0.039042	-0.255103
H67	H	2.087435	0.107696	-0.417094
H68	H	2.087403	0.401229	-0.417133
H69	H	1.925330	0.548014	-0.255179
C70	C	1.152035	-0.000055	-0.051544
C71	C	1.145527	0.126436	-0.146300
C72	C	1.232976	0.126464	-0.270094
C73	C	1.326933	0.000000	-0.299132
C74	C	1.333445	-0.126501	-0.204374
C75	C	1.245996	-0.126529	-0.080579
H76	H	1.075971	0.220061	-0.124806
H77	H	1.228155	0.220109	-0.340240
H78	H	1.391668	0.000021	-0.390772
H79	H	1.403001	-0.220126	-0.225867
H80	H	1.250817	-0.220174	-0.010433
H81	H	1.491429	-0.265716	-0.077518
H82	H	0.719425	-0.000143	0.407069
H83	H	0.812931	-0.000145	0.617562
H84	H	0.891600	-0.000137	-0.025693
H85	H	1.654444	0.221678	0.015606
H86	H	1.331496	0.639032	0.338274
H87	H	1.481961	-0.506609	-0.434073
H88	H	1.808026	0.638919	-0.137936
H89	H	1.654420	0.778063	0.015541
H90	H	1.331490	0.360841	0.338298
H91	H	1.488276	-0.506611	-0.196371
H92	H	1.478779	-0.265687	-0.552925
