data_functionalizedCrystal
_audit_creation_method	'MofGen! by Chris Wilmer'
_symmetry_space_group_name_H-M	'P1'
_symmetry_Int_Tables_number	1
_symmetry_cell_setting	triclinic
loop_
_symmetry_equiv_pos_as_xyz
  x,y,z
_cell_length_a	16.974829
_cell_length_b	10.723023
_cell_length_c	15.455313
_cell_angle_alpha	92.691554
_cell_angle_beta	83.671566
_cell_angle_gamma	83.931822
loop_
_atom_site_label
_atom_site_type_symbol
_atom_site_fract_x
_atom_site_fract_y
_atom_site_fract_z
O1	O	1.056979	0.148001	-0.146323
O2	O	0.826110	0.169476	-0.130119
O3	O	0.946870	-0.022946	-0.138591
O4	O	0.936219	0.340423	-0.137851
O5	O	0.939964	-0.011988	0.006156
O6	O	0.819204	0.180434	0.014628
O7	O	1.050073	0.158960	-0.001576
Cu8	Cu	0.934008	0.170698	0.019742
Cu9	Cu	0.942175	0.157738	-0.151437
O10	O	0.929313	0.351382	0.006896
C11	C	0.793096	0.174340	-0.055671
C12	C	0.705012	0.172494	-0.049488
C13	C	0.208787	0.162782	-0.006218
C14	C	0.291551	0.164517	-0.012029
C15	C	0.336698	0.159402	-0.093837
C16	C	0.299077	0.152564	-0.169839
C17	C	0.216313	0.150838	-0.164028
C18	C	0.584627	0.163930	-0.119679
C19	C	0.667396	0.165652	-0.125485
C20	C	0.659865	0.177608	0.032326
C21	C	0.577101	0.175875	0.038131
C22	C	0.539486	0.169043	-0.037871
N23	N	0.421297	0.161171	-0.099778
N24	N	0.454888	0.167283	-0.031929
C25	C	0.942642	-0.063951	-0.066164
C26	C	0.940324	-0.202458	-0.066004
C27	C	0.942867	-0.269880	-0.140916
C28	C	0.940471	-0.413034	-0.140752
C29	C	1.083087	0.154095	-0.076026
C30	C	1.171171	0.155941	-0.082215
C31	C	0.933541	0.392386	-0.065533
C32	C	0.935860	0.530893	-0.065698
N33	N	0.928270	0.179812	0.140140
N34	N	0.947920	0.148614	-0.271836
C35	C	0.979591	0.098094	0.181934
C36	C	0.975258	0.104998	0.273046
C37	C	0.919608	0.193627	0.322362
C38	C	0.868282	0.275349	0.280563
C39	C	0.872611	0.268438	0.189453
C40	C	0.900922	0.223424	0.595255
C41	C	0.896599	0.230332	0.686371
C42	C	1.003575	0.059979	0.678847
C43	C	1.007902	0.053081	0.587736
C44	C	0.956573	0.134798	0.545944
N45	N	0.915180	0.200689	0.415493
N46	N	0.960998	0.127729	0.452815
H47	H	0.322174	0.170085	0.049856
Br48	Br	0.515833	0.182845	0.149160
H49	H	0.185688	0.145270	-0.225912
H50	H	0.859129	0.289964	0.561235
H51	H	1.053217	-0.019088	0.547584
H52	H	0.942649	-0.470994	-0.204887
H53	H	0.822966	0.347508	0.320722
Br54	Br	1.044906	-0.005910	0.329769
Br55	Br	0.710917	0.186886	0.135466
Br56	Br	0.802952	0.379337	0.132733
Br57	Br	1.055126	-0.022185	0.115013
Br58	Br	0.147525	0.169709	0.104813
H59	H	1.045364	-0.006553	0.712882
H60	H	0.851279	0.302509	0.726520
Br61	Br	0.933727	-0.282878	0.041100
H62	H	0.554012	0.158363	-0.181565
Br63	Br	0.728669	0.158706	-0.236518
H64	H	0.335842	0.148406	-0.236449
H65	H	0.946816	-0.221619	-0.205172
H66	H	0.933690	-0.411157	-0.001561
