data_functionalizedCrystal
_audit_creation_method	'MofGen! by Chris Wilmer'
_symmetry_space_group_name_H-M	'P1'
_symmetry_Int_Tables_number	1
_symmetry_cell_setting	triclinic
loop_
_symmetry_equiv_pos_as_xyz
  x,y,z
_cell_length_a	17.666332
_cell_length_b	19.188930
_cell_length_c	19.188930
_cell_angle_alpha	83.144779
_cell_angle_beta	89.988397
_cell_angle_gamma	89.976766
loop_
_atom_site_label
_atom_site_type_symbol
_atom_site_fract_x
_atom_site_fract_y
_atom_site_fract_z
O1	O	0.063200	-0.926150	-0.087169
O2	O	0.563200	-0.426150	0.412831
O3	O	0.063149	-0.722838	-0.098903
O4	O	0.563149	-0.222838	0.401097
O5	O	0.063161	-0.830361	0.008620
O6	O	0.563161	-0.330361	0.508620
O7	O	0.063188	-0.818627	-0.194692
O8	O	0.563188	-0.318627	0.305308
O9	O	-0.062735	-0.830342	0.008625
O10	O	0.437265	-0.330342	0.508625
O11	O	-0.062747	-0.722820	-0.098897
O12	O	0.437253	-0.222820	0.401103
O13	O	-0.062697	-0.926131	-0.087163
O14	O	0.437303	-0.426131	0.412837
Cu15	Cu	-0.074217	-0.824473	-0.093030
Cu16	Cu	0.425783	-0.324473	0.406970
Cu17	Cu	0.074670	-0.824496	-0.093036
Cu18	Cu	0.574670	-0.324496	0.406964
O19	O	-0.062709	-0.818608	-0.194686
O20	O	0.437291	-0.318608	0.305314
C21	C	0.000194	-0.696818	-0.098520
C22	C	0.500194	-0.196818	0.401480
C23	C	0.000174	-0.619313	-0.097380
C24	C	0.500174	-0.119313	0.402620
C25	C	0.000211	-0.829972	0.034634
C26	C	0.500211	-0.329972	0.534634
C27	C	0.000204	-0.828831	0.112138
C28	C	0.500204	-0.328831	0.612138
N29	N	-0.178937	-0.824463	-0.093025
N30	N	0.321063	-0.324463	0.406975
C31	C	-0.218541	-0.872089	-0.045437
C32	C	0.281459	-0.372089	0.454563
C33	C	-0.297789	-0.872093	-0.045433
C34	C	0.202211	-0.372093	0.454567
C35	C	-0.337429	-0.824478	-0.093030
C36	C	0.162571	-0.324478	0.406970
C37	C	-0.297815	-0.776842	-0.140621
C38	C	0.202185	-0.276842	0.359379
C39	C	-0.218569	-0.776835	-0.140619
C40	C	0.281431	-0.276835	0.359381
N41	N	-0.461841	-0.815401	-0.154837
N42	N	0.038159	-0.315401	0.345163
N43	N	-0.537121	-0.815413	-0.154837
N44	N	-0.037121	-0.315413	0.345163
C45	C	-0.576193	-0.824496	-0.093040
C46	C	-0.076193	-0.324496	0.406960
N47	N	-0.537140	-0.833582	-0.031239
N48	N	-0.037140	-0.333582	0.468761
N49	N	-0.461853	-0.833574	-0.031240
N50	N	0.038147	-0.333574	0.468760
C51	C	-0.423358	-0.824480	-0.093038
C52	C	0.076642	-0.324480	0.406962
C53	C	-0.701727	-0.872130	-0.045444
C54	C	-0.201727	-0.372130	0.454556
C55	C	-0.780976	-0.872129	-0.045440
C56	C	-0.280976	-0.372129	0.454560
C57	C	-0.781000	-0.776881	-0.140634
C58	C	-0.281000	-0.276881	0.359366
C59	C	-0.701753	-0.776878	-0.140632
C60	C	-0.201753	-0.276878	0.359368
C61	C	-0.662121	-0.824506	-0.093038
C62	C	-0.162121	-0.324506	0.406962
N63	N	0.179390	-0.824512	-0.093036
N64	N	0.679390	-0.324512	0.406964
C65	C	0.000260	-0.952151	-0.087546
C66	C	0.500260	-0.452151	0.412454
C67	C	0.000285	-1.029656	-0.088687
C68	C	0.500285	-0.529656	0.411313
C69	C	0.000194	-0.574389	-0.160470
C70	C	0.500194	-0.074389	0.339530
C71	C	0.000203	-0.501566	-0.159399
C72	C	0.500203	-0.001566	0.340601
C73	C	0.000206	-0.473669	-0.095233
C74	C	0.500206	0.026331	0.404767
C75	C	0.000181	-0.518603	-0.032133
C76	C	0.500181	-0.018603	0.467867
C77	C	0.000166	-0.591425	-0.033207
C78	C	0.500166	-0.091425	0.466793
N79	N	0.043078	-0.365695	-0.046188
N80	N	0.543078	0.134305	0.453812
N81	N	0.043095	-0.296517	-0.045172
N82	N	0.543095	0.203483	0.454828
C83	C	0.000252	-0.254260	-0.091994
C84	C	0.500252	0.245740	0.408006
N85	N	-0.042599	-0.283795	-0.139881
N86	N	0.457401	0.216205	0.360119
N87	N	-0.042612	-0.352979	-0.140899
N88	N	0.457388	0.147021	0.359101
C89	C	0.000222	-0.394707	-0.094062
C90	C	0.500222	0.105293	0.405938
C91	C	0.000280	-0.130372	-0.153928
C92	C	0.500280	0.369628	0.346072
C93	C	0.000283	-0.057547	-0.152853
C94	C	0.500283	0.442453	0.347147
C95	C	0.000270	-0.074586	-0.025586
C96	C	0.500270	0.425414	0.474414
C97	C	0.000258	-0.147409	-0.026662
C98	C	0.500258	0.352591	0.473338
C99	C	0.000267	-0.175298	-0.090835
C100	C	0.500267	0.324702	0.409165
C101	C	0.000244	-0.818997	-0.220700
C102	C	0.500244	-0.318997	0.279300
C103	C	0.000255	-0.820138	-0.298204
C104	C	0.500255	-0.320138	0.201796
C105	C	0.000216	-0.891922	0.157062
C106	C	0.500216	-0.391922	0.657062
C107	C	0.000228	-0.890850	0.229886
C108	C	0.500228	-0.390850	0.729886
C109	C	0.000212	-0.826684	0.257782
C110	C	0.500212	-0.326684	0.757782
C111	C	0.000205	-0.763585	0.212849
C112	C	0.500205	-0.263585	0.712849
C113	C	0.000200	-0.764658	0.140026
C114	C	0.500200	-0.264658	0.640026
N115	N	-0.042645	-0.777630	0.365789
N116	N	0.457355	-0.277630	0.865789
N117	N	-0.042642	-0.776615	0.434968
N118	N	0.457358	-0.276615	0.934968
C119	C	0.000227	-0.823446	0.477191
C120	C	0.500227	-0.323446	0.977191
N121	N	0.043084	-0.871341	0.447624
N122	N	0.543084	-0.371341	0.947624
N123	N	0.043079	-0.872359	0.378439
N124	N	0.543079	-0.372359	0.878439
C125	C	0.000218	-0.825513	0.336745
C126	C	0.500218	-0.325513	0.836745
C127	C	0.000253	-0.885379	0.601079
C128	C	0.500253	-0.385379	1.101079
C129	C	0.000270	-0.884305	0.673904
C130	C	0.500270	-0.384305	1.173904
C131	C	0.000239	-0.757038	0.656865
C132	C	0.500239	-0.257038	1.156865
C133	C	0.000230	-0.758114	0.584042
C134	C	0.500230	-0.258114	1.084042
C135	C	0.000233	-0.822287	0.556154
C136	C	0.500233	-0.322287	1.056154
H137	H	-0.330041	-0.910878	-0.006680
H138	H	0.169959	-0.410878	0.493320
O139	O	-0.180128	-0.730640	-0.186948
O140	O	0.319872	-0.230640	0.313052
C141	C	-0.155910	-0.689324	-0.308455
C142	C	0.344090	-0.189324	0.191545
C143	C	-0.199479	-0.741687	-0.256063
C144	C	0.300521	-0.241687	0.243937
H145	H	-0.171551	-0.698227	-0.364346
H146	H	0.328449	-0.198227	0.135654
H147	H	-0.092454	-0.697498	-0.300342
H148	H	0.407546	-0.197498	0.199658
H149	H	-0.171512	-0.633440	-0.299458
H150	H	0.328488	-0.133440	0.200542
H151	H	-0.183940	-0.797592	-0.265028
H152	H	0.316060	-0.297592	0.234972
H153	H	-0.262925	-0.733451	-0.264189
H154	H	0.237075	-0.233451	0.235811
O155	O	-0.819380	-0.730559	-0.186896
O156	O	-0.319380	-0.230559	0.313104
C157	C	-0.811041	-0.636116	-0.281342
C158	C	-0.311041	-0.136116	0.218658
C159	C	-0.767478	-0.688530	-0.228978
C160	C	-0.267478	-0.188530	0.271022
H161	H	-0.769097	-0.602132	-0.315389
H162	H	-0.269097	-0.102132	0.184611
H163	H	-0.848147	-0.601286	-0.251321
H164	H	-0.348147	-0.101286	0.248679
H165	H	-0.848138	-0.666167	-0.316117
H166	H	-0.348138	-0.166167	0.183883
H167	H	-0.730340	-0.658537	-0.194190
H168	H	-0.230340	-0.158537	0.305810
H169	H	-0.730419	-0.723360	-0.259043
H170	H	-0.230419	-0.223360	0.240957
O171	O	0.000334	-0.014005	-0.214208
O172	O	0.500334	0.485995	0.285792
C173	C	0.000313	-0.004793	-0.340550
C174	C	0.500313	0.495207	0.159450
C175	C	0.000273	-0.054186	-0.271118
C176	C	0.500273	0.445814	0.228882
H177	H	0.000248	-0.037259	-0.386580
H178	H	0.500248	0.462741	0.113420
H179	H	0.053019	0.029687	-0.343276
H180	H	0.553019	0.529687	0.156724
H181	H	-0.052356	0.029766	-0.343192
H182	H	0.447644	0.529766	0.156808
H183	H	0.052907	-0.088789	-0.268430
H184	H	0.552907	0.411211	0.231570
H185	H	-0.052467	-0.088618	-0.268421
H186	H	0.447533	0.411382	0.231579
O187	O	-0.663231	-0.918319	0.000867
O188	O	-0.163231	-0.418319	0.500867
C189	C	-0.638944	-0.959657	0.122354
C190	C	-0.138944	-0.459657	0.622354
C191	C	-0.682587	-0.907299	0.069998
C192	C	-0.182587	-0.407299	0.569998
H193	H	-0.654589	-0.950776	0.178257
H194	H	-0.154589	-0.450776	0.678257
H195	H	-0.575499	-0.951454	0.114209
H196	H	-0.075499	-0.451454	0.614209
H197	H	-0.654475	-1.015543	0.113350
H198	H	-0.154475	-0.515543	0.613350
H199	H	-0.667119	-0.851392	0.078970
H200	H	-0.167119	-0.351392	0.578970
H201	H	-0.746021	-0.915563	0.078156
H202	H	-0.246021	-0.415563	0.578156
O203	O	0.000116	-0.191082	0.034606
O204	O	0.500116	0.308918	0.534606
C205	C	-0.065103	-0.283185	0.107237
C206	C	0.434897	0.216815	0.607237
C207	C	-0.065043	-0.233754	0.037830
C208	C	0.434957	0.266246	0.537830
H209	H	-0.117770	-0.317709	0.109860
H210	H	0.382230	0.182291	0.609860
H211	H	-0.065147	-0.250777	0.153312
H212	H	0.434853	0.249223	0.653312
H213	H	-0.012398	-0.317700	0.109901
H214	H	0.487602	0.182300	0.609901
H215	H	-0.117739	-0.199230	0.035098
H216	H	0.382261	0.300770	0.535098
H217	H	-0.064960	-0.266205	-0.008213
H218	H	0.435040	0.233795	0.491787
O219	O	0.000257	-0.694645	0.683839
O220	O	0.500257	-0.194645	1.183839
C221	C	0.000181	-0.568529	0.659254
C222	C	0.500181	-0.068529	1.159254
C223	C	0.000173	-0.639141	0.628609
C224	C	0.500173	-0.139141	1.128609
H225	H	0.000097	-0.523636	0.614615
H226	H	0.500097	-0.023636	1.114615
H227	H	0.052883	-0.564804	0.692882
H228	H	0.552883	-0.064804	1.192882
H229	H	-0.052492	-0.564875	0.692958
H230	H	0.447508	-0.064875	1.192958
H231	H	0.052811	-0.642843	0.594873
H232	H	0.552811	-0.142843	1.094873
H233	H	-0.052564	-0.642836	0.595020
H234	H	0.447436	-0.142836	1.095020
O235	O	0.000185	-0.634969	0.028147
O236	O	0.500185	-0.134969	0.528147
C237	C	0.000126	-0.644184	0.154489
C238	C	0.500126	-0.144184	0.654489
C239	C	0.000119	-0.594790	0.085058
C240	C	0.500119	-0.094790	0.585058
H241	H	0.000057	-0.611719	0.200520
H242	H	0.500057	-0.111719	0.700520
H243	H	0.052821	-0.678716	0.157214
H244	H	0.552821	-0.178716	0.657214
H245	H	-0.052555	-0.678691	0.157131
H246	H	0.447445	-0.178691	0.657131
H247	H	0.052764	-0.560238	0.082370
H248	H	0.552764	-0.060238	0.582370
H249	H	-0.052610	-0.560305	0.082363
H250	H	0.447390	-0.060305	0.582363
O251	O	0.000410	-0.157504	-0.216243
O252	O	0.500410	0.342496	0.283757
C253	C	0.065594	-0.229907	-0.291301
C254	C	0.565594	0.270093	0.208699
C255	C	0.065553	-0.199216	-0.220714
C256	C	0.565553	0.300784	0.279286
H257	H	0.118248	-0.263649	-0.294933
H258	H	0.618248	0.236351	0.205067
H259	H	0.065649	-0.185315	-0.336242
H260	H	0.565649	0.314685	0.163758
H261	H	0.012876	-0.263518	-0.294966
H262	H	0.512876	0.236482	0.205034
H263	H	0.118262	-0.165613	-0.216980
H264	H	0.618262	0.334387	0.283020
H265	H	0.065458	-0.243841	-0.175807
H266	H	0.565458	0.256159	0.324193
O267	O	0.000362	-0.457944	-0.220706
O268	O	0.500362	0.042056	0.279294
C269	C	0.065601	-0.421162	-0.329160
C270	C	0.565601	0.078838	0.170840
C271	C	0.065520	-0.470589	-0.259750
C272	C	0.565520	0.029411	0.240250
H273	H	0.118267	-0.431378	-0.360753
H274	H	0.618267	0.068622	0.139247
H275	H	0.065662	-0.364311	-0.317407
H276	H	0.565662	0.135689	0.182593
H277	H	0.012894	-0.431239	-0.360726
H278	H	0.512894	0.068761	0.139274
H279	H	0.118217	-0.460575	-0.228149
H280	H	0.618217	0.039425	0.271851
H281	H	0.065419	-0.527424	-0.271552
H282	H	0.565419	-0.027424	0.228448
O283	O	0.000344	-0.696845	0.540371
O284	O	0.500344	-0.196845	1.040371
C285	C	0.065521	-0.624225	0.448223
C286	C	0.565521	-0.124225	0.948223
C287	C	0.065492	-0.693635	0.497651
C288	C	0.565492	-0.193635	0.997651
H289	H	0.118180	-0.621614	0.413661
H290	H	0.618180	-0.121614	0.913661
H291	H	0.065561	-0.578152	0.480634
H292	H	0.565561	-0.078152	0.980634
H293	H	0.012807	-0.621547	0.413748
H294	H	0.512807	-0.121547	0.913748
H295	H	0.118197	-0.696382	0.532136
H296	H	0.618197	-0.196382	1.032136
H297	H	0.065412	-0.739675	0.465198
H298	H	0.565412	-0.239675	0.965198
H299	H	0.000319	-0.051874	0.026659
H300	H	0.500319	0.448126	0.526659
O301	O	0.000258	-0.954318	0.130089
O302	O	0.500258	-0.454318	0.630089
C303	C	0.000235	-1.080433	0.154677
C304	C	0.500235	-0.580433	0.654677
C305	C	0.000204	-1.009820	0.185320
C306	C	0.500204	-0.509820	0.685320
H307	H	0.000175	-1.125325	0.199316
H308	H	0.500175	-0.625325	0.699316
H309	H	0.052933	-1.084178	0.121024
H310	H	0.552933	-0.584178	0.621024
H311	H	-0.052442	-1.084069	0.120996
H312	H	0.447558	-0.584069	0.620996
H313	H	0.052845	-1.006137	0.219032
H314	H	0.552845	-0.506137	0.719032
H315	H	-0.052529	-1.006106	0.218932
H316	H	0.447471	-0.506106	0.718932
H317	H	0.000241	-0.942228	0.266470
H318	H	0.500241	-0.442228	0.766470
H319	H	-0.669505	-0.738099	-0.179386
H320	H	-0.169505	-0.238099	0.320614
O321	O	0.000289	-0.701298	0.240027
O322	O	0.500289	-0.201298	0.740027
C323	C	0.065522	-0.626221	0.312312
C324	C	0.565522	-0.126221	0.812312
C325	C	0.065507	-0.696795	0.281594
C326	C	0.565507	-0.196795	0.781594
H327	H	0.118253	-0.622552	0.345914
H328	H	0.618253	-0.122552	0.845914
H329	H	0.012871	-0.622517	0.346036
H330	H	0.512871	-0.122517	0.846036
H331	H	0.065476	-0.581322	0.267680
H332	H	0.565476	-0.081322	0.767680
H333	H	0.065580	-0.741735	0.326182
H334	H	0.565580	-0.241735	0.826182
H335	H	0.118154	-0.700438	0.247853
H336	H	0.618154	-0.200438	0.747853
H337	H	-0.186275	-0.910869	-0.006681
H338	H	0.313725	-0.410869	0.493319
H339	H	-0.330094	-0.738072	-0.179374
H340	H	0.169906	-0.238072	0.320626
H341	H	-0.813222	-0.910910	-0.006684
H342	H	-0.313222	-0.410910	0.493316
H343	H	0.000203	-0.597091	-0.212725
H344	H	0.500203	-0.097091	0.287275
H345	H	0.000194	-0.495885	0.020111
H346	H	0.500194	0.004115	0.520111
H347	H	0.000190	-0.713281	0.103448
H348	H	0.500190	-0.213281	0.603448
H349	H	0.000259	-0.937632	0.578372
H350	H	0.500259	-0.437632	1.078372
H351	H	0.000284	-0.935683	0.710481
H352	H	0.500284	-0.435683	1.210481
