data_functionalizedCrystal
_audit_creation_method	'MofGen! by Chris Wilmer'
_symmetry_space_group_name_H-M	'P1'
_symmetry_Int_Tables_number	1
_symmetry_cell_setting	triclinic
loop_
_symmetry_equiv_pos_as_xyz
  x,y,z
_cell_length_a	16.109301
_cell_length_b	13.596369
_cell_length_c	16.109301
_cell_angle_alpha	90.001433
_cell_angle_beta	96.538519
_cell_angle_gamma	89.996453
loop_
_atom_site_label
_atom_site_type_symbol
_atom_site_fract_x
_atom_site_fract_y
_atom_site_fract_z
O1	O	1.103135	-0.081732	-0.106861
O2	O	1.353135	0.168268	0.143139
O3	O	1.603135	0.418268	0.393139
O4	O	1.853135	0.668268	0.643139
O5	O	0.861073	-0.081748	-0.120160
O6	O	1.111073	0.168252	0.129840
O7	O	1.361073	0.418252	0.379840
O8	O	1.611073	0.668252	0.629840
O9	O	0.988753	-0.081730	0.007520
O10	O	1.238753	0.168270	0.257520
O11	O	1.488753	0.418270	0.507520
O12	O	1.738753	0.668270	0.757520
O13	O	0.975454	-0.081751	-0.234542
O14	O	1.225454	0.168249	0.015458
O15	O	1.475454	0.418249	0.265458
O16	O	1.725454	0.668249	0.515458
O17	O	0.988737	0.081853	0.007512
O18	O	1.238737	0.331853	0.257512
O19	O	1.488737	0.581853	0.507512
O20	O	1.738737	0.831853	0.757512
O21	O	0.861056	0.081835	-0.120169
O22	O	1.111056	0.331835	0.129831
O23	O	1.361056	0.581835	0.379831
O24	O	1.611056	0.831835	0.629831
O25	O	1.103118	0.081851	-0.106869
O26	O	1.353118	0.331851	0.143131
O27	O	1.603118	0.581851	0.393131
O28	O	1.853118	0.831851	0.643131
Zn29	Zn	0.982084	0.107815	-0.113520
Zn30	Zn	1.232084	0.357815	0.136480
Zn31	Zn	1.482084	0.607815	0.386480
Zn32	Zn	1.732084	0.857815	0.636480
Zn33	Zn	0.982106	-0.107713	-0.113509
Zn34	Zn	1.232106	0.142287	0.136491
Zn35	Zn	1.482106	0.392287	0.386491
Zn36	Zn	1.732106	0.642287	0.636491
O37	O	0.975437	0.081832	-0.234550
O38	O	1.225437	0.331832	0.015450
O39	O	1.475437	0.581832	0.265450
O40	O	1.725437	0.831832	0.515450
C41	C	0.830090	0.000041	-0.119626
C42	C	1.080090	0.250041	0.130374
C43	C	1.330090	0.500041	0.380374
C44	C	1.580090	0.750041	0.630374
C45	C	0.737794	0.000035	-0.118011
C46	C	0.987794	0.250035	0.131989
C47	C	1.237794	0.500035	0.381989
C48	C	1.487794	0.750035	0.631989
N49	N	0.982075	0.254907	-0.113527
N50	N	1.232075	0.504907	0.136473
N51	N	1.482075	0.754907	0.386473
N52	N	1.732075	1.004907	0.636473
C53	C	0.515522	0.000041	-0.190018
C54	C	0.765522	0.250041	0.059982
C55	C	1.015522	0.500041	0.309982
C56	C	1.265522	0.750041	0.559982
C57	C	0.428801	0.000047	-0.188494
C58	C	0.678801	0.250047	0.061506
C59	C	0.928801	0.500047	0.311506
C60	C	1.178801	0.750047	0.561506
C61	C	0.448676	0.000056	-0.037006
C62	C	0.698676	0.250056	0.212994
C63	C	0.948676	0.500056	0.462994
C64	C	1.198676	0.750056	0.712994
C65	C	0.535394	0.000057	-0.038530
C66	C	0.785394	0.250057	0.211470
C67	C	1.035394	0.500057	0.461470
C68	C	1.285394	0.750057	0.711470
C69	C	0.568815	0.000044	-0.115039
C70	C	0.818815	0.250044	0.134961
C71	C	1.068815	0.500044	0.384961
C72	C	1.318815	0.750044	0.634961
C73	C	0.395376	0.000050	-0.111990
C74	C	0.645376	0.250050	0.138010
C75	C	0.895376	0.500050	0.388010
C76	C	1.145376	0.750050	0.638010
C77	C	0.301350	0.000057	-0.110337
C78	C	0.551350	0.250057	0.139663
C79	C	0.801350	0.500057	0.389663
C80	C	1.051350	0.750057	0.639663
C81	C	0.662847	0.000039	-0.116693
C82	C	0.912847	0.250039	0.133307
C83	C	1.162847	0.500039	0.383307
C84	C	1.412847	0.750039	0.633307
C85	C	0.982079	0.343905	-0.113529
C86	C	1.232079	0.593905	0.136471
C87	C	1.482079	0.843905	0.386471
C88	C	1.732079	1.093905	0.636471
C89	C	0.982087	0.455556	-0.113524
C90	C	1.232087	0.705556	0.136476
C91	C	1.482087	0.955556	0.386476
C92	C	1.732087	1.205556	0.636476
C93	C	0.982097	0.544546	-0.113515
C94	C	1.232097	0.794546	0.136485
C95	C	1.482097	1.044546	0.386485
C96	C	1.732097	1.294546	0.636485
C97	C	0.982106	0.656205	-0.113511
C98	C	1.232106	0.906205	0.136489
C99	C	1.482106	1.156205	0.386489
C100	C	1.732106	1.406205	0.636489
C101	C	1.134101	0.000059	-0.107404
C102	C	1.384101	0.250059	0.142596
C103	C	1.634101	0.500059	0.392596
C104	C	1.884101	0.750059	0.642596
C105	C	1.226397	0.000058	-0.109019
C106	C	1.476397	0.250058	0.140981
C107	C	1.726397	0.500058	0.390981
C108	C	1.976397	0.750058	0.640981
C109	C	0.988206	0.000062	0.038491
C110	C	1.238206	0.250062	0.288491
C111	C	1.488206	0.500062	0.538491
C112	C	1.738206	0.750062	0.788491
C113	C	0.986591	0.000063	0.130786
C114	C	1.236591	0.250063	0.380786
C115	C	1.486591	0.500063	0.630786
C116	C	1.736591	0.750063	0.880786
N117	N	0.982116	0.745195	-0.113502
N118	N	1.232116	0.995195	0.136498
N119	N	1.482116	1.245195	0.386498
N120	N	1.732116	1.495195	0.636498
C121	C	0.975984	0.000038	-0.265521
C122	C	1.225984	0.250038	-0.015521
C123	C	1.475984	0.500038	0.234479
C124	C	1.725984	0.750038	0.484479
C125	C	0.977600	0.000030	-0.357816
C126	C	1.227600	0.250030	-0.107816
C127	C	1.477600	0.500030	0.142184
C128	C	1.727600	0.750030	0.392184
C129	C	1.058599	0.000052	0.353059
C130	C	1.308599	0.250052	0.603059
C131	C	1.558599	0.500052	0.853059
C132	C	1.808599	0.750052	1.103059
C133	C	1.057075	0.000044	0.439779
C134	C	1.307075	0.250044	0.689779
C135	C	1.557075	0.500044	0.939779
C136	C	1.807075	0.750044	1.189779
C137	C	0.905586	0.000038	0.419905
C138	C	1.155586	0.250038	0.669905
C139	C	1.405586	0.500038	0.919905
C140	C	1.655586	0.750038	1.169905
C141	C	0.907111	0.000039	0.333186
C142	C	1.157111	0.250039	0.583186
C143	C	1.407111	0.500039	0.833186
C144	C	1.657111	0.750039	1.083186
C145	C	0.983620	0.000051	0.299766
C146	C	1.233620	0.250051	0.549766
C147	C	1.483620	0.500051	0.799766
C148	C	1.733620	0.750051	1.049766
C149	C	0.980571	0.000042	0.473205
C150	C	1.230571	0.250042	0.723205
C151	C	1.480571	0.500042	0.973205
C152	C	1.730571	0.750042	1.223205
C153	C	0.978918	0.000033	0.567231
C154	C	1.228918	0.250033	0.817231
C155	C	1.478918	0.500033	1.067231
C156	C	1.728918	0.750033	1.317231
C157	C	0.985273	0.000058	0.205734
C158	C	1.235273	0.250058	0.455734
C159	C	1.485273	0.500058	0.705734
C160	C	1.735273	0.750058	0.955734
H161	H	0.542730	0.000038	-0.252317
H162	H	0.792730	0.250038	-0.002317
H163	H	1.042730	0.500038	0.247683
H164	H	1.292730	0.750038	0.497683
H165	H	0.385413	0.000046	-0.249550
H166	H	0.635413	0.250046	0.000450
H167	H	0.885413	0.500046	0.250450
H168	H	1.135413	0.750046	0.500450
F169	F	0.413100	0.000065	0.044416
F170	F	0.663100	0.250065	0.294416
F171	F	0.913100	0.500065	0.544416
F172	F	1.163100	0.750065	0.794416
F173	F	0.592117	0.000067	0.041277
F174	F	0.842117	0.250067	0.291277
F175	F	1.092117	0.500067	0.541277
F176	F	1.342117	0.750067	0.791277
H177	H	0.843295	0.000030	0.447127
H178	H	1.093295	0.250030	0.697127
H179	H	1.343295	0.500030	0.947127
H180	H	1.593295	0.750030	1.197127
H181	H	1.120897	0.000060	0.325851
H182	H	1.370897	0.250060	0.575851
H183	H	1.620897	0.500060	0.825851
H184	H	1.870897	0.750060	1.075851
H185	H	0.846050	0.000036	0.289792
H186	H	1.096050	0.250036	0.539792
H187	H	1.346050	0.500036	0.789792
H188	H	1.596050	0.750036	1.039792
H189	H	1.118130	0.000043	0.483168
H190	H	1.368130	0.250043	0.733168
H191	H	1.618130	0.500043	0.983168
H192	H	1.868130	0.750043	1.233168
