data_functionalizedCrystal
_audit_creation_method	'MofGen! by Chris Wilmer'
_symmetry_space_group_name_H-M	'P1'
_symmetry_Int_Tables_number	1
_symmetry_cell_setting	triclinic
loop_
_symmetry_equiv_pos_as_xyz
  x,y,z
_cell_length_a	21.395364
_cell_length_b	19.077114
_cell_length_c	21.395355
_cell_angle_alpha	92.281097
_cell_angle_beta	90.024727
_cell_angle_gamma	87.673269
loop_
_atom_site_label
_atom_site_type_symbol
_atom_site_fract_x
_atom_site_fract_y
_atom_site_fract_z
Zn1	Zn	0.947843	0.280316	0.364289
Zn2	Zn	1.281176	0.613649	0.697622
Zn3	Zn	1.614509	0.946983	1.030956
Zn4	Zn	0.943540	0.397997	0.263720
Zn5	Zn	1.276873	0.731330	0.597053
Zn6	Zn	1.610207	1.064663	0.930387
Zn7	Zn	0.843058	0.280313	0.259525
Zn8	Zn	1.176391	0.613646	0.592859
Zn9	Zn	1.509724	0.946979	0.926192
Zn10	Zn	0.838823	0.397975	0.368459
Zn11	Zn	1.172156	0.731308	0.701792
Zn12	Zn	1.505489	1.064642	1.035126
O13	O	0.893316	0.339150	0.313998
O14	O	1.226649	0.672483	0.647332
O15	O	1.559982	1.005817	0.980665
O16	O	1.034949	0.295937	0.350959
O17	O	1.368283	0.629270	0.684292
O18	O	1.701616	0.962604	1.017625
O19	O	0.930183	0.382393	0.175486
O20	O	1.263516	0.715727	0.508819
O21	O	1.596849	1.049060	0.842152
O22	O	0.860531	0.181821	0.269922
O23	O	1.193864	0.515155	0.603255
O24	O	1.527197	0.848488	0.936588
O25	O	1.031788	0.382396	0.277071
O26	O	1.365122	0.715730	0.610404
O27	O	1.698455	1.049063	0.943738
O28	O	0.937516	0.181824	0.346891
O29	O	1.270849	0.515157	0.680224
O30	O	1.604182	0.848491	1.013558
O31	O	0.856359	0.295931	0.172404
O32	O	1.189692	0.629265	0.505737
O33	O	1.523025	0.962598	0.839071
O34	O	0.754818	0.295911	0.273965
O35	O	1.088152	0.629244	0.607299
O36	O	1.421485	0.962577	0.940632
O37	O	0.853313	0.382360	0.455583
O38	O	1.186646	0.715693	0.788917
O39	O	1.519979	1.049026	1.122250
O40	O	0.751707	0.382356	0.353998
O41	O	1.085040	0.715690	0.687332
O42	O	1.418374	1.049023	1.020665
O43	O	0.933409	0.295916	0.452520
O44	O	1.266742	0.629249	0.785853
O45	O	1.600076	0.962583	1.119186
O46	O	0.926076	0.496485	0.281114
O47	O	1.259409	0.829819	0.614448
O48	O	1.592743	1.163152	0.947781
O49	O	0.849141	0.496470	0.358066
O50	O	1.182474	0.829803	0.691399
O51	O	1.515807	1.163136	1.024732
C52	C	0.730529	0.339131	0.313979
C53	C	1.063862	0.672465	0.647313
C54	C	1.397196	1.005798	0.980646
C55	C	0.660887	0.339140	0.313987
C56	C	0.994221	0.672474	0.647320
C57	C	1.327554	1.005807	0.980654
C58	C	0.157484	0.384245	0.355636
C59	C	0.490817	0.717578	0.688969
C60	C	0.824151	1.050912	1.022302
C61	C	0.222919	0.384245	0.355629
C62	C	0.556253	0.717578	0.688962
C63	C	0.889586	1.050912	1.022296
C64	C	0.257248	0.339165	0.314019
C65	C	0.590581	0.672499	0.647352
C66	C	0.923915	1.005832	0.980685
C67	C	0.226136	0.294095	0.272401
C68	C	0.559469	0.627428	0.605734
C69	C	0.892802	0.960762	0.939067
C70	C	0.160701	0.294101	0.272404
C71	C	0.494035	0.627435	0.605737
C72	C	0.827368	0.960768	0.939071
C73	C	0.363203	0.275736	0.306899
C74	C	0.696537	0.609069	0.640232
C75	C	1.029870	0.942403	0.973566
C76	C	0.428637	0.275729	0.306900
C77	C	0.761970	0.609062	0.640233
C78	C	1.095303	0.942395	0.973567
C79	C	0.459069	0.339147	0.314004
C80	C	0.792403	0.672480	0.647338
C81	C	1.125736	1.005814	0.980671
C82	C	0.424061	0.402574	0.321121
C83	C	0.757394	0.735908	0.654454
C84	C	1.090728	1.069241	0.987788
C85	C	0.358627	0.402581	0.321124
C86	C	0.691960	0.735914	0.654458
C87	C	1.025293	1.069247	0.987791
C88	C	0.328201	0.339154	0.314010
C89	C	0.661534	0.672487	0.647343
C90	C	0.994868	1.005821	0.980677
C91	C	0.561127	0.384218	0.355609
C92	C	0.894460	0.717551	0.688943
C93	C	1.227793	1.050885	1.022276
C94	C	0.626563	0.384219	0.355599
C95	C	0.959897	0.717553	0.688932
C96	C	1.293230	1.050886	1.022265
C97	C	0.629778	0.294063	0.272373
C98	C	0.963112	0.627397	0.605706
C99	C	1.296445	0.960730	0.939040
C100	C	0.564343	0.294068	0.272381
C101	C	0.897676	0.627402	0.605714
C102	C	1.231009	0.960735	0.939048
C103	C	0.530021	0.339145	0.314002
C104	C	0.863354	0.672478	0.647336
C105	C	1.196688	1.005811	0.980669
C106	C	0.886699	0.522015	0.320511
C107	C	1.220032	0.855349	0.653845
C108	C	1.553366	1.188682	0.987178
C109	C	0.883925	0.600246	0.323319
C110	C	1.217259	0.933579	0.656652
C111	C	1.550592	1.266912	0.989985
C112	C	0.922710	0.636984	0.284606
C113	C	1.256043	0.970317	0.617940
C114	C	1.589376	1.303650	0.951273
C115	C	0.920105	0.710489	0.287251
C116	C	1.253438	1.043823	0.620584
C117	C	1.586772	1.377156	0.953917
C118	C	0.878712	0.747256	0.328604
C119	C	1.212046	1.080590	0.661938
C120	C	1.545379	1.413923	0.995271
C121	C	0.839926	0.710513	0.367321
C122	C	1.173260	1.043847	0.700654
C123	C	1.506593	1.377180	1.033988
C124	C	0.842535	0.637009	0.364679
C125	C	1.175868	0.970342	0.698013
C126	C	1.509201	1.303675	1.031346
C127	C	0.866615	0.967093	0.340800
C128	C	1.199949	1.300426	0.674133
C129	C	1.533282	1.633760	1.007466
C130	C	0.864008	1.040603	0.343437
C131	C	1.197342	1.373936	0.676770
C132	C	1.530675	1.707269	1.010104
C133	C	0.944188	1.040574	0.263367
C134	C	1.277522	1.373907	0.596701
C135	C	1.610855	1.707240	0.930034
C136	C	0.946790	0.967068	0.260727
C137	C	1.280124	1.300401	0.594060
C138	C	1.613457	1.633734	0.927393
C139	C	0.908007	0.930331	0.299446
C140	C	1.241340	1.263665	0.632779
C141	C	1.574673	1.596998	0.966112
N142	N	0.876047	0.822391	0.331307
N143	N	1.209381	1.155724	0.664640
N144	N	1.542714	1.489058	0.997973
N145	N	0.910675	0.855198	0.296746
N146	N	1.244009	1.188531	0.630079
N147	N	1.577342	1.521864	0.963413
C148	C	1.056738	0.339169	0.314017
C149	C	1.390072	0.672503	0.647351
C150	C	1.723405	1.005836	0.980684
C151	C	1.126379	0.339178	0.314026
C152	C	1.459713	0.672511	0.647359
C153	C	1.793046	1.005844	0.980692
C154	C	0.899970	1.155571	0.307481
C155	C	1.233304	1.488904	0.640815
C156	C	1.566637	1.822238	0.974148
C157	C	0.902793	1.077340	0.304725
C158	C	1.236126	1.410674	0.638058
C159	C	1.569459	1.744007	0.971391
C160	C	0.893368	0.339136	0.477421
C161	C	1.226702	0.672469	0.810754
C162	C	1.560035	1.005803	1.144088
C163	C	0.893391	0.339130	0.547062
C164	C	1.226724	0.672463	0.880395
C165	C	1.560057	1.005796	1.213729
C166	C	0.893301	0.339114	0.151209
C167	C	1.226635	0.672447	0.484543
C168	C	1.559968	1.005780	0.817876
C169	C	0.893407	0.338921	0.081562
C170	C	1.226741	0.672255	0.414895
C171	C	1.560074	1.005588	0.748228
C172	C	0.935095	0.294117	0.578181
C173	C	1.268429	0.627450	0.911514
C174	C	1.601762	0.960783	1.244848
C175	C	0.935096	0.294086	0.643615
C176	C	1.268429	0.627420	0.976949
C177	C	1.601762	0.960753	1.310282
C178	C	0.893397	0.339082	0.677929
C179	C	1.226731	0.672415	1.011262
C180	C	1.560064	1.005748	1.344595
C181	C	0.851685	0.384098	0.646802
C182	C	1.185018	0.717431	0.980136
C183	C	1.518351	1.050765	1.313469
C184	C	0.851681	0.384122	0.581369
C185	C	1.185015	0.717455	0.914702
C186	C	1.518348	1.050789	1.248036
C187	C	0.886157	0.402455	0.783861
C188	C	1.219490	0.735788	1.117194
C189	C	1.552824	1.069122	1.450527
C190	C	0.886165	0.402432	0.849293
C191	C	1.219498	0.735766	1.182626
C192	C	1.552831	1.069099	1.515960
C193	C	0.893404	0.339007	0.879747
C194	C	1.226737	0.672341	1.213080
C195	C	1.560070	1.005674	1.546414
C196	C	0.900649	0.275604	0.844761
C197	C	1.233982	0.608937	1.178094
C198	C	1.567315	0.942270	1.511428
C199	C	0.900645	0.275628	0.779328
C200	C	1.233979	0.608961	1.112661
C201	C	1.567312	0.942294	1.445994
C202	C	0.893396	0.339061	0.748880
C203	C	1.226729	0.672394	1.082214
C204	C	1.560063	1.005727	1.415547
C205	C	0.935111	0.293958	0.981817
C206	C	1.268444	0.627291	1.315150
C207	C	1.601778	0.960624	1.648484
C208	C	0.935107	0.293926	1.047253
C209	C	1.268440	0.627260	1.380586
C210	C	1.601774	0.960593	1.713919
C211	C	0.851699	0.383944	1.050439
C212	C	1.185032	0.717277	1.383772
C213	C	1.518366	1.050611	1.717105
C214	C	0.851700	0.383969	0.985004
C215	C	1.185034	0.717303	1.318337
C216	C	1.518367	1.050636	1.651671
C217	C	0.893409	0.338977	0.950697
C218	C	1.226743	0.672310	1.284031
C219	C	1.560076	1.005644	1.617364
H220	H	0.539017	0.257367	0.238500
H221	H	0.872351	0.590700	0.571833
H222	H	1.205684	0.924034	0.905166
H223	H	0.135376	0.257400	0.238520
H224	H	0.468710	0.590734	0.571853
H225	H	0.802043	0.924067	0.905186
H226	H	0.448838	0.454215	0.326911
H227	H	0.782171	0.787549	0.660244
H228	H	1.115504	1.120882	0.993577
F229	F	0.807314	0.431882	0.951884
F230	F	1.140647	0.765215	1.285217
F231	F	1.473981	1.098548	1.618551
F232	F	0.985464	1.079676	0.222166
F233	F	1.318798	1.413010	0.555499
F234	F	1.652131	1.746343	0.888832
H235	H	0.806226	0.740455	0.400995
H236	H	1.139559	1.073788	0.734328
H237	H	1.472893	1.407121	1.067661
H238	H	0.880269	0.454060	0.877774
H239	H	1.213602	0.787393	1.211107
H240	H	1.546936	1.120726	1.544440
H241	H	0.533180	0.420923	0.389499
H242	H	0.866514	0.754256	0.722833
H243	H	1.199847	1.087590	1.056166
F244	F	0.819944	1.079731	0.387447
F245	F	1.153277	1.413064	0.720780
F246	F	1.486611	1.746398	1.054113
F247	F	0.659667	0.432193	0.399885
F248	F	0.993000	0.765526	0.733218
F249	F	1.326333	1.098860	1.066551
H250	H	0.835035	0.937188	0.372325
H251	H	1.168368	1.270521	0.705658
H252	H	1.501702	1.603854	1.038992
F253	F	0.990853	0.927943	0.216719
F254	F	1.324186	1.261276	0.550053
F255	F	1.657520	1.594610	0.883386
H256	H	0.338431	0.224091	0.301103
H257	H	0.671764	0.557424	0.634437
H258	H	1.005097	0.890757	0.967770
F259	F	0.878466	0.469966	0.751456
F260	F	1.211799	0.803300	1.084789
F261	F	1.545132	1.136633	1.418122
H262	H	0.969070	0.257319	0.953883
H263	H	1.302403	0.590652	1.287216
H264	H	1.635736	0.923985	1.620549
F265	F	0.666309	0.246091	0.228083
F266	F	0.999642	0.579424	0.561416
F267	F	1.332975	0.912758	0.894750
H268	H	0.810953	0.607098	0.396204
H269	H	1.144287	0.940431	0.729537
H270	H	1.477620	1.273764	1.062871
H271	H	0.951687	0.740398	0.255726
H272	H	1.285020	1.073731	0.589060
H273	H	1.618354	1.407065	0.922393
F274	F	0.979484	0.246229	0.541673
F275	F	1.312817	0.579562	0.875006
F276	F	1.646150	0.912896	1.208339
H277	H	0.969055	0.257428	0.668957
H278	H	1.302389	0.590761	1.002290
H279	H	1.635722	0.924094	1.335624
H280	H	0.969067	0.257267	1.072588
H281	H	1.302400	0.590601	1.405921
H282	H	1.635734	0.923934	1.739255
H283	H	0.906543	0.224002	0.750844
H284	H	1.239876	0.557335	1.084178
H285	H	1.573209	0.890669	1.417511
F286	F	0.465889	0.208224	0.299334
F287	F	0.799222	0.541557	0.632667
F288	F	1.132556	0.874891	0.966000
F289	F	0.262671	0.246120	0.228114
F290	F	0.596005	0.579454	0.561447
F291	F	0.929338	0.912787	0.894781
F292	F	0.908356	0.208097	0.877167
F293	F	1.241690	0.541430	1.210500
F294	F	1.575023	0.874764	1.543833
H295	H	0.817741	0.420573	1.078376
H296	H	1.151075	0.753906	1.411709
H297	H	1.484408	1.087240	1.745042
H298	H	0.817732	0.420731	0.674744
H299	H	1.151065	0.754065	1.008078
H300	H	1.484399	1.087398	1.341411
F301	F	0.966762	0.597860	0.240588
F302	F	1.300096	0.931193	0.573921
F303	F	1.633429	1.264527	0.907255
H304	H	0.129543	0.420952	0.389525
H305	H	0.462876	0.754286	0.722858
H306	H	0.796210	1.087619	1.056192
F307	F	0.321371	0.470083	0.328696
F308	F	0.654704	0.803416	0.662029
F309	F	0.988037	1.136749	0.995363
F310	F	0.256030	0.432213	0.399918
F311	F	0.589364	0.765547	0.733252
F312	F	0.922697	1.098880	1.066585
F313	F	0.807292	0.432033	0.548249
F314	F	1.140625	0.765366	0.881582
F315	F	1.473958	1.098700	1.214916
