data_functionalizedCrystal
_audit_creation_method	'MofGen! by Chris Wilmer'
_symmetry_space_group_name_H-M	'P1'
_symmetry_Int_Tables_number	1
_symmetry_cell_setting	triclinic
loop_
_symmetry_equiv_pos_as_xyz
  x,y,z
_cell_length_a	13.032831
_cell_length_b	13.031981
_cell_length_c	13.032268
_cell_angle_alpha	90.931652
_cell_angle_beta	89.113023
_cell_angle_gamma	89.102241
loop_
_atom_site_label
_atom_site_type_symbol
_atom_site_fract_x
_atom_site_fract_y
_atom_site_fract_z
Zn1	Zn	1.423902	-0.684142	0.684409
Zn2	Zn	1.429191	-0.835076	0.491156
Zn3	Zn	1.278373	-0.641823	0.496615
Zn4	Zn	1.236036	-0.829599	0.642053
O5	O	1.341876	-0.747660	0.578558
O6	O	1.566344	-0.724167	0.674215
O7	O	1.429117	-0.794022	0.350137
O8	O	1.313183	-0.505686	0.541537
O9	O	1.570230	-0.835057	0.532233
O10	O	1.420102	-0.536778	0.679509
O11	O	1.318311	-0.652040	0.354147
O12	O	1.131017	-0.646729	0.500466
O13	O	1.241025	-0.825722	0.789415
O14	O	1.099912	-0.784687	0.607319
O15	O	1.379049	-0.718856	0.820534
O16	O	1.388064	-0.976100	0.491162
O17	O	1.246154	-0.972076	0.602026
C18	C	1.078713	-0.710522	0.549889
C19	C	0.966125	-0.694662	0.537645
C20	C	0.900569	-0.755938	0.584949
C21	C	0.784203	-0.739547	0.572295
C22	C	1.313113	-1.010849	0.541431
C23	C	1.300896	-1.123459	0.525591
C24	C	1.348303	-1.188965	0.586851
C25	C	1.335677	-1.305354	0.570482
C26	C	1.606066	-0.784944	0.607340
C27	C	1.718648	-0.800832	0.619605
C28	C	1.304725	-0.776399	0.842755
C29	C	1.288893	-0.788645	0.955340
C30	C	1.370775	-0.483450	0.615856
C31	C	1.383090	-0.370859	0.631750
C32	C	1.378948	-0.718969	0.315406
C33	C	1.395007	-0.706464	0.202883
C34	C	1.350126	-0.741230	1.020931
C35	C	1.333765	-0.753886	1.137293
H36	H	0.748666	-0.865427	0.669482
H37	H	0.936100	-0.630062	0.487783
O38	O	0.936256	-0.833122	0.644361
C39	C	0.943203	-1.015390	0.672418
C40	C	0.902706	-0.928075	0.605059
H41	H	0.916112	-1.092182	0.640655
H42	H	0.912879	-1.003798	0.754378
H43	H	1.030670	-1.014828	0.672051
H44	H	0.815243	-0.928586	0.605340
H45	H	0.933108	-0.939700	0.523132
O46	O	1.211773	-0.848121	0.991066
C47	C	1.029561	-0.876538	0.997884
C48	C	1.116798	-0.809080	0.957382
H49	H	0.952755	-0.845011	0.970649
H50	H	1.029996	-0.876109	1.085360
H51	H	1.041363	-0.958491	0.967567
H52	H	1.105055	-0.727097	0.987623
H53	H	1.116338	-0.809597	0.869906
H54	H	1.285735	-1.335432	0.505916
H55	H	0.754183	-0.674943	0.522429
H56	H	1.269218	-0.803846	1.167281
O57	O	1.442662	-1.334816	0.708709
C58	C	1.509475	-1.185946	0.795259
C59	C	1.442002	-1.226626	0.708052
H60	H	1.508946	-1.098470	0.794770
H61	H	1.591459	-1.216153	0.783562
H62	H	1.477911	-1.213109	0.872059
H63	H	1.473475	-1.199480	0.631213
H64	H	1.360027	-1.196426	0.719838
O65	O	1.241395	-1.159511	0.448585
C66	C	1.174472	-1.308381	0.362128
C67	C	1.241909	-1.267697	0.449361
H68	H	1.174848	-1.395853	0.362740
H69	H	1.206035	-1.281360	0.285272
H70	H	1.092539	-1.278037	0.373838
H71	H	1.323856	-1.298023	0.437749
H72	H	1.210262	-1.294708	0.526186
H73	H	1.398232	-1.158884	0.651421
O74	O	1.427103	-0.681699	0.984988
C75	C	1.513534	-0.614728	0.836242
C76	C	1.426330	-0.682195	0.876804
H77	H	1.512924	-0.615089	0.748772
H78	H	1.590396	-0.646284	0.863301
H79	H	1.501793	-0.532796	0.866640
H80	H	1.437972	-0.764140	0.846424
H81	H	1.349498	-0.650554	0.849755
O82	O	1.471908	-0.646690	1.167185
C83	C	1.544491	-0.477812	1.164375
C84	C	1.457333	-0.545387	1.204849
H85	H	1.532749	-0.395900	1.194827
H86	H	1.543987	-0.478122	1.076902
H87	H	1.621311	-0.509416	1.191492
H88	H	1.380468	-0.513833	1.177808
H89	H	1.457927	-0.545075	1.292320
