data_functionalizedCrystal
_audit_creation_method	'MofGen! by Chris Wilmer'
_symmetry_space_group_name_H-M	'P1'
_symmetry_Int_Tables_number	1
_symmetry_cell_setting	triclinic
loop_
_symmetry_equiv_pos_as_xyz
  x,y,z
_cell_length_a	16.974867
_cell_length_b	16.992695
_cell_length_c	12.996460
_cell_angle_alpha	90.006597
_cell_angle_beta	86.355417
_cell_angle_gamma	92.977729
loop_
_atom_site_label
_atom_site_type_symbol
_atom_site_fract_x
_atom_site_fract_y
_atom_site_fract_z
O1	O	-1.055448	0.099893	0.002234
O2	O	-0.722114	0.433226	0.335568
O3	O	-0.388781	0.766559	0.668901
O4	O	-0.826049	0.112628	-0.016846
O5	O	-0.492716	0.445961	0.316487
O6	O	-0.159382	0.779294	0.649820
O7	O	-0.939829	-0.007882	-0.007391
O8	O	-0.606495	0.325452	0.325942
O9	O	-0.273162	0.658785	0.659275
O10	O	-0.941668	0.220402	-0.007221
O11	O	-0.608334	0.553735	0.326113
O12	O	-0.275001	0.887068	0.659446
O13	O	-0.939813	-0.007874	0.163741
O14	O	-0.606479	0.325460	0.497074
O15	O	-0.273146	0.658793	0.830408
O16	O	-0.826033	0.112636	0.154286
O17	O	-0.492699	0.445969	0.487619
O18	O	-0.159366	0.779302	0.820953
O19	O	-1.055431	0.099901	0.173367
O20	O	-0.722098	0.433234	0.506700
O21	O	-0.388765	0.766567	0.840033
Cu22	Cu	-0.940731	0.106269	0.179452
Cu23	Cu	-0.607397	0.439602	0.512786
Cu24	Cu	-0.274064	0.772935	0.846119
Cu25	Cu	-0.940750	0.106259	-0.022932
Cu26	Cu	-0.607416	0.439593	0.310402
Cu27	Cu	-0.274083	0.772926	0.643735
O28	O	-0.941652	0.220410	0.163912
O29	O	-0.608318	0.553743	0.497245
O30	O	-0.274985	0.887076	0.830579
C31	C	-0.796552	0.112148	0.066267
C32	C	-0.463219	0.445482	0.399600
C33	C	-0.129886	0.778815	0.732934
C34	C	-0.708685	0.110699	0.058958
C35	C	-0.375352	0.444032	0.392291
C36	C	-0.042019	0.777366	0.725624
C37	C	-0.214090	0.102514	0.007730
C38	C	0.119243	0.435847	0.341064
C39	C	0.452577	0.769180	0.674397
C40	C	-0.296650	0.103876	0.014612
C41	C	0.036683	0.437209	0.347945
C42	C	0.370016	0.770542	0.681279
C43	C	-0.337913	0.104567	0.111338
C44	C	-0.004580	0.437900	0.444671
C45	C	0.328753	0.771233	0.778005
C46	C	-0.296612	0.103888	0.201188
C47	C	0.036721	0.437221	0.534522
C48	C	0.370054	0.770555	0.867855
C49	C	-0.214054	0.102520	0.194306
C50	C	0.119279	0.435854	0.527639
C51	C	0.452613	0.769187	0.860972
C52	C	-0.584826	0.108652	0.141925
C53	C	-0.251492	0.441986	0.475259
C54	C	0.081841	0.775319	0.808592
C55	C	-0.667390	0.110022	0.148801
C56	C	-0.334056	0.443356	0.482135
C57	C	-0.000723	0.776689	0.815468
C58	C	-0.667422	0.110009	-0.037776
C59	C	-0.334089	0.443342	0.295557
C60	C	-0.000756	0.776675	0.628891
C61	C	-0.584862	0.108646	-0.044650
C62	C	-0.251528	0.441979	0.288683
C63	C	0.081805	0.775312	0.622017
C64	C	-0.543568	0.107963	0.045200
C65	C	-0.210235	0.441296	0.378533
C66	C	0.123098	0.774630	0.711867
N67	N	-0.422303	0.105961	0.118374
N68	N	-0.088970	0.439295	0.451708
N69	N	0.244363	0.772628	0.785041
N70	N	-0.459180	0.106563	0.038163
N71	N	-0.125847	0.439896	0.371496
N72	N	0.207486	0.773229	0.704829
C73	C	-0.937455	-0.037088	0.077973
C74	C	-0.604121	0.296246	0.411307
C75	C	-0.270788	0.629579	0.744640
C76	C	-0.930395	-0.124124	0.077373
C77	C	-0.597062	0.209209	0.410706
C78	C	-0.263728	0.542543	0.744040
N79	N	-0.940723	0.106275	0.321799
N80	N	-0.607390	0.439608	0.655132
N81	N	-0.274056	0.772942	0.988465
C82	C	-0.084928	0.100382	0.090256
C83	C	0.248405	0.433715	0.423590
C84	C	0.581739	0.767048	0.756923
C85	C	-0.172795	0.101837	0.097574
C86	C	0.160539	0.435171	0.430907
C87	C	0.493872	0.768504	0.764240
C88	C	-0.944026	0.249616	0.078545
C89	C	-0.610692	0.582949	0.411878
C90	C	-0.277359	0.916282	0.745211
C91	C	-0.951085	0.336652	0.079139
C92	C	-0.617752	0.669985	0.412472
C93	C	-0.284419	1.003319	0.745805
C94	C	-0.882971	0.386968	0.073473
C95	C	-0.549638	0.720301	0.406806
C96	C	-0.216304	1.053635	0.740139
C97	C	-0.889609	0.468747	0.074012
C98	C	-0.556275	0.802080	0.407345
C99	C	-0.222942	1.135414	0.740679
C100	C	-0.964362	0.500209	0.080224
C101	C	-0.631028	0.833542	0.413558
C102	C	-0.297695	1.166876	0.746891
C103	C	-1.032481	0.449886	0.085888
C104	C	-0.699148	0.783220	0.419221
C105	C	-0.365815	1.116553	0.752554
C106	C	-1.025843	0.368109	0.085341
C107	C	-0.692509	0.701442	0.418674
C108	C	-0.359176	1.034775	0.752008
C109	C	-0.991876	0.743776	0.082490
C110	C	-0.658543	1.077109	0.415823
C111	C	-0.325209	1.410443	0.749156
C112	C	-0.998509	0.825560	0.083039
C113	C	-0.665176	1.158893	0.416372
C114	C	-0.331843	1.492227	0.749706
C115	C	-0.855636	0.844415	0.071161
C116	C	-0.522303	1.177749	0.404494
C117	C	-0.188970	1.511082	0.737828
C118	C	-0.849004	0.762635	0.070621
C119	C	-0.515671	1.095969	0.403954
C120	C	-0.182337	1.429302	0.737288
C121	C	-0.917124	0.712320	0.076279
C122	C	-0.583790	1.045653	0.409612
C123	C	-0.250457	1.378987	0.742946
N124	N	-0.971148	0.583800	0.080779
N125	N	-0.637815	0.917133	0.414112
N126	N	-0.304482	1.250467	0.747446
N127	N	-0.910336	0.628730	0.075717
N128	N	-0.577003	0.962064	0.409050
N129	N	-0.243670	1.295397	0.742384
C130	C	-0.940726	0.106277	0.414905
C131	C	-0.607393	0.439611	0.748238
C132	C	-0.274060	0.772944	1.081572
C133	C	-0.940733	0.106273	0.531711
C134	C	-0.607399	0.439606	0.865044
C135	C	-0.274066	0.772940	1.198377
C136	C	-0.940742	0.106265	0.624810
C137	C	-0.607408	0.439598	0.958143
C138	C	-0.274075	0.772931	1.291476
C139	C	-0.940749	0.106261	0.741623
C140	C	-0.607416	0.439594	1.074956
C141	C	-0.274082	0.772928	1.408289
N142	N	-0.940758	0.106253	0.834722
N143	N	-0.607425	0.439586	1.168055
N144	N	-0.274091	0.772919	1.501389
H145	H	-0.701052	0.110564	-0.110927
H146	H	-0.367719	0.443897	0.222407
H147	H	-0.034386	0.777230	0.555740
H148	H	-0.788132	0.737026	0.065550
H149	H	-0.454799	1.070359	0.398883
H150	H	-0.121466	1.403692	0.732217
O151	O	-1.065351	0.689522	0.088605
O152	O	-0.732018	1.022855	0.421938
O153	O	-0.398684	1.356188	0.755272
H154	H	-1.065762	0.651809	0.018884
H155	H	-0.732428	0.985143	0.352217
H156	H	-0.399095	1.318476	0.685551
H157	H	-0.834142	0.509712	0.069395
H158	H	-0.500809	0.843045	0.402728
H159	H	-0.167476	1.176378	0.736061
O160	O	-1.113111	0.483814	0.092588
O161	O	-0.779778	0.817147	0.425922
O162	O	-0.446444	1.150480	0.759255
H163	H	-1.106285	0.549132	0.092028
H164	H	-0.772952	0.882466	0.425361
H165	H	-0.439619	1.215799	0.758694
H166	H	-0.180499	0.101956	-0.071035
H167	H	0.152834	0.435290	0.262299
H168	H	0.486168	0.768623	0.595632
H169	H	-1.059385	0.851172	0.088099
H170	H	-0.726052	1.184506	0.421432
H171	H	-0.392719	1.517839	0.754766
O172	O	-1.099308	0.313833	0.091462
O173	O	-0.765974	0.647166	0.424796
O174	O	-0.432641	0.980500	0.758129
H175	H	-1.152404	0.349447	0.095886
H176	H	-0.819071	0.682781	0.429219
H177	H	-0.485737	1.016114	0.762553
H178	H	-0.800177	0.885390	0.066553
H179	H	-0.466844	1.218724	0.399887
H180	H	-0.133511	1.552057	0.733220
H181	H	-0.330270	0.104422	-0.058548
H182	H	0.003063	0.437755	0.274785
H183	H	0.336397	0.771088	0.608118
O184	O	-0.540362	0.107900	-0.148980
O185	O	-0.207029	0.441234	0.184353
O186	O	0.126304	0.774567	0.517687
H187	H	-0.476016	0.106844	-0.138671
H188	H	-0.142682	0.440178	0.194662
H189	H	0.190651	0.773511	0.527995
H190	H	-0.700984	0.110591	0.227571
H191	H	-0.367650	0.443924	0.560905
H192	H	-0.034317	0.777257	0.894238
H193	H	-0.180432	0.101978	0.267466
H194	H	0.152902	0.435311	0.600799
H195	H	0.486235	0.768644	0.934133
H196	H	-0.330216	0.104446	0.279945
H197	H	0.003118	0.437779	0.613278
H198	H	0.336451	0.771112	0.946612
O199	O	-0.540290	0.107929	0.238830
O200	O	-0.206957	0.441262	0.572163
O201	O	0.126376	0.774596	0.905496
H202	H	-0.582855	0.108651	0.307242
H203	H	-0.249522	0.441984	0.640576
H204	H	0.083812	0.775318	0.973909
H205	H	-0.822099	0.361359	0.068426
H206	H	-0.488766	0.694692	0.401759
H207	H	-0.155432	1.028025	0.735092
