data_functionalizedCrystal
_audit_creation_method	'MofGen! by Chris Wilmer'
_symmetry_space_group_name_H-M	'P1'
_symmetry_Int_Tables_number	1
_symmetry_cell_setting	triclinic
loop_
_symmetry_equiv_pos_as_xyz
  x,y,z
_cell_length_a	8.597213
_cell_length_b	11.892113
_cell_length_c	8.559649
_cell_angle_alpha	85.199432
_cell_angle_beta	102.375319
_cell_angle_gamma	101.990385
loop_
_atom_site_label
_atom_site_type_symbol
_atom_site_fract_x
_atom_site_fract_y
_atom_site_fract_z
O1	O	2.078498	0.296428	-0.267168
O2	O	1.615597	0.251347	-0.280999
O3	O	1.887829	0.277858	-0.042503
O4	O	1.806265	0.269917	-0.505663
O5	O	1.872003	0.088309	-0.023873
O6	O	1.599771	0.061798	-0.262369
O7	O	2.062672	0.106879	-0.248537
Zn8	Zn	1.828709	0.054244	-0.252495
Zn9	Zn	1.849560	0.303982	-0.277041
O10	O	1.790440	0.080368	-0.487033
C11	C	1.548971	0.150854	-0.269161
C12	C	1.374027	0.133817	-0.261624
N13	N	1.814490	-0.116195	-0.235742
C14	C	1.962706	-0.338409	-0.410435
C15	C	1.952781	-0.457717	-0.398712
C16	C	1.784727	-0.474121	-0.200565
C17	C	1.794651	-0.354813	-0.212288
C18	C	1.883642	-0.286961	-0.317229
C19	C	1.893556	-0.167651	-0.328959
C20	C	1.725512	-0.184057	-0.130805
C21	C	1.715588	-0.303365	-0.119081
C22	C	2.129298	0.207374	-0.260376
C23	C	2.304243	0.224419	-0.267913
C24	C	1.886098	0.183688	0.026186
C25	C	1.904497	0.185486	0.203105
N26	N	1.863793	0.474423	-0.293782
C27	C	1.792171	0.174541	-0.555723
C28	C	1.773773	0.172750	-0.732642
H29	H	1.299926	0.043212	-0.250478
C30	C	1.618980	-0.377238	-0.005306
C31	C	1.627058	-0.492752	-0.015107
C32	C	1.538059	-0.560834	0.089663
H33	H	1.663157	-0.353723	0.101104
H34	H	1.508932	-0.368592	-0.034022
H35	H	1.737084	-0.501392	0.013619
H36	H	1.582871	-0.516302	-0.121492
H37	H	1.428011	-0.552188	0.060947
H38	H	1.582244	-0.537309	0.196066
H39	H	1.543516	-0.639218	0.083016
H40	H	2.030499	0.197748	0.283453
H41	H	1.966009	-0.112408	-0.414414
C42	C	2.059454	-0.264924	-0.524409
C43	C	2.126597	-0.335515	-0.603509
C44	C	2.215748	-0.267862	-0.708501
H45	H	1.989839	-0.225543	-0.600768
H46	H	2.144027	-0.210536	-0.465599
H47	H	2.042035	-0.389882	-0.662316
H48	H	2.196237	-0.374896	-0.527191
H49	H	2.300321	-0.213474	-0.649691
H50	H	2.146121	-0.228484	-0.784850
H51	H	2.261327	-0.315747	-0.762172
C52	C	1.402860	0.345246	-0.283119
C53	C	1.333784	0.400374	-0.424069
C54	C	1.424609	0.511676	-0.438143
H55	H	1.402942	0.387525	-0.193727
H56	H	1.511252	0.341068	-0.286475
H57	H	1.225421	0.404557	-0.420700
H58	H	1.333704	0.358129	-0.513487
H59	H	1.533000	0.507498	-0.441499
H60	H	1.424684	0.553944	-0.348744
H61	H	1.377763	0.549090	-0.533784
C62	C	2.038332	-0.513749	-0.499997
C63	C	1.923767	-0.592881	-0.598667
C64	C	2.002525	-0.644531	-0.691978
H65	H	2.092750	-0.456379	-0.564309
H66	H	2.115041	-0.552500	-0.432041
H67	H	1.847086	-0.554132	-0.666616
H68	H	1.869342	-0.650274	-0.534398
H69	H	2.079234	-0.683281	-0.624022
H70	H	2.056940	-0.587152	-0.756279
H71	H	1.924807	-0.698235	-0.758926
H72	H	1.712294	-0.529385	-0.115111
C73	C	1.639502	-0.128082	-0.029893
C74	C	1.526527	-0.071156	-0.130501
C75	C	1.447261	-0.019574	-0.037615
H76	H	1.584946	-0.185476	0.034284
H77	H	1.716932	-0.074290	0.037171
H78	H	1.449109	-0.124943	-0.197537
H79	H	1.581042	-0.013745	-0.194678
H80	H	1.524691	0.034218	0.029449
H81	H	1.392714	-0.076976	0.026558
H82	H	1.370609	0.019064	-0.105863
H83	H	1.647778	0.160476	0.187019
