data_functionalizedCrystal
_audit_creation_method	'MofGen! by Chris Wilmer'
_symmetry_space_group_name_H-M	'P1'
_symmetry_Int_Tables_number	1
_symmetry_cell_setting	triclinic
loop_
_symmetry_equiv_pos_as_xyz
  x,y,z
_cell_length_a	14.519709
_cell_length_b	14.853567
_cell_length_c	13.596369
_cell_angle_alpha	90.002958
_cell_angle_beta	89.998664
_cell_angle_gamma	96.342462
loop_
_atom_site_label
_atom_site_type_symbol
_atom_site_fract_x
_atom_site_fract_y
_atom_site_fract_z
O1	O	0.120399	-1.196414	-0.081726
O2	O	0.620399	-0.696414	0.418274
O3	O	0.134742	-0.933960	-0.081743
O4	O	0.634742	-0.433960	0.418257
O5	O	-0.006670	-1.072146	-0.081725
O6	O	0.493330	-0.572146	0.418275
O7	O	0.261812	-1.058228	-0.081744
O8	O	0.761812	-0.558228	0.418256
O9	O	-0.006663	-1.072129	0.081858
O10	O	0.493337	-0.572129	0.581858
O11	O	0.134750	-0.933943	0.081840
O12	O	0.634750	-0.433943	0.581840
O13	O	0.120407	-1.196397	0.081857
O14	O	0.620407	-0.696397	0.581857
Zn15	Zn	0.127580	-1.065167	0.107821
Zn16	Zn	0.627580	-0.565167	0.607821
Zn17	Zn	0.127570	-1.065190	-0.107707
Zn18	Zn	0.627570	-0.565190	0.392293
O19	O	0.261820	-1.058211	0.081839
O20	O	0.761820	-0.558211	0.581839
C21	C	0.134096	-0.900363	0.000047
C22	C	0.634096	-0.400363	0.500047
C23	C	0.132149	-0.800278	0.000040
C24	C	0.632149	-0.300278	0.500040
C25	C	-0.041026	-1.071488	0.000067
C26	C	0.458974	-0.571488	0.500067
C27	C	-0.143407	-1.069545	0.000067
C28	C	0.356593	-0.569545	0.500067
N29	N	0.127586	-1.065159	0.254913
N30	N	0.627586	-0.565159	0.754913
C31	C	-0.518299	-1.062390	0.000041
C32	C	-0.018299	-0.562390	0.500041
C33	C	-0.413992	-1.064377	0.000049
C34	C	0.086008	-0.564377	0.500049
C35	C	-0.330856	-1.065967	0.000055
C36	C	0.169144	-0.565967	0.500055
C37	C	-0.226543	-1.067955	0.000061
C38	C	0.273457	-0.567955	0.500061
C39	C	0.296175	-1.058869	0.000046
C40	C	0.796175	-0.558869	0.500046
C41	C	0.398556	-1.060812	0.000039
C42	C	0.898556	-0.560812	0.500039
C43	C	0.121053	-1.229994	0.000066
C44	C	0.621053	-0.729994	0.500066
C45	C	0.123001	-1.330079	0.000065
C46	C	0.623001	-0.830079	0.500065
C47	C	0.039914	-0.387709	0.000069
C48	C	0.539914	0.112291	0.500069
C49	C	0.207916	-0.366493	0.000056
C50	C	0.707916	0.133507	0.500056
C51	C	0.209747	-0.460527	0.000053
C52	C	0.709747	0.039473	0.500053
C53	C	0.126660	-0.518157	0.000056
C54	C	0.626660	-0.018157	0.500056
C55	C	0.041743	-0.481752	0.000062
C56	C	0.541743	0.018248	0.500062
C57	C	0.294663	-0.496939	0.000036
C58	C	0.794663	0.003061	0.500036
C59	C	0.296498	-0.590979	0.000032
C60	C	0.796498	-0.090979	0.500032
C61	C	0.213410	-0.648610	0.000042
C62	C	0.713410	-0.148610	0.500042
C63	C	0.128489	-0.612200	0.000050
C64	C	0.628489	-0.112200	0.500050
C65	C	0.045403	-0.669830	0.000053
C66	C	0.545403	-0.169830	0.500053
C67	C	-0.039520	-0.633422	0.000068
C68	C	0.460480	-0.133422	0.500068
C69	C	-0.041345	-0.539383	0.000073
C70	C	0.458655	-0.039383	0.500073
C71	C	0.215235	-0.742649	0.000037
C72	C	0.715235	-0.242649	0.500037
C73	C	0.047231	-0.763873	0.000047
C74	C	0.547231	-0.263873	0.500047
N75	N	0.127556	-1.065206	-0.254798
N76	N	0.627556	-0.565206	0.245202
C77	C	0.127588	-1.065163	0.343911
C78	C	0.627588	-0.565163	0.843911
C79	C	0.127582	-1.065172	0.455562
C80	C	0.627582	-0.565172	0.955562
C81	C	0.127572	-1.065184	0.544553
C82	C	0.627572	-0.565184	1.044553
C83	C	0.127566	-1.065194	0.656211
C84	C	0.627566	-0.565194	1.156211
H85	H	-0.020429	-0.810790	0.000053
H86	H	0.479571	-0.310790	0.500053
C87	C	-0.134750	-0.499337	0.000077
C88	C	0.365250	0.000663	0.500077
H89	H	-0.183974	-0.547125	0.000086
H90	H	0.316026	-0.047125	0.500086
H91	H	-0.138954	-0.463096	-0.056968
H92	H	0.361046	0.036904	0.443032
H93	H	-0.138953	-0.463091	0.057129
H94	H	0.361047	0.036909	0.557129
H95	H	-0.107168	-0.680356	0.000063
H96	H	0.392832	-0.180356	0.500063
H97	H	-0.029228	-0.358060	0.000084
H98	H	0.470772	0.141940	0.500084
H99	H	0.275561	-0.319566	0.000045
H100	H	0.775561	0.180434	0.500045
C101	C	0.386049	-0.433549	0.000037
C102	C	0.886049	0.066451	0.500037
H103	H	0.372795	-0.372329	0.000056
H104	H	0.872795	0.127671	0.500056
H105	H	0.420864	-0.444593	-0.057011
H106	H	0.920864	0.055407	0.442989
H107	H	0.420863	-0.444604	0.057086
H108	H	0.920863	0.055396	0.557086
H109	H	0.365646	-0.620614	0.000020
H110	H	0.865646	-0.120614	0.500020
H111	H	0.284378	-0.772288	0.000027
H112	H	0.784378	-0.272288	0.500027
