data_functionalizedCrystal
_audit_creation_method	'MofGen! by Chris Wilmer'
_symmetry_space_group_name_H-M	'P1'
_symmetry_Int_Tables_number	1
_symmetry_cell_setting	triclinic
loop_
_symmetry_equiv_pos_as_xyz
  x,y,z
_cell_length_a	6.817900
_cell_length_b	11.168130
_cell_length_c	16.256277
_cell_angle_alpha	93.879544
_cell_angle_beta	103.500353
_cell_angle_gamma	108.508653
loop_
_atom_site_label
_atom_site_type_symbol
_atom_site_fract_x
_atom_site_fract_y
_atom_site_fract_z
V1	V	-4.052558	-0.175725	-0.263880
O2	O	-4.013235	0.007394	-0.258850
O3	O	-4.029237	-0.347423	-0.262082
O4	O	-4.003848	-0.173483	-0.378965
O5	O	-4.038799	-0.167750	-0.141159
V6	V	-4.532977	-0.153767	-0.249201
O7	O	-4.320627	-0.223891	-0.296081
O8	O	-4.715106	-0.105602	-0.217001
O9	O	-4.333091	0.017931	-0.250999
O10	O	-4.689697	-0.336887	-0.254231
O11	O	-4.664133	-0.161742	-0.371923
O12	O	-4.358480	-0.156010	-0.134117
C13	C	-3.880349	-0.389265	-0.257921
C14	C	-3.942566	-0.529634	-0.257218
C15	C	-3.847962	-0.167385	-0.407015
C16	C	-3.889586	-0.166688	-0.501097
C17	C	-4.011117	-0.609635	-0.330560
C18	C	-4.075422	-0.754714	-0.329835
C19	C	-4.181242	-0.171560	-0.732918
C20	C	-4.058850	-0.063192	-0.776004
C21	C	-3.965691	-0.165375	-0.673344
C22	C	-4.162190	-0.272424	-0.797886
C23	C	-4.039221	-0.164114	-0.839727
C24	C	-3.842707	-0.056930	-0.715182
C25	C	-3.946119	-0.266257	-0.737070
C26	C	-3.823563	-0.157859	-0.780124
C27	C	-3.923336	-0.166101	-0.577495
C28	C	-4.081555	-0.163378	-0.935573
C29	C	-4.145323	0.059766	-0.255158
C30	C	-4.062344	0.200133	-0.255867
C31	C	-4.177709	-0.162111	-0.106062
C32	C	-4.115323	-0.162802	-0.011979
H33	H	-4.022188	-0.570721	-0.393887
O34	O	-4.153323	-0.845750	-0.413012
H35	H	-4.025877	-0.824480	-0.447175
O36	O	-3.927867	-0.581169	-0.173330
H37	H	-3.867851	-0.500497	-0.119715
H38	H	-4.106887	0.022670	-0.793393
H39	H	-4.003560	-0.731142	-0.193074
H40	H	-3.898149	-0.352128	-0.719666
H41	H	-3.707306	0.034225	-0.679387
H42	H	-4.331945	-0.177227	-0.712028
O43	O	-3.623598	-0.150136	-0.807585
H44	H	-3.491750	-0.060645	-0.773963
O45	O	-4.341635	-0.393053	-0.845423
H46	H	-4.490239	-0.398474	-0.826608
