data_functionalizedCrystal
_audit_creation_method	'MofGen! by Chris Wilmer'
_symmetry_space_group_name_H-M	'P1'
_symmetry_Int_Tables_number	1
_symmetry_cell_setting	triclinic
loop_
_symmetry_equiv_pos_as_xyz
  x,y,z
_cell_length_a	17.077404
_cell_length_b	19.077432
_cell_length_c	17.077396
_cell_angle_alpha	92.327207
_cell_angle_beta	90.018362
_cell_angle_gamma	87.725003
loop_
_atom_site_label
_atom_site_type_symbol
_atom_site_fract_x
_atom_site_fract_y
_atom_site_fract_z
Zn1	Zn	1.212591	-0.280236	0.431266
Zn2	Zn	1.217764	-0.397938	0.294728
Zn3	Zn	1.081324	-0.280256	0.300016
Zn4	Zn	1.086555	-0.397891	0.425956
O5	O	1.149558	-0.339080	0.362992
O6	O	1.323125	-0.295860	0.413163
O7	O	1.199641	-0.382355	0.185581
O8	O	1.094383	-0.181763	0.321862
O9	O	1.326925	-0.382335	0.312849
O10	O	1.190825	-0.181749	0.418291
O11	O	1.099399	-0.295894	0.189466
O12	O	0.972170	-0.295849	0.316713
O13	O	1.103298	-0.382256	0.536509
O14	O	0.976013	-0.382276	0.409241
O15	O	1.195897	-0.295815	0.540410
O16	O	1.204713	-0.496421	0.307700
O17	O	1.108314	-0.496387	0.404113
C18	C	0.945610	-0.339060	0.362975
C19	C	0.858360	-0.339069	0.362986
C20	C	0.815396	-0.294121	0.415292
C21	C	0.733415	-0.294126	0.415296
C22	C	0.694402	-0.339082	0.362996
C23	C	0.737372	-0.384031	0.310683
C24	C	0.819351	-0.384023	0.310677
C25	C	0.566503	-0.384047	0.310702
C26	C	0.484518	-0.384057	0.310710
C27	C	0.480568	-0.294150	0.415321
C28	C	0.562546	-0.294141	0.415314
C29	C	0.605511	-0.339092	0.363003
C30	C	1.157663	-0.521942	0.354774
C31	C	1.161202	-0.600170	0.351285
C32	C	1.112641	-0.636930	0.399801
C33	C	1.115970	-0.710435	0.396519
C34	C	1.167864	-0.747178	0.344725
C35	C	1.216428	-0.710413	0.296203
C36	C	1.213095	-0.636910	0.299481
C37	C	1.183216	-0.967008	0.329538
C38	C	1.186547	-1.040516	0.326265
C39	C	1.086087	-1.040533	0.426581
C40	C	1.082762	-0.967028	0.429858
C41	C	1.131322	-0.930270	0.381333
N42	N	1.171270	-0.822311	0.341371
N43	N	1.127912	-0.855138	0.384684
C44	C	1.354304	-0.339101	0.363009
C45	C	1.441554	-0.339109	0.363016
C46	C	1.149604	-0.339028	0.567738
C47	C	1.149623	-0.339006	0.654989
C48	C	1.141443	-0.155505	0.371258
C49	C	1.137985	-0.077276	0.374781
C50	C	1.149556	-0.339081	0.159044
C51	C	1.149680	-0.338905	0.071802
C52	C	1.197841	-0.293993	0.698012
C53	C	1.197849	-0.293969	0.779994
C54	C	1.149643	-0.338963	0.818951
C55	C	1.101420	-0.383979	0.775922
C56	C	1.101408	-0.383998	0.693942
C57	C	1.101450	-0.383937	0.946794
C58	C	1.101463	-0.383918	1.028779
C59	C	1.197891	-0.293907	1.032846
C60	C	1.197879	-0.293927	0.950866
C61	C	1.149656	-0.338944	0.907842
H62	H	0.601482	-0.420649	0.268103
H63	H	1.062136	-0.420646	0.658914
Cl64	Cl	1.040815	-0.440541	0.824896
Cl65	Cl	1.274141	-0.590697	0.238482
Cl66	Cl	0.435474	-0.440591	0.244978
H67	H	1.222757	-0.937084	0.290029
Cl68	Cl	1.281667	-0.756604	0.231089
Cl69	Cl	0.426555	-0.237639	0.481082
H70	H	0.705600	-0.420632	0.268096
H71	H	0.847155	-0.257514	0.457883
H72	H	0.854332	-0.420623	0.268083
H73	H	1.237098	-0.257355	0.666299
H74	H	1.070386	-0.607019	0.441981
Cl75	Cl	1.040851	-0.440476	1.077753
H76	H	1.228810	-1.070430	0.284088
Cl77	Cl	1.258505	-0.237409	0.834075
H78	H	1.076419	-0.740362	0.436019
H79	H	0.698437	-0.257526	0.457890
H80	H	1.040505	-0.937114	0.472033
H81	H	1.237137	-0.257292	0.919149
Cl82	Cl	1.258514	-0.237316	1.086931
H83	H	0.594309	-0.257538	0.457906
Cl84	Cl	1.025041	-1.086748	0.487576
Cl85	Cl	1.040825	-0.440529	0.892709
