data_functionalizedCrystal
_audit_creation_method	'MofGen! by Chris Wilmer'
_symmetry_space_group_name_H-M	'P1'
_symmetry_Int_Tables_number	1
_symmetry_cell_setting	triclinic
loop_
_symmetry_equiv_pos_as_xyz
  x,y,z
_cell_length_a	12.759395
_cell_length_b	29.839131
_cell_length_c	12.759387
_cell_angle_alpha	89.955090
_cell_angle_beta	89.979491
_cell_angle_gamma	90.036766
loop_
_atom_site_label
_atom_site_type_symbol
_atom_site_fract_x
_atom_site_fract_y
_atom_site_fract_z
Zn1	Zn	1.606119	-0.178811	-0.593902
Zn2	Zn	1.605946	-0.253949	-0.418179
Zn3	Zn	1.430417	-0.178836	-0.418239
Zn4	Zn	1.430346	-0.253917	-0.593818
O5	O	1.518207	-0.216378	-0.506035
O6	O	1.753117	-0.188782	-0.570602
O7	O	1.582620	-0.244009	-0.271166
O8	O	1.453826	-0.115965	-0.441601
O9	O	1.752990	-0.243985	-0.441499
O10	O	1.582913	-0.115947	-0.570660
O11	O	1.453659	-0.188823	-0.271210
O12	O	1.283387	-0.188792	-0.441520
O13	O	1.453706	-0.243930	-0.740851
O14	O	1.283335	-0.243954	-0.570517
O15	O	1.582845	-0.188751	-0.740912
O16	O	1.582551	-0.316812	-0.441418
O17	O	1.453538	-0.316788	-0.570459
C18	C	1.245240	-0.216373	-0.506017
C19	C	1.128463	-0.216381	-0.506034
C20	C	1.128447	-0.273914	-0.640141
C21	C	1.073579	-0.302684	-0.707198
C22	C	0.963857	-0.302690	-0.707211
C23	C	0.909002	-0.273921	-0.640162
C24	C	0.963870	-0.245151	-0.573105
C25	C	1.073594	-0.245150	-0.573097
C26	C	0.963886	-0.187617	-0.439005
C27	C	1.073607	-0.187613	-0.438985
C28	C	0.909030	-0.158848	-0.371956
C29	C	0.963899	-0.130079	-0.304892
C30	C	1.073627	-0.130076	-0.304881
C31	C	1.128476	-0.158843	-0.371928
C32	C	1.518047	-0.333101	-0.505946
C33	C	1.518075	-0.383035	-0.505943
C34	C	1.585408	-0.692634	-0.573331
C35	C	1.585522	-0.880307	-0.573394
O36	O	1.642615	-0.904535	-0.630624
N37	N	1.518386	-0.903820	-0.506151
C38	C	1.451211	-0.880412	-0.438892
O39	O	1.394102	-0.904717	-0.381707
C40	C	1.451092	-0.692740	-0.438835
C41	C	1.518241	-0.669229	-0.506075
C42	C	1.652551	-0.669124	-0.640567
C43	C	1.652526	-0.622208	-0.640546
C44	C	1.585358	-0.598803	-0.573290
C45	C	1.518216	-0.622314	-0.506055
C46	C	1.383913	-0.669332	-0.371582
C47	C	1.383887	-0.622411	-0.371576
C48	C	1.451036	-0.598901	-0.438816
C49	C	1.451023	-0.551994	-0.438778
N50	N	1.518160	-0.528481	-0.506022
C51	C	1.585327	-0.551886	-0.573278
C52	C	1.451279	-0.978943	-0.438925
C53	C	1.451310	-1.025860	-0.438938
C54	C	1.585620	-1.025753	-0.573442
C55	C	1.585594	-0.978834	-0.573423
C56	C	1.518416	-0.955430	-0.506169
C57	C	1.585270	-0.453360	-0.573229
C58	C	1.585242	-0.406440	-0.573199
C59	C	1.450928	-0.406552	-0.438700
C60	C	1.450959	-0.453468	-0.438725
C61	C	1.518134	-0.476870	-0.505998
O62	O	1.393952	-0.527737	-0.381587
O63	O	1.642411	-0.527572	-0.630471
C64	C	1.585433	-0.739550	-0.573352
C65	C	1.518291	-0.763060	-0.506116
C66	C	1.451124	-0.739655	-0.438860
C67	C	1.518322	-0.809978	-0.506129
C68	C	1.585489	-0.833383	-0.573385
C69	C	1.652626	-0.809870	-0.640628
C70	C	1.652601	-0.762955	-0.640608
C71	C	1.383987	-0.763168	-0.371617
C72	C	1.384018	-0.810084	-0.371642
C73	C	1.451186	-0.833489	-0.438898
C74	C	1.792241	-0.216384	-0.506053
C75	C	1.909017	-0.216387	-0.506061
C76	C	1.518287	-0.216334	-0.780068
C77	C	1.518320	-0.216315	-0.896845
C78	C	1.518397	-0.099200	-0.506147
C79	C	1.518477	-0.049265	-0.506194
C80	C	1.652802	-0.158860	-0.896929
C81	C	1.720058	-0.130126	-0.951832
C82	C	1.720083	-0.130110	-1.061553
C83	C	1.652844	-0.158830	-1.116375
C84	C	1.585588	-0.187564	-1.061472
C85	C	1.585572	-0.187578	-0.951748
C86	C	1.451103	-0.245016	-1.061388
C87	C	1.451081	-0.245035	-0.951667
C88	C	1.383863	-0.273736	-1.116210
C89	C	1.316612	-0.302473	-1.061307
C90	C	1.316590	-0.302489	-0.951579
C91	C	1.383825	-0.273770	-0.896764
C92	C	1.518189	-0.216390	-0.233067
C93	C	1.518358	-0.216282	-0.116291
H94	H	1.217789	-0.273916	-0.640130
H95	H	0.919184	-0.326114	-0.761820
H96	H	0.919227	-0.106656	-0.250311
H97	H	1.639926	-0.387299	-0.627954
O98	O	1.657727	-0.478598	-0.645778
H99	H	1.704412	-0.454362	-0.692514
H100	H	1.640272	-0.959694	-0.628177
H101	H	1.383818	-0.273781	-0.807423
H102	H	1.707201	-0.603069	-0.695302
O103	O	1.132740	-0.333702	-0.779539
H104	H	1.218255	-0.328866	-0.768271
O105	O	1.652854	-0.158809	-1.234718
H106	H	1.732082	-0.167890	-1.263662
H107	H	1.261865	-0.325852	-1.105951
O108	O	1.244028	-0.333472	-0.892361
H109	H	1.197279	-0.353437	-0.948919
H110	H	1.329233	-0.688467	-0.316828
O111	O	1.725005	-0.694364	-0.713109
H112	H	1.771686	-0.670127	-0.759847
H113	H	1.396642	-1.044999	-0.384173
H114	H	1.118295	-0.106644	-0.250282
O115	O	1.652791	-0.158891	-0.778586
H116	H	1.573562	-0.149817	-0.749635
O117	O	0.790659	-0.273939	-0.640139
H118	H	0.761721	-0.298784	-0.698016
H119	H	1.640312	-1.044817	-0.628203
O120	O	0.790687	-0.158874	-0.371951
H121	H	0.761775	-0.149851	-0.451237
H122	H	1.383885	-0.273719	-1.205551
H123	H	1.217817	-0.158843	-0.371923
O124	O	1.378836	-0.953701	-0.366365
H125	H	1.332175	-0.977938	-0.319604
H126	H	1.707279	-0.743816	-0.695361
O127	O	1.311439	-0.597167	-0.299026
H128	H	1.264765	-0.621401	-0.252270
H129	H	1.396290	-0.472611	-0.383964
H130	H	1.396244	-0.387489	-0.383937
H131	H	1.774801	-0.106742	-0.907184
O132	O	1.725065	-0.835118	-0.713181
H133	H	1.713785	-0.871692	-0.701898
H134	H	1.329339	-0.829222	-0.316877
O135	O	1.311554	-0.737927	-0.299058
H136	H	1.264889	-0.762163	-0.252300
O137	O	1.792623	-0.099121	-1.120781
H138	H	1.839380	-0.079154	-1.064232
