data_functionalizedCrystal
_audit_creation_method	'MofGen! by Chris Wilmer'
_symmetry_space_group_name_H-M	'P1'
_symmetry_Int_Tables_number	1
_symmetry_cell_setting	triclinic
loop_
_symmetry_equiv_pos_as_xyz
  x,y,z
_cell_length_a	14.971506
_cell_length_b	15.186229
_cell_length_c	14.971496
_cell_angle_alpha	90.004655
_cell_angle_beta	83.620256
_cell_angle_gamma	90.003663
loop_
_atom_site_label
_atom_site_type_symbol
_atom_site_fract_x
_atom_site_fract_y
_atom_site_fract_z
O1	O	1.186936	0.073237	0.116647
O2	O	0.926539	0.073237	0.130587
O3	O	1.063712	0.073229	-0.006582
O4	O	1.049763	0.073245	0.253816
O5	O	1.063703	-0.073228	-0.006584
O6	O	0.926530	-0.073220	0.130585
O7	O	1.186927	-0.073221	0.116645
Zn8	Zn	1.056727	-0.096474	0.123615
Zn9	Zn	1.056739	0.096490	0.123617
O10	O	1.049754	-0.073212	0.253814
C11	C	0.893210	0.000009	0.129959
C12	C	0.793914	0.000009	0.128081
N13	N	1.056725	-0.228166	0.123612
C14	C	0.355634	0.000022	0.201499
C15	C	0.448934	0.000026	0.203257
C16	C	0.506151	0.000017	0.122665
C17	C	0.470064	0.000013	0.040310
C18	C	0.376765	0.000016	0.038553
C19	C	0.664527	0.000006	0.043977
C20	C	0.757832	0.000002	0.045733
C21	C	0.736696	0.000016	0.208680
C22	C	0.643397	0.000019	0.206923
C23	C	0.607316	0.000013	0.124568
C24	C	1.117486	-0.453893	0.062895
C25	C	1.117489	-0.546082	0.062892
C26	C	0.995980	-0.546084	0.184333
C27	C	0.995974	-0.453896	0.184330
C28	C	1.056732	-0.407803	0.123612
C29	C	1.056741	-0.592181	0.123613
C30	C	1.056744	-0.692137	0.123611
C31	C	1.056729	-0.307840	0.123613
C32	C	1.220256	0.000010	0.117273
C33	C	1.319552	0.000016	0.119151
C34	C	1.063082	0.000000	-0.039908
C35	C	1.061208	-0.000000	-0.139204
N36	N	1.056748	0.228183	0.123613
C37	C	1.053145	0.079857	-0.566908
C38	C	1.054911	0.079853	-0.473609
C39	C	1.055783	0.000016	-0.426966
C40	C	1.054898	-0.079823	-0.473629
C41	C	1.053139	-0.079818	-0.566927
C42	C	1.058563	-0.079827	-0.279165
C43	C	1.060321	-0.079832	-0.185860
C44	C	1.060335	0.079844	-0.185847
C45	C	1.058576	0.079848	-0.279145
C46	C	1.057690	0.000010	-0.325801
C47	C	1.050384	0.000018	0.287140
C48	C	1.052258	0.000024	0.386436
H49	H	0.309053	0.000023	0.267127
H50	H	1.166958	-0.416366	0.013453
H51	H	1.055614	-0.144828	-0.435646
C52	C	0.929155	-0.596787	0.251128
C53	C	0.929206	-0.698190	0.251188
C54	C	0.862381	-0.748890	0.317988
C55	C	0.795505	-0.698187	0.384728
C56	C	0.795451	-0.596778	0.384670
C57	C	0.862276	-0.546079	0.317871
H58	H	0.978714	-0.735729	0.201782
H59	H	0.862421	-0.823960	0.318030
H60	H	0.746037	-0.735718	0.434177
H61	H	0.745943	-0.559240	0.434077
H62	H	0.862236	-0.471009	0.317828
C63	C	0.820777	0.000004	-0.042915
C64	C	0.887819	-0.076048	-0.064116
C65	C	0.950767	-0.076043	-0.152764
C66	C	0.946673	0.000014	-0.220209
C67	C	0.879628	0.076072	-0.199009
C68	C	0.816681	0.076067	-0.110362
H69	H	0.890852	-0.132355	-0.014188
H70	H	1.000397	-0.132347	-0.168457
H71	H	0.993270	0.000017	-0.285831
H72	H	0.876595	0.132379	-0.248938
H73	H	0.767050	0.132371	-0.094669
C74	C	0.624834	-0.000005	-0.046613
C75	C	0.646368	-0.076070	-0.113576
C76	C	0.606673	-0.076087	-0.204161
C77	C	0.545444	-0.000040	-0.227785
C78	C	0.523907	0.076031	-0.160820
C79	C	0.563602	0.076048	-0.070234
H80	H	0.691696	-0.132370	-0.096090
H81	H	0.622617	-0.132400	-0.253733
H82	H	0.516060	-0.000053	-0.294842
H83	H	0.478579	0.132330	-0.178306
H84	H	0.547658	0.132361	-0.020663
C85	C	0.488615	0.000024	0.293846
C86	C	0.467057	-0.076029	0.360808
C87	C	0.506733	-0.076032	0.451404
C88	C	0.567967	0.000018	0.475038
C89	C	0.589528	0.076078	0.408074
C90	C	0.549852	0.076080	0.317479
H91	H	0.421725	-0.132331	0.343314
H92	H	0.490772	-0.132336	0.500975
H93	H	0.597338	0.000016	0.542102
H94	H	0.634860	0.132380	0.425568
H95	H	0.565814	0.132385	0.267908
H96	H	1.055636	0.144860	-0.435626
C97	C	0.337071	0.000005	-0.052031
C98	C	0.358603	-0.076054	-0.119001
C99	C	0.318909	-0.076061	-0.209588
C100	C	0.257684	-0.000008	-0.233205
C101	C	0.236149	0.076057	-0.166233
C102	C	0.275842	0.076064	-0.075646
H103	H	0.403928	-0.132358	-0.101520
H104	H	0.334851	-0.132370	-0.259164
H105	H	0.228301	-0.000013	-0.300262
H106	H	0.190824	0.132361	-0.183714
H107	H	0.259901	0.132372	-0.026070
C108	C	1.052185	0.167680	-0.618211
C109	C	1.128586	0.189637	-0.692417
C110	C	1.127629	0.277463	-0.743717
C111	C	1.050271	0.343332	-0.720812
C112	C	0.973865	0.321378	-0.646603
C113	C	0.974822	0.233552	-0.595302
H114	H	1.185856	0.140875	-0.709376
H115	H	1.184190	0.293715	-0.798652
H116	H	1.049562	0.408347	-0.758788
H117	H	0.916595	0.370140	-0.629644
H118	H	0.918261	0.217300	-0.540367
H119	H	1.166960	-0.583606	0.013450
C120	C	1.057617	0.167670	-0.330451
C121	C	1.135477	0.233529	-0.327685
C122	C	1.134521	0.321352	-0.378990
C123	C	1.055705	0.343317	-0.433062
C124	C	0.977839	0.277457	-0.435830
C125	C	0.978795	0.189634	-0.384525
H126	H	1.193827	0.217270	-0.287655
H127	H	1.192163	0.370106	-0.376940
H128	H	1.054998	0.408330	-0.471041
H129	H	0.919490	0.293716	-0.475860
H130	H	0.921153	0.140880	-0.386575
C131	C	1.061315	0.167670	-0.134533
C132	C	1.140139	0.189631	-0.080464
C133	C	1.141114	0.277455	-0.029147
C134	C	1.063265	0.343318	-0.031900
C135	C	0.984435	0.321359	-0.085971
C136	C	0.983461	0.233535	-0.137288
H137	H	1.197773	0.140874	-0.078424
H138	H	1.199469	0.293710	0.010881
H139	H	1.063987	0.408331	0.006088
H140	H	0.926802	0.370117	-0.088011
H141	H	0.925105	0.217280	-0.177316
C142	C	1.061280	-0.167649	-0.134545
C143	C	0.983425	-0.233514	-0.137311
C144	C	0.984381	-0.321330	-0.085993
C145	C	1.063192	-0.343281	-0.031908
C146	C	1.141052	-0.277415	-0.029140
C147	C	1.140096	-0.189599	-0.080459
H148	H	0.925080	-0.217266	-0.177350
H149	H	0.926743	-0.370089	-0.088042
H150	H	1.063899	-0.408288	0.006081
H151	H	1.199398	-0.293663	0.010898
H152	H	1.197734	-0.140840	-0.078409
C153	C	1.057569	-0.167645	-0.330495
C154	C	0.980178	-0.233488	-0.307607
C155	C	0.979170	-0.321301	-0.358939
C156	C	1.055554	-0.343271	-0.433159
C157	C	1.132951	-0.277427	-0.456050
C158	C	1.133958	-0.189614	-0.404718
H159	H	0.923629	-0.217226	-0.252662
H160	H	0.921876	-0.370043	-0.341994
H161	H	1.054808	-0.408275	-0.471158
H162	H	1.189500	-0.293689	-0.510995
H163	H	1.191253	-0.140872	-0.421663
C164	C	0.776374	0.000018	0.299276
C165	C	0.837600	-0.076037	0.322887
C166	C	0.877280	-0.076046	0.413480
C167	C	0.855735	0.000000	0.480463
C168	C	0.794506	0.076061	0.456854
C169	C	0.754826	0.076070	0.366260
H170	H	0.853552	-0.132336	0.273300
H171	H	0.922606	-0.132351	0.430957
H172	H	0.885108	-0.000006	0.547526
H173	H	0.778554	0.132360	0.506440
H174	H	0.709500	0.132375	0.348784
H175	H	0.946496	-0.416367	0.233774
C176	C	1.052157	-0.167633	-0.618256
C177	C	0.973337	-0.189577	-0.672337
C178	C	0.972360	-0.277394	-0.723667
C179	C	1.050201	-0.343265	-0.720915
C180	C	1.129027	-0.321323	-0.666832
C181	C	1.130005	-0.233506	-0.615502
H182	H	0.915709	-0.140814	-0.674375
H183	H	0.914007	-0.293637	-0.763703
H184	H	1.049478	-0.408272	-0.758913
H185	H	1.186655	-0.370086	-0.664794
H186	H	1.188357	-0.217263	-0.575467
H187	H	0.596813	0.000020	0.272549
H188	H	0.516658	0.000012	-0.025309
