data_functionalizedCrystal
_audit_creation_method	'MofGen! by Chris Wilmer'
_symmetry_space_group_name_H-M	'P1'
_symmetry_Int_Tables_number	1
_symmetry_cell_setting	triclinic
loop_
_symmetry_equiv_pos_as_xyz
  x,y,z
_cell_length_a	12.827893
_cell_length_b	12.827885
_cell_length_c	12.827892
_cell_angle_alpha	89.970024
_cell_angle_beta	90.015362
_cell_angle_gamma	89.980728
loop_
_atom_site_label
_atom_site_type_symbol
_atom_site_fract_x
_atom_site_fract_y
_atom_site_fract_z
Zn1	Zn	1.597670	-0.590849	-0.415981
Zn2	Zn	1.597564	-0.416109	-0.590759
Zn3	Zn	1.422911	-0.416122	-0.416033
Zn4	Zn	1.422896	-0.590809	-0.590681
O5	O	1.510260	-0.503472	-0.503364
O6	O	1.743892	-0.567680	-0.439177
O7	O	1.574357	-0.269875	-0.567636
O8	O	1.446144	-0.439322	-0.269790
O9	O	1.743814	-0.439300	-0.567586
O10	O	1.574538	-0.567693	-0.269752
O11	O	1.446041	-0.269884	-0.439265
O12	O	1.276673	-0.439284	-0.439189
O13	O	1.446118	-0.737050	-0.567452
O14	O	1.276662	-0.567625	-0.567502
O15	O	1.574524	-0.737080	-0.439101
O16	O	1.574343	-0.439261	-0.736985
O17	O	1.446016	-0.567612	-0.736927
C18	C	1.238750	-0.503452	-0.503343
C19	C	1.122597	-0.503469	-0.503360
C20	C	1.070835	-0.566878	-0.566953
C21	C	0.950784	-0.566896	-0.566971
C22	C	1.510331	-0.776043	-0.503262
C23	C	1.510362	-0.892196	-0.503219
C24	C	1.573864	-0.943976	-0.566715
C25	C	1.573896	-1.064026	-0.566672
C26	C	1.782830	-0.503493	-0.503385
C27	C	1.898983	-0.503502	-0.503393
C28	C	1.510195	-0.503454	-0.774873
C29	C	1.510262	-0.503481	-0.891027
C30	C	1.510249	-0.231962	-0.503389
C31	C	1.510422	-0.115810	-0.503138
C32	C	1.573838	-0.440039	-0.942805
C33	C	1.573910	-0.440066	-1.062855
C34	C	1.510354	-0.503514	-0.230793
C35	C	1.510394	-0.503531	-0.114640
H36	H	1.078036	-0.449199	-0.448926
Cl37	Cl	1.657803	-0.356153	-0.874037
Cl38	Cl	1.657944	-0.356197	-1.131598
Cl39	Cl	1.426346	-0.587391	-1.045905
H40	H	1.628210	-0.899430	-0.621105
H41	H	1.456024	-0.936742	-0.448822
H42	H	1.628262	-1.108556	-0.621034
Cl43	Cl	0.967698	-0.419673	-0.419334
Cl44	Cl	1.426310	-0.587379	-0.959795
Cl45	Cl	1.139624	-0.650672	-0.650998
Cl46	Cl	0.882063	-0.650711	-0.651039
H47	H	1.456049	-1.071287	-0.448777
