data_functionalizedCrystal
_audit_creation_method	'MofGen! by Chris Wilmer'
_symmetry_space_group_name_H-M	'P1'
_symmetry_Int_Tables_number	1
_symmetry_cell_setting	triclinic
loop_
_symmetry_equiv_pos_as_xyz
  x,y,z
_cell_length_a	19.188925
_cell_length_b	19.188930
_cell_length_c	13.101039
_cell_angle_alpha	93.345801
_cell_angle_beta	86.652915
_cell_angle_gamma	83.143665
loop_
_atom_site_label
_atom_site_type_symbol
_atom_site_fract_x
_atom_site_fract_y
_atom_site_fract_z
O1	O	0.930001	0.083283	-0.085248
O2	O	1.263335	0.416616	0.248086
O3	O	1.596668	0.749949	0.581419
O4	O	0.726690	0.095021	-0.085246
O5	O	1.060023	0.428354	0.248087
O6	O	1.393356	0.761688	0.581420
O7	O	0.834212	-0.012503	-0.085227
O8	O	1.167545	0.320830	0.248106
O9	O	1.500878	0.654164	0.581440
O10	O	0.822479	0.190807	-0.085267
O11	O	1.155813	0.524140	0.248066
O12	O	1.489146	0.857473	0.581400
O13	O	0.826497	-0.004776	0.085201
O14	O	1.159830	0.328558	0.418535
O15	O	1.493164	0.661891	0.751868
O16	O	0.718975	0.102748	0.085182
O17	O	1.052308	0.436082	0.418515
O18	O	1.385642	0.769415	0.751849
O19	O	0.922287	0.091010	0.085181
O20	O	1.255620	0.424343	0.418514
O21	O	1.588953	0.757677	0.751847
Zn22	Zn	0.819406	0.098106	0.112241
Zn23	Zn	1.152739	0.431439	0.445574
Zn24	Zn	1.486073	0.764773	0.778907
Zn25	Zn	0.829570	0.087925	-0.112306
Zn26	Zn	1.162904	0.421258	0.221027
Zn27	Zn	1.496237	0.754591	0.554360
O28	O	0.814765	0.198534	0.085161
O29	O	1.148098	0.531867	0.418495
O30	O	1.481431	0.865201	0.751828
C31	C	0.696821	0.098505	-0.000032
C32	C	1.030154	0.431838	0.333302
C33	C	1.363488	0.765172	0.666635
C34	C	0.619316	0.097366	-0.000030
C35	C	0.952650	0.430699	0.333303
C36	C	1.285983	0.764033	0.666636
C37	C	0.057547	0.152829	-0.000044
C38	C	0.390880	0.486163	0.333290
C39	C	0.724213	0.819496	0.666623
C40	C	0.130370	0.153906	-0.000049
C41	C	0.463704	0.487239	0.333284
C42	C	0.797037	0.820572	0.666617
C43	C	0.175304	0.090814	-0.000035
C44	C	0.508637	0.424147	0.333298
C45	C	0.841971	0.757481	0.666631
C46	C	0.147410	0.026640	-0.000042
C47	C	0.480744	0.359974	0.333292
C48	C	0.814077	0.693307	0.666625
C49	C	0.074588	0.025566	-0.000046
C50	C	0.407922	0.358899	0.333287
C51	C	0.741255	0.692232	0.666621
N52	N	0.293355	0.047769	0.057989
N53	N	0.626688	0.381102	0.391322
N54	N	0.960021	0.714436	0.724656
N55	N	0.362532	0.048794	0.057995
N56	N	0.695865	0.382128	0.391329
N57	N	1.029198	0.715461	0.724662
C58	C	0.394713	0.094049	-0.000024
C59	C	0.728046	0.427382	0.333310
C60	C	1.061379	0.760715	0.666643
N61	N	0.355101	0.138250	-0.058037
N62	N	0.688435	0.471583	0.275297
N63	N	1.021768	0.804917	0.608630
N64	N	0.285917	0.137227	-0.058039
N65	N	0.619251	0.470560	0.275295
N66	N	0.952584	0.803893	0.608628
C67	C	0.254268	0.091973	-0.000031
C68	C	0.587601	0.425306	0.333302
C69	C	0.920935	0.758639	0.666636
C70	C	0.501562	0.159385	-0.000031
C71	C	0.834895	0.492718	0.333302
C72	C	1.168229	0.826052	0.666636
C73	C	0.574387	0.160458	-0.000043
C74	C	0.907721	0.493792	0.333290
C75	C	1.241054	0.827125	0.666624
C76	C	0.591426	0.033192	-0.000025
C77	C	0.924759	0.366525	0.333309
C78	C	1.258092	0.699858	0.666642
C79	C	0.518602	0.032120	-0.000023
C80	C	0.851935	0.365453	0.333310
C81	C	1.185269	0.698786	0.666644
C82	C	0.473674	0.095219	-0.000021
C83	C	0.807007	0.428552	0.333312
C84	C	1.140341	0.761885	0.666646
C85	C	0.829974	-0.034650	-0.000010
C86	C	1.163308	0.298683	0.333323
C87	C	1.496641	0.632016	0.666657
C88	C	0.828833	-0.112154	-0.000001
C89	C	1.162166	0.221179	0.333332
C90	C	1.495500	0.554512	0.666666
C91	C	0.891924	-0.157079	0.000003
C92	C	1.225257	0.176254	0.333337
C93	C	1.558591	0.509587	0.666670
C94	C	0.890853	-0.229904	-0.000013
C95	C	1.224186	0.103429	0.333320
C96	C	1.557520	0.436763	0.666654
C97	C	0.826687	-0.257799	-0.000013
C98	C	1.160020	0.075534	0.333320
C99	C	1.493353	0.408867	0.666653
C100	C	0.763588	-0.212865	-0.000024
C101	C	1.096921	0.120469	0.333310
C102	C	1.430255	0.453802	0.666643
C103	C	0.764661	-0.140042	-0.000017
C104	C	1.097994	0.193291	0.333316
C105	C	1.431328	0.526624	0.666649
N106	N	0.775014	-0.363173	0.057987
N107	N	1.108347	-0.029840	0.391320
N108	N	1.441681	0.303493	0.724654
N109	N	0.773999	-0.432352	0.057983
N110	N	1.107332	-0.099019	0.391317
N111	N	1.440665	0.234314	0.724650
C112	C	0.823450	-0.477209	-0.000034
C113	C	1.156783	-0.143875	0.333299
C114	C	1.490116	0.189458	0.666633
N115	N	0.873964	-0.450274	-0.058035
N116	N	1.207298	-0.116941	0.275298
N117	N	1.540631	0.216393	0.608632
N118	N	0.874981	-0.381089	-0.058027
N119	N	1.208315	-0.047756	0.275307
N120	N	1.541648	0.285578	0.608640
C121	C	0.825516	-0.336762	-0.000021
C122	C	1.158849	-0.003429	0.333313
C123	C	1.492183	0.329905	0.666646
C124	C	0.885384	-0.601099	-0.000049
C125	C	1.218717	-0.267766	0.333285
C126	C	1.552050	0.065568	0.666618
C127	C	0.884310	-0.673925	-0.000072
C128	C	1.217644	-0.340591	0.333262
C129	C	1.550977	-0.007258	0.666595
C130	C	0.757043	-0.656883	-0.000072
C131	C	1.090376	-0.323550	0.333261
C132	C	1.423710	0.009783	0.666595
C133	C	0.758119	-0.584060	-0.000059
C134	C	1.091452	-0.250726	0.333274
C135	C	1.424785	0.082607	0.666607
C136	C	0.822291	-0.556172	-0.000043
C137	C	1.155624	-0.222839	0.333290
C138	C	1.488957	0.110495	0.666624
C139	C	0.952155	0.087526	-0.000036
C140	C	1.285489	0.420859	0.333297
C141	C	1.618822	0.754192	0.666631
C142	C	1.029660	0.088664	-0.000044
C143	C	1.362994	0.421998	0.333289
C144	C	1.696327	0.755331	0.666622
C145	C	0.819002	0.220681	-0.000058
C146	C	1.152335	0.554014	0.333275
C147	C	1.485669	0.887348	0.666609
C148	C	0.820144	0.298185	-0.000074
C149	C	1.153477	0.631518	0.333260
C150	C	1.486810	0.964852	0.666593
N151	N	0.812474	0.105054	0.265488
N152	N	1.145807	0.438387	0.598821
N153	N	1.479141	0.771721	0.932155
N154	N	0.836508	0.080971	-0.265554
N155	N	1.169841	0.414305	0.067780
N156	N	1.503174	0.747638	0.401113
C157	C	0.803043	0.114513	0.474529
C158	C	1.136376	0.447847	0.807862
C159	C	1.469710	0.781180	1.141195
C160	C	0.845936	0.071514	0.525412
C161	C	1.179270	0.404848	0.858746
C162	C	1.512603	0.738181	1.192079
C163	C	0.840689	0.076777	0.641730
C164	C	1.174022	0.410111	0.975063
C165	C	1.507356	0.743444	1.308396
C166	C	0.808290	0.109251	0.358201
C167	C	1.141623	0.442584	0.691534
C168	C	1.474956	0.775918	1.024867
H169	H	0.153079	0.206158	-0.000039
H170	H	0.486413	0.539492	0.333294
H171	H	0.819746	0.872825	0.666627
H172	H	0.942231	-0.266489	-0.000013
H173	H	1.275564	0.066844	0.333320
H174	H	1.608898	0.400178	0.666653
Br175	Br	0.208390	-0.058985	-0.000031
Br176	Br	0.541723	0.274348	0.333302
Br177	Br	0.875057	0.607682	0.666636
H178	H	0.051885	-0.026687	-0.000047
H179	H	0.385218	0.306647	0.333287
H180	H	0.718552	0.639980	0.666620
H181	H	0.628011	-0.018179	-0.000021
H182	H	0.961344	0.315154	0.333312
H183	H	1.294677	0.648488	0.666646
H184	H	0.886600	0.030749	0.481617
H185	H	1.219933	0.364082	0.814951
H186	H	1.553267	0.697416	1.148284
H187	H	0.464980	0.210764	-0.000031
H188	H	0.798313	0.544097	0.333302
H189	H	1.131646	0.877430	0.666635
H190	H	0.762383	0.155277	0.518319
H191	H	1.095717	0.488610	0.851652
H192	H	1.429050	0.821944	1.184985
H193	H	0.944178	-0.134378	0.000013
H194	H	1.277511	0.198955	0.333347
H195	H	1.610845	0.532288	0.666680
Br196	Br	-0.003423	0.238462	-0.000053
Br197	Br	0.329910	0.571796	0.333280
Br198	Br	0.663243	0.905129	0.666614
H199	H	0.495897	-0.020130	-0.000017
H200	H	0.829231	0.313203	0.333316
H201	H	1.162564	0.646537	0.666649
H202	H	0.597090	0.212711	-0.000051
H203	H	0.930424	0.546044	0.333282
H204	H	1.263757	0.879377	0.666616
Br205	Br	0.676505	-0.250721	-0.000037
Br206	Br	1.009838	0.082612	0.333296
Br207	Br	1.343172	0.415946	0.666629
H208	H	0.713283	-0.103463	-0.000021
H209	H	1.046617	0.229870	0.333313
H210	H	1.379950	0.563203	0.666646
H211	H	0.937636	-0.578392	-0.000040
H212	H	1.270970	-0.245059	0.333293
H213	H	1.604303	0.088275	0.666627
H214	H	0.935689	-0.710503	-0.000074
H215	H	1.269022	-0.377170	0.333260
H216	H	1.602356	-0.043836	0.666593
H217	H	0.704798	-0.679595	-0.000077
H218	H	1.038131	-0.346262	0.333256
H219	H	1.371464	-0.012929	0.666589
Br220	Br	0.672490	-0.523086	-0.000064
Br221	Br	1.005824	-0.189752	0.333269
Br222	Br	1.339157	0.143581	0.666602
