data_functionalizedCrystal
_audit_creation_method	'MofGen! by Chris Wilmer'
_symmetry_space_group_name_H-M	'P1'
_symmetry_Int_Tables_number	1
_symmetry_cell_setting	triclinic
loop_
_symmetry_equiv_pos_as_xyz
  x,y,z
_cell_length_a	27.440280
_cell_length_b	27.440279
_cell_length_c	17.917603
_cell_angle_alpha	63.041827
_cell_angle_beta	90.006544
_cell_angle_gamma	60.011417
loop_
_atom_site_label
_atom_site_type_symbol
_atom_site_fract_x
_atom_site_fract_y
_atom_site_fract_z
Zr1	Zr	0.472458	0.527662	-0.093609
O2	O	0.398062	0.622526	-0.207802
O3	O	0.495242	0.428097	-0.058626
O4	O	0.499703	0.520873	-0.207816
O5	O	0.390108	0.536745	0.059098
O6	O	0.579905	0.520864	-0.207801
O7	O	0.393601	0.529751	-0.058612
O8	O	0.571925	0.354906	0.059073
O9	O	0.398088	0.702704	-0.207776
O10	O	0.564841	0.470784	-0.043667
O11	O	0.502380	0.476010	0.044167
O12	O	0.507632	0.585242	-0.131485
O13	O	0.445172	0.590468	-0.043651
Zr14	Zr	0.594802	0.538803	0.094148
Zr15	Zr	0.600372	0.527648	-0.093586
Zr16	Zr	0.466888	0.538817	0.094124
Zr17	Zr	0.472500	0.655536	-0.093568
Zr18	Zr	0.594760	0.410930	0.094107
O19	O	0.572018	0.638368	0.059164
O20	O	0.579938	0.622507	-0.207769
O21	O	0.390142	0.638387	0.059131
O22	O	0.669198	0.443939	0.208341
O23	O	0.677118	0.428078	-0.058592
O24	O	0.487322	0.443958	0.208307
O25	O	0.677152	0.529720	-0.058559
O26	O	0.567557	0.545592	0.208355
O27	O	0.487355	0.545601	0.208340
O28	O	0.673659	0.536715	0.059150
O29	O	0.499762	0.702693	-0.207758
O30	O	0.567498	0.363773	0.208296
O31	O	0.669172	0.363762	0.208315
O32	O	0.673600	0.354895	0.059092
O33	O	0.393660	0.711570	-0.058553
O34	O	0.495335	0.711560	-0.058535
O35	O	0.559628	0.481224	0.132024
O36	O	0.622088	0.475998	0.044189
O37	O	0.564880	0.590455	-0.043629
O38	O	0.502419	0.595681	0.044206
C39	C	0.533578	0.373282	0.000218
C40	C	0.533560	0.318997	0.000201
C41	C	0.501018	0.086970	0.046124
C42	C	0.501007	0.138000	0.046112
O43	O	0.473290	0.166697	0.085122
N44	N	0.533603	0.160796	0.000252
C45	C	0.566217	0.132556	-0.045592
O46	O	0.593941	0.156631	-0.084600
C47	C	0.566231	0.081524	-0.045575
C48	C	0.533629	0.058735	0.000281
C49	C	0.468419	0.064181	0.091976
C50	C	0.468430	0.013155	0.091986
C51	C	0.501040	-0.015080	0.046144
C52	C	0.533639	0.007710	0.000291
C53	C	0.598848	0.053281	-0.091413
C54	C	0.598860	0.002246	-0.091391
C55	C	0.566257	-0.020543	-0.045536
C56	C	0.566260	-0.071551	-0.045542
N57	N	0.533664	-0.094347	0.000318
C58	C	0.501054	-0.066112	0.046161
C59	C	0.566185	0.239725	-0.045623
C60	C	0.566168	0.290759	-0.045646
C61	C	0.500959	0.296199	0.046059
C62	C	0.500973	0.245167	0.046076
C63	C	0.533589	0.216929	0.000237
C64	C	0.501078	-0.173268	0.046178
C65	C	0.501090	-0.224296	0.046181
C66	C	0.566301	-0.229733	-0.045521
C67	C	0.566287	-0.178708	-0.045528
C68	C	0.533675	-0.150477	0.000328
O69	O	0.593965	-0.100281	-0.084529
O70	O	0.473340	-0.090199	0.085171
C71	C	0.373630	0.533250	0.000240
C72	C	0.319327	0.533255	0.000230
C73	C	0.012490	0.473477	0.046134
C74	C	-0.038529	0.473474	0.046141
O75	O	-0.039521	0.422664	0.085153
N76	N	-0.093908	0.533219	0.000300
C77	C	-0.098268	0.592971	-0.045544
O78	O	-0.150056	0.643789	-0.084534
C79	C	-0.047250	0.592974	-0.045546
C80	C	0.008129	0.533225	0.000291
C81	C	0.067866	0.413733	0.091967
C82	C	0.118881	0.413736	0.091958
C83	C	0.114520	0.473484	0.046115
C84	C	0.059144	0.533228	0.000281
C85	C	-0.051610	0.652726	-0.091385
C86	C	-0.000586	0.652724	-0.091383
C87	C	0.054792	0.592975	-0.045546
C88	C	0.105798	0.592980	-0.045571
N89	N	0.161177	0.533235	0.000270
C90	C	0.165538	0.473487	0.046113
C91	C	-0.205406	0.592961	-0.045535
C92	C	-0.256424	0.592958	-0.045538
C93	C	-0.196681	0.473460	0.046149
C94	C	-0.145663	0.473463	0.046146
C95	C	-0.150028	0.533216	0.000306
C96	C	0.272671	0.473499	0.046089
C97	C	0.323688	0.473508	0.046073
C98	C	0.263942	0.593005	-0.045610
C99	C	0.212929	0.592997	-0.045598
C100	C	0.217297	0.533238	0.000258
O101	O	0.106835	0.643764	-0.084560
O102	O	0.217328	0.422679	0.085106
C103	C	0.693630	0.533216	0.000299
C104	C	0.747933	0.533210	0.000309
C105	C	0.540597	0.519279	-0.234557
C106	C	0.542962	0.514544	-0.314254
C107	C	0.533682	0.693183	0.000321
C108	C	0.533700	0.747469	0.000338
C109	C	0.547294	0.505893	-0.460188
C110	C	0.519968	0.560569	-0.539276
C111	C	0.522378	0.555756	-0.620479
C112	C	0.544884	0.510705	-0.378977
C113	C	0.526663	0.547186	0.235095
C114	C	0.524298	0.551922	0.314793
C115	C	0.693578	0.373265	0.000247
C116	C	0.747863	0.318974	0.000240
C117	C	0.526610	0.387236	0.235044
C118	C	0.524228	0.337686	0.314724
C119	C	0.686611	0.387219	0.235073
C120	C	0.738531	0.337663	0.314764
C121	C	0.380650	0.679247	-0.234535
C122	C	0.328729	0.728803	-0.314225
C123	C	0.373682	0.693200	0.000291
C124	C	0.319397	0.747492	0.000299
C125	C	0.540650	0.679230	-0.234505
C126	C	0.543032	0.728780	-0.314186
C127	C	0.743473	0.290756	-0.045632
C128	C	0.794475	0.239750	-0.045656
C129	C	0.849866	0.216958	0.000196
C130	C	0.854255	0.245181	0.046069
C131	C	0.803253	0.296190	0.046088
C132	C	0.552991	0.317138	0.398011
C133	C	0.550750	0.270588	0.472886
C134	C	0.519749	0.244583	0.464473
C135	C	0.490982	0.265135	0.381177
C136	C	0.493220	0.311687	0.306304
C137	C	0.795522	0.311663	0.306338
C138	C	0.844312	0.265107	0.381209
C139	C	0.836109	0.244548	0.464504
C140	C	0.779111	0.270552	0.472927
C141	C	0.730323	0.317111	0.398058
C142	C	0.271738	0.754809	-0.305800
C143	C	0.222948	0.801381	-0.380670
C144	C	0.231151	0.821942	-0.463965
C145	C	0.288149	0.795934	-0.472388
C146	C	0.336937	0.749367	-0.397519
C147	C	0.323787	0.775714	0.046162
C148	C	0.272786	0.826733	0.046166
C149	C	0.217395	0.849526	0.000311
C150	C	0.213006	0.821301	-0.045558
C151	C	0.264007	0.770286	-0.045567
C152	C	0.574039	0.754771	-0.305744
C153	C	0.576289	0.801322	-0.380605
C154	C	0.547528	0.821885	-0.463907
C155	C	0.516521	0.795889	-0.472346
C156	C	0.514275	0.749335	-0.397486
H157	H	0.474521	-0.150287	0.083516
N158	N	0.482588	0.722797	-0.406101
N159	N	0.480574	0.681239	-0.339264
H160	H	0.458193	0.662499	-0.345352
H161	H	0.597460	0.738036	-0.237923
H162	H	0.517931	0.206677	0.525447
N163	N	0.770736	0.249534	0.558012
N164	N	0.743456	0.222390	0.580343
H165	H	0.737541	0.207541	0.640436
N166	N	0.803909	0.332650	0.221260
N167	N	0.831181	0.291466	0.198912
H168	H	0.837109	0.306287	0.138827
N169	N	0.902524	0.238556	0.372577
N170	N	0.909835	0.256915	0.298198
H171	H	0.950946	0.238165	0.292098
N172	N	0.580151	0.249599	0.557956
N173	N	0.634568	0.222460	0.580280
H174	H	0.655334	0.207636	0.640358
N175	N	0.578903	0.442634	-0.451733
N176	N	0.604592	0.391224	-0.377425
H177	H	0.626913	0.346547	-0.371460
H178	H	0.265048	0.738070	-0.237984
H179	H	0.071427	0.365076	0.129303
H180	H	0.493105	0.812639	-0.540181
H181	H	0.441883	-0.005397	0.129330
N182	N	0.435106	0.093032	0.138795
N183	N	0.460478	0.090964	0.199159
H184	H	0.436944	0.111345	0.232218
N185	N	0.885955	0.196988	0.540968
N186	N	0.936836	0.173781	0.533423
H187	H	0.972042	0.140191	0.587423
N188	N	0.789995	0.210919	-0.092510
N189	N	0.813276	0.213029	-0.152896
H190	H	0.810111	0.192667	-0.185986
N191	N	0.901976	0.164829	0.000242
N192	N	0.936563	0.112113	0.070879
H193	H	0.973370	0.075290	0.070930
N194	N	-0.089103	0.412425	0.092968
N195	N	-0.085225	0.359086	0.133887
H196	H	-0.045280	0.315975	0.166957
H197	H	0.698376	0.309311	-0.082981
H198	H	-0.193138	0.424810	0.083474
H199	H	0.549362	0.859793	-0.524856
H200	H	0.469799	0.328410	0.238491
N201	N	0.488331	0.623833	-0.547734
N202	N	0.462630	0.675240	-0.622045
H203	H	0.440284	0.719919	-0.628016
H204	H	0.899361	0.226617	0.083401
N205	N	0.584666	0.343686	0.406634
N206	N	0.610341	0.325329	0.481011
H207	H	0.632711	0.344077	0.487109
N208	N	-0.005035	0.713756	-0.138201
N209	N	0.015285	0.730069	-0.098286
H210	H	0.012144	0.773172	-0.131352
H211	H	-0.096694	0.701381	-0.128709
H212	H	0.683920	0.338275	0.404930
N213	N	0.164736	0.827935	-0.372038
N214	N	0.157425	0.809562	-0.297659
H215	H	0.116314	0.828314	-0.291560
H216	H	0.191420	0.859861	-0.524921
N217	N	0.459319	0.238561	0.372607
N218	N	0.457333	0.196994	0.439472
H219	H	0.434974	0.178222	0.433422
H220	H	0.294821	0.812682	-0.540216
H221	H	0.167837	0.641649	-0.082933
N222	N	0.599505	0.210892	-0.092459
N223	N	0.628604	0.231257	-0.133398
H224	H	0.652137	0.210895	-0.166475
H225	H	0.474539	-0.242847	0.083522
N226	N	0.395148	0.722810	-0.406148
N227	N	0.402457	0.741178	-0.480527
H228	H	0.443568	0.722425	-0.486629
H229	H	0.368884	0.757161	0.083509
N230	N	0.277287	0.855551	0.093026
N231	N	0.326749	0.835186	0.133970
H232	H	0.329931	0.855537	0.167066
H233	H	0.175871	0.891067	0.000325
H234	H	0.806836	0.319159	0.083448
N235	N	0.632175	-0.026584	-0.138232
N236	N	0.621336	0.008462	-0.219075
H237	H	0.644864	-0.011896	-0.252160
H238	H	0.260425	0.747308	-0.082912
N239	N	0.467666	0.221900	0.092919
N240	N	0.438551	0.247125	0.133839
H241	H	0.415027	0.230695	0.166925
N242	N	0.632158	0.076540	-0.138254
N243	N	0.661275	0.051309	-0.179167
H244	H	0.684805	0.067732	-0.212248
H245	H	0.167900	0.839867	-0.082892
N246	N	0.607970	0.827863	-0.371970
N247	N	0.661884	0.790317	-0.332888
H248	H	0.684259	0.809059	-0.326787
N249	N	0.467640	0.325063	0.092868
N250	N	0.467631	0.370630	0.092833
H251	H	0.444097	0.391022	0.125883
H252	H	0.592709	0.309317	-0.082997
H253	H	0.592829	-0.160146	-0.082878
H254	H	0.592850	-0.252729	-0.082848
H255	H	0.368780	0.424851	0.083402
H256	H	0.163969	0.365082	0.129279
N257	N	0.277148	0.412453	0.092937
N258	N	0.326601	0.359119	0.133853
H259	H	0.329764	0.316004	0.166936
H260	H	-0.301511	0.641611	-0.082875
H261	H	-0.208968	0.641621	-0.082868
H262	H	0.260401	0.641650	-0.082937
