data_functionalizedCrystal
_audit_creation_method	'MofGen! by Chris Wilmer'
_symmetry_space_group_name_H-M	'P1'
_symmetry_Int_Tables_number	1
_symmetry_cell_setting	triclinic
loop_
_symmetry_equiv_pos_as_xyz
  x,y,z
_cell_length_a	6.817900
_cell_length_b	10.992421
_cell_length_c	10.992410
_cell_angle_alpha	91.831025
_cell_angle_beta	108.764651
_cell_angle_gamma	108.764763
loop_
_atom_site_label
_atom_site_type_symbol
_atom_site_fract_x
_atom_site_fract_y
_atom_site_fract_z
V1	V	-4.114248	-0.177761	-0.400575
O2	O	-4.072376	0.008542	-0.392968
O3	O	-4.091827	-0.352470	-0.397818
O4	O	-4.091840	-0.175026	-0.575288
O5	O	-4.072363	-0.170129	-0.214270
V6	V	-4.591142	-0.155477	-0.378294
O7	O	-4.390048	-0.226642	-0.449452
O8	O	-4.765539	-0.106595	-0.329417
O9	O	-4.390356	0.019232	-0.381051
O10	O	-4.750411	-0.341780	-0.385901
O11	O	-4.750424	-0.163108	-0.564599
O12	O	-4.390343	-0.158211	-0.203581
C13	C	-3.942307	-0.395060	-0.391494
C14	C	-4.005435	-0.537887	-0.390404
C15	C	-3.873099	-0.733174	-0.381618
C16	C	-3.807017	-0.584530	-0.382242
C17	C	-4.076044	-0.576522	-0.270588
C18	C	-4.140279	-0.725065	-0.269320
C19	C	-4.271785	-0.763647	-0.514935
C20	C	-4.202731	-0.615133	-0.517535
C21	C	-3.942322	-0.168712	-0.617873
C22	C	-4.005457	-0.167632	-0.760702
C23	C	-3.872580	-0.157795	-0.955826
C24	C	-3.807029	-0.159451	-0.807343
C25	C	-4.203473	-0.294312	-0.837793
C26	C	-4.267786	-0.293192	-0.986360
C27	C	-4.145552	-0.047893	-0.948352
C28	C	-4.074843	-0.047293	-0.799340
C29	C	-4.203219	0.061816	-0.387371
C30	C	-4.119331	0.204641	-0.388470
C31	C	-4.203203	-0.164530	-0.160989
C32	C	-4.119306	-0.165603	-0.018159
H33	H	-4.316491	-0.765948	-0.269130
Br34	Br	-4.241857	-0.441744	-1.063473
Br35	Br	-4.452391	-0.564793	-0.539843
Br36	Br	-3.841729	-0.486126	-0.113713
H37	H	-4.042638	0.048305	-0.968721
Br38	Br	-4.127217	-0.443235	-0.795103
H39	H	-3.755376	-0.066081	-0.974664
Br40	Br	-3.836075	0.108907	-0.712102
Br41	Br	-3.831001	-0.298760	-1.035793
H42	H	-4.221676	-0.546286	-0.271970
H43	H	-3.757306	-0.753734	-0.290415
Br44	Br	-3.711739	-0.302381	-0.765958
H45	H	-4.449788	-0.304208	-1.028990
H46	H	-3.658336	-0.532087	-0.290964
Br47	Br	-4.311695	-0.044798	-0.745140
Br48	Br	-3.559538	-0.007655	-0.718447
Br49	Br	-4.454125	-0.311921	-0.789797
H50	H	-3.749893	-0.558765	-0.467855
H51	H	-4.265447	-0.813163	-0.605597
Br52	Br	-4.443864	-0.055562	-1.016423
Br53	Br	-3.955616	-0.754265	-0.110760
Br54	Br	-4.121062	-0.575324	-0.665288
Br55	Br	-3.830037	-0.810549	-0.523422
Br56	Br	-4.571539	-0.832156	-0.525393
