data_functionalizedCrystal
_audit_creation_method	'MofGen! by Chris Wilmer'
_symmetry_space_group_name_H-M	'P1'
_symmetry_Int_Tables_number	1
_symmetry_cell_setting	triclinic
loop_
_symmetry_equiv_pos_as_xyz
  x,y,z
_cell_length_a	8.634740
_cell_length_b	8.597187
_cell_length_c	9.130307
_cell_angle_alpha	82.300539
_cell_angle_beta	90.000313
_cell_angle_gamma	92.880218
loop_
_atom_site_label
_atom_site_type_symbol
_atom_site_fract_x
_atom_site_fract_y
_atom_site_fract_z
O1	O	2.053786	0.512868	0.057068
O2	O	1.604185	0.469862	0.062498
O3	O	1.837833	0.264235	0.088444
O4	O	1.820138	0.718495	0.031122
O5	O	1.837829	0.264225	-0.155154
O6	O	1.604182	0.469852	-0.181100
O7	O	2.053782	0.512858	-0.186530
Cu8	Cu	1.828981	0.491354	-0.206057
Cu9	Cu	1.828986	0.491366	0.082026
O10	O	1.820134	0.718485	-0.212476
C11	C	1.546586	0.460114	-0.058071
C12	C	1.374965	0.431066	-0.054404
C13	C	1.835931	0.205471	-0.025937
C14	C	1.830249	0.030384	-0.003834
C15	C	2.111381	0.522606	-0.065957
C16	C	2.283002	0.551654	-0.069615
N17	N	1.828990	0.491347	-0.408679
C18	C	1.822037	0.777249	-0.098091
C19	C	1.827719	0.952336	-0.120185
N20	N	1.828990	0.491362	0.284649
C21	C	2.036303	0.309737	0.307556
C22	C	2.139954	0.218913	0.395678
C23	C	2.139953	0.218895	0.549014
C24	C	2.036293	0.309715	0.614230
C25	C	1.932642	0.400540	0.526107
C26	C	1.932651	0.400544	0.372770
C27	C	1.725338	0.582172	0.503199
C28	C	1.725329	0.582183	0.349864
C29	C	1.621678	0.672992	0.568415
C30	C	1.518017	0.763810	0.480293
C31	C	1.518021	0.763823	0.326949
C32	C	1.621678	0.673007	0.261742
H33	H	1.828083	0.963251	0.112681
C34	C	1.353991	0.721150	-0.091010
H35	H	1.273287	0.792908	-0.100069
H36	H	1.416248	0.737566	-0.008140
H37	H	1.416224	0.737554	-0.178046
C38	C	2.253967	0.119013	0.323940
H39	H	2.239117	0.132015	0.220000
H40	H	2.357321	0.151930	0.344920
H41	H	2.235776	0.011449	0.362634
H42	H	1.322396	0.305594	-0.038529
H43	H	1.829900	1.019461	-0.236692
C44	C	2.036290	0.309744	0.138893
H45	H	1.959706	0.376833	0.095753
H46	H	2.135335	0.346437	0.099570
H47	H	2.013791	0.205955	0.117303
C48	C	2.253963	0.118989	0.645951
H49	H	2.315694	0.064896	0.585158
H50	H	2.319029	0.185448	0.697395
H51	H	2.197490	0.044962	0.715093
H52	H	2.036311	0.309710	0.739082
C53	C	1.621672	0.672970	0.737079
H54	H	1.698236	0.605860	0.780226
H55	H	1.644151	0.776746	0.758691
H56	H	1.522615	0.636257	0.776382
C57	C	1.404008	0.863699	0.552031
H58	H	1.418852	0.850679	0.655972
H59	H	1.422173	0.971257	0.513337
H60	H	1.300648	0.830758	0.531064
C61	C	1.403976	0.863701	0.230030
H62	H	1.342232	0.917764	0.290838
H63	H	1.460400	0.937728	0.160863
H64	H	1.338902	0.797205	0.178617
H65	H	1.621685	0.673003	0.136891
