data_functionalizedCrystal
_audit_creation_method	'MofGen! by Chris Wilmer'
_symmetry_space_group_name_H-M	'P1'
_symmetry_Int_Tables_number	1
_symmetry_cell_setting	triclinic
loop_
_symmetry_equiv_pos_as_xyz
  x,y,z
_cell_length_a	17.699104
_cell_length_b	17.699083
_cell_length_c	16.176319
_cell_angle_alpha	89.992304
_cell_angle_beta	89.991696
_cell_angle_gamma	83.287266
loop_
_atom_site_label
_atom_site_type_symbol
_atom_site_fract_x
_atom_site_fract_y
_atom_site_fract_z
O1	O	1.004069	0.095788	-0.068765
O2	O	0.783693	0.108224	-0.068763
O3	O	0.900107	-0.008183	-0.068757
O4	O	0.887655	0.212195	-0.068771
O5	O	0.900091	-0.008190	0.068736
O6	O	0.783677	0.108217	0.068730
O7	O	1.004053	0.095781	0.068728
Cu8	Cu	0.893863	0.101998	0.081283
Cu9	Cu	0.893882	0.102007	-0.081318
O10	O	0.887639	0.212187	0.068722
C11	C	0.755488	0.107772	-0.000016
C12	C	0.671471	0.106427	-0.000015
C13	C	0.146600	0.167171	-0.000028
C14	C	0.225543	0.168430	-0.000030
C15	C	0.274161	0.100095	-0.000026
C16	C	0.243831	0.030496	-0.000027
C17	C	0.164889	0.029238	-0.000030
C18	C	0.562197	0.035569	-0.000014
C19	C	0.641144	0.036833	-0.000008
C20	C	0.622852	0.174762	-0.000014
C21	C	0.543909	0.173503	-0.000018
C22	C	0.513587	0.103905	-0.000023
C23	C	0.427987	0.102541	-0.000022
C24	C	0.359759	0.101459	-0.000021
C25	C	0.899653	-0.036383	-0.000010
C26	C	0.898314	-0.120402	-0.000010
C27	C	0.966647	-0.169017	-0.000009
C28	C	0.965385	-0.247961	-0.000016
C29	C	0.895789	-0.278287	-0.000018
C30	C	0.827451	-0.229665	-0.000021
C31	C	0.828714	-0.150723	-0.000020
C32	C	0.822356	-0.548028	-0.000028
C33	C	0.821098	-0.626976	-0.000027
C34	C	0.959026	-0.645266	-0.000024
C35	C	0.960289	-0.566324	-0.000023
C36	C	0.891952	-0.517709	-0.000031
C37	C	0.893321	-0.432110	-0.000024
C38	C	0.894419	-0.363885	-0.000019
C39	C	1.032258	0.096233	-0.000020
C40	C	1.116275	0.097578	-0.000027
C41	C	0.888093	0.240388	-0.000027
C42	C	0.889431	0.324406	-0.000032
N43	N	0.893856	0.101991	0.195649
N44	N	0.893896	0.102007	-0.195683
C45	C	0.945419	0.050468	0.238916
C46	C	0.945423	0.050467	0.325463
C47	C	0.893866	0.101994	0.368741
C48	C	0.842297	0.153520	0.325468
C49	C	0.842290	0.153517	0.238923
C50	C	0.842323	0.153535	0.674496
C51	C	0.842335	0.153536	0.761048
C52	C	0.945456	0.050484	0.761036
C53	C	0.945449	0.050481	0.674491
C54	C	0.893877	0.102004	0.631225
C55	C	0.893873	0.102004	0.537381
C56	C	0.893874	0.101999	0.462584
H57	H	0.283422	-0.025143	-0.000028
H58	H	0.764421	-0.651664	-0.000027
Br59	Br	0.729612	-0.482060	-0.000044
H60	H	0.800333	0.195488	0.639276
Br61	Br	0.521054	-0.058885	-0.000046
Br62	Br	0.772319	0.223447	0.384200
H63	H	0.800301	0.195472	0.203695
H64	H	0.250230	0.225100	-0.000039
Br65	Br	0.732998	-0.270820	-0.000038
Br66	Br	1.061104	-0.127869	0.000006
H67	H	0.107020	0.222818	-0.000026
H68	H	0.140200	-0.027432	-0.000031
H69	H	1.021028	-0.287541	-0.000014
Br70	Br	0.735973	-0.084743	-0.000028
Br71	Br	1.015399	-0.019461	0.180190
H72	H	0.647550	0.231432	-0.000013
Br73	Br	0.772361	0.223471	0.819784
Br74	Br	1.015401	-0.019462	0.384185
Br75	Br	0.477932	0.266247	-0.000019
Br76	Br	1.054744	-0.525172	-0.000021
H77	H	0.987446	0.008529	0.796272
Br78	Br	1.015425	-0.019447	0.615758
Br79	Br	1.051772	-0.711248	-0.000015
H80	H	0.680728	-0.018817	-0.000007
