data_functionalizedCrystal
_audit_creation_method	'MofGen! by Chris Wilmer'
_symmetry_space_group_name_H-M	'P1'
_symmetry_Int_Tables_number	1
_symmetry_cell_setting	triclinic
loop_
_symmetry_equiv_pos_as_xyz
  x,y,z
_cell_length_a	10.654550
_cell_length_b	9.616153
_cell_length_c	10.654550
_cell_angle_alpha	89.997920
_cell_angle_beta	95.515069
_cell_angle_gamma	90.003640
loop_
_atom_site_label
_atom_site_type_symbol
_atom_site_fract_x
_atom_site_fract_y
_atom_site_fract_z
O1	O	1.667846	0.115541	-0.176394
O2	O	1.302368	0.115567	-0.193200
O3	O	1.493510	0.115545	-0.002058
O4	O	1.476704	0.115564	-0.367536
O5	O	1.493483	-0.115747	-0.002062
O6	O	1.302341	-0.115724	-0.193204
O7	O	1.667820	-0.115750	-0.176398
Zn8	Zn	1.485076	-0.152460	-0.184802
Zn9	Zn	1.485111	0.152277	-0.184796
O10	O	1.476677	-0.115728	-0.367540
C11	C	1.255556	-0.000076	-0.191968
C12	C	1.116113	-0.000066	-0.188276
N13	N	1.485062	-0.360434	-0.184805
C14	C	1.036628	-0.000064	-0.300818
C15	C	0.905607	-0.000089	-0.297341
C16	C	0.933570	-0.000111	-0.068772
C17	C	1.064588	-0.000096	-0.072250
C18	C	1.382501	-0.580792	-0.286710
C19	C	1.382727	-0.419625	-0.287092
C20	C	1.616359	-0.418891	-0.214570
C21	C	1.615800	-0.580109	-0.215291
C22	C	1.457633	-0.580350	-0.052799
C23	C	1.454618	-0.419123	-0.053656
C24	C	1.714631	-0.000104	-0.177630
C25	C	1.854074	-0.000105	-0.181322
C26	C	1.492263	-0.000100	0.044738
C27	C	1.488571	-0.000098	0.184181
N28	N	1.485135	0.360251	-0.184784
C29	C	1.477925	-0.000080	-0.414336
C30	C	1.481616	-0.000073	-0.553779
C31	C	1.601112	-0.000105	0.263667
C32	C	1.597636	-0.000088	0.394688
C33	C	1.369066	-0.000062	0.366725
C34	C	1.372544	-0.000069	0.235706
H35	H	1.078574	-0.000050	-0.395294
H36	H	0.891602	-0.000144	0.025693
H37	H	1.129309	-0.000102	0.019401
Cl38	Cl	1.232081	-0.358602	-0.259533
H39	H	0.840894	-0.000090	-0.388984
H40	H	1.284638	-0.619598	-0.269082
Cl41	Cl	1.739124	-0.000094	0.494608
Cl42	Cl	1.409446	-0.643281	-0.437046
Cl43	Cl	1.746974	-0.000138	0.198897
Cl44	Cl	1.409963	-0.360045	-0.438290
H45	H	1.639861	-0.617694	-0.311582
H46	H	1.694618	-0.619106	-0.144042
Cl47	Cl	1.737156	-0.359700	-0.103079
H48	H	1.363917	-0.621082	-0.024459
H49	H	1.274601	-0.000041	0.408693
H50	H	1.640957	-0.378498	-0.309772
Cl51	Cl	1.305492	-0.360139	-0.018815
Cl52	Cl	1.231051	-0.000047	0.135774
H53	H	1.524421	-0.378837	0.025833
H54	H	1.532465	-0.618475	0.023065
