data_functionalizedCrystal
_audit_creation_method	'MofGen! by Chris Wilmer'
_symmetry_space_group_name_H-M	'P1'
_symmetry_Int_Tables_number	1
_symmetry_cell_setting	triclinic
loop_
_symmetry_equiv_pos_as_xyz
  x,y,z
_cell_length_a	27.732048
_cell_length_b	13.339070
_cell_length_c	11.804365
_cell_angle_alpha	74.887832
_cell_angle_beta	101.742868
_cell_angle_gamma	99.135975
loop_
_atom_site_label
_atom_site_type_symbol
_atom_site_fract_x
_atom_site_fract_y
_atom_site_fract_z
O1	O	-0.664466	-0.099616	-0.098865
O2	O	-0.526190	-0.117872	-0.098900
O3	O	-0.579458	0.038271	-0.098883
O4	O	-0.611198	-0.255760	-0.098882
O5	O	-0.565429	-0.002794	0.099169
O6	O	-0.512161	-0.158938	0.099152
O7	O	-0.650437	-0.140681	0.099186
Cu8	Cu	-0.580018	-0.153559	0.117253
Cu9	Cu	-0.596609	-0.104994	-0.116966
O10	O	-0.597169	-0.296825	0.099169
C11	C	-0.567082	0.055345	0.000140
C12	C	-0.551101	0.167398	0.000131
C13	C	-0.501116	-0.138021	0.000121
C14	C	-0.447303	-0.136864	0.000108
C15	C	-0.675511	-0.120532	0.000163
C16	C	-0.729324	-0.121688	0.000168
C17	C	-0.120189	-0.221880	0.000160
C18	C	0.082062	-0.217598	0.000170
O19	O	0.102618	-0.295340	0.000222
N20	N	0.113934	-0.125009	0.000168
C21	C	0.095241	-0.033485	0.000170
O22	O	0.126992	0.045364	0.000181
C23	C	-0.107007	-0.037769	0.000168
C24	C	-0.138878	-0.130362	0.000159
C25	C	-0.152059	-0.314465	0.000151
C26	C	-0.202619	-0.315533	0.000142
C27	C	-0.221308	-0.224015	0.000141
C28	C	-0.189438	-0.131430	0.000150
C29	C	-0.125698	0.053752	0.000180
C30	C	-0.176264	0.052673	0.000182
C31	C	-0.208135	-0.039920	0.000172
C32	C	-0.258688	-0.040980	0.000140
N33	N	-0.290560	-0.133569	0.000142
C34	C	-0.271870	-0.225087	0.000143
C35	C	0.201424	-0.031242	0.000169
C36	C	0.251986	-0.030170	0.000168
C37	C	0.238803	-0.214285	0.000170
C38	C	0.188240	-0.215353	0.000163
C39	C	0.169552	-0.123831	0.000172
C40	C	-0.378049	-0.227323	0.000123
C41	C	-0.428613	-0.228381	0.000108
C42	C	-0.415425	-0.044269	0.000113
C43	C	-0.364866	-0.043208	0.000121
C44	C	-0.346179	-0.134744	0.000130
O45	O	-0.279277	0.036718	0.000101
O46	O	-0.303627	-0.303930	0.000159
C47	C	-0.069629	-0.220812	0.000169
C48	C	-0.037758	-0.128226	0.000177
C49	C	-0.056448	-0.036708	0.000176
C50	C	0.012803	-0.127154	0.000175
C51	C	0.031493	-0.218672	0.000176
C52	C	-0.000379	-0.311261	0.000179
C53	C	-0.050939	-0.312329	0.000169
C54	C	-0.024576	0.055881	0.000174
C55	C	0.025984	0.056942	0.000182
C56	C	0.044673	-0.034576	0.000182
C57	C	-0.609545	-0.313898	0.000144
C58	C	-0.625526	-0.425950	0.000145
N59	N	-0.568352	-0.187717	0.281990
C60	C	-0.675361	0.534127	0.000163
C61	C	-0.690377	0.428846	0.000178
C62	C	-0.655559	0.363479	0.000166
C63	C	-0.605723	0.403403	0.000139
C64	C	-0.590706	0.508693	0.000134
C65	C	-0.570904	0.338045	0.000137
C66	C	-0.521068	0.377969	0.000110
C67	C	-0.506053	0.483249	0.000104
C68	C	-0.540870	0.548615	0.000116
C69	C	-0.585922	0.232755	0.000142
C70	C	-0.501266	0.207321	0.000113
C71	C	-0.486250	0.312602	0.000098
N72	N	-0.608277	-0.070829	-0.281703
C73	C	-0.636288	0.011214	0.655960
C74	C	-0.645112	0.037058	0.531301
C75	C	-0.625923	-0.019133	0.468967
C76	C	-0.597908	-0.101173	0.531304
C77	C	-0.589087	-0.127025	0.655975
C78	C	-0.578721	-0.157372	0.468982
C79	C	-0.550706	-0.239413	0.531320
C80	C	-0.541886	-0.265260	0.655978
C81	C	-0.561075	-0.209069	0.718312
C82	C	-0.587543	-0.131520	0.344311
C83	C	-0.540341	-0.269760	0.344327
C84	C	-0.531517	-0.295604	0.468986
H85	H	-0.454561	-0.303785	0.000100
H86	H	-0.508707	-0.362404	0.519756
H87	H	0.014846	-0.385777	0.000174
C88	C	-0.131508	-0.415145	0.000145
C89	C	-0.105847	-0.418409	-0.102706
C90	C	-0.085302	-0.519095	-0.102724
C91	C	-0.090418	-0.616516	0.000108
C92	C	-0.116080	-0.613256	0.102967
C93	C	-0.136625	-0.512570	0.102985
H94	H	-0.102059	-0.346289	-0.178835
H95	H	-0.066305	-0.521508	-0.178867
H96	H	-0.075209	-0.691050	0.000095
H97	H	-0.119868	-0.685376	0.179096
H98	H	-0.155622	-0.510157	0.179128
H99	H	-0.528647	0.634346	0.000099
C100	C	-0.357499	-0.328009	0.000122
C101	C	-0.377173	-0.382763	-0.102731
C102	C	-0.356624	-0.483445	-0.102742
C103	C	-0.316401	-0.529375	0.000101
C104	C	-0.296725	-0.474621	0.102962
C105	C	-0.317274	-0.373938	0.102973
H106	H	-0.406950	-0.348763	-0.178869
H107	H	-0.371189	-0.523978	-0.178887
H108	H	-0.301189	-0.603906	0.000093
H109	H	-0.266948	-0.508620	0.179100
H110	H	-0.302709	-0.333406	0.179118
H111	H	-0.228564	-0.390932	0.000134
C112	C	-0.635624	0.009299	0.331841
C113	C	-0.617764	0.119458	0.263287
C114	C	-0.627464	0.147898	0.126155
C115	C	-0.655024	0.066179	0.057578
C116	C	-0.672887	-0.043987	0.126132
C117	C	-0.663186	-0.072427	0.263264
H118	H	-0.597360	0.179957	0.314052
H119	H	-0.614241	0.229450	0.075407
H120	H	-0.662205	0.087232	-0.043935
H121	H	-0.693290	-0.104486	0.075367
H122	H	-0.676409	-0.153979	0.314012
C123	C	-0.675923	0.127300	0.462729
C124	C	-0.697032	0.189118	0.531278
C125	C	-0.727844	0.279365	0.462701
C126	C	-0.737547	0.307795	0.325576
C127	C	-0.716439	0.245976	0.257019
C128	C	-0.685627	0.155728	0.325595
H129	H	-0.689849	0.168073	0.632793
H130	H	-0.743470	0.325128	0.513452
H131	H	-0.760356	0.374602	0.274811
H132	H	-0.723622	0.267020	0.155503
H133	H	-0.670001	0.109966	0.274844
H134	H	-0.651913	0.056953	0.706720
H135	H	-0.465472	0.515749	0.000091
H136	H	-0.445673	0.345123	0.000077
H137	H	0.162294	-0.290752	0.000161
H138	H	-0.472914	0.154098	0.000109
H139	H	0.254028	-0.288802	0.000170
H140	H	-0.626498	0.200260	0.000164
H141	H	-0.667788	0.277755	0.000178
H142	H	0.277930	0.045232	0.000157
H143	H	-0.703704	0.587355	0.000183
H144	H	0.186215	0.043291	0.000177
H145	H	-0.730953	0.396347	0.000201
C146	C	-0.090650	0.155609	0.000195
C147	C	-0.084896	0.210066	0.103048
C148	C	-0.049849	0.311931	0.103065
C149	C	-0.020557	0.359339	0.000228
C150	C	-0.026310	0.304882	-0.102633
C151	C	-0.061357	0.203017	-0.102649
H152	H	-0.106581	0.174972	0.179181
H153	H	-0.045591	0.352244	0.179210
H154	H	0.005387	0.434746	0.000240
H155	H	-0.004625	0.339976	-0.178765
H156	H	-0.065616	0.162705	-0.178794
H157	H	-0.610352	-0.064723	0.293567
C158	C	0.061038	0.158804	0.000190
C159	C	0.066794	0.213265	0.103041
C160	C	0.101847	0.315121	0.103062
C161	C	0.131144	0.362518	0.000232
C162	C	0.125389	0.308057	-0.102627
C163	C	0.090336	0.206201	-0.102648
H164	H	0.045106	0.178179	0.179169
H165	H	0.106107	0.355436	0.179205
H166	H	0.157092	0.437918	0.000247
H167	H	0.147077	0.343143	-0.178755
H168	H	0.086076	0.165886	-0.178791
H169	H	-0.039787	0.130407	0.000176
H170	H	-0.553889	-0.230108	0.819820
H171	H	-0.519080	-0.332069	0.706733
H172	H	-0.191476	0.127203	0.000190
H173	H	-0.338916	0.032192	0.000111
H174	H	-0.430652	0.030243	0.000108
H175	H	-0.076884	-0.387728	0.000163
H176	H	-0.524716	-0.315518	0.293575
