data_functionalizedCrystal
_audit_creation_method	'MofGen! by Chris Wilmer'
_symmetry_space_group_name_H-M	'P1'
_symmetry_Int_Tables_number	1
_symmetry_cell_setting	triclinic
loop_
_symmetry_equiv_pos_as_xyz
  x,y,z
_cell_length_a	14.853558
_cell_length_b	27.732048
_cell_length_c	13.930277
_cell_angle_alpha	89.990485
_cell_angle_beta	89.993309
_cell_angle_gamma	83.136894
loop_
_atom_site_label
_atom_site_type_symbol
_atom_site_fract_x
_atom_site_fract_y
_atom_site_fract_z
O1	O	1.195347	0.063085	-0.079830
O2	O	0.932764	0.070607	-0.079836
O3	O	1.072211	-0.003512	-0.079814
O4	O	1.055901	0.137205	-0.079851
O5	O	1.072192	-0.003514	0.079848
O6	O	0.932745	0.070606	0.079826
O7	O	1.195328	0.063084	0.079832
Zn8	Zn	1.064034	0.066844	0.105179
Zn9	Zn	1.064059	0.066847	-0.105183
O10	O	1.055881	0.137203	0.079811
C11	C	0.899171	0.070267	-0.000005
C12	C	0.799104	0.069248	-0.000007
C13	C	0.752102	0.068771	-0.087042
C14	C	0.752079	0.068763	0.087028
C15	C	0.658061	0.067803	0.087030
C16	C	0.611059	0.067326	-0.000006
C17	C	0.658076	0.067809	-0.087043
C18	C	0.611040	0.067315	0.174065
C19	C	0.517016	0.066355	0.174070
C20	C	0.470011	0.065881	0.087034
C21	C	0.517033	0.066365	-0.000007
C22	C	0.470031	0.065888	-0.087042
C23	C	0.517050	0.066375	-0.174083
C24	C	0.611071	0.067336	-0.174079
C25	C	0.375991	0.064920	0.087030
C26	C	0.376005	0.064926	-0.087043
C27	C	1.071859	-0.021522	0.000019
C28	C	1.070828	-0.075181	0.000027
C29	C	1.146742	-0.413643	-0.000021
C30	C	1.142916	-0.615320	-0.000034
O31	O	1.212334	-0.646253	-0.000074
N32	N	1.060230	-0.634829	-0.000035
C33	C	0.978495	-0.603915	-0.000039
O34	O	0.908077	-0.625137	-0.000050
C35	C	0.982321	-0.402239	-0.000032
C36	C	1.065012	-0.382733	-0.000022
C37	C	1.229426	-0.394136	-0.000011
C38	C	1.230382	-0.343720	-0.000002
C39	C	1.148652	-0.312810	-0.000003
C40	C	1.065968	-0.332317	-0.000013
C41	C	0.900586	-0.371326	-0.000043
C42	C	0.901550	-0.320904	-0.000044
C43	C	0.984241	-0.301398	-0.000033
C44	C	0.985194	-0.250990	-0.000005
N45	N	1.067880	-0.231481	-0.000004
C46	C	1.149609	-0.262391	-0.000003
C47	C	0.976492	-0.709799	-0.000040
C48	C	0.975535	-0.760218	-0.000040
C49	C	1.139957	-0.771619	-0.000037
C50	C	1.140913	-0.721199	-0.000030
C51	C	1.059178	-0.690290	-0.000039
C52	C	1.151609	-0.156513	0.000016
C53	C	1.152558	-0.106091	0.000028
C54	C	0.988136	-0.094694	0.000020
C55	C	0.987187	-0.145111	0.000013
C56	C	1.068931	-0.176020	0.000007
O57	O	0.915813	-0.220029	0.000024
O58	O	1.220016	-0.241161	-0.000014
C59	C	1.145786	-0.464059	-0.000029
C60	C	1.063101	-0.483566	-0.000039
C61	C	0.981372	-0.452656	-0.000040
C62	C	1.062145	-0.533985	-0.000039
C63	C	1.143874	-0.564895	-0.000038
C64	C	1.226560	-0.545386	-0.000037
C65	C	1.227516	-0.494969	-0.000028
C66	C	0.898686	-0.472165	-0.000041
C67	C	0.897737	-0.522582	-0.000048
C68	C	0.979467	-0.553492	-0.000047
C69	C	1.228921	0.063424	-0.000001
C70	C	1.328989	0.064443	-0.000006
C71	C	1.056233	0.155213	-0.000025
C72	C	1.057264	0.208872	-0.000039
N73	N	1.064023	0.066843	0.248745
N74	N	1.064077	0.066844	-0.248749
C75	C	1.002310	0.099654	0.701005
C76	C	1.125833	0.034035	0.700993
C77	C	1.125822	0.034034	0.600497
C78	C	1.064055	0.066843	0.550251
C79	C	1.002299	0.099654	0.600500
C80	C	1.187584	0.001227	0.550241
C81	C	1.187576	0.001224	0.449739
C82	C	1.125804	0.034032	0.399490
C83	C	1.064044	0.066844	0.449746
C84	C	1.002277	0.099653	0.399499
C85	C	0.940513	0.132463	0.449752
C86	C	0.940527	0.132462	0.550251
C87	C	1.125790	0.034033	0.298992
C88	C	1.002267	0.099654	0.298994
H89	H	1.219898	-0.090213	0.000039
H90	H	1.176126	0.007325	0.741907
Br91	Br	0.918428	0.144180	0.230810
H92	H	0.337711	0.064528	0.157897
Br93	Br	0.815868	0.069408	0.205141
H94	H	1.237877	-0.025483	0.591155
H95	H	0.833250	-0.387198	-0.000057
H96	H	1.218173	-0.181673	0.000007
H97	H	0.952019	0.126366	0.741924
Br98	Br	1.271394	-0.043302	0.381544
H99	H	1.176082	0.007322	0.258080
Br100	Br	0.865554	-0.667857	-0.000054
Br101	Br	0.312222	0.064285	-0.205168
Br102	Br	1.337478	-0.587345	-0.000028
Br103	Br	0.453211	0.065700	0.292195
Br104	Br	0.453254	0.065713	-0.292198
H105	H	1.294852	-0.479093	-0.000020
H106	H	0.649363	0.067731	-0.244943
H107	H	0.834990	-0.295740	-0.000052
Br108	Br	0.674831	0.067963	0.292177
Br109	Br	1.342612	-0.317256	-0.000015
Br110	Br	1.340361	-0.436077	-0.000010
Br111	Br	0.815908	0.069433	-0.205164
Br112	Br	1.250875	-0.813578	-0.000038
Br113	Br	1.253141	-0.694733	-0.000014
Br114	Br	0.863306	-0.786683	-0.000032
Br115	Br	0.785502	-0.549047	-0.000055
H116	H	0.919853	-0.160994	0.000031
H117	H	0.921594	-0.069518	0.000023
Br118	Br	0.787755	-0.430223	-0.000047
Br119	Br	0.856697	0.176994	0.381550
H120	H	0.890241	0.159175	0.591174
