data_functionalizedCrystal
_audit_creation_method	'MofGen! by Chris Wilmer'
_symmetry_space_group_name_H-M	'P1'
_symmetry_Int_Tables_number	1
_symmetry_cell_setting	triclinic
loop_
_symmetry_equiv_pos_as_xyz
  x,y,z
_cell_length_a	10.540539
_cell_length_b	19.188930
_cell_length_c	9.016244
_cell_angle_alpha	89.992636
_cell_angle_beta	89.994699
_cell_angle_gamma	83.835137
loop_
_atom_site_label
_atom_site_type_symbol
_atom_site_fract_x
_atom_site_fract_y
_atom_site_fract_z
O1	O	1.683725	0.098388	-0.123289
O2	O	1.314108	0.107659	-0.123309
O3	O	1.509583	0.001439	-0.123270
O4	O	1.488250	0.204608	-0.123329
O5	O	1.509554	0.001441	0.123411
O6	O	1.314079	0.107661	0.123372
O7	O	1.683697	0.098391	0.123392
Cu8	Cu	1.498885	0.103026	0.145905
Cu9	Cu	1.498919	0.103023	-0.145823
O10	O	1.488222	0.204611	0.123352
C11	C	1.266806	0.106965	0.000029
C12	C	1.125904	0.104885	0.000023
C13	C	0.944233	0.025184	0.000622
C14	C	1.090805	0.027292	0.000050
C15	C	1.063424	0.142224	-0.140849
C16	C	0.916938	0.139576	-0.140951
C17	C	0.916383	0.141157	0.139570
C18	C	1.063349	0.141872	0.141417
C19	C	1.508878	-0.024575	0.000075
C20	C	1.506804	-0.102094	0.000088
C21	C	1.621502	-0.146253	0.000101
C22	C	1.619554	-0.219090	0.000077
C23	C	1.502901	-0.247764	0.000070
C24	C	1.388187	-0.203595	0.000048
C25	C	1.390139	-0.130760	0.000057
N26	N	1.413724	-0.356363	0.084015
N27	N	1.411878	-0.425553	0.084010
C28	C	1.497014	-0.467212	0.000039
N29	N	1.584085	-0.437067	-0.083907
N30	N	1.585935	-0.367870	-0.083895
C31	C	1.500772	-0.326741	0.000059
C32	C	1.609608	-0.590350	0.000025
C33	C	1.607655	-0.663188	-0.000008
C34	C	1.376285	-0.647691	-0.000023
C35	C	1.378241	-0.574855	-0.000004
C36	C	1.494906	-0.546189	0.000026
C37	C	1.730998	0.099085	0.000050
C38	C	1.871901	0.101165	0.000047
C39	C	1.488927	0.230625	0.000004
C40	C	1.491000	0.308143	-0.000018
N41	N	1.498871	0.103028	0.351092
N42	N	1.498944	0.103016	-0.351009
C43	C	1.393992	0.159658	0.586103
C44	C	1.394216	0.159870	0.414212
C45	C	1.631229	0.119601	0.413432
C46	C	1.630654	0.120002	0.585376
C47	C	1.472714	0.029640	0.585655
C48	C	1.469658	0.030115	0.413700
H49	H	1.134054	-0.002088	0.101034
H50	H	0.914710	-0.005341	-0.099826
Br51	Br	1.588843	-0.043515	0.342121
Br52	Br	1.307381	0.009175	0.345800
H53	H	1.104900	0.114594	0.245633
Br54	Br	1.161447	-0.021806	-0.168820
H55	H	1.295820	0.149898	0.372066
H56	H	1.086328	0.198442	0.149905
Br57	Br	1.421460	0.249884	0.658035
H58	H	0.889348	0.111977	-0.246239
H59	H	1.293208	-0.226946	0.000039
H60	H	0.867921	0.197202	0.140506
H61	H	1.378325	0.013867	0.629103
H62	H	1.295283	0.149839	0.627495
Br63	Br	1.234464	-0.070825	0.000035
H64	H	1.704603	-0.567009	0.000043
Br65	Br	1.421990	0.250615	0.345593
H66	H	1.653829	0.173535	0.625451
H67	H	1.701060	-0.699142	-0.000006
H68	H	1.712958	-0.255051	0.000082
H69	H	1.106597	0.116284	-0.245674
Br70	Br	1.222570	-0.514920	-0.000021
H71	H	0.867740	0.195380	-0.147361
Br72	Br	1.217966	-0.686598	-0.000048
Br73	Br	1.764565	0.053837	0.654719
H74	H	1.549255	-0.012519	0.626323
Br75	Br	0.864713	0.099304	0.317545
Br76	Br	0.897690	-0.025908	0.169013
Br77	Br	1.098625	0.237192	-0.149654
Br78	Br	1.779832	-0.107352	0.000101
H79	H	1.711168	0.079472	0.372542
H80	H	1.654960	0.172529	0.370340
