data_functionalizedCrystal
_audit_creation_method	'MofGen! by Chris Wilmer'
_symmetry_space_group_name_H-M	'P1'
_symmetry_Int_Tables_number	1
_symmetry_cell_setting	triclinic
loop_
_symmetry_equiv_pos_as_xyz
  x,y,z
_cell_length_a	14.519709
_cell_length_b	19.288864
_cell_length_c	12.996460
_cell_angle_alpha	89.980567
_cell_angle_beta	90.007090
_cell_angle_gamma	96.591805
loop_
_atom_site_label
_atom_site_type_symbol
_atom_site_fract_x
_atom_site_fract_y
_atom_site_fract_z
O1	O	0.115045	-0.921763	0.085899
O2	O	0.130565	-0.719558	0.085829
O3	O	-0.011467	-0.826022	0.085857
O4	O	0.257077	-0.815300	0.085871
O5	O	-0.011475	-0.826011	-0.085277
O6	O	0.130557	-0.719547	-0.085305
O7	O	0.115038	-0.921752	-0.085235
Cu8	Cu	0.122797	-0.820649	-0.100896
Cu9	Cu	0.122806	-0.820662	0.101490
O10	O	0.257070	-0.815289	-0.085262
C11	C	-0.045828	-0.825517	0.000289
C12	C	-0.148200	-0.824019	0.000288
C13	C	0.130061	-0.693675	0.000253
C14	C	0.128562	-0.616566	0.000226
N15	N	0.122789	-0.820645	-0.243243
C16	C	-0.523061	-0.818507	0.000313
C17	C	-0.418762	-0.820037	0.000306
C18	C	-0.335633	-0.821263	0.000300
C19	C	-0.231329	-0.822794	0.000294
C20	C	0.291430	-0.815794	0.000307
C21	C	0.393802	-0.817291	0.000315
C22	C	0.115541	-0.947636	0.000344
C23	C	0.117040	-1.024745	0.000377
C24	C	0.211900	-0.572169	0.000247
C25	C	0.210492	-0.499717	0.000258
C26	C	0.125741	-0.471665	0.000269
C27	C	0.042392	-0.516071	0.000243
C28	C	0.043803	-0.588521	0.000221
C29	C	0.059120	-0.363167	0.060256
C30	C	0.057713	-0.290717	0.060284
C31	C	0.121387	-0.248203	0.000331
C32	C	0.186483	-0.278146	-0.059636
C33	C	0.187894	-0.350597	-0.059658
C34	C	0.124202	-0.393105	0.000292
C35	C	0.203203	-0.125246	0.000363
C36	C	0.201792	-0.052792	0.000368
C37	C	0.033689	-0.069148	0.000363
C38	C	0.035103	-0.141599	0.000347
C39	C	0.119863	-0.169644	0.000352
C40	C	0.122807	-0.820661	-0.663057
C41	C	0.122805	-0.820654	-0.546252
C42	C	0.122799	-0.820653	-0.453154
C43	C	0.122796	-0.820646	-0.336341
N44	N	0.122805	-0.820672	0.243837
H45	H	0.280918	-0.594998	0.000253
H46	H	-0.035317	-0.046308	0.000436
H47	H	-0.032760	-0.177748	0.000336
Cl48	Cl	0.315268	-0.443894	0.000282
H49	H	-0.024063	-0.624670	0.000205
Cl50	Cl	-0.024113	-0.253081	0.135681
H51	H	0.007267	-0.397776	0.109083
H52	H	0.269658	-0.016645	0.000379
H53	H	0.238332	-0.243533	-0.108456
Cl54	Cl	-0.064152	-0.480806	0.000251
H55	H	0.272220	-0.148080	0.000352
H56	H	0.240895	-0.374974	-0.108488
