data_functionalizedCrystal
_audit_creation_method	'MofGen! by Chris Wilmer'
_symmetry_space_group_name_H-M	'P1'
_symmetry_Int_Tables_number	1
_symmetry_cell_setting	triclinic
loop_
_symmetry_equiv_pos_as_xyz
  x,y,z
_cell_length_a	15.995292
_cell_length_b	15.995300
_cell_length_c	9.130313
_cell_angle_alpha	90.003298
_cell_angle_beta	89.998592
_cell_angle_gamma	83.470212
loop_
_atom_site_label
_atom_site_type_symbol
_atom_site_fract_x
_atom_site_fract_y
_atom_site_fract_z
O1	O	1.110992	0.107694	-0.121824
O2	O	0.867207	0.121072	-0.121816
O3	O	0.995785	-0.007509	-0.121828
O4	O	0.982414	0.236275	-0.121813
O5	O	0.995784	-0.007506	0.121771
O6	O	0.867206	0.121076	0.121782
O7	O	1.110990	0.107697	0.121775
Cu8	Cu	0.989098	0.114387	0.144021
Cu9	Cu	0.989100	0.114383	-0.144063
O10	O	0.982412	0.236278	0.121786
C11	C	0.995239	-0.038703	-0.000033
C12	C	0.993604	-0.131655	-0.000048
C13	C	0.836011	0.120530	-0.000016
C14	C	0.743058	0.118897	-0.000014
C15	C	0.990585	-0.301837	-0.000034
C16	C	1.082135	-0.349322	-0.000039
C17	C	1.080465	-0.446010	0.000519
C18	C	0.987613	-0.469393	-0.000021
C19	C	0.942191	-0.428247	0.138813
C20	C	0.944507	-0.331615	0.138923
C21	C	0.943153	-0.331343	-0.138104
C22	C	0.943162	-0.428287	-0.139923
C23	C	0.985928	-0.564088	-0.000009
C24	C	0.992266	-0.207142	-0.000036
C25	C	0.405321	0.112896	-0.000031
C26	C	0.428617	0.205702	-0.000569
C27	C	0.525292	0.207466	-0.000014
C28	C	0.572876	0.115874	-0.000023
C29	C	0.543782	0.069477	0.139076
C30	C	0.446992	0.068359	0.139186
C31	C	0.447138	0.066460	-0.137832
C32	C	0.543630	0.069900	-0.139664
C33	C	0.667572	0.117552	-0.000014
C34	C	0.310626	0.111215	-0.000030
C35	C	1.142186	0.108240	-0.000029
C36	C	1.235139	0.109872	-0.000040
C37	C	0.982958	0.267472	-0.000012
C38	C	0.984593	0.360424	-0.000006
N39	N	0.989103	0.114389	0.346644
N40	N	0.989102	0.114374	-0.346685
C41	C	1.046051	0.057472	0.423291
C42	C	1.046049	0.057462	0.576628
C43	C	0.932147	0.171293	0.576657
C44	C	0.932145	0.171298	0.423323
C45	C	1.111815	-0.008244	0.423275
C46	C	1.111812	-0.008254	0.576612
H47	H	1.116156	-0.474483	-0.098979
Br48	Br	1.212836	0.024859	0.343992
Br49	Br	0.555962	0.268395	0.166476
Br50	Br	1.078794	-0.109318	0.655871
Br51	Br	0.598595	-0.041533	-0.153679
Br52	Br	0.574612	0.126174	-0.311187
H53	H	0.418807	0.095467	-0.243261
Br54	Br	0.832463	-0.277795	0.148812
Br55	Br	1.142549	-0.316650	0.165640
H56	H	0.433158	-0.001851	-0.138779
H57	H	1.118922	-0.330853	-0.099597
Br58	Br	1.139693	-0.492441	0.167362
H59	H	1.176034	0.005519	0.618228
H60	H	0.420168	0.100495	0.243172
H61	H	0.432454	0.000314	0.145498
Br62	Br	0.999061	-0.301083	0.312553
H63	H	0.575662	0.002077	0.144241
H64	H	0.873965	-0.442333	0.143588
H65	H	0.885766	0.217637	0.360918
H66	H	0.973358	-0.456605	0.242520
H67	H	0.973293	-0.310849	-0.243366
H68	H	0.563835	0.101699	0.242600
Br69	Br	0.854849	0.248521	0.680729
Br70	Br	0.998443	-0.473871	-0.311122
H71	H	0.875468	-0.443618	-0.148721
H72	H	1.098090	-0.072480	0.381651
H73	H	0.875651	-0.299557	-0.139425
H74	H	0.544312	0.243798	-0.099729
H75	H	0.400615	0.241473	-0.100324
H76	H	0.399591	0.241277	0.098629
