data_functionalizedCrystal
_audit_creation_method	'MofGen! by Chris Wilmer'
_symmetry_space_group_name_H-M	'P1'
_symmetry_Int_Tables_number	1
_symmetry_cell_setting	triclinic
loop_
_symmetry_equiv_pos_as_xyz
  x,y,z
_cell_length_a	31.640172
_cell_length_b	31.640172
_cell_length_c	19.902436
_cell_angle_alpha	60.004117
_cell_angle_beta	90.007369
_cell_angle_gamma	60.004780
loop_
_atom_site_label
_atom_site_type_symbol
_atom_site_fract_x
_atom_site_fract_y
_atom_site_fract_z
Zr1	Zr	0.407246	0.462528	-0.088075
O2	O	0.339768	0.550696	-0.195368
O3	O	0.427923	0.374361	-0.055186
O4	O	0.427935	0.462518	-0.195350
O5	O	0.339756	0.462547	0.055363
O6	O	0.497492	0.462509	-0.195336
O7	O	0.339756	0.462539	-0.055203
O8	O	0.497470	0.304813	0.055394
O9	O	0.339778	0.620243	-0.195366
O10	O	0.488661	0.410619	-0.041146
O11	O	0.436751	0.410632	0.041357
O12	O	0.436766	0.514424	-0.123669
O13	O	0.384856	0.514437	-0.041166
Zr14	Zr	0.518181	0.462527	0.088288
Zr15	Zr	0.518181	0.462514	-0.088052
Zr16	Zr	0.407245	0.462541	0.088264
Zr17	Zr	0.407261	0.573449	-0.088073
Zr18	Zr	0.518166	0.351607	0.088286
O19	O	0.497504	0.550694	0.055398
O20	O	0.497504	0.550676	-0.195334
O21	O	0.339768	0.550714	0.055365
O22	O	0.585658	0.374360	0.195580
O23	O	0.585659	0.374342	-0.055152
O24	O	0.427923	0.374380	0.195547
O25	O	0.585671	0.462508	-0.055151
O26	O	0.497492	0.462538	0.195563
O27	O	0.427935	0.462547	0.195548
O28	O	0.585671	0.462516	0.055415
O29	O	0.427956	0.620232	-0.195348
O30	O	0.497470	0.304824	0.195560
O31	O	0.585649	0.304813	0.195579
O32	O	0.585649	0.304802	0.055412
O33	O	0.339777	0.620254	-0.055200
O34	O	0.427956	0.620242	-0.055181
O35	O	0.488661	0.410631	0.123882
O36	O	0.540571	0.410619	0.041379
O37	O	0.488675	0.514424	-0.041144
O38	O	0.436765	0.514437	0.041359
C39	C	0.462694	0.323784	0.000104
C40	C	0.462688	0.276695	0.000103
C41	C	0.489820	-0.015354	-0.042952
C42	C	0.489831	-0.192349	-0.042951
O43	O	0.512894	-0.215260	-0.079548
N44	N	0.462734	-0.214472	0.000113
C45	C	0.435635	-0.192345	0.043184
O46	O	0.412592	-0.215227	0.079820
C47	C	0.435628	-0.015353	0.043188
C48	C	0.462722	0.006771	0.000114
C49	C	0.516913	0.006771	-0.086021
C50	C	0.516907	0.051019	-0.086025
C51	C	0.489809	0.073144	-0.042959
C52	C	0.462717	0.051020	0.000111
C53	C	0.408532	0.006769	0.086264
C54	C	0.408534	0.051019	0.086263
C55	C	0.435628	0.073143	0.043189
C56	C	0.435614	0.117393	0.043174
N57	N	0.462711	0.139515	0.000110
C58	C	0.489808	0.117391	-0.042956
C59	C	0.435640	-0.285268	0.043178
C60	C	0.435641	-0.329515	0.043176
C61	C	0.489837	-0.329516	-0.042959
C62	C	0.489833	-0.285266	-0.042961
C63	C	0.462737	-0.263145	0.000114
C64	C	0.489795	0.210316	-0.042961
C65	C	0.489786	0.254571	-0.042963
C66	C	0.435591	0.254566	0.043174
C67	C	0.435598	0.210318	0.043174
C68	C	0.462704	0.188193	0.000104
O69	O	0.412567	0.140326	0.079758
O70	O	0.512857	0.140271	-0.079572
C71	C	0.489825	-0.059602	-0.042948
C72	C	0.462732	-0.081726	0.000121
C73	C	0.435635	-0.059602	0.043187
C74	C	0.462733	-0.125973	0.000119
C75	C	0.489831	-0.148098	-0.042947
C76	C	0.516928	-0.125975	-0.086011
C77	C	0.516923	-0.081727	-0.086015
C78	C	0.408538	-0.081724	0.086251
C79	C	0.408545	-0.125972	0.086250
C80	C	0.435642	-0.148097	0.043184
C81	C	0.323950	0.462545	0.000077
C82	C	0.276855	0.462551	0.000067
C83	C	0.011938	0.408337	0.043199
C84	C	-0.165047	0.408327	0.043215
O85	O	-0.164895	0.362244	0.079880
N86	N	-0.214266	0.462511	0.000138
C87	C	-0.219237	0.516703	-0.042942
O88	O	-0.265162	0.562790	-0.079575
C89	C	-0.042253	0.516713	-0.042953
C90	C	0.006965	0.462524	0.000120
C91	C	0.061154	0.354153	0.086270
C92	C	0.105397	0.354156	0.086262
C93	C	0.100424	0.408343	0.043183
C94	C	0.051208	0.462527	0.000112
C95	C	-0.047225	0.570903	-0.086028
C96	C	-0.002974	0.570901	-0.086025
C97	C	0.046245	0.516713	-0.042952
C98	C	0.090479	0.516718	-0.042975
N99	N	0.139698	0.462533	0.000103
C100	C	0.144670	0.408345	0.043181
C101	C	-0.312155	0.516694	-0.042934
C102	C	-0.356401	0.516692	-0.042933
C103	C	-0.302208	0.408315	0.043226
C104	C	-0.257961	0.408318	0.043219
C105	C	-0.262936	0.462509	0.000143
C106	C	0.237583	0.408356	0.043160
C107	C	0.281827	0.408364	0.043146
C108	C	0.227631	0.516740	-0.043009
C109	C	0.183389	0.516733	-0.042998
C110	C	0.188369	0.462536	0.000093
O111	O	0.090366	0.562776	-0.079613
O112	O	0.190599	0.362265	0.079823
C113	C	-0.032306	0.408334	0.043207
C114	C	-0.081522	0.462518	0.000137
C115	C	-0.086494	0.516705	-0.042942
C116	C	-0.125768	0.462516	0.000138
C117	C	-0.120795	0.408328	0.043217
C118	C	-0.071576	0.354143	0.086294
C119	C	-0.027333	0.354147	0.086286
C120	C	-0.135713	0.570890	-0.086019
C121	C	-0.179954	0.570882	-0.086008
C122	C	-0.174981	0.516695	-0.042930
C123	C	0.601477	0.462510	0.000136
C124	C	0.648572	0.462504	0.000146
C125	C	0.462713	0.462512	-0.220468
C126	C	0.462713	0.462506	-0.295329
C127	C	0.462732	0.601272	0.000109
C128	C	0.462739	0.648361	0.000110
C129	C	0.462713	0.462535	-0.567377
C130	C	0.495605	0.397053	-0.486829
C131	C	0.495463	0.397012	-0.408926
C132	C	0.462714	0.462520	-0.432410
C133	C	0.406314	0.495045	-0.486541
C134	C	0.406494	0.494627	-0.564103
C135	C	0.485765	0.495962	-0.565226
C136	C	0.486906	0.494731	-0.486348
C137	C	0.462711	0.462515	-0.356136
C138	C	0.462712	0.462542	-0.643653
C139	C	0.462713	0.462544	0.220680
C140	C	0.462713	0.462550	0.295541
C141	C	0.601457	0.323766	0.000133
C142	C	0.648546	0.276672	0.000142
C143	C	0.462694	0.323800	0.220678
C144	C	0.462688	0.276717	0.295538
C145	C	0.601457	0.323782	0.220707
C146	C	0.648546	0.276694	0.295577
C147	C	0.323969	0.601273	-0.220495
C148	C	0.276880	0.648362	-0.295365
C149	C	0.323969	0.601290	0.000079
C150	C	0.276880	0.648384	0.000070
C151	C	0.462732	0.601256	-0.220465
C152	C	0.462739	0.648339	-0.295325
C153	C	0.643563	0.254556	-0.042938
C154	C	0.687803	0.210312	-0.042946
C155	C	0.737026	0.188181	0.000132
C156	C	0.742008	0.210301	0.043213
C157	C	0.697768	0.254548	0.043216
C158	C	0.489781	0.254606	0.373777
C159	C	0.489773	0.210373	0.444123
C160	C	0.462674	0.188248	0.436227
C161	C	0.435578	0.210363	0.357979
C162	C	0.435583	0.254599	0.287636
C163	C	0.697760	0.254573	0.287671
C164	C	0.742009	0.210335	0.358013
C165	C	0.737043	0.188214	0.436259
C166	C	0.687823	0.210338	0.444164
C167	C	0.643575	0.254579	0.373823
C168	C	0.227666	0.670488	-0.287459
C169	C	0.183417	0.714740	-0.357800
C170	C	0.188384	0.736864	-0.436047
C171	C	0.237603	0.714736	-0.443951
C172	C	0.281851	0.670488	-0.373610
C173	C	0.281863	0.670505	0.043143
C174	C	0.237623	0.714761	0.043132
C175	C	0.188400	0.736893	0.000051
C176	C	0.183418	0.714771	-0.043027
C177	C	0.227658	0.670518	-0.043020
C178	C	0.489843	0.670449	-0.287403
C179	C	0.489859	0.714683	-0.357735
C180	C	0.462768	0.736808	-0.435989
C181	C	0.435663	0.714693	-0.443909
C182	C	0.435650	0.670457	-0.373578
H183	H	0.511868	0.192306	-0.078031
O184	O	0.682425	0.186456	-0.089410
H185	H	0.660942	0.166297	-0.064509
H186	H	-0.217888	0.364193	0.078300
H187	H	0.321939	0.652488	0.078230
H188	H	0.528459	0.471011	-0.449018
O189	O	0.519060	-0.261410	-0.089416
H190	H	0.491708	-0.212605	-0.137033
H191	H	0.321922	0.652473	-0.380058
H192	H	0.380652	0.542671	-0.621144
H193	H	0.241690	0.732765	0.078214
O194	O	0.784741	0.140453	0.000134
H195	H	0.773002	0.128792	-0.037055
H196	H	0.538972	0.069029	-0.121096
H197	H	0.413606	0.732714	-0.507633
H198	H	0.143345	0.732749	-0.351348
O199	O	0.550760	0.363001	-0.484571
H200	H	0.577367	0.348371	-0.429359
O201	O	0.474623	0.363180	-0.485839
H202	H	0.498117	0.317019	-0.428733
O203	O	0.682476	0.186466	0.528565
H204	H	0.661000	0.223599	0.535739
O205	O	0.703150	0.278387	0.089701
H206	H	0.684300	0.327192	0.046232
O207	O	0.474276	0.363014	-0.357219
H208	H	0.464086	0.346543	-0.387827
O209	O	0.458468	0.558042	-0.510909
H210	H	0.426502	0.567583	-0.484944
H211	H	0.701814	0.272578	0.223965
H212	H	0.413577	0.652460	-0.380040
O213	O	0.140685	0.784606	0.000073
H214	H	0.152425	0.796256	0.037280
H215	H	0.511840	0.192372	0.507829
H216	H	0.143335	0.732797	-0.078101
H217	H	0.462674	0.152229	0.493512
H218	H	0.782092	0.192276	0.078286
H219	H	0.223593	0.652509	-0.078092
H220	H	-0.396473	0.560817	-0.078018
H221	H	0.511903	0.652442	-0.223691
O222	O	0.454192	0.559857	-0.640436
H223	H	0.422240	0.567798	-0.679183
O224	O	0.519092	0.738533	-0.349184
H225	H	0.537919	0.715720	-0.282952
H226	H	0.538981	-0.011241	-0.121090
O227	O	0.462776	0.784527	-0.511845
H228	H	0.486170	0.796188	-0.493181
H229	H	0.511901	-0.347537	-0.078026
H230	H	0.380742	0.543212	-0.506311
O231	O	0.379316	0.074882	0.132724
H232	H	0.337671	0.095043	0.107832
H233	H	-0.220028	0.615013	-0.121092
O234	O	0.519011	0.278433	-0.089421
H235	H	0.537858	0.255607	-0.119358
O236	O	0.539947	0.468203	-0.569176
H237	H	0.567290	0.451771	-0.513164
H238	H	-0.007030	0.615031	-0.121093
O239	O	0.222304	0.646630	-0.203067
H240	H	0.200831	0.683774	-0.195914
O241	O	0.546150	-0.057872	-0.132470
H242	H	0.518798	-0.009068	-0.180092
O243	O	0.406407	-0.261405	0.089630
H244	H	0.387562	-0.284221	0.119562
H245	H	0.603487	0.272574	-0.078027
O246	O	0.590494	0.278424	0.382354
H247	H	0.594480	0.255599	0.448583
H248	H	0.413515	0.192343	0.351563
H249	H	0.387729	0.472464	-0.449091
H250	H	0.773076	0.152190	0.493529
H251	H	0.511848	0.272615	0.380222
O252	O	0.140655	0.784589	-0.511908
H253	H	0.152372	0.796262	-0.567651
H254	H	0.413571	-0.347518	0.078240
H255	H	0.012739	0.310021	0.121363
O256	O	0.406443	0.278363	0.203248
H257	H	0.387634	0.255510	0.209584
O258	O	0.795092	0.186470	0.349479
H259	H	0.791107	0.209278	0.283250
H260	H	0.241641	0.732755	-0.507668
H261	H	0.413529	0.192310	0.078237
H262	H	0.386470	-0.011238	0.121340
H263	H	0.413527	0.272590	0.078235
H264	H	0.538990	-0.143994	-0.121081
O265	O	-0.317523	0.575145	-0.089422
H266	H	-0.298666	0.577760	-0.045956
H267	H	0.386472	-0.063716	0.121324
O268	O	0.379300	-0.149815	0.132680
H269	H	0.360455	-0.126988	0.162619
H270	H	0.241645	0.364224	0.078250
O271	O	0.334915	0.349916	0.089602
H272	H	0.339421	0.323937	0.155807
O273	O	0.158479	0.295709	0.132723
H274	H	0.162979	0.269734	0.198925
O275	O	0.066522	0.295703	0.132726
H276	H	0.108182	0.258033	0.162664
H277	H	-0.298166	0.364194	0.078297
O278	O	0.222308	0.575163	-0.089483
H279	H	0.200834	0.601178	-0.064626
O280	O	-0.100304	0.629350	-0.132481
H281	H	-0.096319	0.667024	-0.162423
O282	O	0.130301	0.575176	-0.089456
H283	H	0.134279	0.612856	-0.119410
O284	O	-0.066216	0.295696	0.132761
H285	H	-0.105254	0.304805	0.125529
H286	H	-0.139769	0.615017	-0.121101
H287	H	0.536994	0.371494	-0.369523
H288	H	0.388040	0.471521	-0.563913
