data_functionalizedCrystal
_audit_creation_method	'MofGen! by Chris Wilmer'
_symmetry_space_group_name_H-M	'P1'
_symmetry_Int_Tables_number	1
_symmetry_cell_setting	triclinic
loop_
_symmetry_equiv_pos_as_xyz
  x,y,z
_cell_length_a	15.944551
_cell_length_b	10.654558
_cell_length_c	9.730223
_cell_angle_alpha	90.000400
_cell_angle_beta	89.996442
_cell_angle_gamma	96.006473
loop_
_atom_site_label
_atom_site_type_symbol
_atom_site_fract_x
_atom_site_fract_y
_atom_site_fract_z
O1	O	-0.118006	1.666301	-0.114254
O2	O	-0.129239	1.300679	-0.114260
O3	O	-0.001406	1.493474	-0.114265
O4	O	-0.245839	1.473505	-0.114249
O5	O	-0.001409	1.493472	0.114315
O6	O	-0.129242	1.300676	0.114320
O7	O	-0.118009	1.666299	0.114326
Zn8	Zn	-0.123626	1.483487	0.150615
Zn9	Zn	-0.123622	1.483490	-0.150549
O10	O	-0.245843	1.473503	0.114331
C11	C	-0.128414	1.253890	0.000029
C12	C	-0.125942	1.114480	0.000027
C13	C	-0.122466	0.917987	-0.124573
C14	C	-0.124781	1.048980	-0.124574
C15	C	-0.124780	1.048981	0.124636
C16	C	-0.122459	0.917992	0.124636
C17	C	-0.121313	0.852493	-0.249182
C18	C	-0.122474	0.917982	-0.373792
C19	C	-0.124789	1.048975	-0.373793
C20	C	-0.125943	1.114478	-0.249184
C21	C	-0.277140	1.474333	0.000043
C22	C	-0.370400	1.476819	0.000049
C23	C	-0.585985	1.602263	0.000030
C24	C	-0.646665	1.544009	0.112732
C25	C	-0.541152	1.481315	0.000037
C26	C	-0.646647	1.543983	-0.112630
C27	C	-0.706090	1.485667	0.000019
C28	C	-0.600603	1.423028	0.112832
C29	C	-0.600579	1.423019	-0.112631
C30	C	-0.661241	1.364678	0.000098
C31	C	-0.446135	1.478811	0.000048
C32	C	-0.801106	1.488161	0.000017
C33	C	0.029892	1.492644	0.000020
C34	C	0.123152	1.490159	0.000005
C35	C	-0.118834	1.713087	0.000034
C36	C	-0.121306	1.852498	0.000027
N37	N	-0.123629	1.483494	0.356151
N38	N	-0.123613	1.483493	-0.356085
C39	C	-0.067043	1.568886	0.428075
C40	C	-0.067033	1.568883	0.571958
C41	C	-0.180201	1.398092	0.571981
C42	C	-0.180206	1.398090	0.428100
C43	C	-0.010466	1.654290	0.356126
C44	C	0.046123	1.739689	0.428050
C45	C	0.046134	1.739686	0.571933
C46	C	-0.010445	1.654283	0.643892
H47	H	-0.127824	1.221142	-0.249195
H48	H	-0.226266	1.328562	0.630579
H49	H	-0.580152	1.371907	-0.207919
H50	H	-0.125726	1.102294	-0.475257
N51	N	0.107163	1.831795	0.649507
H52	H	0.098585	1.818839	0.751573
H53	H	0.166842	1.817299	0.624341
N54	N	-0.121231	0.847337	-0.508183
H55	H	-0.122314	0.908705	-0.587117
H56	H	-0.068291	0.803157	-0.513616
H57	H	-0.125721	1.102324	0.226087
H58	H	-0.580317	1.371911	0.208216
H59	H	-0.121530	0.864666	0.226097
N60	N	-0.241233	1.305988	0.350513
H61	H	-0.277078	1.251892	0.417922
H62	H	-0.278669	1.354061	0.290821
H63	H	0.092193	1.809215	0.369453
H64	H	-0.010471	1.654303	0.238969
H65	H	-0.553263	1.702656	0.000142
N66	N	-0.673656	1.611765	-0.238834
H67	H	-0.646011	1.701495	-0.238726
H68	H	-0.656081	1.566895	-0.323890
N69	N	-0.704404	1.231590	0.000182
H70	H	-0.740419	1.217653	-0.084944
H71	H	-0.660479	1.169831	0.001080
H72	H	-0.667070	1.595165	0.208015
N73	N	-0.010439	1.654289	0.799080
H74	H	-0.054871	1.587237	0.833747
H75	H	0.046777	1.636064	0.833619
N76	N	-0.118814	0.711210	-0.249179
H77	H	-0.118258	0.679655	-0.347022
H78	H	-0.066275	0.689934	-0.200204
