data_functionalizedCrystal
_audit_creation_method	'MofGen! by Chris Wilmer'
_symmetry_space_group_name_H-M	'P1'
_symmetry_Int_Tables_number	1
_symmetry_cell_setting	triclinic
loop_
_symmetry_equiv_pos_as_xyz
  x,y,z
_cell_length_a	15.944499
_cell_length_b	10.723024
_cell_length_c	9.798715
_cell_angle_alpha	90.002215
_cell_angle_beta	89.993958
_cell_angle_gamma	96.027261
loop_
_atom_site_label
_atom_site_type_symbol
_atom_site_fract_x
_atom_site_fract_y
_atom_site_fract_z
O1	O	1.115470	-0.160625	-0.113569
O2	O	0.871028	-0.180534	-0.113554
O3	O	0.998887	0.011070	-0.113557
O4	O	0.987610	-0.352228	-0.113566
O5	O	0.998878	0.011071	0.113425
O6	O	0.871019	-0.180532	0.113428
O7	O	1.115461	-0.160623	0.113413
Zn8	Zn	0.993238	-0.170578	0.149459
Zn9	Zn	0.993250	-0.170579	-0.149600
O10	O	0.987601	-0.352227	0.113416
C11	C	0.839724	-0.179718	-0.000061
C12	C	0.746462	-0.177274	-0.000055
C13	C	0.455563	-0.288591	-0.000078
C14	C	0.516265	-0.230726	-0.111993
C15	C	0.410774	-0.168396	-0.000086
C16	C	0.516242	-0.230693	0.111794
C17	C	0.575708	-0.172765	-0.000068
C18	C	0.470249	-0.110498	-0.112094
C19	C	0.470219	-0.110481	0.111794
C20	C	0.530903	-0.052530	-0.000149
C21	C	0.315760	-0.165883	-0.000097
C22	C	0.670722	-0.175268	-0.000067
C23	C	1.146765	-0.161439	-0.000083
C24	C	1.240027	-0.163883	-0.000098
C25	C	0.998062	0.057560	-0.000067
C26	C	0.995607	0.196082	-0.000072
N27	N	0.993237	-0.170576	0.353559
C28	C	0.988427	-0.398716	-0.000077
C29	C	0.990882	-0.537239	-0.000081
C30	C	1.067150	0.271988	-0.000078
C31	C	1.064614	0.415159	-0.000083
N32	N	0.993259	-0.170571	-0.353700
C33	C	1.047054	-0.089952	0.578489
C34	C	1.047043	-0.089954	0.421326
H35	H	0.449983	-0.059708	-0.206815
H36	H	0.947197	-0.239599	0.588006
Cl37	Cl	0.547741	-0.309213	-0.258079
H38	H	0.929632	0.397545	-0.000066
H39	H	1.093096	-0.020927	0.363012
H40	H	1.130278	0.230981	-0.000074
Cl41	Cl	0.581255	0.101607	-0.000237
H42	H	1.093123	-0.020933	0.636782
H43	H	0.422804	-0.388340	-0.000189
Cl44	Cl	1.159180	0.515852	-0.000081
Cl45	Cl	0.922119	-0.277142	0.443578
Cl46	Cl	0.438701	-0.032055	0.257882
Cl47	Cl	0.547684	-0.309210	0.257864
H48	H	0.932479	0.237089	-0.000077
