data_functionalizedCrystal
_audit_creation_method	'MofGen! by Chris Wilmer'
_symmetry_space_group_name_H-M	'P1'
_symmetry_Int_Tables_number	1
_symmetry_cell_setting	triclinic
loop_
_symmetry_equiv_pos_as_xyz
  x,y,z
_cell_length_a	16.109302
_cell_length_b	15.995343
_cell_length_c	15.186229
_cell_angle_alpha	89.991534
_cell_angle_beta	89.994701
_cell_angle_gamma	83.475482
loop_
_atom_site_label
_atom_site_type_symbol
_atom_site_fract_x
_atom_site_fract_y
_atom_site_fract_z
O1	O	1.103156	0.107627	-0.073277
O2	O	0.861098	0.121020	-0.073272
O3	O	0.988747	-0.007566	-0.073258
O4	O	0.975507	0.236214	-0.073291
O5	O	0.988739	-0.007568	0.073199
O6	O	0.861089	0.121019	0.073186
O7	O	1.103148	0.107626	0.073180
Zn8	Zn	0.982117	0.114322	0.096436
Zn9	Zn	0.982128	0.114324	-0.096528
O10	O	0.975498	0.236212	0.073167
C11	C	0.830118	0.120477	-0.000042
C12	C	0.737823	0.118850	-0.000039
C13	C	0.525476	0.115087	0.079786
C14	C	0.438756	0.113550	0.079784
C15	C	0.438776	0.113556	-0.079892
C16	C	0.525495	0.115088	-0.079888
C17	C	0.568843	0.115858	-0.000046
C18	C	0.395403	0.112788	-0.000053
C19	C	0.301377	0.111121	-0.000057
C20	C	0.662875	0.117523	-0.000042
C21	C	0.988197	-0.038762	-0.000027
C22	C	0.986559	-0.131712	-0.000020
C23	C	0.983587	-0.301898	-0.000040
C24	C	0.891443	-0.325218	-0.000040
C25	C	0.889709	-0.421896	-0.000382
C26	C	0.980659	-0.469457	-0.000059
C27	C	1.026995	-0.440369	-0.083526
C28	C	1.028088	-0.343577	-0.083587
C29	C	1.029427	-0.343684	0.082969
C30	C	1.026025	-0.440178	0.084056
C31	C	0.979009	-0.564154	-0.000073
C32	C	0.985239	-0.207200	-0.000033
C33	C	1.134127	0.108169	-0.000052
C34	C	1.226423	0.109796	-0.000060
C35	C	0.976049	0.267408	-0.000066
C36	C	0.977686	0.360358	-0.000079
N37	N	0.982115	0.114320	0.228129
N38	N	0.982136	0.114320	-0.228220
C39	C	1.038658	0.057401	0.453857
C40	C	1.038661	0.057399	0.546047
C41	C	0.925588	0.171241	0.546044
C42	C	0.925582	0.171239	0.453856
C43	C	0.982122	0.114319	0.407765
C44	C	0.982130	0.114320	0.592143
C45	C	0.982133	0.114318	0.692099
C46	C	0.982118	0.114320	0.307803
H47	H	0.560767	0.115714	0.144799
H48	H	1.084696	0.011050	0.583573
H49	H	1.084695	0.011052	0.416332
N50	N	0.572278	0.115908	-0.165998
H51	H	0.531660	0.115193	-0.216578
H52	H	0.601521	0.168416	-0.169482
H53	H	0.853430	-0.440910	0.059433
H54	H	0.403471	0.112930	-0.144897
N55	N	0.864609	0.232631	0.595757
H56	H	0.873191	0.223998	0.661152
H57	H	0.874208	0.292033	0.579629
N58	N	0.864594	0.232625	0.404135
H59	H	0.828780	0.268687	0.447320
H60	H	0.896414	0.269650	0.365868
N61	N	0.391982	0.112715	0.165889
H62	H	0.432679	0.112845	0.216463
H63	H	0.349654	0.164253	0.169629
H64	H	0.856313	-0.296218	-0.059805
N65	N	0.844123	-0.288125	0.079237
H66	H	0.881952	-0.255840	0.115923
H67	H	0.794211	-0.248875	0.059037
N68	N	0.986066	-0.308068	-0.166531
H69	H	0.986348	-0.244963	-0.167397
H70	H	1.017227	-0.333495	-0.219579
N71	N	0.841862	-0.446302	-0.080075
H72	H	0.821825	-0.394228	-0.115124
H73	H	0.879537	-0.486229	-0.118008
N74	N	1.117589	-0.324287	-0.088302
H75	H	1.156159	-0.378639	-0.090336
H76	H	1.125637	-0.290326	-0.143090
H77	H	1.093931	-0.472233	-0.086398
N78	N	0.984899	-0.466959	-0.166125
H79	H	0.935824	-0.497839	-0.149669
H80	H	0.964648	-0.415506	-0.202034
H81	H	1.000352	-0.315412	0.146256
H82	H	0.992283	-0.458735	0.145806
H83	H	1.097248	-0.329682	0.083778
N84	N	1.113931	-0.483850	0.091078
H85	H	1.125648	-0.523406	0.039599
H86	H	1.154865	-0.440483	0.090514
