data_functionalizedCrystal
_audit_creation_method	'MofGen! by Chris Wilmer'
_symmetry_space_group_name_H-M	'P1'
_symmetry_Int_Tables_number	1
_symmetry_cell_setting	triclinic
loop_
_symmetry_equiv_pos_as_xyz
  x,y,z
_cell_length_a	16.120490
_cell_length_b	10.686285
_cell_length_c	10.685314
_cell_angle_alpha	90.303498
_cell_angle_beta	91.677276
_cell_angle_gamma	82.516228
loop_
_atom_site_label
_atom_site_type_symbol
_atom_site_fract_x
_atom_site_fract_y
_atom_site_fract_z
Zn1	Zn	1.269532	-0.658195	-0.760370
Zn2	Zn	1.290738	-0.853682	-0.536035
Zn3	Zn	1.139841	-0.631514	-0.541493
Zn4	Zn	1.141484	-0.857367	-0.735253
O5	O	1.210398	-0.750189	-0.643288
O6	O	1.389084	-0.693751	-0.738838
O7	O	1.278908	-0.811502	-0.361785
O8	O	1.147482	-0.458721	-0.583323
O9	O	1.404664	-0.837374	-0.574021
O10	O	1.242766	-0.478324	-0.744131
O11	O	1.168045	-0.648276	-0.365795
O12	O	1.023320	-0.651849	-0.558969
O13	O	1.150283	-0.843654	-0.913559
O14	O	1.024527	-0.817783	-0.701323
O15	O	1.244359	-0.697324	-0.932012
O16	O	1.280501	-1.030502	-0.549666
O17	O	1.170845	-1.033210	-0.696031
C18	C	1.228174	-1.077581	-0.619560
C19	C	1.235852	-1.217650	-0.609456
C20	C	0.993654	-0.732322	-0.628013
C21	C	0.900930	-0.724710	-0.621506
C22	C	0.690481	-0.789661	-0.677043
C23	C	0.731168	-0.710825	-0.609624
C24	C	0.825633	-0.718553	-0.616237
C25	C	0.596008	-0.781935	-0.670431
C26	C	1.427989	-0.768128	-0.658622
C27	C	1.520714	-0.775772	-0.665157
C28	C	1.195138	-0.773877	-0.969423
C29	C	1.188636	-0.783971	-1.108402
C30	C	1.192575	-0.421523	-0.667137
C31	C	1.184980	-0.281465	-0.677300
C32	C	1.225642	-0.726507	-0.318431
C33	C	1.232287	-0.716071	-0.179490
H34	H	1.135552	-1.228945	-0.743116
Cl35	Cl	1.312162	-1.298738	-0.507819
H36	H	0.695057	-0.637528	-0.546937
Cl37	Cl	0.746232	-0.902833	-0.773806
Cl38	Cl	1.297659	-0.614376	-1.109304
Cl39	Cl	1.123251	-0.885656	-1.178593
