data_functionalizedCrystal
_audit_creation_method	'MofGen! by Chris Wilmer'
_symmetry_space_group_name_H-M	'P1'
_symmetry_Int_Tables_number	1
_symmetry_cell_setting	triclinic
loop_
_symmetry_equiv_pos_as_xyz
  x,y,z
_cell_length_a	16.625547
_cell_length_b	16.625539
_cell_length_c	17.640280
_cell_angle_alpha	78.776546
_cell_angle_beta	78.799399
_cell_angle_gamma	89.978691
loop_
_atom_site_label
_atom_site_type_symbol
_atom_site_fract_x
_atom_site_fract_y
_atom_site_fract_z
Zn1	Zn	1.297609	-0.391188	-0.314676
Zn2	Zn	1.324804	-0.229131	-0.446852
Zn3	Zn	1.162784	-0.256353	-0.314700
Zn4	Zn	1.190016	-0.363920	-0.446809
O5	O	1.243803	-0.310148	-0.380759
O6	O	1.414051	-0.369709	-0.332218
O7	O	1.303297	-0.119904	-0.429350
O8	O	1.157890	-0.297044	-0.204093
O9	O	1.434031	-0.250647	-0.429327
O10	O	1.256946	-0.396106	-0.204075
O11	O	1.184261	-0.139904	-0.332258
O12	O	1.053562	-0.270603	-0.332216
O13	O	1.204304	-0.480375	-0.429253
O14	O	1.073570	-0.349632	-0.429275
O15	O	1.283352	-0.500409	-0.332176
O16	O	1.329703	-0.224206	-0.557450
O17	O	1.230674	-0.323235	-0.557418
C18	C	1.034309	-0.310113	-0.380744
C19	C	0.944691	-0.310113	-0.380756
C20	C	0.871909	-0.310123	-0.380758
C21	C	0.780601	-0.310142	-0.380762
C22	C	0.707826	-0.310161	-0.380769
C23	C	0.616513	-0.310179	-0.380775
C24	C	1.243832	-0.520468	-0.380707
C25	C	1.243844	-0.610093	-0.380685
C26	C	1.243854	-0.682879	-0.380667
C27	C	1.243867	-0.774194	-0.380638
C28	C	1.243880	-0.846976	-0.380610
C29	C	1.243894	-0.938296	-0.380581
C30	C	1.454115	-0.310183	-0.380775
C31	C	1.543738	-0.310198	-0.380782
C32	C	1.286117	-0.267826	-0.586113
C33	C	1.304292	-0.249747	-0.673964
C34	C	1.243809	-0.100658	-0.380754
C35	C	1.243907	-0.011079	-0.380554
C36	C	1.106056	-0.447783	-0.962949
C37	C	1.123137	-0.430770	-1.045499
C38	C	1.226319	-0.327755	-1.045467
C39	C	1.209250	-0.344763	-0.962915
C40	C	1.149117	-0.404777	-0.921663
C41	C	1.252311	-0.301757	-0.921629
C42	C	1.235240	-0.318760	-0.839085
C43	C	1.175108	-0.378770	-0.797827
C44	C	1.132046	-0.421780	-0.839119
C45	C	1.312439	-0.241739	-0.962883
C46	C	1.355500	-0.198733	-0.921597
C47	C	1.338434	-0.215740	-0.839052
C48	C	1.278302	-0.275750	-0.797794
C49	C	1.381496	-0.172729	-0.797760
C50	C	1.364425	-0.189733	-0.715216
C51	C	1.261231	-0.292753	-0.715250
C52	C	1.201347	-0.352653	-0.174604
C53	C	1.183254	-0.370766	-0.086753
H54	H	1.212271	-0.341629	-0.681661
F55	F	1.445486	-0.108856	-0.841674
F56	F	1.410249	-0.143955	-0.671274
H57	H	1.404458	-0.149867	-0.955196
H58	H	1.161205	-0.392607	-0.730615
H59	H	1.088076	-0.465805	-1.079111
F60	F	1.068053	-0.485662	-0.795211
H61	H	1.275276	-0.278890	-1.079065
H62	H	1.057096	-0.496659	-0.929360
F63	F	1.330628	-0.223666	-1.050735
