data_functionalizedCrystal
_audit_creation_method	'MofGen! by Chris Wilmer'
_symmetry_space_group_name_H-M	'P1'
_symmetry_Int_Tables_number	1
_symmetry_cell_setting	triclinic
loop_
_symmetry_equiv_pos_as_xyz
  x,y,z
_cell_length_a	9.016244
_cell_length_b	11.792241
_cell_length_c	11.792241
_cell_angle_alpha	95.806584
_cell_angle_beta	89.991995
_cell_angle_gamma	89.992774
loop_
_atom_site_label
_atom_site_type_symbol
_atom_site_fract_x
_atom_site_fract_y
_atom_site_fract_z
O1	O	-0.123197	-1.506896	0.155574
O2	O	0.376803	-1.006896	0.655574
O3	O	-0.123231	-1.176555	0.171607
O4	O	0.376769	-0.676555	0.671607
O5	O	-0.123203	-1.349742	-0.001580
O6	O	0.376797	-0.849742	0.498420
O7	O	-0.123225	-1.333709	0.328761
O8	O	0.376775	-0.833709	0.828761
O9	O	0.123478	-1.349753	-0.001598
O10	O	0.623478	-0.849753	0.498402
O11	O	0.123449	-1.176566	0.171589
O12	O	0.623449	-0.676566	0.671589
O13	O	0.123484	-1.506907	0.155556
O14	O	0.623484	-1.006907	0.655556
Cu15	Cu	0.145990	-1.341737	0.163571
Cu16	Cu	0.645990	-0.841737	0.663571
Cu17	Cu	-0.145738	-1.341724	0.163592
Cu18	Cu	0.354262	-0.841724	0.663592
O19	O	0.123455	-1.333720	0.328743
O20	O	0.623455	-0.833720	0.828743
C21	C	0.000105	-1.134269	0.170591
C22	C	0.500105	-0.634269	0.670591
C23	C	0.000092	-1.008255	0.167576
C24	C	0.500092	-0.508255	0.667576
N25	N	-0.350924	-1.341716	0.163599
N26	N	0.149076	-0.841716	0.663599
C27	C	0.000137	-1.348740	-0.043880
C28	C	0.500137	-0.848740	0.456120
C29	C	0.000135	-1.345726	-0.169894
C30	C	0.500135	-0.845726	0.330106
C31	C	-0.585972	-1.249185	0.256331
C32	C	-0.085972	-0.749185	0.756331
C33	C	-0.414081	-1.248830	0.256114
C34	C	0.085919	-0.748830	0.756114
C35	C	-0.413284	-1.315430	0.044915
C36	C	0.086716	-0.815430	0.544915
C37	C	-0.585229	-1.314787	0.045433
C38	C	-0.085229	-0.814787	0.545433
C39	C	-0.585431	-1.460875	0.188409
C40	C	-0.085431	-0.960875	0.688409
C41	C	-0.413477	-1.460076	0.191121
C42	C	0.086523	-0.960076	0.691121
N43	N	0.351177	-1.341755	0.163555
N44	N	0.851177	-0.841755	0.663555
C45	C	0.000145	-1.549192	0.156572
C46	C	0.500145	-1.049192	0.656572
C47	C	0.000148	-1.675206	0.159587
C48	C	0.500148	-1.175206	0.659587
C49	C	0.000135	-0.777543	0.162034
C50	C	0.500135	-0.277543	0.662034
C51	C	0.000111	-0.905928	0.165113
C52	C	0.500111	-0.405928	0.665113
C53	C	0.000110	-1.340183	-0.400606
C54	C	0.500110	-0.840183	0.099394
C55	C	0.000124	-1.343262	-0.272221
C56	C	0.500124	-0.843262	0.227779
C57	C	0.000112	-1.334721	0.371043
C58	C	0.500112	-0.834721	0.871043
C59	C	0.000104	-1.337736	0.497057
C60	C	0.500104	-0.837736	0.997057
H61	H	-0.371922	-1.264549	0.344303
H62	H	0.128078	-0.764549	0.844303
H63	H	-0.370482	-1.532215	0.128020
H64	H	0.129518	-1.032215	0.628020
Br65	Br	-0.345564	-1.493308	0.336652
Br66	Br	0.154436	-0.993308	0.836652
Br67	Br	-0.654530	-1.422847	-0.073175
Br68	Br	-0.154530	-0.922847	0.426825
H69	H	-0.626079	-1.529768	0.120768
H70	H	-0.126079	-1.029768	0.620768
Br71	Br	-0.654948	-1.274972	0.403792
Br72	Br	-0.154948	-0.774972	0.903792
H73	H	-0.625345	-1.227899	0.023689
H74	H	-0.125345	-0.727899	0.523689
Br75	Br	-0.658013	-1.102692	0.230070
Br76	Br	-0.158013	-0.602692	0.730070
H77	H	-0.372961	-1.160433	0.240140
H78	H	0.127039	-0.660433	0.740140
Br79	Br	-0.345099	-1.424771	-0.072978
Br80	Br	0.154901	-0.924771	0.427022
H81	H	-0.370221	-1.229528	0.022672
H82	H	0.129779	-0.729528	0.522672
H83	H	-0.628826	-1.486037	0.273146
H84	H	-0.128826	-0.986037	0.773146
