data_functionalizedCrystal
_audit_creation_method	'MofGen! by Chris Wilmer'
_symmetry_space_group_name_H-M	'P1'
_symmetry_Int_Tables_number	1
_symmetry_cell_setting	triclinic
loop_
_symmetry_equiv_pos_as_xyz
  x,y,z
_cell_length_a	12.759401
_cell_length_b	12.759399
_cell_length_c	12.759393
_cell_angle_alpha	90.026829
_cell_angle_beta	90.022019
_cell_angle_gamma	90.011271
loop_
_atom_site_label
_atom_site_type_symbol
_atom_site_fract_x
_atom_site_fract_y
_atom_site_fract_z
Zn1	Zn	-1.606247	0.418299	-0.594140
Zn2	Zn	-1.606146	0.594014	-0.418471
Zn3	Zn	-1.430552	0.418341	-0.418465
Zn4	Zn	-1.430539	0.593927	-0.594098
O5	O	-1.518371	0.506145	-0.506293
O6	O	-1.753254	0.441627	-0.570857
O7	O	-1.582817	0.570765	-0.271449
O8	O	-1.453906	0.271314	-0.441783
O9	O	-1.753180	0.570724	-0.441794
O10	O	-1.582988	0.271283	-0.570851
O11	O	-1.453809	0.441698	-0.271444
O12	O	-1.283529	0.441614	-0.441743
O13	O	-1.453883	0.570575	-0.741125
O14	O	-1.283519	0.570616	-0.570780
O15	O	-1.582975	0.441542	-0.741155
O16	O	-1.582803	0.741024	-0.441754
O17	O	-1.453785	0.740960	-0.570786
C18	C	-1.245403	0.506111	-0.506257
C19	C	-1.128627	0.506122	-0.506266
C20	C	-0.964008	0.438880	-0.439206
C21	C	-1.073732	0.438860	-0.439196
C22	C	-1.073792	0.573401	-0.573358
C23	C	-0.964070	0.573415	-0.573372
C24	C	-1.223672	0.314890	-0.401845
C25	C	-1.278503	0.247623	-0.334744
C26	C	-1.242840	0.231375	-0.232262
C27	C	-1.152349	0.282408	-0.196859
C28	C	-1.097523	0.349683	-0.263953
C29	C	-1.133184	0.365912	-0.366451
C30	C	-0.814128	0.697386	-0.610712
C31	C	-0.759301	0.764667	-0.677803
C32	C	-0.794961	0.780926	-0.780287
C33	C	-0.885456	0.729910	-0.815686
C34	C	-0.940284	0.662630	-0.748596
C35	C	-0.904616	0.646369	-0.646113
C36	C	-1.518311	0.779113	-0.506289
C37	C	-1.518381	0.895889	-0.506322
C38	C	-1.518439	0.506044	-0.780327
C39	C	-1.518468	0.506001	-0.897104
C40	C	-0.792404	0.506170	-0.506317
C41	C	-0.909181	0.506156	-0.506290
C42	C	-1.585638	0.950750	-0.439215
C43	C	-1.585707	1.060474	-0.439259
C44	C	-1.451253	1.060467	-0.573518
C45	C	-1.451190	0.950745	-0.573480
C46	C	-1.709719	1.210359	-0.401889
C47	C	-1.776967	1.265223	-0.334766
C48	C	-1.793133	1.229684	-0.232254
C49	C	-1.742036	1.139282	-0.196844
C50	C	-1.674781	1.084424	-0.263962
C51	C	-1.658635	1.119961	-0.366489
C52	C	-1.327176	0.800858	-0.610839
C53	C	-1.259915	0.745997	-0.677952
C54	C	-1.243738	0.781535	-0.780465
C55	C	-1.294816	0.871940	-0.815871
C56	C	-1.362078	0.926800	-0.748758
C57	C	-1.378256	0.891256	-0.646245
C58	C	-1.518464	1.232112	-0.506339
C59	C	-1.518513	1.115335	-0.506404
C60	C	-1.451272	0.573157	-0.951951
C61	C	-1.451310	0.573118	-1.061676
C62	C	-1.585741	0.438758	-1.061694
C63	C	-1.585708	0.438803	-0.951972
C64	C	-1.413774	0.696957	-1.211616
C65	C	-1.346562	0.764104	-1.266467
C66	C	-1.244031	0.780234	-1.230847
C67	C	-1.208692	0.729201	-1.140376
C68	C	-1.275898	0.662046	-1.085531
C69	C	-1.378444	0.645936	-1.121149
C70	C	-1.623233	0.314963	-0.802030
C71	C	-1.690435	0.247802	-0.747182
C72	C	-1.792967	0.231662	-0.782801
C73	C	-1.828303	0.282676	-0.873274
C74	C	-1.761101	0.349837	-0.928122
C75	C	-1.658570	0.365979	-0.892496
C76	C	-1.518364	0.506170	-0.233326
C77	C	-1.518538	0.505917	-0.116550
H78	H	-1.118496	0.628162	-0.627971
N79	N	-1.384680	0.819158	-1.364032
H80	H	-1.380137	0.897500	-1.353613
H81	H	-1.339571	0.798011	-1.425530
H82	H	-1.497266	0.683841	-1.240619
H83	H	-0.919321	0.384108	-0.384589
N84	N	-1.865442	0.159212	-0.723646
H85	H	-1.874854	0.185885	-0.649707
H86	H	-1.935715	0.156758	-0.760022
H87	H	-1.123326	0.269183	-0.113402
N88	N	-1.658259	0.366280	-1.120874
H89	H	-1.648083	0.376438	-1.198706
H90	H	-1.641927	0.291252	-1.101696
N91	N	-1.037892	0.607604	-0.786771
H92	H	-1.052168	0.628111	-0.861876
H93	H	-1.027430	0.529273	-0.782344
N94	N	-1.799207	0.404862	-1.025707
H95	H	-1.874360	0.384448	-1.039953
H96	H	-1.794619	0.483192	-1.015236
H97	H	-1.818571	1.338828	-0.363606
N98	N	-1.938890	0.265270	-0.911704
H99	H	-1.976101	0.214986	-0.863229
H100	H	-1.977538	0.334330	-0.912852
H101	H	-1.396514	0.627868	-0.907281
H102	H	-1.023848	0.391235	-0.235128
N103	N	-1.237799	0.607018	-0.987951
H104	H	-1.295936	0.562037	-0.958608
H105	H	-1.175667	0.561422	-1.005976
H106	H	-1.661652	0.206256	-0.673519
N107	N	-1.512644	0.332403	-0.763614
H108	H	-1.473887	0.263400	-0.762480
H109	H	-1.475544	0.382734	-0.812120
N110	N	-1.301978	0.158828	-0.159885
H111	H	-1.364714	0.128969	-0.197861
H112	H	-1.254388	0.099850	-0.137069
N113	N	-1.759460	1.100959	-0.086269
H114	H	-1.809820	1.149428	-0.049124
H115	H	-1.789734	1.027842	-0.088232
H116	H	-0.750315	0.835719	-0.834908
H117	H	-1.352181	0.206071	-0.363579
N118	N	-1.417170	1.024310	-0.786947
H119	H	-1.462751	1.006268	-0.849127
H120	H	-1.462174	1.053626	-0.728813
N121	N	-1.262117	0.332226	-0.512421
H122	H	-1.335212	0.362534	-0.510574
H123	H	-1.213604	0.382509	-0.549587
N124	N	-0.923933	0.747447	-0.926221
H125	H	-0.875468	0.797807	-0.963352
H126	H	-0.925107	0.678439	-0.965009
H127	H	-0.685617	0.806209	-0.648970
H128	H	-1.125196	0.742330	-1.111389
N129	N	-0.775760	0.679976	-0.500117
H130	H	-0.710151	0.722556	-0.487851
H131	H	-0.831801	0.702541	-0.448990
H132	H	-1.189307	0.834906	-1.275515
H133	H	-1.640351	0.906089	-0.384533
H134	H	-1.340351	0.771909	-0.527366
N135	N	-1.619666	0.986928	-0.225785
H136	H	-1.640106	0.972739	-0.150654
H137	H	-1.640666	0.925396	-0.270973
N138	N	-1.865644	1.288889	-0.159863
H139	H	-1.938360	1.290815	-0.191109
H140	H	-1.868050	1.252641	-0.089555
N141	N	-1.692287	1.248683	-0.512463
H142	H	-1.761283	1.249738	-0.551274
H143	H	-1.661931	1.321766	-0.510494
H144	H	-1.396547	1.105144	-0.628194
H145	H	-1.188964	0.736858	-0.835107
N146	N	-1.277368	0.910284	-0.926437
H147	H	-1.227010	0.861812	-0.963581
H148	H	-1.346401	0.911349	-0.965175
H149	H	-1.218330	0.672380	-0.649118
