data_functionalizedCrystal
_audit_creation_method	'MofGen! by Chris Wilmer'
_symmetry_space_group_name_H-M	'P1'
_symmetry_Int_Tables_number	1
_symmetry_cell_setting	triclinic
loop_
_symmetry_equiv_pos_as_xyz
  x,y,z
_cell_length_a	14.519731
_cell_length_b	14.519709
_cell_length_c	8.140239
_cell_angle_alpha	89.995533
_cell_angle_beta	89.997185
_cell_angle_gamma	83.684499
loop_
_atom_site_label
_atom_site_type_symbol
_atom_site_fract_x
_atom_site_fract_y
_atom_site_fract_z
O1	O	1.223853	0.120983	-0.136621
O2	O	1.557187	0.454317	0.196713
O3	O	1.890520	0.787650	0.530046
O4	O	0.955379	0.135199	-0.136624
O5	O	1.288712	0.468533	0.196710
O6	O	1.622046	0.801866	0.530043
O7	O	1.096734	-0.006147	-0.136607
O8	O	1.430068	0.327187	0.196726
O9	O	1.763401	0.660520	0.530059
O10	O	1.082498	0.262329	-0.136637
O11	O	1.415831	0.595663	0.196696
O12	O	1.749165	0.928996	0.530030
O13	O	1.096726	-0.006148	0.136620
O14	O	1.430060	0.327185	0.469953
O15	O	1.763393	0.660519	0.803287
O16	O	0.955371	0.135198	0.136604
O17	O	1.288704	0.468531	0.469937
O18	O	1.622038	0.801864	0.803270
O19	O	1.223845	0.120982	0.136607
O20	O	1.557179	0.454315	0.469940
O21	O	1.890512	0.787648	0.803273
Zn22	Zn	1.089607	0.128090	0.179986
Zn23	Zn	1.422940	0.461423	0.513319
Zn24	Zn	1.756274	0.794756	0.846652
Zn25	Zn	1.089617	0.128092	-0.180003
Zn26	Zn	1.422951	0.461425	0.153331
Zn27	Zn	1.756284	0.794758	0.486664
O28	O	1.082490	0.262328	0.136590
O29	O	1.415823	0.595661	0.469924
O30	O	1.749157	0.928994	0.803257
C31	C	0.921016	0.134532	-0.000010
C32	C	1.254349	0.467866	0.333323
C33	C	1.587682	0.801199	0.666656
C34	C	0.818635	0.132536	-0.000011
C35	C	1.151969	0.465870	0.333322
C36	C	1.485302	0.799203	0.666656
C37	C	0.735491	0.130915	-0.000017
C38	C	1.068825	0.464248	0.333316
C39	C	1.402158	0.797581	0.666649
C40	C	0.631182	0.128888	-0.000018
C41	C	0.964516	0.462221	0.333316
C42	C	1.297849	0.795555	0.666649
C43	C	0.548043	0.127280	-0.000017
C44	C	0.881377	0.460613	0.333316
C45	C	1.214710	0.793946	0.666649
C46	C	0.443728	0.125253	-0.000021
C47	C	0.777061	0.458586	0.333312
C48	C	1.110395	0.791920	0.666646
C49	C	1.096067	-0.040507	0.000007
C50	C	1.429400	0.292826	0.333340
C51	C	1.762734	0.626160	0.666673
C52	C	1.094079	-0.142889	0.000008
C53	C	1.427412	0.190445	0.333341
C54	C	1.760745	0.523778	0.666674
C55	C	1.086759	-0.517785	-0.000035
C56	C	1.420093	-0.184452	0.333298
C57	C	1.753426	0.148882	0.666631
C58	C	1.088792	-0.413477	-0.000023
C59	C	1.422125	-0.080143	0.333311
C60	C	1.755459	0.253190	0.666644
C61	C	1.090419	-0.330340	-0.000012
C62	C	1.423752	0.002993	0.333321
C63	C	1.757085	0.336327	0.666654
C64	C	1.092452	-0.226025	-0.000003
C65	C	1.425785	0.107308	0.333330
C66	C	1.759118	0.440641	0.666664
C67	C	1.258209	0.121649	-0.000010
C68	C	1.591542	0.454982	0.333323
C69	C	1.924875	0.788315	0.666656
C70	C	1.360589	0.123645	-0.000021
C71	C	1.693922	0.456978	0.333313
C72	C	2.027256	0.790311	0.666646
C73	C	1.083157	0.296688	-0.000027
C74	C	1.416491	0.630022	0.333306
C75	C	1.749824	0.963355	0.666639
C76	C	1.085146	0.399070	-0.000039
C77	C	1.418479	0.732403	0.333294
C78	C	1.751812	1.065736	0.666628
N79	N	1.089607	0.128088	0.425668
N80	N	1.422940	0.461421	0.759002
N81	N	1.756273	0.794754	1.092335
N82	N	1.089625	0.128086	-0.425685
N83	N	1.422958	0.461420	-0.092352
N84	N	1.756292	0.794753	0.240981
