data_functionalizedCrystal
_audit_creation_method	'MofGen! by Chris Wilmer'
_symmetry_space_group_name_H-M	'P1'
_symmetry_Int_Tables_number	1
_symmetry_cell_setting	triclinic
loop_
_symmetry_equiv_pos_as_xyz
  x,y,z
_cell_length_a	10.654550
_cell_length_b	17.699083
_cell_length_c	9.130313
_cell_angle_alpha	89.994594
_cell_angle_beta	89.999724
_cell_angle_gamma	83.883973
loop_
_atom_site_label
_atom_site_type_symbol
_atom_site_fract_x
_atom_site_fract_y
_atom_site_fract_z
O1	O	1.665979	0.106303	-0.121693
O2	O	1.300323	0.116430	-0.121721
O3	O	1.493481	0.001243	-0.121693
O4	O	1.472820	0.221490	-0.121721
O5	O	1.493468	0.001240	0.121906
O6	O	1.300310	0.116427	0.121878
O7	O	1.665966	0.106299	0.121906
Cu8	Cu	1.483136	0.111363	0.144134
Cu9	Cu	1.483152	0.111367	-0.143949
O10	O	1.472807	0.221487	0.121878
C11	C	1.253531	0.115685	0.000076
C12	C	1.114127	0.113460	0.000066
C13	C	1.033454	0.181281	0.000061
C14	C	0.902470	0.179186	0.000087
C15	C	0.932844	0.041444	0.000115
C16	C	1.063826	0.043539	0.000100
C17	C	1.492735	-0.026960	0.000106
C18	C	1.490514	-0.110993	0.000107
C19	C	1.603894	-0.158893	0.000117
C20	C	1.601799	-0.237849	0.000104
C21	C	1.486323	-0.268904	0.000091
C22	C	1.372935	-0.220998	0.000076
C23	C	1.375030	-0.142043	0.000079
C24	C	1.364481	-0.539415	0.000064
C25	C	1.362394	-0.618376	0.000065
C26	C	1.591249	-0.635221	0.000089
C27	C	1.593345	-0.556266	0.000092
C28	C	1.479957	-0.508367	0.000069
C29	C	1.482229	-0.422753	0.000080
C30	C	1.484050	-0.354516	0.000090
C31	C	1.712757	0.107045	0.000106
C32	C	1.852161	0.109269	0.000107
C33	C	1.473554	0.249690	0.000075
C34	C	1.475775	0.333722	0.000065
N35	N	1.483135	0.111360	0.346757
N36	N	1.483164	0.111364	-0.346572
C37	C	1.568694	0.060376	0.423421
C38	C	1.568706	0.060376	0.576758
C39	C	1.397596	0.162350	0.576753
C40	C	1.397579	0.162345	0.423419
H41	H	0.891873	-0.015484	0.000152
C42	C	0.813730	0.253786	0.000075
H43	H	0.728517	0.242527	0.000104
H44	H	0.828948	0.282425	-0.084883
H45	H	0.828967	0.282427	0.085024
H46	H	1.129514	-0.011692	0.000108
H47	H	1.687377	-0.530986	0.000109
C48	C	1.715979	-0.687909	0.000097
H49	H	1.785050	-0.658105	0.000122
H50	H	1.719932	-0.719055	-0.084852
H51	H	1.719912	-0.719064	0.085055
H52	H	1.697927	-0.133614	0.000137
C53	C	1.239763	-0.486732	0.000038
H54	H	1.257541	-0.435261	0.000021
H55	H	1.192390	-0.496212	0.084978
H56	H	1.192419	-0.496213	-0.084930
H57	H	1.694125	-0.276847	0.000116
C58	C	1.235365	-0.652535	0.000032
H59	H	1.168134	-0.612700	0.000002
H60	H	1.229776	-0.682990	0.084977
H61	H	1.229813	-0.682981	-0.084931
C62	C	1.303461	0.218414	0.661079
H63	H	1.252484	0.248766	0.593456
H64	H	1.348502	0.250185	0.720901
H65	H	1.251293	0.190869	0.720888
C66	C	1.303462	0.218432	0.339083
H67	H	1.252523	0.248805	0.406699
H68	H	1.251272	0.190910	0.279283
H69	H	1.348538	0.250191	0.279252
H70	H	1.278912	-0.246289	0.000056
H71	H	1.282705	-0.103043	0.000070
H72	H	1.638357	0.018859	0.361006
C73	C	1.662818	0.004296	0.661089
H74	H	1.650569	0.011593	0.763390
H75	H	1.746597	0.012985	0.635948
H76	H	1.649330	-0.046296	0.635970
C77	C	1.088783	0.258190	0.000039
H78	H	1.021972	0.298280	0.000053
H79	H	1.139241	0.261873	-0.084915
H80	H	1.139252	0.261869	0.084993
