data_functionalizedCrystal
_audit_creation_method	'MofGen! by Chris Wilmer'
_symmetry_space_group_name_H-M	'P1'
_symmetry_Int_Tables_number	1
_symmetry_cell_setting	triclinic
loop_
_symmetry_equiv_pos_as_xyz
  x,y,z
_cell_length_a	12.811457
_cell_length_b	14.044209
_cell_length_c	11.295501
_cell_angle_alpha	94.237635
_cell_angle_beta	90.836944
_cell_angle_gamma	91.404568
loop_
_atom_site_label
_atom_site_type_symbol
_atom_site_fract_x
_atom_site_fract_y
_atom_site_fract_z
O1	O	1.401002	-0.124689	0.052265
O2	O	1.098976	-0.140464	0.019645
O3	O	1.245456	0.005399	0.035482
O4	O	1.254523	-0.270552	0.036428
O5	O	1.231858	0.016763	0.232066
O6	O	1.085378	-0.129100	0.216228
O7	O	1.387405	-0.113325	0.248849
Cu8	Cu	1.235150	-0.120175	0.250488
Cu9	Cu	1.251231	-0.133614	0.018005
O10	O	1.240925	-0.259188	0.233011
C11	C	1.053291	-0.134246	0.113737
C12	C	0.937421	-0.132640	0.101223
C13	C	0.704862	-0.117214	0.292048
C14	C	0.595992	-0.115703	0.280296
C15	C	0.610808	-0.128103	0.065969
C16	C	0.719678	-0.129613	0.077721
C17	C	0.766701	-0.124169	0.190764
C18	C	0.875574	-0.125686	0.202515
C19	C	0.890388	-0.138079	-0.011811
C20	C	0.781517	-0.136569	-0.023563
C21	C	1.234688	0.046387	0.133347
C22	C	1.222851	0.151586	0.132074
C23	C	1.201210	0.344198	0.129727
C24	C	1.285173	0.402022	0.138794
C25	C	1.273132	0.509198	0.137488
C26	C	1.213249	0.237012	0.131033
C27	C	1.433090	-0.119542	0.154754
C28	C	1.548961	-0.121149	0.167260
N29	N	1.223847	-0.110722	0.414005
C30	C	1.251694	0.699825	0.135153
C31	C	1.263537	0.594628	0.136447
N32	N	1.262541	-0.143059	-0.145510
C33	C	1.343899	-0.211151	0.676249
C34	C	1.335365	-0.203999	0.799991
C35	C	1.198250	-0.089264	0.785236
C36	C	1.206784	-0.096415	0.661493
C37	C	1.279610	-0.157362	0.607004
C38	C	1.288139	-0.164517	0.483258
C39	C	1.151029	-0.049777	0.468506
C40	C	1.142495	-0.042626	0.592249
H41	H	0.743149	-0.112794	0.384092
H42	H	1.120289	0.375183	0.120986
H43	H	1.347433	-0.214147	0.438895
H44	H	1.083205	0.006998	0.636631
H45	H	1.403188	-0.260785	0.631882
H46	H	1.098675	-0.005983	0.412113
C47	C	0.985260	-0.201632	0.339631
C48	C	0.927263	-0.119700	0.326769
H49	H	1.017162	-0.197934	0.416346
H50	H	1.037670	-0.205985	0.281002
H51	H	0.940273	-0.256541	0.330285
H52	H	0.972252	-0.064792	0.336106
H53	H	0.874847	-0.115337	0.385415
H54	H	0.743216	-0.140996	-0.115600
H55	H	1.138968	-0.039634	0.829624
H56	H	1.366106	0.371030	0.147454
C57	C	0.592287	-0.103607	0.493327
C58	C	0.528017	-0.108063	0.391630
H59	H	0.550320	-0.098895	0.562061
H60	H	0.637867	-0.049209	0.493760
H61	H	0.632251	-0.159704	0.493136
H62	H	0.488059	-0.051962	0.391816
H63	H	0.482419	-0.162466	0.391197
H64	H	1.387717	-0.247799	0.856366
C65	C	0.450490	-0.131280	-0.047198
C66	C	0.559107	-0.134080	-0.058280
H67	H	0.418574	-0.134975	-0.123906
H68	H	0.432431	-0.073242	-0.004789
H69	H	0.426800	-0.183737	-0.005399
H70	H	0.582798	-0.081619	-0.100072
H71	H	0.577174	-0.192124	-0.100708
H72	H	0.940749	-0.143749	-0.094284
