data_functionalizedCrystal
_audit_creation_method	'MofGen! by Chris Wilmer'
_symmetry_space_group_name_H-M	'P1'
_symmetry_Int_Tables_number	1
_symmetry_cell_setting	triclinic
loop_
_symmetry_equiv_pos_as_xyz
  x,y,z
_cell_length_a	10.540495
_cell_length_b	9.065218
_cell_length_c	9.016244
_cell_angle_alpha	89.999657
_cell_angle_beta	89.991052
_cell_angle_gamma	84.761696
loop_
_atom_site_label
_atom_site_type_symbol
_atom_site_fract_x
_atom_site_fract_y
_atom_site_fract_z
O1	O	-1.686693	-0.207617	0.123389
O2	O	-1.317346	-0.227276	0.123380
O3	O	-1.509654	-0.002765	0.123382
O4	O	-1.494385	-0.432129	0.123387
O5	O	-1.509625	-0.002770	-0.123299
O6	O	-1.317317	-0.227281	-0.123301
O7	O	-1.686665	-0.207622	-0.123291
Cu8	Cu	-1.501988	-0.217452	-0.145820
Cu9	Cu	-1.502022	-0.217446	0.145908
O10	O	-1.494357	-0.432134	-0.123293
C11	C	-1.270022	-0.225818	0.000038
C12	C	-1.129055	-0.221448	0.000034
N13	N	-1.501974	-0.217455	-0.351006
C14	C	-1.058943	-0.382011	0.000038
C15	C	-0.912312	-0.377519	0.000602
C16	C	-0.936409	-0.134142	0.140630
C17	C	-1.082971	-0.139772	0.140744
C18	C	-1.083332	-0.137401	-0.139788
C19	C	-0.936346	-0.135864	-0.141631
C20	C	-1.508172	0.052212	0.000044
C21	C	-1.503784	0.216032	0.000051
C22	C	-0.733986	-0.209100	0.000048
C23	C	-0.874947	-0.213528	0.000045
C24	C	-1.495838	-0.487110	0.000048
C25	C	-1.500226	-0.650930	0.000051
C26	C	-1.398783	-0.337151	-0.586040
C27	C	-1.399014	-0.337600	-0.414149
C28	C	-1.634829	-0.252455	-0.413341
C29	C	-1.634266	-0.253302	-0.585286
C30	C	-1.473626	-0.062368	-0.585553
C31	C	-1.470585	-0.063373	-0.413599
N32	N	-1.502046	-0.217431	0.351094
H33	H	-0.869867	-0.439959	-0.100152
H34	H	-1.111422	-0.197743	0.246237
H35	H	-1.659039	-0.366431	-0.625372
H36	H	-0.870821	-0.439688	0.101973
N37	N	-1.341122	-0.028174	-0.359683
H38	H	-1.283573	-0.016003	-0.447568
H39	H	-1.303022	-0.111706	-0.294936
N40	N	-1.563557	0.060309	-0.356697
H41	H	-1.559227	0.063747	-0.244860
H42	H	-1.652677	0.042124	-0.388472
H43	H	-1.087712	-0.447143	-0.100760
H44	H	-1.300318	-0.316544	-0.372008
H45	H	-0.913650	-0.013694	0.145459
N46	N	-0.882329	-0.212760	-0.279383
H47	H	-0.787047	-0.207593	-0.282215
H48	H	-0.922261	-0.162307	-0.370081
H49	H	-1.299779	-0.316420	-0.627436
H50	H	-1.089419	-0.446185	0.100707
H51	H	-1.548910	0.026740	-0.626204
N52	N	-1.125291	-0.208185	-0.280986
H53	H	-1.174372	-0.295460	-0.255740
H54	H	-1.047945	-0.243099	-0.341981
N55	N	-0.880306	-0.206249	0.279753
H56	H	-0.815092	-0.290321	0.252035
H57	H	-0.950319	-0.245955	0.340247
H58	H	-0.911719	-0.016330	-0.150541
N59	N	-1.145997	0.016449	0.148685
H60	H	-1.078537	0.088663	0.152102
H61	H	-1.200316	0.027978	0.240971
H62	H	-1.130151	-0.018970	-0.141146
H63	H	-1.416873	-0.451544	-0.629231
H64	H	-1.417340	-0.452643	-0.373000
N65	N	-1.739217	-0.142306	-0.640417
H66	H	-1.701258	-0.064815	-0.702695
H67	H	-1.785628	-0.093131	-0.552951
N68	N	-1.739142	-0.140123	-0.359145
H69	H	-1.823686	-0.164786	-0.400571
H70	H	-1.721098	-0.038024	-0.393345
H71	H	-1.660141	-0.364305	-0.370261
H72	H	-1.378764	-0.029052	-0.629004
