data_functionalizedCrystal
_audit_creation_method	'MofGen! by Chris Wilmer'
_symmetry_space_group_name_H-M	'P1'
_symmetry_Int_Tables_number	1
_symmetry_cell_setting	triclinic
loop_
_symmetry_equiv_pos_as_xyz
  x,y,z
_cell_length_a	17.038272
_cell_length_b	16.109301
_cell_length_c	14.586319
_cell_angle_alpha	90.000787
_cell_angle_beta	89.995924
_cell_angle_gamma	92.713482
loop_
_atom_site_label
_atom_site_type_symbol
_atom_site_fract_x
_atom_site_fract_y
_atom_site_fract_z
O1	O	0.100495	-1.110268	-0.076183
O2	O	0.600495	-0.610268	0.423817
O3	O	0.113001	-0.869094	-0.076198
O4	O	0.613001	-0.369094	0.423802
O5	O	-0.007067	-0.988248	-0.076183
O6	O	0.492933	-0.488248	0.423817
O7	O	0.220564	-0.991114	-0.076198
O8	O	0.720564	-0.491114	0.423802
O9	O	-0.007069	-0.988239	0.076298
O10	O	0.492931	-0.488239	0.576298
O11	O	0.113000	-0.869085	0.076283
O12	O	0.613000	-0.369085	0.576283
O13	O	0.100493	-1.110259	0.076298
O14	O	0.600493	-0.610259	0.576298
Cu15	Cu	0.106746	-0.989671	0.090213
Cu16	Cu	0.606746	-0.489671	0.590213
Cu17	Cu	0.106748	-0.989682	-0.090113
Cu18	Cu	0.606748	-0.489682	0.409887
O19	O	0.220562	-0.991105	0.076283
O20	O	0.720562	-0.491105	0.576283
C21	C	0.112494	-0.838079	0.000041
C22	C	0.612494	-0.338079	0.500041
C23	C	0.110975	-0.745676	0.000035
C24	C	0.610975	-0.245676	0.500035
C25	C	-0.036196	-0.985636	0.000057
C26	C	0.463804	-0.485636	0.500057
C27	C	-0.122989	-0.977857	0.000056
C28	C	0.377011	-0.477857	0.500056
C29	C	0.101001	-1.141274	0.000057
C30	C	0.601001	-0.641274	0.500057
C31	C	0.102519	-1.233677	0.000057
C32	C	0.602519	-0.733677	0.500057
C33	C	-0.173104	-1.049277	0.000062
C34	C	0.326896	-0.549277	0.500062
C35	C	-0.254654	-1.041963	0.000052
C36	C	0.245346	-0.541963	0.500052
C37	C	-0.286089	-0.963228	0.000044
C38	C	0.213911	-0.463228	0.500044
C39	C	-0.235967	-0.891802	0.000036
C40	C	0.264033	-0.391802	0.500036
C41	C	-0.154418	-0.899116	0.000039
C42	C	0.345582	-0.399116	0.500039
C43	C	-0.531846	-0.937385	0.000030
C44	C	-0.031846	-0.437385	0.500030
C45	C	-0.613402	-0.930076	0.000031
C46	C	-0.113402	-0.430076	0.500031
C47	C	-0.632083	-1.080238	0.000045
C48	C	-0.132083	-0.580238	0.500045
C49	C	-0.550532	-1.087546	0.000053
C50	C	-0.050532	-0.587546	0.500053
C51	C	-0.500418	-1.016120	0.000040
C52	C	-0.000418	-0.516120	0.500040
C53	C	-0.369446	-0.955749	0.000038
C54	C	0.130554	-0.455749	0.500038
C55	C	-0.417062	-1.023599	0.000040
C56	C	0.082938	-0.523599	0.500040
C57	C	0.249691	-0.993717	0.000041
C58	C	0.749691	-0.493717	0.500041
C59	C	0.336484	-1.001496	0.000036
C60	C	0.836484	-0.501496	0.500036
N61	N	0.106744	-0.989670	0.217045
N62	N	0.606744	-0.489670	0.717045
C63	C	0.178690	-0.528212	0.000042
C64	C	0.678690	-0.028212	0.500042
C65	C	0.177257	-0.441390	0.000048
C66	C	0.677257	0.058610	0.500048
C67	C	0.034799	-0.451147	0.000053
C68	C	0.534799	0.048853	0.500053
C69	C	0.036233	-0.537968	0.000054
C70	C	0.536233	-0.037968	0.500054
C71	C	0.108181	-0.576498	0.000043
C72	C	0.608181	-0.076498	0.500043
C73	C	0.105314	-0.402855	0.000049
C74	C	0.605314	0.097145	0.500049
C75	C	0.103759	-0.308719	0.000055
C76	C	0.603759	0.191281	0.500055
C77	C	0.109736	-0.670640	0.000039
C78	C	0.609736	-0.170640	0.500039
N79	N	0.106744	-0.989689	-0.216945
N80	N	0.606744	-0.489689	0.283055
C81	C	0.053596	-1.042451	0.452058
C82	C	0.553596	-0.542451	0.952058
C83	C	0.053594	-1.042453	0.548039
C84	C	0.553594	-0.542453	1.048039
C85	C	0.159895	-0.936902	0.548036
C86	C	0.659895	-0.436902	1.048036
C87	C	0.159893	-0.936896	0.452056
C88	C	0.659893	-0.436896	0.952056
C89	C	0.106744	-0.989675	0.404070
C90	C	0.606744	-0.489675	0.904070
C91	C	0.106744	-0.989684	0.596030
C92	C	0.606744	-0.489684	1.096030
C93	C	0.106743	-0.989686	0.700098
C94	C	0.606743	-0.489686	1.200098
C95	C	0.106744	-0.989672	0.299996
C96	C	0.606744	-0.489672	0.799996
H97	H	-0.147517	-1.113392	0.000074
H98	H	0.352483	-0.613392	0.500074
H99	H	-0.638991	-0.865956	0.000039
H100	H	-0.138991	-0.365956	0.500039
Cl101	Cl	-0.055644	-0.402703	0.000060
Cl102	Cl	0.444356	0.097297	0.500060
Cl103	Cl	0.269138	-0.576647	0.000035
Cl104	Cl	0.769138	-0.076647	0.500035
H105	H	-0.295455	-1.100122	0.000059
H106	H	0.204545	-0.600122	0.500059
H107	H	0.234672	-0.402079	0.000048
H108	H	0.734672	0.097921	0.500048
Cl109	Cl	-0.052414	-0.598674	0.000063
Cl110	Cl	0.447586	-0.098674	0.500063
H111	H	0.010318	-1.085425	0.412989
H112	H	0.510318	-0.585425	0.912989
H113	H	0.010315	-1.085426	0.587108
H114	H	0.510315	-0.585426	1.087108
H115	H	0.203169	-0.893932	0.587116
H116	H	0.703169	-0.393932	1.087116
Cl117	Cl	-0.377543	-1.122577	0.000045
Cl118	Cl	0.122457	-0.622577	0.500045
H119	H	-0.261567	-0.827693	0.000024
H120	H	0.238433	-0.327693	0.500024
H121	H	-0.524945	-1.151661	0.000059
H122	H	-0.024945	-0.651661	0.500059
Cl123	Cl	-0.695087	-1.170025	0.000058
Cl124	Cl	-0.195087	-0.670025	0.500058
Cl125	Cl	-0.468856	-0.847591	0.000012
Cl126	Cl	0.031144	-0.347591	0.500012
Cl127	Cl	0.226709	-0.870541	0.391722
Cl128	Cl	0.726709	-0.370541	0.891722
H129	H	-0.113615	-0.840958	0.000035
H130	H	0.386385	-0.340958	0.500035
H131	H	-0.395049	-0.891642	0.000034
H132	H	0.104951	-0.391642	0.500034
