data_functionalizedCrystal
_audit_creation_method	'MofGen! by Chris Wilmer'
_symmetry_space_group_name_H-M	'P1'
_symmetry_Int_Tables_number	1
_symmetry_cell_setting	triclinic
loop_
_symmetry_equiv_pos_as_xyz
  x,y,z
_cell_length_a	21.395364
_cell_length_b	18.050590
_cell_length_c	18.050582
_cell_angle_alpha	90.024044
_cell_angle_beta	90.015777
_cell_angle_gamma	90.014317
loop_
_atom_site_label
_atom_site_type_symbol
_atom_site_fract_x
_atom_site_fract_y
_atom_site_fract_z
Zn1	Zn	0.957858	-0.295785	0.419908
Zn2	Zn	0.957799	-0.419970	0.295716
Zn3	Zn	0.853089	-0.295789	0.295732
Zn4	Zn	0.853064	-0.419929	0.419865
O5	O	0.905452	-0.357868	0.357805
O6	O	1.045528	-0.312274	0.403445
O7	O	0.943894	-0.403516	0.191794
O8	O	0.867022	-0.191864	0.312229
O9	O	1.045484	-0.403512	0.312202
O10	O	0.943995	-0.191861	0.403460
O11	O	0.866964	-0.312281	0.191805
O12	O	0.765408	-0.312241	0.312187
O13	O	0.866980	-0.403442	0.523795
O14	O	0.765390	-0.403446	0.403387
O15	O	0.943971	-0.312234	0.523827
O16	O	0.943870	-0.523889	0.312160
O17	O	0.866922	-0.523859	0.403371
C18	C	0.742665	-0.357840	0.357784
C19	C	0.673024	-0.357846	0.357793
C20	C	0.171249	-0.310473	0.405403
C21	C	0.236685	-0.310467	0.405403
C22	C	0.269385	-0.357891	0.357822
C23	C	0.236645	-0.405337	0.310251
C24	C	0.171211	-0.405347	0.310257
C25	C	0.373031	-0.363649	0.290891
C26	C	0.438464	-0.363634	0.290883
C27	C	0.471206	-0.357866	0.357801
C28	C	0.438507	-0.352098	0.424729
C29	C	0.373073	-0.352107	0.424736
C30	C	0.340338	-0.357887	0.357810
C31	C	0.574891	-0.310421	0.405373
C32	C	0.640328	-0.310421	0.405374
C33	C	0.640286	-0.405287	0.310215
C34	C	0.574851	-0.405291	0.310220
C35	C	0.542157	-0.357854	0.357799
C36	C	0.905404	-0.550821	0.357776
C37	C	0.905441	-0.633366	0.357788
C38	C	0.947372	-0.832806	0.308256
C39	C	0.962674	-0.882146	0.376036
C40	C	0.905477	-0.784497	0.357817
C41	C	0.890239	-0.882239	0.290068
C42	C	0.905512	-0.930482	0.357840
C43	C	0.920807	-0.832749	0.425633
C44	C	0.848346	-0.832838	0.339619
C45	C	0.863626	-0.882155	0.407446
C46	C	0.905458	-0.700398	0.357803
C47	C	0.905531	-1.014578	0.357862
C48	C	1.068876	-0.357898	0.357826
C49	C	1.138517	-0.357910	0.357835
C50	C	0.905480	-0.357833	0.551511
C51	C	0.905491	-0.357818	0.634057
C52	C	0.905518	-0.164163	0.357851
C53	C	0.905546	-0.081617	0.357871
C54	C	0.905462	-0.357850	0.164853
C55	C	0.905571	-0.357656	0.082308
C56	C	0.863662	-0.407336	0.882865
C57	C	0.848348	-0.339597	0.833478
C58	C	0.905544	-0.357709	0.931177
C59	C	0.920802	-0.425498	0.833482
C60	C	0.905516	-0.357766	0.785192
C61	C	0.890201	-0.289934	0.882878
C62	C	0.962681	-0.375880	0.882886
C63	C	0.947389	-0.308095	0.833521
C64	C	0.905558	-0.357677	1.015276
C65	C	0.905502	-0.357790	0.701095
H66	H	0.263341	-0.271835	0.444138
C67	C	0.938591	-0.501896	0.726628
C68	C	0.938243	-0.502855	0.804194
H69	H	0.949351	-0.549657	0.708551
H70	H	0.968378	-0.466728	0.709738
H71	H	0.898276	-0.488666	0.708993
H72	H	0.978560	-0.516080	0.821830
H73	H	0.908455	-0.538036	0.821091
H74	H	0.263274	-0.443952	0.271512
C75	C	0.299427	-0.307235	0.207838
C76	C	0.337046	-0.369985	0.217327
H77	H	0.277210	-0.311150	0.162426
H78	H	0.324960	-0.264191	0.206949
H79	H	0.270591	-0.303815	0.247700
H80	H	0.365885	-0.373402	0.177468
H81	H	0.311511	-0.413040	0.218210
H82	H	1.010999	-0.391250	0.904605
H83	H	0.465083	-0.368327	0.236386
C84	C	0.816733	-0.463734	0.989691
C85	C	0.815833	-0.463885	0.912125
H86	H	0.787206	-0.498645	1.007755
H87	H	0.806281	-0.415725	1.007321
H88	H	0.857320	-0.476741	1.006600
H89	H	0.775246	-0.450872	0.895216
H90	H	0.826280	-0.511905	0.894488
C91	C	0.995141	-0.252325	0.726879
C92	C	0.995186	-0.251412	0.804447
H93	H	1.024649	-0.217333	0.708930
H94	H	0.954669	-0.239845	0.709220
H95	H	1.006086	-0.300415	0.709882
H96	H	0.984236	-0.203323	0.821444
H97	H	1.035666	-0.263887	0.822113
H98	H	0.144634	-0.271849	0.444148
H99	H	0.144560	-0.443977	0.271521
H100	H	0.465163	-0.347397	0.479220
H101	H	0.548270	-0.271795	0.444114
C102	C	0.379679	-0.340715	0.557039
C103	C	0.337129	-0.345778	0.498300
H104	H	0.357487	-0.336815	0.602454
H105	H	0.405200	-0.298142	0.550588
H106	H	0.405200	-0.383763	0.557917
H107	H	0.311611	-0.302728	0.497418
H108	H	0.311597	-0.388356	0.504752
C109	C	0.742704	-0.306723	0.863965
C110	C	0.783105	-0.318881	0.804171
H111	H	0.702424	-0.293943	0.845871
H112	H	0.758418	-0.267453	0.893656
H113	H	0.739864	-0.350532	0.892913
H114	H	0.785948	-0.275070	0.775226
H115	H	0.767387	-0.358154	0.774468
C116	C	1.025128	-0.863371	0.217359
C117	C	0.995214	-0.803548	0.251735
H118	H	1.054666	-0.845305	0.182473
H119	H	0.994997	-0.893078	0.192610
H120	H	1.046015	-0.892292	0.253683
H121	H	0.974323	-0.774629	0.215412
H122	H	1.025349	-0.773828	0.276485
H123	H	1.011003	-0.903806	0.391443
H124	H	0.666977	-0.271794	0.444115
C125	C	0.949067	-0.863387	0.550661
C126	C	0.938304	-0.803534	0.503016
H127	H	0.959866	-0.845349	0.598433
H128	H	0.982330	-0.892697	0.531826
H129	H	0.912298	-0.892699	0.554045
H130	H	0.975075	-0.774225	0.499628
H131	H	0.905038	-0.774212	0.521855
H132	H	0.666910	-0.443906	0.271479
C133	C	0.818333	-0.954296	0.217615
C134	C	0.872816	-0.911587	0.212712
H135	H	0.807584	-0.972415	0.169858
H136	H	0.785196	-0.924609	0.236173
H137	H	0.825273	-0.994836	0.250132
H138	H	0.865875	-0.871044	0.180199
H139	H	0.905960	-0.941275	0.194143
H140	H	0.828211	-0.903686	0.449416
H141	H	0.548200	-0.443916	0.271482
C142	C	0.872821	-0.213236	0.989608
C143	C	0.872676	-0.212555	0.912038
H144	H	0.861995	-0.165468	1.007609
H145	H	0.913289	-0.226193	1.006932
H146	H	0.843267	-0.248501	1.006888
H147	H	0.902234	-0.177293	0.894758
H148	H	0.832203	-0.199589	0.894707
C149	C	0.739128	-0.829572	0.369983
C150	C	0.783122	-0.803571	0.318794
H151	H	0.698861	-0.811506	0.357116
H152	H	0.749911	-0.812651	0.418153
H153	H	0.738768	-0.882194	0.369385
H154	H	0.783485	-0.750948	0.319395
H155	H	0.772336	-0.820487	0.270612
