data_functionalizedCrystal
_audit_creation_method	'MofGen! by Chris Wilmer'
_symmetry_space_group_name_H-M	'P1'
_symmetry_Int_Tables_number	1
_symmetry_cell_setting	triclinic
loop_
_symmetry_equiv_pos_as_xyz
  x,y,z
_cell_length_a	16.625545
_cell_length_b	16.625547
_cell_length_c	16.625525
_cell_angle_alpha	90.067621
_cell_angle_beta	89.907739
_cell_angle_gamma	89.975256
loop_
_atom_site_label
_atom_site_type_symbol
_atom_site_fract_x
_atom_site_fract_y
_atom_site_fract_z
Zn1	Zn	-0.320507	-1.232986	-0.456051
Zn2	Zn	-0.070507	-0.982986	-0.206051
Zn3	Zn	0.179493	-0.732986	0.043949
Zn4	Zn	0.429493	-0.482986	0.293949
Zn5	Zn	-0.455501	-1.232787	-0.321219
Zn6	Zn	-0.205501	-0.982787	-0.071219
Zn7	Zn	0.044499	-0.732787	0.178781
Zn8	Zn	0.294499	-0.482787	0.428781
Zn9	Zn	-0.320684	-1.098053	-0.321216
Zn10	Zn	-0.070684	-0.848053	-0.071216
Zn11	Zn	0.179316	-0.598053	0.178784
Zn12	Zn	0.429316	-0.348053	0.428784
Zn13	Zn	-0.455299	-1.098111	-0.455994
Zn14	Zn	-0.205299	-0.848111	-0.205994
Zn15	Zn	0.044701	-0.598111	0.044006
Zn16	Zn	0.294701	-0.348111	0.294006
O17	O	-0.387998	-1.165484	-0.388620
O18	O	-0.137998	-0.915484	-0.138620
O19	O	0.112002	-0.665484	0.111380
O20	O	0.362002	-0.415484	0.361380
O21	O	-0.338424	-1.345792	-0.438191
O22	O	-0.088424	-1.095792	-0.188191
O23	O	0.161576	-0.845792	0.061809
O24	O	0.411576	-0.595792	0.311809
O25	O	-0.437776	-1.214806	-0.208386
O26	O	-0.187776	-0.964806	0.041614
O27	O	0.062224	-0.714806	0.291614
O28	O	0.312224	-0.464806	0.541614
O29	O	-0.207828	-1.116011	-0.339125
O30	O	0.042172	-0.866011	-0.089125
O31	O	0.292172	-0.616011	0.160875
O32	O	0.542172	-0.366011	0.410875
O33	O	-0.437604	-1.345646	-0.339130
O34	O	-0.187604	-1.095646	-0.089130
O35	O	0.062396	-0.845646	0.160870
O36	O	0.312396	-0.595646	0.410870
O37	O	-0.207698	-1.215146	-0.438188
O38	O	0.042302	-0.965146	-0.188188
O39	O	0.292302	-0.715146	0.061812
O40	O	0.542302	-0.465146	0.311812
O41	O	-0.338727	-1.115817	-0.208384
O42	O	-0.088727	-0.865817	0.041616
O43	O	0.161273	-0.615817	0.291616
O44	O	0.411273	-0.365817	0.541616
O45	O	-0.338531	-0.985228	-0.339070
O46	O	-0.088531	-0.735228	-0.089070
O47	O	0.161469	-0.485228	0.160930
O48	O	0.411469	-0.235228	0.410930
O49	O	-0.437260	-1.116111	-0.568834
O50	O	-0.187260	-0.866111	-0.318834
O51	O	0.062740	-0.616111	-0.068834
O52	O	0.312740	-0.366111	0.181166
O53	O	-0.437432	-0.985271	-0.438090
O54	O	-0.187432	-0.735271	-0.188090
O55	O	0.062568	-0.485271	0.061910
O56	O	0.312568	-0.235271	0.311910
O57	O	-0.338229	-1.215203	-0.568876
O58	O	-0.088229	-0.965203	-0.318876
O59	O	0.161771	-0.715203	-0.068876
O60	O	0.411771	-0.465203	0.181124
O61	O	-0.568307	-1.214863	-0.339074
O62	O	-0.318307	-0.964863	-0.089074
O63	O	-0.068307	-0.714863	0.160926
O64	O	0.181693	-0.464863	0.410926
O65	O	-0.568159	-1.115917	-0.438092
O66	O	-0.318159	-0.865917	-0.188092
O67	O	-0.068159	-0.615917	0.061908
O68	O	0.181841	-0.365917	0.311908
C69	C	-0.597489	-1.165397	-0.388594
C70	C	-0.347489	-0.915397	-0.138594
C71	C	-0.097489	-0.665397	0.111406
C72	C	0.152511	-0.415397	0.361406
C73	C	-0.687110	-1.165433	-0.388611
C74	C	-0.437110	-0.915433	-0.138611
C75	C	-0.187110	-0.665433	0.111389
C76	C	0.062890	-0.415433	0.361389
C77	C	-0.387979	-0.955993	-0.388574
C78	C	-0.137979	-0.705993	-0.138574
C79	C	0.112021	-0.455993	0.111426
C80	C	0.362021	-0.205993	0.361426
C81	C	-0.387991	-0.866372	-0.388573
C82	C	-0.137991	-0.616372	-0.138573
C83	C	0.112009	-0.366372	0.111427
C84	C	0.362009	-0.116372	0.361427
C85	C	-0.759892	-1.165464	-0.388627
C86	C	-0.509892	-0.915464	-0.138627
C87	C	-0.259892	-0.665464	0.111373
C88	C	-0.009892	-0.415464	0.361373
C89	C	-0.851201	-1.165511	-0.388644
C90	C	-0.601201	-0.915511	-0.138644
C91	C	-0.351201	-0.665511	0.111356
C92	C	-0.101201	-0.415511	0.361356
C93	C	-0.923977	-1.165553	-0.388655
C94	C	-0.673977	-0.915553	-0.138655
C95	C	-0.423977	-0.665553	0.111345
C96	C	-0.173977	-0.415553	0.361345
C97	C	-1.015291	-1.165599	-0.388671
C98	C	-0.765291	-0.915599	-0.138671
C99	C	-0.515291	-0.665599	0.111329
C100	C	-0.265291	-0.415599	0.361329
C101	C	-0.387992	-0.793590	-0.388580
C102	C	-0.137992	-0.543590	-0.138580
C103	C	0.112008	-0.293590	0.111420
C104	C	0.362008	-0.043590	0.361420
C105	C	-0.387995	-0.702281	-0.388597
C106	C	-0.137995	-0.452281	-0.138597
C107	C	0.112005	-0.202281	0.111403
C108	C	0.362005	0.047719	0.361403
C109	C	-0.388001	-0.629505	-0.388614
C110	C	-0.138001	-0.379505	-0.138614
C111	C	0.111999	-0.129505	0.111386
C112	C	0.361999	0.120495	0.361386
C113	C	-0.388005	-0.538191	-0.388630
C114	C	-0.138005	-0.288191	-0.138630
C115	C	0.111995	-0.038191	0.111370
C116	C	0.361995	0.211809	0.361370
C117	C	-0.177689	-1.165594	-0.388663
C118	C	0.072311	-0.915594	-0.138663
C119	C	0.322311	-0.665594	0.111337
C120	C	0.572311	-0.415594	0.361337
C121	C	-0.088068	-1.165641	-0.388681
C122	C	0.161932	-0.915641	-0.138681
C123	C	0.411932	-0.665641	0.111319
C124	C	0.661932	-0.415641	0.361319
C125	C	-0.387702	-1.165686	-0.598929
C126	C	-0.137702	-0.915686	-0.348929
C127	C	0.112298	-0.665686	-0.098929
C128	C	0.362298	-0.415686	0.151071
C129	C	-0.387576	-1.165771	-0.688551
C130	C	-0.137576	-0.915771	-0.438551
C131	C	0.112424	-0.665771	-0.188551
C132	C	0.362424	-0.415771	0.061449
C133	C	-0.388014	-0.375793	-0.388657
C134	C	-0.138014	-0.125793	-0.138657
C135	C	0.111986	0.124207	0.111343
C136	C	0.361986	0.374207	0.361343
C137	C	-0.388012	-0.465414	-0.388648
C138	C	-0.138012	-0.215414	-0.138648
C139	C	0.111988	0.034586	0.111352
C140	C	0.361988	0.284586	0.361352
C141	C	-0.388234	-1.165330	-0.179129
C142	C	-0.138234	-0.915330	0.070871
C143	C	0.111766	-0.665330	0.320871
C144	C	0.361766	-0.415330	0.570871
C145	C	-0.388133	-1.165400	-0.089508
C146	C	-0.138133	-0.915400	0.160492
C147	C	0.111867	-0.665400	0.410492
C148	C	0.361867	-0.415400	0.660492
C149	C	-0.388038	-1.165471	-0.016725
C150	C	-0.138038	-0.915471	0.233275
C151	C	0.111962	-0.665471	0.483275
C152	C	0.361962	-0.415471	0.733275
C153	C	-0.387912	-1.165557	0.074583
C154	C	-0.137912	-0.915557	0.324583
C155	C	0.112088	-0.665557	0.574583
C156	C	0.362088	-0.415557	0.824583
C157	C	-0.387807	-1.165622	0.147359
C158	C	-0.137807	-0.915622	0.397359
C159	C	0.112193	-0.665622	0.647359
C160	C	0.362193	-0.415622	0.897359
C161	C	-0.387681	-1.165707	0.238673
C162	C	-0.137681	-0.915707	0.488673
C163	C	0.112319	-0.665707	0.738673
C164	C	0.362319	-0.415707	0.988673
