data_functionalizedCrystal
_audit_creation_method	'MofGen! by Chris Wilmer'
_symmetry_space_group_name_H-M	'P1'
_symmetry_Int_Tables_number	1
_symmetry_cell_setting	triclinic
loop_
_symmetry_equiv_pos_as_xyz
  x,y,z
_cell_length_a	20.875444
_cell_length_b	14.560438
_cell_length_c	20.875641
_cell_angle_alpha	90.002779
_cell_angle_beta	64.273268
_cell_angle_gamma	61.742565
loop_
_atom_site_label
_atom_site_type_symbol
_atom_site_fract_x
_atom_site_fract_y
_atom_site_fract_z
Zr1	Zr	0.664074	0.936630	-0.047782
O2	O	0.784807	0.803827	-0.140507
O3	O	0.538544	0.970994	-0.023810
O4	O	0.657158	0.986276	-0.146926
O5	O	0.673321	0.783710	0.084790
O6	O	0.657160	1.137414	-0.146925
O7	O	0.666193	0.788545	-0.017391
O8	O	0.444981	1.110077	0.073308
O9	O	0.885500	0.811047	-0.135442
O10	O	0.591955	1.106111	-0.008205
O11	O	0.597273	0.989710	0.068050
O12	O	0.736926	1.007702	-0.076903
O13	O	0.742244	0.891301	-0.000647
Zr14	Zr	0.675446	1.169966	0.115188
Zr15	Zr	0.664077	1.177678	-0.047780
Zr16	Zr	0.675443	0.928918	0.115185
Zr17	Zr	0.824668	0.948144	-0.039704
Zr18	Zr	0.514852	1.158452	0.107109
O19	O	0.800976	1.135602	0.091216
O20	O	0.784811	1.146567	-0.140503
O21	O	0.800972	0.792863	0.091212
O22	O	0.554713	1.302769	0.207913
O23	O	0.538548	1.313733	-0.023806
O24	O	0.554709	0.960029	0.207909
O25	O	0.666199	1.322886	-0.017385
O26	O	0.682362	1.120320	0.214332
O27	O	0.682360	0.969182	0.214330
O28	O	0.673328	1.318051	0.084797
O29	O	0.885503	1.002648	-0.135440
O30	O	0.454018	1.103948	0.202845
O31	O	0.454020	1.295549	0.202847
O32	O	0.444984	1.301678	0.073310
O33	O	0.894537	0.804918	-0.005904
O34	O	0.894539	0.996519	-0.005902
O35	O	0.602594	1.098894	0.144309
O36	O	0.597276	1.215295	0.068053
O37	O	0.742247	1.116887	-0.000645
O38	O	0.747566	1.000486	0.075611
C39	C	0.468882	1.038895	0.023598
C40	C	0.400705	1.034007	0.020168
C41	C	0.022381	0.998260	-0.004672
C42	C	0.086455	1.002852	-0.001481
C43	C	0.066961	1.081779	0.053617
C44	C	-0.016613	1.156112	0.105532
C45	C	-0.080685	1.151514	0.102343
C46	C	0.253059	1.103742	0.068894
C47	C	0.317140	1.108336	0.072077
C48	C	0.420203	0.955075	-0.034934
C49	C	0.356125	0.950488	-0.038121
C50	C	0.272557	1.024817	0.013796
N51	N	0.132453	1.086477	0.056879
N52	N	0.207067	1.020114	0.010536
C53	C	0.669757	0.751784	0.033699
C54	C	0.669755	0.649452	0.033698
C55	C	0.594083	0.652742	0.069558
C56	C	0.594088	0.556587	0.069565
C57	C	0.745443	0.453857	-0.002153
C58	C	0.745438	0.550010	-0.002155
C59	C	0.518401	0.752184	0.105411
C60	C	0.442722	0.755478	0.141272
C61	C	0.442727	0.659323	0.141280
C62	C	0.518410	0.559874	0.105425
C63	C	0.870639	1.067701	0.043808
C64	C	0.938815	1.072589	0.047237
C65	C	0.655540	1.062944	-0.170145
C66	C	0.650713	1.066218	-0.239329
C67	C	0.669764	1.354813	0.033706
C68	C	0.669765	1.457144	0.033707
C69	C	0.724117	1.016389	-0.307691
C70	C	0.719578	1.019479	-0.372695
C71	C	0.641633	1.072392	-0.369334
C72	C	0.568223	1.122227	-0.300964
C73	C	0.572764	1.119143	-0.235963
C74	C	0.619938	1.087130	-0.559894
C75	C	0.615403	1.090207	-0.624903
C76	C	0.766758	0.987461	-0.696629
C77	C	0.771292	0.984376	-0.631623
C78	C	0.697882	1.034216	-0.563259
N79	N	0.636990	1.075548	-0.435777
N80	N	0.702525	1.031065	-0.496818
C81	C	0.683981	1.043652	0.237550
C82	C	0.688807	1.040379	0.306734
C83	C	0.468885	1.340409	0.023601
C84	C	0.400710	1.437852	0.020173
C85	C	0.483102	1.029249	0.227445
C86	C	0.419752	1.021087	0.293200
C87	C	0.483106	1.330764	0.227449
C88	C	0.419757	1.424933	0.293204
C89	C	0.856415	0.775832	-0.160043
C90	C	0.919763	0.681663	-0.225799
C91	C	0.870635	0.766187	0.043804
C92	C	0.938810	0.668744	0.047233
C93	C	0.856418	1.077347	-0.160040
C94	C	0.919768	1.085509	-0.225794
C95	C	0.365916	1.426620	-0.021250
C96	C	0.301866	1.518170	-0.024486
C97	C	0.272607	1.620951	0.013705
C98	C	0.307407	1.632182	0.055130
C99	C	0.371460	1.540633	0.058361
C100	C	0.392780	1.074247	0.363892
C101	C	0.333266	1.066574	0.425682
C102	C	0.300719	1.005747	0.416778
C103	C	0.327697	0.952581	0.346079
C104	C	0.387215	0.960248	0.284291
C105	C	0.387232	1.529926	0.284279
C106	C	0.327717	1.618418	0.346058
C107	C	0.300725	1.601915	0.416761
C108	C	0.333257	1.496911	0.425685
C109	C	0.392774	1.408421	0.363907
C110	C	0.952297	0.576671	-0.216873
C111	C	1.011831	0.488180	-0.278651
C112	C	1.038827	0.504684	-0.349354
C113	C	1.006291	0.609687	-0.358278
C114	C	0.946762	0.698176	-0.296501
C115	C	0.973610	0.679977	0.088649
C116	C	1.037677	0.588429	0.091868
C117	C	1.066938	0.485648	0.053675
C118	C	1.032135	0.474417	0.012253
C119	C	0.968074	0.565965	0.009030
C120	C	0.952296	1.146345	-0.216867
C121	C	1.011812	1.154035	-0.278645
C122	C	1.038804	1.100882	-0.349348
C123	C	1.006270	1.040044	-0.358274
C124	C	0.946750	1.032361	-0.296498
H125	H	0.185023	1.164268	0.111166
C126	C	0.857031	0.926172	-0.635324
H127	H	0.900099	0.896943	-0.685350
H128	H	0.861944	0.869567	-0.611459
H129	H	0.861951	0.976105	-0.611456
H130	H	0.220450	1.695487	0.011068
H131	H	0.807060	0.372880	-0.031346
C132	C	0.518397	0.857950	0.105404
H133	H	0.574304	0.841749	0.078908
H134	H	0.492953	0.896983	0.154659
H135	H	0.487941	0.900362	0.082623
C136	C	0.428576	1.141154	0.373696
H137	H	0.467883	1.138122	0.326777
H138	H	0.455454	1.112585	0.401959
H139	H	0.384470	1.214043	0.398397
C140	C	0.295697	1.195159	0.132684
H141	H	0.345826	1.187258	0.127139
H142	H	0.265814	1.187030	0.179616
H143	H	0.262234	1.264761	0.128673
H144	H	0.518408	0.481582	0.105438
H145	H	0.311271	1.483489	0.483259
H146	H	1.066003	0.597595	0.125601
H147	H	0.409199	1.543384	0.226715
H148	H	1.087269	1.107146	-0.399645
C149	C	0.828675	0.546397	-0.041603
H150	H	0.873749	0.473403	-0.062965
H151	H	0.834329	0.580075	-0.007081
H152	H	0.829304	0.583470	-0.079112
C153	C	0.235258	1.699257	0.484712
H154	H	0.223842	1.674398	0.528102
H155	H	0.185282	1.739174	0.482198
H156	H	0.256273	1.744246	0.485761
C157	C	0.428536	1.292933	0.373733
H158	H	0.403926	1.295788	0.424690
H159	H	0.487361	1.258413	0.353075
H160	H	0.416367	1.253355	0.349508
C161	C	0.291935	1.733909	0.336228
H162	H	0.316526	1.731055	0.285271
H163	H	0.304090	1.773507	0.360449
H164	H	0.233107	1.768406	0.356891
H165	H	1.119101	0.411113	0.056305
C166	C	0.929789	0.553599	-0.036520
H167	H	0.887447	0.622836	-0.032977
H168	H	0.906180	0.510918	-0.018114
H169	H	0.972126	0.519423	-0.086579
C170	C	0.359477	0.864859	0.180717
H171	H	0.314410	0.853044	0.202082
H172	H	0.353813	0.906205	0.146195
H173	H	0.358844	0.902802	0.218223
H174	H	0.311308	1.109874	0.483242
C175	C	1.047602	0.372689	-0.268822
H176	H	1.022984	0.375541	-0.217866
H177	H	1.106424	0.338182	-0.289471
H178	H	1.035448	0.333099	-0.293056
C179	C	0.847501	0.932654	-0.771827
H180	H	0.833637	0.942074	-0.810060
H181	H	0.879341	0.857774	-0.775914
H182	H	0.879334	0.964321	-0.775904
C183	C	0.275210	1.745243	0.097143
H184	H	0.232072	1.798148	0.089288
H185	H	0.319814	1.757927	0.079810
H186	H	0.253859	1.749411	0.148260
H187	H	0.930320	0.563212	-0.159309
C188	C	0.235246	0.997329	0.484749
H189	H	0.223842	1.037713	0.528123
H190	H	0.256234	0.923826	0.485818
H191	H	0.185258	1.025282	0.482246
H192	H	1.038295	1.203573	-0.271363
C193	C	0.409729	1.552997	0.103928
H194	H	0.452073	1.483760	0.100383
H195	H	0.367390	1.587182	0.153981
H196	H	0.433350	1.595670	0.085518
H197	H	-0.148728	1.212039	0.144614
H198	H	0.504759	1.165315	-0.298233
H199	H	1.055969	0.390721	-0.018842
C200	C	0.291882	0.885690	0.336294
H201	H	0.252565	0.888757	0.383221
H202	H	0.335969	0.812799	0.311597
H203	H	0.264993	0.914270	0.308037
H204	H	-0.032480	1.220372	0.150396
C205	C	1.104295	0.407338	-0.417302
H206	H	1.119792	0.342447	-0.401855
H207	H	1.152232	0.412288	-0.444205
H208	H	1.081238	0.407213	-0.447761
C209	C	0.809857	0.958191	-0.311394
H210	H	0.852923	0.928968	-0.361421
H211	H	0.814781	0.901583	-0.287531
H212	H	0.814771	1.008132	-0.287527
C213	C	1.035985	0.627827	-0.436053
H214	H	1.076089	0.560083	-0.471561
H215	H	1.060579	0.669840	-0.440512
H216	H	0.989599	0.664734	-0.444072
H217	H	1.028256	0.996769	-0.415849
H218	H	0.381107	0.662010	0.170486
C219	C	0.178376	0.921090	-0.058577
H220	H	0.213745	0.935120	-0.048783
H221	H	0.187265	0.927716	-0.106552
H222	H	0.190831	0.849982	-0.055611
C223	C	0.539191	1.141939	-0.484704
H224	H	0.492122	1.173880	-0.492015
H225	H	0.537811	1.196142	-0.457850
H226	H	0.537816	1.089596	-0.457859
C227	C	0.910988	0.965419	-0.306322
H228	H	0.871672	0.968450	-0.259408
H229	H	0.955104	0.892543	-0.331024
H230	H	0.884111	0.993980	-0.334590
C231	C	0.800322	0.964663	-0.447891
H232	H	0.847393	0.932697	-0.440582
H233	H	0.801704	1.016994	-0.474739
H234	H	0.801692	0.910459	-0.474739
C235	C	0.492019	1.173949	-0.160764
H236	H	0.444948	1.205895	-0.168071
H237	H	0.490645	1.228149	-0.133913
H238	H	0.490645	1.121606	-0.133919
C239	C	0.398095	1.313570	-0.063266
H240	H	0.441222	1.260645	-0.055410
H241	H	0.419435	1.309408	-0.114377
H242	H	0.353474	1.300910	-0.045921
H243	H	0.920273	0.783664	-0.303777
H244	H	0.949792	0.763658	0.119756
C245	C	0.922613	1.204823	-0.139102
H246	H	0.950509	1.242162	-0.142644
H247	H	0.934997	1.153484	-0.111557
H248	H	0.864016	1.254927	-0.115133
H249	H	0.551928	1.133294	-0.622159
C250	C	0.263589	1.505796	-0.070045
H251	H	0.290181	1.431469	-0.092314
H252	H	0.271463	1.543374	-0.107195
H253	H	0.205505	1.534895	-0.038724
H254	H	0.372007	0.886216	-0.082986
C255	C	0.043830	0.911437	-0.065278
H256	H	0.102778	0.867821	-0.095731
H257	H	0.019192	0.945318	-0.094216
H258	H	0.022766	0.867588	-0.043272
H259	H	0.488248	0.894559	-0.077201
H260	H	0.409167	0.916961	0.226732
