data_functionalizedCrystal
_audit_creation_method	'MofGen! by Chris Wilmer'
_symmetry_space_group_name_H-M	'P1'
_symmetry_Int_Tables_number	1
_symmetry_cell_setting	triclinic
loop_
_symmetry_equiv_pos_as_xyz
  x,y,z
_cell_length_a	16.120530
_cell_length_b	18.215405
_cell_length_c	18.215399
_cell_angle_alpha	90.030551
_cell_angle_beta	92.916648
_cell_angle_gamma	87.120245
loop_
_atom_site_label
_atom_site_type_symbol
_atom_site_fract_x
_atom_site_fract_y
_atom_site_fract_z
Zn1	Zn	1.274537	-0.350119	0.473077
Zn2	Zn	1.774537	0.149881	0.973077
Zn3	Zn	1.274433	-0.473185	0.350000
Zn4	Zn	1.774433	0.026815	0.850000
Zn5	Zn	1.135120	-0.343893	0.343792
Zn6	Zn	1.635120	0.156107	0.843792
Zn7	Zn	1.135081	-0.466897	0.466796
Zn8	Zn	1.635081	0.033103	0.966796
O9	O	1.204793	-0.408524	0.408416
O10	O	1.704793	0.091476	0.908416
O11	O	1.391189	-0.371681	0.461977
O12	O	1.891189	0.128319	0.961977
O13	O	1.255925	-0.456060	0.246191
O14	O	1.755925	0.043940	0.746191
O15	O	1.153673	-0.241737	0.360972
O16	O	1.653673	0.258263	0.860972
O17	O	1.391112	-0.462097	0.371553
O18	O	1.891112	0.037903	0.871553
O19	O	1.256102	-0.246311	0.455957
O20	O	1.756102	0.253689	0.955957
O21	O	1.153573	-0.361070	0.241630
O22	O	1.653573	0.138930	0.741630
O23	O	1.018449	-0.354973	0.354882
O24	O	1.518449	0.145027	0.854882
O25	O	1.153608	-0.451381	0.570615
O26	O	1.653608	0.048619	1.070615
O27	O	1.018421	-0.445344	0.445252
O28	O	1.518421	0.054656	0.945252
O29	O	1.256065	-0.365584	0.575229
O30	O	1.756065	0.134416	1.075229
O31	O	1.255888	-0.575333	0.365463
O32	O	1.755888	-0.075333	0.865463
O33	O	1.153507	-0.570713	0.451272
O34	O	1.653507	-0.070713	0.951272
C35	C	1.204705	-0.599726	0.408377
C36	C	1.704705	-0.099726	0.908377
C37	C	1.204743	-0.681527	0.408388
C38	C	1.704743	-0.181527	0.908388
C39	C	0.988185	-0.398801	0.398712
C40	C	1.488185	0.101199	0.898712
C41	C	0.895519	-0.394659	0.394578
C42	C	1.395519	0.105341	0.894578
C43	C	1.258178	-0.872107	0.363799
C44	C	1.758178	-0.372107	0.863799
C45	C	1.258216	-0.948968	0.363819
C46	C	1.758216	-0.448968	0.863819
C47	C	1.151514	-0.944193	0.453091
C48	C	1.651514	-0.444193	0.953091
C49	C	1.151481	-0.867334	0.453075
C50	C	1.651481	-0.367334	0.953075
C51	C	1.204812	-0.831293	0.408425
C52	C	1.704812	-0.331293	0.908425
C53	C	1.204882	-0.985012	0.408460
C54	C	1.704882	-0.485012	0.908460
C55	C	1.204922	-1.068348	0.408482
C56	C	1.704922	-0.568348	0.908482
C57	C	1.204774	-0.747952	0.408404
C58	C	1.704774	-0.247952	0.908404
C59	C	0.725858	-0.387080	0.387037
C60	C	1.225858	0.112920	0.887037
C61	C	0.684568	-0.430021	0.429849
C62	C	1.184568	0.069979	0.929849
C63	C	0.590163	-0.425804	0.425653
C64	C	1.090163	0.074196	0.925653
C65	C	0.820272	-0.391296	0.391232
C66	C	1.320272	0.108704	0.891232
C67	C	1.422246	-0.418285	0.418158
C68	C	1.922246	0.081715	0.918158
C69	C	1.514912	-0.422445	0.422310
C70	C	2.014912	0.077555	0.922310
C71	C	1.204843	-0.408475	0.600371
C72	C	1.704843	0.091525	1.100371
C73	C	1.204865	-0.408455	0.682171
C74	C	1.704865	0.091545	1.182171
C75	C	1.204904	-0.216576	0.408473
C76	C	1.704904	0.283424	0.908473
C77	C	1.204951	-0.134779	0.408497
C78	C	1.704951	0.365221	0.908497
C79	C	1.204790	-0.408521	0.217210
C80	C	1.704790	0.091479	0.717210
C81	C	1.204930	-0.408342	0.135418
C82	C	1.704930	0.091658	0.635418
C83	C	1.258234	-0.363737	0.872770
C84	C	1.758234	0.136263	1.372770
C85	C	1.258244	-0.363716	0.949629
C86	C	1.758244	0.136284	1.449629
C87	C	1.151555	-0.453061	0.944813
C88	C	1.651555	0.046939	1.444813
C89	C	1.151542	-0.453077	0.867955
C90	C	1.651542	0.046923	1.367955
C91	C	1.204886	-0.408417	0.831936
C92	C	1.704886	0.091583	1.331936
C93	C	1.204909	-0.408379	0.985653
C94	C	1.704909	0.091621	1.485653
C95	C	1.204920	-0.408357	1.068987
C96	C	1.704920	0.091643	1.568987
C97	C	1.204875	-0.408438	0.748596
C98	C	1.704875	0.091562	1.248596
H99	H	1.301605	-0.842765	0.327444
H100	H	1.801605	-0.342765	0.827444
Cl101	Cl	0.739454	-0.491666	0.491308
Cl102	Cl	1.239454	0.008334	0.991308
H103	H	1.301673	-0.982195	0.327482
H104	H	1.801673	-0.482195	0.827482
H105	H	1.301684	-0.327332	0.982874
H106	H	1.801684	0.172668	1.482874
Cl107	Cl	1.325291	-0.307589	0.827491
Cl108	Cl	1.825291	0.192411	1.327491
Cl109	Cl	1.084392	-0.816021	0.509184
Cl110	Cl	1.584392	-0.316021	1.009184
Cl111	Cl	1.084470	-0.989507	0.509216
Cl112	Cl	1.584470	-0.489507	1.009216
Cl113	Cl	0.670971	-0.325436	0.325586
Cl114	Cl	1.170971	0.174564	0.825586
Cl115	Cl	1.084503	-0.509207	0.990100
Cl116	Cl	1.584503	-0.009207	1.490100
Cl117	Cl	1.084465	-0.509247	0.816616
Cl118	Cl	1.584465	-0.009247	1.316616
