data_functionalizedCrystal
_audit_creation_method	'MofGen! by Chris Wilmer'
_symmetry_space_group_name_H-M	'P1'
_symmetry_Int_Tables_number	1
_symmetry_cell_setting	triclinic
loop_
_symmetry_equiv_pos_as_xyz
  x,y,z
_cell_length_a	16.109301
_cell_length_b	13.101039
_cell_length_c	16.109301
_cell_angle_alpha	86.640098
_cell_angle_beta	83.461481
_cell_angle_gamma	93.353949
loop_
_atom_site_label
_atom_site_type_symbol
_atom_site_fract_x
_atom_site_fract_y
_atom_site_fract_z
O1	O	1.107703	0.085153	0.102280
O2	O	0.865642	0.085169	0.115579
O3	O	0.993322	0.085150	-0.012101
O4	O	0.980024	0.085172	0.229960
O5	O	0.984161	-0.085278	-0.002925
O6	O	0.856482	-0.085259	0.124755
O7	O	1.098543	-0.085276	0.111456
Zn8	Zn	0.976058	-0.112327	0.119563
Zn9	Zn	0.988127	0.112220	0.107473
O10	O	0.970863	-0.085257	0.239136
C11	C	0.830087	-0.000043	0.119628
C12	C	0.737792	-0.000037	0.118013
N13	N	0.967826	-0.265574	0.127813
C14	C	0.515520	-0.000042	0.190021
C15	C	0.428799	-0.000049	0.188497
C16	C	0.448673	-0.000058	0.037009
C17	C	0.535391	-0.000059	0.038534
C18	C	0.568812	-0.000046	0.115042
C19	C	0.395373	-0.000052	0.111993
C20	C	0.301347	-0.000059	0.110340
C21	C	0.662845	-0.000040	0.116695
C22	C	0.956627	-0.474615	0.139046
C23	C	1.007562	-0.525498	0.087986
C24	C	1.001330	-0.641816	0.094236
C25	C	0.962858	-0.358287	0.132797
C26	C	1.134098	-0.000061	0.107407
C27	C	1.226393	-0.000061	0.109022
C28	C	0.988203	-0.000065	-0.038488
C29	C	0.986588	-0.000066	-0.130783
N30	N	0.996365	0.265467	0.099216
C31	C	1.058596	-0.000055	-0.353056
C32	C	1.057072	-0.000046	-0.439777
C33	C	0.905584	-0.000040	-0.419903
C34	C	0.907109	-0.000041	-0.333184
C35	C	0.983617	-0.000054	-0.299763
C36	C	0.980569	-0.000044	-0.473202
C37	C	0.978916	-0.000035	-0.567229
C38	C	0.985270	-0.000061	-0.205730
C39	C	0.975982	-0.000040	0.265523
C40	C	0.977598	-0.000032	0.357818
H41	H	0.385410	-0.000048	0.249552
C42	C	0.891408	-0.533770	0.204443
H43	H	0.895732	-0.605320	0.200122
H44	H	0.836819	-0.516261	0.194579
H45	H	0.901454	-0.516244	0.258982
H46	H	0.421450	-0.000075	-0.025281
H47	H	0.843293	-0.000031	-0.447125
H48	H	1.055848	-0.481703	0.039579
H49	H	0.542727	-0.000039	0.252319
C50	C	0.594018	-0.000058	-0.043947
H51	H	0.561695	-0.000051	-0.089732
H52	H	0.625069	-0.059490	-0.043303
H53	H	0.631450	0.059382	-0.049696
H54	H	1.120894	-0.000063	-0.325848
C55	C	1.139547	-0.000043	-0.498399
H56	H	1.127686	-0.000028	-0.554834
H57	H	1.167729	-0.059476	-0.485079
H58	H	1.174107	0.059396	-0.491461
H59	H	0.846048	-0.000037	-0.289790
