data_functionalizedCrystal
_audit_creation_method	'MofGen! by Chris Wilmer'
_symmetry_space_group_name_H-M	'P1'
_symmetry_Int_Tables_number	1
_symmetry_cell_setting	triclinic
loop_
_symmetry_equiv_pos_as_xyz
  x,y,z
_cell_length_a	14.185569
_cell_length_b	10.654534
_cell_length_c	10.654550
_cell_angle_alpha	84.481667
_cell_angle_beta	76.715528
_cell_angle_gamma	103.282502
loop_
_atom_site_label
_atom_site_type_symbol
_atom_site_fract_x
_atom_site_fract_y
_atom_site_fract_z
O1	O	0.083437	-1.639605	-0.204538
O2	O	0.083434	-1.274125	-0.221364
O3	O	0.083429	-1.465270	-0.030209
O4	O	0.083442	-1.448460	-0.395693
O5	O	-0.083407	-1.521736	0.026253
O6	O	-0.083402	-1.330591	-0.164902
O7	O	-0.083399	-1.696071	-0.148076
Cu8	Cu	-0.098634	-1.518487	-0.151333
Cu9	Cu	0.098669	-1.451709	-0.218107
O10	O	-0.083394	-1.504926	-0.339230
C11	C	0.000016	-1.255560	-0.191902
C12	C	0.000015	-1.116116	-0.188217
N13	N	-0.237406	-1.565464	-0.104367
C14	C	0.000012	-1.492269	0.044820
C15	C	0.000013	-1.488577	0.184262
C16	C	-0.605048	-1.266723	-0.402993
C17	C	-0.710071	-1.302316	-0.367426
C18	C	-0.710036	-1.471611	-0.198222
C19	C	-0.605012	-1.436028	-0.233771
C20	C	-0.552526	-1.333584	-0.336158
C21	C	-0.552489	-1.502888	-0.166936
C22	C	-0.447474	-1.467312	-0.202487
C23	C	-0.394981	-1.364875	-0.304873
C24	C	-0.447510	-1.298008	-0.371710
C25	C	-0.604977	-1.605338	-0.064555
C26	C	-0.552455	-1.672198	0.002279
C27	C	-0.447437	-1.636616	-0.033265
C28	C	-0.394944	-1.534179	-0.135651
C29	C	-0.394908	-1.703484	0.033571
C30	C	-0.289892	-1.667907	-0.001980
C31	C	-0.289929	-1.498603	-0.171202
N32	N	0.237441	-1.404742	-0.265063
C33	C	-0.090929	-1.081391	-0.155705
C34	C	-0.090931	-0.950372	-0.152222
C35	C	0.090962	-0.888810	-0.213772
C36	C	0.090964	-1.019828	-0.217246
C37	C	0.000017	-0.714636	-0.177548
C38	C	0.000011	-0.854078	-0.181261
C39	C	0.000025	-1.477926	-0.414260
C40	C	0.000031	-1.481617	-0.553705
C41	C	0.000014	-1.601119	0.263754
C42	C	0.000027	-1.597638	0.394770
C43	C	0.000033	-1.369065	0.366792
C44	C	0.000027	-1.372544	0.235776
H45	H	-0.247193	-1.415174	-0.254567
H46	H	0.000030	-1.280892	0.171049
C47	C	0.000045	-1.241438	0.423457
H48	H	0.000054	-1.174906	0.357343
H49	H	-0.058131	-1.255012	0.493682
H50	H	0.058235	-1.215644	0.454283
C51	C	-0.279466	-1.325734	-0.343988
H52	H	-0.255732	-1.255155	-0.414544
H53	H	-0.255707	-1.299803	-0.271603
H54	H	-0.255693	-1.398101	-0.369976
H55	H	-0.562312	-1.183294	-0.486358
C56	C	0.191005	-1.058035	-0.253017
H57	H	0.177977	-1.149857	-0.250915
H58	H	0.228377	-1.014971	-0.338204
H59	H	0.228368	-1.032867	-0.191973
H60	H	-0.404774	-1.214579	-0.455075
C61	C	-0.190965	-1.187308	-0.123765
H62	H	-0.177942	-1.270312	-0.130501
H63	H	-0.228337	-1.187431	-0.037439
H64	H	-0.228327	-1.169532	-0.183670
C65	C	-0.767847	-1.228765	-0.440946
H66	H	-0.837908	-1.264629	-0.405119
H67	H	-0.750654	-1.139005	-0.432360
H68	H	-0.750633	-1.237312	-0.530723
C69	C	0.191000	-0.782894	-0.245735
H70	H	0.245164	-0.822344	-0.265591
H71	H	0.194774	-0.721568	-0.318774
H72	H	0.194787	-0.739441	-0.172550
C73	C	-0.767776	-1.584287	-0.085598
H74	H	-0.837842	-1.595895	-0.073990
H75	H	-0.750548	-1.662387	-0.105833
H76	H	-0.750568	-1.564074	-0.007475
H77	H	-0.164987	-0.922108	-0.125747
H78	H	-0.690487	-1.634304	-0.035618
H79	H	0.000005	-1.695599	0.221815
H80	H	0.000030	-1.689281	0.459487
C81	C	-0.232109	-1.741438	0.071539
H82	H	-0.162049	-1.705582	0.035694
H83	H	-0.249321	-1.732899	0.161312
H84	H	-0.249298	-1.831203	0.062945
H85	H	-0.437655	-1.786903	0.116928
C86	C	-0.610194	-1.784874	0.114903
H87	H	-0.680260	-1.796482	0.126511
H88	H	-0.592966	-1.862975	0.094669
H89	H	-0.592986	-1.764661	0.193026
