data_functionalizedCrystal
_audit_creation_method	'MofGen! by Chris Wilmer'
_symmetry_space_group_name_H-M	'P1'
_symmetry_Int_Tables_number	1
_symmetry_cell_setting	triclinic
loop_
_symmetry_equiv_pos_as_xyz
  x,y,z
_cell_length_a	10.654550
_cell_length_b	9.065215
_cell_length_c	9.130313
_cell_angle_alpha	89.999667
_cell_angle_beta	89.996220
_cell_angle_gamma	84.749800
loop_
_atom_site_label
_atom_site_type_symbol
_atom_site_fract_x
_atom_site_fract_y
_atom_site_fract_z
O1	O	1.668653	0.207228	-0.121917
O2	O	1.303253	0.226972	-0.121893
O3	O	1.493507	0.002416	-0.121899
O4	O	1.478398	0.431784	-0.121911
O5	O	1.493505	0.002422	0.121700
O6	O	1.303250	0.226978	0.121706
O7	O	1.668651	0.207234	0.121682
Cu8	Cu	1.485950	0.217107	0.143937
Cu9	Cu	1.485953	0.217100	-0.144147
O10	O	1.478396	0.431790	0.121688
C11	C	1.256448	0.225526	-0.000090
C12	C	1.116987	0.221188	-0.000081
C13	C	1.038024	0.353403	-0.000106
C14	C	0.906987	0.349319	-0.000131
C15	C	0.933889	0.080793	-0.000113
C16	C	1.064924	0.084879	-0.000077
C17	C	1.022491	0.508435	-0.000123
C18	C	0.891454	0.504351	-0.000148
C19	C	1.492055	-0.052559	-0.000101
C20	C	1.487716	-0.216379	-0.000105
C21	C	1.715456	0.208681	-0.000124
C22	C	1.854916	0.213018	-0.000142
C23	C	1.479848	0.486766	-0.000113
C24	C	1.484188	0.650586	-0.000118
N25	N	1.485957	0.217111	0.346559
N26	N	1.485956	0.217084	-0.346770
C27	C	1.570224	0.117712	0.423208
C28	C	1.570221	0.117694	0.576545
C29	C	1.401680	0.316488	0.576570
C30	C	1.401678	0.316497	0.423236
C31	C	1.667534	0.002944	0.423195
C32	C	1.667531	0.002926	0.576532
H33	H	1.058343	0.557797	-0.105296
O34	O	1.776364	0.046096	0.366393
C35	C	1.749115	0.173608	0.279537
H36	H	1.655301	0.233255	0.315374
H37	H	1.827017	0.250709	0.293388
H38	H	1.742993	0.139971	0.159618
H39	H	1.333050	0.397423	0.360830
O40	O	1.057741	0.580549	0.121650
C41	C	1.020982	0.505428	0.247582
H42	H	1.009699	0.384977	0.218854
H43	H	1.096063	0.509956	0.336014
H44	H	0.927464	0.560605	0.289712
H45	H	0.845967	0.551206	0.105018
O46	O	1.630604	-0.124802	0.633518
C47	C	1.632814	-0.117269	0.787727
H48	H	1.624670	0.003683	0.823591
H49	H	1.550387	-0.174060	0.834272
H50	H	1.725169	-0.175339	0.830016
H51	H	1.764142	0.028206	0.618142
H52	H	1.645643	-0.110464	0.381580
O53	O	0.842057	0.574234	-0.121729
C54	C	0.871382	0.722778	-0.121477
H55	H	0.958240	0.733287	-0.050677
H56	H	0.891257	0.758560	-0.238265
H57	H	0.788367	0.796604	-0.075287
O58	O	1.319765	0.412828	0.651220
C59	C	1.241371	0.332947	0.739882
H60	H	1.290089	0.218034	0.762838
H61	H	1.222197	0.394303	0.847715
H62	H	1.148439	0.321910	0.680792
H63	H	1.129212	-0.022783	-0.000036
H64	H	0.891483	-0.030185	-0.000132
