data_functionalizedCrystal
_audit_creation_method	'MofGen! by Chris Wilmer'
_symmetry_space_group_name_H-M	'P1'
_symmetry_Int_Tables_number	1
_symmetry_cell_setting	triclinic
loop_
_symmetry_equiv_pos_as_xyz
  x,y,z
_cell_length_a	8.497374
_cell_length_b	8.497374
_cell_length_c	17.640112
_cell_angle_alpha	78.776723
_cell_angle_beta	78.811801
_cell_angle_gamma	90.004389
loop_
_atom_site_label
_atom_site_type_symbol
_atom_site_fract_x
_atom_site_fract_y
_atom_site_fract_z
Zn1	Zn	0.405273	0.140113	1.208303
Zn2	Zn	0.141542	0.403865	1.208296
Zn3	Zn	0.194739	0.193478	1.076168
Zn4	Zn	0.458516	0.457240	1.076150
O5	O	0.300017	0.298674	1.142229
O6	O	0.325744	0.130429	1.318904
O7	O	-0.072166	0.375953	1.190773
O8	O	0.222647	-0.034368	1.093707
O9	O	0.131981	0.324207	1.318899
O10	O	0.377326	-0.073575	1.190785
O11	O	-0.033082	0.221382	1.093700
O12	O	0.274274	0.273137	0.965564
O13	O	0.672217	0.415176	1.093676
O14	O	0.468070	0.466922	0.965550
O15	O	0.633100	0.182184	1.190768
O16	O	0.183608	0.631712	1.190756
O17	O	0.416488	0.670926	1.093669
C18	C	0.382723	0.381614	0.936879
C19	C	0.418142	0.417133	0.849030
C20	C	0.890136	0.298698	1.142234
C21	C	0.711495	0.298693	1.142226
C22	C	0.300044	0.708558	1.142219
C23	C	0.300010	0.887193	1.142240
C24	C	0.030954	0.028806	0.560028
C25	C	0.064257	0.062214	0.477480
C26	C	0.265709	0.264280	0.477520
C27	C	0.232428	0.230883	0.560070
C28	C	0.115048	0.113145	0.601317
C29	C	0.316522	0.315223	0.601360
C30	C	0.283237	0.281834	0.683902
C31	C	0.165859	0.164105	0.725155
C32	C	0.081763	0.079757	0.683860
C33	C	0.433894	0.432967	0.560111
C34	C	0.517987	0.517307	0.601400
C35	C	0.484711	0.483911	0.683944
C36	C	0.367333	0.366182	0.725197
C37	C	0.568807	0.568260	0.725240
C38	C	0.535523	0.534871	0.807782
C39	C	0.334049	0.332794	0.807740
C40	C	0.216990	0.215412	1.348381
C41	C	0.181608	0.179930	1.436231
H42	H	0.238489	0.236897	0.841326
H43	H	0.604002	0.603547	0.841401
H44	H	0.138758	0.136926	0.792367
H45	H	0.460989	0.460148	0.492899
H46	H	-0.013796	-0.016140	0.717446
F47	F	-0.093966	-0.096515	0.603931
F48	F	0.642892	0.642624	0.557494
F49	F	0.693702	0.693584	0.681331
H50	H	0.361275	0.360146	0.443926
F51	F	-0.025266	-0.027553	0.433539
