data_functionalizedCrystal
_audit_creation_method	'MofGen! by Chris Wilmer'
_symmetry_space_group_name_H-M	'P1'
_symmetry_Int_Tables_number	1
_symmetry_cell_setting	triclinic
loop_
_symmetry_equiv_pos_as_xyz
  x,y,z
_cell_length_a	17.639617
_cell_length_b	17.640280
_cell_length_c	19.077314
_cell_angle_alpha	76.992905
_cell_angle_beta	81.474633
_cell_angle_gamma	87.821186
loop_
_atom_site_label
_atom_site_type_symbol
_atom_site_fract_x
_atom_site_fract_y
_atom_site_fract_z
Zn1	Zn	1.190769	-0.047080	-0.604217
Zn2	Zn	1.223443	-0.178768	-0.468737
Zn3	Zn	1.071314	-0.077740	-0.459482
Zn4	Zn	1.091800	-0.201245	-0.558615
O5	O	1.144332	-0.126208	-0.522763
O6	O	1.300188	-0.042311	-0.609204
O7	O	1.208364	-0.168792	-0.369323
O8	O	1.064912	0.033126	-0.493892
O9	O	1.324194	-0.139062	-0.509667
O10	O	1.152675	0.055652	-0.600229
O11	O	1.096595	-0.094567	-0.362523
O12	O	0.968947	-0.116361	-0.449673
O13	O	1.099828	-0.177369	-0.662851
O14	O	0.983998	-0.207099	-0.522506
O15	O	1.172539	-0.064105	-0.696355
O16	O	1.228228	-0.288549	-0.465448
O17	O	1.131511	-0.305062	-0.531481
C18	C	0.949225	-0.167497	-0.480137
C19	C	0.865761	-0.185178	-0.461916
C20	C	0.528804	0.008136	-0.661365
C21	C	0.450381	-0.008497	-0.644226
C22	C	0.475373	-0.109087	-0.540472
C23	C	0.553801	-0.092464	-0.557604
C24	C	0.580509	-0.033851	-0.618051
C25	C	0.605505	-0.134451	-0.514290
C26	C	0.683925	-0.117827	-0.531419
C27	C	0.710640	-0.059215	-0.591862
C28	C	0.658929	-0.017226	-0.635179
C29	C	0.578795	-0.193060	-0.453841
C30	C	0.630500	-0.235047	-0.410527
C31	C	0.708921	-0.218427	-0.427658
C32	C	0.735636	-0.159815	-0.488101
C33	C	0.760632	-0.260415	-0.384340
C34	C	0.839052	-0.243791	-0.401469
C35	C	0.814056	-0.143191	-0.505230
C36	C	1.185658	-0.324492	-0.494540
C37	C	1.203405	-0.409304	-0.482505
C38	C	1.009804	-0.731416	-0.614515
C39	C	1.026483	-0.811110	-0.603185
C40	C	1.127250	-0.793833	-0.534528
C41	C	1.110582	-0.714136	-0.545857
C42	C	1.051858	-0.682934	-0.585850
C43	C	1.152635	-0.665654	-0.517191
C44	C	1.135966	-0.585964	-0.528515
C45	C	1.077243	-0.554756	-0.568505
C46	C	1.035188	-0.603244	-0.597174
C47	C	1.211355	-0.696858	-0.477194
C48	C	1.253409	-0.648376	-0.448528
C49	C	1.236744	-0.568684	-0.459857
C50	C	1.178021	-0.537476	-0.499846
C51	C	1.278798	-0.520196	-0.431187
C52	C	1.262129	-0.440506	-0.442512
C53	C	1.161351	-0.457786	-0.511170
C54	C	1.340200	-0.084759	-0.565555
C55	C	1.423668	-0.067096	-0.583791
C56	C	1.134824	-0.119824	-0.705773
C57	C	1.130772	-0.117104	-0.783761
C58	C	1.102864	0.072855	-0.551115
C59	C	1.085192	0.157684	-0.563197
C60	C	1.187056	-0.154469	-0.823943
C61	C	1.183248	-0.151904	-0.897223
C62	C	1.123151	-0.111977	-0.930318
C63	C	1.066864	-0.074607	-0.890131
C64	C	1.070676	-0.077169	-0.816854
C65	C	1.105512	-0.100169	-1.149093
C66	C	1.101702	-0.097613	-1.222374
C67	C	1.218087	-0.174908	-1.229461
C68	C	1.221892	-0.177469	-1.156182
C69	C	1.165607	-0.140096	-1.116002
N70	N	1.119255	-0.109356	-1.005220
N71	N	1.169507	-0.142713	-1.041103
C72	C	1.153834	-0.132503	-0.340481
C73	C	1.157986	-0.134978	-0.262556
H74	H	0.408283	0.025702	-0.679499
O75	O	1.237988	-0.188066	-0.936315
C76	C	1.337201	-0.173973	-1.039747
C77	C	1.275236	-0.132924	-0.995534
H78	H	1.367323	-0.129411	-1.087644
H79	H	1.380854	-0.202918	-1.003543
H80	H	1.309260	-0.219998	-1.060813
H81	H	1.303110	-0.086864	-0.974462
H82	H	1.231590	-0.104031	-1.031768
H83	H	1.052765	-0.065094	-1.249319
O84	O	1.008544	-0.035697	-0.922278
C85	C	0.943852	0.087182	-0.955174
C86	C	1.009944	0.043217	-0.918766
H87	H	0.944952	0.150988	-0.952333
H88	H	0.950780	0.082660	-1.014467
H89	H	0.886855	0.060423	-0.925627
H90	H	1.066971	0.069944	-0.948253
H91	H	1.002949	0.047735	-0.859469
O92	O	0.734807	-0.317350	-0.325580
C93	C	0.767878	-0.415410	-0.224497
C94	C	0.797225	-0.350940	-0.291012
H95	H	0.818330	-0.442597	-0.196538
H96	H	0.725772	-0.389406	-0.184786
H97	H	0.737804	-0.461996	-0.242958
H98	H	0.827335	-0.304332	-0.272617
H99	H	0.839293	-0.377001	-0.330707
O100	O	1.302962	-0.393499	-0.414551
C101	C	1.340571	-0.365497	-0.306677
C102	C	1.294314	-0.418804	-0.338253
H103	H	1.333583	-0.385926	-0.244985
H104	H	1.403755	-0.367876	-0.329995
H105	H	1.318576	-0.303183	-0.321678
H106	H	1.316243	-0.481141	-0.323262
H107	H	1.231137	-0.416358	-0.314936
O108	O	1.335914	-0.550529	-0.392445
C109	C	1.456560	-0.619352	-0.392425
C110	C	1.391943	-0.585016	-0.436394
H111	H	1.501868	-0.647257	-0.427935
H112	H	1.483818	-0.571037	-0.373897
H113	H	1.431798	-0.665231	-0.342867
H114	H	1.416644	-0.539146	-0.485981
H115	H	1.364693	-0.633375	-0.454866
O116	O	1.015908	-0.040979	-0.777814
C117	C	0.881616	-0.031715	-0.732787
C118	C	0.943565	-0.072780	-0.777002
H119	H	0.823110	-0.057399	-0.732129
H120	H	0.894600	-0.040420	-0.674707
H121	H	0.881274	0.033121	-0.758836
H122	H	0.943941	-0.137628	-0.751016
H123	H	0.930557	-0.064012	-0.835079
H124	H	0.453616	-0.156807	-0.491255
O125	O	0.840085	-0.086205	-0.563878
C126	C	0.906589	0.035937	-0.607469
C127	C	0.877169	-0.028548	-0.540994
H128	H	0.936564	0.082577	-0.588990
H129	H	0.948773	0.009950	-0.647133
H130	H	0.856156	0.063051	-0.635496
H131	H	0.927553	-0.055686	-0.512909
H132	H	0.834962	-0.002518	-0.501380
O133	O	1.245454	-0.193144	-0.791745
C134	C	1.353315	-0.184842	-0.729750
C135	C	1.287197	-0.140952	-0.766174
H136	H	1.387092	-0.142660	-0.709080
H137	H	1.328978	-0.233226	-0.682193
H138	H	1.392855	-0.211129	-0.771064
H139	H	1.247632	-0.114617	-0.724914
H140	H	1.311587	-0.092609	-0.813744
H141	H	0.514937	-0.206577	-0.439884
H142	H	0.608742	-0.282768	-0.361310
O143	O	0.889370	-0.284593	-0.359509
C144	C	0.999882	-0.369204	-0.354599
C145	C	0.942959	-0.323019	-0.402207
H146	H	1.043212	-0.400296	-0.389097
H147	H	1.031228	-0.327631	-0.330993
H148	H	0.967304	-0.413922	-0.308441
H149	H	0.975477	-0.278299	-0.448400
H150	H	0.911613	-0.364640	-0.425758
O151	O	1.280347	-0.216249	-1.124159
C152	C	1.395369	-0.292666	-1.138918
C153	C	1.329220	-0.248762	-1.175277
H154	H	1.434891	-0.318977	-1.180226
H155	H	1.429172	-0.250534	-1.118210
H156	H	1.370979	-0.341038	-1.091377
H157	H	1.353545	-0.200390	-1.222845
H158	H	1.295426	-0.290943	-1.195934
O159	O	1.050756	-0.063855	-1.110165
C160	C	0.934943	0.013123	-1.110887
C161	C	0.996895	-0.027987	-1.155056
H162	H	0.891389	0.042146	-1.147168
H163	H	0.904699	-0.031393	-1.063023
H164	H	0.962913	0.059097	-1.089779
H165	H	0.968986	-0.073958	-1.176214
H166	H	1.027133	0.016574	-1.202884
H167	H	1.263912	-0.205333	-1.262184
O168	O	0.684958	0.039759	-0.693828
C169	C	0.751462	0.161902	-0.737419
C170	C	0.722042	0.097416	-0.670944
H171	H	0.781437	0.208541	-0.718940
H172	H	0.793646	0.135914	-0.777083
H173	H	0.701029	0.189015	-0.765446
H174	H	0.772426	0.070278	-0.642858
H175	H	0.679835	0.123446	-0.631330
O176	O	0.554625	0.065114	-0.720097
C177	C	0.521574	0.163095	-0.821248
C178	C	0.492226	0.098607	-0.754748
H179	H	0.471142	0.190181	-0.849291
H180	H	0.551585	0.209764	-0.802841
H181	H	0.563739	0.137038	-0.860873
H182	H	0.450034	0.124593	-0.715095
H183	H	0.462261	0.051947	-0.773208
H184	H	0.774494	-0.045678	-0.605804
H185	H	1.063667	-0.489868	-0.577718
O186	O	1.104364	-0.427536	-0.550123
C187	C	1.056556	-0.406669	-0.664950
C188	C	1.121130	-0.440982	-0.620915
H189	H	1.070096	-0.417514	-0.722198
H190	H	0.999927	-0.435642	-0.637187
H191	H	1.051865	-0.341393	-0.668077
H192	H	1.125891	-0.506255	-0.617774
H193	H	1.177726	-0.411950	-0.648695
H194	H	0.987374	-0.577837	-0.629747
H195	H	0.961990	-0.706009	-0.647089
O196	O	1.184280	-0.824269	-0.495714
C197	C	1.254571	-0.939390	-0.447775
C198	C	1.189980	-0.905022	-0.491766
H199	H	1.259190	-1.004686	-0.444555
H200	H	1.311216	-0.910486	-0.475591
H201	H	1.241088	-0.928443	-0.390560
H202	H	1.203390	-0.915960	-0.548985
H203	H	1.133355	-0.933929	-0.463892
O204	O	0.985700	-0.858153	-0.631159
C205	C	0.948010	-0.886091	-0.739025
C206	C	0.994241	-0.832765	-0.707446
H207	H	0.954886	-0.865575	-0.800706
H208	H	0.970013	-0.948413	-0.724123
H209	H	0.884854	-0.883731	-0.715612
H210	H	1.057405	-0.835057	-0.730842
H211	H	0.972174	-0.770467	-0.722342
H212	H	1.224927	-0.761747	-0.467977
O213	O	1.310439	-0.678812	-0.409714
C214	C	1.380730	-0.793933	-0.361774
C215	C	1.316140	-0.759565	-0.405765
H216	H	1.385349	-0.859229	-0.358555
H217	H	1.437375	-0.765029	-0.389591
H218	H	1.367247	-0.782986	-0.304560
H219	H	1.329550	-0.770502	-0.462985
H220	H	1.259515	-0.788471	-0.377891
