data_functionalizedCrystal
_audit_creation_method	'MofGen! by Chris Wilmer'
_symmetry_space_group_name_H-M	'P1'
_symmetry_Int_Tables_number	1
_symmetry_cell_setting	triclinic
loop_
_symmetry_equiv_pos_as_xyz
  x,y,z
_cell_length_a	6.817900
_cell_length_b	16.418055
_cell_length_c	16.418042
_cell_angle_alpha	95.402791
_cell_angle_beta	103.389568
_cell_angle_gamma	103.389726
loop_
_atom_site_label
_atom_site_type_symbol
_atom_site_fract_x
_atom_site_fract_y
_atom_site_fract_z
V1	V	-4.025094	-0.116567	-0.261446
O2	O	-4.013114	0.004901	-0.256170
O3	O	-3.976166	-0.230459	-0.259946
O4	O	-3.976174	-0.115081	-0.375341
O5	O	-4.013105	-0.111275	-0.139976
V6	V	-4.508858	-0.102002	-0.246882
O7	O	-4.285824	-0.148517	-0.293393
O8	O	-4.698325	-0.070051	-0.214936
O9	O	-4.334579	0.011890	-0.248383
O10	O	-4.638234	-0.223469	-0.252158
O11	O	-4.638243	-0.107293	-0.368352
O12	O	-4.334571	-0.103487	-0.132988
C13	C	-3.821055	-0.258214	-0.255896
C14	C	-3.862333	-0.351324	-0.255428
C15	C	-4.178135	-0.657317	-0.258148
C16	C	-4.139360	-0.569828	-0.258574
C17	C	-3.775178	-0.561262	-0.250181
C18	C	-3.813950	-0.648748	-0.249749
C19	C	-4.015436	-0.696774	-0.253737
C20	C	-3.937889	-0.521800	-0.254595
C21	C	-3.895847	-0.426941	-0.255056
C22	C	-4.057481	-0.791639	-0.253274
C23	C	-3.821065	-0.111037	-0.403092
C24	C	-3.862348	-0.110576	-0.496203
C25	C	-4.139356	-0.113692	-0.714697
C26	C	-4.178126	-0.113251	-0.802183
C27	C	-3.813952	-0.104873	-0.793620
C28	C	-3.775181	-0.105307	-0.706134
C29	C	-3.937892	-0.109721	-0.666676
C30	C	-4.015434	-0.108846	-0.841648
C31	C	-4.057469	-0.108368	-0.936504
C32	C	-3.895854	-0.110197	-0.571813
C33	C	-4.153032	0.039641	-0.252431
C34	C	-4.090992	0.132750	-0.252904
C35	C	-4.153022	-0.107534	-0.105232
C36	C	-4.090978	-0.107991	-0.012120
H37	H	-4.271849	-0.537706	-0.262164
H38	H	-3.681450	-0.680874	-0.246155
F39	F	-4.392570	-0.708426	-0.262390
H40	H	-4.342174	-0.116483	-0.841279
H41	H	-4.271848	-0.117284	-0.682573
F42	F	-3.640801	-0.100183	-0.835623
H43	H	-3.611131	-0.522149	-0.246935
H44	H	-3.611114	-0.102067	-0.667032
