data_functionalizedCrystal
_audit_creation_method	'MofGen! by Chris Wilmer'
_symmetry_space_group_name_H-M	'P1'
_symmetry_Int_Tables_number	1
_symmetry_cell_setting	triclinic
loop_
_symmetry_equiv_pos_as_xyz
  x,y,z
_cell_length_a	17.699077
_cell_length_b	10.723023
_cell_length_c	16.176319
_cell_angle_alpha	89.994236
_cell_angle_beta	89.993140
_cell_angle_gamma	83.874062
loop_
_atom_site_label
_atom_site_type_symbol
_atom_site_fract_x
_atom_site_fract_y
_atom_site_fract_z
O1	O	1.005076	0.157762	-0.068734
O2	O	0.784827	0.178299	-0.068738
O3	O	0.900032	-0.013633	-0.068732
O4	O	0.889871	0.349694	-0.068739
O5	O	0.900016	-0.013645	0.068761
O6	O	0.784811	0.178287	0.068756
O7	O	1.005060	0.157750	0.068759
Cu8	Cu	0.894934	0.168017	0.081312
Cu9	Cu	0.894953	0.168032	-0.081290
O10	O	0.889855	0.349682	0.068754
C11	C	0.756617	0.177559	0.000008
C12	C	0.672585	0.175355	0.000007
C13	C	0.633102	0.174310	0.074955
C14	C	0.554147	0.172219	0.074956
C15	C	0.514674	0.171182	0.000008
C16	C	0.554163	0.172224	-0.074946
C17	C	0.633118	0.174306	-0.074946
C18	C	0.235747	0.163827	-0.074948
C19	C	0.156786	0.161748	-0.074942
C20	C	0.156775	0.161740	0.074955
C21	C	0.235730	0.163822	0.074955
C22	C	0.275212	0.164856	0.000001
C23	C	0.360825	0.167121	0.000001
C24	C	0.429062	0.168927	0.000007
C25	C	0.899285	-0.060126	0.000013
C26	C	0.897073	-0.198642	0.000011
C27	C	0.896095	-0.260385	-0.071216
C28	C	0.893809	-0.403549	-0.071220
C29	C	1.033270	0.158490	0.000011
C30	C	1.117302	0.160694	0.000008
C31	C	0.890602	0.396175	0.000006
C32	C	0.892814	0.534691	0.000004
N33	N	0.894926	0.168006	0.195677
N34	N	0.894967	0.168033	-0.195655
C35	C	0.945955	0.083053	0.238944
C36	C	0.945959	0.083052	0.325491
C37	C	0.894937	0.168011	0.368770
C38	C	0.843903	0.252968	0.325497
C39	C	0.843896	0.252962	0.238951
C40	C	0.843929	0.252991	0.674525
C41	C	0.843941	0.252993	0.761077
C42	C	0.945992	0.083081	0.761064
C43	C	0.945985	0.083076	0.674519
C44	C	0.894948	0.168028	0.631254
C45	C	0.894944	0.168026	0.537410
C46	C	0.894945	0.168019	0.462612
H47	H	0.665234	0.175164	0.135987
Cl48	Cl	0.892517	-0.485521	-0.165374
Cl49	Cl	0.682754	0.175614	-0.169171
Cl50	Cl	0.779740	0.359761	0.184560
H51	H	0.987510	0.013876	0.360718
Cl52	Cl	0.897434	-0.178373	-0.165364
H53	H	0.893659	-0.412220	0.060987
Cl54	Cl	1.010151	-0.023723	0.815459
Cl55	Cl	0.779794	0.359804	0.815484
Cl56	Cl	0.779774	0.359790	0.620140
H57	H	0.987506	0.013876	0.203711
H58	H	0.522005	0.171347	0.135987
Cl59	Cl	0.895746	-0.280656	0.094159
H60	H	0.987534	0.013899	0.639284
Cl61	Cl	0.285371	0.165130	-0.169175
H62	H	0.802356	0.322139	0.360740
H63	H	0.267864	0.164672	0.135986
H64	H	0.124620	0.160892	0.135986
H65	H	0.124650	0.160903	-0.135978
Cl66	Cl	0.504544	0.170874	-0.169168
