data_functionalizedCrystal
_audit_creation_method	'MofGen! by Chris Wilmer'
_symmetry_space_group_name_H-M	'P1'
_symmetry_Int_Tables_number	1
_symmetry_cell_setting	triclinic
loop_
_symmetry_equiv_pos_as_xyz
  x,y,z
_cell_length_a	16.109301
_cell_length_b	10.540539
_cell_length_c	14.586319
_cell_angle_alpha	89.998343
_cell_angle_beta	89.998857
_cell_angle_gamma	83.993537
loop_
_atom_site_label
_atom_site_type_symbol
_atom_site_fract_x
_atom_site_fract_y
_atom_site_fract_z
O1	O	1.104128	0.163160	-0.076186
O2	O	0.862191	0.183465	-0.076198
O3	O	0.988679	-0.011473	-0.076190
O4	O	0.977640	0.358098	-0.076193
O5	O	0.988670	-0.011475	0.076290
O6	O	0.862182	0.183462	0.076283
O7	O	1.104120	0.163157	0.076295
Cu8	Cu	0.983150	0.173309	0.090212
Cu9	Cu	0.983160	0.173313	-0.090114
O10	O	0.977631	0.358095	0.076288
C11	C	0.831206	0.182641	0.000041
C12	C	0.738896	0.180175	0.000036
C13	C	0.430556	0.287786	0.000051
C14	C	0.517290	0.290115	0.000046
C15	C	0.535749	0.058828	0.000035
C16	C	0.449016	0.056500	0.000034
C17	C	0.396421	0.170983	0.000047
C18	C	0.569889	0.175639	0.000043
C19	C	0.663930	0.178164	0.000037
C20	C	0.302374	0.168459	0.000051
C21	C	0.987847	-0.058765	0.000048
C22	C	0.985370	-0.199678	0.000043
C23	C	0.890460	-0.381752	-0.000304
C24	C	0.892971	-0.235170	0.000040
C25	C	1.029831	-0.261971	0.087120
C26	C	1.026678	-0.408471	0.087193
C27	C	1.028567	-0.409012	-0.086206
C28	C	1.029418	-0.262043	-0.087357
C29	C	1.135104	0.163981	0.000054
C30	C	1.227414	0.166447	0.000053
C31	C	0.978463	0.405388	0.000047
C32	C	0.980940	0.546300	0.000046
N33	N	0.983149	0.173306	0.217043
N34	N	0.983168	0.173306	-0.216946
C35	C	1.039176	0.087017	0.452053
C36	C	1.039179	0.087014	0.548035
C37	C	0.927134	0.259600	0.548037
C38	C	0.927128	0.259595	0.452058
C39	C	0.983154	0.173306	0.404068
C40	C	0.983162	0.173307	0.596029
C41	C	0.983165	0.173304	0.700096
C42	C	0.983151	0.173306	0.299994
H43	H	0.857986	-0.192066	-0.062380
C44	C	0.841910	-0.419407	-0.083592
C45	C	0.892398	-0.507927	-0.136120
C46	C	0.847697	-0.542668	-0.212846
H47	H	0.825620	-0.345866	-0.119552
H48	H	0.793631	-0.456494	-0.064042
H49	H	0.940662	-0.470839	-0.155671
H50	H	0.908690	-0.581488	-0.100187
H51	H	0.799419	-0.579754	-0.193297
H52	H	0.831409	-0.469119	-0.248799
H53	H	0.881944	-0.602740	-0.248492
H54	H	0.387735	0.381005	0.000061
C55	C	1.099899	-0.006909	0.400022
C56	C	1.085639	-0.131630	0.423389
C57	C	1.141552	-0.218206	0.375481
H58	H	1.155503	0.006716	0.415715
H59	H	1.091885	0.005328	0.335974
H60	H	1.093660	-0.143862	0.487423
H61	H	1.030046	-0.145296	0.407694
H62	H	1.133538	-0.205969	0.311432
H63	H	1.197152	-0.204569	0.391177
H64	H	1.131879	-0.302839	0.391322
C65	C	0.983000	-0.445567	0.174044
C66	C	1.037414	-0.530394	0.225190
C67	C	0.997207	-0.564575	0.305208
H68	H	0.934750	-0.485443	0.158251
H69	H	0.967078	-0.371328	0.209434
H70	H	1.053324	-0.604621	0.189808
H71	H	1.085665	-0.490545	0.241007
H72	H	0.981284	-0.490335	0.340597
H73	H	0.948957	-0.604446	0.289406
H74	H	1.034122	-0.622124	0.339924
C75	C	1.115339	-0.473467	0.092528
C76	C	1.171507	-0.380777	0.095669
C77	C	1.253185	-0.440597	0.100601
H78	H	1.126616	-0.525792	0.040045
H79	H	1.121370	-0.524582	0.146242
H80	H	1.165479	-0.329684	0.041960
H81	H	1.160257	-0.328447	0.148149
H82	H	1.259216	-0.491712	0.154316
H83	H	1.264453	-0.492921	0.048117
H84	H	1.291304	-0.377717	0.102741
H85	H	0.998939	-0.218932	0.151916
H86	H	0.998666	-0.440138	-0.152204
C87	C	0.411790	-0.070194	-0.000019
C88	C	0.324576	-0.047725	-0.000046
C89	C	0.290254	-0.164398	-0.000113
H90	H	0.429698	-0.117437	0.053137
H91	H	0.429750	-0.117330	-0.053217
H92	H	0.306623	-0.000609	0.053146
H93	H	0.306644	-0.000501	-0.053199
H94	H	0.308215	-0.211534	-0.053311
H95	H	0.308169	-0.211632	0.053044
H96	H	0.231077	-0.149169	-0.000140
H97	H	0.545078	0.385227	0.000049
H98	H	0.854105	-0.411442	0.061787
H99	H	0.578582	-0.034380	0.000027
C100	C	1.099872	-0.006816	0.600181
C101	C	1.055130	-0.084567	0.655269
C102	C	1.111013	-0.171034	0.703309
H103	H	1.134772	0.038712	0.637695
H104	H	1.133223	-0.058278	0.557880
H105	H	1.021794	-0.033111	0.697565
H106	H	1.020233	-0.130123	0.617778
H107	H	1.144364	-0.222495	0.661008
H108	H	1.145910	-0.125494	0.740818
H109	H	1.080664	-0.223805	0.740685
H110	H	0.857734	-0.192912	0.062560
H111	H	0.881520	0.329857	0.587120
H112	H	0.881504	0.329863	0.412986
H113	H	0.996886	-0.220719	-0.151774
C114	C	1.117495	-0.473490	-0.087046
C115	C	1.116003	-0.605985	-0.090368
C116	C	1.197902	-0.665428	-0.091148
H117	H	1.145582	-0.451245	-0.033048
H118	H	1.145975	-0.446194	-0.139337
H119	H	1.087535	-0.633270	-0.038082
H120	H	1.087932	-0.628266	-0.144363
H121	H	1.226382	-0.638133	-0.143438
H122	H	1.225982	-0.643174	-0.037148
H123	H	1.196901	-0.755331	-0.093410
H124	H	1.097687	-0.240584	0.090361
H125	H	1.096785	-0.238781	-0.092612
