data_functionalizedCrystal
_audit_creation_method	'MofGen! by Chris Wilmer'
_symmetry_space_group_name_H-M	'P1'
_symmetry_Int_Tables_number	1
_symmetry_cell_setting	triclinic
loop_
_symmetry_equiv_pos_as_xyz
  x,y,z
_cell_length_a	12.759401
_cell_length_b	19.805405
_cell_length_c	19.805399
_cell_angle_alpha	90.029301
_cell_angle_beta	89.983178
_cell_angle_gamma	89.972065
loop_
_atom_site_label
_atom_site_type_symbol
_atom_site_fract_x
_atom_site_fract_y
_atom_site_fract_z
Zn1	Zn	1.606138	0.269451	-0.382662
Zn2	Zn	2.106138	0.769451	0.117338
Zn3	Zn	1.606006	0.382640	-0.269470
Zn4	Zn	2.106006	0.882640	0.230530
Zn5	Zn	1.430450	0.269473	-0.269492
Zn6	Zn	1.930450	0.769473	0.230508
Zn7	Zn	1.430393	0.382607	-0.382622
Zn8	Zn	1.930393	0.882607	0.117378
O9	O	1.518247	0.326043	-0.326062
O10	O	2.018247	0.826043	0.173938
O11	O	1.753142	0.284471	-0.367654
O12	O	2.253142	0.784471	0.132346
O13	O	1.582686	0.367651	-0.174756
O14	O	2.082686	0.867651	0.325244
O15	O	1.453834	0.174754	-0.284530
O16	O	1.953834	0.674754	0.215470
O17	O	1.753045	0.367630	-0.284493
O18	O	2.253045	0.867630	0.215507
O19	O	1.582912	0.174738	-0.367675
O20	O	2.082912	0.674738	0.132325
O21	O	1.453706	0.284508	-0.174772
O22	O	1.953706	0.784508	0.325228
O23	O	1.283421	0.284476	-0.284491
O24	O	1.783421	0.784476	0.215509
O25	O	1.453737	0.367574	-0.477344
O26	O	1.953737	0.867574	0.022656
O27	O	1.283379	0.367595	-0.367608
O28	O	1.783379	0.867595	0.132392
O29	O	1.582857	0.284439	-0.477373
O30	O	2.082857	0.784439	0.022627
O31	O	1.582631	0.477352	-0.284455
O32	O	2.082631	0.977352	0.215545
O33	O	1.453609	0.477328	-0.367587
O34	O	1.953609	0.977328	0.132413
C35	C	1.245279	0.326034	-0.326048
C36	C	1.745279	0.826034	0.173952
C37	C	1.128503	0.326047	-0.326058
C38	C	1.628503	0.826047	0.173942
C39	C	1.518306	0.326000	-0.502604
C40	C	2.018306	0.826000	-0.002604
C41	C	1.518331	0.325982	-0.577836
C42	C	2.018331	0.825982	-0.077836
C43	C	1.518128	0.501899	-0.326029
C44	C	2.018128	1.001899	0.173971
C45	C	1.518174	0.577131	-0.326037
C46	C	2.018174	1.077131	0.173963
C47	C	1.073647	0.369393	-0.369269
C48	C	1.573647	0.869393	0.130731
C49	C	0.963922	0.369396	-0.369283
C50	C	1.463922	0.869396	0.130717
C51	C	0.963920	0.282705	-0.282869
C52	C	1.463920	0.782705	0.217131
C53	C	1.073642	0.282699	-0.282859
C54	C	1.573642	0.782699	0.217141
C55	C	0.814010	0.393693	-0.449076
C56	C	1.314010	0.893693	0.050924
C57	C	0.759150	0.437049	-0.492280
C58	C	1.259150	0.937049	0.007720
C59	C	0.794726	0.503105	-0.502548
C60	C	1.294726	1.003105	-0.002548
C61	C	0.885159	0.525817	-0.469600
C62	C	1.385159	1.025817	0.030400
C63	C	0.940014	0.482464	-0.426390
C64	C	1.440014	0.982464	0.073610
C65	C	0.904440	0.416399	-0.416136
C66	C	1.404440	0.916399	0.083864
C67	C	1.223557	0.258409	-0.203065
C68	C	1.723557	0.758409	0.296935
C69	C	1.278413	0.215059	-0.159852
C70	C	1.778413	0.715059	0.340148
C71	C	1.242840	0.149003	-0.149578
C72	C	1.742840	0.649003	0.350422
C73	C	1.152402	0.126292	-0.182513
C74	C	1.652402	0.626292	0.317487
C75	C	1.097546	0.169642	-0.225727
C76	C	1.597546	0.669642	0.274273
C77	C	1.133127	0.235698	-0.236002
C78	C	1.633127	0.735698	0.263998
C79	C	1.792280	0.326052	-0.326075
C80	C	2.292280	0.826052	0.173925
C81	C	1.909057	0.326055	-0.326081
C82	C	2.409057	0.826055	0.173919
C83	C	1.518394	0.149500	-0.326109
C84	C	2.018394	0.649500	0.173891
C85	C	1.518457	0.074268	-0.326130
C86	C	2.018457	0.574268	0.173870
C87	C	1.585421	0.612465	-0.282796
C88	C	2.085421	1.112465	0.217204
C89	C	1.585466	0.683153	-0.282811
C90	C	2.085466	1.183153	0.217189
C91	C	1.518257	0.718506	-0.326065
C92	C	2.018257	1.218506	0.173935
C93	C	1.451007	0.683167	-0.369311
C94	C	1.951007	1.183167	0.130689
C95	C	1.450969	0.612480	-0.369299
C96	C	1.950969	1.112480	0.130701
C97	C	1.451162	0.968240	-0.369361
C98	C	1.951162	1.468240	0.130639
C99	C	1.451204	1.038932	-0.369368
C100	C	1.951204	1.538932	0.130632
C101	C	1.585659	1.038914	-0.282873
C102	C	2.085659	1.538914	0.217127
C103	C	1.585621	0.968227	-0.282861
C104	C	2.085621	1.468227	0.217139
C105	C	1.518375	0.932894	-0.326110
C106	C	2.018375	1.432894	0.173890
C107	C	1.518329	0.856245	-0.326094
C108	C	2.018329	1.356245	0.173906
C109	C	1.518297	0.795153	-0.326077
C110	C	2.018297	1.295153	0.173923
C111	C	1.585565	0.282691	-0.613197
C112	C	2.085565	0.782691	-0.113197
C113	C	1.585575	0.282672	-0.683885
C114	C	2.085575	0.782672	-0.183885
C115	C	1.518357	0.325947	-0.719212
C116	C	2.018357	0.825947	-0.219212
C117	C	1.451115	0.369239	-0.683847
C118	C	1.951115	0.869239	-0.183847
C119	C	1.451100	0.369255	-0.613160
C120	C	1.951100	0.869255	-0.113160
C121	C	1.451175	0.369176	-0.968920
C122	C	1.951175	0.869176	-0.468920
C123	C	1.451197	0.369158	-1.039612
C124	C	1.951197	0.869158	-0.539612
C125	C	1.585650	0.282593	-1.039646
C126	C	2.085650	0.782593	-0.539646
C127	C	1.585635	0.282609	-0.968959
C128	C	2.085635	0.782609	-0.468959
C129	C	1.518390	0.325898	-0.933600
C130	C	2.018390	0.825898	-0.433600
C131	C	1.518378	0.325918	-0.856951
C132	C	2.018378	0.825918	-0.356951
C133	C	1.518374	0.325931	-0.795859
C134	C	2.018374	0.825931	-0.295859
C135	C	1.518248	0.326036	-0.150206
C136	C	2.018248	0.826036	0.349794
C137	C	1.518427	0.325864	-0.074974
C138	C	2.018427	0.825864	0.425026
H139	H	1.118311	0.404688	-0.404446
H140	H	1.618311	0.904688	0.095554
C141	C	1.377271	1.077819	-0.416957
C142	C	1.877271	1.577819	0.083043
N143	N	1.321588	1.107109	-0.452799
N144	N	1.821588	1.607109	0.047201
H145	H	1.640344	0.939445	-0.247637
H146	H	2.140344	1.439445	0.252363
H147	H	1.252536	0.312196	-0.211433
H148	H	1.752536	0.812196	0.288567
C149	C	0.903564	0.235028	-0.235349
C150	C	1.403564	0.735028	0.264651
N151	N	0.858104	0.199118	-0.199554
N152	N	1.358104	0.699118	0.300446
H153	H	1.640224	0.711920	-0.247598
H154	H	2.140224	1.211920	0.252402
H155	H	1.396211	0.583711	-0.404512
H156	H	1.896211	1.083711	0.095488
H157	H	1.640400	0.247342	-1.068444
H158	H	2.140400	0.747342	-0.568444
C159	C	0.734377	0.550795	-0.550076
C160	C	1.234377	1.050795	-0.050076
N161	N	0.688921	0.586711	-0.585877
N162	N	1.188921	1.086711	-0.085877
C163	C	1.377073	0.722058	-0.416888
C164	C	1.877073	1.222058	0.083112
N165	N	1.321380	0.751350	-0.452722
N166	N	1.821380	1.251350	0.047278
H167	H	1.640375	0.247372	-0.940199
H168	H	2.140375	0.747372	-0.440199
H169	H	0.914111	0.579609	-0.477958
H170	H	1.414111	1.079609	0.022042
C171	C	1.659355	0.573583	-0.235211
C172	C	2.159355	1.073583	0.264789
N173	N	1.715046	0.544300	-0.199370
N174	N	2.215046	1.044300	0.300630
H175	H	1.640305	0.247454	-0.584439
H176	H	2.140305	0.747454	-0.084439
H177	H	1.396406	0.939478	-0.404574
H178	H	1.896406	1.439478	0.095426
H179	H	1.023912	0.151144	-0.252549
H180	H	1.523912	0.651144	0.247451
H181	H	1.640418	1.067690	-0.247660
H182	H	2.140418	1.567690	0.252340
C183	C	1.659540	0.235050	-0.722778
C184	C	2.159540	0.735050	-0.222778
N185	N	1.715253	0.199179	-0.752072
N186	N	2.215253	0.699179	-0.252072
H187	H	1.013642	0.500957	-0.399565
H188	H	1.513642	1.000957	0.100435
C189	C	0.659680	0.412061	-0.528525
C190	C	1.159680	0.912061	-0.028525
N191	N	0.584759	0.393242	-0.555825
N192	N	1.084759	0.893242	-0.055825
C193	C	1.377241	0.416761	-1.078470
C194	C	1.877241	0.916761	-0.578470
N195	N	1.321539	0.452614	-1.107738
N196	N	1.821539	0.952614	-0.607738
H197	H	1.396435	0.404435	-0.940139
H198	H	1.896435	0.904435	-0.440139
C199	C	0.774875	0.321025	-0.437792
C200	C	1.274875	0.821025	0.062208
N201	N	0.745392	0.266291	-0.429292
N202	N	1.245392	0.766291	0.070708
H203	H	1.396341	0.404499	-0.584370
H204	H	1.896341	0.904499	-0.084370
C205	C	1.113269	0.053626	-0.171213
C206	C	1.613269	0.553626	0.328787
N207	N	1.083796	-0.001108	-0.162698
N208	N	1.583796	0.498892	0.337302
C209	C	1.377907	0.240040	-0.123630
C210	C	1.877907	0.740040	0.376370
N211	N	1.452850	0.258854	-0.096353
N212	N	1.952850	0.758854	0.403647
C213	C	1.303167	0.101326	-0.102021
C214	C	1.803167	0.601326	0.397979
N215	N	1.348596	0.065417	-0.066198
N216	N	1.848596	0.565417	0.433802
C217	C	1.377164	0.416835	-0.722709
C218	C	1.877164	0.916835	-0.222709
N219	N	1.321461	0.452685	-0.751979
N220	N	1.821461	0.952685	-0.251979
