data_functionalizedCrystal
_audit_creation_method	'MofGen! by Chris Wilmer'
_symmetry_space_group_name_H-M	'P1'
_symmetry_Int_Tables_number	1
_symmetry_cell_setting	triclinic
loop_
_symmetry_equiv_pos_as_xyz
  x,y,z
_cell_length_a	19.077105
_cell_length_b	19.076919
_cell_length_c	21.395361
_cell_angle_alpha	92.266553
_cell_angle_beta	87.726871
_cell_angle_gamma	90.076224
loop_
_atom_site_label
_atom_site_type_symbol
_atom_site_fract_x
_atom_site_fract_y
_atom_site_fract_z
Zn1	Zn	1.058234	-0.440387	-0.303112
Zn2	Zn	1.062862	-0.322870	-0.403852
Zn3	Zn	0.945453	-0.318181	-0.294719
Zn4	Zn	0.940684	-0.435622	-0.403474
O5	O	1.001809	-0.379265	-0.351289
O6	O	1.157180	-0.428754	-0.320146
O7	O	1.051221	-0.223917	-0.386021
O8	O	0.960473	-0.334424	-0.208157
O9	O	1.160580	-0.342415	-0.394159
O10	O	1.043333	-0.424208	-0.214324
O11	O	0.964961	-0.220472	-0.305841
O12	O	0.846489	-0.329804	-0.305474
O13	O	0.952345	-0.534585	-0.393515
O14	O	0.842985	-0.416087	-0.385377
O15	O	1.038708	-0.538086	-0.319780
O16	O	1.046596	-0.337795	-0.491476
O17	O	0.956832	-0.420634	-0.491199
C18	C	0.819241	-0.371920	-0.344474
C19	C	0.741137	-0.368795	-0.341575
C20	C	0.702641	-0.412179	-0.381871
C21	C	0.629254	-0.409245	-0.379138
C22	C	0.594365	-0.362924	-0.336112
C23	C	0.632866	-0.319538	-0.295811
C24	C	0.706252	-0.322475	-0.298541
C25	C	0.375079	-0.349333	-0.323476
C26	C	0.301688	-0.346397	-0.320750
C27	C	0.298081	-0.436106	-0.404077
C28	C	0.371468	-0.439036	-0.406806
C29	C	0.409963	-0.395653	-0.366503
N30	N	0.519352	-0.359923	-0.333319
N31	N	0.484975	-0.398658	-0.369294
C32	C	0.994478	-0.562544	-0.357542
C33	C	0.991355	-0.640647	-0.360206
C34	C	1.034850	-0.679164	-0.323069
C35	C	1.031906	-0.752549	-0.325570
C36	C	0.985471	-0.787417	-0.365211
C37	C	0.941971	-0.748895	-0.402349
C38	C	0.944911	-0.675511	-0.399845
C39	C	0.971851	-1.006697	-0.376815
C40	C	0.968915	-1.080087	-0.379318
C41	C	1.058850	-1.083735	-0.302538
C42	C	1.061790	-1.010350	-0.300039
C43	C	1.018287	-0.971834	-0.337175
N44	N	0.982462	-0.862429	-0.367770
N45	N	1.021293	-0.896824	-0.334613
C46	C	1.185089	-0.386639	-0.358131
C47	C	1.263192	-0.389781	-0.361047
C48	C	1.001717	-0.379222	-0.514072
C49	C	1.001742	-0.379230	-0.583714
C50	C	1.009151	-0.196700	-0.345017
C51	C	1.012411	-0.118603	-0.342181
C52	C	1.048520	-0.336143	-0.616554
C53	C	1.048552	-0.336160	-0.681991
C54	C	1.001794	-0.379256	-0.714585
C55	C	0.955012	-0.422351	-0.681738
C56	C	0.954986	-0.422338	-0.616302
C57	C	0.938302	-0.382224	-0.816131
C58	C	0.938327	-0.382232	-0.881566
C59	C	1.001874	-0.379301	-0.916411
C60	C	1.065398	-0.376346	-0.885813
C61	C	1.065372	-0.376333	-0.820378
C62	C	1.001817	-0.379275	-0.785539
C63	C	1.048690	-0.336230	-1.020205
C64	C	1.048723	-0.336252	-1.085644
C65	C	0.955178	-0.422439	-1.085388
C66	C	0.955151	-0.422421	-1.019951
C67	C	1.001906	-0.379313	-0.987364
C68	C	1.001919	-0.379324	-0.187872
C69	C	1.001966	-0.379349	-0.118233
H70	H	0.604454	-0.281825	-0.260775
H71	H	0.917109	-0.457532	-1.111926
H72	H	0.936439	-0.975347	-0.407063
O73	O	1.133880	-0.373152	-0.787371
H74	H	1.166560	-0.419254	-0.802687
O75	O	0.904680	-0.468874	-0.984523
H76	H	0.872162	-0.498837	-1.018179
O77	O	0.869816	-0.385418	-0.914567
H78	H	0.825624	-0.387468	-0.879346
O79	O	0.747779	-0.275675	-0.255086
H80	H	0.711191	-0.242964	-0.224714
H81	H	1.117144	-0.373959	-0.914183
H82	H	1.072665	-0.650780	-0.290791
O83	O	1.099178	-0.289777	-1.121069
H84	H	1.131678	-0.259796	-1.087412
H85	H	1.086764	-0.301131	-0.993671
O86	O	1.099001	-0.289681	-0.717424
H87	H	1.131504	-0.259699	-0.683770
H88	H	0.399870	-0.476755	-0.441844
O89	O	0.869758	-0.385381	-0.778549
H90	H	0.825591	-0.387425	-0.810816
H91	H	1.067326	-0.783906	-0.295331
O92	O	0.264060	-0.296410	-0.274358
H93	H	0.206564	-0.301643	-0.279245
H94	H	0.916942	-0.457441	-0.708280
O95	O	0.904519	-0.468798	-0.580875
H96	H	0.872003	-0.498764	-0.614529
H97	H	0.731042	-0.449897	-0.416910
O98	O	0.256583	-0.482878	-0.447577
H99	H	0.268481	-0.538620	-0.439343
O100	O	0.891879	-0.786500	-0.445101
H101	H	0.921965	-0.821185	-0.479298
O102	O	1.111877	-0.972741	-0.257287
H103	H	1.141626	-1.011854	-0.231880
H104	H	0.597913	-0.444573	-0.411952
H105	H	0.909486	-0.644151	-0.430079
O106	O	1.098958	-0.289659	-0.581409
H107	H	1.089167	-0.234020	-0.591675
O108	O	0.416596	-0.302521	-0.280028
H109	H	0.380005	-0.269807	-0.249662
H110	H	1.094267	-1.115102	-0.272303
H111	H	0.931100	-1.108474	-0.411600
