data_functionalizedCrystal
_audit_creation_method	'MofGen! by Chris Wilmer'
_symmetry_space_group_name_H-M	'P1'
_symmetry_Int_Tables_number	1
_symmetry_cell_setting	triclinic
loop_
_symmetry_equiv_pos_as_xyz
  x,y,z
_cell_length_a	19.288874
_cell_length_b	14.971486
_cell_length_c	17.766277
_cell_angle_alpha	89.995240
_cell_angle_beta	89.994527
_cell_angle_gamma	83.377177
loop_
_atom_site_label
_atom_site_type_symbol
_atom_site_fract_x
_atom_site_fract_y
_atom_site_fract_z
O1	O	0.090515	1.186466	-0.062509
O2	O	0.423848	1.519800	0.270825
O3	O	0.757182	1.853133	0.604158
O4	O	0.101355	0.926008	-0.062529
O5	O	0.434688	1.259341	0.270804
O6	O	0.768021	1.592675	0.604138
O7	O	-0.005171	1.063759	-0.062512
O8	O	0.328163	1.397092	0.270821
O9	O	0.661496	1.730425	0.604154
O10	O	0.197040	1.048716	-0.062525
O11	O	0.530373	1.382049	0.270808
O12	O	0.863707	1.715382	0.604141
O13	O	-0.005173	1.063733	0.062676
O14	O	0.328160	1.397066	0.396009
O15	O	0.661494	1.730400	0.729343
O16	O	0.101352	0.925982	0.062659
O17	O	0.434685	1.259316	0.395993
O18	O	0.768019	1.592649	0.729326
O19	O	0.090512	1.186441	0.062680
O20	O	0.423846	1.519774	0.396013
O21	O	0.757179	1.853107	0.729347
Cu22	Cu	0.095932	1.056209	0.074100
Cu23	Cu	0.429265	1.389543	0.407434
Cu24	Cu	0.762599	1.722876	0.740767
Cu25	Cu	0.095935	1.056239	-0.073950
Cu26	Cu	0.429268	1.389573	0.259384
Cu27	Cu	0.762602	1.722906	0.592717
O28	O	0.197038	1.048690	0.062663
O29	O	0.530371	1.382023	0.395996
O30	O	0.863704	1.715357	0.729330
C31	C	0.100869	0.892673	0.000063
C32	C	0.434202	1.226006	0.333396
C33	C	0.767535	1.559340	0.666729
C34	C	0.099416	0.793384	0.000055
C35	C	0.432749	1.126717	0.333388
C36	C	0.766082	1.460050	0.666721
C37	C	-0.031050	1.063260	0.000082
C38	C	0.302284	1.396594	0.333415
C39	C	0.635617	1.729927	0.666748
C40	C	-0.108158	1.061803	0.000081
C41	C	0.225176	1.395136	0.333415
C42	C	0.558509	1.728470	0.666748
C43	C	0.161996	0.735823	0.000052
C44	C	0.495330	1.069156	0.333385
C45	C	0.828663	1.402490	0.666719
C46	C	0.160627	0.642531	0.000063
C47	C	0.493961	0.975864	0.333397
C48	C	0.827294	1.309198	0.666730
C49	C	0.096677	0.606801	0.000072
C50	C	0.430010	0.940135	0.333405
C51	C	0.763344	1.273468	0.666739
C52	C	0.034091	0.664370	0.000077
C53	C	0.367425	0.997703	0.333411
C54	C	0.700758	1.331036	0.666744
C55	C	0.035461	0.757660	0.000071
C56	C	0.368795	1.090993	0.333405
C57	C	0.702128	1.424327	0.666738
C58	C	0.031241	0.469922	0.000088
C59	C	0.364574	0.803256	0.333421
C60	C	0.697907	1.136589	0.666754
C61	C	0.029871	0.376626	0.000092
C62	C	0.363204	0.709959	0.333426
C63	C	0.696537	1.043292	0.666759
C64	C	0.156407	0.354793	0.000080
C65	C	0.489740	0.688127	0.333413
C66	C	0.823073	1.021460	0.666746
C67	C	0.157777	0.448084	0.000074
C68	C	0.491110	0.781417	0.333407
C69	C	0.824443	1.114750	0.666740
C70	C	0.095191	0.505645	0.000078
C71	C	0.428524	0.838979	0.333411
C72	C	0.761857	1.172312	0.666744
C73	C	-0.663762	1.051325	0.068302
C74	C	-0.330429	1.384659	0.401636
C75	C	0.002904	1.717992	0.734969
C76	C	-0.591310	1.052685	0.068307
C77	C	-0.257977	1.386018	0.401640
C78	C	0.075356	1.719352	0.734973
C79	C	-0.555076	1.053383	0.000067
C80	C	-0.221742	1.386716	0.333401
C81	C	0.111591	1.720050	0.666734
C82	C	-0.591297	1.052698	-0.068181
C83	C	-0.257963	1.386031	0.265152
C84	C	0.075370	1.719365	0.598485
C85	C	-0.663746	1.051329	-0.068184
C86	C	-0.330413	1.384663	0.265150
C87	C	0.002920	1.717996	0.598483
C88	C	-0.445565	1.107949	-0.052207
C89	C	-0.112232	1.441282	0.281126
C90	C	0.221101	1.774616	0.614460
C91	C	-0.373117	1.109323	-0.052202
C92	C	-0.039784	1.442656	0.281131
C93	C	0.293549	1.775990	0.614465
C94	C	-0.331616	1.057600	0.000071
C95	C	0.001718	1.390933	0.333405
C96	C	0.335051	1.724267	0.666738
C97	C	-0.362572	1.004514	0.052352
C98	C	-0.029239	1.337848	0.385686
C99	C	0.304095	1.671181	0.719019
C100	C	-0.435022	1.003146	0.052350
C101	C	-0.101689	1.336479	0.385683
C102	C	0.231645	1.669812	0.719017
C103	C	-0.476516	1.054866	0.000062
C104	C	-0.143182	1.388200	0.333395
C105	C	0.190151	1.721533	0.666729
C106	C	-0.216842	1.059753	0.068320
C107	C	0.116492	1.393086	0.401653
C108	C	0.449825	1.726419	0.734987
C109	C	-0.144388	1.061107	0.068321
C110	C	0.188946	1.394440	0.401655
C111	C	0.522279	1.727773	0.734988
C112	C	-0.144376	1.061129	-0.068169
C113	C	0.188957	1.394462	0.265165
C114	C	0.522290	1.727795	0.598498
C115	C	-0.216828	1.059766	-0.068168
C116	C	0.116505	1.393099	0.265165
C117	C	0.449839	1.726432	0.598499
C118	C	-0.253057	1.059082	0.000079
C119	C	0.080277	1.392415	0.333412
C120	C	0.413610	1.725749	0.666745
C121	C	0.222917	1.049188	0.000067
C122	C	0.556250	1.382522	0.333401
C123	C	0.889583	1.715855	0.666734
C124	C	0.300025	1.050646	0.000063
C125	C	0.633358	1.383979	0.333396
C126	C	0.966691	1.717312	0.666729
C127	C	0.090998	1.219776	0.000087
C128	C	0.424332	1.553109	0.333420
C129	C	0.757665	1.886442	0.666753
C130	C	0.092451	1.319065	0.000089
C131	C	0.425784	1.652398	0.333423
C132	C	0.759118	1.985732	0.666756
N133	N	0.095929	1.056195	0.178231
N134	N	0.429263	1.389528	0.511564
N135	N	0.762596	1.722861	0.844897
C136	C	0.138130	1.110265	0.217613
C137	C	0.471463	1.443598	0.550946
C138	C	0.804796	1.776932	0.884280
C139	C	0.138128	1.110278	0.296415
C140	C	0.471461	1.443612	0.629748
C141	C	0.804795	1.776945	0.963081
C142	C	0.095934	1.056205	0.335831
C143	C	0.429268	1.389538	0.669165
C144	C	0.762601	1.722872	1.002498
C145	C	0.053726	1.002131	0.296439
C146	C	0.387059	1.335465	0.629773
C147	C	0.720392	1.668798	0.963106
C148	C	0.053723	1.002126	0.217639
C149	C	0.387057	1.335459	0.550973
C150	C	0.720390	1.668793	0.884306
C151	C	0.093915	0.975576	0.460684
C152	C	0.427249	1.308909	0.794018
C153	C	0.760582	1.642242	1.127351
C154	C	0.093923	0.975579	0.539483
C155	C	0.427256	1.308912	0.872817
C156	C	0.760589	1.642246	1.206150
C157	C	0.095938	1.056222	0.578878
C158	C	0.429271	1.389555	0.912211
C159	C	0.762605	1.722888	1.245544
C160	C	0.097960	1.136863	0.539463
C161	C	0.431293	1.470196	0.872797
C162	C	0.764627	1.803529	1.206130
C163	C	0.097958	1.136857	0.460663
C164	C	0.431291	1.470191	0.793996
C165	C	0.764624	1.803524	1.127330
C166	C	0.095932	1.056205	0.421277
C167	C	0.429265	1.389538	0.754610
C168	C	0.762599	1.722872	1.087944
C169	C	0.138138	1.110311	0.703706
C170	C	0.471472	1.443645	1.037039
C171	C	0.804805	1.776978	1.370372
C172	C	0.138132	1.110327	0.782509
C173	C	0.471465	1.443660	1.115842
C174	C	0.804799	1.776994	1.449176
C175	C	0.053734	1.002171	0.782532
C176	C	0.387067	1.335505	1.115866
C177	C	0.720400	1.668838	1.449199
C178	C	0.053736	1.002164	0.703730
C179	C	0.387070	1.335497	1.037064
C180	C	0.720403	1.668831	1.370397
C181	C	0.095942	1.056233	0.664322
C182	C	0.429276	1.389566	0.997655
C183	C	0.762609	1.722899	1.330989
N184	N	0.095937	1.056254	0.821920
N185	N	0.429270	1.389587	1.155253
N186	N	0.762604	1.722921	1.488587
H187	H	0.211587	0.595668	0.000060
H188	H	0.544920	0.929001	0.333393
H189	H	0.878254	1.262334	0.666727
H190	H	-0.015498	0.804526	0.000073
H191	H	0.317835	1.137859	0.333407
H192	H	0.651168	1.471193	0.666740
H193	H	0.019358	0.958094	0.185575
H194	H	0.352691	1.291427	0.518908
H195	H	0.686025	1.624760	0.852241
C196	C	-0.256665	1.059029	-0.143232
C197	C	0.076668	1.392363	0.190101
C198	C	0.410001	1.725696	0.523434
H199	H	-0.224711	1.059646	-0.183874
H200	H	0.108622	1.392980	0.149459
H201	H	0.441955	1.726313	0.482793
H202	H	-0.279676	1.006349	-0.146074
H203	H	0.053657	1.339683	0.187260
H204	H	0.386990	1.673016	0.520593
H205	H	-0.290179	1.110652	-0.146066
H206	H	0.043154	1.443985	0.187267
H207	H	0.376487	1.777318	0.520600
C208	C	-0.339069	1.167720	-0.109701
C209	C	-0.005735	1.501053	0.223633
C210	C	0.327598	1.834387	0.556966
H211	H	-0.289978	1.161139	-0.102206
H212	H	0.043355	1.494472	0.231127
H213	H	0.376689	1.827806	0.564461
H214	H	-0.349078	1.149084	-0.159244
H215	H	-0.015745	1.482418	0.174089
H216	H	0.317589	1.815751	0.507423
H217	H	-0.357140	1.228975	-0.103112
H218	H	-0.023807	1.562308	0.230221
H219	H	0.309527	1.895641	0.563554
H220	H	-0.246340	1.059188	0.123890
H221	H	0.086993	1.392521	0.457224
H222	H	0.420327	1.725855	0.790557
H223	H	-0.561818	1.053222	0.123877
H224	H	-0.228485	1.386555	0.457211
H225	H	0.104848	1.719888	0.790544
H226	H	0.172505	1.154338	0.671618
H227	H	0.505838	1.487671	1.004951
H228	H	0.839171	1.821005	1.338284
C229	C	-0.037602	0.533238	0.000083
C230	C	0.295731	0.866572	0.333416
C231	C	0.629064	1.199905	0.666750
H232	H	-0.075885	0.498600	0.000079
H233	H	0.257448	0.831933	0.333412
H234	H	0.590781	1.165266	0.666746
H235	H	-0.039705	0.570091	0.043733
H236	H	0.293628	0.903424	0.377067
H237	H	0.626961	1.236757	0.710400
H238	H	-0.039690	0.570078	-0.043584
H239	H	0.293643	0.903412	0.289749
H240	H	0.626976	1.236745	0.623083
C241	C	-0.469071	0.944747	0.109846
C242	C	-0.135738	1.278080	0.443179
C243	C	0.197596	1.611413	0.776513
H244	H	-0.433982	0.914130	0.140977
H245	H	-0.100649	1.247464	0.474310
H246	H	0.232685	1.580797	0.807644
H247	H	-0.501144	0.981974	0.140081
H248	H	-0.167811	1.315307	0.473414
H249	H	0.165523	1.648641	0.806748
H250	H	-0.493084	0.902088	0.083945
H251	H	-0.159751	1.235422	0.417278
H252	H	0.173582	1.568755	0.750611
H253	H	-0.022203	0.347538	0.000101
H254	H	0.311130	0.680872	0.333434
H255	H	0.644463	1.014205	0.666767
H256	H	-0.328783	0.962399	0.094920
H257	H	0.004551	1.295732	0.428254
H258	H	0.337884	1.629066	0.761587
C259	C	0.184545	1.169746	0.174264
C260	C	0.517879	1.503080	0.507598
C261	C	0.851212	1.836413	0.840931
H262	H	0.178504	1.161997	0.121692
H263	H	0.511838	1.495331	0.455026
H264	H	0.845171	1.828664	0.788359
H265	H	0.171720	1.230994	0.187176
H266	H	0.505053	1.564328	0.520510
H267	H	0.838386	1.897661	0.853843
H268	H	0.232053	1.152930	0.187172
H269	H	0.565386	1.486263	0.520506
H270	H	0.898719	1.819596	0.853839
H271	H	-0.561789	1.053263	-0.123742
H272	H	-0.228456	1.386596	0.209591
H273	H	0.104877	1.719930	0.542924
C274	C	-0.104553	1.061856	0.143389
C275	C	0.228780	1.395189	0.476722
C276	C	0.562113	1.728523	0.810056
H277	H	-0.136510	1.061262	0.184030
H278	H	0.196823	1.394595	0.517364
H279	H	0.530157	1.727928	0.850697
H280	H	-0.071039	1.010241	0.146231
H281	H	0.262294	1.343575	0.479565
H282	H	0.595628	1.676908	0.812898
H283	H	-0.081544	1.114544	0.146223
H284	H	0.251789	1.447877	0.479556
H285	H	0.585122	1.781211	0.812889
C286	C	-0.104527	1.061901	-0.143231
C287	C	0.228806	1.395234	0.190103
C288	C	0.562139	1.728568	0.523436
H289	H	-0.056192	1.062820	-0.133457
H290	H	0.277141	1.396153	0.199876
H291	H	0.610474	1.729486	0.533210
H292	H	-0.111145	1.009536	-0.171277
H293	H	0.222188	1.342870	0.162056
H294	H	0.555521	1.676203	0.495389
H295	H	-0.121652	1.113839	-0.171263
H296	H	0.211681	1.447172	0.162070
H297	H	0.545014	1.780505	0.495403
H298	H	-0.479350	1.150064	-0.094783
H299	H	-0.146017	1.483397	0.238551
H300	H	0.187317	1.816731	0.571884
H301	H	0.099604	1.202529	0.571537
H302	H	0.432938	1.535863	0.904870
H303	H	0.766271	1.869196	1.238203
H304	H	-0.693255	1.050767	0.123874
H305	H	-0.359922	1.384101	0.457207
H306	H	-0.026589	1.717434	0.790541
C307	C	-0.703584	1.050597	-0.143250
C308	C	-0.370250	1.383930	0.190083
C309	C	-0.036917	1.717264	0.523416
H310	H	-0.671630	1.051213	-0.183893
H311	H	-0.338297	1.384547	0.149441
H312	H	-0.004964	1.717880	0.482774
H313	H	-0.726600	0.997921	-0.146095
H314	H	-0.393267	1.331254	0.187239
H315	H	-0.059933	1.664588	0.520572
H316	H	-0.737094	1.102224	-0.146080
H317	H	-0.403761	1.435557	0.187253
H318	H	-0.070427	1.768890	0.520587
H319	H	0.092280	0.909916	0.571568
H320	H	0.425613	1.243249	0.904902
H321	H	0.758947	1.576583	1.238235
C322	C	0.184557	1.169749	0.339745
C323	C	0.517890	1.503083	0.673078
C324	C	0.851223	1.836416	1.006411
H325	H	0.209696	1.201944	0.304988
H326	H	0.543029	1.535277	0.638321
H327	H	0.876363	1.868610	0.971655
H328	H	0.156154	1.211031	0.370489
H329	H	0.489488	1.544365	0.703822
H330	H	0.822821	1.877698	1.037155
H331	H	0.216476	1.132952	0.370479
H332	H	0.549809	1.466285	0.703812
H333	H	0.883142	1.799619	1.037146
H334	H	0.099603	1.202518	0.428575
H335	H	0.432936	1.535851	0.761909
H336	H	0.766269	1.869185	1.095242
C337	C	0.184555	1.169803	0.825833
C338	C	0.517889	1.503137	1.159167
C339	C	0.851222	1.836470	1.492500
H340	H	0.178508	1.162071	0.878409
H341	H	0.511841	1.495404	1.211742
H342	H	0.845174	1.828738	1.545075
H343	H	0.232057	1.152983	0.812916
H344	H	0.565391	1.486317	1.146249
H345	H	0.898724	1.819650	1.479582
H346	H	0.171730	1.231056	0.812913
H347	H	0.505064	1.564389	1.146246
H348	H	0.838397	1.897722	1.479579
C349	C	0.228120	0.487385	0.000066
C350	C	0.561453	0.820718	0.333399
C351	C	0.894787	1.154052	0.666732
H352	H	0.265198	0.439744	0.000072
H353	H	0.598531	0.773077	0.333405
H354	H	0.931864	1.106411	0.666739
H355	H	0.231285	0.523327	-0.043591
H356	H	0.564618	0.856660	0.289742
H357	H	0.897952	1.189994	0.623075
H358	H	0.231279	0.523321	0.043726
H359	H	0.564612	0.856654	0.377060
H360	H	0.897946	1.189988	0.710393
C361	C	0.007322	0.942691	0.825881
C362	C	0.340655	1.276024	1.159214
C363	C	0.673988	1.609357	1.492547
H364	H	0.013369	0.950433	0.878453
H365	H	0.346703	1.283766	1.211786
H366	H	0.680036	1.617100	1.545119
H367	H	-0.040182	0.959498	0.812971
H368	H	0.293151	1.292831	1.146304
H369	H	0.626485	1.626164	1.479637
H370	H	0.020155	0.881438	0.812973
H371	H	0.353488	1.214771	1.146306
H372	H	0.686821	1.548104	1.479639
H373	H	0.019375	0.958130	0.671665
H374	H	0.352708	1.291464	1.004998
H375	H	0.686042	1.624797	1.338332
C376	C	0.225250	0.291480	0.000078
C377	C	0.558583	0.624813	0.333411
C378	C	0.891916	0.958147	0.666744
H379	H	0.215277	0.230802	0.000091
H380	H	0.548610	0.564135	0.333424
H381	H	0.881944	0.897469	0.666757
H382	H	0.251467	0.302282	-0.043584
H383	H	0.584800	0.635616	0.289750
H384	H	0.918134	0.968949	0.623083
H385	H	0.251470	0.302284	0.043734
H386	H	0.584804	0.635617	0.377067
H387	H	0.918137	0.968951	0.710401
H388	H	0.092279	0.909901	0.428616
H389	H	0.425612	1.243234	0.761949
H390	H	0.758946	1.576568	1.095283
H391	H	0.214072	0.764906	0.000044
H392	H	0.547406	1.098239	0.333377
H393	H	0.880739	1.431573	0.666711
H394	H	0.019371	0.958105	0.328537
H395	H	0.352704	1.291438	0.661871
H396	H	0.686037	1.624772	0.995204
H397	H	-0.017978	0.635271	0.000095
H398	H	0.315355	0.968605	0.333429
H399	H	0.648688	1.301938	0.666762
