data_functionalizedCrystal
_audit_creation_method	'MofGen! by Chris Wilmer'
_symmetry_space_group_name_H-M	'P1'
_symmetry_Int_Tables_number	1
_symmetry_cell_setting	triclinic
loop_
_symmetry_equiv_pos_as_xyz
  x,y,z
_cell_length_a	16.625548
_cell_length_b	12.594516
_cell_length_c	16.625539
_cell_angle_alpha	90.023327
_cell_angle_beta	90.020568
_cell_angle_gamma	90.017121
loop_
_atom_site_label
_atom_site_type_symbol
_atom_site_fract_x
_atom_site_fract_y
_atom_site_fract_z
Zn1	Zn	1.232716	-0.423710	0.455937
Zn2	Zn	1.732716	0.076290	0.955937
Zn3	Zn	1.232635	-0.601711	0.321116
Zn4	Zn	1.732635	-0.101711	0.821116
Zn5	Zn	1.097878	-0.423750	0.321118
Zn6	Zn	1.597878	0.076250	0.821118
Zn7	Zn	1.097864	-0.601650	0.455906
Zn8	Zn	1.597864	-0.101650	0.955906
O9	O	1.165273	-0.512705	0.388519
O10	O	1.665273	-0.012705	0.888519
O11	O	1.345538	-0.447331	0.438065
O12	O	1.845538	0.052669	0.938065
O13	O	1.214731	-0.578147	0.208284
O14	O	1.714731	-0.078147	0.708284
O15	O	1.115805	-0.274799	0.339016
O16	O	1.615805	0.225201	0.839016
O17	O	1.345478	-0.578108	0.339013
O18	O	1.845478	-0.078108	0.839013
O19	O	1.214870	-0.274769	0.438067
O20	O	1.714870	0.225231	0.938067
O21	O	1.115726	-0.447400	0.208285
O22	O	1.615726	0.052600	0.708285
O23	O	0.985044	-0.447341	0.338985
O24	O	1.485044	0.052659	0.838985
O25	O	1.115780	-0.578003	0.568743
O26	O	1.615780	-0.078003	1.068743
O27	O	0.985033	-0.578043	0.438014
O28	O	1.485033	-0.078043	0.938014
O29	O	1.214856	-0.447271	0.568766
O30	O	1.714856	0.052729	1.068766
O31	O	1.214717	-0.750649	0.338983
O32	O	1.714717	-0.250649	0.838983
O33	O	1.115701	-0.750604	0.438012
O34	O	1.615701	-0.250604	0.938012
C35	C	0.955782	-0.512690	0.388497
C36	C	1.455782	-0.012690	0.888497
C37	C	0.866161	-0.512709	0.388506
C38	C	1.366161	-0.012709	0.888506
C39	C	0.537986	-0.512716	0.388541
C40	C	1.037986	-0.012716	0.888541
C41	C	0.629294	-0.512711	0.388529
C42	C	1.129294	-0.012711	0.888529
C43	C	0.702071	-0.512713	0.388523
C44	C	1.202071	-0.012713	0.888523
C45	C	0.793385	-0.512707	0.388512
C46	C	1.293385	-0.012707	0.888512
C47	C	1.165220	-0.789246	0.388511
C48	C	1.665220	-0.289246	0.888511
C49	C	1.165272	-0.907552	0.388535
C50	C	1.665272	-0.407552	0.888535
C51	C	1.111412	-0.976819	0.442359
C52	C	1.611412	-0.476819	0.942359
C53	C	1.091767	-1.047680	0.368785
C54	C	1.591767	-0.547680	0.868785
C55	C	1.184990	-1.047490	0.462122
C56	C	1.684990	-0.547490	0.962122
C57	C	1.145588	-0.976855	0.314921
C58	C	1.645588	-0.476855	0.814921
C59	C	1.238845	-0.976658	0.408308
C60	C	1.738845	-0.476658	0.908308
C61	C	1.219228	-1.047487	0.334683
C62	C	1.719228	-0.547487	0.834683
C63	C	1.375582	-0.512721	0.388542
C64	C	1.875582	-0.012721	0.888542
C65	C	1.465203	-0.512728	0.388552
C66	C	1.965203	-0.012728	0.888552
C67	C	1.165326	-0.512626	0.598828
C68	C	1.665326	-0.012626	1.098828
C69	C	1.165348	-0.512592	0.688449
C70	C	1.665348	-0.012592	1.188449
C71	C	1.165348	-0.235085	0.388545
C72	C	1.665348	0.264915	0.888545
C73	C	1.165380	-0.116779	0.388556
C74	C	1.665380	0.383221	0.888556
C75	C	1.165267	-0.512708	0.179028
C76	C	1.665267	-0.012708	0.679028
C77	C	1.165401	-0.512442	0.089408
C78	C	1.665401	-0.012442	0.589408
C79	C	1.165385	-0.512473	1.016625
C80	C	1.665385	-0.012473	1.516625
C81	C	1.165373	-0.512510	0.925317
C82	C	1.665373	-0.012510	1.425317
C83	C	1.165367	-0.512534	0.852540
C84	C	1.665367	-0.012534	1.352540
C85	C	1.165354	-0.512568	0.761226
C86	C	1.665354	-0.012568	1.261226
H87	H	1.065783	-0.945789	0.487811
H88	H	1.565783	-0.445789	0.987811
H89	H	1.201624	-1.078517	0.524346
H90	H	1.701624	-0.578517	1.024346
C91	C	1.123139	-0.823978	0.231660
C92	C	1.623139	-0.323978	0.731660
C93	C	1.123028	-0.935152	0.230899
C94	C	1.623028	-0.435152	0.730899
H95	H	1.109204	-0.798233	0.179790
H96	H	1.609204	-0.298233	0.679790
H97	H	1.175197	-0.799076	0.245778
H98	H	1.675197	-0.299076	0.745778
H99	H	1.085080	-0.799228	0.269919
H100	H	1.585080	-0.299228	0.769919
H101	H	1.161092	-0.959901	0.192643
H102	H	1.661092	-0.459901	0.692643
H103	H	1.070962	-0.960064	0.216771
H104	H	1.570962	-0.460064	0.716771
C105	C	0.951472	-1.054138	0.402640
C106	C	1.451472	-0.554138	0.902640
C107	C	1.007839	-1.089800	0.346211
C108	C	1.507839	-0.589800	0.846211
H109	H	0.899659	-1.080144	0.388709
H110	H	1.399659	-0.580144	0.888709
H111	H	0.950705	-0.978730	0.402946
H112	H	1.450705	-0.478730	0.902946
H113	H	0.965819	-1.079369	0.454535
H114	H	1.465819	-0.579369	0.954535
H115	H	0.993495	-1.064562	0.294316
H116	H	1.493495	-0.564562	0.794316
H117	H	1.008604	-1.165224	0.345897
H118	H	1.508604	-0.665224	0.845897
H119	H	1.264822	-1.078321	0.289122
H120	H	1.764822	-0.578321	0.789122
C121	C	1.343224	-0.970092	0.508023
C122	C	1.843224	-0.470092	1.008023
C123	C	1.322750	-0.934502	0.430910
C124	C	1.822750	-0.434502	0.930910
H125	H	1.395021	-0.944058	0.521983
H126	H	1.895021	-0.444058	1.021983
H127	H	1.343756	-1.045498	0.508676
H128	H	1.843756	-0.545498	1.008676
H129	H	1.304785	-0.944838	0.545709
H130	H	1.804785	-0.444838	1.045709
H131	H	1.361186	-0.959763	0.393222
H132	H	1.861186	-0.459763	0.893222
H133	H	1.322224	-0.859080	0.430251
H134	H	1.822224	-0.359080	0.930251
