data_functionalizedCrystal
_audit_creation_method	'MofGen! by Chris Wilmer'
_symmetry_space_group_name_H-M	'P1'
_symmetry_Int_Tables_number	1
_symmetry_cell_setting	triclinic
loop_
_symmetry_equiv_pos_as_xyz
  x,y,z
_cell_length_a	13.635800
_cell_length_b	17.982959
_cell_length_c	11.102291
_cell_angle_alpha	85.764207
_cell_angle_beta	108.605752
_cell_angle_gamma	77.548143
loop_
_atom_site_label
_atom_site_type_symbol
_atom_site_fract_x
_atom_site_fract_y
_atom_site_fract_z
V1	V	2.040203	-0.105422	0.396790
O2	O	2.036032	0.005056	0.388690
O3	O	2.013293	-0.209025	0.394601
O4	O	2.028834	-0.103805	0.569604
O5	O	2.020384	-0.100892	0.212476
V6	V	2.280705	-0.092207	0.374681
O7	O	2.173594	-0.134410	0.445288
O8	O	2.372413	-0.063219	0.326182
O9	O	2.196011	0.011396	0.376869
O10	O	2.343574	-0.202685	0.382780
O11	O	2.359222	-0.096737	0.558994
O12	O	2.180471	-0.093824	0.201866
V13	V	2.540203	-0.105422	0.396790
O14	O	2.536032	0.005056	0.388690
O15	O	2.513293	-0.209025	0.394601
O16	O	2.528834	-0.103805	0.569604
O17	O	2.520384	-0.100892	0.212476
V18	V	2.780705	-0.092207	0.374681
O19	O	2.673594	-0.134410	0.445288
O20	O	2.872413	-0.063219	0.326182
O21	O	2.696011	0.011396	0.376869
O22	O	2.843574	-0.202685	0.382780
O23	O	2.859222	-0.096737	0.558994
O24	O	2.680471	-0.093824	0.201866
C25	C	1.934719	-0.234281	0.388477
C26	C	1.953446	-0.318977	0.387840
C27	C	2.053674	-0.362649	0.393899
C28	C	2.071266	-0.442231	0.393308
C29	C	1.988626	-0.478139	0.386648
C30	C	1.888390	-0.434462	0.380592
C31	C	1.870802	-0.354883	0.381192
C32	C	1.959321	-0.755398	0.378171
C33	C	1.976916	-0.834983	0.377567
C34	C	2.159785	-0.842746	0.390286
C35	C	2.142197	-0.763166	0.390887
C36	C	2.041965	-0.719497	0.384838
C37	C	2.022891	-0.633206	0.385481
C38	C	2.007696	-0.564428	0.385995
C39	C	1.954542	-0.100061	0.611709
C40	C	1.985871	-0.099424	0.752989
C41	C	2.106256	0.036648	0.382990
C42	C	2.077149	0.121343	0.383635
C43	C	2.086433	-0.097570	0.159755
C44	C	2.044723	-0.098203	0.018474
C45	C	2.434719	-0.234281	0.388477
C46	C	2.453446	-0.318977	0.387840
C47	C	2.454542	-0.100061	0.611709
C48	C	2.485871	-0.099424	0.752989
C49	C	2.092031	-0.102925	0.825854
C50	C	2.121457	-0.102312	0.958597
C51	C	1.938553	-0.094700	0.945598
C52	C	1.909127	-0.095308	0.812856
C53	C	2.197631	-0.107323	0.833361
C54	C	2.227057	-0.106710	0.966104
C55	C	2.606256	0.036648	0.382990
C56	C	2.577149	0.121343	0.383635
C57	C	2.586433	-0.097570	0.159755
C58	C	2.544723	-0.098203	0.018474
C59	C	2.553684	-0.362637	0.393910
C60	C	2.571299	-0.442221	0.393330
C61	C	2.488672	-0.478143	0.386672
C62	C	2.388427	-0.434478	0.380605
C63	C	2.370815	-0.354896	0.381194
C64	C	2.649405	0.165002	0.377569
C65	C	2.622062	0.244586	0.378154
C66	C	2.522466	0.280508	0.384816
C67	C	2.450204	0.236843	0.390879
C68	C	2.477544	0.157262	0.390284
C69	C	2.592031	-0.102925	0.825854
C70	C	2.621457	-0.102312	0.958597
C71	C	2.438553	-0.094700	0.945598
C72	C	2.409127	-0.095308	0.812856
C73	C	2.697631	-0.107323	0.833361
C74	C	2.727057	-0.106710	0.966104
H75	H	2.120969	-0.333417	0.399310
H76	H	2.736939	-0.164141	0.809184
Cl77	Cl	2.324999	0.282015	0.399247
H78	H	2.418703	0.121720	0.395236
H79	H	2.290771	-0.161799	1.019229
Cl80	Cl	2.285796	-0.897650	0.397895
Cl81	Cl	1.775663	-0.090901	0.721255
Cl82	Cl	2.284561	-0.479648	0.372227
Cl83	Cl	2.767544	-0.023195	1.010628
H84	H	1.876075	-0.091347	0.994358
H85	H	2.790771	-0.161799	1.019229
H86	H	2.152881	-0.477785	0.398244
H87	H	2.322684	-0.092458	0.753533
H88	H	2.215004	-0.055611	0.786005
H89	H	2.500217	0.345308	0.385299
Cl90	Cl	2.246089	-0.718027	0.399243
H91	H	2.236939	-0.164141	0.809184
H92	H	2.376075	-0.091347	0.994358
H93	H	1.909617	-0.864217	0.372152
Cl94	Cl	2.724442	-0.027483	0.760236
Cl95	Cl	1.833314	-0.700509	0.370555
H96	H	1.821106	-0.463706	0.375177
H97	H	1.789188	-0.319327	0.376263
Cl98	Cl	2.774618	0.119861	0.369192
H99	H	2.680915	0.280126	0.373219
H100	H	2.253276	-0.052614	0.994934
H101	H	2.289188	-0.319354	0.376244
H102	H	2.620974	-0.333399	0.399324
H103	H	2.503027	-0.542944	0.386193
Cl104	Cl	2.697325	-0.497097	0.400950
