data_functionalizedCrystal
_audit_creation_method	'MofGen! by Chris Wilmer'
_symmetry_space_group_name_H-M	'P1'
_symmetry_Int_Tables_number	1
_symmetry_cell_setting	triclinic
loop_
_symmetry_equiv_pos_as_xyz
  x,y,z
_cell_length_a	25.639242
_cell_length_b	25.639239
_cell_length_c	25.639233
_cell_angle_alpha	90.018747
_cell_angle_beta	90.022166
_cell_angle_gamma	90.034213
loop_
_atom_site_label
_atom_site_type_symbol
_atom_site_fract_x
_atom_site_fract_y
_atom_site_fract_z
Zn1	Zn	0.799225	-0.208277	0.295742
Zn2	Zn	0.799149	-0.295696	0.208307
Zn3	Zn	0.711801	-0.208269	0.208306
Zn4	Zn	0.711746	-0.295676	0.295696
O5	O	0.755480	-0.251979	0.252013
O6	O	0.872380	-0.219884	0.284163
O7	O	0.787553	-0.284103	0.135141
O8	O	0.723453	-0.135105	0.219924
O9	O	0.872324	-0.284111	0.219924
O10	O	0.787683	-0.135111	0.284163
O11	O	0.723379	-0.219871	0.135141
O12	O	0.638629	-0.219853	0.219880
O13	O	0.723360	-0.284078	0.368868
O14	O	0.638589	-0.284070	0.284085
O15	O	0.787630	-0.219866	0.368901
O16	O	0.787499	-0.368858	0.219880
O17	O	0.723286	-0.368844	0.284085
C18	C	0.619638	-0.251959	0.251977
C19	C	0.561524	-0.251963	0.251975
C20	C	0.201149	-0.285473	0.285413
C21	C	0.146544	-0.285477	0.285421
O22	O	0.118297	-0.313943	0.313821
N23	N	0.119241	-0.251994	0.252047
C24	C	0.146545	-0.218502	0.218666
O25	O	0.118308	-0.190022	0.190280
C26	C	0.201149	-0.218496	0.218661
C27	C	0.228449	-0.251985	0.252034
C28	C	0.228449	-0.318959	0.318783
C29	C	0.283049	-0.318956	0.318774
C30	C	0.310350	-0.285468	0.285395
C31	C	0.283049	-0.251983	0.252024
C32	C	0.228452	-0.185002	0.185283
C33	C	0.283059	-0.185000	0.185281
C34	C	0.310359	-0.218488	0.218654
C35	C	0.364950	-0.218492	0.218636
N36	N	0.392253	-0.251974	0.252010
C37	C	0.364953	-0.285463	0.285389
C38	C	0.031875	-0.218515	0.218680
C39	C	-0.022728	-0.218523	0.218683
C40	C	-0.022725	-0.285497	0.285438
C41	C	0.031878	-0.285492	0.285433
C42	C	0.059178	-0.251998	0.252054
C43	C	0.479618	-0.285455	0.285368
C44	C	0.534223	-0.285451	0.285354
C45	C	0.534216	-0.218475	0.218601
C46	C	0.479615	-0.218481	0.218612
C47	C	0.452318	-0.251972	0.252000
O48	O	0.393232	-0.190038	0.190252
O49	O	0.393197	-0.313933	0.313776
C50	C	0.755392	-0.387822	0.251989
C51	C	0.755403	-0.445936	0.251996
C52	C	0.789004	-0.806294	0.218638
C53	C	0.789024	-0.860898	0.218645
O54	O	0.817502	-0.889131	0.190257
N55	N	0.755572	-0.888218	0.252048
C56	C	0.722102	-0.860932	0.285449
O57	O	0.693651	-0.889184	0.313861
C58	C	0.722085	-0.806328	0.285444
C59	C	0.755535	-0.779011	0.252036
C60	C	0.822452	-0.778976	0.185233
C61	C	0.822431	-0.724376	0.185226
C62	C	0.788962	-0.697093	0.218623
C63	C	0.755514	-0.724410	0.252028
C64	C	0.688617	-0.779042	0.318847
C65	C	0.688603	-0.724435	0.318840
C66	C	0.722053	-0.697118	0.285432
C67	C	0.722024	-0.642527	0.285418
N68	N	0.755475	-0.615206	0.252016
C69	C	0.788944	-0.642490	0.218618
C70	C	0.722141	-0.975602	0.285457
C71	C	0.722155	-1.030204	0.285459
C72	C	0.789078	-1.030167	0.218656
C73	C	0.789061	-0.975564	0.218652
C74	C	0.755593	-0.948282	0.252055
C75	C	0.788897	-0.527824	0.218605
C76	C	0.788872	-0.473219	0.218599
C77	C	0.721951	-0.473261	0.285403
C78	C	0.721974	-0.527862	0.285408
C79	C	0.755452	-0.555142	0.252007
O80	O	0.693562	-0.614260	0.313793
O81	O	0.817396	-0.614231	0.190216
C82	C	0.891853	-0.252000	0.252049
C83	C	0.949967	-0.252009	0.252064
C84	C	0.755497	-0.251970	0.388386
C85	C	0.755504	-0.251966	0.446500
C86	C	0.755583	-0.115606	0.252048
C87	C	0.755627	-0.057492	0.252064
C88	C	0.755494	-0.251951	0.116170
C89	C	0.755588	-0.251807	0.058057
C90	C	0.789012	-0.218432	0.806886
C91	C	0.789019	-0.218417	0.861491
O92	O	0.817466	-0.189967	0.889747
N93	N	0.755562	-0.251844	0.888783
C94	C	0.722093	-0.285283	0.861468
O95	O	0.693636	-0.313713	0.889695
C96	C	0.722084	-0.285294	0.806864
C97	C	0.755547	-0.251870	0.779575
C98	C	0.822472	-0.185009	0.779597
C99	C	0.822466	-0.185025	0.724997
C100	C	0.789000	-0.218462	0.697685
C101	C	0.755541	-0.251885	0.724974
C102	C	0.688613	-0.318731	0.779550
C103	C	0.688607	-0.318739	0.724943
C104	C	0.722069	-0.285314	0.697654
C105	C	0.722070	-0.285338	0.643063
N106	N	0.755526	-0.251912	0.615771
C107	C	0.788992	-0.218474	0.643082
C108	C	0.722113	-0.285256	0.976138
C109	C	0.722124	-0.285247	1.030741
C110	C	0.789049	-0.218381	1.030760
C111	C	0.789041	-0.218392	0.976157
C112	C	0.755570	-0.251829	0.948846
C113	C	0.788977	-0.218509	0.528417
C114	C	0.788970	-0.218529	0.473811
C115	C	0.722043	-0.285393	0.473797
C116	C	0.722052	-0.285375	0.528397
C117	C	0.755521	-0.251929	0.555706
O118	O	0.693635	-0.313773	0.614771
O119	O	0.817439	-0.190044	0.614847
H120	H	-0.044963	-0.312763	0.312619
O121	O	0.453050	-0.318016	0.317726
C122	C	0.421442	-0.351755	0.287905
H123	H	0.413241	-0.333256	0.248319
H124	H	0.442467	-0.390488	0.282082
C125	C	0.379663	-0.383999	0.365290
C126	C	0.369587	-0.361276	0.316672
H127	H	0.347677	-0.389874	0.383035
H128	H	0.400959	-0.361270	0.385382
H129	H	0.397185	-0.416274	0.360430
H130	H	0.352071	-0.328999	0.321532
H131	H	0.348286	-0.384000	0.296581
H132	H	0.694912	-1.052442	0.312659
H133	H	0.661350	-0.702225	0.346042
O134	O	0.821515	-0.186094	0.554997
C135	C	0.855277	-0.215857	0.586578
H136	H	0.836807	-0.255473	0.594758
H137	H	0.894013	-0.221618	0.565540
C138	C	0.887465	-0.138416	0.628400
C139	C	0.864778	-0.187071	0.638450
H140	H	0.893328	-0.120659	0.660395
H141	H	0.864721	-0.118363	0.607122
H142	H	0.919743	-0.143223	0.610867
H143	H	0.832498	-0.182263	0.655976
H144	H	0.887517	-0.207122	0.659732
H145	H	0.849709	-0.801185	0.158037
H146	H	0.849723	-0.157777	0.801828
H147	H	0.305272	-0.346225	0.345950
O148	O	0.821469	-0.185893	0.949594
C149	C	0.791721	-0.152113	0.918021
H150	H	0.752085	-0.170550	0.909824
H151	H	0.786005	-0.113366	0.939074
C152	C	0.869171	-0.120006	0.876231
C153	C	0.820491	-0.142653	0.866160
H154	H	0.886918	-0.114168	0.844242
H155	H	0.889213	-0.142762	0.897504
H156	H	0.864401	-0.087719	0.893777
H157	H	0.825262	-0.174942	0.848621
H158	H	0.800450	-0.119902	0.844883
H159	H	0.661364	-0.345949	0.801759
H160	H	0.816333	-1.052391	0.191464
H161	H	-0.044951	-0.191258	0.191502
H162	H	0.694699	-0.451039	0.312594
O163	O	0.058315	-0.318036	0.317903
C164	C	0.022503	-0.347602	0.347352
H165	H	-0.016408	-0.326192	0.349200
H166	H	0.016667	-0.387284	0.328134
C167	C	0.091620	-0.381516	0.400716
C168	C	0.043831	-0.355217	0.402989
H169	H	0.104777	-0.386215	0.435035
H170	H	0.115748	-0.361598	0.380874
H171	H	0.086751	-0.414581	0.384699
H172	H	0.048702	-0.322150	0.419000
H173	H	0.019704	-0.375129	0.422835
O174	O	0.821605	-0.949111	0.186185
C175	C	0.851136	-0.984907	0.156699
H176	H	0.852940	-1.023819	0.178123
H177	H	0.832016	-0.990749	0.116971
C178	C	0.904565	-0.915764	0.122906
C179	C	0.906786	-0.963554	0.149220
H180	H	0.938892	-0.902592	0.118290
H181	H	0.884669	-0.891646	0.142769
H182	H	0.888630	-0.920638	0.089802
H183	H	0.922715	-0.958678	0.182326
H184	H	0.926686	-0.987670	0.129362
O185	O	0.854854	-0.697822	0.152721
C186	C	0.825109	-0.666268	0.118918
H187	H	0.783935	-0.682756	0.115644
H188	H	0.823289	-0.624878	0.135072
C189	C	0.901265	-0.645190	0.068615
C190	C	0.850696	-0.665443	0.064591
H191	H	0.917049	-0.644678	0.035105
H192	H	0.921306	-0.666446	0.091390
H193	H	0.899742	-0.610700	0.082079
H194	H	0.852220	-0.699935	0.051134
H195	H	0.830656	-0.644193	0.041813
H196	H	0.816298	-0.191153	1.053007
O197	O	0.689574	-0.949183	0.317919
C198	C	0.660065	-0.985011	0.347407
H199	H	0.658287	-1.023943	0.325989
H200	H	0.679185	-0.990785	0.387137
C201	C	0.606587	-0.915939	0.381187
C202	C	0.604400	-0.963754	0.354879
H203	H	0.572251	-0.902826	0.385798
H204	H	0.626469	-0.891800	0.361322
H205	H	0.622523	-0.920758	0.414292
H206	H	0.588471	-0.958934	0.321772
H207	H	0.584514	-0.987891	0.374739
H208	H	0.457387	-0.191213	0.191436
H209	H	0.661376	-0.801275	0.346049
H210	H	0.694857	-0.312487	0.953905
H211	H	0.054099	-0.191241	0.191496
H212	H	0.694738	-0.550105	0.312613
O213	O	0.202015	-0.351543	0.351226
C214	C	0.237831	-0.381082	0.380683
H215	H	0.276740	-0.382847	0.359256
H216	H	0.243668	-0.361997	0.420427
C217	C	0.168719	-0.434579	0.414435
C218	C	0.216507	-0.436750	0.388115
H219	H	0.155565	-0.468917	0.419022
H220	H	0.144588	-0.414677	0.394591
H221	H	0.173589	-0.418672	0.447552
H222	H	0.211634	-0.452651	0.354996
H223	H	0.240636	-0.456656	0.407954
O224	O	0.821493	-0.186007	0.447384
C225	C	0.851038	-0.156500	0.483203
H226	H	0.829626	-0.154678	0.522120
H227	H	0.890733	-0.175651	0.489022
C228	C	0.884912	-0.103098	0.414103
C229	C	0.858611	-0.100856	0.461900
H230	H	0.889586	-0.068775	0.400962
H231	H	0.865008	-0.122978	0.389971
H232	H	0.917988	-0.119059	0.418958
H233	H	0.825533	-0.084901	0.457043
H234	H	0.878510	-0.080972	0.486031
O235	O	0.309554	-0.152521	0.152779
C236	C	0.296165	-0.163863	0.100652
H237	H	0.281130	-0.205629	0.097940
H238	H	0.264477	-0.135813	0.087042
C239	C	0.363119	-0.106427	0.069090
C240	C	0.344657	-0.157726	0.065758
H241	H	0.393030	-0.102640	0.047565
H242	H	0.372139	-0.098784	0.104209
H243	H	0.336708	-0.083058	0.057749
H244	H	0.371066	-0.181094	0.077105
H245	H	0.335643	-0.165373	0.030640
O246	O	0.560800	-0.186019	0.186153
C247	C	0.592344	-0.215735	0.152319
H248	H	0.600504	-0.255388	0.170683
H249	H	0.571282	-0.221417	0.113561
C250	C	0.634204	-0.138254	0.120353
C251	C	0.644231	-0.186955	0.142911
H252	H	0.666209	-0.120501	0.114547
H253	H	0.612951	-0.118234	0.143146
H254	H	0.616651	-0.142996	0.088057
H255	H	0.661777	-0.182212	0.175208
H256	H	0.665487	-0.206974	0.120123
O257	O	0.689573	-0.317737	1.057165
C258	C	0.660048	-0.347261	1.021344
H259	H	0.658252	-0.325852	0.982423
H260	H	0.679165	-0.386974	1.015538
C261	C	0.606602	-0.381079	1.090436
C262	C	0.604393	-0.354783	1.042634
H263	H	0.572272	-0.385722	1.103569
H264	H	0.626495	-0.361191	1.114570
H265	H	0.622535	-0.414171	1.085591
H266	H	0.588466	-0.321690	1.047480
H267	H	0.584496	-0.374667	1.018501
H268	H	0.661345	-0.345963	0.702710
O269	O	0.689502	-0.317864	0.554828
C270	C	0.659976	-0.347392	0.519011
H271	H	0.658180	-0.325988	0.480087
H272	H	0.679093	-0.387105	0.513210
C273	C	0.606530	-0.381202	0.588107
C274	C	0.604321	-0.354911	0.540302
H275	H	0.572200	-0.385842	0.601241
H276	H	0.626423	-0.361310	0.612239
H277	H	0.622463	-0.414293	0.583267
H278	H	0.588394	-0.321817	0.545145
H279	H	0.584424	-0.374797	0.516172
H280	H	0.206233	-0.157734	0.158106
H281	H	0.694798	-0.312619	0.451550
H282	H	0.816159	-0.550030	0.191408
O283	O	0.560661	-0.317999	0.317824
C284	C	0.524852	-0.347563	0.347278
H285	H	0.485942	-0.326151	0.349131
H286	H	0.519012	-0.387244	0.328061
C287	C	0.593975	-0.381480	0.400633
C288	C	0.546187	-0.355178	0.402912
H289	H	0.607135	-0.386180	0.434950
H290	H	0.618101	-0.361564	0.380788
H291	H	0.589101	-0.414545	0.384616
H292	H	0.551062	-0.322112	0.418923
H293	H	0.522062	-0.375090	0.422761
H294	H	0.849714	-0.157806	0.702783
H295	H	0.816111	-0.450979	0.191392
