data_functionalizedCrystal
_audit_creation_method	'MofGen! by Chris Wilmer'
_symmetry_space_group_name_H-M	'P1'
_symmetry_Int_Tables_number	1
_symmetry_cell_setting	triclinic
loop_
_symmetry_equiv_pos_as_xyz
  x,y,z
_cell_length_a	16.109301
_cell_length_b	16.109301
_cell_length_c	14.586319
_cell_angle_alpha	89.994786
_cell_angle_beta	89.999213
_cell_angle_gamma	83.461481
loop_
_atom_site_label
_atom_site_type_symbol
_atom_site_fract_x
_atom_site_fract_y
_atom_site_fract_z
O1	O	1.103131	0.106866	-0.076185
O2	O	1.603131	0.606866	0.423815
O3	O	0.861069	0.120165	-0.076200
O4	O	1.361069	0.620165	0.423800
O5	O	0.988749	-0.007515	-0.076183
O6	O	1.488749	0.492485	0.423817
O7	O	0.975450	0.234547	-0.076203
O8	O	1.475450	0.734547	0.423797
O9	O	0.988741	-0.007517	0.076298
O10	O	1.488741	0.492483	0.576298
O11	O	0.861060	0.120164	0.076281
O12	O	1.361060	0.620164	0.576281
O13	O	1.103122	0.106864	0.076295
O14	O	1.603122	0.606864	0.576295
Cu15	Cu	0.982090	0.113514	0.090211
Cu16	Cu	1.482090	0.613514	0.590211
Cu17	Cu	0.982101	0.113516	-0.090115
Cu18	Cu	1.482101	0.613516	0.409885
O19	O	0.975441	0.234545	0.076278
O20	O	1.475441	0.734545	0.576278
C21	C	0.830090	0.119626	0.000038
C22	C	1.330090	0.619626	0.500038
C23	C	0.737794	0.118011	0.000033
C24	C	1.237794	0.618011	0.500033
C25	C	0.515522	0.190018	0.000038
C26	C	1.015522	0.690018	0.500038
C27	C	0.428801	0.188494	0.000044
C28	C	0.928801	0.688494	0.500044
C29	C	0.448676	0.037006	0.000052
C30	C	0.948676	0.537006	0.500052
C31	C	0.535394	0.038530	0.000053
C32	C	1.035394	0.538530	0.500053
C33	C	0.568815	0.115039	0.000041
C34	C	1.068815	0.615039	0.500041
C35	C	0.395376	0.111990	0.000046
C36	C	0.895376	0.611990	0.500046
C37	C	0.301350	0.110337	0.000053
C38	C	0.801350	0.610337	0.500053
C39	C	0.662847	0.116693	0.000036
C40	C	1.162847	0.616693	0.500036
C41	C	0.988206	-0.038491	0.000058
C42	C	1.488206	0.461509	0.500058
C43	C	0.986591	-0.130786	0.000059
C44	C	1.486591	0.369214	0.500059
C45	C	1.058599	-0.353059	0.000049
C46	C	1.558599	0.146941	0.500049
C47	C	1.057075	-0.439779	0.000041
C48	C	1.557075	0.060221	0.500041
C49	C	0.905586	-0.419905	0.000036
C50	C	1.405586	0.080095	0.500036
C51	C	0.907111	-0.333186	0.000037
C52	C	1.407111	0.166814	0.500037
C53	C	0.983620	-0.299766	0.000048
C54	C	1.483620	0.200234	0.500048
C55	C	0.980571	-0.473205	0.000039
C56	C	1.480571	0.026795	0.500039
C57	C	0.978918	-0.567231	0.000031
C58	C	1.478918	-0.067231	0.500031
C59	C	0.985273	-0.205734	0.000055
C60	C	1.485273	0.294266	0.500055
C61	C	1.134101	0.107404	0.000055
C62	C	1.634101	0.607404	0.500055
C63	C	1.226397	0.109019	0.000054
C64	C	1.726397	0.609019	0.500054
C65	C	0.975984	0.265521	0.000035
C66	C	1.475984	0.765521	0.500035
C67	C	0.977600	0.357816	0.000028
C68	C	1.477600	0.857816	0.500028
N69	N	0.982089	0.113512	0.217042
N70	N	1.482089	0.613512	0.717042
N71	N	0.982109	0.113511	-0.216947
N72	N	1.482109	0.613511	0.283053
C73	C	1.038644	0.056994	0.452057
C74	C	1.538644	0.556994	0.952057
C75	C	1.038647	0.056992	0.548038
C76	C	1.538647	0.556992	1.048038
C77	C	0.925547	0.170032	0.548032
C78	C	1.425547	0.670032	1.048032
C79	C	0.925541	0.170030	0.452052
C80	C	1.425541	0.670030	0.952052
C81	C	0.982095	0.113511	0.404067
C82	C	1.482095	0.613511	0.904067
C83	C	0.982103	0.113512	0.596028
C84	C	1.482103	0.613512	1.096028
C85	C	0.982105	0.113510	0.700095
C86	C	1.482105	0.613510	1.200095
C87	C	0.982092	0.113512	0.299993
C88	C	1.482092	0.613512	0.799993
H89	H	0.578788	-0.022530	0.000058
H90	H	1.078788	0.477470	0.500058
C91	C	0.778456	-0.289540	-0.078348
C92	C	1.278456	0.210460	0.421652
C93	C	0.824686	-0.274601	0.000036
C94	C	1.324686	0.225399	0.500036
H95	H	0.727571	-0.253375	-0.078346
H96	H	1.227571	0.246625	0.421654
H97	H	0.809829	-0.279404	-0.131510
H98	H	1.309829	0.220596	0.368490
H99	H	0.766603	-0.345971	-0.078338
H100	H	1.266603	0.154029	0.421662
H101	H	0.836544	-0.218171	0.000022
H102	H	1.336544	0.281829	0.500022
H103	H	0.793306	-0.284730	0.053212
H104	H	1.293306	0.215270	0.553212
C105	C	0.813743	0.281758	0.538385
C106	C	1.313743	0.781758	1.038385
C107	C	0.863385	0.232156	0.600780
C108	C	1.363385	0.732156	1.100780
H109	H	0.775364	0.320108	0.570950
H110	H	1.275364	0.820108	1.070950
H111	H	0.848336	0.311676	0.500946
H112	H	1.348336	0.811676	1.000946
H113	H	0.783852	0.247129	0.500954
H114	H	1.283852	0.747129	1.000954
H115	H	0.893281	0.266785	0.638206
H116	H	1.393281	0.766785	1.138206
H117	H	0.828788	0.202236	0.638234
H118	H	1.328788	0.702236	1.138234
C119	C	0.775990	-0.429664	0.078410
C120	C	1.275990	0.070336	0.578410
C121	C	0.821488	-0.456640	0.000030
C122	C	1.321488	0.043360	0.500030
H123	H	0.724068	-0.452337	0.078403
H124	H	1.224068	0.047663	0.578403
H125	H	0.806858	-0.447968	0.131575
H126	H	1.306858	0.052032	0.631575
H127	H	0.766177	-0.370389	0.078400
H128	H	1.266177	0.129611	0.578400
H129	H	0.831307	-0.515914	0.000044
H130	H	1.331307	-0.015914	0.500044
H131	H	0.790614	-0.438339	-0.053149
H132	H	1.290614	0.061661	0.446851
C133	C	0.362689	-0.052588	-0.078336
C134	C	0.862689	0.447412	0.421664
C135	C	0.411937	-0.047091	0.000053
C136	C	0.911937	0.452909	0.500053
H137	H	0.340014	-0.104509	-0.078338
H138	H	0.840014	0.395491	0.421662
H139	H	0.318541	-0.008157	-0.078331
H140	H	0.818541	0.491843	0.421669
H141	H	0.396117	-0.048840	-0.131501
H142	H	0.896117	0.451160	0.368499
H143	H	0.378507	-0.050833	0.053218
H144	H	0.878507	0.449167	0.553218
H145	H	0.456091	-0.091534	0.000056
H146	H	0.956091	0.408466	0.500056
H147	H	0.879487	0.216053	0.412977
H148	H	1.379487	0.716053	0.912977
H149	H	0.385413	0.249550	0.000043
H150	H	0.885413	0.749550	0.500043
H151	H	1.084693	0.010972	0.412989
H152	H	1.584693	0.510972	0.912989
C153	C	1.208185	-0.381417	0.000037
C154	C	1.708185	0.118583	0.500037
C155	C	1.142696	-0.316322	0.000045
C156	C	1.642696	0.183678	0.500045
H157	H	1.260103	-0.358737	0.000025
H158	H	1.760103	0.141263	0.500025
H159	H	1.204443	-0.414829	0.053208
H160	H	1.704443	0.085171	0.553208
H161	H	1.204428	-0.414824	-0.053139
H162	H	1.704428	0.085176	0.446861
H163	H	1.146449	-0.282918	0.053224
H164	H	1.646449	0.217082	0.553224
H165	H	1.146440	-0.282897	-0.053132
H166	H	1.646440	0.217103	0.446868
H167	H	1.084694	0.010969	0.587108
H168	H	1.584694	0.510969	1.087108
H169	H	0.542730	0.252317	0.000035
H170	H	1.042730	0.752317	0.500035
C171	C	1.143251	-0.548812	-0.078349
C172	C	1.643251	-0.048812	0.421651
C173	C	1.139496	-0.498357	0.000041
C174	C	1.639496	0.001643	0.500041
H175	H	1.194140	-0.584971	-0.078351
H176	H	1.694140	-0.084971	0.421649
H177	H	1.097478	-0.581128	-0.078346
H178	H	1.597478	-0.081128	0.421654
H179	H	1.140696	-0.514551	-0.131513
H180	H	1.640696	-0.014551	0.368487
H181	H	1.142044	-0.532618	0.053206
H182	H	1.642044	-0.032618	0.553206
H183	H	1.185281	-0.466038	0.000047
H184	H	1.685281	0.033962	0.500047
