data_functionalizedCrystal
_audit_creation_method	'MofGen! by Chris Wilmer'
_symmetry_space_group_name_H-M	'P1'
_symmetry_Int_Tables_number	1
_symmetry_cell_setting	triclinic
loop_
_symmetry_equiv_pos_as_xyz
  x,y,z
_cell_length_a	16.109301
_cell_length_b	11.792241
_cell_length_c	14.586319
_cell_angle_alpha	89.996059
_cell_angle_beta	89.998857
_cell_angle_gamma	83.827500
loop_
_atom_site_label
_atom_site_type_symbol
_atom_site_fract_x
_atom_site_fract_y
_atom_site_fract_z
O1	O	1.103817	0.145887	-0.076190
O2	O	1.603817	0.645887	0.423810
O3	O	0.861841	0.164041	-0.076203
O4	O	1.361841	0.664041	0.423797
O5	O	0.988701	-0.010258	-0.076190
O6	O	1.488701	0.489742	0.423810
O7	O	0.976957	0.320186	-0.076203
O8	O	1.476957	0.820186	0.423797
O9	O	0.988692	-0.010261	0.076291
O10	O	1.488692	0.489739	0.576291
O11	O	0.861832	0.164039	0.076278
O12	O	1.361832	0.664039	0.576278
O13	O	1.103808	0.145884	0.076291
O14	O	1.603808	0.645884	0.576291
Cu15	Cu	0.982819	0.154961	0.090207
Cu16	Cu	1.482819	0.654961	0.590207
Cu17	Cu	0.982830	0.154964	-0.090119
Cu18	Cu	1.482830	0.654964	0.409881
O19	O	0.976948	0.320183	0.076277
O20	O	1.476948	0.820183	0.576277
C21	C	0.830858	0.163305	0.000036
C22	C	1.330858	0.663305	0.500036
C23	C	0.738552	0.161100	0.000031
C24	C	1.238552	0.661100	0.500031
C25	C	0.430007	0.257318	0.000043
C26	C	0.930007	0.757318	0.500043
C27	C	0.516737	0.259400	0.000037
C28	C	1.016737	0.759400	0.500037
C29	C	0.535637	0.052600	0.000034
C30	C	1.035637	0.552600	0.500034
C31	C	0.448908	0.050518	0.000033
C32	C	0.948908	0.550518	0.500033
C33	C	0.396095	0.152881	0.000042
C34	C	0.896095	0.652881	0.500042
C35	C	0.569554	0.157044	0.000038
C36	C	1.069554	0.657044	0.500038
C37	C	0.663590	0.159301	0.000032
C38	C	1.163590	0.659301	0.500032
C39	C	0.302053	0.150624	0.000046
C40	C	0.802053	0.650624	0.500046
C41	C	0.987959	-0.052544	0.000050
C42	C	1.487959	0.447456	0.500050
C43	C	0.985751	-0.178538	0.000049
C44	C	1.485751	0.321462	0.500049
C45	C	0.981691	-0.409215	0.000034
C46	C	1.481691	0.090785	0.500034
C47	C	0.983947	-0.280849	0.000042
C48	C	1.483947	0.219151	0.500042
C49	C	1.134791	0.146621	0.000050
C50	C	1.634791	0.646621	0.500050
C51	C	1.227097	0.148826	0.000048
C52	C	1.727097	0.648826	0.500048
N53	N	0.982818	0.154958	0.217039
N54	N	1.482818	0.654958	0.717039
C55	C	0.977690	0.362469	0.000035
C56	C	1.477690	0.862469	0.500035
C57	C	0.979898	0.488464	0.000030
C58	C	1.479898	0.988464	0.500030
N59	N	0.982838	0.154958	-0.216951
N60	N	1.482838	0.654958	0.283049
C61	C	1.039011	0.077804	0.452051
C62	C	1.539011	0.577804	0.952051
C63	C	1.039013	0.077802	0.548032
C64	C	1.539013	0.577802	1.048032
C65	C	0.926639	0.232116	0.548030
C66	C	1.426639	0.732116	1.048030
C67	C	0.926633	0.232112	0.452050
C68	C	1.426633	0.732112	0.952050
C69	C	0.982824	0.154958	0.404063
C70	C	1.482824	0.654958	0.904063
C71	C	0.982832	0.154959	0.596024
C72	C	1.482832	0.654959	1.096024
C73	C	0.982834	0.154956	0.700091
C74	C	1.482834	0.654956	1.200091
C75	C	0.982821	0.154958	0.299990
C76	C	1.482821	0.654958	0.799990
H77	H	0.421298	-0.034532	0.000029
H78	H	0.921298	0.465468	0.500029
Cl79	Cl	0.602036	-0.076077	0.000032
Cl80	Cl	1.102036	0.423923	0.500032
H81	H	1.084764	0.014975	0.587101
H82	H	1.584764	0.514975	1.087101
H83	H	0.387008	0.340668	0.000050
H84	H	0.887008	0.840668	0.500050
Cl85	Cl	0.856006	0.329110	0.608360
Cl86	Cl	1.356006	0.829110	1.108360
H87	H	0.880875	0.294940	0.412976
H88	H	1.380875	0.794940	0.912976
H89	H	0.544343	0.344443	0.000038
H90	H	1.044343	0.844443	0.500038
H91	H	1.084763	0.014979	0.412982
H92	H	1.584763	0.514979	0.912982
