data_functionalizedCrystal
_audit_creation_method	'MofGen! by Chris Wilmer'
_symmetry_space_group_name_H-M	'P1'
_symmetry_Int_Tables_number	1
_symmetry_cell_setting	triclinic
loop_
_symmetry_equiv_pos_as_xyz
  x,y,z
_cell_length_a	13.262533
_cell_length_b	10.540535
_cell_length_c	11.804365
_cell_angle_alpha	101.950220
_cell_angle_beta	93.582318
_cell_angle_gamma	84.479808
loop_
_atom_site_label
_atom_site_type_symbol
_atom_site_fract_x
_atom_site_fract_y
_atom_site_fract_z
O1	O	1.323927	0.255976	0.329758
O2	O	1.038135	0.250710	0.237194
O3	O	1.187551	0.069144	0.285600
O4	O	1.174511	0.437542	0.281352
O5	O	1.148215	0.116892	0.470912
O6	O	0.998799	0.298458	0.422506
O7	O	1.284591	0.303724	0.515070
Cu8	Cu	1.138104	0.305451	0.485709
Cu9	Cu	1.184623	0.248983	0.266555
O10	O	1.135175	0.485290	0.466665
C11	C	0.981872	0.270487	0.317998
C12	C	0.872829	0.258265	0.282681
C13	C	0.479679	0.327939	0.587184
C14	C	0.582129	0.339430	0.620372
C15	C	0.654809	0.319139	0.535952
C16	C	0.625030	0.287357	0.418339
C17	C	0.522570	0.275875	0.385148
C18	C	0.697699	0.267075	0.333915
C19	C	0.667920	0.235292	0.216303
C20	C	0.565469	0.223811	0.183117
C21	C	0.492789	0.244102	0.267537
C22	C	0.800159	0.278557	0.367106
C23	C	0.843049	0.226492	0.165070
C24	C	0.740600	0.215001	0.131883
C25	C	1.166906	0.045639	0.377940
C26	C	1.163982	-0.095535	0.376994
C27	C	1.054890	-0.140652	0.341652
C28	C	1.051906	-0.287604	0.340215
C29	C	1.236205	-0.328225	0.287482
C30	C	1.238541	-0.181298	0.288165
C31	C	1.195394	-0.127013	0.499421
C32	C	1.190059	-0.273397	0.499155
C33	C	1.340855	0.283946	0.434264
C34	C	1.449899	0.296166	0.469574
C35	C	1.155821	0.508794	0.374322
C36	C	1.158747	0.649966	0.375260
N37	N	1.105392	0.345166	0.639852
N38	N	1.217343	0.209258	0.112415
C39	C	1.295896	0.113861	1.075517
C40	C	1.320641	0.083811	0.958872
C41	C	1.266831	0.149147	0.879112
C42	C	1.188271	0.244539	0.916007
C43	C	1.163528	0.274600	1.032665
C44	C	1.134463	0.309885	0.836260
C45	C	1.055904	0.405278	0.873155
C46	C	1.031165	0.435333	0.989802
C47	C	1.084975	0.369997	1.069563
C48	C	1.159206	0.279825	0.719601
C49	C	1.026839	0.440563	0.676749
C50	C	1.002093	0.470614	0.793394
H51	H	0.541227	0.197945	0.087349
H52	H	1.144355	-0.066564	0.568473
H53	H	0.983023	0.493768	0.611808
N54	N	0.708477	0.180717	0.005032
H55	H	0.632545	0.176521	-0.003177
H56	H	0.728339	0.249331	-0.035692
H57	H	0.409366	0.234735	0.240522
H58	H	0.824394	0.304437	0.462867
N59	N	0.946432	0.538214	1.029600
H60	H	0.916091	0.575037	0.961374
H61	H	0.892420	0.498137	1.063837
N62	N	1.058283	0.402411	1.195376
H63	H	1.104290	0.346540	1.240299
H64	H	1.067199	0.497251	1.228188
N65	N	1.341513	-0.384129	0.316433
H66	H	1.390044	-0.369004	0.258902
H67	H	1.363955	-0.340133	0.397170
N68	N	0.917364	0.573496	0.833202
H69	H	0.945019	0.645576	0.893871
H70	H	0.887055	0.610229	0.764918
N71	N	1.301424	-0.089043	0.535216
H72	H	1.303704	0.007263	0.539062
H73	H	1.321135	-0.109573	0.613906
H74	H	1.384604	0.006145	0.928837
H75	H	0.902226	0.209974	0.096328
N76	N	0.401296	0.349815	0.678228
H77	H	0.435867	0.369904	0.757813
H78	H	0.351257	0.425333	0.667443
H79	H	0.738226	0.328498	0.562980
N80	N	1.293515	0.116716	0.753301
H81	H	1.232619	0.084995	0.703572
H82	H	1.314382	0.197093	0.730102
N83	N	0.973613	-0.305071	0.422007
H84	H	0.940731	-0.217159	0.459321
H85	H	0.920269	-0.360075	0.377383
H86	H	1.319471	-0.153235	0.309570
N87	N	1.243920	0.176922	0.679827
H88	H	1.216259	0.104841	0.619165
H89	H	1.297988	0.216980	0.645664
H90	H	1.339706	0.060680	1.140466
N91	N	1.115075	-0.288797	0.585484
H92	H	1.061042	-0.345173	0.544521
H93	H	1.151550	-0.331068	0.647618
H94	H	0.996922	-0.082421	0.403809
N95	N	0.614247	0.373719	0.747214
H96	H	0.552661	0.384831	0.795658
H97	H	0.663232	0.301645	0.767799
N98	N	1.021585	-0.113133	0.223807
H99	H	1.076855	-0.071565	0.193215
H100	H	1.007855	-0.197360	0.168852
N101	N	1.016576	-0.355641	0.220955
H102	H	1.070832	-0.424569	0.187153
H103	H	0.952311	-0.397683	0.226754
H104	H	1.266682	-0.314667	0.531128
N105	N	1.208379	-0.399942	0.166766
H106	H	1.145662	-0.446609	0.168700
H107	H	1.194647	-0.335739	0.113762
H108	H	1.218191	-0.164413	0.196880
