data_functionalizedCrystal
_audit_creation_method	'MofGen! by Chris Wilmer'
_symmetry_space_group_name_H-M	'P1'
_symmetry_Int_Tables_number	1
_symmetry_cell_setting	triclinic
loop_
_symmetry_equiv_pos_as_xyz
  x,y,z
_cell_length_a	19.805407
_cell_length_b	19.805405
_cell_length_c	19.805399
_cell_angle_alpha	90.029301
_cell_angle_beta	90.019573
_cell_angle_gamma	90.026410
loop_
_atom_site_label
_atom_site_type_symbol
_atom_site_fract_x
_atom_site_fract_y
_atom_site_fract_z
Zn1	Zn	1.034736	-0.269479	0.382712
Zn2	Zn	1.534736	0.230521	0.882712
Zn3	Zn	1.034651	-0.382667	0.269520
Zn4	Zn	1.534651	0.117333	0.769520
Zn5	Zn	0.921550	-0.269498	0.269536
Zn6	Zn	1.421550	0.230502	0.769536
Zn7	Zn	0.921514	-0.382631	0.382667
Zn8	Zn	1.421514	0.117369	0.882667
O9	O	0.978113	-0.326069	0.326109
O10	O	1.478113	0.173931	0.826109
O11	O	1.129441	-0.284501	0.367708
O12	O	1.629441	0.215499	0.867708
O13	O	1.019627	-0.367678	0.174805
O14	O	1.519627	0.132322	0.674805
O15	O	0.936616	-0.174778	0.284575
O16	O	1.436616	0.325222	0.784575
O17	O	1.129378	-0.367660	0.284547
O18	O	1.629378	0.132340	0.784547
O19	O	1.019772	-0.174765	0.367724
O20	O	1.519772	0.325235	0.867724
O21	O	0.936533	-0.284533	0.174817
O22	O	1.436533	0.215467	0.674817
O23	O	0.826829	-0.284498	0.284531
O24	O	1.326829	0.215502	0.784531
O25	O	0.936553	-0.367598	0.477389
O26	O	1.436553	0.132402	0.977389
O27	O	0.826802	-0.367617	0.367648
O28	O	1.326802	0.132383	0.867648
O29	O	1.019737	-0.284466	0.477422
O30	O	1.519737	0.215534	0.977422
O31	O	1.019592	-0.477379	0.284503
O32	O	1.519592	0.022621	0.784503
O33	O	0.936471	-0.477353	0.367632
O34	O	1.436471	0.022647	0.867632
C35	C	0.802257	-0.326056	0.326087
C36	C	1.302257	0.173944	0.826087
C37	C	0.727025	-0.326067	0.326093
C38	C	1.227025	0.173933	0.826093
C39	C	0.691684	-0.369412	0.369302
C40	C	1.191684	0.130588	0.869302
C41	C	0.620996	-0.369413	0.369312
C42	C	1.120996	0.130587	0.869312
C43	C	0.585649	-0.326072	0.326109
C44	C	1.085649	0.173928	0.826109
C45	C	0.620994	-0.282722	0.282898
C46	C	1.120994	0.217278	0.782898
C47	C	0.691681	-0.282718	0.282892
C48	C	1.191681	0.217282	0.782892
C49	C	0.335921	-0.282737	0.282920
C50	C	0.835921	0.217263	0.782920
C51	C	0.265229	-0.282746	0.282928
C52	C	0.765229	0.217254	0.782928
C53	C	0.265235	-0.369432	0.369340
C54	C	0.765235	0.130568	0.869340
C55	C	0.335922	-0.369428	0.369334
C56	C	0.835922	0.130572	0.869334
C57	C	0.371262	-0.326076	0.326126
C58	C	0.871262	0.173924	0.826126
C59	C	0.447910	-0.326074	0.326117
C60	C	0.947910	0.173926	0.826117
C61	C	0.509002	-0.326076	0.326114
C62	C	1.009002	0.173924	0.826114
C63	C	0.978036	-0.501925	0.326076
C64	C	1.478036	-0.001925	0.826076
C65	C	0.978066	-0.577157	0.326084
C66	C	1.478066	-0.077157	0.826084
C67	C	1.021389	-0.612492	0.282845
C68	C	1.521389	-0.112492	0.782845
C69	C	1.021418	-0.683181	0.282860
C70	C	1.521418	-0.183181	0.782860
C71	C	0.978119	-0.718532	0.326111
C72	C	1.478119	-0.218532	0.826111
C73	C	0.934794	-0.683192	0.369356
C74	C	1.434794	-0.183192	0.869356
C75	C	0.934769	-0.612505	0.369344
C76	C	1.434769	-0.112505	0.869344
C77	C	0.934894	-0.968265	0.369406
C78	C	1.434894	-0.468265	0.869406
C79	C	0.934921	-1.038957	0.369413
C80	C	1.434921	-0.538957	0.869413
C81	C	1.021542	-1.038941	0.282922
C82	C	1.521542	-0.538941	0.782922
C83	C	1.021517	-0.968254	0.282910
C84	C	1.521517	-0.468254	0.782910
C85	C	0.978195	-0.932920	0.326157
C86	C	1.478195	-0.432920	0.826157
C87	C	0.978166	-0.856271	0.326141
C88	C	1.478166	-0.356271	0.826141
C89	C	0.978145	-0.795179	0.326124
C90	C	1.478145	-0.295179	0.826124
C91	C	1.154655	-0.326082	0.326131
C92	C	1.654655	0.173918	0.826131
C93	C	1.229887	-0.326088	0.326140
C94	C	1.729887	0.173912	0.826140
C95	C	0.978151	-0.326026	0.502651
C96	C	1.478151	0.173974	1.002651
C97	C	0.978167	-0.326008	0.577883
C98	C	1.478167	0.173992	1.077883
C99	C	0.978207	-0.149526	0.326156
C100	C	1.478207	0.350474	0.826156
C101	C	0.978248	-0.074294	0.326177
C102	C	1.478248	0.425706	0.826177
C103	C	0.978114	-0.326062	0.150253
C104	C	1.478114	0.173938	0.650253
C105	C	0.978229	-0.325890	0.075021
C106	C	1.478229	0.174110	0.575021
C107	C	1.021481	-0.282719	0.613246
C108	C	1.521481	0.217281	1.113246
C109	C	1.021488	-0.282699	0.683934
C110	C	1.521488	0.217301	1.183934
C111	C	0.978184	-0.325973	0.719259
C112	C	1.478184	0.174027	1.219259
C113	C	0.934864	-0.369264	0.683892
C114	C	1.434864	0.130736	1.183892
C115	C	0.934854	-0.369279	0.613204
C116	C	1.434854	0.130721	1.113204
C117	C	0.934902	-0.369201	0.968965
C118	C	1.434902	0.130799	1.468965
C119	C	0.934917	-0.369183	1.039657
C120	C	1.434917	0.130817	1.539657
C121	C	1.021536	-0.282620	1.039695
C122	C	1.521536	0.217380	1.539695
C123	C	1.021527	-0.282636	0.969008
C124	C	1.521527	0.217364	1.469008
C125	C	0.978205	-0.325924	0.933647
C126	C	1.478205	0.174076	1.433647
C127	C	0.978197	-0.325944	0.856998
C128	C	1.478197	0.174056	1.356998
C129	C	0.978194	-0.325957	0.795906
C130	C	1.478194	0.174043	1.295906
H131	H	0.592209	-0.247430	0.247724
H132	H	1.092209	0.252570	0.747724
H133	H	0.236452	-0.247448	0.247747
H134	H	0.736452	0.252552	0.747747
H135	H	1.056809	-0.247370	1.068495
H136	H	1.556809	0.252630	1.568495
C137	C	1.136189	-1.060609	0.250060
C138	C	1.636189	-0.560609	0.750060
C139	C	1.069177	-1.077773	0.235388
C140	C	1.569177	-0.577773	0.735388
H141	H	1.165594	-1.084576	0.220711
H142	H	1.665594	-0.584576	0.720711
H143	H	1.146068	-1.072160	0.295541
H144	H	1.646068	-0.572160	0.795541
H145	H	1.142352	-1.013448	0.243866
H146	H	1.642352	-0.513448	0.743866
H147	H	1.063013	-1.124934	0.241587
H148	H	1.563013	-0.624934	0.741587
H149	H	1.059295	-1.066226	0.189896
H150	H	1.559295	-0.566226	0.689896
C151	C	0.925365	-0.762638	0.460401
C152	C	1.425365	-0.262638	0.960401
C153	C	0.887200	-0.722051	0.416898
C154	C	1.387200	-0.222051	0.916898
H155	H	0.895979	-0.786630	0.489748
H156	H	1.395979	-0.286630	0.989748
H157	H	0.954822	-0.735022	0.486315
H158	H	1.454822	-0.235022	0.986315
H159	H	0.951167	-0.793797	0.434642
H160	H	1.451167	-0.293797	0.934642
H161	H	0.861401	-0.690889	0.442657
H162	H	1.361401	-0.190889	0.942657
H163	H	0.857730	-0.749670	0.390982
H164	H	1.357730	-0.249670	0.890982
C165	C	1.112536	-0.273278	0.763464
C166	C	1.612536	0.226722	1.263464
C167	C	1.069093	-0.235112	0.722813
C168	C	1.569093	0.264888	1.222813
H169	H	1.141920	-0.243895	0.787470
H170	H	1.641920	0.256105	1.287470
H171	H	1.138414	-0.302767	0.735890
H172	H	1.638414	0.197233	1.235890
H173	H	1.086737	-0.299047	0.794611
H174	H	1.586737	0.200953	1.294611
H175	H	1.094892	-0.209346	0.691663
H176	H	1.594892	0.290654	1.191663
H177	H	1.043213	-0.205611	0.750389
H178	H	1.543213	0.294389	1.250389
H179	H	0.899650	-0.404423	1.068417
H180	H	1.399650	0.095577	1.568417
C181	C	1.107018	-0.619584	0.197353
C182	C	1.607018	-0.119584	0.697353
C183	C	1.068984	-0.573637	0.235300
C184	C	1.568984	-0.073637	0.735300
H185	H	1.136405	-0.595596	0.168004
H186	H	1.636405	-0.095596	0.668004
H187	H	1.077553	-0.647195	0.171442
H188	H	1.577553	-0.147195	0.671442
H189	H	1.132899	-0.647114	0.226880
H190	H	1.632899	-0.147114	0.726880
H191	H	1.043100	-0.546110	0.205773
H192	H	1.543100	-0.046110	0.705773
H193	H	1.098453	-0.546015	0.261213
H194	H	1.598453	-0.046015	0.761213
H195	H	0.364698	-0.404723	0.404512
H196	H	0.864698	0.095277	0.904512
H197	H	0.899637	-0.404459	0.940183
H198	H	1.399637	0.095541	1.440183
C199	C	0.896393	-0.859920	0.407803
C200	C	1.396393	-0.359920	0.907803
C201	C	0.887272	-0.929431	0.416939
C202	C	1.387272	-0.429431	0.916939
H203	H	0.866994	-0.835945	0.437153
H204	H	1.366994	-0.335945	0.937153
H205	H	0.886508	-0.848375	0.362322
H206	H	1.386508	-0.348375	0.862322
H207	H	0.941862	-0.848299	0.417752
H208	H	1.441862	-0.348299	0.917752
H209	H	0.841804	-0.941053	0.406985
H210	H	1.341804	-0.441053	0.906985
H211	H	0.897153	-0.940981	0.462431
H212	H	1.397153	-0.440981	0.962431
H213	H	1.056773	-0.939473	0.247688
H214	H	1.556773	-0.439473	0.747688
C215	C	0.849302	-1.031877	0.454926
C216	C	1.349302	-0.531877	0.954926
C217	C	0.887330	-1.077818	0.416965
C218	C	1.387330	-0.577818	0.916965
H219	H	0.819927	-1.055869	0.484283
H220	H	1.319927	-0.555869	0.984283
H221	H	0.823415	-1.004349	0.425413
H222	H	1.323415	-0.504349	0.925413
H223	H	0.878777	-1.004264	0.480836
H224	H	1.378777	-0.504264	0.980836
H225	H	0.857855	-1.105428	0.391052
H226	H	1.357855	-0.605428	0.891052
H227	H	0.913219	-1.105358	0.446482
H228	H	1.413219	-0.605358	0.946482
C229	C	0.896419	-0.407680	0.792232
C230	C	1.396419	0.092320	1.292232
C231	C	0.887262	-0.416832	0.722719
C232	C	1.387262	0.083168	1.222719
H233	H	0.867034	-0.437052	0.816200
H234	H	1.367034	0.062948	1.316200
H235	H	0.886539	-0.362205	0.803825
H236	H	1.386539	0.137795	1.303825
H237	H	0.941895	-0.417589	0.803815
H238	H	1.441895	0.082411	1.303815
H239	H	0.841787	-0.406918	0.711136
H240	H	1.341787	0.093082	1.211136
H241	H	0.897138	-0.462317	0.711122
H242	H	1.397138	0.037683	1.211122
C243	C	0.243515	-0.402556	0.483899
C244	C	0.743515	0.097444	0.983899
C245	C	0.226388	-0.417079	0.416844
C246	C	0.726388	0.082921	0.916844
H247	H	0.219536	-0.431974	0.513223
H248	H	0.719536	0.068026	1.013223
H249	H	0.231952	-0.357098	0.493883
H250	H	0.731952	0.142902	0.993883
H251	H	0.290673	-0.408760	0.490066
H252	H	0.790673	0.091240	0.990066
H253	H	0.179230	-0.410870	0.410676
H254	H	0.679230	0.089130	0.910676
H255	H	0.237947	-0.462547	0.406857
H256	H	0.737947	0.037453	0.906857
C257	C	0.849148	-0.619616	0.454841
C258	C	1.349148	-0.119616	0.954841
C259	C	0.887148	-0.573661	0.416875
C260	C	1.387148	-0.073661	0.916875
H261	H	0.819748	-0.595635	0.484185
H262	H	1.319748	-0.095635	0.984185
H263	H	0.878633	-0.647146	0.480759
H264	H	1.378633	-0.147146	0.980759
H265	H	0.823282	-0.647227	0.425326
H266	H	1.323282	-0.147227	0.925326
H267	H	0.913018	-0.546054	0.446391
H268	H	1.413018	-0.046054	0.946391
H269	H	0.857659	-0.546120	0.390956
H270	H	1.357659	-0.046120	0.890956
C271	C	1.107099	-0.197146	0.620391
C272	C	1.607099	0.302854	1.120391
C273	C	1.069083	-0.235148	0.574420
C274	C	1.569083	0.264852	1.074420
H275	H	1.136483	-0.167773	0.596421
H276	H	1.636483	0.332227	1.096421
H277	H	1.132977	-0.226631	0.647956
H278	H	1.632977	0.273369	1.147956
H279	H	1.077618	-0.171250	0.647965
H280	H	1.577618	0.328750	1.147965
H281	H	1.098564	-0.261048	0.546849
H282	H	1.598564	0.238952	1.046849
H283	H	1.043203	-0.205659	0.546844
H284	H	1.543203	0.294341	1.046844
C285	C	1.112607	-0.762465	0.273693
C286	C	1.612607	-0.262465	0.773693
C287	C	1.069150	-0.721959	0.235389
C288	C	1.569150	-0.221959	0.735389
H289	H	1.142112	-0.786382	0.244402
H290	H	1.642112	-0.286382	0.744402
H291	H	1.086830	-0.793681	0.299392
H292	H	1.586830	-0.293681	0.799392
H293	H	1.138359	-0.734797	0.303254
H294	H	1.638359	-0.234797	0.803254
H295	H	1.043394	-0.749628	0.205832
H296	H	1.543394	-0.249628	0.705832
H297	H	1.094930	-0.690739	0.209678
H298	H	1.594930	-0.190739	0.709678
H299	H	0.720455	-0.247418	0.247711
H300	H	1.220455	0.252582	0.747711
H301	H	1.056792	-0.247400	0.940250
H302	H	1.556792	0.252600	1.440250
H303	H	0.364686	-0.247442	0.247733
H304	H	0.864686	0.252558	0.747733
H305	H	0.899576	-0.404523	0.584413
H306	H	1.399576	0.095477	1.084413
H307	H	0.592225	-0.404709	0.404496
H308	H	1.092225	0.095291	0.904496
C309	C	0.684583	-0.455094	0.454726
C310	C	1.184583	0.044906	0.954726
C311	C	0.730534	-0.417052	0.416795
C312	C	1.230534	0.082948	0.916795
H313	H	0.708567	-0.484501	0.484051
H314	H	1.208567	0.015499	0.984051
H315	H	0.656992	-0.480948	0.425192
H316	H	1.156992	0.019052	0.925192
H317	H	0.657033	-0.425630	0.480668
H318	H	1.157033	0.074370	0.980668
H319	H	0.758081	-0.446516	0.390849
H320	H	1.258081	0.053484	0.890849
H321	H	0.758136	-0.391196	0.446333
H322	H	1.258136	0.108804	0.946333
