data_functionalizedCrystal
_audit_creation_method	'MofGen! by Chris Wilmer'
_symmetry_space_group_name_H-M	'P1'
_symmetry_Int_Tables_number	1
_symmetry_cell_setting	triclinic
loop_
_symmetry_equiv_pos_as_xyz
  x,y,z
_cell_length_a	9.065215
_cell_length_b	11.792254
_cell_length_c	8.140239
_cell_angle_alpha	89.996301
_cell_angle_beta	89.997810
_cell_angle_gamma	84.606648
loop_
_atom_site_label
_atom_site_type_symbol
_atom_site_fract_x
_atom_site_fract_y
_atom_site_fract_z
O1	O	1.958851	0.166413	-0.136595
O2	O	2.292184	0.499747	0.196738
O3	O	2.625517	0.833080	0.530071
O4	O	1.529438	0.180068	-0.136603
O5	O	1.862771	0.513401	0.196730
O6	O	2.196105	0.846735	0.530064
O7	O	1.754555	0.008129	-0.136587
O8	O	2.087889	0.341462	0.196746
O9	O	2.421222	0.674795	0.530079
O10	O	1.733733	0.338353	-0.136611
O11	O	2.067067	0.671686	0.196722
O12	O	2.400400	1.005019	0.530056
O13	O	1.754543	0.008127	0.136640
O14	O	2.087876	0.341460	0.469973
O15	O	2.421209	0.674793	0.803306
O16	O	1.529426	0.180066	0.136624
O17	O	1.862759	0.513399	0.469957
O18	O	2.196092	0.846733	0.803291
O19	O	1.958838	0.166411	0.136632
O20	O	2.292171	0.499744	0.469965
O21	O	2.625505	0.833078	0.803298
Zn22	Zn	1.744130	0.173238	0.180009
Zn23	Zn	2.077463	0.506572	0.513342
Zn24	Zn	2.410797	0.839905	0.846675
Zn25	Zn	1.744146	0.173241	-0.179980
Zn26	Zn	2.077480	0.506574	0.153353
Zn27	Zn	2.410813	0.839908	0.486687
O28	O	1.733721	0.338350	0.136616
O29	O	2.067054	0.671684	0.469949
O30	O	2.400388	1.005017	0.803283
C31	C	1.474457	0.178755	0.000010
C32	C	1.807791	0.512089	0.333343
C33	C	2.141124	0.845422	0.666676
C34	C	1.310651	0.174834	0.000007
C35	C	1.643984	0.508167	0.333340
C36	C	1.977317	0.841501	0.666674
C37	C	1.753237	-0.034170	0.000026
C38	C	2.086571	0.299163	0.333359
C39	C	2.419904	0.632496	0.666692
C40	C	1.749311	-0.160205	0.000024
C41	C	2.082645	0.173128	0.333357
C42	C	2.415978	0.506462	0.666691
C43	C	1.746122	-0.262559	0.000018
C44	C	2.079455	0.070774	0.333351
C45	C	2.412788	0.404107	0.666685
C46	C	1.742133	-0.390968	0.000003
C47	C	2.075466	-0.057635	0.333336
C48	C	2.408800	0.275699	0.666670
C49	C	2.013819	0.167724	0.000015
C50	C	2.347152	0.501057	0.333349
C51	C	2.680485	0.834390	0.666682
C52	C	2.177625	0.171645	0.000007
C53	C	2.510959	0.504979	0.333340
C54	C	2.844292	0.838312	0.666674
C55	C	1.735039	0.380649	-0.000001
C56	C	2.068372	0.713983	0.333333
C57	C	2.401705	1.047316	0.666666
C58	C	1.738965	0.506684	-0.000010
C59	C	2.072298	0.840018	0.333324
C60	C	2.405631	1.173351	0.666657
N61	N	1.744129	0.173236	0.425691
N62	N	2.077463	0.506569	0.759025
N63	N	2.410796	0.839902	1.092358
N64	N	1.744158	0.173235	-0.425662
N65	N	2.077492	0.506568	-0.092329
N66	N	2.410825	0.839901	0.241004
