data_functionalizedCrystal
_audit_creation_method	'MofGen! by Chris Wilmer'
_symmetry_space_group_name_H-M	'P1'
_symmetry_Int_Tables_number	1
_symmetry_cell_setting	triclinic
loop_
_symmetry_equiv_pos_as_xyz
  x,y,z
_cell_length_a	19.805407
_cell_length_b	19.805405
_cell_length_c	21.395356
_cell_angle_alpha	89.973607
_cell_angle_beta	89.975469
_cell_angle_gamma	90.026726
loop_
_atom_site_label
_atom_site_type_symbol
_atom_site_fract_x
_atom_site_fract_y
_atom_site_fract_z
Zn1	Zn	1.034767	-0.269480	-0.354283
Zn2	Zn	1.368101	0.063853	-0.020949
Zn3	Zn	1.701434	0.397186	0.312384
Zn4	Zn	1.034672	-0.382668	-0.249508
Zn5	Zn	1.368005	-0.049335	0.083826
Zn6	Zn	1.701338	0.283998	0.417159
Zn7	Zn	0.921572	-0.269499	-0.249518
Zn8	Zn	1.254905	0.063835	0.083816
Zn9	Zn	1.588239	0.397168	0.417149
Zn10	Zn	0.921545	-0.382633	-0.354246
Zn11	Zn	1.254878	-0.049299	-0.020913
Zn12	Zn	1.588212	0.284034	0.312421
O13	O	0.978139	-0.326070	-0.301889
O14	O	1.311472	0.007263	0.031445
O15	O	1.644806	0.340597	0.364778
O16	O	1.129471	-0.284502	-0.340395
O17	O	1.462805	0.048831	-0.007062
O18	O	1.796138	0.382164	0.326271
O19	O	1.019640	-0.367679	-0.161831
O20	O	1.352974	-0.034345	0.171502
O21	O	1.686307	0.298988	0.504836
O22	O	0.936639	-0.174780	-0.263435
O23	O	1.269973	0.158554	0.069899
O24	O	1.603306	0.491887	0.403232
O25	O	1.129401	-0.367661	-0.263417
O26	O	1.462734	-0.034328	0.069916
O27	O	1.796068	0.299006	0.403249
O28	O	1.019803	-0.174766	-0.340405
O29	O	1.353136	0.158567	-0.007072
O30	O	1.686470	0.491901	0.326262
O31	O	0.936546	-0.284533	-0.161838
O32	O	1.269880	0.048800	0.171495
O33	O	1.603213	0.382133	0.504828
O34	O	0.826852	-0.284499	-0.263399
O35	O	1.160185	0.048835	0.069934
O36	O	1.493519	0.382168	0.403268
O37	O	0.936593	-0.367600	-0.441929
O38	O	1.269926	-0.034267	-0.108596
O39	O	1.603259	0.299066	0.224738
O40	O	0.826832	-0.367618	-0.340343
O41	O	1.160165	-0.034285	-0.007009
O42	O	1.493499	0.299049	0.326324
O43	O	1.019777	-0.284468	-0.441956
O44	O	1.353110	0.048866	-0.108622
O45	O	1.686443	0.382199	0.224711
O46	O	1.019614	-0.477380	-0.263382
O47	O	1.352947	-0.144047	0.069951
O48	O	1.686280	0.189287	0.403285
O49	O	0.936500	-0.477354	-0.340333
O50	O	1.269833	-0.144021	-0.006999
O51	O	1.603167	0.189313	0.326334
C52	C	0.802283	-0.326057	-0.301868
C53	C	1.135616	0.007276	0.031465
C54	C	1.468950	0.340610	0.364798
C55	C	0.727051	-0.326068	-0.301874
C56	C	1.060384	0.007266	0.031459
C57	C	1.393718	0.340599	0.364792
C58	C	0.691714	-0.369413	-0.341874
C59	C	1.025047	-0.036080	-0.008541
C60	C	1.358381	0.297254	0.324793
C61	C	0.621026	-0.369414	-0.341883
C62	C	0.954359	-0.036081	-0.008550
C63	C	1.287692	0.297252	0.324784
C64	C	0.585675	-0.326073	-0.301889
C65	C	0.919009	0.007260	0.031445
C66	C	1.252342	0.340594	0.364778
C67	C	0.621017	-0.282723	-0.261887
C68	C	0.954351	0.050610	0.071446
C69	C	1.287684	0.383944	0.404779
C70	C	0.691704	-0.282719	-0.261882
C71	C	1.025038	0.050614	0.071451
C72	C	1.358371	0.383948	0.404785
C73	C	0.335944	-0.282738	-0.261908
C74	C	0.669277	0.050595	0.071425
C75	C	1.002611	0.383929	0.404759
C76	C	0.265252	-0.282747	-0.261915
C77	C	0.598585	0.050587	0.071418
C78	C	0.931919	0.383920	0.404752
C79	C	0.265265	-0.369433	-0.341909
C80	C	0.598599	-0.036100	-0.008576
C81	C	0.931932	0.297233	0.324758
C82	C	0.335952	-0.369429	-0.341904
C83	C	0.669286	-0.036096	-0.008570
C84	C	1.002619	0.297237	0.324763
C85	C	0.371288	-0.326077	-0.301905
C86	C	0.704621	0.007256	0.031428
C87	C	1.037955	0.340590	0.364762
C88	C	0.447936	-0.326075	-0.301897
C89	C	0.781270	0.007258	0.031437
C90	C	1.114603	0.340591	0.364770
C91	C	0.509028	-0.326078	-0.301893
C92	C	0.842362	0.007256	0.031440
C93	C	1.175695	0.340589	0.364774
C94	C	0.978062	-0.501926	-0.301866
C95	C	1.311395	-0.168593	0.031467
C96	C	1.644729	0.164741	0.364801
C97	C	0.978091	-0.577158	-0.301877
C98	C	1.311424	-0.243825	0.031456
C99	C	1.644757	0.089509	0.364790
C100	C	1.021369	-0.612437	-0.341987
C101	C	1.354702	-0.279104	-0.008654
C102	C	1.688035	0.054230	0.324680
C103	C	1.021393	-0.683125	-0.341999
C104	C	1.354726	-0.349792	-0.008665
C105	C	1.688060	-0.016459	0.324668
C106	C	0.978143	-0.718534	-0.301897
C107	C	1.311476	-0.385200	0.031437
C108	C	1.644809	-0.051867	0.364770
C109	C	0.934860	-0.683250	-0.261785
C110	C	1.268193	-0.349916	0.071548
C111	C	1.601527	-0.016583	0.404882
C112	C	0.934833	-0.612563	-0.261777
C113	C	1.268166	-0.279229	0.071556
C114	C	1.601499	0.054104	0.404890
C115	C	0.934969	-0.968323	-0.261817
C116	C	1.268302	-0.634990	0.071516
C117	C	1.601635	-0.301656	0.404849
C118	C	0.935001	-1.039015	-0.261827
C119	C	1.268334	-0.705682	0.071506
C120	C	1.601667	-0.372348	0.404840
C121	C	1.021529	-1.038886	-0.342039
C122	C	1.354863	-0.705552	-0.008705
C123	C	1.688196	-0.372219	0.324628
C124	C	1.021502	-0.968199	-0.342031
C125	C	1.354835	-0.634865	-0.008697
C126	C	1.688168	-0.301532	0.324636
C127	C	0.978217	-0.932921	-0.301922
C128	C	1.311550	-0.599588	0.031412
C129	C	1.644884	-0.266254	0.364745
C130	C	0.978190	-0.856272	-0.301910
C131	C	1.311523	-0.522939	0.031423
C132	C	1.644857	-0.189606	0.364756
C133	C	0.978172	-0.795181	-0.301905
C134	C	1.311506	-0.461847	0.031429
C135	C	1.644839	-0.128514	0.364762
C136	C	1.154682	-0.326083	-0.301909
C137	C	1.488015	0.007250	0.031424
C138	C	1.821348	0.340583	0.364757
C139	C	1.229914	-0.326089	-0.301918
C140	C	1.563247	0.007244	0.031415
C141	C	1.896580	0.340577	0.364749
C142	C	0.978192	-0.326028	-0.465312
C143	C	1.311526	0.007305	-0.131979
C144	C	1.644859	0.340639	0.201355
C145	C	0.978215	-0.326010	-0.534953
C146	C	1.311548	0.007323	-0.201620
C147	C	1.644882	0.340657	0.131713
C148	C	0.978235	-0.149527	-0.301925
C149	C	1.311568	0.183806	0.031408
C150	C	1.644902	0.517139	0.364742
C151	C	0.978276	-0.074295	-0.301941
C152	C	1.311609	0.259038	0.031393
C153	C	1.644942	0.592371	0.364726
C154	C	0.934960	-0.282712	-0.567660
C155	C	1.268293	0.050622	-0.234327
C156	C	1.601626	0.383955	0.099006
C157	C	0.934957	-0.282699	-0.633096
C158	C	1.268291	0.050634	-0.299762
C159	C	1.601624	0.383968	0.033571
C160	C	0.978222	-0.325978	-0.665822
C161	C	1.311556	0.007355	-0.332488
C162	C	1.644889	0.340689	0.000845
C163	C	1.021481	-0.369285	-0.633107
C164	C	1.354814	-0.035952	-0.299773
C165	C	1.688147	0.297382	0.033560
C166	C	1.021477	-0.369301	-0.567672
C167	C	1.354810	-0.035968	-0.234339
C168	C	1.688144	0.297366	0.098994
C169	C	1.039207	-0.331299	-0.769509
C170	C	1.372540	0.002034	-0.436176
C171	C	1.705873	0.335367	-0.102842
C172	C	1.039212	-0.331278	-0.834942
C173	C	1.372545	0.002055	-0.501609
C174	C	1.705878	0.335388	-0.168275
C175	C	0.978234	-0.325932	-0.867642
C176	C	1.311567	0.007401	-0.534309
C177	C	1.644900	0.340734	-0.200976
C178	C	0.917249	-0.320593	-0.834902
C179	C	1.250582	0.012741	-0.501569
C180	C	1.583916	0.346074	-0.168235
C181	C	0.917245	-0.320609	-0.769468
C182	C	1.250578	0.012725	-0.436134
C183	C	1.583912	0.346058	-0.102801
C184	C	0.978231	-0.325966	-0.736774
C185	C	1.311564	0.007368	-0.403441
C186	C	1.644898	0.340701	-0.070107
C187	C	0.934972	-0.282618	-0.971302
C188	C	1.268305	0.050716	-0.637969
C189	C	1.601639	0.384049	-0.304635
C190	C	0.934969	-0.282610	-1.036739
C191	C	1.268302	0.050723	-0.703405
C192	C	1.601635	0.384057	-0.370072
C193	C	1.021498	-0.369192	-1.036748
C194	C	1.354832	-0.035859	-0.703415
C195	C	1.688165	0.297474	-0.370082
C196	C	1.021496	-0.369204	-0.971313
C197	C	1.354829	-0.035870	-0.637980
C198	C	1.688162	0.297463	-0.304646
C199	C	0.978233	-0.325913	-0.938594
C200	C	1.311567	0.007421	-0.605260
C201	C	1.644900	0.340754	-0.271927
C202	C	0.978125	-0.326063	-0.139101
C203	C	1.311458	0.007270	0.194232
C204	C	1.644792	0.340604	0.527566
C205	C	0.978233	-0.325890	-0.069460
C206	C	1.311567	0.007443	0.263873
C207	C	1.644900	0.340777	0.597207
H208	H	0.592257	-0.404711	-0.374454
H209	H	0.925591	-0.071378	-0.041121
H210	H	1.258924	0.261956	0.292213
H211	H	0.899591	-0.583839	-0.229116
H212	H	1.232924	-0.250506	0.104217
H213	H	1.566257	0.082828	0.437550
H214	H	0.899740	-0.247353	-1.063368
H215	H	1.233073	0.085980	-0.730035
H216	H	1.566407	0.419314	-0.396701
H217	H	1.056591	-0.583612	-0.374640
H218	H	1.389925	-0.250279	-0.041306
H219	H	1.723258	0.083054	0.292027
H220	H	1.056772	-1.067617	-0.374700
H221	H	1.390105	-0.734284	-0.041366
H222	H	1.723438	-0.400951	0.291967
H223	H	1.056640	-0.711846	-0.374655
H224	H	1.389973	-0.378513	-0.041322
H225	H	1.723306	-0.045180	0.292011
H226	H	1.056727	-0.404430	-1.063393
H227	H	1.390060	-0.071096	-0.730060
H228	H	1.723394	0.262237	-0.396726
H229	H	1.056720	-0.404461	-0.944682
H230	H	1.390054	-0.071127	-0.611349
H231	H	1.723387	0.262206	-0.278016
H232	H	0.236472	-0.247449	-0.229347
H233	H	0.569805	0.085884	0.103987
H234	H	0.903138	0.419218	0.437320
H235	H	1.056723	-0.939371	-0.374683
H236	H	1.390056	-0.606038	-0.041350
H237	H	1.723389	-0.272705	0.291983
H238	H	0.899726	-0.939605	-0.229158
H239	H	1.233059	-0.606272	0.104175
H240	H	1.566393	-0.272939	0.437509
H241	H	0.236486	-0.404730	-0.374480
H242	H	0.569820	-0.071397	-0.041147
H243	H	0.903153	0.261936	0.292187
H244	H	0.899730	-0.247463	-0.541024
H245	H	1.233063	0.085870	-0.207691
H246	H	1.566396	0.419204	0.125642
H247	H	0.364731	-0.404724	-0.374469
H248	H	0.698064	-0.071391	-0.041136
H249	H	1.031398	0.261942	0.292198
H250	H	1.088866	-0.335647	-0.742890
H251	H	1.422200	-0.002314	-0.409556
H252	H	1.755533	0.331020	-0.076223
H253	H	1.088869	-0.335623	-0.861594
H254	H	1.422202	-0.002290	-0.528261
H255	H	1.755536	0.331044	-0.194928
H256	H	1.056707	-0.404523	-0.659756
H257	H	1.390041	-0.071190	-0.326423
H258	H	1.723374	0.262144	0.006911
H259	H	0.899642	-0.712085	-0.229136
H260	H	1.232975	-0.378751	0.104197
H261	H	1.566308	-0.045418	0.437531
H262	H	1.056704	-0.404559	-0.541043
H263	H	1.390037	-0.071226	-0.207709
H264	H	1.723370	0.262107	0.125624
H265	H	0.899778	-1.067842	-0.229170
H266	H	1.233111	-0.734509	0.104163
H267	H	1.566444	-0.401176	0.437496
H268	H	0.899735	-0.247437	-0.659731
H269	H	1.233068	0.085897	-0.326398
H270	H	1.566401	0.419230	0.006936
H271	H	0.867595	-0.316235	-0.861525
H272	H	1.200928	0.017099	-0.528192
H273	H	1.534262	0.350432	-0.194859
H274	H	0.720475	-0.247419	-0.229313
H275	H	1.053808	0.085914	0.104020
H276	H	1.387142	0.419248	0.437353
H277	H	0.867589	-0.316262	-0.742813
H278	H	1.200923	0.017071	-0.409480
H279	H	1.534256	0.350404	-0.076146
H280	H	0.899745	-0.247368	-0.944661
H281	H	1.233078	0.085965	-0.611327
H282	H	1.566412	0.419299	-0.277994
H283	H	0.364706	-0.247443	-0.229334
H284	H	0.698039	0.085890	0.104000
H285	H	1.031372	0.419224	0.437333
H286	H	0.720491	-0.404709	-0.374440
H287	H	1.053825	-0.071376	-0.041107
H288	H	1.387158	0.261958	0.292226
H289	H	0.592229	-0.247431	-0.229326
H290	H	0.925563	0.085902	0.104008
H291	H	1.258896	0.419236	0.437341
