data_functionalizedCrystal
_audit_creation_method	'MofGen! by Chris Wilmer'
_symmetry_space_group_name_H-M	'P1'
_symmetry_Int_Tables_number	1
_symmetry_cell_setting	triclinic
loop_
_symmetry_equiv_pos_as_xyz
  x,y,z
_cell_length_a	16.992694
_cell_length_b	16.956993
_cell_length_c	15.455313
_cell_angle_alpha	87.537683
_cell_angle_beta	87.142206
_cell_angle_gamma	96.638538
loop_
_atom_site_label
_atom_site_type_symbol
_atom_site_fract_x
_atom_site_fract_y
_atom_site_fract_z
O1	O	1.033121	-0.165135	-0.072030
O2	O	1.366455	0.168199	0.261303
O3	O	1.699788	0.501532	0.594636
O4	O	0.804957	-0.163286	-0.072056
O5	O	1.138290	0.170047	0.261277
O6	O	1.471624	0.503380	0.594611
O7	O	0.932745	-0.049006	-0.072031
O8	O	1.266078	0.284327	0.261302
O9	O	1.599412	0.617661	0.594636
O10	O	0.905333	-0.279415	-0.072055
O11	O	1.238667	0.053918	0.261278
O12	O	1.572000	0.387252	0.594611
O13	O	0.925439	-0.055512	0.072230
O14	O	1.258773	0.277821	0.405563
O15	O	1.592106	0.611154	0.738896
O16	O	0.797651	-0.169793	0.072205
O17	O	1.130985	0.163541	0.405538
O18	O	1.464318	0.496874	0.738872
O19	O	1.025816	-0.171641	0.072230
O20	O	1.359149	0.161692	0.405564
O21	O	1.692482	0.495026	0.738897
Cu22	Cu	0.911066	-0.171311	0.085390
Cu23	Cu	1.244400	0.162022	0.418723
Cu24	Cu	1.577733	0.495356	0.752056
Cu25	Cu	0.919706	-0.163616	-0.085215
Cu26	Cu	1.253040	0.169717	0.248118
Cu27	Cu	1.586373	0.503050	0.581451
O28	O	0.898028	-0.285921	0.072205
O29	O	1.231361	0.047412	0.405539
O30	O	1.564694	0.380745	0.738872
C31	C	0.772246	-0.164163	0.000071
C32	C	1.105579	0.169170	0.333405
C33	C	1.438912	0.502504	0.666738
C34	C	0.685662	-0.157072	0.000062
C35	C	1.018995	0.176262	0.333395
C36	C	1.352328	0.509595	0.666729
C37	C	0.630988	-0.225486	0.000056
C38	C	0.964321	0.107847	0.333389
C39	C	1.297654	0.441180	0.666722
C40	C	0.549632	-0.218820	0.000068
C41	C	0.882966	0.114514	0.333402
C42	C	1.216299	0.447847	0.666735
C43	C	0.522953	-0.143738	0.000081
C44	C	0.856287	0.189596	0.333415
C45	C	1.189620	0.522929	0.666748
C46	C	0.577634	-0.075318	0.000090
C47	C	0.910967	0.258015	0.333424
C48	C	1.244301	0.591348	0.666757
C49	C	0.658987	-0.081986	0.000084
C50	C	0.992320	0.251348	0.333417
C51	C	1.325654	0.584681	0.666751
C52	C	0.281145	-0.116103	0.000107
C53	C	0.614479	0.217230	0.333441
C54	C	0.947812	0.550563	0.666774
C55	C	0.199785	-0.109441	0.000111
C56	C	0.533119	0.223893	0.333445
C57	C	0.866452	0.557226	0.666778
C58	C	0.171789	-0.252943	0.000091
C59	C	0.505123	0.080390	0.333424
C60	C	0.838456	0.413724	0.666757
C61	C	0.253146	-0.259604	0.000079
C62	C	0.586479	0.073729	0.333412
C63	C	0.919812	0.407063	0.666746
C64	C	0.307819	-0.191185	0.000093
C65	C	0.641152	0.142149	0.333426
C66	C	0.974486	0.475482	0.666759
N67	N	0.439796	-0.136922	0.000092
N68	N	0.773129	0.196412	0.333425
N69	N	1.106462	0.529745	0.666758
N70	N	0.390975	-0.198002	0.000089
N71	N	0.724308	0.135332	0.333422
N72	N	1.057641	0.468665	0.666755
C73	C	0.930496	-0.022641	0.000101
C74	C	1.263829	0.310693	0.333434
C75	C	1.597162	0.644026	0.666767
C76	C	0.934668	0.065614	0.000104
C77	C	1.268002	0.398947	0.333437
C78	C	1.601335	0.732280	0.666770
C79	C	1.058527	-0.170764	0.000101
C80	C	1.391860	0.162569	0.333434
C81	C	1.725194	0.495902	0.666768
C82	C	1.145111	-0.177855	0.000105
C83	C	1.478445	0.155478	0.333438
C84	C	1.811778	0.488811	0.666771
C85	C	0.965884	0.562923	0.000136
C86	C	1.299217	0.896257	0.333469
C87	C	1.632551	1.229590	0.666802
C88	C	0.961957	0.479998	0.000135
C89	C	1.295290	0.813332	0.333469
C90	C	1.628624	1.146665	0.666802
C91	C	0.888245	0.433608	0.000120
C92	C	1.221579	0.766941	0.333453
C93	C	1.554912	1.100275	0.666787
C94	C	0.818455	0.470146	0.000114
C95	C	1.151789	0.803480	0.333447
C96	C	1.485122	1.136813	0.666781
C97	C	0.822383	0.553069	0.000121
C98	C	1.155716	0.886403	0.333454
C99	C	1.489049	1.219736	0.666787
C100	C	0.868806	0.185075	0.000104
C101	C	1.202139	0.518409	0.333438
C102	C	1.535472	0.851742	0.666771
C103	C	0.864884	0.102147	0.000095
C104	C	1.198217	0.435480	0.333428
C105	C	1.531550	0.768813	0.666762
C106	C	1.008386	0.112004	0.000118
C107	C	1.341719	0.445338	0.333451
C108	C	1.675053	0.778671	0.666785
C109	C	1.012307	0.194929	0.000119
C110	C	1.345640	0.528262	0.333453
C111	C	1.678974	0.861596	0.666786
C112	C	0.942517	0.231460	0.000118
C113	C	1.275850	0.564793	0.333451
C114	C	1.609184	0.898126	0.666785
N115	N	0.884230	0.348845	0.000117
N116	N	1.217563	0.682179	0.333450
N117	N	1.550896	1.015512	0.666783
N118	N	0.946533	0.316221	0.000127
N119	N	1.279866	0.649554	0.333461
N120	N	1.613200	0.982887	0.666794
N121	N	0.904995	-0.176723	0.205384
N122	N	1.238329	0.156611	0.538717
N123	N	1.571662	0.489944	0.872051
C124	C	0.900276	0.687713	0.000088
C125	C	1.233609	1.021046	0.333421
C126	C	1.566942	1.354379	0.666755
C127	C	0.896099	0.599456	0.000127
C128	C	1.229433	0.932790	0.333460
C129	C	1.562766	1.266123	0.666794
N130	N	0.925784	-0.158199	-0.205210
N131	N	1.259117	0.175135	0.128124
N132	N	1.592450	0.508468	0.461457
C133	C	0.959301	-0.128193	0.250789
C134	C	1.292634	0.205141	0.584122
C135	C	1.625967	0.538474	0.917455
C136	C	0.954716	-0.132293	0.341596
C137	C	1.288050	0.201040	0.674929
C138	C	1.621383	0.534374	1.008262
C139	C	0.895829	-0.184928	0.386996
C140	C	1.229163	0.148405	0.720330
C141	C	1.562496	0.481738	1.053663
C142	C	0.841518	-0.233460	0.341585
C143	C	1.174852	0.099873	0.674919
C144	C	1.508185	0.433206	1.008252
C145	C	0.846100	-0.229355	0.250780
C146	C	1.179433	0.103978	0.584113
C147	C	1.512767	0.437311	0.917447
C148	C	0.876055	-0.202626	0.658574
C149	C	1.209388	0.130708	0.991907
C150	C	1.542721	0.464041	1.325241
C151	C	0.871478	-0.206729	0.749386
C152	C	1.204812	0.126604	1.082719
C153	C	1.538145	0.459938	1.416052
C154	C	0.984676	-0.105560	0.749390
C155	C	1.318009	0.227773	1.082723
C156	C	1.651343	0.561107	1.416057
C157	C	0.989255	-0.101463	0.658583
C158	C	1.322589	0.231870	0.991916
C159	C	1.655922	0.565204	1.325249
C160	C	0.934942	-0.149992	0.613180
C161	C	1.268275	0.183341	0.946513
C162	C	1.601609	0.516675	1.279846
N163	N	0.891143	-0.189123	0.479816
N164	N	1.224477	0.144211	0.813149
N165	N	1.557810	0.477544	1.146482
N166	N	0.939625	-0.145793	0.520362
N167	N	1.272958	0.187540	0.853695
N168	N	1.606292	0.520873	1.187029
H169	H	0.127266	-0.308646	0.000081
H170	H	0.460600	0.024687	0.333415
H171	H	0.793933	0.358021	0.666748
Br172	Br	0.733189	0.010866	0.000101
Br173	Br	1.066522	0.344199	0.333434
Br174	Br	1.399856	0.677533	0.666767
H175	H	0.823523	-0.249594	0.786347
H176	H	1.156856	0.083739	1.119680
H177	H	1.490190	0.417073	1.453013
H178	H	0.765556	0.582813	0.000121
H179	H	1.098889	0.916146	0.333454
H180	H	1.432223	1.249479	0.666787
H181	H	1.072331	0.232695	0.000136
H182	H	1.405664	0.566028	0.333469
H183	H	1.738998	0.899361	0.666802
H184	H	0.325651	-0.060391	0.000119
H185	H	0.658984	0.272942	0.333453
H186	H	0.992318	0.606276	0.666786
Br187	Br	1.069176	-0.030033	0.596966
Br188	Br	1.402510	0.303301	0.930300
Br189	Br	1.735843	0.636634	1.263633
H190	H	0.831832	-0.242142	0.621614
H191	H	1.165165	0.091192	0.954947
H192	H	1.498498	0.424525	1.288280
H193	H	1.025909	0.600689	0.000141
H194	H	1.359242	0.934022	0.333474
H195	H	1.692575	1.267356	0.666808
Br196	Br	1.058382	-0.039701	0.811011
Br197	Br	1.391715	0.293632	1.144345
Br198	Br	1.725049	0.626966	1.477678
Br199	Br	0.761593	-0.304889	0.403197
Br200	Br	1.094926	0.028444	0.736530
Br201	Br	1.428260	0.361777	1.069864
Br202	Br	0.667187	-0.327388	0.000029
Br203	Br	1.000520	0.005945	0.333362
Br204	Br	1.333853	0.339279	0.666696
H205	H	0.804855	0.064377	0.000085
H206	H	1.138189	0.397710	0.333419
H207	H	1.471522	0.731044	0.666752
Br208	Br	0.772392	-0.295215	0.189159
Br209	Br	1.105725	0.038118	0.522492
Br210	Br	1.439058	0.371451	0.855826
Br211	Br	0.475434	-0.311673	0.000056
Br212	Br	0.808767	0.021661	0.333390
Br213	Br	1.142101	0.354994	0.666723
H214	H	0.811978	0.214809	0.000093
H215	H	1.145312	0.548142	0.333426
H216	H	1.478645	0.881475	0.666760
H217	H	0.274861	-0.320743	0.000058
H218	H	0.608195	0.012590	0.333392
H219	H	0.941528	0.345924	0.666725
H220	H	0.178068	-0.048297	0.000121
H221	H	0.511401	0.285037	0.333454
H222	H	0.844734	0.618370	0.666788
Br223	Br	0.718416	0.407189	0.000100
Br224	Br	1.051749	0.740522	0.333433
Br225	Br	1.385082	1.073855	0.666767
H226	H	1.007256	-0.085335	0.213830
H227	H	1.340589	0.247998	0.547163
H228	H	1.673922	0.581332	0.880496
H229	H	0.555905	-0.014185	0.000114
H230	H	0.889238	0.319148	0.333447
H231	H	1.222571	0.652482	0.666780
H232	H	1.018783	0.450257	0.000143
H233	H	1.352116	0.783591	0.333477
H234	H	1.685450	1.116924	0.666810
H235	H	1.065206	0.082252	0.000112
H236	H	1.398539	0.415586	0.333446
H237	H	1.731872	0.748919	0.666779
H238	H	0.998935	-0.092776	0.378564
H239	H	1.332269	0.240558	0.711897
H240	H	1.665602	0.573891	1.045231
