data_functionalizedCrystal
_audit_creation_method	'MofGen! by Chris Wilmer'
_symmetry_space_group_name_H-M	'P1'
_symmetry_Int_Tables_number	1
_symmetry_cell_setting	triclinic
loop_
_symmetry_equiv_pos_as_xyz
  x,y,z
_cell_length_a	23.532355
_cell_length_b	23.532407
_cell_length_c	14.750395
_cell_angle_alpha	104.267383
_cell_angle_beta	104.275180
_cell_angle_gamma	82.838088
loop_
_atom_site_label
_atom_site_type_symbol
_atom_site_fract_x
_atom_site_fract_y
_atom_site_fract_z
O1	O	0.744326	0.058039	-0.079708
O2	O	0.578454	0.068069	-0.079740
O3	O	0.666394	-0.019876	-0.079705
O4	O	0.656386	0.145984	-0.079743
O5	O	0.688325	0.002065	0.079953
O6	O	0.600385	0.090010	0.079918
O7	O	0.766257	0.079980	0.079950
Zn8	Zn	0.686803	0.088478	0.105283
Zn9	Zn	0.657908	0.059570	-0.105073
O10	O	0.678317	0.167925	0.079915
C11	C	0.568202	0.078788	0.000085
C12	C	0.504982	0.078032	0.000074
C13	C	0.677105	-0.030121	0.000126
C14	C	0.676341	-0.093337	0.000133
C15	C	0.124929	0.085260	0.087145
C16	C	0.065530	0.084543	0.087148
O17	O	0.044978	0.094324	0.161163
N18	N	0.023867	0.072227	0.000119
C19	C	0.041606	0.060622	-0.086919
O20	O	0.000714	0.050080	-0.160944
C21	C	0.101004	0.061335	-0.086922
C22	C	0.142664	0.073657	0.000113
C23	C	0.166588	0.097580	0.174172
C24	C	0.225982	0.098298	0.174168
C25	C	0.243718	0.086696	0.087136
C26	C	0.202059	0.074375	0.000108
C27	C	0.118743	0.049725	-0.173960
C28	C	0.178146	0.050439	-0.173955
C29	C	0.219806	0.062761	-0.086920
C30	C	0.279189	0.063490	-0.086928
N31	N	0.320852	0.075806	0.000101
C32	C	0.303116	0.087408	0.087133
C33	C	-0.083134	0.059124	-0.086907
C34	C	-0.142532	0.058415	-0.086905
C35	C	-0.118604	0.082336	0.087163
C36	C	-0.059205	0.083048	0.087161
C37	C	-0.041471	0.071440	0.000122
C38	C	0.427848	0.088916	0.087118
C39	C	0.487247	0.089635	0.087106
C40	C	0.463314	0.065712	-0.086962
C41	C	0.403920	0.064996	-0.086950
C42	C	0.386190	0.076597	0.000097
O43	O	0.299784	0.053712	-0.160905
O44	O	0.344015	0.097941	0.161146
C45	C	0.723569	-0.492455	0.000090
C46	C	0.722857	-0.551856	0.000082
O47	O	0.766640	-0.588613	0.000055
N48	N	0.670578	-0.574474	0.000073
C49	C	0.619007	-0.537688	0.000061
O50	O	0.574474	-0.562381	0.000052
C51	C	0.619719	-0.478289	0.000062
C52	C	0.672002	-0.455674	0.000081
C53	C	0.775848	-0.469839	0.000108
C54	C	0.776561	-0.410442	0.000117
C55	C	0.724994	-0.373661	0.000108
C56	C	0.672715	-0.396277	0.000090
C57	C	0.568147	-0.441506	0.000043
C58	C	0.568864	-0.382104	0.000043
C59	C	0.621148	-0.359488	0.000062
C60	C	0.621861	-0.300098	0.000090
N61	N	0.674140	-0.277480	0.000100
C62	C	0.725706	-0.314262	0.000109
C63	C	0.617515	-0.662431	0.000058
C64	C	0.616803	-0.721828	0.000065
C65	C	0.720653	-0.735992	0.000084
C66	C	0.721365	-0.676593	0.000084
C67	C	0.669794	-0.639813	0.000068
C68	C	0.727199	-0.189522	0.000129
C69	C	0.727907	-0.130119	0.000142
C70	C	0.624057	-0.115961	0.000118
C71	C	0.623349	-0.175358	0.000110
C72	C	0.674924	-0.212139	0.000112
O73	O	0.578100	-0.263308	0.000114
O74	O	0.770230	-0.289562	0.000106
C75	C	0.776508	0.069260	0.000123
C76	C	0.839728	0.070015	0.000128
C77	C	0.667605	0.178170	0.000082
C78	C	0.668369	0.241385	0.000068
N79	N	0.706527	0.108207	0.248846
C80	C	0.583134	-0.015242	0.600621
C81	C	0.596948	-0.001422	0.701125
C82	C	0.665628	0.067294	0.701111
C83	C	0.651822	0.053477	0.600605
C84	C	0.610574	0.012209	0.550368
C85	C	0.679262	0.080929	0.550353
C86	C	0.665455	0.067115	0.449855
C87	C	0.624207	0.025850	0.399611
C88	C	0.596766	-0.001605	0.449871
C89	C	0.720507	0.122200	0.600592
C90	C	0.747947	0.149651	0.550339
C91	C	0.734143	0.135835	0.449840
C92	C	0.692895	0.094569	0.399596
C93	C	0.761583	0.163289	0.399580
C94	C	0.747776	0.149475	0.299083
C95	C	0.679087	0.080756	0.299098
N96	N	0.638186	0.039839	0.751364
H97	H	0.521165	0.099672	0.157983
Cl98	Cl	0.787095	-0.648169	0.000107
H99	H	0.819135	-0.392035	0.000129
Cl100	Cl	0.278348	0.113786	0.283590
H101	H	0.152156	0.107028	0.245048
H102	H	0.817842	-0.499782	0.000111
H103	H	-0.068701	0.049676	-0.157788
H104	H	0.084832	0.039690	-0.244833
Cl105	Cl	0.792037	-0.235752	0.000133
H106	H	0.699212	0.100896	0.742028
Cl107	Cl	0.785480	-0.782244	0.000088
H108	H	-0.025289	0.093083	0.158032
H109	H	0.580779	-0.193769	0.000121
H110	H	-0.133054	0.091782	0.158030
Cl111	Cl	0.737864	0.139566	0.726933
Cl112	Cl	0.485622	0.051123	-0.196368
Cl113	Cl	0.200436	0.035843	-0.283382
Cl114	Cl	0.559233	-0.069711	0.000104
Cl115	Cl	0.782280	0.183978	0.235903
Cl116	Cl	0.793640	-0.101692	0.000164
H117	H	0.781530	0.183253	0.591256
Cl118	Cl	-0.194900	0.042935	-0.196325
Cl119	Cl	0.551075	-0.750249	0.000059
H120	H	0.413420	0.098368	0.158000
H121	H	0.795164	0.196894	0.440499
Cl122	Cl	0.351545	0.049514	-0.196367
H123	H	0.575518	-0.632486	0.000053
H124	H	0.525572	-0.459909	0.000022
H125	H	0.526867	-0.352160	0.000028
H126	H	0.645502	0.047148	0.258192
Cl127	Cl	0.606844	0.008486	0.273270
H128	H	0.563181	-0.035212	0.408965
Cl129	Cl	0.531297	-0.067142	0.537458
H130	H	0.574598	-0.023778	0.742037
