data_functionalizedCrystal
_audit_creation_method	'MofGen! by Chris Wilmer'
_symmetry_space_group_name_H-M	'P1'
_symmetry_Int_Tables_number	1
_symmetry_cell_setting	triclinic
loop_
_symmetry_equiv_pos_as_xyz
  x,y,z
_cell_length_a	18.101398
_cell_length_b	25.639239
_cell_length_c	25.639233
_cell_angle_alpha	89.981253
_cell_angle_beta	89.981277
_cell_angle_gamma	90.033952
loop_
_atom_site_label
_atom_site_type_symbol
_atom_site_fract_x
_atom_site_fract_y
_atom_site_fract_z
Zn1	Zn	1.132041	-0.208280	-0.295694
Zn2	Zn	1.632041	0.291720	0.204306
Zn3	Zn	1.131933	-0.295699	-0.208259
Zn4	Zn	1.631933	0.204301	0.291741
Zn5	Zn	1.008212	-0.208272	-0.208264
Zn6	Zn	1.508212	0.291728	0.291736
Zn7	Zn	1.008134	-0.295679	-0.295654
Zn8	Zn	1.508134	0.204321	0.204346
O9	O	1.070080	-0.251983	-0.251968
O10	O	1.570080	0.248017	0.248032
O11	O	1.235659	-0.219888	-0.284111
O12	O	1.735659	0.280112	0.215889
O13	O	1.115508	-0.284107	-0.135094
O14	O	1.615508	0.215893	0.364906
O15	O	1.024716	-0.135108	-0.219880
O16	O	1.524716	0.364892	0.280120
O17	O	1.235580	-0.284115	-0.219872
O18	O	1.735580	0.215885	0.280128
O19	O	1.115693	-0.135114	-0.284115
O20	O	1.615693	0.364886	0.215885
O21	O	1.024611	-0.219875	-0.135098
O22	O	1.524611	0.280125	0.364902
O23	O	0.904569	-0.219855	-0.219841
O24	O	1.404569	0.280145	0.280159
O25	O	1.024584	-0.284081	-0.368824
O26	O	1.524584	0.215919	0.131176
O27	O	0.904512	-0.284073	-0.284046
O28	O	1.404512	0.215927	0.215954
O29	O	1.115617	-0.219869	-0.368854
O30	O	1.615617	0.280131	0.131146
O31	O	1.115433	-0.368862	-0.219833
O32	O	1.615433	0.131138	0.280167
O33	O	1.024478	-0.368847	-0.284042
O34	O	1.524478	0.131153	0.215958
C35	C	0.877669	-0.251962	-0.251940
C36	C	1.377669	0.248038	0.248060
C37	C	0.795355	-0.251965	-0.251941
C38	C	1.295355	0.248035	0.248059
C39	C	1.069955	-0.387825	-0.251944
C40	C	1.569955	0.112175	0.248056
C41	C	1.069970	-0.445939	-0.251951
C42	C	1.569970	0.054061	0.248049
C43	C	0.496264	-0.251998	-0.251985
C44	C	0.996264	0.248002	0.248015
C45	C	0.527601	-0.211392	-0.211786
C46	C	1.027601	0.288608	0.288214
C47	C	0.613219	-0.211501	-0.211614
C48	C	1.113219	0.288499	0.288386
C49	C	0.644647	-0.251981	-0.251963
C50	C	1.144647	0.248019	0.248037
C51	C	0.613521	-0.307055	-0.236906
C52	C	1.113521	0.192945	0.263094
C53	C	0.527875	-0.306829	-0.236626
C54	C	1.027875	0.193171	0.263374
C55	C	0.527874	-0.238009	-0.307336
C56	C	1.027874	0.261991	0.192664
C57	C	0.613525	-0.236782	-0.307034
C58	C	1.113525	0.263218	0.192966
C59	C	0.728506	-0.251975	-0.251952
C60	C	1.228506	0.248025	0.248048
C61	C	0.412405	-0.252008	-0.251995
C62	C	0.912405	0.247992	0.248005
C63	C	1.117563	-0.806298	-0.218591
C64	C	1.617563	-0.306298	0.281409
C65	C	1.117592	-0.860902	-0.218598
C66	C	1.617592	-0.360902	0.281402
O67	O	1.157928	-0.889134	-0.190208
O68	O	1.657928	-0.389134	0.309792
N69	N	1.070210	-0.888222	-0.252002
N70	N	1.570210	-0.388222	0.247998
C71	C	1.022802	-0.860935	-0.285405
C72	C	1.522802	-0.360935	0.214595
O73	O	0.982503	-0.889187	-0.313819
O74	O	1.482503	-0.389187	0.186181
C75	C	1.022777	-0.806332	-0.285401
C76	C	1.522777	-0.306332	0.214599
C77	C	1.070157	-0.779014	-0.251990
C78	C	1.570157	-0.279014	0.248010
C79	C	1.164940	-0.778980	-0.185184
C80	C	1.664940	-0.278980	0.314816
C81	C	1.164910	-0.724380	-0.185176
C82	C	1.664910	-0.224380	0.314824
C83	C	1.117504	-0.697096	-0.218576
C84	C	1.617504	-0.197096	0.281424
C85	C	1.070127	-0.724414	-0.251983
C86	C	1.570127	-0.224414	0.248017
C87	C	0.975373	-0.779045	-0.318806
C88	C	1.475373	-0.279045	0.181194
C89	C	0.975353	-0.724438	-0.318799
C90	C	1.475353	-0.224438	0.181201
C91	C	1.022733	-0.697121	-0.285388
C92	C	1.522733	-0.197121	0.214612
C93	C	1.022691	-0.642530	-0.285375
C94	C	1.522691	-0.142530	0.214625
N95	N	1.070073	-0.615210	-0.251971
N96	N	1.570073	-0.115210	0.248029
C97	C	1.117479	-0.642493	-0.218571
C98	C	1.617479	-0.142493	0.281429
C99	C	1.022858	-0.975605	-0.285413
C100	C	1.522858	-0.475605	0.214587
C101	C	1.022878	-1.030208	-0.285416
C102	C	1.522878	-0.530208	0.214584
C103	C	1.117669	-1.030171	-0.218609
C104	C	1.617669	-0.530171	0.281391
C105	C	1.117645	-0.975568	-0.218604
C106	C	1.617645	-0.475568	0.281396
C107	C	1.070239	-0.948285	-0.252009
C108	C	1.570239	-0.448285	0.247991
C109	C	1.117412	-0.527828	-0.218557
C110	C	1.617412	-0.027828	0.281443
C111	C	1.117376	-0.473223	-0.218551
C112	C	1.617376	0.026777	0.281449
C113	C	1.022588	-0.473264	-0.285360
C114	C	1.522588	0.026736	0.214640
C115	C	1.022621	-0.527865	-0.285364
C116	C	1.522621	-0.027865	0.214636
C117	C	1.070039	-0.555145	-0.251961
C118	C	1.570039	-0.055145	0.248039
O119	O	0.982377	-0.614263	-0.313752
O120	O	1.482377	-0.114263	0.186248
O121	O	1.157778	-0.614235	-0.190167
O122	O	1.657778	-0.114235	0.309833
C123	C	1.263242	-0.252005	-0.251995
C124	C	1.763242	0.247995	0.248005
C125	C	1.345556	-0.252014	-0.252007
C126	C	1.845556	0.247986	0.247993
C127	C	1.070104	-0.251974	-0.388341
C128	C	1.570104	0.248026	0.111659
C129	C	1.070114	-0.251970	-0.446455
C130	C	1.570114	0.248030	0.053545
C131	C	1.070225	-0.115610	-0.252003
C132	C	1.570225	0.384390	0.247997
C133	C	1.070287	-0.057496	-0.252018
C134	C	1.570287	0.442504	0.247982
C135	C	1.117575	-0.218435	-0.806839
C136	C	1.617575	0.281565	-0.306839
C137	C	1.117585	-0.218421	-0.861443
C138	C	1.617585	0.281579	-0.361443
O139	O	1.157878	-0.189970	-0.889698
O140	O	1.657878	0.310030	-0.389698
N141	N	1.070196	-0.251847	-0.888737
N142	N	1.570196	0.248153	-0.388737
C143	C	1.022789	-0.285286	-0.861424
C144	C	1.522789	0.214714	-0.361424
O145	O	0.982482	-0.313716	-0.889654
O146	O	1.482482	0.186284	-0.389654
C147	C	1.022777	-0.285298	-0.806821
C148	C	1.522777	0.214702	-0.306821
C149	C	1.070174	-0.251873	-0.779530
C150	C	1.570174	0.248127	-0.279530
C151	C	1.164968	-0.185013	-0.779548
C152	C	1.664968	0.314987	-0.279548
C153	C	1.164960	-0.185028	-0.724947
C154	C	1.664960	0.314972	-0.224947
C155	C	1.117559	-0.218466	-0.697638
C156	C	1.617559	0.281534	-0.197638
C157	C	1.070166	-0.251888	-0.724929
C158	C	1.570166	0.248112	-0.224929
C159	C	0.975367	-0.318734	-0.779509
C160	C	1.475367	0.181266	-0.279509
C161	C	0.975359	-0.318742	-0.724902
C162	C	1.475359	0.181258	-0.224902
C163	C	1.022756	-0.285317	-0.697610
C164	C	1.522756	0.214683	-0.197610
C165	C	1.022756	-0.285341	-0.643019
C166	C	1.522756	0.214659	-0.143019
N167	N	1.070145	-0.251915	-0.615725
N168	N	1.570145	0.248085	-0.115725
C169	C	1.117546	-0.218477	-0.643034
C170	C	1.617546	0.281523	-0.143034
C171	C	1.022818	-0.285259	-0.976095
C172	C	1.522818	0.214741	-0.476095
C173	C	1.022833	-0.285251	-1.030697
C174	C	1.522833	0.214749	-0.530697
C175	C	1.117628	-0.218385	-1.030713
C176	C	1.617628	0.281615	-0.530713
C177	C	1.117616	-0.218396	-0.976109
C178	C	1.617616	0.281604	-0.476109
C179	C	1.070207	-0.251833	-0.948801
C180	C	1.570207	0.248167	-0.448801
C181	C	1.117526	-0.218512	-0.528369
C182	C	1.617526	0.281488	-0.028369
C183	C	1.117515	-0.218532	-0.473764
C184	C	1.617515	0.281468	0.026236
C185	C	1.022718	-0.285396	-0.473753
C186	C	1.522718	0.214604	0.026247
C187	C	1.022731	-0.285379	-0.528354
C188	C	1.522731	0.214621	-0.028354
C189	C	1.070137	-0.251932	-0.555661
C190	C	1.570137	0.248068	-0.055661
O191	O	0.982481	-0.313776	-0.614730
O192	O	1.482481	0.186224	-0.114730
O193	O	1.157840	-0.190047	-0.614798
O194	O	1.657840	0.309953	-0.114798
C195	C	1.070099	-0.251954	-0.116125
C196	C	1.570099	0.248046	0.383875
C197	C	1.070232	-0.251811	-0.058011
C198	C	1.570232	0.248189	0.441989
H199	H	0.634266	-0.170661	-0.221053
H200	H	1.134266	0.329339	0.278947
C201	C	1.217037	-0.694337	-0.148431
C202	C	1.717037	-0.194337	0.351569
H203	H	1.245277	-0.718413	-0.128548
H204	H	1.745277	-0.218413	0.371452
H205	H	1.188731	-0.673063	-0.125624
H206	H	1.688731	-0.173063	0.374376
H207	H	1.249279	-0.673010	-0.168457
H208	H	1.749279	-0.173010	0.331543
H209	H	0.936788	-0.801278	-0.346010
H210	H	1.436788	-0.301278	0.153990
C211	C	1.169814	-1.060189	-0.181868
C212	C	1.669814	-0.560189	0.318132
H213	H	1.163042	-1.096621	-0.186661
H214	H	1.663042	-0.596621	0.313339
H215	H	1.159005	-1.051264	-0.146730
H216	H	1.659005	-0.551264	0.353270
H217	H	1.219565	-1.051209	-0.189555
H218	H	1.719565	-0.551209	0.310445
H219	H	0.984248	-0.953395	-0.312614
H220	H	1.484248	-0.453395	0.187386
H221	H	0.633875	-0.196255	-0.318387
H222	H	1.133875	0.303745	0.181613
H223	H	1.155958	-0.450983	-0.191343
H224	H	1.655958	0.049017	0.308657
C225	C	1.217087	-0.808983	-0.148438
C226	C	1.717087	-0.308983	0.351562
H227	H	1.245290	-0.784887	-0.128542
H228	H	1.745290	-0.284887	0.371458
H229	H	1.249351	-0.830258	-0.168455
H230	H	1.749351	-0.330258	0.331545
H231	H	1.188784	-0.830308	-0.125635
H232	H	1.688784	-0.330308	0.374365
H233	H	0.984246	-0.312474	-1.052913
H234	H	1.484246	0.187526	-0.552913
C235	C	0.923210	-0.355524	-0.694863
C236	C	1.423210	0.144476	-0.194863
H237	H	0.929985	-0.350745	-0.658434
H238	H	1.429985	0.149255	-0.158434
H239	H	0.934008	-0.390652	-0.703812
H240	H	1.434008	0.109348	-0.203812
H241	H	0.873460	-0.347857	-0.703806
H242	H	1.373460	0.152143	-0.203806
C243	C	0.500497	-0.277958	-0.347802
C244	C	1.000497	0.222042	0.152198
H245	H	0.519784	-0.269303	-0.381168
H246	H	1.019784	0.230697	0.118832
H247	H	0.448055	-0.277383	-0.349027
H248	H	0.948055	0.222617	0.150973
H249	H	0.516775	-0.311838	-0.338174
H250	H	1.016775	0.188162	0.161826
C251	C	0.642413	-0.273831	-0.349664
C252	C	1.142413	0.226169	0.150336
H253	H	0.673969	-0.299168	-0.334366
H254	H	1.173969	0.200832	0.165634
H255	H	0.669189	-0.254390	-0.374931
H256	H	1.169189	0.245610	0.125069
H257	H	0.601892	-0.290805	-0.365989
H258	H	1.101892	0.209195	0.134011
H259	H	0.936751	-0.702228	-0.346003
H260	H	1.436751	-0.202228	0.153997
H261	H	0.984043	-0.550108	-0.312571
H262	H	1.484043	-0.050108	0.187429
H263	H	0.984128	-0.312622	-0.451508
H264	H	1.484128	0.187378	0.048492
H265	H	1.156027	-0.550033	-0.191359
H266	H	1.656027	-0.050033	0.308641
H267	H	0.984143	-0.312601	-0.550576
H268	H	1.484143	0.187399	-0.050576
C269	C	0.970448	-0.443246	-0.322099
C270	C	1.470448	0.056754	0.177901
H271	H	0.977227	-0.406814	-0.317311
H272	H	1.477227	0.093186	0.182689
H273	H	0.920699	-0.452227	-0.314419
H274	H	1.420699	0.047773	0.185581
H275	H	0.981268	-0.452170	-0.357238
H276	H	1.481268	0.047830	0.142762
C277	C	0.499802	-0.156054	-0.224381
C278	C	0.999802	0.343946	0.275619
H279	H	0.468833	-0.157216	-0.254267
H280	H	0.968833	0.342784	0.245733
H281	H	0.540787	-0.133891	-0.231102
H282	H	1.040787	0.366109	0.268898
H283	H	0.472612	-0.142919	-0.195542
H284	H	0.972612	0.357081	0.304458
C285	C	0.641018	-0.349025	-0.275215
C286	C	1.141018	0.150975	0.224785
H287	H	0.621541	-0.382014	-0.265391
H288	H	1.121541	0.117986	0.234609
H289	H	0.693450	-0.350313	-0.274399
H290	H	1.193450	0.149687	0.225601
H291	H	0.625012	-0.340644	-0.309490
H292	H	1.125012	0.159356	0.190510
H293	H	1.156114	-0.191313	-0.451546
H294	H	1.656114	0.308687	0.048454
C295	C	0.970681	-0.322054	-0.946060
C296	C	1.470681	0.177946	-0.446060
H297	H	0.942471	-0.341962	-0.970139
H298	H	1.442471	0.158038	-0.470139
H299	H	0.938424	-0.302065	-0.924754
H300	H	1.438424	0.197935	-0.424754
H301	H	0.998993	-0.344844	-0.924765
H302	H	1.498993	0.155156	-0.424765
C303	C	1.169677	-0.181727	-0.558399
C304	C	1.669677	0.318273	-0.058399
H305	H	1.197902	-0.161830	-0.534319
H306	H	1.697902	0.338170	-0.034319
H307	H	1.141385	-0.158933	-0.579699
H308	H	1.641385	0.341067	-0.079699
H309	H	1.201931	-0.201729	-0.579701
H310	H	1.701931	0.298271	-0.079701
H311	H	0.506055	-0.220534	-0.171010
H312	H	1.006055	0.279466	0.328990
H313	H	1.203554	-0.157809	-0.702732
H314	H	1.703554	0.342191	-0.202732
H315	H	1.156226	-0.953329	-0.191399
H316	H	1.656226	-0.453329	0.308601
C317	C	1.217119	-0.148231	-0.809580
C318	C	1.717119	0.351769	-0.309580
H319	H	1.245341	-0.128334	-0.785498
H320	H	1.745341	0.371666	-0.285498
H321	H	1.188830	-0.125438	-0.830882
H322	H	1.688830	0.374562	-0.330882
H323	H	1.249375	-0.168235	-0.830878
H324	H	1.749375	0.331765	-0.330878
C325	C	0.970756	-1.060251	-0.322164
C326	C	1.470756	-0.560251	0.177836
H327	H	0.942524	-1.036177	-0.342055
H328	H	1.442524	-0.536177	0.157945
H329	H	0.938517	-1.081584	-0.302147
H330	H	1.438517	-0.581584	0.197853
H331	H	0.999077	-1.081520	-0.344972
H332	H	1.499077	-0.581520	0.155028
C333	C	1.169744	-0.181624	-0.946094
C334	C	1.669744	0.318376	-0.446094
H335	H	1.197970	-0.161707	-0.970183
H336	H	1.697970	0.338293	-0.470183
H337	H	1.201987	-0.201627	-0.924791
H338	H	1.701987	0.298373	-0.424791
H339	H	1.141428	-0.158840	-0.924796
H340	H	1.641428	0.341160	-0.424796
H341	H	0.633676	-0.220748	-0.170600
H342	H	1.133676	0.279252	0.329400
C343	C	0.500842	-0.322851	-0.181963
C344	C	1.000842	0.177149	0.318037
H345	H	0.542202	-0.329434	-0.160135
H346	H	1.042202	0.170566	0.339865
H347	H	0.471594	-0.353515	-0.184559
H348	H	0.971594	0.146485	0.315441
H349	H	0.472062	-0.295481	-0.167466
H350	H	0.972062	0.204519	0.332534
H351	H	0.507144	-0.338107	-0.264629
H352	H	1.007144	0.161893	0.235371
C353	C	1.169766	-0.181600	-1.060757
C354	C	1.669766	0.318400	-0.560757
H355	H	1.197996	-0.161695	-1.036686
H356	H	1.697996	0.338305	-0.536686
H357	H	1.141462	-0.158813	-1.082057
H358	H	1.641462	0.341187	-0.582057
H359	H	1.202018	-0.201603	-1.082060
H360	H	1.702018	0.298397	-0.582060
C361	C	0.642443	-0.323361	-0.182831
C362	C	1.142443	0.176639	0.317169
H363	H	0.673479	-0.296684	-0.169358
H364	H	1.173479	0.203316	0.330642
H365	H	0.669782	-0.354826	-0.185890
H366	H	1.169782	0.145174	0.314110
H367	H	0.601906	-0.328621	-0.159878
H368	H	1.101906	0.171379	0.340122
H369	H	0.936771	-0.345952	-0.801720
H370	H	1.436771	0.154048	-0.301720
H371	H	0.506307	-0.198549	-0.321025
H372	H	1.006307	0.301451	0.178975
