data_functionalizedCrystal
_audit_creation_method	'MofGen! by Chris Wilmer'
_symmetry_space_group_name_H-M	'P1'
_symmetry_Int_Tables_number	1
_symmetry_cell_setting	triclinic
loop_
_symmetry_equiv_pos_as_xyz
  x,y,z
_cell_length_a	14.809374
_cell_length_b	16.704479
_cell_length_c	14.809374
_cell_angle_alpha	64.302508
_cell_angle_beta	91.387536
_cell_angle_gamma	56.518769
loop_
_atom_site_label
_atom_site_type_symbol
_atom_site_fract_x
_atom_site_fract_y
_atom_site_fract_z
Zr1	Zr	1.039868	0.667583	-0.038978
O2	O	0.905629	0.831292	-0.192411
O3	O	1.072891	0.503873	0.013239
O4	O	1.103244	0.631111	-0.162031
O5	O	0.860579	0.732823	0.115221
O6	O	1.268372	0.602342	-0.143961
O7	O	0.875276	0.704054	-0.017141
O8	O	1.214076	0.374736	0.169565
O9	O	0.914875	0.960429	-0.198305
O10	O	1.220029	0.549739	0.042734
O11	O	1.085827	0.592679	0.128029
O12	O	1.121564	0.742486	-0.078329
O13	O	0.987362	0.785426	0.006965
Zr14	Zr	1.279788	0.667583	0.200943
Zr15	Zr	1.303228	0.621699	-0.010159
Zr16	Zr	1.016428	0.713466	0.172124
Zr17	Zr	1.054614	0.873541	-0.048379
Zr18	Zr	1.265042	0.461624	0.210344
O19	O	1.246765	0.831292	0.148726
O20	O	1.280093	0.766052	-0.151434
O21	O	0.872301	0.896533	0.107748
O22	O	1.414027	0.503873	0.354376
O23	O	1.447356	0.438633	0.054216
O24	O	1.039563	0.569114	0.313399
O25	O	1.459077	0.602342	0.046744
O26	O	1.216412	0.704054	0.323996
O27	O	1.051284	0.732823	0.305926
O28	O	1.444380	0.631111	0.179106
O29	O	1.124211	0.923958	-0.175398
O30	O	1.195445	0.411208	0.337363
O31	O	1.404781	0.374736	0.360270
O32	O	1.423413	0.338265	0.192473
O33	O	0.896243	0.996900	-0.030508
O34	O	1.105580	0.960429	-0.007600
O35	O	1.198092	0.592679	0.240294
O36	O	1.332294	0.549739	0.154999
O37	O	1.233829	0.742486	0.033936
O38	O	1.099628	0.785426	0.119231
C39	C	1.141383	0.409960	0.092742
C40	C	1.135122	0.322525	0.096733
C41	C	1.056223	0.221729	0.146843
C42	C	1.062121	0.303864	0.143119
C43	C	1.202233	0.259042	0.054069
C44	C	1.196335	0.176906	0.057792
C45	C	1.123326	0.158255	0.104180
C46	C	1.117423	0.076124	0.107896
C47	C	1.257540	0.031297	0.018853
C48	C	1.263438	0.113432	0.015129
C49	C	0.830404	0.724976	0.044934
C50	C	0.718601	0.744455	0.032699
C51	C	0.717601	0.657524	0.087301
C52	C	0.602047	0.677654	0.074657
C53	C	1.489252	0.610189	0.117031
C54	C	1.601055	0.590711	0.129265
C55	C	1.189148	0.610189	-0.183074
C56	C	1.199098	0.590711	-0.272692
C57	C	1.178274	0.925205	0.069223
C58	C	1.184534	1.012640	0.065232
C59	C	1.154689	0.677642	-0.372702
C60	C	1.164973	0.657512	-0.465328
C61	C	1.130509	0.724976	0.345038
C62	C	1.120558	0.744455	0.434656
C63	C	1.470806	0.352567	0.128790
C64	C	1.576350	0.245653	0.145016
C65	C	1.112063	0.467353	0.356798
C66	C	1.095852	0.399398	0.450407
C67	C	1.441487	0.409960	0.392846
C68	C	1.537079	0.322525	0.498690
C69	C	0.878169	0.925205	-0.230881
C70	C	0.782577	1.012640	-0.336725
C71	C	0.848850	0.982599	0.033175
C72	C	0.743307	1.089512	0.016949
C73	C	1.207593	0.867812	-0.194833
C74	C	1.223804	0.935768	-0.288442
C75	C	1.567314	0.195444	0.094025
C76	C	1.666475	0.094996	0.109249
C77	C	1.774671	0.044755	0.175471
C78	C	1.783706	0.094974	0.226462
C79	C	1.684546	0.195424	0.211231
C80	C	1.146840	0.367487	0.552977
C81	C	1.131603	0.303649	0.640940
C82	C	1.065385	0.271716	0.626331
C83	C	1.014392	0.303634	0.523750
C84	C	1.029622	0.367478	0.435788
C85	C	1.652033	0.259049	0.503873
C86	C	1.741865	0.176903	0.603317
C87	C	1.716739	0.158229	0.697576
C88	C	1.601773	0.221715	0.692389
C89	C	1.511945	0.303866	0.592946
C90	C	0.667623	1.076127	-0.341909
C91	C	0.577794	1.158298	-0.441354
C92	C	0.602920	1.176976	-0.535613
C93	C	0.717885	1.113485	-0.530426
C94	C	0.807713	1.031320	-0.430983
C95	C	0.752344	1.139728	0.067931
C96	C	0.653186	1.240194	0.052682
C97	C	0.544991	1.290437	-0.013542
C98	C	0.535956	1.240215	-0.064530
C99	C	0.635114	1.139756	-0.049287
C100	C	1.290029	0.967679	-0.273799
C101	C	1.305283	1.031518	-0.361744
C102	C	1.254305	1.063451	-0.464331
C103	C	1.188077	1.031532	-0.478972
C104	C	1.172831	0.967688	-0.391027
H105	H	1.057972	0.060944	0.145662
H106	H	1.244735	0.501382	-0.255643
H107	H	1.007478	0.355545	0.177859
H108	H	1.331544	0.941690	-0.190275
H109	H	0.529766	1.243883	-0.616580
H110	H	1.691918	0.236294	0.252762
H111	H	1.359209	1.057500	-0.349803
Cl112	Cl	0.623730	1.076633	-0.113379
Cl113	Cl	0.931152	0.263478	0.505403
Cl114	Cl	1.046252	0.191452	0.736925
H115	H	0.738331	1.128703	-0.607184
Cl116	Cl	1.886380	0.097101	0.609813
H117	H	0.988104	0.393449	0.352275
H118	H	0.447850	1.281138	-0.118450
H119	H	1.074924	0.833789	-0.582401
H120	H	1.581332	0.206499	0.769149
H121	H	0.802291	0.568197	0.143411
H122	H	1.479226	0.236344	0.040090
Cl123	Cl	1.367432	0.383651	0.586449
Cl124	Cl	0.664570	1.303305	0.116794
H125	H	1.266728	1.115437	-0.535932
Cl126	Cl	0.471295	0.815582	-0.011968
Cl127	Cl	1.683651	0.282511	0.385390
H128	H	1.789894	0.091333	0.778542
Cl129	Cl	0.636006	1.052666	-0.223426
Cl130	Cl	0.433278	1.238097	-0.447850
Cl131	Cl	1.294011	0.282502	-0.004237
Cl132	Cl	1.123984	1.071699	-0.607948
H133	H	1.118899	0.941714	-0.402965
Cl134	Cl	0.888350	1.076591	0.151184
Cl135	Cl	1.355215	0.136890	-0.043183
Cl136	Cl	0.964430	0.198291	0.205141
H137	H	1.312177	-0.020391	-0.015891
Cl138	Cl	1.899320	-0.081529	0.194609
H139	H	1.659097	0.054121	0.067723
Cl140	Cl	0.587848	0.882377	-0.053922
Cl141	Cl	0.731806	0.452780	0.215889
Cl142	Cl	0.952224	0.951507	-0.424483
H143	H	1.109062	0.766969	-0.389749
Cl144	Cl	0.420345	1.416728	-0.032691
H145	H	1.871812	0.054053	0.280379
H146	H	1.210613	0.568177	-0.448272
H147	H	1.200760	0.393480	0.564891
H148	H	1.173135	0.277668	0.724458
