data_functionalizedCrystal
_audit_creation_method	'MofGen! by Chris Wilmer'
_symmetry_space_group_name_H-M	'P1'
_symmetry_Int_Tables_number	1
_symmetry_cell_setting	triclinic
loop_
_symmetry_equiv_pos_as_xyz
  x,y,z
_cell_length_a	21.295418
_cell_length_b	18.050589
_cell_length_c	18.050582
_cell_angle_alpha	89.981795
_cell_angle_beta	89.965893
_cell_angle_gamma	90.044036
loop_
_atom_site_label
_atom_site_type_symbol
_atom_site_fract_x
_atom_site_fract_y
_atom_site_fract_z
Zn1	Zn	0.962306	-0.295393	-0.420315
Zn2	Zn	0.962230	-0.419576	-0.296135
Zn3	Zn	0.857047	-0.295439	-0.296098
Zn4	Zn	0.857003	-0.419580	-0.420242
O5	O	0.909646	-0.357497	-0.358197
O6	O	1.050385	-0.311846	-0.403889
O7	O	0.948264	-0.403127	-0.192205
O8	O	0.871060	-0.191508	-0.312591
O9	O	1.050330	-0.403083	-0.312654
O10	O	0.948393	-0.191475	-0.403853
O11	O	0.870986	-0.311924	-0.192178
O12	O	0.768952	-0.311927	-0.312520
O13	O	0.870985	-0.403089	-0.524176
O14	O	0.768919	-0.403133	-0.403727
O15	O	0.948350	-0.311849	-0.524230
O16	O	0.948221	-0.523502	-0.312582
O17	O	0.870911	-0.523504	-0.403763
C18	C	0.909570	-0.550449	-0.358185
C19	C	0.909596	-0.632995	-0.358205
C20	C	0.746095	-0.357536	-0.358112
C21	C	0.676127	-0.357571	-0.358093
C22	C	0.867596	-0.832474	-0.407771
C23	C	0.852255	-0.881913	-0.339998
C24	C	0.909657	-0.784125	-0.358214
C25	C	0.925029	-0.881768	-0.425995
C26	C	0.909716	-0.930111	-0.358230
C27	C	0.894287	-0.832477	-0.290405
C28	C	0.967087	-0.832328	-0.376448
C29	C	0.951768	-0.881745	-0.308628
C30	C	0.909622	-0.700027	-0.358206
C31	C	0.909751	-1.014207	-0.358230
C32	C	0.643260	-0.405125	-0.405514
C33	C	0.577517	-0.405106	-0.405547
C34	C	0.544644	-0.357542	-0.358146
C35	C	0.577519	-0.309979	-0.310722
C36	C	0.643260	-0.309993	-0.310695
N37	N	0.441377	-0.351735	-0.293191
N38	N	0.378926	-0.351726	-0.293218
C39	C	0.346570	-0.357495	-0.358225
N40	N	0.379024	-0.363288	-0.423205
N41	N	0.441481	-0.363301	-0.423177
C42	C	0.473359	-0.357521	-0.358170
C43	C	0.242417	-0.405031	-0.405686
C44	C	0.176673	-0.405008	-0.405721
C45	C	0.176677	-0.309884	-0.310889
C46	C	0.242419	-0.309904	-0.310861
C47	C	0.275285	-0.357481	-0.358259
C48	C	1.073837	-0.357459	-0.358284
C49	C	1.143805	-0.357442	-0.358320
C50	C	0.909671	-0.357464	-0.551903
C51	C	0.909682	-0.357450	-0.634449
C52	C	0.909740	-0.163792	-0.358226
C53	C	0.909780	-0.081246	-0.358238
C54	C	0.867642	-0.406999	-0.833870
C55	C	0.925074	-0.425133	-0.883286
C56	C	0.909713	-0.357394	-0.785579
C57	C	0.852313	-0.339238	-0.883246
C58	C	0.909738	-0.357340	-0.931565
C59	C	0.967174	-0.375564	-0.833908
C60	C	0.894375	-0.289637	-0.833863
C61	C	0.951846	-0.307746	-0.883256
C62	C	0.909697	-0.357426	-0.701481
C63	C	0.909759	-0.357307	-1.015661
C64	C	0.909658	-0.357476	-0.165245
C65	C	0.909770	-0.357281	-0.082700
H66	H	0.803716	-0.903709	-0.324590
H67	H	0.832098	-0.449003	-0.812187
H68	H	0.803760	-0.323905	-0.904919
H69	H	1.015615	-0.810534	-0.391889
H70	H	0.550750	-0.271251	-0.272129
O71	O	0.942279	-0.500998	-0.912054
H72	H	0.907280	-0.542099	-0.892282
O73	O	0.877017	-0.803927	-0.214461
H74	H	0.877103	-0.742439	-0.215059
O75	O	0.877136	-0.213799	-0.805066
H76	H	0.868104	-0.176109	-0.852468
H77	H	0.670015	-0.443865	-0.444110
H78	H	1.015741	-0.390962	-0.812325
H79	H	0.149914	-0.443730	-0.444341
O80	O	0.141232	-0.258587	-0.259755
H81	H	0.089995	-0.266569	-0.267734
H82	H	0.938006	-0.903420	-0.483311
O83	O	0.998922	-0.910229	-0.253068
H84	H	0.986039	-0.890380	-0.196889
H85	H	0.670020	-0.271267	-0.272079
O86	O	0.542055	-0.456427	-0.456667
H87	H	0.575954	-0.489524	-0.489608
O88	O	0.820415	-0.803801	-0.463204
H89	H	0.772804	-0.823661	-0.447892
O90	O	0.277873	-0.456333	-0.456814
H91	H	0.243971	-0.489389	-0.489806
H92	H	0.269180	-0.271184	-0.272242
H93	H	0.987475	-0.265774	-0.904804
