data_functionalizedCrystal
_audit_creation_method	'MofGen! by Chris Wilmer'
_symmetry_space_group_name_H-M	'P1'
_symmetry_Int_Tables_number	1
_symmetry_cell_setting	triclinic
loop_
_symmetry_equiv_pos_as_xyz
  x,y,z
_cell_length_a	15.625433
_cell_length_b	15.944493
_cell_length_c	14.185568
_cell_angle_alpha	76.883377
_cell_angle_beta	85.722117
_cell_angle_gamma	83.877512
loop_
_atom_site_label
_atom_site_type_symbol
_atom_site_fract_x
_atom_site_fract_y
_atom_site_fract_z
O1	O	1.116912	0.183180	-0.322824
O2	O	0.875956	0.176286	-0.235178
O3	O	1.003035	0.058014	-0.281422
O4	O	0.989834	0.301451	-0.276580
O5	O	0.965437	0.092885	-0.434575
O6	O	0.838358	0.211156	-0.388331
O7	O	1.079315	0.218051	-0.475976
Cu8	Cu	0.955404	0.217787	-0.446138
Cu9	Cu	0.999867	0.176549	-0.265017
O10	O	0.952236	0.336322	-0.429732
C11	C	0.826324	0.190575	-0.300539
C12	C	0.734449	0.181192	-0.267122
C13	C	0.983695	0.044110	-0.357805
C14	C	0.982074	-0.049273	-0.357225
C15	C	1.128948	0.203760	-0.410613
C16	C	1.220824	0.213143	-0.444025
C17	C	0.971576	0.350226	-0.353347
C18	C	0.973198	0.443607	-0.353922
C19	C	1.625462	0.148958	-0.136528
C20	C	1.711787	0.157780	-0.167951
C21	C	1.670787	0.195794	-0.334908
C22	C	1.584456	0.186978	-0.303498
C23	C	1.561802	0.163559	-0.204307
C24	C	1.520796	0.201580	-0.371277
C25	C	1.434474	0.192760	-0.339870
C26	C	1.411812	0.169340	-0.240683
C27	C	1.475480	0.154740	-0.172899
C28	C	1.543454	0.224993	-0.470468
C29	C	1.479793	0.239595	-0.538247
C30	C	1.393468	0.230781	-0.506840
C31	C	1.370806	0.207360	-0.407653
C32	C	1.329801	0.245381	-0.574623
C33	C	1.243479	0.236562	-0.543216
C34	C	1.284484	0.198541	-0.376246
C35	C	0.898387	0.673087	-0.326743
C36	C	0.957263	0.709863	-0.265907
C37	C	0.976193	0.614585	-0.355034
C38	C	0.920212	0.744201	-0.416910
C39	C	0.979078	0.779743	-0.356110
C40	C	1.035063	0.650116	-0.294129
C41	C	0.997984	0.684466	-0.445195
C42	C	1.056921	0.721209	-0.384363
C43	C	0.974528	0.519442	-0.354412
C44	C	0.980750	0.874883	-0.356728
N45	N	1.031141	0.147537	-0.137626
N46	N	0.924136	0.246793	-0.573530
C47	C	0.832215	0.331949	0.302413
C48	C	0.855926	0.309997	0.398806
C49	C	0.968665	0.205519	0.357741
C50	C	0.944966	0.227465	0.261342
C51	C	0.876740	0.290680	0.233686
C52	C	0.989491	0.186196	0.192615
C53	C	0.965791	0.208138	0.096225
C54	C	0.897565	0.271348	0.068562
C55	C	0.853039	0.312621	0.137296
C56	C	1.057713	0.122978	0.220274
C57	C	1.102238	0.081709	0.151547
C58	C	1.078542	0.103654	0.055153
C59	C	1.010317	0.166865	0.027490
C60	C	1.123068	0.062381	-0.013581
C61	C	1.099368	0.084323	-0.109971
C62	C	0.986616	0.188806	-0.068900
H63	H	1.266037	0.179481	-0.295474
N64	N	1.147397	0.039812	-0.184098
H65	H	1.174125	0.084195	-0.237406
H66	H	1.105982	0.008975	-0.212530
H67	H	1.341522	0.162160	-0.215112
H68	H	1.024214	0.154046	0.380271
H69	H	1.348262	0.264441	-0.655385
H70	H	1.613744	0.232174	-0.496037
N71	N	1.175819	0.013532	0.181399
H72	H	1.230395	0.032115	0.143255
H73	H	1.162218	-0.043073	0.168056
H74	H	0.931065	0.240288	-0.091418
N75	N	1.451032	0.129495	-0.065914
H76	H	1.504458	0.121588	-0.027736
H77	H	1.422824	0.073535	-0.051693
N78	N	1.601008	0.123706	-0.029544
H79	H	1.618274	0.168404	0.003939
H80	H	1.631709	0.065444	-0.001036
N81	N	1.504231	0.264853	-0.645228
H82	H	1.568576	0.268225	-0.654841
H83	H	1.473475	0.323087	-0.673735
H84	H	1.077004	0.105112	0.298763
H85	H	0.878267	0.289209	-0.009925
H86	H	1.178613	0.010905	0.008951
N87	N	1.099341	0.596340	-0.225292
H88	H	1.129576	0.635489	-0.194557
H89	H	1.143159	0.563017	-0.262180
H90	H	1.763619	0.145893	-0.112749
N91	N	1.695225	0.221052	-0.441888
H92	H	1.759569	0.224424	-0.451502
H93	H	1.664469	0.279287	-0.470395
N94	N	1.174813	0.252306	-0.616319
H95	H	1.202342	0.267892	-0.683945
H96	H	1.131718	0.301347	-0.604900
H97	H	0.831388	0.651810	-0.302288
H98	H	1.124001	0.742303	-0.408719
H99	H	1.015139	0.672793	-0.520979
H100	H	0.871667	0.784893	-0.468792
H101	H	0.940078	0.721519	-0.190116
N102	N	0.779463	0.380816	0.107452
H103	H	0.754854	0.403638	0.165614
H104	H	0.733120	0.354593	0.080753
H105	H	0.776664	0.383431	0.279894
H106	H	0.819661	0.343608	0.454763
