data_functionalizedCrystal
_audit_creation_method	'MofGen! by Chris Wilmer'
_symmetry_space_group_name_H-M	'P1'
_symmetry_Int_Tables_number	1
_symmetry_cell_setting	triclinic
loop_
_symmetry_equiv_pos_as_xyz
  x,y,z
_cell_length_a	16.625548
_cell_length_b	12.594516
_cell_length_c	16.625539
_cell_angle_alpha	89.973898
_cell_angle_beta	89.982945
_cell_angle_gamma	90.014591
loop_
_atom_site_label
_atom_site_type_symbol
_atom_site_fract_x
_atom_site_fract_y
_atom_site_fract_z
Zn1	Zn	1.232703	-0.423729	-0.455911
Zn2	Zn	1.732703	0.076271	0.044089
Zn3	Zn	1.232635	-0.601725	-0.321079
Zn4	Zn	1.732635	-0.101725	0.178921
Zn5	Zn	1.097873	-0.423764	-0.321092
Zn6	Zn	1.597873	0.076236	0.178908
Zn7	Zn	1.097856	-0.601670	-0.455869
Zn8	Zn	1.597856	-0.101670	0.044131
O9	O	1.165267	-0.512722	-0.388488
O10	O	1.665267	-0.012722	0.111512
O11	O	1.345526	-0.447350	-0.438038
O12	O	1.845526	0.052650	0.061962
O13	O	1.214737	-0.578156	-0.208248
O14	O	1.714737	-0.078156	0.291752
O15	O	1.115793	-0.274814	-0.338999
O16	O	1.615793	0.225186	0.161001
O17	O	1.345476	-0.578122	-0.338977
O18	O	1.845476	-0.078122	0.161023
O19	O	1.214852	-0.274788	-0.438050
O20	O	1.714852	0.225212	0.061950
O21	O	1.115728	-0.447409	-0.208258
O22	O	1.615728	0.052591	0.291742
O23	O	0.985038	-0.447355	-0.338958
O24	O	1.485038	0.052645	0.161042
O25	O	1.115765	-0.578028	-0.568707
O26	O	1.615765	-0.078028	-0.068707
O27	O	0.985026	-0.578062	-0.437978
O28	O	1.485026	-0.078062	0.062022
O29	O	1.214836	-0.447296	-0.568738
O30	O	1.714836	0.052704	-0.068738
O31	O	1.214721	-0.750663	-0.338937
O32	O	1.714721	-0.250663	0.161063
O33	O	1.115699	-0.750623	-0.437966
O34	O	1.615699	-0.250623	0.062034
C35	C	0.955776	-0.512707	-0.388465
C36	C	1.455776	-0.012707	0.111535
C37	C	0.866155	-0.512726	-0.388475
C38	C	1.366155	-0.012726	0.111525
C39	C	1.165223	-0.789263	-0.388463
C40	C	1.665223	-0.289263	0.111537
C41	C	1.165278	-0.907568	-0.388479
C42	C	1.665278	-0.407568	0.111521
C43	C	0.537979	-0.512733	-0.388509
C44	C	1.037979	-0.012733	0.111491
C45	C	0.629287	-0.512728	-0.388497
C46	C	1.129287	-0.012728	0.111503
C47	C	0.702064	-0.512730	-0.388491
C48	C	1.202064	-0.012730	0.111509
C49	C	0.793378	-0.512724	-0.388481
C50	C	1.293378	-0.012724	0.111519
C51	C	1.219235	-1.047569	-0.334711
C52	C	1.719235	-0.547569	0.165289
C53	C	1.145656	-0.976884	-0.314895
C54	C	1.645656	-0.476884	0.185105
C55	C	1.238848	-0.976682	-0.408259
C56	C	1.738848	-0.476682	0.091741
C57	C	1.091744	-1.047669	-0.368695
C58	C	1.591744	-0.547669	0.131305
C59	C	1.184985	-1.047473	-0.462093
C60	C	1.684985	-0.547473	0.037907
C61	C	1.111355	-0.976821	-0.442305
C62	C	1.611355	-0.476821	0.057695
C63	C	1.375575	-0.512738	-0.388511
C64	C	1.875575	-0.012738	0.111489
C65	C	1.465197	-0.512745	-0.388521
C66	C	1.965197	-0.012745	0.111479
C67	C	1.165306	-0.512652	-0.598797
C68	C	1.665306	-0.012652	-0.098797
C69	C	1.165323	-0.512622	-0.688418
C70	C	1.665323	-0.012622	-0.188418
C71	C	1.165332	-0.235101	-0.388530
C72	C	1.665332	0.264899	0.111470
C73	C	1.165360	-0.116796	-0.388549
C74	C	1.665360	0.383204	0.111451
C75	C	1.165336	-0.512598	-0.761201
C76	C	1.665336	-0.012598	-0.261201
C77	C	1.165355	-0.512559	-0.852509
C78	C	1.665355	-0.012559	-0.352509
C79	C	1.165374	-0.512521	-0.925286
C80	C	1.665374	-0.012521	-0.425286
C81	C	1.165394	-0.512483	-1.016600
C82	C	1.665394	-0.012483	-0.516600
C83	C	1.165274	-0.512715	-0.178997
C84	C	1.665274	-0.012715	0.321003
C85	C	1.165413	-0.512445	-0.089376
C86	C	1.665413	-0.012445	0.410624
H87	H	1.264773	-1.078632	-0.289177
H88	H	1.764773	-0.578632	0.210823
C89	C	1.343942	-0.971743	-0.507291
C90	C	1.843942	-0.471743	-0.007291
C91	C	1.322794	-0.934590	-0.430789
C92	C	1.822794	-0.434590	0.069211
H93	H	1.395767	-0.945753	-0.521189
H94	H	1.895767	-0.445753	-0.021189
H95	H	1.344694	-1.047151	-0.506997
H96	H	1.844694	-0.547151	-0.006997
H97	H	1.305713	-0.947505	-0.545573
H98	H	1.805713	-0.447505	-0.045573
H99	H	1.361020	-0.958835	-0.392505
H100	H	1.861020	-0.458835	0.107495
H101	H	1.322048	-0.859166	-0.431077
H102	H	1.822048	-0.359166	0.068923
C103	C	1.179730	-0.970711	-0.174647
C104	C	1.679730	-0.470711	0.325353
C105	C	1.123194	-0.935008	-0.230898
C106	C	1.623194	-0.435008	0.269102
H107	H	1.165868	-0.944855	-0.122791
H108	H	1.665868	-0.444855	0.377209
H109	H	1.180073	-1.046120	-0.173942
H110	H	1.680073	-0.546120	0.326058
H111	H	1.231590	-0.945356	-0.189052
H112	H	1.731590	-0.445356	0.310948
H113	H	1.071335	-0.960370	-0.216496
H114	H	1.571335	-0.460370	0.283504
H115	H	1.122843	-0.859584	-0.231600
H116	H	1.622843	-0.359584	0.268400
H117	H	1.029544	-1.078718	-0.351925
H118	H	1.529544	-0.578718	0.148075
H119	H	1.065708	-0.945953	-0.487805
H120	H	1.565708	-0.445953	0.012195
H121	H	1.201645	-1.078506	-0.524300
H122	H	1.701645	-0.578506	-0.024300
