data_functionalizedCrystal
_audit_creation_method	'MofGen! by Chris Wilmer'
_symmetry_space_group_name_H-M	'P1'
_symmetry_Int_Tables_number	1
_symmetry_cell_setting	triclinic
loop_
_symmetry_equiv_pos_as_xyz
  x,y,z
_cell_length_a	19.077105
_cell_length_b	17.640280
_cell_length_c	19.077174
_cell_angle_alpha	80.587117
_cell_angle_beta	85.483752
_cell_angle_gamma	76.093206
loop_
_atom_site_label
_atom_site_type_symbol
_atom_site_fract_x
_atom_site_fract_y
_atom_site_fract_z
Zn1	Zn	1.160252	-0.384045	-0.375464
Zn2	Zn	1.177382	-0.510689	-0.235687
Zn3	Zn	1.035723	-0.372996	-0.254771
Zn4	Zn	1.064267	-0.510637	-0.348814
O5	O	1.109406	-0.444592	-0.303684
O6	O	1.261980	-0.405490	-0.360089
O7	O	1.153814	-0.487822	-0.140364
O8	O	1.033127	-0.263858	-0.289922
O9	O	1.274565	-0.498535	-0.257395
O10	O	1.124619	-0.271975	-0.378594
O11	O	1.049737	-0.386659	-0.154385
O12	O	0.940054	-0.386609	-0.264080
O13	O	1.081777	-0.498447	-0.450203
O14	O	0.961025	-0.487733	-0.333172
O15	O	1.152297	-0.405440	-0.469783
O16	O	1.181492	-0.621287	-0.231553
O17	O	1.098386	-0.621249	-0.314667
C18	C	0.924752	-0.435967	-0.297805
C19	C	0.845761	-0.432297	-0.295304
C20	C	0.819597	-0.483296	-0.330018
C21	C	0.745374	-0.479838	-0.327672
C22	C	0.697317	-0.425383	-0.290609
C23	C	0.723485	-0.374379	-0.255894
C24	C	0.797706	-0.377834	-0.258244
C25	C	0.474165	-0.409392	-0.279736
C26	C	0.399940	-0.405942	-0.277387
C27	C	0.421835	-0.511400	-0.349167
C28	C	0.496057	-0.514854	-0.351510
C29	C	0.522218	-0.463847	-0.316798
N30	N	0.621450	-0.421849	-0.288208
N31	N	0.598083	-0.467378	-0.319203
C32	C	1.144915	-0.649948	-0.268163
C33	C	1.160172	-0.737804	-0.252992
C34	C	0.993803	-1.026769	-0.419197
C35	C	1.008140	-1.109322	-0.404919
C36	C	1.094738	-1.109303	-0.318465
C37	C	1.080411	-1.026749	-0.332738
C38	C	1.029942	-0.985488	-0.383104
C39	C	1.116551	-0.985468	-0.296645
C40	C	1.102222	-0.902920	-0.310914
C41	C	1.051754	-0.861653	-0.361275
C42	C	1.015614	-0.902940	-0.397372
C43	C	1.167015	-1.026729	-0.246275
C44	C	1.203155	-0.985448	-0.210182
C45	C	1.188830	-0.902899	-0.224455
C46	C	1.138362	-0.861633	-0.274817
C47	C	1.224970	-0.861612	-0.188358
C48	C	1.210641	-0.779065	-0.202627
C49	C	1.124033	-0.779085	-0.289086
C50	C	1.294781	-0.453251	-0.309586
C51	C	1.373777	-0.456941	-0.312101
C52	C	1.118310	-0.453170	-0.486075
C53	C	1.122104	-0.456826	-0.563799
C54	C	1.073778	-0.238436	-0.339360
C55	C	1.058596	-0.150585	-0.354562
C56	C	1.069702	-0.405875	-0.607614
C57	C	1.073266	-0.409316	-0.680643
C58	C	1.129235	-0.463705	-0.709857
C59	C	1.181640	-0.514662	-0.666036
C60	C	1.178073	-0.511224	-0.593008
C61	C	1.145711	-0.479639	-0.927484
C62	C	1.149275	-0.483071	-1.000518
C63	C	1.040900	-0.377726	-1.015120
C64	C	1.037340	-0.374289	-0.942090
C65	C	1.089743	-0.425249	-0.898275
N66	N	1.132880	-0.467222	-0.784504
N67	N	1.086094	-0.421735	-0.823628
C68	C	1.100568	-0.435992	-0.122014
C69	C	1.096873	-0.432120	-0.044333
H70	H	0.858722	-0.527641	-0.360197
C71	C	0.548914	-0.574748	-0.392286
H72	H	0.522700	-0.604622	-0.412630
H73	H	0.582503	-0.609227	-0.360456
H74	H	0.574140	-0.547343	-0.428938
H75	H	1.024129	-0.361581	-0.583835
H76	H	1.244244	-1.019054	-0.169172
C77	C	0.960104	-0.857545	-0.452778
H78	H	0.956752	-0.802471	-0.456107
H79	H	0.914213	-0.868405	-0.438645
H80	H	0.975113	-0.873746	-0.497768
C81	C	1.015626	-0.353265	-0.728837
H82	H	0.981788	-0.320373	-0.700980
H83	H	0.991272	-0.383388	-0.751108
H84	H	1.038261	-0.321438	-0.764150
H85	H	1.240069	-0.745453	-0.173235
H86	H	0.684350	-0.330038	-0.225719
C87	C	0.502936	-0.353300	-0.241540
H88	H	0.463684	-0.320384	-0.219121
H89	H	0.527257	-0.321511	-0.275196
H90	H	0.535610	-0.383405	-0.206721
H91	H	1.082942	-0.745489	-0.330104
H92	H	0.952712	-0.993173	-0.460215
C93	C	0.826486	-0.321735	-0.220060
H94	H	0.787236	-0.288812	-0.197645
H95	H	0.850804	-0.289954	-0.253727
H96	H	0.859164	-0.351830	-0.185240
C97	C	0.975778	-0.314455	-0.909961
H98	H	0.945077	-0.284604	-0.946515
H99	H	0.995631	-0.279951	-0.888301
H100	H	0.948639	-0.341899	-0.875251
C101	C	0.968389	-1.154730	-0.444631
H102	H	0.936285	-1.118331	-0.476673
H103	H	0.941734	-1.184265	-0.411301
H104	H	1.002629	-1.189599	-0.470429
H105	H	1.040083	-0.794437	-0.372887
C106	C	0.347076	-0.346048	-0.236609
H107	H	0.299128	-0.351307	-0.240172
H108	H	0.350554	-0.294007	-0.256482
H109	H	0.358928	-0.355898	-0.188004
H110	H	1.266056	-0.895219	-0.147345
C111	C	0.983255	-0.321685	-1.063314
H112	H	0.993389	-0.331525	-1.110990
H113	H	0.983888	-0.268500	-1.060870
H114	H	0.936918	-0.330469	-1.047819
H115	H	0.724076	-0.521367	-0.355940
H116	H	0.400526	-0.552926	-0.377428
H117	H	1.135828	-1.142909	-0.277455
H118	H	1.194855	-0.527363	-1.024301
H119	H	1.188375	-0.521142	-0.891817
C120	C	1.243210	-0.574486	-0.698167
H121	H	1.273905	-0.604342	-0.661610
H122	H	1.270341	-0.547035	-0.732872
H123	H	1.223367	-0.608999	-0.719831
C124	C	1.182778	-1.117530	-0.230575
H125	H	1.218003	-1.136191	-0.195404
H126	H	1.200475	-1.138882	-0.272873
H127	H	1.139577	-1.133535	-0.213748
C128	C	1.235715	-0.567271	-0.544812
H129	H	1.269563	-0.600152	-0.572669
H130	H	1.213086	-0.599096	-0.509499
H131	H	1.260068	-0.537139	-0.522542
