data_functionalizedCrystal
_audit_creation_method	'MofGen! by Chris Wilmer'
_symmetry_space_group_name_H-M	'P1'
_symmetry_Int_Tables_number	1
_symmetry_cell_setting	triclinic
loop_
_symmetry_equiv_pos_as_xyz
  x,y,z
_cell_length_a	19.077105
_cell_length_b	12.759394
_cell_length_c	19.076919
_cell_angle_alpha	87.723996
_cell_angle_beta	89.923776
_cell_angle_gamma	87.711098
loop_
_atom_site_label
_atom_site_type_symbol
_atom_site_fract_x
_atom_site_fract_y
_atom_site_fract_z
Zn1	Zn	1.058328	-0.508277	0.440443
Zn2	Zn	1.062987	-0.677204	0.322944
Zn3	Zn	0.945544	-0.494202	0.318236
Zn4	Zn	0.940809	-0.676570	0.435697
O5	O	1.001917	-0.589063	0.379330
O6	O	1.157279	-0.536840	0.428813
O7	O	1.051340	-0.647303	0.223988
O8	O	0.960537	-0.349051	0.334462
O9	O	1.160702	-0.660951	0.342488
O10	O	1.043399	-0.359391	0.424247
O11	O	0.965055	-0.512853	0.220529
O12	O	0.846584	-0.512238	0.329860
O13	O	0.952466	-0.659871	0.534658
O14	O	0.843105	-0.646223	0.416159
O15	O	1.038807	-0.536226	0.538145
O16	O	1.046748	-0.824138	0.337886
O17	O	0.956984	-0.823673	0.420725
C18	C	0.819348	-0.577636	0.371984
C19	C	0.741243	-0.572773	0.368858
C20	C	1.001876	-0.862028	0.379317
C21	C	1.001922	-0.978808	0.379338
C22	C	0.702759	-0.640345	0.412250
C23	C	0.629371	-0.635762	0.409316
C24	C	0.594469	-0.563613	0.362986
C25	C	0.632958	-0.496034	0.319593
C26	C	0.706344	-0.500612	0.322531
C27	C	0.375179	-0.542425	0.349392
C28	C	0.301787	-0.537854	0.346456
C29	C	0.298206	-0.677582	0.436181
C30	C	0.371594	-0.682157	0.439111
C31	C	0.410076	-0.614575	0.395721
N32	N	0.519455	-0.558929	0.359985
N33	N	0.485089	-0.619254	0.398726
C34	C	0.915788	-1.187657	0.285813
C35	C	0.872664	-1.127493	0.239023
C36	C	0.872625	-1.017768	0.239002
C37	C	0.915713	-0.968205	0.285778
C38	C	0.958837	-1.028369	0.332568
C39	C	0.958873	-1.138096	0.332583
C40	C	1.045046	-1.038972	0.426129
C41	C	1.045090	-1.148698	0.426147
C42	C	1.088135	-0.989409	0.472905
C43	C	1.131263	-1.049574	0.519693
C44	C	1.131301	-1.159305	0.519712
C45	C	1.088214	-1.208862	0.472938
C46	C	1.185200	-0.600536	0.386705
C47	C	1.263304	-0.605425	0.389848
C48	C	0.994589	-0.599548	0.562611
C49	C	0.991466	-0.604016	0.640714
C50	C	1.001977	-0.315035	0.379359
C51	C	1.002002	-0.198261	0.379371
C52	C	1.009257	-0.578546	0.196764
C53	C	1.012516	-0.573791	0.118667
C54	C	1.034950	-0.541742	0.679224
C55	C	1.032007	-0.545936	0.752610
C56	C	0.985583	-0.612409	0.787485
C57	C	0.942095	-0.674684	0.748970
C58	C	0.945035	-0.670485	0.675585
C59	C	0.971968	-0.631867	1.006767
C60	C	0.969033	-0.636064	1.080157
C61	C	1.058944	-0.507314	1.083791
C62	C	1.061882	-0.503125	1.010405
C63	C	1.018392	-0.565396	0.971897
N64	N	0.982576	-0.616699	0.862497
N65	N	1.021396	-0.561099	0.896886
H66	H	0.731171	-0.699100	0.449974
H67	H	0.915821	-1.277001	0.285820
H68	H	0.273372	-0.479089	0.308733
Cl69	Cl	0.754724	-0.415658	0.267980
H70	H	1.088244	-1.298205	0.472946
H71	H	0.406503	-0.487402	0.314055
Cl72	Cl	0.415466	-0.772867	0.497355
Cl73	Cl	1.185418	-0.987261	0.578497
Cl74	Cl	1.086706	-0.467694	0.801020
H75	H	0.837581	-1.167860	0.200939
H76	H	0.915671	-0.878861	0.285762
Cl77	Cl	0.818409	-0.942130	0.180181
Cl78	Cl	0.589080	-0.405324	0.261354
H79	H	1.088096	-0.900065	0.472888
H80	H	0.598041	-0.690787	0.444649
Cl81	Cl	0.910663	-0.719630	1.123999
H82	H	0.266865	-0.732602	0.471508
H83	H	1.072755	-0.487616	0.650834
H84	H	1.166412	-1.208285	0.557820
H85	H	1.099687	-0.448998	0.982015
H86	H	1.094351	-0.456614	1.115153
H87	H	0.936564	-0.682589	0.975422
Cl88	Cl	0.883731	-0.758247	0.792813
H89	H	0.909619	-0.721183	0.644231
