data_functionalizedCrystal
_audit_creation_method	'MofGen! by Chris Wilmer'
_symmetry_space_group_name_H-M	'P1'
_symmetry_Int_Tables_number	1
_symmetry_cell_setting	triclinic
loop_
_symmetry_equiv_pos_as_xyz
  x,y,z
_cell_length_a	15.500306
_cell_length_b	11.792241
_cell_length_c	11.792241
_cell_angle_alpha	95.806584
_cell_angle_beta	93.169943
_cell_angle_gamma	86.852740
loop_
_atom_site_label
_atom_site_type_symbol
_atom_site_fract_x
_atom_site_fract_y
_atom_site_fract_z
O1	O	0.071860	-1.511615	0.160307
O2	O	0.071880	-1.181275	0.176341
O3	O	0.071863	-1.354461	0.003153
O4	O	0.071876	-1.338429	0.333495
O5	O	-0.072024	-1.345023	-0.006342
O6	O	-0.072007	-1.171837	0.166846
O7	O	-0.072027	-1.502177	0.150812
Cu8	Cu	-0.085155	-1.336145	0.157962
Cu9	Cu	0.085008	-1.347307	0.169191
O10	O	-0.072011	-1.328991	0.324000
C11	C	-0.000061	-1.134265	0.170587
C12	C	-0.000053	-1.008252	0.167573
N13	N	-0.204839	-1.328303	0.150064
N14	N	0.204691	-1.355158	0.177080
C15	C	0.749872	-1.394440	0.216521
C16	C	0.659301	-1.388492	0.210541
C17	C	0.614020	-1.316402	0.138110
C18	C	0.659315	-1.250263	0.071645
C19	C	0.749885	-1.256217	0.077620
C20	C	0.340557	-1.294973	0.116590
C21	C	0.249980	-1.289021	0.110623
C22	C	0.249972	-1.427253	0.249518
C23	C	0.340544	-1.433195	0.255492
C24	C	0.385832	-1.367061	0.189023
C25	C	0.521441	-1.310319	0.131998
C26	C	0.478409	-1.373151	0.195129
C27	C	-0.000080	-1.348735	-0.043885
C28	C	-0.000079	-1.345720	-0.169899
C29	C	-0.000084	-1.549187	0.156567
C30	C	-0.000086	-1.675200	0.159581
C31	C	-0.000078	-0.777538	0.162028
C32	C	-0.000065	-0.905924	0.165109
C33	C	-0.000064	-1.340178	-0.400610
C34	C	-0.000072	-1.343258	-0.272225
C35	C	-0.000065	-1.334717	0.371039
C36	C	-0.000061	-1.337732	0.497053
H37	H	0.786734	-1.453137	0.275510
H38	H	0.377406	-1.491902	0.314470
H39	H	0.622430	-1.442350	0.264656
O40	O	0.522352	-1.443343	0.265357
C41	C	0.500192	-1.556932	0.233461
H42	H	0.475284	-1.565887	0.140365
H43	H	0.559751	-1.616693	0.244483
H44	H	0.447625	-1.580068	0.289744
H45	H	0.213089	-1.481096	0.303633
O46	O	0.206129	-1.218969	0.040157
C47	C	0.265525	-1.161814	-0.017166
H48	H	0.330090	-1.212980	-0.019118
H49	H	0.239366	-1.152669	-0.108229
H50	H	0.275146	-1.073580	0.029491
H51	H	0.377419	-1.241121	0.062466
O52	O	0.793748	-1.191855	0.013026
C53	C	0.734363	-1.126969	-0.052206
H54	H	0.669804	-1.116300	-0.009524
H55	H	0.760545	-1.039432	-0.058290
H56	H	0.724719	-1.172704	-0.141551
H57	H	0.622440	-1.191571	0.012664
H58	H	0.484563	-1.251622	0.073024
