data_functionalizedCrystal
_audit_creation_method	'MofGen! by Chris Wilmer'
_symmetry_space_group_name_H-M	'P1'
_symmetry_Int_Tables_number	1
_symmetry_cell_setting	triclinic
loop_
_symmetry_equiv_pos_as_xyz
  x,y,z
_cell_length_a	21.395362
_cell_length_b	19.121063
_cell_length_c	19.121264
_cell_angle_alpha	90.118627
_cell_angle_beta	87.584759
_cell_angle_gamma	92.485681
loop_
_atom_site_label
_atom_site_type_symbol
_atom_site_fract_x
_atom_site_fract_y
_atom_site_fract_z
Zn1	Zn	0.932244	-0.262025	0.408637
Zn2	Zn	0.931803	-0.384234	0.296393
Zn3	Zn	0.831761	-0.267045	0.291376
Zn4	Zn	0.822784	-0.379266	0.413550
O5	O	0.879648	-0.323142	0.352489
O6	O	1.019863	-0.278215	0.393790
O7	O	0.922104	-0.372868	0.197623
O8	O	0.849032	-0.168269	0.302775
O9	O	1.019538	-0.368001	0.311325
O10	O	0.922856	-0.164581	0.388926
O11	O	0.848604	-0.286770	0.193937
O12	O	0.742893	-0.281952	0.307540
O13	O	0.833732	-0.359534	0.511003
O14	O	0.736298	-0.364401	0.397300
O15	O	0.914152	-0.273398	0.507393
O16	O	0.913400	-0.481685	0.316090
O17	O	0.833304	-0.478035	0.402165
C18	C	0.716862	-0.323183	0.352409
C19	C	0.647220	-0.323216	0.352392
C20	C	0.611089	-0.366210	0.399066
C21	C	0.545653	-0.366191	0.399097
C22	C	0.516351	-0.323187	0.352441
C23	C	0.552490	-0.280185	0.305764
C24	C	0.617925	-0.280200	0.305740
C25	C	0.415166	-0.320223	0.289087
C26	C	0.349733	-0.320214	0.289111
C27	C	0.314529	-0.323138	0.352517
C28	C	0.344766	-0.326087	0.415902
C29	C	0.410201	-0.326102	0.415877
C30	C	0.445399	-0.323166	0.352463
C31	C	0.207445	-0.366114	0.399227
C32	C	0.142008	-0.366090	0.399259
C33	C	0.148846	-0.280088	0.305920
C34	C	0.214282	-0.280108	0.305895
C35	C	0.243577	-0.323124	0.352547
C36	C	0.872346	-0.505298	0.360220
C37	C	0.869279	-0.583224	0.363551
C38	C	0.909569	-0.621709	0.320338
C39	C	0.906688	-0.694928	0.323475
C40	C	0.863513	-0.729661	0.369821
C41	C	0.823221	-0.691171	0.413038
C42	C	0.826106	-0.617953	0.409905
C43	C	0.852718	-0.950639	0.381526
C44	C	0.849835	-1.023862	0.384655
C45	C	0.933303	-1.027615	0.295092
C46	C	0.936182	-0.954395	0.291959
C47	C	0.895892	-0.915911	0.335179
C48	C	0.860566	-0.804503	0.373027
C49	C	0.898843	-0.841070	0.331977
C50	C	1.043070	-0.323102	0.352569
C51	C	1.112710	-0.323085	0.352604
C52	C	0.872990	-0.315352	0.535347
C53	C	0.870153	-0.312032	0.613270
C54	C	0.886995	-0.140275	0.344743
C55	C	0.890126	-0.062348	0.341442
C56	C	0.907084	-0.355296	0.651800
C57	C	0.904418	-0.352169	0.725017
C58	C	0.864817	-0.305779	0.759702
C59	C	0.827884	-0.262509	0.721167
C60	C	0.830554	-0.265634	0.647951
C61	C	0.854846	-0.294098	0.980669
C62	C	0.852178	-0.290978	1.053890
C63	C	0.928713	-0.380636	1.057735
C64	C	0.931376	-0.383760	0.984518
C65	C	0.894446	-0.340488	0.945989
C66	C	0.862090	-0.302582	0.834541
C67	C	0.897177	-0.343682	0.871151
C68	C	0.886274	-0.330919	1.170343
C69	C	0.889110	-0.334242	1.092420
H70	H	0.434818	-0.328500	0.467487
H71	H	0.825411	-0.832791	0.410761
H72	H	0.516230	-0.401201	0.437107
H73	H	0.966106	-1.058956	0.259906
H74	H	0.443824	-0.317839	0.237451
H75	H	0.528628	-0.245170	0.267778
H76	H	0.243700	-0.245102	0.267884
H77	H	0.325119	-0.317817	0.237499
H78	H	0.944724	-0.593435	0.282595
H79	H	0.814684	-1.052139	0.422408
H80	H	0.788070	-0.719456	0.450778
H81	H	0.795643	-0.224735	0.749413
H82	H	0.124989	-0.245070	0.267935
H83	H	0.647342	-0.245188	0.267732
H84	H	0.316105	-0.328467	0.467533
H85	H	0.829846	-0.264813	0.862790
H86	H	0.971338	-0.926117	0.254220
H87	H	0.231299	-0.401136	0.437218
H88	H	0.819912	-0.919311	0.416716
H89	H	0.634937	-0.401236	0.437056
H90	H	0.793298	-0.586618	0.445094
H91	H	0.800482	-0.230401	0.616581
H92	H	0.929422	-0.381449	0.842907
H93	H	0.112591	-0.401099	0.437270
H94	H	0.939496	-0.726260	0.288286
H95	H	0.933998	-0.812788	0.294244
H96	H	0.939334	-0.393070	0.623564
H97	H	0.934492	-0.387399	0.756385
H98	H	0.963613	-0.421547	0.956283
H99	H	0.958781	-0.415864	1.089113
H100	H	0.819932	-0.253196	1.082128
H101	H	0.824772	-0.258865	0.949308
