data_functionalizedCrystal
_audit_creation_method	'MofGen! by Chris Wilmer'
_symmetry_space_group_name_H-M	'P1'
_symmetry_Int_Tables_number	1
_symmetry_cell_setting	triclinic
loop_
_symmetry_equiv_pos_as_xyz
  x,y,z
_cell_length_a	14.519731
_cell_length_b	23.532357
_cell_length_c	13.596369
_cell_angle_alpha	89.988481
_cell_angle_beta	89.994584
_cell_angle_gamma	83.258572
loop_
_atom_site_label
_atom_site_type_symbol
_atom_site_fract_x
_atom_site_fract_y
_atom_site_fract_z
O1	O	1.222951	0.074713	-0.081806
O2	O	1.722951	0.574713	0.418194
O3	O	0.954370	0.083492	-0.081809
O4	O	1.454370	0.583492	0.418191
O5	O	1.096783	-0.003794	-0.081787
O6	O	1.596783	0.496206	0.418213
O7	O	1.080537	0.161999	-0.081828
O8	O	1.580537	0.661999	0.418172
O9	O	1.096769	-0.003799	0.081796
O10	O	1.596769	0.496201	0.581796
O11	O	0.954356	0.083488	0.081774
O12	O	1.454356	0.583488	0.581774
O13	O	1.222937	0.074709	0.081777
O14	O	1.722937	0.574709	0.581777
Zn15	Zn	1.088644	0.079097	0.107748
Zn16	Zn	1.588644	0.579097	0.607748
Zn17	Zn	1.088663	0.079104	-0.107780
Zn18	Zn	1.588663	0.579104	0.392220
O19	O	1.080523	0.161995	0.081755
O20	O	1.580523	0.661995	0.581755
C21	C	0.920009	0.083079	-0.000018
C22	C	1.420009	0.583079	0.499982
C23	C	0.817643	0.081846	-0.000018
C24	C	1.317643	0.581846	0.499982
C25	C	0.734511	0.080844	-0.000021
C26	C	1.234511	0.580844	0.499979
C27	C	0.630218	0.079593	-0.000022
C28	C	1.130218	0.579593	0.499978
C29	C	0.547091	0.078600	-0.000021
C30	C	1.047091	0.578600	0.499979
C31	C	0.442790	0.077348	-0.000023
C32	C	0.942790	0.577348	0.499977
C33	C	1.096370	-0.025015	0.000007
C34	C	1.596370	0.474985	0.500007
C35	C	1.095148	-0.088239	0.000017
C36	C	1.595148	0.411761	0.500017
C37	C	1.087486	-0.480282	-0.089206
C38	C	1.587486	0.019718	0.410794
C39	C	1.086324	-0.539687	-0.089211
C40	C	1.586324	-0.039687	0.410789
O41	O	1.085699	-0.570404	-0.165046
O42	O	1.585699	-0.070404	0.334954
N43	N	1.085741	-0.569404	-0.000043
N44	N	1.585741	-0.069404	0.499957
C45	C	1.086309	-0.539711	0.089136
C46	C	1.586309	-0.039711	0.589136
O47	O	1.085705	-0.570442	0.164980
O48	O	1.585705	-0.070442	0.664980
C49	C	1.087464	-0.480307	0.089140
C50	C	1.587464	0.019693	0.589140
C51	C	1.088057	-0.450595	-0.000033
C52	C	1.588057	0.049405	0.499967
C53	C	1.088078	-0.450570	-0.178372
C54	C	1.588078	0.049430	0.321628
C55	C	1.089241	-0.391169	-0.178366
C56	C	1.589241	0.108831	0.321634
C57	C	1.089812	-0.361481	-0.089194
C58	C	1.589812	0.138519	0.410806
C59	C	1.089220	-0.391194	-0.000027
C60	C	1.589220	0.108806	0.499973
C61	C	1.088026	-0.450616	0.178319
C62	C	1.588026	0.049384	0.678319
C63	C	1.089180	-0.391207	0.178316
C64	C	1.589180	0.108793	0.678316
C65	C	1.089773	-0.361495	0.089142
C66	C	1.589773	0.138505	0.589142
C67	C	1.090954	-0.302106	0.089151
C68	C	1.590954	0.197894	0.589151
N69	N	1.091538	-0.272389	-0.000017
N70	N	1.591538	0.227611	0.499983
C71	C	1.090967	-0.302077	-0.089189
C72	C	1.590967	0.197923	0.410811
C73	C	1.083883	-0.664464	0.089119
C74	C	1.583883	-0.164464	0.589119
C75	C	1.082735	-0.723868	0.089116
C76	C	1.582735	-0.223868	0.589116
C77	C	1.082748	-0.723839	-0.089232
C78	C	1.582748	-0.223839	0.410768
C79	C	1.083903	-0.664435	-0.089227
C80	C	1.583903	-0.164435	0.410773
C81	C	1.084466	-0.634748	-0.000048
C82	C	1.584466	-0.134748	0.499952
C83	C	1.093410	-0.177332	-0.089170
C84	C	1.593410	0.322668	0.410830
C85	C	1.094577	-0.117927	-0.089156
C86	C	1.594577	0.382073	0.410844
C87	C	1.094559	-0.117960	0.089191
C88	C	1.594559	0.382040	0.589191
C89	C	1.093397	-0.177360	0.089178
C90	C	1.593397	0.322640	0.589178
C91	C	1.092819	-0.207045	-0.000011
C92	C	1.592819	0.292955	0.499989
O93	O	1.091577	-0.271351	0.164947
O94	O	1.591577	0.228649	0.664947
O95	O	1.091559	-0.271338	-0.165020
O96	O	1.591559	0.228662	0.334980
C97	C	1.257298	0.075122	-0.000017
C98	C	1.757298	0.575122	0.499983
C99	C	1.359663	0.076355	-0.000023
C100	C	1.859663	0.576355	0.499977
C101	C	1.080937	0.183216	-0.000042
C102	C	1.580937	0.683216	0.499958
C103	C	1.082158	0.246440	-0.000057
C104	C	1.582158	0.746440	0.499943
N105	N	1.088638	0.079093	0.254840
N106	N	1.588638	0.579093	0.754840
N107	N	1.088676	0.079104	-0.254872
N108	N	1.588676	0.579104	0.245128
C109	C	1.088661	0.079104	0.656131
C110	C	1.588661	0.579104	1.156131
C111	C	1.088652	0.079103	0.544479
C112	C	1.588652	0.579103	1.044479
C113	C	1.088650	0.079099	0.455489
C114	C	1.588650	0.579099	0.955489
C115	C	1.088640	0.079097	0.343830
C116	C	1.588640	0.579097	0.843830
H117	H	1.095062	-0.093737	-0.161775
H118	H	1.595062	0.406263	0.338225
F119	F	1.095169	-0.086354	0.184090
F120	F	1.595169	0.413646	0.684090
H121	H	1.092935	-0.201494	-0.161795
H122	H	1.592935	0.298506	0.338205
F123	F	1.089779	-0.359615	0.273235
F124	F	1.589779	0.140385	0.773235
H125	H	1.084384	-0.640247	-0.161840
H126	H	1.584384	-0.140247	0.338160
F127	F	1.092782	-0.208985	0.184086
F128	F	1.592782	0.291015	0.684086
F129	F	1.082134	-0.755445	-0.184138
F130	F	1.582134	-0.255445	0.315862
H131	H	1.089720	-0.366982	-0.250980
H132	H	1.589720	0.133018	0.249020
F133	F	1.082120	-0.755485	0.184027
F134	F	1.582120	-0.255485	0.684027
H135	H	1.087545	-0.474797	0.250934
H136	H	1.587545	0.025203	0.750934
H137	H	1.087609	-0.474735	-0.250991
H138	H	1.587609	0.025265	0.249009
F139	F	1.084490	-0.632874	0.184042
F140	F	1.584490	-0.132874	0.684042
