data_functionalizedCrystal
_audit_creation_method	'MofGen! by Chris Wilmer'
_symmetry_space_group_name_H-M	'P1'
_symmetry_Int_Tables_number	1
_symmetry_cell_setting	triclinic
loop_
_symmetry_equiv_pos_as_xyz
  x,y,z
_cell_length_a	10.540539
_cell_length_b	10.723024
_cell_length_c	9.198806
_cell_angle_alpha	90.003648
_cell_angle_beta	89.998955
_cell_angle_gamma	95.503320
loop_
_atom_site_label
_atom_site_type_symbol
_atom_site_fract_x
_atom_site_fract_y
_atom_site_fract_z
O1	O	0.178046	-1.657276	-0.120876
O2	O	0.195088	-1.294132	-0.120880
O3	O	0.001856	-1.483989	-0.120876
O4	O	0.371278	-1.467419	-0.120880
O5	O	0.001856	-1.483974	0.120909
O6	O	0.195088	-1.294117	0.120905
O7	O	0.178045	-1.657261	0.120909
Cu8	Cu	0.186567	-1.475688	0.142984
Cu9	Cu	0.186567	-1.475706	-0.142955
O10	O	0.371277	-1.467404	0.120905
C11	C	-0.045446	-1.482739	0.000014
C12	C	-0.186392	-1.479021	0.000006
C13	C	0.193848	-1.247624	0.000012
C14	C	0.190137	-1.109068	0.000010
C15	C	0.179286	-1.703769	0.000014
C16	C	0.182997	-1.842325	0.000007
C17	C	-0.369746	-1.336563	-0.000538
C18	C	-0.223130	-1.340332	0.000006
C19	C	-0.248085	-1.545756	0.138078
C20	C	-0.394627	-1.541023	0.138194
C21	C	-0.395146	-1.543861	-0.136760
C22	C	-0.248164	-1.545138	-0.138586
C23	C	0.418580	-1.468654	0.000012
C24	C	0.559526	-1.472372	0.000011
N25	N	0.186565	-1.475684	0.344098
C26	C	0.298260	-1.034139	0.000008
C27	C	0.294427	-0.890934	0.000006
N28	N	0.186558	-1.475719	-0.344069
C29	C	0.105075	-1.555399	0.416297
C30	C	0.105071	-1.555419	0.583709
H31	H	-0.180499	-1.287821	-0.098969
H32	H	-0.225783	-1.647605	0.143213
H33	H	0.256325	-1.407446	0.406225
H34	H	-0.181347	-1.287441	0.099145
H35	H	-0.398318	-1.281784	-0.099552
H36	H	0.386988	-0.826548	-0.000001
H37	H	0.090430	-0.906704	-0.000001
H38	H	0.035306	-1.623629	0.354172
H39	H	0.256334	-1.407472	0.593853
H40	H	-0.223995	-1.646253	-0.146922
H41	H	-0.442423	-1.644035	-0.137688
H42	H	0.094732	-1.067199	-0.000026
H43	H	0.035308	-1.623671	0.645797
H44	H	-0.426675	-1.498980	-0.241410
H45	H	-0.399926	-1.281995	0.097920
H46	H	-0.422801	-1.491690	0.241405
H47	H	-0.442646	-1.640766	0.144459
H48	H	-0.205461	-1.499386	0.240826
H49	H	0.393665	-1.076009	0.000015
H50	H	-0.207281	-1.496309	-0.240728
