data_functionalizedCrystal
_audit_creation_method	'MofGen! by Chris Wilmer'
_symmetry_space_group_name_H-M	'P1'
_symmetry_Int_Tables_number	1
_symmetry_cell_setting	triclinic
loop_
_symmetry_equiv_pos_as_xyz
  x,y,z
_cell_length_a	23.532407
_cell_length_b	23.532407
_cell_length_c	9.130313
_cell_angle_alpha	90.004498
_cell_angle_beta	90.000316
_cell_angle_gamma	82.848712
loop_
_atom_site_label
_atom_site_type_symbol
_atom_site_fract_x
_atom_site_fract_y
_atom_site_fract_z
O1	O	0.755259	0.069131	0.121722
O2	O	0.589395	0.079134	0.121747
O3	O	0.677329	-0.008799	0.121707
O4	O	0.667325	0.157065	0.121762
O5	O	0.677323	-0.008794	-0.121892
O6	O	0.589389	0.079140	-0.121852
O7	O	0.755253	0.069137	-0.121877
Cu8	Cu	0.672320	0.074139	-0.144107
Cu9	Cu	0.672328	0.074132	0.143977
O10	O	0.667319	0.157070	-0.121837
C11	C	0.568176	0.078882	-0.000050
C12	C	0.504959	0.078116	-0.000041
C13	C	0.677071	-0.030012	-0.000096
C14	C	0.676305	-0.093229	-0.000108
C15	C	0.238792	0.022921	-0.000099
C16	C	0.298192	0.023632	-0.000099
O17	O	0.334937	-0.020153	-0.000164
N18	N	0.320818	0.075909	-0.000071
C19	C	0.284041	0.127477	-0.000060
O20	O	0.308740	0.172007	-0.000038
C21	C	0.224642	0.126765	-0.000071
C22	C	0.202019	0.074485	-0.000083
C23	C	0.216169	-0.029354	-0.000114
C24	C	0.156772	-0.030066	-0.000111
C25	C	0.119999	0.021499	-0.000095
C26	C	0.142623	0.073774	-0.000081
C27	C	0.187865	0.178333	-0.000069
C28	C	0.128463	0.177616	-0.000082
C29	C	0.105840	0.125336	-0.000094
C30	C	0.046454	0.124627	-0.000063
N31	N	0.023828	0.072351	-0.000090
C32	C	0.060600	0.020787	-0.000106
C33	C	0.408783	0.128968	-0.000039
C34	C	0.468181	0.129681	-0.000017
C35	C	0.482328	0.025836	-0.000059
C36	C	0.422929	0.025124	-0.000070
C37	C	0.386157	0.076692	-0.000066
C38	C	-0.064136	0.019297	-0.000101
C39	C	-0.123538	0.018590	-0.000092
C40	C	-0.137680	0.122435	-0.000058
C41	C	-0.078284	0.123142	-0.000059
C42	C	-0.041512	0.071568	-0.000085
O43	O	0.009675	0.168390	-0.000003
O44	O	0.035892	-0.023737	-0.000148
C45	C	0.723538	-0.492332	-0.000034
C46	C	0.722827	-0.551733	-0.000023
O47	O	0.766613	-0.588477	0.000024
N48	N	0.670551	-0.574359	-0.000016
C49	C	0.618982	-0.537581	-0.000006
O50	O	0.574452	-0.562281	0.000002
C51	C	0.619695	-0.478182	-0.000007
C52	C	0.671974	-0.455559	-0.000028
C53	C	0.775814	-0.469709	-0.000055
C54	C	0.776525	-0.410313	-0.000069
C55	C	0.724961	-0.373540	-0.000062
C56	C	0.672685	-0.396163	-0.000042
C57	C	0.568127	-0.441406	0.000014
C58	C	0.568843	-0.382003	0.000015
C59	C	0.621123	-0.359381	-0.000007
C60	C	0.621832	-0.299994	-0.000050
N61	N	0.674109	-0.277368	-0.000057
C62	C	0.725673	-0.314141	-0.000063
C63	C	0.617491	-0.662324	-0.000002
C64	C	0.616778	-0.721722	-0.000011
C65	C	0.720623	-0.735869	-0.000026
C66	C	0.721335	-0.676470	-0.000027
C67	C	0.669767	-0.639698	-0.000009
C68	C	0.727163	-0.189404	-0.000094
C69	C	0.727869	-0.130002	-0.000114
C70	C	0.624025	-0.115860	-0.000091
C71	C	0.623318	-0.175257	-0.000079
C72	C	0.674891	-0.212028	-0.000075
O73	O	0.578069	-0.263215	-0.000091
O74	O	0.770196	-0.289433	-0.000052
C75	C	0.776472	0.069389	-0.000077
C76	C	0.839689	0.070155	-0.000076
C77	C	0.667577	0.178283	-0.000031
C78	C	0.668343	0.241500	-0.000010
N79	N	0.672320	0.074143	-0.346730
C80	C	0.706663	0.108507	-0.423389
C81	C	0.706671	0.108496	-0.576726
C82	C	0.637988	0.039756	-0.576730
C83	C	0.637983	0.039764	-0.423396
C84	C	0.746314	0.148195	-0.423388
C85	C	0.746323	0.148185	-0.576725
N86	N	0.672333	0.074124	0.346599
H87	H	-0.034204	-0.022699	-0.000121
O88	O	0.782786	-0.229061	-0.000111
H89	H	0.819252	-0.203342	-0.000145
O90	O	0.568412	-0.076191	-0.000092
H91	H	0.543379	-0.084194	0.099198
O92	O	0.511738	-0.465796	0.000037
H93	H	0.486989	-0.450997	0.099339
H94	H	0.819097	-0.391900	-0.000080
O95	O	0.132375	-0.086453	-0.000162
H96	H	0.167932	-0.122184	-0.000196
H97	H	0.817806	-0.499644	-0.000054
O98	O	0.784261	-0.105606	-0.000134
H99	H	0.776097	-0.058124	-0.000156
O100	O	-0.053880	0.179528	-0.000031
H101	H	-0.027158	0.182336	-0.099319
H102	H	0.575496	-0.632386	0.000001
H103	H	-0.141954	-0.023984	-0.000099
O104	O	0.776240	-0.775541	-0.000032
H105	H	0.812715	-0.749835	-0.000054
H106	H	0.731649	0.193301	-0.618349
O107	O	0.566934	-0.199666	-0.000073
H108	H	0.542178	-0.184869	0.099221
O109	O	-0.177347	0.178050	-0.000042
H110	H	-0.169336	0.203084	-0.099320
H111	H	0.526850	-0.352065	0.000032
O112	O	0.803490	0.123670	-0.639726
H113	H	0.833793	0.110683	-0.549125
O114	O	0.600945	0.002698	-0.340706
H115	H	0.577067	-0.021204	-0.419782
O116	O	0.600951	0.002681	-0.659418
H117	H	0.606721	0.008450	-0.778921
O118	O	0.777721	-0.652070	-0.000023
H119	H	0.813454	-0.687625	-0.000015
O120	O	0.212258	0.234720	-0.000064
H121	H	0.238984	0.237525	-0.099346
O122	O	0.806078	0.128792	-0.368223
H123	H	0.835698	0.158469	-0.408787
O124	O	0.721753	0.205345	-0.360378
H125	H	0.708738	0.235639	-0.450976
H126	H	0.486595	0.172252	0.000013
H127	H	0.574207	-0.740135	-0.000019
O128	O	0.255827	-0.084975	-0.000128
H129	H	0.230107	-0.121439	-0.000132
H130	H	0.404515	-0.017447	-0.000082
H131	H	0.512280	-0.016150	-0.000073
H132	H	0.098525	0.219610	-0.000085
O133	O	0.369121	0.184591	-0.000010
H134	H	0.394839	0.221057	0.000024
