data_functionalizedCrystal
_audit_creation_method	'MofGen! by Chris Wilmer'
_symmetry_space_group_name_H-M	'P1'
_symmetry_Int_Tables_number	1
_symmetry_cell_setting	triclinic
loop_
_symmetry_equiv_pos_as_xyz
  x,y,z
_cell_length_a	15.297475
_cell_length_b	12.594516
_cell_length_c	15.296720
_cell_angle_alpha	99.650531
_cell_angle_beta	91.617114
_cell_angle_gamma	80.319586
loop_
_atom_site_label
_atom_site_type_symbol
_atom_site_fract_x
_atom_site_fract_y
_atom_site_fract_z
Zn1	Zn	1.253466	-0.828402	-0.726662
Zn2	Zn	1.278741	-0.981670	-0.580189
Zn3	Zn	1.132339	-0.768606	-0.554898
Zn4	Zn	1.106966	-0.971207	-0.701317
O5	O	1.192878	-0.887471	-0.640767
O6	O	1.379399	-0.878137	-0.728424
O7	O	1.280516	-0.932761	-0.454258
O8	O	1.148448	-0.627605	-0.577705
O9	O	1.397968	-0.990742	-0.620811
O10	O	1.237439	-0.671537	-0.703900
O11	O	1.172956	-0.776223	-0.435677
O12	O	1.006393	-0.766078	-0.553130
O13	O	1.105203	-0.972910	-0.827255
O14	O	0.987752	-0.914928	-0.660703
O15	O	1.212836	-0.867992	-0.845876
O16	O	1.255913	-1.129215	-0.596235
O17	O	1.129711	-1.121528	-0.685227
C18	C	0.965289	-0.832880	-0.601422
C19	C	0.867921	-0.809554	-0.584611
C20	C	0.554794	-1.054189	-0.760920
C21	C	0.646276	-1.076112	-0.776712
C22	C	0.701692	-1.009475	-0.728689
C23	C	0.665617	-0.920910	-0.664869
C24	C	0.574127	-0.898991	-0.649070
C25	C	0.721024	-0.854276	-0.616839
C26	C	0.684949	-0.765712	-0.553020
C27	C	0.593468	-0.743795	-0.537225
C28	C	0.538052	-0.810433	-0.585248
C29	C	0.812514	-0.876196	-0.632638
C30	C	0.831847	-0.720997	-0.520789
C31	C	0.740365	-0.699074	-0.504996
C32	C	1.192822	-1.163997	-0.640748
C33	C	1.192873	-1.282320	-0.640783
C34	C	1.124233	-1.347423	-0.689144
C35	C	1.116732	-1.399680	-0.605532
C36	C	1.200452	-1.440883	-0.724423
C37	C	1.185337	-1.333002	-0.557122
C38	C	1.269085	-1.374217	-0.676073
C39	C	1.261623	-1.426440	-0.592411
C40	C	1.421356	-0.942277	-0.680265
C41	C	1.518720	-0.965632	-0.697097
C42	C	1.153370	-0.925954	-0.869237
C43	C	1.136534	-0.942353	-0.966597
C44	C	1.192955	-0.609875	-0.640809
C45	C	1.192987	-0.491580	-0.640826
C46	C	1.313239	-0.770087	-1.279821
C47	C	1.329063	-0.754682	-1.188347
C48	C	1.280932	-0.801598	-1.132905
C49	C	1.216975	-0.863922	-1.168946
C50	C	1.201155	-0.879335	-1.260430
C51	C	1.168847	-0.910847	-1.113514
C52	C	1.104891	-0.973170	-1.149555
C53	C	1.089073	-0.988580	-1.241030
C54	C	1.137203	-0.941664	-1.296472
C55	C	1.184668	-0.895433	-1.022030
C56	C	1.072583	-1.004682	-1.002639
C57	C	1.056760	-1.020086	-1.094113
C58	C	1.232282	-0.849074	-0.413194
C59	C	1.249288	-0.832416	-0.315863
H60	H	0.564100	-0.671690	-0.485250
H61	H	0.710979	-0.626964	-0.453034
H62	H	1.178897	-1.286343	-0.486374
O63	O	1.330918	-1.467631	-0.543642
C64	C	1.409148	-1.626236	-0.489399
C65	C	1.330657	-1.579733	-0.544676
H66	H	1.408951	-1.716871	-0.490201
H67	H	1.473998	-1.615121	-0.518844
H68	H	1.402565	-1.581111	-0.418169
H69	H	1.337154	-1.624825	-0.615915
H70	H	1.265837	-1.590832	-0.515160
H71	H	1.033393	-1.042887	-0.957499
O72	O	0.449214	-0.789107	-0.569732
C73	C	0.332450	-0.770733	-0.463040
C74	C	0.433079	-0.794880	-0.480490
H75	H	0.319372	-0.775415	-0.390894
H76	H	0.304429	-0.685447	-0.476972
H77	H	0.299045	-0.833545	-0.508362
H78	H	0.466558	-0.732138	-0.435180
H79	H	0.461034	-0.880196	-0.466586
H80	H	1.381139	-0.703941	-1.159010
H81	H	1.066111	-1.312837	-0.729954
H82	H	0.876967	-0.666736	-0.481682
O83	O	1.208096	-1.496517	-0.808835
C84	C	1.221105	-1.486236	-0.963704
C85	C	1.212481	-1.423108	-0.868150
H86	H	1.224634	-1.426910	-1.011688
H87	H	1.283994	-1.550026	-0.969807
H88	H	1.161001	-1.528508	-0.980359
H89	H	1.272537	-1.380770	-0.851432
H90	H	1.149556	-1.359380	-0.862096
H91	H	1.052334	-1.411643	-0.575714
H92	H	1.236741	-0.844688	-0.992695
H93	H	1.333461	-1.362260	-0.705927
H94	H	1.004685	-1.070831	-1.123471
O95	O	1.296380	-0.786482	-1.044062
C96	C	1.380617	-0.704475	-0.923434
C97	C	1.363198	-0.721495	-1.024066
H98	H	1.434653	-0.651952	-0.907238
H99	H	1.317117	-0.661863	-0.886834
H100	H	1.403018	-0.787089	-0.901736
H101	H	1.340822	-0.638928	-1.045845
H102	H	1.426716	-0.764159	-1.060608
H103	H	0.509668	-1.108442	-0.800008
O104	O	1.121839	-0.956825	-1.385334
C105	C	1.121667	-1.086354	-1.520500
C106	C	1.139076	-1.069345	-1.419866
H107	H	1.135614	-1.177321	-1.548453
H108	H	1.049532	-1.052258	-1.533660
H109	H	1.167030	-1.042056	-1.553900
H110	H	1.093768	-1.113643	-1.386399
H111	H	1.211232	-1.103412	-1.406771
H112	H	1.352425	-0.731902	-1.324970
H113	H	1.037002	-1.039339	-1.270373
H114	H	0.841877	-0.948305	-0.684601
H115	H	0.675642	-1.148223	-0.828672
O116	O	0.790533	-1.030888	-0.744168
C117	C	0.911214	-1.147539	-0.828170
C118	C	0.810582	-1.123395	-0.810736
H119	H	0.927458	-1.222345	-0.881977
H120	H	0.932940	-1.074236	-0.850817
H121	H	0.947755	-1.163950	-0.764567
H122	H	0.773970	-1.107008	-0.874306
H123	H	0.788925	-1.196713	-0.788051
