data_functionalizedCrystal
_audit_creation_method	'MofGen! by Chris Wilmer'
_symmetry_space_group_name_H-M	'P1'
_symmetry_Int_Tables_number	1
_symmetry_cell_setting	triclinic
loop_
_symmetry_equiv_pos_as_xyz
  x,y,z
_cell_length_a	14.044220
_cell_length_b	16.992695
_cell_length_c	15.455313
_cell_angle_alpha	87.152573
_cell_angle_beta	87.075622
_cell_angle_gamma	88.071450
loop_
_atom_site_label
_atom_site_type_symbol
_atom_site_fract_x
_atom_site_fract_y
_atom_site_fract_z
O1	O	1.276018	-0.186887	-0.072131
O2	O	1.776018	0.313113	0.427869
O3	O	0.999530	-0.180030	-0.072133
O4	O	1.499530	0.319970	0.427867
O5	O	1.136665	-0.069239	-0.072125
O6	O	1.636665	0.430761	0.427875
O7	O	1.138883	-0.297678	-0.072139
O8	O	1.638883	0.202322	0.427861
O9	O	1.128821	-0.075546	0.072137
O10	O	1.628821	0.424454	0.572137
O11	O	0.991685	-0.186337	0.072129
O12	O	1.491685	0.313663	0.572129
O13	O	1.268174	-0.193194	0.072131
O14	O	1.768174	0.306806	0.572131
Cu15	Cu	1.129213	-0.190341	0.085302
Cu16	Cu	1.629213	0.309659	0.585302
Cu17	Cu	1.138490	-0.182883	-0.085304
Cu18	Cu	1.638490	0.317117	0.414696
O19	O	1.131038	-0.303985	0.072123
O20	O	1.631038	0.196015	0.572123
C21	C	0.960066	-0.180181	-0.000002
C22	C	1.460066	0.319819	0.499998
C23	C	0.854162	-0.171227	-0.000003
C24	C	1.354162	0.328773	0.499997
C25	C	1.129891	-0.042980	0.000006
C26	C	1.629891	0.457020	0.500006
C27	C	1.121383	0.044659	0.000006
C28	C	1.621383	0.544659	0.500006
C29	C	1.307638	-0.193043	-0.000002
C30	C	1.807638	0.306957	0.499998
C31	C	1.413542	-0.201997	-0.000007
C32	C	1.913542	0.298003	0.499993
C33	C	1.607444	-0.218367	-0.000007
C34	C	2.107444	0.281633	0.499993
C35	C	1.660266	-0.154861	-0.000003
C36	C	2.160266	0.345139	0.499997
C37	C	1.768160	-0.163969	-0.000003
C38	C	2.268160	0.336031	0.499997
C39	C	1.499540	-0.209259	-0.000007
C40	C	1.999540	0.290741	0.499993
C41	C	1.137812	-0.330244	-0.000010
C42	C	1.637812	0.169756	0.499990
C43	C	1.146321	-0.417883	-0.000015
C44	C	1.646321	0.082117	0.499985
N45	N	1.122696	-0.195588	0.205297
N46	N	1.622696	0.304412	0.705297
C47	C	1.203479	0.089157	0.000007
C48	C	1.703479	0.589157	0.500007
C49	C	1.195479	0.171504	-0.000001
C50	C	1.695479	0.671504	0.499999
C51	C	1.105382	0.209350	-0.000005
C52	C	1.605382	0.709350	0.499995
C53	C	1.023279	0.164846	-0.000009
C54	C	1.523279	0.664846	0.499991
C55	C	1.031280	0.082502	-0.000007
C56	C	1.531280	0.582502	0.499993
C57	C	1.072220	0.455268	-0.000017
C58	C	1.572220	0.955268	0.499983
C59	C	1.064225	0.537619	-0.000016
C60	C	1.564225	1.037619	0.499984
C61	C	1.236426	0.544271	-0.000010
C62	C	1.736426	1.044271	0.499990
C63	C	1.244419	0.461924	-0.000003
C64	C	1.744419	0.961924	0.499997
C65	C	1.162317	0.417427	-0.000012
C66	C	1.662317	0.917427	0.499988
N67	N	1.097202	0.293522	-0.000011
N68	N	1.597202	0.793522	0.499989
N69	N	1.170497	0.333258	-0.000012
N70	N	1.670497	0.833258	0.499988
N71	N	1.145015	-0.177631	-0.205299
N72	N	1.645015	0.322369	0.294701
C73	C	1.180979	-0.148540	0.250695
C74	C	1.680979	0.351460	0.750695
C75	C	1.176059	-0.152515	0.341502
C76	C	1.676059	0.347485	0.841502
C77	C	1.112860	-0.203543	0.386911
C78	C	1.612860	0.296457	0.886911
C79	C	1.054571	-0.250592	0.341507
C80	C	1.554571	0.249408	0.841507
C81	C	1.059486	-0.246612	0.250701
C82	C	1.559486	0.253388	0.750701
C83	C	1.091641	-0.220700	0.658491
C84	C	1.591641	0.279300	1.158491
C85	C	1.086732	-0.224678	0.749303
C86	C	1.586732	0.275322	1.249303
C87	C	1.208219	-0.126600	0.749293
C88	C	1.708219	0.373400	1.249293
C89	C	1.213133	-0.122628	0.658485
C90	C	1.713133	0.377372	1.158485
C91	C	1.154840	-0.169674	0.613089
C92	C	1.654840	0.330326	1.113089
N93	N	1.107832	-0.207609	0.479731
N94	N	1.607832	0.292391	0.979731
N95	N	1.159864	-0.165603	0.520271
N96	N	1.659864	0.334397	1.020271
H97	H	1.624462	-0.093648	-0.000062
H98	H	2.124462	0.406352	0.499938
H99	H	0.949919	0.195668	-0.000017
H100	H	1.449919	0.695668	0.499983
N101	N	1.320296	0.589712	-0.000000
N102	N	1.820296	1.089712	0.500000
N103	N	1.375533	0.580085	0.060810
N104	N	1.875533	1.080085	0.560810
H105	H	1.434771	0.612177	0.060816
H106	H	1.934771	1.112177	0.560816
H107	H	1.643250	-0.279572	-0.000011
H108	H	2.143250	0.220428	0.499989
H109	H	1.005366	0.419049	-0.000024
H110	H	1.505366	0.919049	0.499976
N111	N	1.295507	0.050490	0.000001
N112	N	1.795507	0.550490	0.500001
N113	N	1.302643	-0.023031	0.000001
N114	N	1.802643	0.476969	0.500001
H115	H	1.367639	-0.050340	-0.000006
H116	H	1.867639	0.449660	0.499994
N117	N	0.990023	-0.302725	0.387885
N118	N	1.490023	0.197275	0.887885
N119	N	0.997390	-0.375233	0.377727
N120	N	1.497390	0.124767	0.877727
H121	H	0.951803	-0.412055	0.410480
H122	H	1.451803	0.087945	0.910480
N123	N	1.336446	0.423255	-0.000007
N124	N	1.836446	0.923255	0.499993
N125	N	1.343576	0.349734	-0.000002
N126	N	1.843576	0.849734	0.499998
H127	H	1.408571	0.322422	-0.000001
H128	H	1.908571	0.822422	0.499999
N129	N	0.999941	-0.294672	0.204339
N130	N	1.499941	0.205328	0.704339
N131	N	0.943516	-0.340229	0.244890
N132	N	1.443516	0.159771	0.744890
H133	H	0.901457	-0.374171	0.212148
H134	H	1.401457	0.125829	0.712148
H135	H	1.264595	-0.081078	0.621515
H136	H	1.764595	0.418922	1.121515
H137	H	1.223517	-0.114205	0.378465
H138	H	1.723517	0.385795	0.878465
H139	H	1.255678	-0.088296	0.786262
H140	H	1.755678	0.411704	1.286262
H141	H	1.035265	-0.266234	0.786271
H142	H	1.535265	0.233766	1.286271
N143	N	1.032088	-0.268757	0.612142
N144	N	1.532088	0.231243	1.112142
N145	N	0.975666	-0.314312	0.652699
N146	N	1.475666	0.185688	1.152699
H147	H	0.933602	-0.348255	0.619962
H148	H	1.433602	0.151745	1.119962
N149	N	1.279350	0.216946	-0.000008
N150	N	1.779350	0.716946	0.499992
N151	N	1.359788	0.183145	-0.000004
N152	N	1.859788	0.683145	0.499996
H153	H	1.419027	0.215238	-0.000012
H154	H	1.919027	0.715238	0.499988
H155	H	0.990852	0.568430	-0.000005
H156	H	1.490852	1.068430	0.499995
H157	H	1.232446	-0.106992	0.213729
H158	H	1.732446	0.393008	0.713729
N159	N	0.947411	0.037057	-0.000020
N160	N	1.447411	0.537057	0.499980
N161	N	0.866972	0.070856	-0.000028
N162	N	1.366972	0.570856	0.499972
H163	H	0.807736	0.038763	-0.000043
H164	H	1.307736	0.538763	0.499957
