data_functionalizedCrystal
_audit_creation_method	'MofGen! by Chris Wilmer'
_symmetry_space_group_name_H-M	'P1'
_symmetry_Int_Tables_number	1
_symmetry_cell_setting	triclinic
loop_
_symmetry_equiv_pos_as_xyz
  x,y,z
_cell_length_a	11.169417
_cell_length_b	18.101390
_cell_length_c	11.169416
_cell_angle_alpha	90.026535
_cell_angle_beta	89.988781
_cell_angle_gamma	89.983992
loop_
_atom_site_label
_atom_site_type_symbol
_atom_site_fract_x
_atom_site_fract_y
_atom_site_fract_z
Zn1	Zn	1.834917	-0.418700	0.477733
Zn2	Zn	2.168250	-0.085367	0.811067
Zn3	Zn	2.501584	0.247966	1.144400
Zn4	Zn	1.834820	-0.294873	0.678459
Zn5	Zn	2.168153	0.038461	1.011792
Zn6	Zn	2.501487	0.371794	1.345125
Zn7	Zn	1.634216	-0.294880	0.477791
Zn8	Zn	1.967550	0.038453	0.811125
Zn9	Zn	2.300883	0.371786	1.144458
Zn10	Zn	1.634210	-0.418680	0.678376
Zn11	Zn	1.967544	-0.085347	1.011709
Zn12	Zn	2.300877	0.247987	1.345043
O13	O	1.734541	-0.356783	0.578090
O14	O	2.067874	-0.023450	0.911423
O15	O	2.401208	0.309883	1.244756
O16	O	2.002854	-0.402280	0.504370
O17	O	2.336187	-0.068946	0.837703
O18	O	2.669521	0.264387	1.171037
O19	O	1.808171	-0.191241	0.651898
O20	O	2.141504	0.142093	0.985232
O21	O	2.474838	0.475426	1.318565
O22	O	1.660883	-0.311317	0.309834
O23	O	1.994216	0.022016	0.643167
O24	O	2.327550	0.355350	0.976500
O25	O	2.002782	-0.311304	0.651842
O26	O	2.336116	0.022029	0.985175
O27	O	2.669449	0.355363	1.318509
O28	O	1.808337	-0.402287	0.309791
O29	O	2.141670	-0.068954	0.643125
O30	O	2.475004	0.264380	0.976458
O31	O	1.660789	-0.191246	0.504469
O32	O	1.994122	0.142087	0.837802
O33	O	2.327455	0.475420	1.171136
O34	O	1.466266	-0.311297	0.504389
O35	O	1.799599	0.022036	0.837722
O36	O	2.132933	0.355370	1.171056
O37	O	1.660873	-0.522316	0.651702
O38	O	1.994206	-0.188982	0.985035
O39	O	2.327540	0.144351	1.318368
O40	O	1.466262	-0.402252	0.651758
O41	O	1.799595	-0.068919	0.985091
O42	O	2.132928	0.264414	1.318424
O43	O	1.808331	-0.522331	0.504290
O44	O	2.141665	-0.188997	0.837623
O45	O	2.474998	0.144336	1.170957
O46	O	1.808165	-0.311284	0.846397
O47	O	2.141499	0.022049	1.179731
O48	O	2.474832	0.355383	1.513064
O49	O	1.660779	-0.402245	0.846337
O50	O	1.994112	-0.068911	1.179670
O51	O	2.327445	0.264422	1.513003
C52	C	1.422716	-0.356774	0.578072
C53	C	1.756050	-0.023440	0.911405
C54	C	2.089383	0.309893	1.244738
C55	C	1.289316	-0.356787	0.578093
C56	C	1.622650	-0.023454	0.911426
C57	C	1.955983	0.309879	1.244759
C58	C	1.734612	-0.549945	0.577980
C59	C	2.067946	-0.216612	0.911314
C60	C	2.401279	0.116721	1.244647
C61	C	1.734643	-0.632259	0.577933
C62	C	2.067976	-0.298926	0.911267
C63	C	2.401309	0.034407	1.244600
C64	C	1.734707	-0.931350	0.577859
C65	C	2.068041	-0.598017	0.911192
C66	C	2.401374	-0.264684	1.244525
C67	C	1.827790	-0.900035	0.485438
C68	C	2.161123	-0.566701	0.818771
C69	C	2.494456	-0.233368	1.152104
C70	C	1.827499	-0.814416	0.485095
C71	C	2.160833	-0.481083	0.818428
C72	C	2.494166	-0.147750	1.151761
C73	C	1.734676	-0.782968	0.577896
C74	C	2.068010	-0.449635	0.911229
C75	C	2.401343	-0.116301	1.244562
C76	C	1.608228	-0.814044	0.543535
C77	C	1.941562	-0.480710	0.876869
C78	C	2.274895	-0.147377	1.210202
C79	C	1.608785	-0.899689	0.542842
C80	C	1.942119	-0.566356	0.876176
C81	C	2.275452	-0.233022	1.209509
C82	C	1.766959	-0.899770	0.704878
C83	C	2.100293	-0.566437	1.038211
C84	C	2.433626	-0.233104	1.371544
C85	C	1.769734	-0.814120	0.704230
C86	C	2.103067	-0.480787	1.037563
C87	C	2.436401	-0.147453	1.370897
C88	C	1.734651	-0.699108	0.577919
C89	C	2.067984	-0.365775	0.911252
C90	C	2.401318	-0.032442	1.244585
C91	C	1.734724	-1.015210	0.577833
C92	C	2.068058	-0.681877	0.911166
C93	C	2.401391	-0.348543	1.244499
C94	C	2.047583	-0.356793	0.578109
C95	C	2.380917	-0.023460	0.911442
C96	C	2.714250	0.309873	1.244776
C97	C	2.180983	-0.356797	0.578117
C98	C	2.514317	-0.023464	0.911450
C99	C	2.847650	0.309869	1.244784
C100	C	1.734493	-0.356778	0.889914
C101	C	2.067827	-0.023444	1.223248
C102	C	2.401160	0.309889	1.556581
C103	C	1.734583	-0.356800	1.023314
C104	C	2.067916	-0.023467	1.356648
C105	C	2.401250	0.309867	1.689981
C106	C	1.734539	-0.164373	0.578112
C107	C	2.067872	0.168961	0.911446
C108	C	2.401206	0.502294	1.244779
C109	C	1.734741	-0.082059	0.577821
C110	C	2.068074	0.251274	0.911154
C111	C	2.401408	0.584608	1.244488
C112	C	1.734621	-0.356805	0.265047
C113	C	2.067955	-0.023472	0.598381
C114	C	2.401288	0.309862	0.931714
C115	C	1.734656	-0.356814	0.131647
C116	C	2.067989	-0.023481	0.464981
C117	C	2.401322	0.309852	0.798314
H118	H	1.921262	-0.793406	0.506612
H119	H	2.254595	-0.460073	0.839946
H120	H	2.587929	-0.126740	1.173279
H121	H	1.806147	-0.793938	0.390996
H122	H	2.139481	-0.460605	0.724330
H123	H	2.472814	-0.127271	1.057663
H124	H	1.921859	-0.920635	0.506689
H125	H	2.255192	-0.587301	0.840023
H126	H	2.588526	-0.253968	1.173356
H127	H	1.580396	-0.792600	0.451717
H128	H	1.913729	-0.459267	0.785050
H129	H	2.247062	-0.125934	1.118384
H130	H	1.537070	-0.920404	0.607229
H131	H	1.870404	-0.587071	0.940563
H132	H	2.203737	-0.253737	1.273896
H133	H	1.581449	-0.919675	0.449992
H134	H	1.914783	-0.586341	0.783326
H135	H	2.248116	-0.253008	1.116659
H136	H	1.857551	-0.921413	0.736166
H137	H	2.190884	-0.588080	1.069499
H138	H	2.524217	-0.254747	1.402832
H139	H	1.862789	-0.793808	0.730140
H140	H	2.196122	-0.460475	1.063473
H141	H	2.529455	-0.127142	1.396807
H142	H	1.706871	-0.792710	0.776790
H143	H	2.040204	-0.459377	1.110124
H144	H	2.373538	-0.126043	1.443457
H145	H	1.806708	-0.921567	0.391864
H146	H	2.140041	-0.588233	0.725198
H147	H	2.473375	-0.254900	1.058531
H148	H	1.536990	-0.793672	0.608778
H149	H	1.870324	-0.460339	0.942111
H150	H	2.203657	-0.127005	1.275444
H151	H	1.699169	-0.920028	0.773741
H152	H	2.032503	-0.586694	1.107075
H153	H	2.365836	-0.253361	1.440408
