data_functionalizedCrystal
_audit_creation_method	'MofGen! by Chris Wilmer'
_symmetry_space_group_name_H-M	'P1'
_symmetry_Int_Tables_number	1
_symmetry_cell_setting	triclinic
loop_
_symmetry_equiv_pos_as_xyz
  x,y,z
_cell_length_a	14.971486
_cell_length_b	15.944551
_cell_length_c	13.448316
_cell_angle_alpha	89.992444
_cell_angle_beta	89.998199
_cell_angle_gamma	83.556434
loop_
_atom_site_label
_atom_site_type_symbol
_atom_site_fract_x
_atom_site_fract_y
_atom_site_fract_z
O1	O	1.186829	0.109463	-0.082580
O2	O	0.926415	0.122572	-0.082607
O3	O	1.063733	-0.006250	-0.082584
O4	O	1.049511	0.238286	-0.082603
O5	O	1.063716	-0.006258	0.082800
O6	O	0.926398	0.122564	0.082777
O7	O	1.186812	0.109456	0.082804
Cu8	Cu	1.056603	0.116009	0.097891
Cu9	Cu	1.056624	0.116018	-0.097694
O10	O	1.049494	0.238278	0.082781
C11	C	0.893082	0.121982	0.000081
C12	C	0.793787	0.120225	0.000071
C13	C	0.736480	0.195904	0.000067
C14	C	0.643182	0.194249	0.000082
C15	C	0.607194	0.116913	0.000094
C16	C	0.664508	0.041227	0.000102
C17	C	0.757804	0.042884	0.000094
C18	C	0.470049	0.037780	0.000116
C19	C	0.376747	0.036123	0.000122
C20	C	0.355428	0.189145	0.000104
C21	C	0.448724	0.190801	0.000096
C22	C	0.506032	0.115116	0.000101
C23	C	1.063134	-0.037549	0.000108
C24	C	1.061364	-0.130797	0.000109
C25	C	0.972017	-0.345738	0.000086
C26	C	1.013498	-0.406720	0.081634
C27	C	1.058162	-0.301526	0.000101
C28	C	1.013536	-0.406696	-0.081421
C29	C	1.055062	-0.466441	0.000089
C30	C	1.099667	-0.361279	0.081717
C31	C	1.099692	-0.361248	-0.081412
C32	C	1.141236	-0.422212	0.000156
C33	C	1.059945	-0.206522	0.000109
C34	C	1.053286	-0.561444	0.000088
C35	C	1.220145	0.110046	0.000113
C36	C	1.319440	0.111802	0.000117
C37	C	1.050093	0.269576	0.000087
C38	C	1.051863	0.362824	0.000080
N39	N	1.056595	0.116002	0.235456
N40	N	1.056639	0.116019	-0.235258
C41	C	1.117419	0.058983	0.287506
C42	C	1.117425	0.058982	0.391610
C43	C	1.056610	0.116005	0.443660
C44	C	0.995780	0.173027	0.391602
C45	C	0.995771	0.173023	0.287501
C46	C	0.995805	0.173033	0.608582
C47	C	0.995815	0.173038	0.712691
C48	C	1.117459	0.058992	0.712691
C49	C	1.117449	0.058988	0.608590
C50	C	1.056620	0.116011	0.556539
H51	H	0.765774	0.258881	0.000056
C52	C	0.929839	0.235067	0.231037
C53	C	0.944360	0.317634	0.256317
C54	C	0.883643	0.374811	0.204313
H55	H	0.870109	0.225966	0.248066
H56	H	0.938545	0.226954	0.161574
H57	H	0.935645	0.325744	0.325764
H58	H	1.004077	0.326763	0.239285
H59	H	0.892350	0.366697	0.134851
H60	H	0.823917	0.365701	0.221347
H61	H	0.893493	0.430838	0.221451
C62	C	0.293315	0.271383	0.000257
C63	C	0.309598	0.317956	0.085320
C64	C	0.252401	0.393719	0.085483
H65	H	0.232568	0.259440	0.000319
H66	H	0.304232	0.303136	-0.057393
H67	H	0.298674	0.286209	0.142956
H68	H	0.370334	0.329922	0.085276
H69	H	0.263318	0.425472	0.027832
H70	H	0.191657	0.381767	0.085542
H71	H	0.263447	0.425332	0.143191
C72	C	0.532378	-0.044328	-0.000036
C73	C	0.586573	-0.047827	-0.085115
C74	C	0.644010	-0.123443	-0.085289
H75	H	0.497699	-0.090694	-0.000083
H76	H	0.569273	-0.046872	0.057603
H77	H	0.549682	-0.045291	-0.142740
H78	H	0.621271	-0.001478	-0.085087
H79	H	0.680904	-0.125988	-0.027649
H80	H	0.609323	-0.169804	-0.085332
H81	H	0.680793	-0.125825	-0.143008
H82	H	0.596526	0.255875	0.000077
C83	C	0.820069	-0.039258	0.000300
C84	C	0.874239	-0.042791	0.085396
C85	C	0.931599	-0.118454	0.085630
H86	H	0.856990	-0.041872	-0.057308
H87	H	0.785306	-0.085578	0.000360
H88	H	0.908999	0.003516	0.085326
H89	H	0.837342	-0.040191	0.143017
H90	H	0.896835	-0.164774	0.085690
H91	H	0.968514	-0.121061	0.028019
H92	H	0.968354	-0.120865	0.143371
H93	H	1.212804	-0.455303	0.000210
H94	H	0.478022	0.253775	0.000076
C95	C	1.148255	-0.334183	-0.173243
C96	C	1.149980	-0.246580	-0.171507
C97	C	1.194710	-0.221615	-0.256087
H98	H	1.117634	-0.349470	-0.231203
H99	H	1.208059	-0.361378	-0.173825
H100	H	1.090186	-0.219394	-0.170935
H101	H	1.180606	-0.231271	-0.113566
H102	H	1.254514	-0.248810	-0.256669
H103	H	1.164085	-0.236908	-0.314040
H104	H	1.195894	-0.162176	-0.254915
H105	H	0.977096	-0.426804	-0.150369
C106	C	0.876659	-0.301454	0.000383
C107	C	0.831959	-0.324355	0.085959
C108	C	0.744121	-0.283568	0.086279
H109	H	0.845645	-0.317621	-0.056893
H110	H	0.878412	-0.242078	-0.000156
H111	H	0.830201	-0.383718	0.086489
H112	H	0.862945	-0.308187	0.143250
H113	H	0.745874	-0.224192	0.085740
H114	H	0.713116	-0.299738	0.028999
H115	H	0.713784	-0.299094	0.144345
C116	C	1.183488	-0.003024	0.231179
C117	C	1.236738	-0.052974	0.299050
C118	C	1.297602	-0.110115	0.247201
H119	H	1.220803	0.027149	0.190553
H120	H	1.151332	-0.038088	0.190603
H121	H	1.268892	-0.017914	0.339608
H122	H	1.199448	-0.083165	0.339678
H123	H	1.265446	-0.145179	0.206625
H124	H	1.334911	-0.079935	0.206576
H125	H	1.333734	-0.144018	0.293243
H126	H	0.347448	-0.026851	0.000133
C127	C	0.965011	-0.433488	0.173671
C128	C	1.009414	-0.409338	0.258860
C129	C	0.964761	-0.433969	0.343657
H130	H	0.964704	-0.493029	0.173447
H131	H	0.904905	-0.407022	0.173636
H132	H	1.069503	-0.435807	0.258895
H133	H	1.009722	-0.349800	0.259117
H134	H	0.904656	-0.407503	0.343623
H135	H	0.964457	-0.493510	0.343424
H136	H	0.994877	-0.417580	0.401468
C137	C	1.148130	-0.334418	0.173713
C138	C	1.149165	-0.246724	0.172679
C139	C	1.193786	-0.221946	0.257416
H140	H	1.208092	-0.361205	0.174044
H141	H	1.117719	-0.350297	0.231571
H142	H	1.179577	-0.230854	0.114837
H143	H	1.089216	-0.219915	0.172364
H144	H	1.163376	-0.237825	0.315274
H145	H	1.253746	-0.248739	0.257739
H146	H	1.194488	-0.162444	0.256731
C147	C	1.183326	-0.003020	0.448168
C148	C	1.135698	-0.054537	0.507929
C149	C	1.196380	-0.111674	0.560031
H150	H	1.220584	0.027157	0.488848
H151	H	1.219531	-0.037023	0.402285
H152	H	1.099508	-0.020538	0.553807
H153	H	1.098444	-0.084733	0.467274
H154	H	1.232585	-0.145677	0.514149
H155	H	1.233635	-0.081490	0.600706
H156	H	1.164073	-0.146640	0.600578
H157	H	0.635199	-0.021741	0.000126
C158	C	1.183645	-0.002823	0.769149
C159	C	1.271531	0.010960	0.743832
C160	C	1.332527	-0.045952	0.795838
H161	H	1.174060	-0.058937	0.752145
H162	H	1.174999	0.005349	0.838611
H163	H	1.280174	0.002782	0.674386
H164	H	1.281145	0.067064	0.760839
H165	H	1.323881	-0.037780	0.865300
H166	H	1.322933	-0.102063	0.778830
H167	H	1.392164	-0.036603	0.778675
H168	H	1.166973	0.012560	0.566210
C169	C	0.929674	0.234971	0.769026
C170	C	0.876374	0.284885	0.701164
C171	C	0.815422	0.341935	0.753023
H172	H	0.961734	0.270076	0.809632
H173	H	0.892408	0.204703	0.809622
H174	H	0.913635	0.315151	0.660585
H175	H	0.844294	0.249803	0.660555
H176	H	0.778156	0.311666	0.793619
H177	H	0.847490	0.377033	0.793628
H178	H	0.779246	0.375803	0.706987
H179	H	0.946269	0.219464	0.566206
H180	H	0.946260	0.219453	0.433988
