data_functionalizedCrystal
_audit_creation_method	'MofGen! by Chris Wilmer'
_symmetry_space_group_name_H-M	'P1'
_symmetry_Int_Tables_number	1
_symmetry_cell_setting	triclinic
loop_
_symmetry_equiv_pos_as_xyz
  x,y,z
_cell_length_a	19.077105
_cell_length_b	19.077068
_cell_length_c	19.076919
_cell_angle_alpha	85.529249
_cell_angle_beta	89.923776
_cell_angle_gamma	90.115316
loop_
_atom_site_label
_atom_site_type_symbol
_atom_site_fract_x
_atom_site_fract_y
_atom_site_fract_z
Zn1	Zn	1.044048	-0.340450	0.453500
Zn2	Zn	1.043962	-0.453600	0.340340
Zn3	Zn	0.931660	-0.331023	0.330931
Zn4	Zn	0.921801	-0.453176	0.453077
O5	O	0.985368	-0.394562	0.394462
O6	O	1.142196	-0.359583	0.442604
O7	O	1.033154	-0.433572	0.240616
O8	O	0.950731	-0.233799	0.343429
O9	O	1.142133	-0.442714	0.359466
O10	O	1.033302	-0.240725	0.433479
O11	O	0.950647	-0.343516	0.233703
O12	O	0.832193	-0.343104	0.343019
O13	O	0.933928	-0.441990	0.551609
O14	O	0.824949	-0.432849	0.432759
O15	O	1.023742	-0.359171	0.551919
O16	O	1.023594	-0.552019	0.359056
O17	O	0.933844	-0.551707	0.441883
C18	C	0.803119	-0.386908	0.386822
C19	C	0.725151	-0.383651	0.383571
C20	C	0.684769	-0.428912	0.428699
C21	C	0.611510	-0.425842	0.425647
C22	C	0.578634	-0.377515	0.377464
C23	C	0.619022	-0.332250	0.332335
C24	C	0.692280	-0.335317	0.335390
C25	C	0.359940	-0.363323	0.363326
C26	C	0.286677	-0.360262	0.360273
C27	C	0.279170	-0.453853	0.453586
C28	C	0.352429	-0.456918	0.456635
C29	C	0.392810	-0.411651	0.411508
N30	N	0.503752	-0.374378	0.374342
N31	N	0.467691	-0.414785	0.414634
C32	C	0.977658	-0.577398	0.401461
C33	C	0.974423	-0.655619	0.404482
C34	C	1.019665	-0.692509	0.362816
C35	C	1.016626	-0.766007	0.365661
C36	C	0.968342	-0.802612	0.410169
C37	C	0.923098	-0.765717	0.451839
C38	C	0.926141	-0.692221	0.448997
C39	C	0.954231	-1.022406	0.423292
C40	C	0.951190	-1.095907	0.426130
C41	C	1.044720	-1.096192	0.339952
C42	C	1.047755	-1.022695	0.337111
C43	C	1.002514	-0.985806	0.378784
N44	N	0.965233	-0.877738	0.413077
N45	N	1.005627	-0.910681	0.375880
C46	C	1.168328	-0.402247	0.402132
C47	C	1.246295	-0.405522	0.405400
C48	C	0.977745	-0.401585	0.578012
C49	C	0.974497	-0.404578	0.656230
C50	C	0.993126	-0.211015	0.387451
C51	C	0.996432	-0.132798	0.384464
C52	C	0.993003	-0.387518	0.211626
C53	C	0.996396	-0.384333	0.133406
C54	C	1.019730	-0.362866	0.693140
C55	C	1.016669	-0.365675	0.766634
C56	C	0.968378	-0.410200	0.803216
C57	C	0.923140	-0.451913	0.766301
C58	C	0.926198	-0.449100	0.692809
C59	C	0.954216	-0.423233	1.022998
C60	C	0.951163	-0.426044	1.096496
C61	C	1.044691	-0.339805	1.096823
C62	C	1.047748	-0.337000	1.023329
C63	C	1.002507	-0.378710	0.986421
N64	N	0.965250	-0.413073	0.878339
N65	N	1.005632	-0.375832	0.911299
H66	H	0.379191	-0.496273	0.495869
H67	H	0.889301	-0.662185	0.482927
C68	C	1.072129	-0.652686	0.314603
C69	C	1.117138	-0.613833	0.354731
C70	C	1.165473	-0.577135	0.310341
H71	H	1.098709	-0.685108	0.290181
H72	H	1.047801	-0.621714	0.281698
H73	H	1.141464	-0.644802	0.387624
H74	H	1.090578	-0.581399	0.379152
H75	H	1.141146	-0.546163	0.277436
H76	H	1.192048	-0.609561	0.285922
H77	H	1.196014	-0.550763	0.337561
C78	C	0.877209	-0.494431	0.652644
C79	C	0.916779	-0.539571	0.613827
C80	C	0.871673	-0.581332	0.576810
H81	H	0.847993	-0.521418	0.684873
H82	H	0.848990	-0.465146	0.621623
H83	H	0.944986	-0.568852	0.644844
H84	H	0.945993	-0.512603	0.581586
H85	H	0.843454	-0.552048	0.545790
H86	H	0.842460	-0.608315	0.609044
H87	H	0.898515	-0.611961	0.550464
H88	H	1.087072	-0.992892	0.300869
H89	H	1.081554	-1.126235	0.306026
H90	H	0.246283	-0.490707	0.490327
H91	H	0.392810	-0.326468	0.326576
H92	H	0.711530	-0.468267	0.467932
H93	H	0.911879	-1.125710	0.462386
C94	C	0.250933	-0.307889	0.307893
C95	C	0.209071	-0.344161	0.262476
C96	C	0.176135	-0.295939	0.214220
H97	H	0.222480	-0.277101	0.332437
H98	H	0.285444	-0.281366	0.281412
H99	H	0.174564	-0.370672	0.288954
H100	H	0.237507	-0.374946	0.237916
H101	H	0.210647	-0.269417	0.187739
H102	H	0.147686	-0.265154	0.238769
H103	H	0.147734	-0.320544	0.183395
H104	H	0.592249	-0.292898	0.293106
H105	H	0.725159	-0.298457	0.298646
C106	C	0.870566	-0.805360	0.500116
C107	C	0.802553	-0.784033	0.481152
C108	C	0.754141	-0.820528	0.525614
H109	H	0.875133	-0.854424	0.495883
H110	H	0.879290	-0.795508	0.547377
H111	H	0.793832	-0.793891	0.433902
H112	H	0.797964	-0.734974	0.485388
H113	H	0.762865	-0.810675	0.572876
H114	H	0.758714	-0.869590	0.521378
H115	H	0.707989	-0.806058	0.512757
C116	C	1.065780	-0.805930	0.320340
C117	C	1.108700	-0.758141	0.280737
C118	C	1.153984	-0.794892	0.238971
H119	H	1.094086	-0.836877	0.349594
H120	H	1.039073	-0.832324	0.289607
H121	H	1.135404	-0.731759	0.311466
H122	H	1.080413	-0.727193	0.251470
H123	H	1.127278	-0.821285	0.208238
H124	H	1.182285	-0.825837	0.268229
H125	H	1.183106	-0.762472	0.212090
H126	H	0.917388	-0.457207	0.992957
C127	C	1.100052	-0.288576	0.983532
C128	C	1.063974	-0.240202	0.937955
C129	C	1.112129	-0.195578	0.901282
H130	H	1.126560	-0.264066	1.015970
H131	H	1.130678	-0.315632	0.957120
H132	H	1.033360	-0.213149	0.964365
H133	H	1.037469	-0.264692	0.905502
H134	H	1.142755	-0.222633	0.874870
H135	H	1.138634	-0.171073	0.933726
H136	H	1.087657	-0.162755	0.870349
C137	C	0.870780	-0.500234	0.806146
C138	C	0.877796	-0.493786	0.878410
C139	C	0.829580	-0.538298	0.915136
H140	H	0.824552	-0.487540	0.791816
H141	H	0.879552	-0.547503	0.796379
H142	H	0.869018	-0.446527	0.888173
H143	H	0.924013	-0.506486	0.892761
H144	H	0.838351	-0.585567	0.905368
H145	H	0.783355	-0.525600	0.900799
H146	H	0.834337	-0.533934	0.964170
H147	H	0.917392	-0.992377	0.457223
C148	C	1.072186	-0.314453	0.653550
C149	C	1.111130	-0.278511	0.701607
C150	C	1.159452	-0.233897	0.665164
H151	H	1.102871	-0.341481	0.627188
H152	H	1.047858	-0.281531	0.622597
H153	H	1.135457	-0.311429	0.732547
H154	H	1.080464	-0.251470	0.727970
H155	H	1.135124	-0.200975	0.634212
H156	H	1.190132	-0.260931	0.638804
H157	H	1.185877	-0.209501	0.697765
H158	H	1.053504	-0.331711	0.796682
C159	C	1.093769	-0.294397	1.136800
C160	C	1.082191	-0.223448	1.115608
C161	C	1.127395	-0.181593	1.152412
H162	H	1.085082	-0.302353	1.185818
H163	H	1.140980	-0.306171	1.127112
H164	H	1.034992	-0.211678	1.125302
H165	H	1.090884	-0.215470	1.066596
H166	H	1.174606	-0.193367	1.142723
H167	H	1.118704	-0.189555	1.201428
H168	H	1.119550	-0.133450	1.138033
C169	C	0.898655	-0.474405	1.136087
C170	C	0.859677	-0.510318	1.088034
C171	C	0.811299	-0.554866	1.124479
H172	H	0.922920	-0.507351	1.167054
H173	H	0.868004	-0.447311	1.162433
H174	H	0.890324	-0.537411	1.061701
H175	H	0.835398	-0.477390	1.057066
H176	H	0.780648	-0.527772	1.150824
H177	H	0.835570	-0.587807	1.155444
H178	H	0.784842	-0.579233	1.091881
H179	H	0.578633	-0.462699	0.462394
