data_functionalizedCrystal
_audit_creation_method	'MofGen! by Chris Wilmer'
_symmetry_space_group_name_H-M	'P1'
_symmetry_Int_Tables_number	1
_symmetry_cell_setting	triclinic
loop_
_symmetry_equiv_pos_as_xyz
  x,y,z
_cell_length_a	13.339070
_cell_length_b	27.732048
_cell_length_c	12.376457
_cell_angle_alpha	101.176348
_cell_angle_beta	75.589755
_cell_angle_gamma	99.135974
loop_
_atom_site_label
_atom_site_type_symbol
_atom_site_fract_x
_atom_site_fract_y
_atom_site_fract_z
O1	O	1.358025	0.235161	-0.094094
O2	O	1.063992	0.203422	-0.094081
O3	O	1.220136	0.150154	-0.094066
O4	O	1.201881	0.288430	-0.094108
O5	O	1.181114	0.163448	0.093942
O6	O	1.024970	0.216716	0.093928
O7	O	1.319003	0.248455	0.093915
Zn8	Zn	1.165791	0.234696	0.123772
Zn9	Zn	1.217204	0.217181	-0.123938
O10	O	1.162859	0.301723	0.093900
C11	C	1.006875	0.204708	-0.000074
C12	C	0.894822	0.188727	-0.000068
C13	C	1.200241	0.138741	-0.000059
C14	C	1.199085	0.084928	-0.000049
C15	C	0.528098	0.312985	-0.000124
C16	C	0.633378	0.328001	-0.000133
C17	C	0.698744	0.293184	-0.000117
C18	C	0.658820	0.243348	-0.000092
C19	C	0.553531	0.228330	-0.000092
C20	C	0.724177	0.208529	-0.000084
C21	C	0.684253	0.158693	-0.000059
C22	C	0.578975	0.143677	-0.000058
C23	C	0.513609	0.178494	-0.000075
C24	C	0.829466	0.223547	-0.000084
C25	C	0.854899	0.138891	-0.000052
C26	C	0.749619	0.123875	-0.000042
C27	C	1.284103	-0.242187	-0.000111
C28	C	1.279823	-0.444437	-0.000127
O29	O	1.357565	-0.464994	-0.000180
N30	N	1.187233	-0.476309	-0.000122
C31	C	1.095708	-0.457617	-0.000120
O32	O	1.016858	-0.489367	-0.000127
C33	C	1.099990	-0.255368	-0.000112
C34	C	1.192584	-0.223497	-0.000106
C35	C	1.376689	-0.210317	-0.000106
C36	C	1.377757	-0.159757	-0.000096
C37	C	1.286238	-0.141067	-0.000091
C38	C	1.193652	-0.172937	-0.000096
C39	C	1.008468	-0.236676	-0.000119
C40	C	1.009548	-0.186111	-0.000120
C41	C	1.102141	-0.154240	-0.000114
C42	C	1.103201	-0.103687	-0.000081
N43	N	1.195791	-0.071815	-0.000086
C44	C	1.287310	-0.090505	-0.000091
C45	C	1.093465	-0.563800	-0.000122
C46	C	1.092394	-0.614362	-0.000121
C47	C	1.276510	-0.601179	-0.000130
C48	C	1.277578	-0.550616	-0.000122
C49	C	1.186055	-0.531928	-0.000127
C50	C	1.289545	0.015674	-0.000069
C51	C	1.290603	0.066238	-0.000054
C52	C	1.106489	0.053051	-0.000051
C53	C	1.105429	0.002491	-0.000060
C54	C	1.196966	-0.016195	-0.000073
O55	O	1.025503	-0.083098	-0.000041
O56	O	1.366153	-0.058748	-0.000109
C57	C	1.283035	-0.292747	-0.000121
C58	C	1.190449	-0.324617	-0.000126
C59	C	1.098930	-0.305927	-0.000121
C60	C	1.189377	-0.375179	-0.000126
C61	C	1.280896	-0.393869	-0.000131
C62	C	1.373486	-0.361997	-0.000136
C63	C	1.374554	-0.311437	-0.000126
C64	C	1.006340	-0.337799	-0.000116
C65	C	1.005279	-0.388358	-0.000125
C66	C	1.096798	-0.407048	-0.000130
C67	C	1.376121	0.247169	-0.000094
C68	C	1.488175	0.263150	-0.000107
C69	C	1.182754	0.313136	-0.000110
C70	C	1.183912	0.366948	-0.000126
N71	N	1.130710	0.246650	0.292827
N72	N	1.252293	0.205224	-0.292993
C73	C	1.333726	0.177465	0.647831
C74	C	1.358274	0.169097	0.529493
C75	C	1.301385	0.188485	0.470321
C76	C	1.219945	0.216241	0.529497
C77	C	1.195400	0.224613	0.647847
C78	C	1.163058	0.235633	0.470337
C79	C	1.081618	0.263390	0.529513
C80	C	1.057077	0.271760	0.647851
C81	C	1.113967	0.252372	0.707023
C82	C	1.187603	0.227261	0.351987
C83	C	1.049277	0.274410	0.352003
C84	C	1.024729	0.282777	0.470341
H85	H	0.861960	0.264124	-0.000100
H86	H	0.784467	0.305413	-0.000127
H87	H	0.665878	0.368577	-0.000163
H88	H	0.908122	0.110540	-0.000043
H89	H	0.958419	0.305378	0.518537
H90	H	1.002954	0.290198	0.303826
H91	H	0.717100	0.083297	-0.000031
H92	H	1.031976	0.068278	-0.000043
C93	C	1.447850	0.138563	0.464408
N94	N	1.515321	0.115561	0.415384
H95	H	1.366007	0.092186	-0.000046
H96	H	0.990772	0.294366	0.696033
H97	H	0.474871	0.341327	-0.000148
C98	C	1.379439	-0.515563	-0.000125
N99	N	1.456166	-0.489164	-0.000132
C100	C	1.477374	-0.230866	-0.000100
N101	N	1.553214	-0.246338	-0.000082
H102	H	1.380043	0.161685	0.696016
H103	H	1.030025	-0.023457	-0.000034
H104	H	0.427880	0.166270	-0.000067
H105	H	1.453157	-0.133812	-0.000096
H106	H	0.546476	0.103096	-0.000050
C107	C	0.990531	-0.649413	-0.000114
N108	N	0.913805	-0.675813	-0.000116
C109	C	1.390238	-0.004873	-0.000073
N110	N	1.466078	-0.020348	-0.000066
H111	H	1.351028	-0.616405	-0.000134
C112	C	1.277179	0.196726	0.286907
N113	N	1.344651	0.173724	0.237889
H114	H	1.018931	-0.548590	-0.000125
H115	H	0.933070	-0.262618	-0.000131
H116	H	0.935017	-0.170899	-0.000125
C117	C	1.086948	0.261563	0.837203
N118	N	1.066594	0.268481	0.935256
C119	C	0.903412	-0.423411	-0.000131
N120	N	0.826689	-0.449812	-0.000146
C121	C	1.474157	-0.382565	-0.000144
N122	N	1.549979	-0.398061	-0.000157
C123	C	0.905656	-0.317248	-0.000112
N124	N	0.829814	-0.301772	-0.000105
H125	H	1.449953	-0.285492	-0.000122
H126	H	1.321375	0.181670	0.373965
