data_functionalizedCrystal
_audit_creation_method	'MofGen! by Chris Wilmer'
_symmetry_space_group_name_H-M	'P1'
_symmetry_Int_Tables_number	1
_symmetry_cell_setting	triclinic
loop_
_symmetry_equiv_pos_as_xyz
  x,y,z
_cell_length_a	15.298709
_cell_length_b	15.297327
_cell_length_c	14.908308
_cell_angle_alpha	77.691786
_cell_angle_beta	77.689447
_cell_angle_gamma	107.406190
loop_
_atom_site_label
_atom_site_type_symbol
_atom_site_fract_x
_atom_site_fract_y
_atom_site_fract_z
Zn1	Zn	1.336447	-0.145107	0.304283
Zn2	Zn	1.317944	-0.292138	0.182052
Zn3	Zn	1.189454	-0.163561	0.182030
Zn4	Zn	1.149461	-0.332058	0.368874
O5	O	1.248326	-0.233216	0.259310
O6	O	1.466021	-0.140182	0.261046
O7	O	1.309893	-0.266099	0.052701
O8	O	1.233433	-0.029064	0.171206
O9	O	1.452426	-0.248205	0.171244
O10	O	1.341429	-0.015506	0.261024
O11	O	1.215492	-0.171634	0.052684
O12	O	1.052120	-0.210343	0.233837
O13	O	1.165272	-0.316242	0.489655
O14	O	1.022738	-0.334136	0.371111
O15	O	1.302650	-0.178890	0.442200
O16	O	1.271114	-0.429483	0.233876
O17	O	1.147330	-0.458812	0.371133
C18	C	1.003196	-0.278574	0.309481
C19	C	0.898322	-0.298003	0.330971
C20	C	1.202898	-0.478383	0.309531
C21	C	1.183548	-0.583253	0.331029
C22	C	0.833772	-0.371668	0.412462
C23	C	0.735238	-0.389918	0.432661
C24	C	0.701244	-0.334510	0.371367
C25	C	0.765794	-0.260848	0.289871
C26	C	0.864338	-0.242591	0.269674
C27	C	0.731810	-0.205433	0.228580
C28	C	0.796360	-0.131771	0.147084
C29	C	0.894894	-0.113518	0.126890
C30	C	0.928888	-0.168926	0.188184
C31	C	0.633266	-0.223690	0.248777
C32	C	0.663832	-0.094613	0.105989
C33	C	0.762366	-0.076363	0.085790
C34	C	1.386992	-0.817630	0.105896
C35	C	1.405172	-0.719100	0.085692
C36	C	1.349768	-0.685133	0.147025
C37	C	1.276180	-0.749707	0.228564
C38	C	1.257993	-0.848247	0.248765
C39	C	1.220769	-0.715750	0.289894
C40	C	1.147181	-0.780324	0.371433
C41	C	1.128998	-0.878854	0.391631
C42	C	1.184402	-0.912821	0.330298
C43	C	1.238956	-0.617209	0.269693
C44	C	1.109957	-0.647827	0.412562
C45	C	1.091777	-0.746357	0.432765
C46	C	1.494414	-0.187682	0.208943
C47	C	1.599282	-0.168278	0.187480
C48	C	1.231563	-0.249960	0.500404
C49	C	1.224420	-0.257096	0.603143
C50	C	1.293956	0.012911	0.208907
C51	C	1.313401	0.117796	0.187429
C52	C	1.265091	-0.216459	0.019129
C53	C	1.272466	-0.209024	-0.083703
C54	C	1.354050	-0.127458	0.746785
C55	C	1.347342	-0.134159	0.843317
C56	C	1.204292	-0.277193	0.892741
C57	C	1.211000	-0.270492	0.796209
C58	C	1.285883	-0.195623	0.723234
C59	C	1.292594	-0.188927	0.626700
C60	C	1.149541	-0.331957	0.676125
C61	C	1.142833	-0.338657	0.772657
H62	H	0.580718	-0.283665	0.315132
H63	H	0.814936	-0.016386	0.019435
O64	O	0.605496	-0.352390	0.391104
C65	C	0.447325	-0.449365	0.498471
C66	C	0.555738	-0.429227	0.476217
H67	H	0.407067	-0.511474	0.567296
H68	H	0.421861	-0.468886	0.436384
H69	H	0.432797	-0.382584	0.508237
H70	H	0.570349	-0.495973	0.466470
H71	H	0.581148	-0.409665	0.538314
O72	O	1.440866	-0.850469	0.046201
C73	C	1.570766	-0.809714	-0.097606
C74	C	1.509809	-0.772397	-0.030088
H75	H	1.626534	-0.746610	-0.159290
H76	H	1.522376	-0.860511	-0.127719
H77	H	1.608559	-0.849651	-0.055747
H78	H	1.472006	-0.732416	-0.071881
H79	H	1.558246	-0.721649	0.000028
H80	H	1.081865	-0.399612	0.832085
O81	O	1.083187	-0.398157	0.653363
C82	C	0.916269	-0.471567	0.666000
C83	C	0.991307	-0.396580	0.691868
H84	H	0.841970	-0.470303	0.697103
H85	H	0.917329	-0.545940	0.697208
H86	H	0.933974	-0.453923	0.584469
H87	H	0.973654	-0.414134	0.773387
H88	H	0.990231	-0.322230	0.660592
H89	H	1.353568	-0.127966	0.567284
H90	H	1.169606	-0.993051	0.346745
O91	O	1.367585	-0.589388	0.127288
C92	C	1.464426	-0.431193	0.019879
C93	C	1.444357	-0.539603	0.042130
H94	H	1.526483	-0.390912	-0.048982
H95	H	1.483985	-0.405695	0.081936
H96	H	1.397608	-0.416721	0.010179
H97	H	1.511140	-0.554157	0.051812
H98	H	1.424757	-0.565046	-0.019938
O99	O	0.957466	-0.041947	0.047669
C100	C	0.977387	0.084196	-0.091788
C101	C	0.906420	0.003157	-0.002119
H102	H	0.936146	0.120699	-0.132056
H103	H	1.018855	0.052908	-0.140854
H104	H	1.029713	0.139023	-0.068796
H105	H	0.854036	-0.051698	-0.025023
H106	H	0.865022	0.034515	0.046926
O107	O	0.866668	-0.425629	0.472001
C108	C	0.864050	-0.583704	0.543279
C109	C	0.826705	-0.522707	0.475837
H110	H	0.831771	-0.662200	0.546387
H111	H	0.842521	-0.576097	0.618470
H112	H	0.945569	-0.557953	0.514854
H113	H	0.745186	-0.548418	0.504174
H114	H	0.848307	-0.530317	0.400657
O115	O	0.672645	-0.461419	0.511912
C116	C	0.623047	-0.523957	0.684675
C117	C	0.694010	-0.442922	0.595000
H118	H	0.640283	-0.509020	0.751876
H119	H	0.629486	-0.595306	0.679994
H120	H	0.546783	-0.527505	0.688541
H121	H	0.770304	-0.439286	0.591078
H122	H	0.687487	-0.371614	0.599718
H123	H	1.009121	-0.154074	0.171739
H124	H	1.402849	-0.078649	0.862487
O125	O	1.426825	-0.054654	0.676012
C126	C	1.568045	0.086468	0.637175
C127	C	1.485662	0.004079	0.717418
H128	H	1.615648	0.133964	0.670621
H129	H	1.537073	0.131002	0.590745
H130	H	1.612442	0.055386	0.590743
H131	H	1.441234	0.035080	0.763919
H132	H	1.516697	-0.040442	0.763779
H133	H	1.298872	-0.564642	0.203303
H134	H	1.031860	-0.798947	0.499155
H135	H	1.465086	-0.666527	0.019304
O136	O	1.131631	-0.349866	0.963753
C137	C	1.057846	-0.423507	1.134372
C138	C	1.140202	-0.341175	1.054047
H139	H	1.064736	-0.416497	1.207393
H140	H	1.061604	-0.495249	1.127680
H141	H	0.986180	-0.419688	1.127503
H142	H	1.211908	-0.344903	1.060866
H143	H	1.136359	-0.269468	1.060765
H144	H	1.069067	-0.931430	0.458016
O145	O	0.630656	-0.040918	0.046505
C146	C	0.492394	-0.011840	0.014341
C147	C	0.529844	-0.072721	0.081773
H148	H	0.410885	-0.037516	0.042841
H149	H	0.513825	-0.019558	-0.060813
H150	H	0.524763	0.066683	0.011107
H151	H	0.497493	-0.151267	0.085090
H152	H	0.508424	-0.064922	0.156893
H153	H	1.064841	-0.620173	0.462503
