data_functionalizedCrystal
_audit_creation_method	'MofGen! by Chris Wilmer'
_symmetry_space_group_name_H-M	'P1'
_symmetry_Int_Tables_number	1
_symmetry_cell_setting	triclinic
loop_
_symmetry_equiv_pos_as_xyz
  x,y,z
_cell_length_a	16.959455
_cell_length_b	19.077068
_cell_length_c	19.076919
_cell_angle_alpha	94.470751
_cell_angle_beta	87.717788
_cell_angle_gamma	87.676048
loop_
_atom_site_label
_atom_site_type_symbol
_atom_site_fract_x
_atom_site_fract_y
_atom_site_fract_z
Zn1	Zn	1.176473	0.296738	0.409832
Zn2	Zn	1.676473	0.796738	0.909832
Zn3	Zn	1.176375	0.409891	0.296677
Zn4	Zn	1.676375	0.909891	0.796677
Zn5	Zn	1.049829	0.292016	0.291964
Zn6	Zn	1.549829	0.792016	0.791964
Zn7	Zn	1.038720	0.414582	0.414522
Zn8	Zn	1.538720	0.914582	0.914522
O9	O	1.110349	0.353307	0.353249
O10	O	1.610349	0.853307	0.853249
O11	O	1.287070	0.311761	0.394831
O12	O	1.787070	0.811761	0.894831
O13	O	1.164197	0.390316	0.197404
O14	O	1.664197	0.890316	0.697404
O15	O	1.071319	0.193994	0.303664
O16	O	1.571319	0.693994	0.803664
O17	O	1.286998	0.394894	0.311696
O18	O	1.786998	0.894894	0.811696
O19	O	1.164363	0.197463	0.390261
O20	O	1.664363	0.697463	0.890261
O21	O	1.071224	0.303714	0.193942
O22	O	1.571224	0.803714	0.693942
O23	O	0.937746	0.308262	0.308212
O24	O	1.437746	0.808262	0.808212
O25	O	1.052385	0.402888	0.512547
O26	O	1.552385	0.902888	1.012547
O27	O	0.929584	0.398310	0.398255
O28	O	1.429584	0.898310	0.898255
O29	O	1.153591	0.316309	0.509101
O30	O	1.653591	0.816309	1.009101
O31	O	1.153424	0.509163	0.316244
O32	O	1.653424	1.009163	0.816244
O33	O	1.052290	0.512608	0.402825
O34	O	1.552290	1.012608	0.902825
C35	C	0.904985	0.353283	0.353232
C36	C	1.404985	0.853283	0.853232
C37	C	0.817127	0.353290	0.353242
C38	C	1.317127	0.853290	0.853242
C39	C	1.101662	0.536465	0.360570
C40	C	1.601662	1.036465	0.860570
C41	C	1.098016	0.614821	0.363726
C42	C	1.598016	1.114821	0.863726
C43	C	1.101760	0.360649	0.537118
C44	C	1.601760	0.860649	1.037118
C45	C	1.098099	0.363777	0.615472
C46	C	1.598099	0.863777	1.115472
C47	C	0.449874	0.306386	0.306456
C48	C	0.949874	0.806386	0.806456
C49	C	0.441423	0.400288	0.400084
C50	C	0.941423	0.900288	0.900084
C51	C	0.523970	0.400277	0.400080
C52	C	1.023970	0.900277	0.900080
C53	C	0.569472	0.353321	0.353262
C54	C	1.069472	0.853321	0.853262
C55	C	0.532428	0.306375	0.306448
C56	C	1.032428	0.806375	0.806448
C57	C	0.561020	0.447227	0.446887
C58	C	1.061020	0.947227	0.946887
C59	C	0.643572	0.447219	0.446884
C60	C	1.143572	0.947219	0.946884
C61	C	0.689076	0.400259	0.400069
C62	C	1.189076	0.900259	0.900069
C63	C	0.652027	0.353311	0.353254
C64	C	1.152027	0.853311	0.853254
C65	C	0.697529	0.306355	0.306436
C66	C	1.197529	0.806355	0.806436
C67	C	0.660481	0.259402	0.259624
C68	C	1.160481	0.759402	0.759624
C69	C	0.577932	0.259415	0.259633
C70	C	1.077932	0.759415	0.759633
C71	C	0.771625	0.400247	0.400060
C72	C	1.271625	0.900247	0.900060
C73	C	0.780083	0.306344	0.306429
C74	C	1.280083	0.806344	0.806429
C75	C	1.316516	0.353331	0.353266
C76	C	1.816516	0.853331	0.853266
C77	C	1.404371	0.353342	0.353274
C78	C	1.904371	0.853342	0.853274
C79	C	1.119091	0.169434	0.345914
C80	C	1.619091	0.669434	0.845914
C81	C	1.122817	0.091079	0.342788
C82	C	1.622817	0.591079	0.842788
C83	C	1.148997	0.649818	0.320168
C84	C	1.648997	1.149818	0.820168
C85	C	1.145573	0.723442	0.323141
C86	C	1.645573	1.223442	0.823141
C87	C	1.091164	0.762069	0.369668
C88	C	1.591164	1.262069	0.869668
C89	C	1.040181	0.727068	0.413231
C90	C	1.540181	1.227068	0.913231
C91	C	1.043610	0.653445	0.410261
C92	C	1.543610	1.153445	0.910261
C93	C	1.075263	0.982454	0.383382
C94	C	1.575263	1.482454	0.883382
C95	C	1.071837	1.056083	0.386346
C96	C	1.571837	1.556083	0.886346
C97	C	1.177229	1.052452	0.296257
C98	C	1.677229	1.552452	0.796257
C99	C	1.180650	0.978827	0.293289
C100	C	1.680650	1.478827	0.793289
C101	C	1.129670	0.943832	0.336854
C102	C	1.629670	1.443832	0.836854
N103	N	1.087661	0.837326	0.372706
N104	N	1.587661	1.337326	0.872706
N105	N	1.133178	0.868578	0.333819
N106	N	1.633178	1.368578	0.833819
C107	C	1.118953	0.345943	0.170093
C108	C	1.618953	0.845943	0.670093
C109	C	1.122776	0.342615	0.091732
C110	C	1.622776	0.842615	0.591732
C111	C	1.149070	0.320172	0.650490
C112	C	1.649070	0.820172	1.150490
C113	C	1.145621	0.323109	0.724111
C114	C	1.645621	0.823109	1.224111
C115	C	1.091205	0.369655	0.762714
C116	C	1.591205	0.869655	1.262714
C117	C	1.040229	0.413262	0.727691
C118	C	1.540229	0.913262	1.227691
C119	C	1.043674	0.410321	0.654070
C120	C	1.543674	0.910321	1.154070
C121	C	1.075246	0.383281	0.983088
C122	C	1.575246	0.883281	1.483088
C123	C	1.071806	0.386221	1.056714
C124	C	1.571806	0.886221	1.556714
C125	C	1.177197	0.296066	1.053129
C126	C	1.677197	0.796066	1.553129
C127	C	1.180641	0.293132	0.979507
C128	C	1.680641	0.793132	1.479507
C129	C	1.129663	0.336737	0.944491
C130	C	1.629663	0.836737	1.444491
N131	N	1.087680	0.372660	0.837967
N132	N	1.587680	0.872660	1.337967
N133	N	1.133184	0.333728	0.869238
N134	N	1.633184	0.833728	1.369238
H135	H	0.817126	0.268102	0.268307
H136	H	1.317126	0.768102	0.768307
C137	C	0.980363	0.464457	0.770156
C138	C	1.480363	0.964457	1.270156
N139	N	0.935271	0.503018	0.802140
N140	N	1.435271	1.003018	1.302140
H141	H	0.697540	0.221174	0.221502
H142	H	1.197540	0.721174	0.721502
C143	C	0.537173	0.207775	0.208142
C144	C	1.037173	0.707775	0.708142
N145	N	0.506470	0.168882	0.169358
N146	N	1.006470	0.668882	0.669358
H147	H	1.224954	0.947378	0.255403
H148	H	1.724954	1.447378	0.755403
H149	H	1.027539	1.087531	0.424247
H150	H	1.527539	1.587531	0.924247
H151	H	0.419706	0.268156	0.268345
H152	H	0.919706	0.768156	0.768345
C153	C	1.019222	0.943971	0.431341
C154	C	1.519222	1.443971	0.931341
N155	N	0.977023	0.914984	0.467480
N156	N	1.477023	1.414984	0.967480
H157	H	1.218735	1.080952	0.260790
H158	H	1.718735	1.580952	0.760790
H159	H	0.404370	0.438521	0.438197
H160	H	0.904370	0.938521	0.938197
C161	C	0.510963	0.498877	0.498381
C162	C	1.010963	0.998877	0.998381
N163	N	0.473256	0.537781	0.537169
N164	N	0.973256	1.037781	1.037169
H165	H	0.673729	0.485450	0.485001
H166	H	1.173729	0.985450	0.985001
C167	C	1.208849	0.607334	0.268983
C168	C	1.708849	1.107334	0.768983
N169	N	1.253934	0.575338	0.230430
N170	N	1.753934	1.075338	0.730430
H171	H	0.995884	0.758524	0.451117
H172	H	1.495884	1.258524	0.951117
C173	C	0.812374	0.451891	0.451549
C174	C	1.312374	0.951891	0.951549
N175	N	0.843065	0.490790	0.490336
N176	N	1.343065	0.990790	0.990336
C177	C	1.201694	0.275141	0.762628
C178	C	1.701694	0.775141	1.262628
N179	N	1.243931	0.239009	0.791638
N180	N	1.743931	0.739009	1.291638
H181	H	1.187086	0.751933	0.287671
H182	H	1.687086	1.251933	0.787671
C183	C	0.987528	0.614950	0.458179
C184	C	1.487528	1.114950	0.958179
N185	N	0.945287	0.585956	0.494274
N186	N	1.445287	1.085956	0.994274
H187	H	1.193383	0.282271	0.619064
H188	H	1.693383	0.782271	1.119064
H189	H	1.224954	0.255231	0.948082
H190	H	1.724954	0.755231	1.448082
H191	H	1.218700	0.260565	1.081648
H192	H	1.718700	0.760565	1.581648
C193	C	1.011939	0.437425	1.099175
C194	C	1.511939	0.937425	1.599175
N195	N	0.966850	0.475991	1.131157
N196	N	1.466850	0.975991	1.631157
C197	C	0.987604	0.458292	0.615551
C198	C	1.487604	0.958292	1.115551
N199	N	0.945369	0.494424	0.586539
N200	N	1.445369	0.994424	1.086539
H201	H	1.033747	0.418798	0.954587
H202	H	1.533747	0.918798	1.454587
