data_functionalizedCrystal
_audit_creation_method	'MofGen! by Chris Wilmer'
_symmetry_space_group_name_H-M	'P1'
_symmetry_Int_Tables_number	1
_symmetry_cell_setting	triclinic
loop_
_symmetry_equiv_pos_as_xyz
  x,y,z
_cell_length_a	27.780882
_cell_length_b	27.780884
_cell_length_c	27.780936
_cell_angle_alpha	90.002261
_cell_angle_beta	59.997799
_cell_angle_gamma	119.999789
loop_
_atom_site_label
_atom_site_type_symbol
_atom_site_fract_x
_atom_site_fract_y
_atom_site_fract_z
O1	O	0.424592	-0.330213	-0.014321
O2	O	0.326022	-0.260214	0.014251
O3	O	0.424588	-0.260214	-0.084318
O4	O	0.326026	-0.330213	0.084247
O5	O	0.344528	-0.340274	-0.084318
O6	O	0.245962	-0.340274	0.014251
O7	O	0.344532	-0.410273	-0.014321
Zn8	Zn	0.282536	-0.387985	-0.000035
Zn9	Zn	0.388018	-0.282503	-0.000035
O10	O	0.245966	-0.410273	0.084248
C11	C	0.177734	-0.120430	0.029862
C12	C	0.211527	-0.056934	0.025772
C13	C	0.119397	-0.149664	0.030267
C14	C	0.177730	-0.207598	0.029867
C15	C	0.211519	-0.237303	0.025783
C16	C	0.119393	-0.236700	0.030273
C17	C	0.090568	-0.207596	0.029862
C18	C	0.031162	-0.237298	0.025772
C19	C	0.206427	-0.149666	0.030273
C20	C	-0.016831	-0.261295	0.022466
C21	C	0.238829	-0.005636	0.022467
C22	C	0.238818	-0.261301	0.022482
C23	C	-0.077040	-0.291400	0.018321
C24	C	0.273079	0.058719	0.018322
C25	C	0.273065	-0.291409	0.018343
O26	O	-0.234707	-0.410266	-0.014339
O27	O	-0.094711	-0.340265	0.014229
O28	O	-0.094704	-0.340270	-0.084338
O29	O	-0.234714	-0.410261	0.084228
O30	O	-0.094701	-0.260209	-0.084343
O31	O	-0.094708	-0.260204	0.014225
O32	O	-0.234704	-0.330205	-0.014344
Zn33	Zn	-0.164706	-0.282493	-0.000061
Zn34	Zn	-0.164709	-0.387977	-0.000054
O35	O	-0.234711	-0.330200	0.084223
C36	C	0.492828	-0.207603	-0.372394
C37	C	0.459037	-0.237307	-0.402098
C38	C	0.551166	-0.149673	-0.401496
C39	C	0.492828	-0.207604	-0.285228
C40	C	0.459036	-0.237307	-0.221733
C41	C	0.551166	-0.149673	-0.314463
C42	C	0.579994	-0.120438	-0.372393
C43	C	0.639400	-0.056943	-0.402096
C44	C	0.464132	-0.236706	-0.314464
C45	C	0.687394	-0.005646	-0.426092
C46	C	0.431736	-0.261304	-0.426095
C47	C	0.431736	-0.261304	-0.170435
C48	C	0.747605	0.058709	-0.456197
C49	C	0.397486	-0.291409	-0.456201
C50	C	0.397486	-0.291410	-0.106080
C51	C	0.580008	-0.462879	-0.029964
C52	C	0.639417	-0.433174	-0.025878
C53	C	0.551182	-0.520809	-0.030373
C54	C	0.492839	-0.462880	-0.029960
C55	C	0.459045	-0.433178	-0.025869
C56	C	0.464144	-0.520811	-0.030368
C57	C	0.492842	-0.550045	-0.029964
C58	C	0.459052	-0.613540	-0.025878
C59	C	0.551178	-0.433777	-0.030369
C60	C	0.431752	-0.664837	-0.022575
C61	C	0.687412	-0.409177	-0.022576
C62	C	0.431742	-0.409182	-0.022562
C63	C	0.397504	-0.729192	-0.018433
C64	C	0.747625	-0.379070	-0.018434
C65	C	0.397490	-0.379077	-0.018415
O66	O	0.344549	0.249047	-0.014343
O67	O	0.245980	0.080483	0.014226
O68	O	0.344550	0.179042	-0.084342
O69	O	0.245978	0.150488	0.084224
O70	O	0.424607	0.179040	-0.084336
O71	O	0.326036	0.080480	0.014231
O72	O	0.424605	0.249045	-0.014338
Zn73	Zn	0.388031	0.164762	-0.000053
Zn74	Zn	0.282554	0.164766	-0.000059
O75	O	0.326034	0.150486	0.084230
O76	O	0.905273	0.249033	-0.494995
O77	O	0.765273	0.080470	-0.425001
O78	O	0.765270	0.179032	-0.424994
O79	O	0.905276	0.150471	-0.495003
O80	O	0.765272	0.179034	-0.505055
O81	O	0.765275	0.080472	-0.505062
O82	O	0.905275	0.249035	-0.575056
Zn83	Zn	0.835275	0.164754	-0.552770
Zn84	Zn	0.835273	0.164751	-0.447287
O85	O	0.905278	0.150473	-0.575063
O86	O	0.326020	-0.330218	-0.575063
O87	O	0.424588	-0.260215	-0.505065
O88	O	0.326020	-0.260217	-0.505059
O89	O	0.424589	-0.330216	-0.575069
O90	O	0.245961	-0.340275	-0.425000
O91	O	0.344530	-0.340273	-0.425006
O92	O	0.245962	-0.410276	-0.495003
Zn93	Zn	0.282535	-0.387986	-0.447293
Zn94	Zn	0.388015	-0.282505	-0.552775
O95	O	0.344531	-0.410274	-0.495009
C96	C	0.090559	-0.550051	0.372323
C97	C	0.031152	-0.613546	0.402025
C98	C	0.119386	-0.520817	0.401426
C99	C	0.177725	-0.462885	0.285158
C100	C	0.211517	-0.433181	0.221663
C101	C	0.206420	-0.433783	0.314394
C102	C	0.177724	-0.462886	0.372324
C103	C	0.211515	-0.433183	0.402029
C104	C	0.119387	-0.520816	0.314392
C105	C	0.238815	-0.409187	0.426026
C106	C	-0.016842	-0.664843	0.426021
C107	C	0.238818	-0.409184	0.170365
C108	C	0.273064	-0.379082	0.456133
C109	C	-0.077053	-0.729198	0.456125
C110	C	0.273068	-0.379078	0.106010
C111	C	0.177761	-0.120445	-0.372420
C112	C	0.211554	-0.056951	-0.402125
C113	C	0.206457	-0.149682	-0.401521
C114	C	0.090590	-0.207608	-0.285252
C115	C	0.031179	-0.237308	-0.221756
C116	C	0.119418	-0.236712	-0.314485
C117	C	0.177759	-0.207612	-0.372416
C118	C	0.211551	-0.237318	-0.402117
C119	C	0.119420	-0.149677	-0.314489
C120	C	0.238852	-0.261316	-0.426113
C121	C	0.238857	-0.005654	-0.426124
C122	C	-0.016817	-0.261303	-0.170458
C123	C	0.273102	-0.291424	-0.456216
C124	C	0.273109	0.058701	-0.456232
C125	C	-0.077032	-0.291406	-0.106103
C126	C	-0.507174	-0.462860	0.372301
C127	C	-0.540966	-0.433155	0.402003
C128	C	-0.535872	-0.520790	0.401406
C129	C	-0.420004	-0.462864	0.285137
C130	C	-0.360594	-0.433163	0.221642
C131	C	-0.448834	-0.520794	0.314373
C132	C	-0.507175	-0.550027	0.372304
C133	C	-0.540968	-0.613521	0.402010
C134	C	-0.448833	-0.433760	0.314371
C135	C	-0.568270	-0.664818	0.426008
C136	C	-0.568268	-0.409157	0.425999
C137	C	-0.312597	-0.409168	0.170343
C138	C	-0.602522	-0.729173	0.456115
C139	C	-0.602518	-0.379050	0.456103
C140	C	-0.252383	-0.379064	0.105988
C141	C	0.580005	0.194619	-0.372405
C142	C	0.639409	0.190525	-0.402104
C143	C	0.551178	0.195023	-0.401510
C144	C	0.492843	0.194635	-0.285245
C145	C	0.459054	0.190558	-0.221751
C146	C	0.464149	0.195039	-0.314482
C147	C	0.492843	0.194621	-0.372410
C148	C	0.459052	0.190530	-0.402115
C149	C	0.551179	0.195036	-0.314476
C150	C	0.431752	0.187222	-0.426113
C151	C	0.687401	0.187216	-0.426097
C152	C	0.431754	0.187263	-0.170455
C153	C	0.397503	0.183075	-0.456220
C154	C	0.747609	0.183066	-0.456199
C155	C	0.397506	0.183130	-0.106101
O156	O	0.424649	0.249027	-0.575092
O157	O	0.326070	0.080461	-0.505095
O158	O	0.424629	0.179018	-0.505082
O159	O	0.326090	0.150471	-0.575105
O160	O	0.344563	0.179021	-0.425026
O161	O	0.246004	0.080464	-0.425039
O162	O	0.344583	0.249030	-0.495036
Zn163	Zn	0.282581	0.164748	-0.447327
Zn164	Zn	0.388072	0.164744	-0.552804
O165	O	0.246024	0.150474	-0.495049
C166	C	0.177742	0.134906	0.372298
C167	C	0.211532	0.138997	0.402003
C168	C	0.119406	0.134505	0.401398
C169	C	0.177741	0.134893	0.285133
C170	C	0.211531	0.138970	0.221639
C171	C	0.119406	0.134492	0.314364
C172	C	0.090580	0.134909	0.372293
C173	C	0.031176	0.139004	0.401992
C174	C	0.206435	0.134489	0.314370
C175	C	-0.016815	0.142313	0.425985
C176	C	0.238832	0.142304	0.426002
C177	C	0.238831	0.142265	0.170343
C178	C	-0.077023	0.146464	0.456086
C179	C	0.273081	0.146451	0.456109
C180	C	0.273079	0.146398	0.105989
H181	H	0.575284	-0.126201	-0.290985
C182	C	0.583760	-0.552530	-0.031249
C183	C	0.609680	-0.575109	-0.082600
C184	C	0.642249	-0.606835	-0.083470
C185	C	0.648897	-0.615982	-0.032990
C186	C	0.622976	-0.593402	0.018365
C187	C	0.590407	-0.561676	0.019235
H188	H	0.604760	-0.568338	-0.119972
H189	H	0.661437	-0.623549	-0.121487
H190	H	0.673006	-0.639467	-0.033634
H191	H	0.627896	-0.600173	0.055737
H192	H	0.571219	-0.544961	0.057252
H193	H	0.095271	-0.126191	0.030925
C194	C	0.583771	-0.369474	-0.031259
C195	C	0.648071	-0.337320	-0.031701
C196	C	0.680664	-0.273019	-0.032594
C197	C	0.648956	-0.240871	-0.033044
C198	C	0.584653	-0.273025	-0.032602
C199	C	0.552060	-0.337326	-0.031709
H200	H	0.671546	-0.361117	-0.031367
H201	H	0.728266	-0.249216	-0.032921
H202	H	0.673083	-0.193271	-0.033705
H203	H	0.561177	-0.249228	-0.032936
H204	H	0.504458	-0.361129	-0.031382
H205	H	0.253386	0.133843	0.290899
H206	H	0.253368	-0.126194	0.030932
C207	C	0.086792	-0.552498	0.282676
C208	C	0.012869	-0.575050	0.308118
C209	C	-0.019726	-0.606719	0.276400
C210	C	0.021603	-0.615837	0.219242
C211	C	0.095531	-0.593285	0.193798
C212	C	0.128125	-0.561616	0.225515
H213	H	-0.017729	-0.568301	0.350432
H214	H	-0.074452	-0.623413	0.295236
H215	H	-0.002526	-0.639280	0.195763
H216	H	0.126128	-0.600034	0.151483
H217	H	0.182851	-0.544921	0.206679
C218	C	0.583764	0.195897	-0.465809
C219	C	0.590419	0.145419	-0.481608
C220	C	0.623001	0.146293	-0.545905
C221	C	0.648928	0.197646	-0.594403
C222	C	0.642274	0.248128	-0.578605
C223	C	0.609692	0.247253	-0.514308
H224	H	0.571225	0.107401	-0.445706
H225	H	0.627926	0.108923	-0.557599
H226	H	0.673047	0.198293	-0.641999
H227	H	0.661468	0.286145	-0.614507
H228	H	0.604767	0.284624	-0.502614
C229	C	-0.416235	-0.369459	0.282658
C230	C	-0.447944	-0.337306	0.314800
C231	C	-0.415346	-0.273008	0.283087
C232	C	-0.351038	-0.240863	0.219231
C233	C	-0.319326	-0.273016	0.187085
C234	C	-0.351924	-0.337314	0.218799
H235	H	-0.495552	-0.361101	0.362073
H236	H	-0.438822	-0.249206	0.306884
H237	H	-0.326907	-0.193266	0.195755
H238	H	-0.271718	-0.249221	0.139813
H239	H	-0.328447	-0.361116	0.195002
H240	H	0.575306	0.195692	-0.291005
H241	H	0.575291	-0.126204	-0.449095
C242	C	0.400711	-0.301005	-0.282750
C243	C	0.368991	-0.333154	-0.314892
C244	C	0.305569	-0.397449	-0.283178
C245	C	0.273867	-0.429594	-0.219321
C246	C	0.305587	-0.397444	-0.187175
C247	C	0.369009	-0.333150	-0.218890
H248	H	0.392458	-0.309358	-0.362167
H249	H	0.282088	-0.421248	-0.306974
H250	H	0.226918	-0.477188	-0.195843
H251	H	0.282119	-0.421240	-0.139901
H252	H	0.392490	-0.309351	-0.195093
H253	H	0.095280	0.133853	0.448996
H254	H	0.095283	0.133836	0.290888
C255	C	0.086788	-0.300999	0.031152
C256	C	0.060851	-0.349509	0.082500
C257	C	0.028242	-0.413805	0.083375
C258	C	0.021571	-0.429591	0.032902
C259	C	0.047509	-0.381080	-0.018450
C260	C	0.080118	-0.316784	-0.019325
H261	H	0.065789	-0.337824	0.119867
H262	H	0.009041	-0.449715	0.121389
H263	H	-0.002568	-0.477186	0.033549
H264	H	0.042571	-0.392765	-0.055817
H265	H	0.099319	-0.280874	-0.057340
C266	C	0.400726	-0.552523	-0.031251
C267	C	0.369007	-0.520381	-0.031682
C268	C	0.305591	-0.552093	-0.032564
C269	C	0.273894	-0.615948	-0.033014
C270	C	0.305613	-0.648094	-0.032582
C271	C	0.369029	-0.616382	-0.031701
H272	H	0.392471	-0.473108	-0.031349
H273	H	0.282111	-0.528296	-0.032884
H274	H	0.226950	-0.639424	-0.033667
H275	H	0.282149	-0.695367	-0.032916
H276	H	0.392509	-0.640179	-0.031381
C277	C	0.269882	-0.117977	-0.465820
C278	C	0.301584	-0.150134	-0.497963
C279	C	0.365010	-0.118431	-0.562258
C280	C	0.396732	-0.054570	-0.594410
C281	C	0.365030	-0.022409	-0.562267
C282	C	0.301604	-0.054112	-0.497972
H283	H	0.278101	-0.197411	-0.474162
H284	H	0.388478	-0.142239	-0.586052
H285	H	0.443683	-0.031101	-0.642005
H286	H	0.388513	0.024868	-0.586068
H287	H	0.278136	-0.030304	-0.474178
H288	H	0.253364	-0.386185	0.290920
C289	C	0.086798	-0.552524	0.465726
C290	C	0.022504	-0.616384	0.497876
C291	C	-0.010080	-0.648089	0.562173
C292	C	0.021630	-0.615933	0.594320
C293	C	0.085927	-0.552069	0.562170
C294	C	0.118511	-0.520364	0.497874
H295	H	-0.000972	-0.640191	0.474079
H296	H	-0.057677	-0.695365	0.585972
H297	H	-0.002491	-0.639403	0.641916
H298	H	0.109403	-0.528262	0.585968
H299	H	0.166108	-0.473088	0.474075
H300	H	0.095296	-0.126201	-0.291020
C301	C	0.086827	-0.301014	-0.282781
C302	C	0.012900	-0.349508	-0.260207
C303	C	-0.019688	-0.413807	-0.228507
C304	C	0.021651	-0.429611	-0.219381
C305	C	0.095583	-0.381115	-0.241955
C306	C	0.128170	-0.316817	-0.273655
H307	H	-0.017706	-0.337810	-0.266963
H308	H	-0.074417	-0.449707	-0.211797
H309	H	-0.002472	-0.477209	-0.195915
H310	H	0.126188	-0.392813	-0.235200
H311	H	0.182899	-0.280917	-0.290366
C312	C	-0.416244	-0.552507	0.282669
C313	C	-0.351946	-0.520366	0.218809
C314	C	-0.319359	-0.552080	0.187107
C315	C	-0.351071	-0.615935	0.219266
C316	C	-0.415372	-0.648080	0.283130
C317	C	-0.447959	-0.616366	0.314832
H318	H	-0.328469	-0.473094	0.195000
H319	H	-0.271759	-0.528284	0.139830
H320	H	-0.326948	-0.639412	0.195798
H321	H	-0.438849	-0.695352	0.306939
H322	H	-0.495559	-0.640162	0.362108
C323	C	-0.599289	-0.552498	0.465708
C324	C	-0.631005	-0.520352	0.497859
C325	C	-0.694420	-0.552060	0.562159
C326	C	-0.726119	-0.615914	0.594308
C327	C	-0.694403	-0.648064	0.562158
C328	C	-0.630988	-0.616356	0.497858
H329	H	-0.607540	-0.473081	0.474060
H330	H	-0.717898	-0.528260	0.585959
H331	H	-0.773062	-0.639386	0.641907
H332	H	-0.717869	-0.695335	0.585957
H333	H	-0.607510	-0.640155	0.474058
C334	C	0.400737	0.195933	-0.282781
C335	C	0.369024	0.196381	-0.218924
C336	C	0.305615	0.197276	-0.187227
C337	C	0.273919	0.197722	-0.219387
C338	C	0.305632	0.197274	-0.283247
C339	C	0.369041	0.196379	-0.314945
H340	H	0.392487	0.196050	-0.195114
H341	H	0.282139	0.197608	-0.139953
H342	H	0.226980	0.198385	-0.195923
H343	H	0.282169	0.197605	-0.307057
H344	H	0.392517	0.196047	-0.362219
