data_functionalizedCrystal
_audit_creation_method	'MofGen! by Chris Wilmer'
_symmetry_space_group_name_H-M	'P1'
_symmetry_Int_Tables_number	1
_symmetry_cell_setting	triclinic
loop_
_symmetry_equiv_pos_as_xyz
  x,y,z
_cell_length_a	27.732048
_cell_length_b	27.732048
_cell_length_c	9.130313
_cell_angle_alpha	89.993840
_cell_angle_beta	90.005287
_cell_angle_gamma	82.642655
loop_
_atom_site_label
_atom_site_type_symbol
_atom_site_fract_x
_atom_site_fract_y
_atom_site_fract_z
O1	O	0.640924	0.057515	-0.121626
O2	O	1.140924	0.557515	0.378374
O3	O	0.500131	0.066260	-0.121673
O4	O	1.000131	0.566260	0.378327
O5	O	0.574900	-0.008509	-0.121620
O6	O	1.074900	0.491491	0.378380
O7	O	0.566155	0.132284	-0.121679
O8	O	1.066155	0.632284	0.378321
O9	O	0.574899	-0.008507	0.121979
O10	O	1.074899	0.491493	0.621979
O11	O	0.500130	0.066262	0.121926
O12	O	1.000130	0.566262	0.621926
O13	O	0.640923	0.057517	0.121973
O14	O	1.140923	0.557517	0.621973
Cu15	Cu	0.570527	0.061890	0.144192
Cu16	Cu	1.070527	0.561890	0.644192
Cu17	Cu	0.570528	0.061887	-0.143892
Cu18	Cu	1.070528	0.561887	0.356108
O19	O	0.566154	0.132286	0.121920
O20	O	1.066154	0.632286	0.621920
C21	C	0.482124	0.066078	0.000121
C22	C	0.982124	0.566078	0.500121
C23	C	0.428469	0.065525	0.000105
C24	C	0.928469	0.565525	0.500105
C25	C	0.089654	0.106229	0.000151
C26	C	0.589654	0.606229	0.500151
C27	C	-0.112006	0.104178	0.000165
C28	C	0.387994	0.604178	0.500165
O29	O	-0.143262	0.141398	0.000213
O30	O	0.356738	0.641398	0.500213
N31	N	-0.131130	0.059843	0.000181
N32	N	0.368870	0.559843	0.500181
C33	C	-0.099835	0.016017	0.000203
C34	C	0.400165	0.516017	0.500203
O35	O	-0.120728	-0.021740	0.000232
O36	O	0.379272	0.478260	0.500232
C37	C	0.101824	0.018068	0.000199
C38	C	0.601824	0.518068	0.500199
C39	C	0.120944	0.062407	0.000169
C40	C	0.620944	0.562407	0.500169
C41	C	0.108775	0.150563	0.000122
C42	C	0.608775	0.650563	0.500122
C43	C	0.159187	0.151075	0.000111
C44	C	0.659187	0.651075	0.500111
C45	C	0.190477	0.107253	0.000128
C46	C	0.690477	0.607253	0.500128
C47	C	0.171356	0.062919	0.000157
C48	C	0.671356	0.562919	0.500157
C49	C	0.133117	-0.025757	0.000232
C50	C	0.633117	0.474243	0.500232
C51	C	0.183535	-0.025240	0.000235
C52	C	0.683535	0.474760	0.500235
C53	C	0.202655	0.019098	0.000204
C54	C	0.702655	0.519098	0.500204
C55	C	0.253059	0.019609	0.000163
C56	C	0.753059	0.519609	0.500163
N57	N	0.272183	0.063944	0.000148
N58	N	0.772183	0.563944	0.500148
C59	C	0.240892	0.107766	0.000130
C60	C	0.740892	0.607766	0.500130
C61	C	-0.205709	0.014943	0.000202
C62	C	0.294291	0.514943	0.500202
C63	C	-0.256124	0.014430	0.000200
C64	C	0.243876	0.514430	0.500200
C65	C	-0.268291	0.102591	0.000165
C66	C	0.231709	0.602591	0.500165
C67	C	-0.217876	0.103104	0.000156
C68	C	0.282124	0.603104	0.500156
C69	C	-0.186585	0.059278	0.000186
C70	C	0.313415	0.559278	0.500186
C71	C	0.346761	0.108839	0.000105
C72	C	0.846761	0.608839	0.500105
C73	C	0.397178	0.109347	0.000087
C74	C	0.897178	0.609347	0.500087
C75	C	0.409341	0.021186	0.000130
C76	C	0.909341	0.521186	0.500130
C77	C	0.358929	0.020678	0.000140
C78	C	0.858929	0.520678	0.500140
C79	C	0.327639	0.064508	0.000132
C80	C	0.827639	0.564508	0.500132
O81	O	0.284343	-0.017592	0.000132
O82	O	0.784343	0.482408	0.500132
O83	O	0.261794	0.145518	0.000133
O84	O	0.761794	0.645518	0.500133
C85	C	0.039242	0.105716	0.000163
C86	C	0.539242	0.605716	0.500163
C87	C	0.020120	0.061382	0.000192
C88	C	0.520120	0.561382	0.500192
C89	C	0.051411	0.017560	0.000209
C90	C	0.551411	0.517560	0.500209
C91	C	-0.030294	0.060869	0.000190
C92	C	0.469706	0.560869	0.500190
C93	C	-0.061585	0.104691	0.000172
C94	C	0.438415	0.604691	0.500172
C95	C	-0.042461	0.149026	0.000156
C96	C	0.457539	0.649026	0.500156
C97	C	0.007951	0.149539	0.000145
C98	C	0.507951	0.649539	0.500145
C99	C	0.032287	-0.026775	0.000225
C100	C	0.532287	0.473225	0.500225
C101	C	-0.018125	-0.027284	0.000235
C102	C	0.481875	0.472716	0.500235
C103	C	-0.049416	0.016538	0.000217
C104	C	0.450584	0.516538	0.500217
C105	C	0.574716	-0.026515	0.000183
C106	C	1.074716	0.473485	0.500183
C107	C	0.574164	-0.080170	0.000195
C108	C	1.074164	0.419830	0.500195
C109	C	0.614867	-0.418985	0.000133
C110	C	1.114867	0.081015	0.500133
C111	C	0.612816	-0.620645	0.000112
C112	C	1.112816	-0.120645	0.500112
O113	O	0.650037	-0.651900	0.000060
O114	O	1.150037	-0.151900	0.500060
N115	N	0.568481	-0.639768	0.000099
N116	N	1.068481	-0.139768	0.500099
C117	C	0.524656	-0.608474	0.000081
C118	C	1.024656	-0.108474	0.500081
O119	O	0.486899	-0.629367	0.000055
O120	O	0.986899	-0.129367	0.500055
C121	C	0.526707	-0.406815	0.000092
C122	C	1.026707	0.093185	0.500092
C123	C	0.571045	-0.387694	0.000120
C124	C	1.071045	0.112306	0.500120
C125	C	0.659202	-0.399864	0.000160
C126	C	1.159202	0.100136	0.500160
C127	C	0.659714	-0.349452	0.000173
C128	C	1.159714	0.150548	0.500173
C129	C	0.615892	-0.318161	0.000160
C130	C	1.115892	0.181839	0.500160
C131	C	0.571557	-0.337282	0.000133
C132	C	1.071557	0.162718	0.500133
C133	C	0.482882	-0.375521	0.000064
C134	C	0.982882	0.124479	0.500064
C135	C	0.483399	-0.325104	0.000063
C136	C	0.983399	0.174896	0.500063
C137	C	0.527737	-0.305983	0.000091
C138	C	1.027737	0.194017	0.500091
C139	C	0.528248	-0.255580	0.000133
C140	C	1.028248	0.244420	0.500133
N141	N	0.572583	-0.236456	0.000147
N142	N	1.072583	0.263544	0.500147
C143	C	0.616405	-0.267747	0.000160
C144	C	1.116405	0.232253	0.500160
C145	C	0.523582	-0.714348	0.000079
C146	C	1.023582	-0.214348	0.500079
C147	C	0.523069	-0.764762	0.000079
C148	C	1.023069	-0.264762	0.500079
C149	C	0.611230	-0.776930	0.000107
C150	C	1.111230	-0.276930	0.500107
C151	C	0.611742	-0.726514	0.000117
C152	C	1.111742	-0.226514	0.500117
C153	C	0.567917	-0.695224	0.000092
C154	C	1.067917	-0.195224	0.500092
C155	C	0.617477	-0.161878	0.000189
C156	C	1.117477	0.338122	0.500189
C157	C	0.617986	-0.111461	0.000208
C158	C	1.117986	0.388539	0.500208
C159	C	0.529825	-0.099298	0.000172
C160	C	1.029825	0.400702	0.500172
C161	C	0.529316	-0.149710	0.000161
C162	C	1.029316	0.350290	0.500161
C163	C	0.573147	-0.180999	0.000164
C164	C	1.073147	0.319001	0.500164
O165	O	0.491047	-0.224296	0.000169
O166	O	0.991047	0.275704	0.500169
O167	O	0.654156	-0.246844	0.000154
O168	O	1.154156	0.253156	0.500154
C169	C	0.614355	-0.469397	0.000120
C170	C	1.114355	0.030603	0.500120
C171	C	0.570021	-0.488518	0.000094
C172	C	1.070021	0.011482	0.500094
C173	C	0.526198	-0.457228	0.000080
C174	C	1.026198	0.042772	0.500080
C175	C	0.569508	-0.538933	0.000094
C176	C	1.069508	-0.038933	0.500094
C177	C	0.613330	-0.570223	0.000107
C178	C	1.113330	-0.070223	0.500107
C179	C	0.657665	-0.551100	0.000120
C180	C	1.157665	-0.051100	0.500120
C181	C	0.658177	-0.500688	0.000133
C182	C	1.158177	-0.000688	0.500133
C183	C	0.481863	-0.476351	0.000067
C184	C	0.981863	0.023649	0.500067
C185	C	0.481355	-0.526764	0.000056
C186	C	0.981355	-0.026764	0.500056
C187	C	0.525177	-0.558054	0.000069
C188	C	1.025177	-0.058054	0.500069
C189	C	0.658931	0.057699	0.000176
C190	C	1.158931	0.557699	0.500176
C191	C	0.712586	0.058252	0.000182
C192	C	1.212586	0.558252	0.500182
C193	C	0.566338	0.150292	0.000113
C194	C	1.066338	0.650292	0.500113
C195	C	0.566891	0.203947	0.000092
C196	C	1.066891	0.703947	0.500092
N197	N	0.570529	0.061891	0.346815
N198	N	1.070529	0.561891	0.846815
N199	N	0.570529	0.061882	-0.346515
N200	N	1.070529	0.561882	0.153485
C201	C	0.603646	0.028794	0.423490
C202	C	1.103646	0.528794	0.923490
C203	C	0.603644	0.028788	0.576827
C204	C	1.103644	0.528788	1.076827
C205	C	0.537409	0.094981	0.576799
C206	C	1.037409	0.594981	1.076799
C207	C	0.537408	0.094984	0.423465
C208	C	1.037408	0.594984	0.923465
C209	C	0.641887	-0.009420	0.423507
C210	C	1.141887	0.490580	0.923507
C211	C	0.641886	-0.009426	0.576844
C212	C	1.141886	0.490574	1.076844
H213	H	0.117558	-0.061861	0.000258
H214	H	0.617558	0.438139	0.500258
N215	N	-0.300257	0.147356	0.000191
N216	N	0.199743	0.647356	0.500191
N217	N	-0.298698	0.176921	0.102883
N218	N	0.201302	0.676921	0.602883
H219	H	-0.321276	0.208535	0.102916
H220	H	0.178724	0.708535	0.602916
N221	N	0.632270	-0.055858	0.371273
N222	N	1.132270	0.444142	0.871273
N223	N	0.595930	-0.059018	0.292550
N224	N	1.095930	0.440982	0.792550
H225	H	0.589134	-0.091813	0.255650
H226	H	1.089134	0.408187	0.755650
H227	H	0.209009	-0.060929	0.000260
H228	H	0.709009	0.439071	0.500260
H229	H	0.174750	0.187180	0.000085
H230	H	0.674750	0.687180	0.500085
H231	H	0.694889	-0.425336	0.000165
H232	H	1.194889	0.074664	0.500165
N233	N	0.076811	0.195327	0.000124
N234	N	0.576811	0.695327	0.500124
N235	N	0.047326	0.204884	0.102803
N236	N	0.547326	0.704884	0.602803
H237	H	0.024754	0.236502	0.102800
H238	H	0.524754	0.736502	0.602800
H239	H	-0.202311	0.139207	0.000139
H240	H	0.297689	0.639207	0.500139
H241	H	0.510439	0.121930	0.361038
H242	H	1.010439	0.621930	0.861038
H243	H	0.510443	0.121924	0.639225
H244	H	1.010443	0.621924	1.139225
N245	N	0.685675	0.004656	0.363862
N246	N	1.185675	0.504656	0.863862
N247	N	0.718468	0.015193	0.447420
N248	N	1.218468	0.515193	0.947420
H249	H	0.749391	0.025142	0.405297
H250	H	1.249391	0.525142	0.905297
N251	N	0.627865	-0.053234	0.636543
N252	N	1.127865	0.446766	1.136543
N253	N	0.626108	-0.058709	0.772246
N254	N	1.126108	0.441291	1.272246
H255	H	0.616202	-0.089646	0.814414
H256	H	1.116202	0.410354	1.314414
H257	H	0.678904	-0.001743	0.618468
H258	H	1.178904	0.498257	1.118468
N259	N	-0.275644	-0.030865	0.000199
N260	N	0.224356	0.469135	0.500199
N261	N	-0.247694	-0.069986	0.000214
N262	N	0.252306	0.430014	0.500214
H263	H	-0.261478	-0.101977	0.000218
H264	H	0.238522	0.398023	0.500218
N265	N	-0.074422	0.193794	0.000129
N266	N	0.425578	0.693794	0.500129
N267	N	-0.072876	0.223369	-0.102562
N268	N	0.427124	0.723369	0.397438
H269	H	-0.095451	0.254985	-0.102575
H270	H	0.404549	0.754985	0.397425
H271	H	0.412743	0.145454	0.000061
H272	H	0.912743	0.645454	0.500061
N273	N	0.703468	-0.481160	0.000183
N274	N	1.203468	0.018840	0.500183
N275	N	0.732923	-0.490875	0.102880
N276	N	1.232923	0.009125	0.602880
H277	H	0.764912	-0.477087	0.102916
H278	H	1.264912	0.022913	0.602916
N279	N	0.438631	-0.293142	0.000007
N280	N	0.938631	0.206858	0.500007
N281	N	0.409065	-0.294694	-0.102701
N282	N	0.909065	0.205306	0.397299
H283	H	0.377448	-0.272121	-0.102743
H284	H	0.877448	0.227879	0.397257
N285	N	0.314812	0.153614	0.000105
N286	N	0.814812	0.653614	0.500105
N287	N	0.331899	0.193192	0.000080
N288	N	0.831899	0.693192	0.500080
H289	H	0.309336	0.224815	0.000073
H290	H	0.809336	0.724815	0.500073
H291	H	0.057760	-0.062462	0.000243
H292	H	0.557760	0.437538	0.500243
N293	N	-0.173757	-0.029831	0.000233
N294	N	0.326243	0.470169	0.500233
N295	N	-0.190845	-0.069409	0.000245
N296	N	0.309155	0.430591	0.500245
H297	H	-0.168281	-0.101032	0.000262
H298	H	0.331719	0.398968	0.500262
H299	H	0.434827	-0.014492	0.000139
H300	H	0.934827	0.485508	0.500139
N301	N	0.339402	-0.024615	0.000147
N302	N	0.839402	0.475385	0.500147
N303	N	0.367348	-0.063739	0.000154
N304	N	0.867348	0.436261	0.500154
H305	H	0.353561	-0.095729	0.000171
H306	H	0.853561	0.404271	0.500171
H307	H	-0.033688	-0.063392	0.000248
H308	H	0.466312	0.436608	0.500248
N309	N	0.027470	0.194834	0.000108
N310	N	0.527470	0.694834	0.500108
N311	N	-0.000481	0.233954	0.000091
N312	N	0.499519	0.733954	0.500091
H313	H	0.013301	0.265946	0.000066
H314	H	0.513301	0.765946	0.500066
N315	N	0.485059	-0.067337	0.000126
N316	N	0.985059	0.432663	0.500126
N317	N	0.445474	-0.084411	0.000084
N318	N	0.945474	0.415589	0.500084
H319	H	0.413857	-0.061838	0.000036
H320	H	0.913857	0.438162	0.500036
H321	H	0.654093	-0.095896	0.000235
H322	H	1.154093	0.404104	0.500235
H323	H	0.653168	-0.187348	0.000186
H324	H	1.153168	0.312652	0.500186
H325	H	0.646911	-0.802415	0.000118
H326	H	1.146911	-0.302415	0.500118
N327	N	0.705005	-0.329925	0.000213
N328	N	1.205005	0.170075	0.500213
N329	N	0.734463	-0.339640	0.102903
N330	N	1.234463	0.160360	0.602903
H331	H	0.766452	-0.325852	0.102929
H332	H	1.266452	0.174148	0.602929
N333	N	0.657036	-0.706993	0.000153
N334	N	1.157036	-0.206993	0.500153
N335	N	0.696157	-0.734943	0.000176
N336	N	1.196157	-0.234943	0.500176
H337	H	0.728149	-0.721159	0.000201
H338	H	1.228149	-0.221159	0.500201
N339	N	0.477779	-0.784291	0.000099
N340	N	0.977779	-0.284291	0.500099
N341	N	0.448323	-0.774587	0.102775
N342	N	0.948323	-0.274587	0.602775
H343	H	0.416335	-0.788378	0.102786
H344	H	0.916335	-0.288378	0.602786
N345	N	0.478807	-0.682396	0.000053
N346	N	0.978807	-0.182396	0.500053
N347	N	0.439229	-0.699483	0.000044
N348	N	0.939229	-0.199483	0.500044
H349	H	0.407607	-0.676919	0.000032
H350	H	0.907607	-0.176919	0.500032
N351	N	0.437587	-0.395036	0.000032
N352	N	0.937587	0.104964	0.500032
N353	N	0.398468	-0.367083	0.000004
N354	N	0.898468	0.132917	0.500004
H355	H	0.366474	-0.380864	-0.000024
H356	H	0.866474	0.119136	0.499976
H357	H	0.493213	-0.165279	0.000179
H358	H	0.993213	0.334721	0.500179
H359	H	0.693347	-0.576585	0.000137
H360	H	1.193347	-0.076585	0.500137
N361	N	0.436056	-0.546283	0.000044
N362	N	0.936056	-0.046283	0.500044
N363	N	0.396935	-0.518334	0.000031
N364	N	0.896935	-0.018334	0.500031
H365	H	0.364944	-0.532118	0.000014
H366	H	0.864944	-0.032118	0.500014
H367	H	0.446177	-0.450879	0.000053
H368	H	0.946177	0.049121	0.500053
