data_functionalizedCrystal
_audit_creation_method	'MofGen! by Chris Wilmer'
_symmetry_space_group_name_H-M	'P1'
_symmetry_Int_Tables_number	1
_symmetry_cell_setting	triclinic
loop_
_symmetry_equiv_pos_as_xyz
  x,y,z
_cell_length_a	14.971486
_cell_length_b	16.098524
_cell_length_c	14.971486
_cell_angle_alpha	86.938144
_cell_angle_beta	96.385871
_cell_angle_gamma	93.056762
loop_
_atom_site_label
_atom_site_type_symbol
_atom_site_fract_x
_atom_site_fract_y
_atom_site_fract_z
O1	O	1.190514	0.069161	-0.120132
O2	O	0.930115	0.069184	-0.134092
O3	O	1.067294	0.069166	0.003089
O4	O	1.053335	0.069179	-0.257312
O5	O	1.060133	-0.069347	0.010241
O6	O	0.922955	-0.069329	-0.126940
O7	O	1.183354	-0.069352	-0.112980
Zn8	Zn	1.052017	-0.091333	-0.118824
Zn9	Zn	1.061451	0.091164	-0.128247
O10	O	1.046175	-0.069334	-0.250160
C11	C	0.893210	-0.000070	-0.129892
C12	C	0.793914	-0.000061	-0.128021
N13	N	1.045585	-0.215882	-0.112393
C14	C	0.736688	-0.000058	-0.208611
C15	C	0.643388	-0.000071	-0.206847
C16	C	0.607316	-0.000080	-0.124493
C17	C	0.664548	-0.000086	-0.043897
C18	C	0.757846	-0.000079	-0.045662
C19	C	0.470085	-0.000097	-0.040226
C20	C	0.376781	-0.000102	-0.038461
C21	C	0.355627	-0.000089	-0.201411
C22	C	0.448925	-0.000083	-0.203175
C23	C	0.506151	-0.000086	-0.122579
C24	C	1.097639	-0.259466	-0.164484
C25	C	1.093152	-0.346655	-0.159979
C26	C	1.036605	-0.390259	-0.103387
C27	C	0.984550	-0.346669	-0.051290
C28	C	0.989042	-0.259481	-0.055791
C29	C	1.020328	-0.653509	-0.087075
C30	C	1.015837	-0.740703	-0.082580
C31	C	1.124440	-0.740682	-0.191268
C32	C	1.128924	-0.653493	-0.195768
C33	C	1.076872	-0.609911	-0.143668
C34	C	1.032015	-0.479380	-0.098783
C35	C	1.081468	-0.520791	-0.148267
C36	C	1.220258	-0.000096	-0.117180
C37	C	1.319555	-0.000100	-0.119050
C38	C	1.063089	-0.000090	0.039989
C39	C	1.061218	-0.000089	0.139287
N40	N	1.067890	0.215714	-0.134671
C41	C	1.050380	-0.000076	-0.287061
C42	C	1.052251	-0.000071	-0.386358
C43	C	1.141807	-0.000097	0.196512
C44	C	1.140045	-0.000088	0.289811
C45	C	1.057692	-0.000078	0.325883
C46	C	0.977097	-0.000068	0.268650
C47	C	0.978861	-0.000071	0.175352
C48	C	0.973426	-0.000065	0.463112
C49	C	0.971662	-0.000064	0.556416
C50	C	1.134610	-0.000083	0.577571
C51	C	1.136374	-0.000085	0.484274
C52	C	1.055778	-0.000077	0.427047
H53	H	0.766051	-0.000050	-0.275673
H54	H	0.596799	-0.000068	-0.272471
H55	H	1.205668	-0.000097	0.336401
F56	F	0.487315	-0.000064	-0.290825
F57	F	0.818749	-0.000085	0.040113
H58	H	0.347413	-0.000111	0.028599
F59	F	1.157822	-0.213067	-0.224719
H60	H	1.135541	-0.382137	-0.202396
F61	F	0.964901	-0.607137	-0.031652
H62	H	0.938513	-0.382178	-0.005207
H63	H	0.969785	-0.776202	-0.036496
F64	F	1.189078	-0.607093	-0.256031
H65	H	0.635170	-0.000105	0.023157
H66	H	1.203432	-0.000099	0.454908
F67	F	0.933647	-0.213097	-0.000341
F68	F	1.141650	-0.474383	-0.208491
F69	F	0.971830	-0.525794	-0.038561
F70	F	1.179835	-0.787072	-0.246713
H71	H	0.309029	-0.000090	-0.267035
H72	H	1.200234	-0.000087	0.624170
H73	H	0.516677	-0.000102	0.025404
F74	F	0.887647	-0.000054	0.402209
F75	F	1.229459	-0.000116	0.158131
H76	H	0.904602	-0.000069	0.585783
F77	F	0.889451	-0.000048	0.307042
H78	H	0.913237	-0.000064	0.128759
