data_functionalizedCrystal
_audit_creation_method	'MofGen! by Chris Wilmer'
_symmetry_space_group_name_H-M	'P1'
_symmetry_Int_Tables_number	1
_symmetry_cell_setting	triclinic
loop_
_symmetry_equiv_pos_as_xyz
  x,y,z
_cell_length_a	14.519709
_cell_length_b	12.377034
_cell_length_c	13.339070
_cell_angle_alpha	75.605339
_cell_angle_beta	80.345280
_cell_angle_gamma	78.685580
loop_
_atom_site_label
_atom_site_type_symbol
_atom_site_fract_x
_atom_site_fract_y
_atom_site_fract_z
O1	O	1.244900	0.093845	-0.151994
O2	O	1.744900	0.593845	0.348006
O3	O	0.980393	0.093878	-0.167624
O4	O	1.480393	0.593878	0.332376
O5	O	1.082290	0.093862	-0.012491
O6	O	1.582290	0.593862	0.487509
O7	O	1.143003	0.093861	-0.307127
O8	O	1.643003	0.593861	0.192873
O9	O	1.107751	-0.094138	0.026224
O10	O	1.607751	0.405862	0.526224
O11	O	1.005854	-0.094122	-0.128910
O12	O	1.505854	0.405878	0.371090
O13	O	1.270361	-0.094155	-0.113279
O14	O	1.770361	0.405845	0.386721
Zn15	Zn	1.142150	-0.123987	-0.114948
Zn16	Zn	1.642150	0.376013	0.385052
Zn17	Zn	1.108604	0.123711	-0.165956
Zn18	Zn	1.608604	0.623711	0.334044
O19	O	1.168464	-0.094139	-0.268413
O20	O	1.668464	0.405861	0.231587
C21	C	0.958578	-0.000117	-0.147540
C22	C	1.458578	0.499883	0.352460
C23	C	0.855640	-0.000104	-0.145361
C24	C	1.355640	0.499896	0.354639
N25	N	1.165050	-0.293035	-0.080135
N26	N	1.665050	0.206965	0.419865
C27	C	1.218204	-0.352193	0.000726
C28	C	1.718204	0.147807	0.500726
C29	C	1.234222	-0.470525	0.025121
C30	C	1.734222	0.029475	0.525121
C31	C	1.197096	-0.529710	-0.031348
C32	C	1.697096	-0.029710	0.468652
C33	C	1.143947	-0.470552	-0.112215
C34	C	1.643947	0.029448	0.387785
C35	C	1.127920	-0.352208	-0.136607
C36	C	1.627920	0.147792	0.363393
C37	C	1.106812	-0.529725	-0.168680
C38	C	1.606812	-0.029725	0.331320
C39	C	1.053663	-0.470566	-0.249548
C40	C	1.553663	0.029434	0.250452
C41	C	1.037640	-0.352234	-0.273936
C42	C	1.537640	0.147766	0.226064
C43	C	1.074766	-0.293049	-0.217468
C44	C	1.574766	0.206951	0.282532
C45	C	1.122839	-0.648069	-0.144288
C46	C	1.622839	-0.148069	0.355712
C47	C	1.032555	-0.648084	-0.281621
C48	C	1.532555	-0.148084	0.218379
C49	C	1.016536	-0.529751	-0.306016
C50	C	1.516536	-0.029751	0.193984
C51	C	0.478707	-0.000155	-0.137317
C52	C	0.978707	0.499845	0.362683
C53	C	0.583581	-0.000141	-0.139551
C54	C	1.083581	0.499859	0.360449
C55	C	0.667170	-0.000129	-0.141339
C56	C	1.167170	0.499871	0.358661
C57	C	0.772050	-0.000116	-0.143573
C58	C	1.272050	0.499884	0.356427
C59	C	1.292176	-0.000157	-0.133364
C60	C	1.792176	0.499843	0.366636
C61	C	1.395113	-0.000163	-0.135545
C62	C	1.895113	0.499837	0.364455
C63	C	1.084764	-0.000135	0.044574
C64	C	1.584764	0.499865	0.544574
C65	C	1.054194	-0.000127	0.156929
C66	C	1.554194	0.499873	0.656929
N67	N	1.085709	0.292758	-0.200760
N68	N	1.585709	0.792758	0.299240
C69	C	1.165989	-0.000139	-0.325478
C70	C	1.665989	0.499861	0.174522
C71	C	1.196558	-0.000140	-0.437835
C72	C	1.696558	0.499860	0.062165
C73	C	1.291889	-0.000157	0.521299
C74	C	1.791889	0.499843	1.021299
C75	C	1.320616	-0.000172	0.415737
C76	C	1.820616	0.499828	0.915737
C77	C	1.254013	-0.000160	0.351030
C78	C	1.754013	0.499840	0.851030
C79	C	1.158679	-0.000135	0.391895
C80	C	1.658679	0.499865	0.891895
C81	C	1.129951	-0.000129	0.497469
C82	C	1.629951	0.499871	0.997469
C83	C	1.092074	-0.000132	0.327200
C84	C	1.592074	0.499868	0.827200
C85	C	0.996740	-0.000107	0.368065
C86	C	1.496740	0.499893	0.868065
C87	C	0.968016	-0.000101	0.473629
C88	C	1.468016	0.499899	0.973629
C89	C	1.034619	-0.000112	0.538336
C90	C	1.534619	0.499888	1.038336
C91	C	1.120802	-0.000137	0.221626
C92	C	1.620802	0.499863	0.721626
C93	C	0.958863	-0.000109	0.197796
C94	C	1.458863	0.499891	0.697796
C95	C	0.930136	-0.000095	0.303358
C96	C	1.430136	0.499905	0.803358
H97	H	1.210141	-0.626062	-0.011481
H98	H	1.710141	-0.126062	0.488519
C99	C	0.979173	-0.287162	-0.362883
C100	C	1.479173	0.212838	0.137117
H101	H	0.959363	-0.339355	-0.393027
H102	H	1.459363	0.160645	0.106973
H103	H	0.925195	-0.240985	-0.335899
H104	H	1.425195	0.259015	0.164101
H105	H	1.016904	-0.241015	-0.414611
H106	H	1.516904	0.258985	0.085389
C107	C	1.425472	-0.000187	0.370789
C108	C	1.925472	0.499813	0.870789
H109	H	1.461022	-0.000180	0.424440
H110	H	1.961022	0.499820	0.924440
H111	H	1.448924	-0.065747	0.343603
H112	H	1.948924	0.434253	0.843603
H113	H	1.431161	0.065380	0.316600
H114	H	1.931161	0.565380	0.816600
C115	C	0.825274	-0.000069	0.348313
C116	C	1.325274	0.499931	0.848313
H117	H	0.789716	-0.000053	0.294661
H118	H	1.289716	0.499947	0.794661
H119	H	0.819575	-0.065622	0.402506
H120	H	1.319575	0.434378	0.902506
H121	H	0.801833	0.065506	0.375490
H122	H	1.301833	0.565506	0.875490
C123	C	0.958072	-0.464674	-0.394963
C124	C	1.458072	0.035326	0.105037
H125	H	0.938259	-0.516863	-0.425109
H126	H	1.438259	-0.016863	0.074891
H127	H	0.904096	-0.418495	-0.367978
H128	H	1.404096	0.081505	0.132022
H129	H	0.995805	-0.418529	-0.446689
H130	H	1.495805	0.081471	0.053311
H131	H	0.904629	-0.000106	0.145112
H132	H	1.404629	0.499894	0.645112
H133	H	1.166113	-0.696225	-0.078446
H134	H	1.666113	-0.196225	0.421554
H135	H	1.198423	-0.000158	0.188365
H136	H	1.698423	0.499842	0.688365
H137	H	1.277408	-0.000172	0.265077
H138	H	1.777408	0.499828	0.765077
C139	C	1.292691	-0.535592	0.114057
C140	C	1.792691	-0.035592	0.614057
H141	H	1.312517	-0.483398	0.144187
H142	H	1.812517	0.016602	0.644187
H143	H	1.254975	-0.581745	0.165786
H144	H	1.754975	-0.081745	0.665786
H145	H	1.346673	-0.581763	0.087058
H146	H	1.846673	-0.081763	0.587058
C147	C	1.259027	-0.287090	0.062837
C148	C	1.759027	0.212910	0.562837
H149	H	1.241871	-0.208141	0.036726
H150	H	1.741871	0.291859	0.536726
H151	H	1.234348	-0.306470	0.134403
H152	H	1.734348	0.193530	0.634403
H153	H	1.326057	-0.306482	0.055690
H154	H	1.826057	0.193518	0.555690
C155	C	0.991717	-0.713174	-0.343743
C156	C	1.491717	-0.213174	0.156257
H157	H	1.008882	-0.792124	-0.317642
H158	H	1.508882	-0.292124	0.182358
H159	H	0.924693	-0.693776	-0.336598
H160	H	1.424693	-0.193776	0.163402
H161	H	1.016400	-0.693797	-0.415313
H162	H	1.516400	-0.193797	0.084687
H163	H	1.061728	-0.196694	-0.237333
H164	H	1.561728	0.303306	0.262667
C165	C	1.365141	-0.000174	0.592475
C166	C	1.865141	0.499826	1.092475
H167	H	1.334375	-0.000163	0.661198
H168	H	1.834375	0.499837	1.161198
H169	H	1.411993	-0.065740	0.593574
H170	H	1.911993	0.434260	1.093574
H171	H	1.394238	0.065387	0.566572
H172	H	1.894238	0.565387	1.066572
C173	C	1.003023	-0.000103	0.654456
C174	C	1.503023	0.499897	1.154456
H175	H	1.056346	-0.000117	0.687136
H176	H	1.556346	0.499883	1.187136
H177	H	0.957743	0.065460	0.660437
H178	H	1.457743	0.565460	1.160437
H179	H	0.975505	-0.065668	0.687442
H180	H	1.475505	0.434332	1.187442
H181	H	0.890390	-0.000089	0.506899
H182	H	1.390390	0.499911	1.006899
