data_functionalizedCrystal
_audit_creation_method	'MofGen! by Chris Wilmer'
_symmetry_space_group_name_H-M	'P1'
_symmetry_Int_Tables_number	1
_symmetry_cell_setting	triclinic
loop_
_symmetry_equiv_pos_as_xyz
  x,y,z
_cell_length_a	10.489741
_cell_length_b	15.944551
_cell_length_c	8.965430
_cell_angle_alpha	89.999468
_cell_angle_beta	89.998843
_cell_angle_gamma	84.018956
loop_
_atom_site_label
_atom_site_type_symbol
_atom_site_fract_x
_atom_site_fract_y
_atom_site_fract_z
O1	O	1.692411	0.118500	-0.123951
O2	O	1.321061	0.129624	-0.123974
O3	O	1.516876	0.001848	-0.123948
O4	O	1.496595	0.246276	-0.123977
O5	O	1.516860	0.001857	0.124130
O6	O	1.321044	0.129633	0.124105
O7	O	1.692394	0.118509	0.124128
Cu8	Cu	1.506718	0.124071	0.146768
Cu9	Cu	1.506737	0.124061	-0.146614
O10	O	1.496578	0.246285	0.124102
C11	C	1.273532	0.128788	0.000062
C12	C	1.131938	0.126275	0.000054
C13	C	1.064925	0.044975	0.000077
C14	C	0.972274	0.083376	-0.122240
C15	C	0.972291	0.083403	0.122346
C16	C	1.041152	0.164709	-0.122364
C17	C	1.041179	0.164726	0.122332
C18	C	0.948554	0.203186	-0.000015
C19	C	1.516026	-0.029446	0.000091
C20	C	1.513502	-0.122708	0.000092
C21	C	1.386093	-0.338330	0.000063
C22	C	1.445249	-0.398988	0.122385
C23	C	1.508935	-0.293461	0.000080
C24	C	1.445294	-0.398979	-0.122201
C25	C	1.504515	-0.458400	0.000062
C26	C	1.568126	-0.352890	0.122503
C27	C	1.568154	-0.352875	-0.122193
C28	C	1.627399	-0.413515	0.000158
C29	C	1.511478	-0.198443	0.000092
C30	C	1.501982	-0.553417	0.000061
C31	C	1.739922	0.119345	0.000088
C32	C	1.881517	0.121858	0.000087
C33	C	1.497429	0.277579	0.000059
C34	C	1.499953	0.370841	0.000049
N35	N	1.506713	0.124078	0.353117
N36	N	1.506752	0.124048	-0.352963
C37	C	1.416127	0.183150	0.450411
C38	C	1.531388	0.200146	0.549830
C39	C	1.391501	0.107089	0.549826
C40	C	1.622032	0.141112	0.450347
C41	C	1.482069	0.048022	0.450334
C42	C	1.597413	0.064986	0.549708
H43	H	1.071741	0.199101	0.225741
H44	H	1.071510	0.199079	-0.225891
N45	N	1.251032	-0.295021	0.000197
H46	H	1.204789	-0.311674	0.092679
H47	H	1.253789	-0.231897	-0.000807
H48	H	1.620073	-0.332436	-0.225606
N49	N	1.314747	0.249382	0.392665
H50	H	1.356344	0.291198	0.329120
H51	H	1.250687	0.221482	0.330737
N52	N	1.376434	-0.426027	0.259373
H53	H	1.285297	-0.398412	0.259283
H54	H	1.376064	-0.489343	0.258786
H55	H	1.461162	-0.016264	0.406597
N56	N	1.376460	-0.426015	-0.259175
H57	H	1.285325	-0.398397	-0.259064
H58	H	1.422039	-0.408431	-0.351484
N59	N	1.559046	0.285322	0.607723
H60	H	1.490560	0.329920	0.571613
H61	H	1.559712	0.284439	0.720361
N62	N	0.881845	0.291803	-0.000103
H63	H	0.906860	0.322388	-0.092538
H64	H	0.785984	0.289551	0.000836
N65	N	1.636889	-0.326003	0.259636
H66	H	1.638132	-0.262751	0.258820
H67	H	1.590795	-0.343221	0.351831
N68	N	1.699007	-0.001207	0.607112
H69	H	1.785962	0.011725	0.570730
H70	H	1.697858	-0.001157	0.719755
N71	N	1.751149	0.160226	0.392728
H72	H	1.750326	0.160144	0.280077
H73	H	1.769913	0.217458	0.429907
N74	N	1.262421	0.088061	0.607693
H75	H	1.273133	0.034894	0.669664
H76	H	1.224162	0.136614	0.671222
N77	N	1.131909	-0.043570	-0.000072
H78	H	1.187924	-0.052080	-0.091579
H79	H	1.186633	-0.052465	0.092399
N80	N	0.931825	0.037813	-0.259214
H81	H	0.974586	-0.021949	-0.259121
H82	H	0.835684	0.036995	-0.258604
N83	N	0.931873	0.037837	0.259334
H84	H	0.887533	-0.012632	0.228141
H85	H	1.010013	0.018424	0.320956
N86	N	1.762577	-0.456629	0.000243
H87	H	1.808791	-0.439875	0.092674
H88	H	1.760039	-0.519773	-0.000691
