data_functionalizedCrystal
_audit_creation_method	'MofGen! by Chris Wilmer'
_symmetry_space_group_name_H-M	'P1'
_symmetry_Int_Tables_number	1
_symmetry_cell_setting	triclinic
loop_
_symmetry_equiv_pos_as_xyz
  x,y,z
_cell_length_a	13.032831
_cell_length_b	14.908579
_cell_length_c	13.033454
_cell_angle_alpha	94.346598
_cell_angle_beta	89.091650
_cell_angle_gamma	93.475351
loop_
_atom_site_label
_atom_site_type_symbol
_atom_site_fract_x
_atom_site_fract_y
_atom_site_fract_z
Zn1	Zn	1.466490	0.431763	-0.805662
Zn2	Zn	1.475617	0.601444	-0.643412
Zn3	Zn	1.315979	0.436504	-0.612164
Zn4	Zn	1.284646	0.564179	-0.791407
O5	O	1.385683	0.508472	-0.713161
O6	O	1.610613	0.467884	-0.803182
O7	O	1.471374	0.597144	-0.496352
O8	O	1.345238	0.311431	-0.630721
O9	O	1.617318	0.592547	-0.683978
O10	O	1.455818	0.307948	-0.772882
O11	O	1.354088	0.475963	-0.473394
O12	O	1.168911	0.439829	-0.616898
O13	O	1.291836	0.529034	-0.936213
O14	O	1.145891	0.533631	-0.748587
O15	O	1.425436	0.431749	-0.946686
O16	O	1.440992	0.720944	-0.670156
O17	O	1.300686	0.693566	-0.778886
C18	C	1.120346	0.483201	-0.677805
C19	C	1.006829	0.472408	-0.662705
C20	C	0.944861	0.514106	-0.721042
C21	C	0.827535	0.502952	-0.705437
C22	C	1.368454	0.739522	-0.726391
C23	C	1.361173	0.838371	-0.732097
C24	C	1.493713	1.052566	-0.629722
C25	C	1.486875	1.145444	-0.635081
C26	C	1.340666	1.117006	-0.748179
C27	C	1.347503	1.024128	-0.742820
C28	C	1.424028	0.991912	-0.683588
C29	C	1.430861	0.899032	-0.678224
C30	C	1.284656	0.870596	-0.791328
C31	C	1.277819	0.963474	-0.796687
C32	C	1.652057	0.533843	-0.748656
C33	C	1.765569	0.544655	-0.763782
C34	C	1.402996	1.276518	-0.699918
C35	C	1.410353	1.177668	-0.694306
C36	C	1.354123	0.475706	-0.979542
C37	C	1.340673	0.461743	-1.093058
C38	C	1.392708	0.515475	-1.155026
C39	C	1.378809	0.501045	-1.272351
C40	C	1.417185	0.541053	-0.447821
C41	C	1.430850	0.554785	-0.334317
H42	H	1.556016	1.026336	-0.581485
N43	N	0.962058	0.414186	-0.581237
H44	H	0.988187	0.438629	-0.511472
H45	H	0.983420	0.350465	-0.596112
N46	N	1.268022	0.386660	-1.137825
H47	H	1.290799	0.326888	-1.117800
H48	H	1.268420	0.387080	-1.215283
H49	H	1.485698	0.611471	-1.300518
H50	H	0.978669	0.558058	-0.782543
H51	H	0.793732	0.458988	-0.643939
H52	H	1.323971	0.444352	-1.306152
H53	H	1.493169	0.872804	-0.629992
N54	N	0.810330	0.602880	-0.845257
H55	H	0.887798	0.602594	-0.844860
H56	H	0.788904	0.666586	-0.830424
H57	H	1.543621	1.194826	-0.591219
N58	N	1.258135	1.151762	-0.812060
H59	H	1.266478	1.128091	-0.886215
H60	H	1.264429	1.219801	-0.807197
H61	H	1.215517	0.989718	-0.844914
H62	H	1.227912	0.821200	-0.835186
H63	H	1.447550	0.572157	-1.121221
