data_functionalizedCrystal
_audit_creation_method	'MofGen! by Chris Wilmer'
_symmetry_space_group_name_H-M	'P1'
_symmetry_Int_Tables_number	1
_symmetry_cell_setting	triclinic
loop_
_symmetry_equiv_pos_as_xyz
  x,y,z
_cell_length_a	12.837943
_cell_length_b	10.868271
_cell_length_c	12.837942
_cell_angle_alpha	90.004531
_cell_angle_beta	94.828940
_cell_angle_gamma	90.003083
loop_
_atom_site_label
_atom_site_type_symbol
_atom_site_fract_x
_atom_site_fract_y
_atom_site_fract_z
O1	O	1.402335	0.102299	0.272141
O2	O	1.902335	0.602299	0.772141
O3	O	1.099202	0.102306	0.258698
O4	O	1.599202	0.602306	0.758698
O5	O	1.244047	0.102295	0.113853
O6	O	1.744047	0.602295	0.613853
O7	O	1.257490	0.102310	0.416986
O8	O	1.757490	0.602310	0.916986
O9	O	1.244033	-0.102349	0.113845
O10	O	1.744033	0.397651	0.613845
O11	O	1.099188	-0.102338	0.258690
O12	O	1.599188	0.397662	0.758690
O13	O	1.402322	-0.102345	0.272133
O14	O	1.902322	0.397655	0.772133
Zn15	Zn	1.250753	-0.134834	0.265411
Zn16	Zn	1.750753	0.365166	0.765411
Zn17	Zn	1.250771	0.134795	0.265421
Zn18	Zn	1.750771	0.634795	0.765421
O19	O	1.257477	-0.102334	0.416979
O20	O	1.757477	0.397666	0.916979
C21	C	1.060126	-0.000015	0.254153
C22	C	1.560126	0.499985	0.754153
C23	C	0.943711	-0.000012	0.240608
C24	C	1.443711	0.499988	0.740608
N25	N	1.250748	-0.318848	0.265404
N26	N	1.750748	0.181152	0.765404
C27	C	0.718837	-0.000022	0.403437
C28	C	1.218837	0.499978	0.903437
C29	C	0.609454	-0.000020	0.390716
C30	C	1.109454	0.499980	0.890716
C31	C	0.615562	-0.000017	0.202445
C32	C	1.115562	0.499983	0.702445
C33	C	0.724944	-0.000018	0.215166
C34	C	1.224944	0.499982	0.715166
C35	C	0.776578	-0.000019	0.315666
C36	C	1.276578	0.499981	0.815666
C37	C	0.885962	-0.000012	0.328386
C38	C	1.385962	0.499988	0.828386
C39	C	0.892067	-0.000017	0.140116
C40	C	1.392067	0.499983	0.640116
C41	C	0.782685	-0.000015	0.127395
C42	C	1.282685	0.499985	0.627395
C43	C	1.250765	-0.569854	0.265418
C44	C	1.750765	-0.069854	0.765418
C45	C	1.250753	-0.430176	0.265413
C46	C	1.750753	0.069824	0.765413
C47	C	1.441398	-0.000021	0.276679
C48	C	1.941398	0.499979	0.776679
C49	C	1.557813	-0.000016	0.290223
C50	C	2.057813	0.499984	0.790223
C51	C	1.239499	-0.000026	0.074780
C52	C	1.739499	0.499974	0.574780
C53	C	1.225954	-0.000024	-0.041635
C54	C	1.725954	0.499976	0.458365
N55	N	1.250783	0.318809	0.265420
N56	N	1.750783	0.818809	0.765420
C57	C	1.388784	-0.000002	-0.266510
C58	C	1.888784	0.499998	0.233490
C59	C	1.376062	0.000000	-0.375892
C60	C	1.876062	0.500000	0.124108
C61	C	1.187791	-0.000008	-0.369785
C62	C	1.687791	0.499992	0.130215
C63	C	1.200513	-0.000010	-0.260402
C64	C	1.700513	0.499990	0.239598
C65	C	1.301012	-0.000009	-0.208769
C66	C	1.801012	0.499991	0.291231
C67	C	1.313732	-0.000020	-0.099384
C68	C	1.813732	0.499980	0.400616
C69	C	1.125462	-0.000020	-0.093279
C70	C	1.625462	0.499980	0.406721
C71	C	1.112741	-0.000017	-0.202661
C72	C	1.612741	0.499983	0.297339
C73	C	1.262025	-0.000010	0.456052
C74	C	1.762025	0.499990	0.956052
C75	C	1.275569	-0.000004	0.572467
C76	C	1.775569	0.499996	1.072467
H77	H	0.928000	-0.000014	0.410218
H78	H	1.428000	0.499986	0.910218
H79	H	1.053992	-0.000035	-0.046254
H80	H	1.553992	0.499965	0.453746
C81	C	0.930950	0.105192	-0.016432
C82	C	1.430950	0.605192	0.483568
C83	C	0.955538	-0.000011	0.043627
C84	C	1.455538	0.499989	0.543627
H85	H	0.970139	0.105201	-0.075994
H86	H	1.470139	0.605201	0.424006
H87	H	0.858424	0.105179	-0.038385
H88	H	1.358424	0.605179	0.461615
H89	H	0.947628	0.176546	0.024350
H90	H	1.447628	0.676546	0.524350
H91	H	0.938851	-0.071366	0.002847
H92	H	1.438851	0.428634	0.502847
H93	H	1.028080	-0.000010	0.065579
H94	H	1.528080	0.499990	0.565579
C95	C	0.948354	0.105179	-0.231131
C96	C	1.448354	0.605179	0.268869
C97	C	1.002277	-0.000016	-0.259427
C98	C	1.502277	0.499984	0.240573
H99	H	0.880160	0.105179	-0.266180
H100	H	1.380160	0.605179	0.233820
H101	H	0.943368	0.105164	-0.157732
H102	H	1.443368	0.605164	0.342268
H103	H	0.984959	0.176539	-0.250307
H104	H	1.484959	0.676539	0.249693
H105	H	0.965676	-0.071376	-0.240243
H106	H	1.465676	0.428624	0.259757
H107	H	1.007259	-0.000012	-0.332841
H108	H	1.507259	0.499988	0.167159
C109	C	0.632572	-0.000016	0.017621
C110	C	1.132572	0.499984	0.517621
C111	C	0.558794	-0.000019	0.091982
C112	C	1.058794	0.499981	0.591982
H113	H	0.597524	-0.000023	-0.050573
H114	H	1.097524	0.499977	0.449427
H115	H	0.675106	0.071346	0.026501
H116	H	1.175106	0.571346	0.526501
H117	H	0.675109	-0.071383	0.026497
H118	H	1.175109	0.428617	0.526497
H119	H	0.516262	0.071353	0.083112
H120	H	1.016262	0.571353	0.583112
H121	H	0.516242	-0.071388	0.083098
H122	H	1.016242	0.428612	0.583098
C123	C	1.573605	0.000008	-0.283528
C124	C	2.073605	0.500008	0.216472
C125	C	1.499248	0.000003	-0.209746
C126	C	1.999248	0.500003	0.290254
H127	H	1.641801	0.000020	-0.248484
H128	H	2.141801	0.500020	0.251516
H129	H	1.564728	-0.071354	-0.326065
H130	H	2.064728	0.428646	0.173935
H131	H	1.564721	0.071375	-0.326063
H132	H	2.064721	0.571375	0.173937
H133	H	1.508126	-0.071370	-0.167216
H134	H	2.008126	0.428630	0.332784
H135	H	1.508129	0.071371	-0.167192
H136	H	2.008129	0.571371	0.332808
H137	H	0.562446	-0.000026	0.462189
H138	H	1.062446	0.499974	0.962189
H139	H	1.447536	0.000010	-0.422901
H140	H	1.947536	0.500010	0.077099
C141	C	1.084706	-0.000004	-0.534755
C142	C	1.584706	0.499996	-0.034755
C143	C	1.077329	-0.000010	-0.426553
C144	C	1.577329	0.499990	0.073447
H145	H	1.016510	-0.000013	-0.569799
H146	H	1.516510	0.499987	-0.069799
H147	H	1.121294	0.071360	-0.553916
H148	H	1.621294	0.571360	-0.053916
H149	H	1.121303	-0.071368	-0.553930
H150	H	1.621303	0.428632	-0.053930
H151	H	1.040739	0.071360	-0.407376
H152	H	1.540739	0.571360	0.092624
H153	H	1.040725	-0.071381	-0.407384
H154	H	1.540725	0.428619	0.092616
H155	H	0.740630	-0.000028	0.045571
H156	H	1.240630	0.499972	0.545571
H157	H	1.395564	-0.000024	-0.057346
H158	H	1.895564	0.499976	0.442654
C159	C	0.701818	-0.000014	0.588258
C160	C	1.201818	0.499986	1.088258
C161	C	0.775600	-0.000018	0.513902
C162	C	1.275600	0.499982	1.013902
H163	H	0.736862	-0.000018	0.656454
H164	H	1.236862	0.499982	1.156454
H165	H	0.659289	0.071346	0.579384
H166	H	1.159289	0.571346	1.079384
H167	H	0.659275	-0.071383	0.579372
H168	H	1.159275	0.428617	1.079372
H169	H	0.818138	0.071356	0.522783
H170	H	1.318138	0.571356	1.022783
H171	H	0.818146	-0.071385	0.522780
H172	H	1.318146	0.428615	1.022780
