data_functionalizedCrystal
_audit_creation_method	'MofGen! by Chris Wilmer'
_symmetry_space_group_name_H-M	'P1'
_symmetry_Int_Tables_number	1
_symmetry_cell_setting	triclinic
loop_
_symmetry_equiv_pos_as_xyz
  x,y,z
_cell_length_a	14.519709
_cell_length_b	10.654550
_cell_length_c	9.130313
_cell_angle_alpha	89.999512
_cell_angle_beta	90.003947
_cell_angle_gamma	95.917462
loop_
_atom_site_label
_atom_site_type_symbol
_atom_site_fract_x
_atom_site_fract_y
_atom_site_fract_z
O1	O	0.129530	-1.666595	0.121694
O2	O	0.629530	-1.166595	0.621694
O3	O	0.141871	-1.300997	0.121721
O4	O	0.641871	-0.800997	0.621721
O5	O	0.001513	-1.493489	0.121693
O6	O	0.501513	-0.993489	0.621693
O7	O	0.269889	-1.474103	0.121721
O8	O	0.769889	-0.974103	0.621721
O9	O	0.001513	-1.493475	-0.121906
O10	O	0.501513	-0.993475	0.378094
O11	O	0.141871	-1.300983	-0.121878
O12	O	0.641871	-0.800983	0.378122
O13	O	0.129530	-1.666580	-0.121905
O14	O	0.629530	-1.166580	0.378095
Cu15	Cu	0.135701	-1.483780	-0.144134
Cu16	Cu	0.635701	-0.983780	0.355866
Cu17	Cu	0.135701	-1.483797	0.143950
Cu18	Cu	0.635701	-0.983797	0.643950
O19	O	0.269889	-1.474088	-0.121878
O20	O	0.769889	-0.974088	0.378122
C21	C	-0.032852	-1.492579	-0.000106
C22	C	0.467148	-0.992579	0.499894
C23	C	-0.135247	-1.489871	-0.000107
C24	C	0.364753	-0.989871	0.499893
C25	C	0.140965	-1.254201	-0.000075
C26	C	0.640965	-0.754201	0.499925
C27	C	0.138254	-1.114784	-0.000065
C28	C	0.638254	-0.614784	0.499935
C29	C	0.130436	-1.713377	-0.000106
C30	C	0.630436	-1.213377	0.499894
C31	C	0.133147	-1.852794	-0.000106
C32	C	0.633147	-1.352794	0.499894
C33	C	-0.510195	-1.479904	-0.000068
C34	C	-0.010195	-0.979904	0.499932
C35	C	-0.405872	-1.482672	-0.000079
C36	C	0.094128	-0.982672	0.499921
C37	C	-0.322724	-1.484887	-0.000089
C38	C	0.177276	-0.984887	0.499911
C39	C	-0.218395	-1.487656	-0.000097
C40	C	0.281605	-0.987656	0.499903
C41	C	0.304253	-1.474999	-0.000075
C42	C	0.804253	-0.974999	0.499925
C43	C	0.406649	-1.477706	-0.000065
C44	C	0.906649	-0.977706	0.499935
N45	N	0.135700	-1.483777	-0.346757
N46	N	0.635700	-0.983777	0.153243
C47	C	0.220895	-1.034504	-0.000061
C48	C	0.720895	-0.534504	0.499939
C49	C	0.218342	-0.903507	-0.000087
C50	C	0.718342	-0.403507	0.499913
C51	C	0.050500	-0.933084	-0.000115
C52	C	0.550500	-0.433084	0.499885
C53	C	0.053054	-1.064078	-0.000100
C54	C	0.553054	-0.564078	0.499900
C55	C	0.192156	-1.560066	-0.423403
C56	C	0.692156	-1.060066	0.076597
C57	C	0.192151	-1.560086	-0.576740
C58	C	0.692151	-1.060086	-0.076740
C59	C	0.079232	-1.407519	-0.576771
C60	C	0.579232	-0.907519	-0.076771
C61	C	0.079233	-1.407506	-0.423437
C62	C	0.579233	-0.907506	0.076563
N63	N	0.135694	-1.483810	0.346572
N64	N	0.635694	-0.983810	0.846572
H65	H	0.290270	-1.075783	-0.000044
H66	H	0.790270	-0.575783	0.499956
H67	H	0.285637	-0.838147	-0.000086
H68	H	0.785637	-0.338147	0.499914
O69	O	-0.041393	-0.878397	-0.000142
O70	O	0.458607	-0.378397	0.499858
H71	H	-0.029287	-0.773821	-0.000138
H72	H	0.470713	-0.273821	0.499862
O73	O	0.018339	-1.325242	-0.659472
O74	O	0.518339	-0.825242	-0.159472
H75	H	0.027830	-1.338054	-0.778973
H76	H	0.527830	-0.838054	-0.278973
H77	H	-0.014247	-1.129446	-0.000108
H78	H	0.485753	-0.629446	0.499892
H79	H	0.238135	-1.622171	-0.360975
H80	H	0.738135	-1.122171	0.139025
H81	H	0.238121	-1.622209	-0.639139
H82	H	0.738121	-1.122209	-0.139139
H83	H	0.033255	-1.345382	-0.361029
H84	H	0.533255	-0.845382	0.138971
