data_functionalizedCrystal
_audit_creation_method	'MofGen! by Chris Wilmer'
_symmetry_space_group_name_H-M	'P1'
_symmetry_Int_Tables_number	1
_symmetry_cell_setting	triclinic
loop_
_symmetry_equiv_pos_as_xyz
  x,y,z
_cell_length_a	19.121424
_cell_length_b	12.759399
_cell_length_c	12.759393
_cell_angle_alpha	90.030906
_cell_angle_beta	92.410897
_cell_angle_gamma	87.541192
loop_
_atom_site_label
_atom_site_type_symbol
_atom_site_fract_x
_atom_site_fract_y
_atom_site_fract_z
Zn1	Zn	1.073771	0.349641	-0.525776
Zn2	Zn	1.573771	0.849641	-0.025776
Zn3	Zn	1.073697	0.525361	-0.350100
Zn4	Zn	1.573697	1.025361	0.149900
Zn5	Zn	0.956316	0.357193	-0.357576
Zn6	Zn	1.456316	0.857193	0.142424
Zn7	Zn	0.956310	0.532780	-0.533197
Zn8	Zn	1.456310	1.032780	-0.033197
O9	O	1.015024	0.441244	-0.441662
O10	O	1.515024	0.941244	0.058338
O11	O	1.172043	0.366685	-0.496238
O12	O	1.672043	0.866685	0.003762
O13	O	1.058098	0.503109	-0.204072
O14	O	1.558098	1.003109	0.295928
O15	O	0.971930	0.209168	-0.379911
O16	O	1.471930	0.709168	0.120089
O17	O	1.171989	0.495786	-0.367169
O18	O	1.671989	0.995786	0.132831
O19	O	1.058224	0.203620	-0.503487
O20	O	1.558224	0.703620	-0.003487
O21	O	0.971859	0.379557	-0.209565
O22	O	1.471859	0.879557	0.290435
O23	O	0.858033	0.386750	-0.387107
O24	O	1.358033	0.886750	0.112893
O25	O	0.971920	0.508430	-0.679232
O26	O	1.471920	1.008430	-0.179232
O27	O	0.858029	0.515753	-0.516135
O28	O	1.358029	1.015753	-0.016135
O29	O	1.058218	0.373879	-0.673780
O30	O	1.558218	0.873879	-0.173780
O31	O	1.058092	0.673368	-0.374365
O32	O	1.558092	1.173368	0.125635
O33	O	0.971848	0.678819	-0.508886
O34	O	1.471848	1.178819	-0.008886
C35	C	0.832548	0.452877	-0.453238
C36	C	1.332548	0.952877	0.046762
C37	C	0.754484	0.457879	-0.458215
C38	C	1.254484	0.957879	0.041785
C39	C	0.312970	0.489510	-0.489813
C40	C	0.812970	0.989510	0.010187
C41	C	0.386320	0.484818	-0.485117
C42	C	0.886320	0.984818	0.014883
C43	C	0.422974	0.415199	-0.415702
C44	C	0.922974	0.915199	0.084298
C45	C	0.386275	0.350276	-0.350972
C46	C	0.886275	0.850276	0.149028
C47	C	0.312927	0.354974	-0.355664
C48	C	0.812927	0.854974	0.144336
C49	C	0.644437	0.397654	-0.398177
C50	C	1.144437	0.897654	0.101823
C51	C	0.717790	0.392958	-0.393492
C52	C	1.217790	0.892958	0.106508
C53	C	0.717830	0.527503	-0.527636
C54	C	1.217830	1.027503	-0.027636
C55	C	0.644480	0.532190	-0.532326
C56	C	1.144480	1.032190	-0.032326
C57	C	0.607787	0.467271	-0.467592
C58	C	1.107787	0.967271	0.032408
C59	C	0.497949	0.410399	-0.410903
C60	C	0.997949	0.910399	0.089097
C61	C	0.532814	0.472077	-0.472387
C62	C	1.032814	0.972077	0.027613
C63	C	1.014981	0.714214	-0.441641
C64	C	1.514981	1.214214	0.058359
C65	C	1.015026	0.830988	-0.441663
C66	C	1.515026	1.330988	0.058337
C67	C	1.015076	0.441140	-0.715692
C68	C	1.515076	0.941140	-0.215692
C69	C	1.015099	0.441095	-0.832468
C70	C	1.515099	0.941095	-0.332468
C71	C	1.198212	0.429566	-0.430042
C72	C	1.698212	0.929566	0.069958
C73	C	1.276276	0.424589	-0.425090
C74	C	1.776276	0.924589	0.074910
C75	C	1.015086	0.167206	-0.441705
C76	C	1.515086	0.667206	0.058295
C77	C	1.015113	0.050428	-0.441724
C78	C	1.515113	0.550428	0.058276
C79	C	1.059985	0.882973	-0.371691
C80	C	1.559985	1.382973	0.128309
C81	C	1.060030	0.992694	-0.371724
C82	C	1.560030	1.492694	0.128276
C83	C	0.970152	0.998435	-0.511703
C84	C	1.470152	1.498435	-0.011703
C85	C	0.970111	0.888715	-0.511675
C86	C	1.470111	1.388715	-0.011675
C87	C	1.060037	0.371023	-0.884492
C88	C	1.560037	0.871023	-0.384492
C89	C	1.060049	0.370977	-0.994216
C90	C	1.560049	0.870977	-0.494216
C91	C	0.970182	0.511084	-0.999881
C92	C	1.470182	1.011084	-0.499881
C93	C	0.970167	0.511124	-0.890159
C94	C	1.470167	1.011124	-0.390159
C95	C	1.015012	0.441269	-0.168696
C96	C	1.515012	0.941269	0.331304
C97	C	1.015125	0.441009	-0.051912
C98	C	1.515125	0.941009	0.448088
H99	H	0.747713	0.580357	-0.580338
H100	H	1.247713	1.080357	-0.080338
H101	H	1.096559	0.835974	-0.314685
H102	H	1.596559	1.335974	0.185315
O103	O	0.921698	1.060707	-0.587192
O104	O	1.421698	1.560707	-0.087192
H105	H	0.953128	1.108622	-0.638696
H106	H	1.453128	1.608622	-0.138696
H107	H	0.933567	0.568185	-0.847800
H108	H	1.433567	1.068185	-0.347800
H109	H	0.283132	0.546196	-0.546344
H110	H	0.783132	1.046196	-0.046344
O111	O	0.493311	0.547196	-0.547252
O112	O	0.993311	1.047196	-0.047252
H113	H	0.459919	0.502407	-0.602949
H114	H	0.959919	1.002407	-0.102949
H115	H	0.933501	0.846386	-0.568660
H116	H	1.433501	1.346386	-0.068660
O117	O	1.108491	0.295489	-0.822263
O118	O	1.608491	0.795489	-0.322263
H119	H	1.139737	0.246749	-0.876878
H120	H	1.639737	0.746749	-0.376878
O121	O	1.108516	1.048769	-0.296249
O122	O	1.608516	1.548769	0.203751
H123	H	1.139736	0.990191	-0.247559
H124	H	1.639736	1.490191	0.252441
O125	O	1.108522	0.295406	-1.050332
O126	O	1.608522	0.795406	-0.550332
H127	H	1.139765	0.246727	-0.991778
H128	H	1.639765	0.746727	-0.491778
O129	O	0.921722	0.586616	-1.062103
O130	O	1.421722	1.086616	-0.562103
H131	H	0.929284	0.574823	-1.147140
H132	H	1.429284	1.074823	-0.647140
O133	O	0.604868	0.607291	-0.607098
O134	O	1.104868	1.107291	-0.107098
H135	H	0.571439	0.662735	-0.561994
H136	H	1.071439	1.162735	-0.061994
O137	O	0.425899	0.554830	-0.554934
O138	O	0.925899	1.054830	-0.054934
H139	H	0.388089	0.604017	-0.604002
H140	H	0.888089	1.104017	-0.104002
H141	H	0.614570	0.344796	-0.345462
H142	H	1.114570	0.844796	0.154538
O143	O	0.757329	0.317872	-0.318615
O144	O	1.257329	0.817872	0.181385
H145	H	0.719492	0.273525	-0.274381
H146	H	1.219492	0.773525	0.225619
H147	H	0.283051	0.302105	-0.302962
H148	H	0.783051	0.802105	0.197038
O149	O	0.425801	0.275186	-0.276096
O150	O	0.925801	0.775186	0.223904
H151	H	0.459238	0.219640	-0.321073
H152	H	0.959238	0.719640	0.178927
O153	O	0.537481	0.335305	-0.336037
O154	O	1.037481	0.835305	0.163963
H155	H	0.570921	0.279770	-0.381022
H156	H	1.070921	0.779770	0.118978
