data_functionalizedCrystal
_audit_creation_method	'MofGen! by Chris Wilmer'
_symmetry_space_group_name_H-M	'P1'
_symmetry_Int_Tables_number	1
_symmetry_cell_setting	triclinic
loop_
_symmetry_equiv_pos_as_xyz
  x,y,z
_cell_length_a	8.497374
_cell_length_b	12.759401
_cell_length_c	12.759393
_cell_angle_alpha	89.979062
_cell_angle_beta	89.982764
_cell_angle_gamma	90.002617
loop_
_atom_site_label
_atom_site_type_symbol
_atom_site_fract_x
_atom_site_fract_y
_atom_site_fract_z
Zn1	Zn	0.627915	-1.606366	0.594117
Zn2	Zn	0.891765	-1.606299	0.418478
Zn3	Zn	0.627999	-1.430664	0.418452
Zn4	Zn	0.891654	-1.430698	0.594115
O5	O	0.759833	-1.518507	0.506290
O6	O	0.662927	-1.753378	0.570830
O7	O	0.856857	-1.582958	0.271453
O8	O	0.407226	-1.453986	0.441745
O9	O	0.856775	-1.753328	0.441788
O10	O	0.407164	-1.583073	0.570805
O11	O	0.663070	-1.453921	0.271434
O12	O	0.662963	-1.283648	0.441743
O13	O	0.856588	-1.454043	0.741136
O14	O	0.856669	-1.283673	0.570801
O15	O	0.662820	-1.583105	0.741138
O16	O	1.112512	-1.582991	0.441786
O17	O	1.112431	-1.453978	0.570826
C18	C	0.759814	-1.245539	0.506270
C19	C	0.759844	-1.128763	0.506286
C20	C	0.759682	-1.518585	0.780324
C21	C	0.759617	-1.518619	0.897101
C22	C	0.759854	-1.792540	0.506312
C23	C	0.759863	-1.909317	0.506321
C24	C	1.169713	-1.518494	0.506306
C25	C	1.348357	-1.518521	0.506288
C26	C	0.759870	-1.518489	0.233323
C27	C	0.759491	-1.518659	0.116547
C28	C	0.860860	-1.073941	0.573381
C29	C	0.860866	-0.964217	0.573402
C30	C	0.658835	-0.964146	0.439223
C31	C	0.658822	-1.073868	0.439208
C32	C	0.658706	-1.585826	0.951965
C33	C	0.658638	-1.585844	1.061689
C34	C	0.860406	-1.451444	1.061675
C35	C	0.860465	-1.451421	0.951953
H36	H	0.943114	-1.118633	0.628002
F37	F	0.551293	-1.132216	0.367798
H38	H	0.576590	-0.919437	0.384610
F39	F	0.551372	-1.657341	0.893591
F40	F	0.551245	-1.657383	1.120075
F41	F	0.967735	-1.379935	1.120061
H42	H	0.942638	-1.396685	0.907281
H43	H	0.943122	-0.919586	0.628039
