data_functionalizedCrystal
_audit_creation_method	'MofGen! by Chris Wilmer'
_symmetry_space_group_name_H-M	'P1'
_symmetry_Int_Tables_number	1
_symmetry_cell_setting	triclinic
loop_
_symmetry_equiv_pos_as_xyz
  x,y,z
_cell_length_a	21.295418
_cell_length_b	16.625546
_cell_length_c	16.625539
_cell_angle_alpha	90.030397
_cell_angle_beta	89.960218
_cell_angle_gamma	89.961719
loop_
_atom_site_label
_atom_site_type_symbol
_atom_site_fract_x
_atom_site_fract_y
_atom_site_fract_z
Zn1	Zn	0.962366	0.320660	-0.456311
Zn2	Zn	1.212366	0.570660	-0.206311
Zn3	Zn	1.462366	0.820660	0.043689
Zn4	Zn	1.712366	1.070660	0.293689
Zn5	Zn	0.962291	0.455503	-0.321473
Zn6	Zn	1.212291	0.705503	-0.071473
Zn7	Zn	1.462291	0.955503	0.178527
Zn8	Zn	1.712291	1.205503	0.428527
Zn9	Zn	0.857097	0.320725	-0.321446
Zn10	Zn	1.107097	0.570725	-0.071446
Zn11	Zn	1.357097	0.820725	0.178554
Zn12	Zn	1.607097	1.070725	0.428554
Zn13	Zn	0.857074	0.455491	-0.456218
Zn14	Zn	1.107074	0.705491	-0.206218
Zn15	Zn	1.357074	0.955491	0.043782
Zn16	Zn	1.607074	1.205491	0.293782
O17	O	0.909707	0.388095	-0.388862
O18	O	1.159707	0.638095	-0.138862
O19	O	1.409707	0.888095	0.111138
O20	O	1.659707	1.138095	0.361138
O21	O	1.050446	0.338524	-0.438475
O22	O	1.300446	0.588524	-0.188475
O23	O	1.550446	0.838524	0.061525
O24	O	1.800446	1.088524	0.311525
O25	O	0.948315	0.437657	-0.208637
O26	O	1.198315	0.687657	0.041363
O27	O	1.448315	0.937657	0.291363
O28	O	1.698315	1.187657	0.541363
O29	O	0.871102	0.207884	-0.339364
O30	O	1.121102	0.457884	-0.089364
O31	O	1.371102	0.707884	0.160636
O32	O	1.621102	0.957884	0.410636
O33	O	1.050390	0.437593	-0.339410
O34	O	1.300390	0.687593	-0.089410
O35	O	1.550390	0.937593	0.160590
O36	O	1.800390	1.187593	0.410590
O37	O	0.948443	0.207836	-0.438449
O38	O	1.198443	0.457836	-0.188449
O39	O	1.448443	0.707836	0.061551
O40	O	1.698443	0.957836	0.311551
O41	O	0.871029	0.338636	-0.208618
O42	O	1.121029	0.588636	0.041382
O43	O	1.371029	0.838636	0.291382
O44	O	1.621029	1.088636	0.541382
O45	O	0.769004	0.338625	-0.339274
O46	O	1.019004	0.588625	-0.089274
O47	O	1.269004	0.838625	0.160726
O48	O	1.519004	1.088625	0.410726
O49	O	0.871063	0.437573	-0.569063
O50	O	1.121063	0.687573	-0.319063
O51	O	1.371063	0.937573	-0.069063
O52	O	1.621063	1.187573	0.180937
O53	O	0.768987	0.437637	-0.438290
O54	O	1.018987	0.687637	-0.188290
O55	O	1.268987	0.937637	0.061710
O56	O	1.518987	1.187637	0.311710
O57	O	0.948421	0.338513	-0.569131
O58	O	1.198421	0.588513	-0.319131
O59	O	1.448421	0.838513	-0.069131
O60	O	1.698421	1.088513	0.180869
O61	O	0.948292	0.568334	-0.339320
O62	O	1.198292	0.818334	-0.089320
O63	O	1.448292	1.068334	0.160680
O64	O	1.698292	1.318334	0.410680
O65	O	0.870990	0.568325	-0.438316
O66	O	1.120990	0.818325	-0.188316
O67	O	1.370990	1.068325	0.061684
O68	O	1.620990	1.318325	0.311684
C69	C	0.746155	0.388137	-0.388769
C70	C	0.996155	0.638137	-0.138769
C71	C	1.246155	0.888137	0.111231
C72	C	1.496155	1.138137	0.361231
C73	C	0.676187	0.388175	-0.388749
C74	C	0.926187	0.638175	-0.138749
C75	C	1.176187	0.888175	0.111251
C76	C	1.426187	1.138175	0.361251
C77	C	0.909647	0.597586	-0.388828
C78	C	1.159647	0.847586	-0.138828
C79	C	1.409647	1.097586	0.111172
C80	C	1.659647	1.347586	0.361172
C81	C	0.909679	0.687207	-0.388841
C82	C	1.159679	0.937207	-0.138841
C83	C	1.409679	1.187207	0.111159
C84	C	1.659679	1.437207	0.361159
C85	C	0.909748	0.388035	-0.599171
C86	C	1.159748	0.638035	-0.349171
C87	C	1.409748	0.888035	-0.099171
C88	C	1.659748	1.138035	0.150829
C89	C	0.909765	0.388009	-0.688792
C90	C	1.159765	0.638009	-0.438792
C91	C	1.409765	0.888009	-0.188792
C92	C	1.659765	1.138009	0.061208
C93	C	0.643328	0.439799	-0.440230
C94	C	0.893328	0.689799	-0.190230
C95	C	1.143328	0.939799	0.059770
C96	C	1.393328	1.189799	0.309770
C97	C	0.577586	0.439779	-0.440266
C98	C	0.827586	0.689779	-0.190266
C99	C	1.077586	0.939779	0.059734
C100	C	1.327586	1.189779	0.309734
C101	C	0.544705	0.388144	-0.388807
C102	C	0.794705	0.638144	-0.138807
C103	C	1.044705	0.888144	0.111193
C104	C	1.294705	1.138144	0.361193
C105	C	0.577572	0.336510	-0.337323
C106	C	0.827572	0.586510	-0.087323
C107	C	1.077572	0.836510	0.162677
C108	C	1.327572	1.086510	0.412677
C109	C	0.643313	0.336525	-0.337294
C110	C	0.893313	0.586525	-0.087294
C111	C	1.143313	0.836525	0.162706
C112	C	1.393313	1.086525	0.412706
N113	N	0.441432	0.381847	-0.318284
N114	N	0.691432	0.631847	-0.068284
N115	N	0.941432	0.881847	0.181716
N116	N	1.191432	1.131847	0.431716
N117	N	0.378980	0.381837	-0.318314
N118	N	0.628980	0.631837	-0.068314
N119	N	0.878980	0.881837	0.181686
N120	N	1.128980	1.131837	0.431686
C121	C	0.346630	0.388092	-0.388892
C122	C	0.596630	0.638092	-0.138892
C123	C	0.846630	0.888092	0.111108
C124	C	1.096630	1.138092	0.361108
N125	N	0.379090	0.394374	-0.459441
N126	N	0.629090	0.644374	-0.209441
N127	N	0.879090	0.894374	0.040559
N128	N	1.129090	1.144374	0.290559
N129	N	0.441548	0.394388	-0.459411
N130	N	0.691548	0.644388	-0.209411
N131	N	0.941548	0.894388	0.040589
N132	N	1.191548	1.144388	0.290589
C133	C	0.473419	0.388120	-0.388833
C134	C	0.723419	0.638120	-0.138833
C135	C	0.973419	0.888120	0.111167
C136	C	1.223419	1.138120	0.361167
C137	C	0.242485	0.439697	-0.440417
C138	C	0.492485	0.689697	-0.190417
C139	C	0.742485	0.939697	0.059583
C140	C	0.992485	1.189697	0.309583
C141	C	0.176742	0.439672	-0.440454
C142	C	0.426742	0.689672	-0.190454
C143	C	0.676742	0.939672	0.059546
C144	C	0.926742	1.189672	0.309546
C145	C	0.176729	0.336407	-0.337504
C146	C	0.426729	0.586407	-0.087504
C147	C	0.676729	0.836407	0.162496
C148	C	0.926729	1.086407	0.412496
C149	C	0.242471	0.336428	-0.337474
C150	C	0.492471	0.586428	-0.087474
C151	C	0.742471	0.836428	0.162526
C152	C	0.992471	1.086428	0.412526
C153	C	0.275346	0.388078	-0.388929
C154	C	0.525346	0.638078	-0.138929
C155	C	0.775346	0.888078	0.111071
C156	C	1.025346	1.138078	0.361071
C157	C	1.073897	0.388053	-0.388956
C158	C	1.323897	0.638053	-0.138956
C159	C	1.573897	0.888053	0.111044
C160	C	1.823897	1.138053	0.361044
C161	C	1.143865	0.388035	-0.388996
C162	C	1.393865	0.638035	-0.138996
C163	C	1.643865	0.888035	0.111004
C164	C	1.893865	1.138035	0.361004
C165	C	0.909784	0.177786	-0.388914
C166	C	1.159784	0.427786	-0.138914
C167	C	1.409784	0.677786	0.111086
C168	C	1.659784	0.927786	0.361086
C169	C	0.909817	0.088165	-0.388936
C170	C	1.159817	0.338165	-0.138936
C171	C	1.409817	0.588165	0.111064
C172	C	1.659817	0.838165	0.361064
C173	C	0.909789	1.015382	-0.388925
C174	C	1.159789	1.265382	-0.138925
C175	C	1.409789	1.515382	0.111075
C176	C	1.659789	1.765382	0.361075
C177	C	0.909757	0.924074	-0.388904
C178	C	1.159757	1.174074	-0.138904
C179	C	1.409757	1.424074	0.111096
C180	C	1.659757	1.674074	0.361096
C181	C	0.909734	0.851297	-0.388883
C182	C	1.159734	1.101297	-0.138883
C183	C	1.409734	1.351297	0.111117
C184	C	1.659734	1.601297	0.361117
C185	C	0.909702	0.759983	-0.388862
C186	C	1.159702	1.009983	-0.138862
C187	C	1.409702	1.259983	0.111138
C188	C	1.659702	1.509983	0.361138
C189	C	0.909794	0.387919	-1.016968
C190	C	1.159794	0.637919	-0.766968
C191	C	1.409794	0.887919	-0.516968
C192	C	1.659794	1.137919	-0.266968
C193	C	0.909785	0.387947	-0.925660
C194	C	1.159785	0.637947	-0.675660
C195	C	1.409785	0.887947	-0.425660
C196	C	1.659785	1.137947	-0.175660
C197	C	0.909780	0.387965	-0.852883
C198	C	1.159780	0.637965	-0.602883
C199	C	1.409780	0.887965	-0.352883
C200	C	1.659780	1.137965	-0.102883
C201	C	0.909770	0.387991	-0.761569
C202	C	1.159770	0.637991	-0.511569
C203	C	1.409770	0.887991	-0.261569
C204	C	1.659770	1.137991	-0.011569
C205	C	0.909702	0.388096	-0.179371
C206	C	1.159702	0.638096	0.070629
C207	C	1.409702	0.888096	0.320629
C208	C	1.659702	1.138096	0.570629
C209	C	0.909807	0.387895	-0.089751
C210	C	1.159807	0.637895	0.160249
C211	C	1.409807	0.887895	0.410249
C212	C	1.659807	1.137895	0.660249
H213	H	0.670090	0.481855	-0.482130
H214	H	0.920090	0.731855	-0.232130
H215	H	1.170090	0.981855	0.017870
H216	H	1.420090	1.231855	0.267870
N217	N	0.678758	0.280837	-0.281772
N218	N	0.928758	0.530837	-0.031772
N219	N	1.178758	0.780837	0.218228
N220	N	1.428758	1.030837	0.468228
H221	H	0.647955	0.248118	-0.249181
H222	H	0.897955	0.498118	0.000819
H223	H	1.147955	0.748118	0.250819
H224	H	1.397955	0.998118	0.500819
H225	H	0.705983	0.313613	-0.244384
H226	H	0.955983	0.563613	0.005616
H227	H	1.205983	0.813613	0.255616
H228	H	1.455983	1.063613	0.505616
N229	N	0.542134	0.495459	-0.495795
N230	N	0.792134	0.745459	-0.245795
N231	N	1.042134	0.995459	0.004205
N232	N	1.292134	1.245459	0.254205
H233	H	0.572936	0.528179	-0.528387
H234	H	0.822936	0.778179	-0.278387
H235	H	1.072936	1.028179	-0.028387
H236	H	1.322936	1.278179	0.221613
H237	H	0.514807	0.532721	-0.462912
H238	H	0.764807	0.782721	-0.212912
H239	H	1.014807	1.032721	0.037088
H240	H	1.264807	1.282721	0.287088
H241	H	0.269226	0.294394	-0.295548
H242	H	0.519226	0.544394	-0.045548
H243	H	0.769226	0.794394	0.204452
H244	H	1.019226	1.044394	0.454452
N245	N	0.277949	0.495398	-0.495913
N246	N	0.527949	0.745398	-0.245913
N247	N	0.777949	0.995398	0.004087
N248	N	1.027949	1.245398	0.254087
H249	H	0.247154	0.528096	-0.528538
H250	H	0.497154	0.778096	-0.278538
H251	H	0.747154	1.028096	-0.028538
H252	H	0.997154	1.278096	0.221462
H253	H	0.305280	0.462632	-0.533272
H254	H	0.555280	0.712632	-0.283272
H255	H	0.805280	0.962632	-0.033272
H256	H	1.055280	1.212632	0.216728
N257	N	0.542112	0.280826	-0.281810
N258	N	0.792112	0.530826	-0.031810
N259	N	1.042112	0.780826	0.218190
N260	N	1.292112	1.030826	0.468190
H261	H	0.495478	0.288655	-0.289633
H262	H	0.745478	0.538655	-0.039633
H263	H	0.995478	0.788655	0.210367
H264	H	1.245478	1.038655	0.460367
H265	H	0.553555	0.293317	-0.224201
H266	H	0.803555	0.543317	0.025799
H267	H	1.053555	0.793317	0.275799
H268	H	1.303555	1.043317	0.525799
H269	H	0.149989	0.481708	-0.482381
H270	H	0.399989	0.731708	-0.232381
H271	H	0.649989	0.981708	0.017619
H272	H	0.899989	1.231708	0.267619
H273	H	0.149958	0.294360	-0.295609
H274	H	0.399958	0.544360	-0.045609
H275	H	0.649958	0.794360	0.204391
H276	H	0.899958	1.044360	0.454391
