data_functionalizedCrystal
_audit_creation_method	'MofGen! by Chris Wilmer'
_symmetry_space_group_name_H-M	'P1'
_symmetry_Int_Tables_number	1
_symmetry_cell_setting	triclinic
loop_
_symmetry_equiv_pos_as_xyz
  x,y,z
_cell_length_a	14.519731
_cell_length_b	15.995292
_cell_length_c	13.596369
_cell_angle_alpha	89.997204
_cell_angle_beta	89.994584
_cell_angle_gamma	83.578735
loop_
_atom_site_label
_atom_site_type_symbol
_atom_site_fract_x
_atom_site_fract_y
_atom_site_fract_z
O1	O	1.223632	0.109848	-0.081786
O2	O	1.723632	0.609848	0.418214
O3	O	0.955131	0.122755	-0.081787
O4	O	1.455131	0.622755	0.418213
O5	O	1.096749	-0.005578	-0.081788
O6	O	1.596749	0.494422	0.418212
O7	O	1.082014	0.238181	-0.081785
O8	O	1.582014	0.738181	0.418215
O9	O	1.096735	-0.005585	0.081795
O10	O	1.596735	0.494415	0.581795
O11	O	0.955117	0.122748	0.081796
O12	O	1.455117	0.622748	0.581796
O13	O	1.223618	0.109841	0.081797
O14	O	1.723618	0.609841	0.581797
Zn15	Zn	1.089365	0.116294	0.107769
Zn16	Zn	1.589365	0.616294	0.607769
Zn17	Zn	1.089383	0.116303	-0.107759
Zn18	Zn	1.589383	0.616303	0.392241
O19	O	1.082000	0.238174	0.081798
O20	O	1.582000	0.738174	0.581798
C21	C	0.920766	0.122147	0.000004
C22	C	1.420766	0.622147	0.500004
C23	C	0.818389	0.120335	0.000004
C24	C	1.318389	0.620335	0.500004
C25	C	0.735248	0.118862	-0.000000
C26	C	1.235248	0.618862	0.500000
C27	C	0.630943	0.117022	-0.000001
C28	C	1.130943	0.617022	0.499999
C29	C	0.547807	0.115562	-0.000001
C30	C	1.047807	0.615562	0.499999
C31	C	0.443495	0.113722	-0.000003
C32	C	0.943495	0.613722	0.499997
C33	C	1.096142	-0.036778	0.000001
C34	C	1.596142	0.463222	0.500001
C35	C	1.094344	-0.129734	-0.000007
C36	C	1.594344	0.370266	0.499993
C37	C	1.087734	-0.467482	0.000002
C38	C	1.587734	0.032518	0.500002
C39	C	1.189950	-0.444010	0.000368
C40	C	1.689950	0.055990	0.500368
C41	C	1.191893	-0.347331	-0.000004
C42	C	1.691893	0.152669	0.499996
C43	C	1.091014	-0.299921	-0.000001
C44	C	1.591014	0.200079	0.499999
C45	C	1.039919	-0.329099	-0.093412
C46	C	1.539919	0.170901	0.406588
C47	C	1.038688	-0.425891	-0.093487
C48	C	1.538688	0.074109	0.406513
C49	C	1.036585	-0.425759	0.092537
C50	C	1.536585	0.074241	0.592537
C51	C	1.040373	-0.329261	0.093768
C52	C	1.540373	0.170739	0.593768
C53	C	1.092862	-0.205222	-0.000007
C54	C	1.592862	0.294778	0.499993
C55	C	1.085883	-0.562181	0.000001
C56	C	1.585883	-0.062181	0.500001
C57	C	1.257983	0.110449	0.000003
C58	C	1.757983	0.610449	0.500003
C59	C	1.360359	0.112261	-0.000003
C60	C	1.860359	0.612261	0.499997
C61	C	1.082606	0.269374	0.000007
C62	C	1.582606	0.769374	0.500007
C63	C	1.084404	0.362330	0.000008
C64	C	1.584404	0.862330	0.500008
N65	N	1.089359	0.116287	0.254860
N66	N	1.589359	0.616287	0.754860
N67	N	1.089397	0.116303	-0.254851
N68	N	1.589397	0.616303	0.245149
C69	C	1.089382	0.116303	0.656151
C70	C	1.589382	0.616303	1.156151
C71	C	1.089373	0.116302	0.544500
C72	C	1.589373	0.616302	1.044500
C73	C	1.089371	0.116296	0.455509
C74	C	1.589371	0.616296	0.955509
C75	C	1.089361	0.116293	0.343851
C76	C	1.589361	0.616293	0.843851
H77	H	1.231910	-0.328246	0.066955
H78	H	1.731910	0.171754	0.566955
H79	H	1.077578	-0.310640	0.162873
H80	H	1.577578	0.189360	0.662873
H81	H	1.232158	-0.328861	-0.067082
H82	H	1.732158	0.171139	0.432918
H83	H	0.963743	-0.440559	-0.097717
H84	H	1.463743	0.059441	0.402283
H85	H	0.966741	-0.296407	0.099412
H86	H	1.466741	0.203593	0.599412
H87	H	1.229343	-0.471948	0.067357
H88	H	1.729343	0.028052	0.567357
H89	H	1.074086	-0.452649	-0.163315
H90	H	1.574086	0.047351	0.336685
H91	H	0.965686	-0.297347	-0.096883
H92	H	1.465686	0.202653	0.403117
H93	H	1.229136	-0.472964	-0.066245
H94	H	1.729136	0.027036	0.433755
H95	H	1.075412	-0.308980	-0.162930
H96	H	1.575412	0.191020	0.337070
H97	H	1.068769	-0.453800	0.163343
H98	H	1.568769	0.046200	0.663343
H99	H	0.961346	-0.439868	0.093169
H100	H	1.461346	0.060132	0.593169
