data_functionalizedCrystal
_audit_creation_method	'MofGen! by Chris Wilmer'
_symmetry_space_group_name_H-M	'P1'
_symmetry_Int_Tables_number	1
_symmetry_cell_setting	triclinic
loop_
_symmetry_equiv_pos_as_xyz
  x,y,z
_cell_length_a	18.215405
_cell_length_b	11.169417
_cell_length_c	11.169409
_cell_angle_alpha	90.021649
_cell_angle_beta	89.960202
_cell_angle_gamma	89.976893
loop_
_atom_site_label
_atom_site_type_symbol
_atom_site_fract_x
_atom_site_fract_y
_atom_site_fract_z
Zn1	Zn	-0.292960	-1.834841	-0.678539
Zn2	Zn	-0.042960	-1.584841	-0.428539
Zn3	Zn	0.207040	-1.334841	-0.178539
Zn4	Zn	0.457040	-1.084841	0.071461
Zn5	Zn	-0.416051	-1.834679	-0.477830
Zn6	Zn	-0.166051	-1.584679	-0.227830
Zn7	Zn	0.083949	-1.334679	0.022170
Zn8	Zn	0.333949	-1.084679	0.272170
Zn9	Zn	-0.292999	-1.634127	-0.477867
Zn10	Zn	-0.042999	-1.384127	-0.227867
Zn11	Zn	0.207001	-1.134127	0.022133
Zn12	Zn	0.457001	-0.884127	0.272133
Zn13	Zn	-0.415985	-1.634083	-0.678468
Zn14	Zn	-0.165985	-1.384083	-0.428468
Zn15	Zn	0.084015	-1.134083	-0.178468
Zn16	Zn	0.334015	-0.884083	0.071532
O17	O	-0.354499	-1.734433	-0.578176
O18	O	-0.104499	-1.484433	-0.328176
O19	O	0.145501	-1.234433	-0.078176
O20	O	0.395501	-0.984433	0.171824
O21	O	-0.309299	-2.002769	-0.651928
O22	O	-0.059299	-1.752769	-0.401928
O23	O	0.190701	-1.502769	-0.151928
O24	O	0.440701	-1.252769	0.098072
O25	O	-0.399771	-1.808026	-0.309885
O26	O	-0.149771	-1.558026	-0.059885
O27	O	0.100229	-1.308026	0.190115
O28	O	0.350229	-1.058026	0.440115
O29	O	-0.190009	-1.660838	-0.504532
O30	O	0.059991	-1.410838	-0.254532
O31	O	0.309991	-1.160838	-0.004532
O32	O	0.559991	-0.910838	0.245468
O33	O	-0.399733	-2.002651	-0.504468
O34	O	-0.149733	-1.752651	-0.254468
O35	O	0.100267	-1.502651	-0.004468
O36	O	0.350267	-1.252651	0.245532
O37	O	-0.189981	-1.808302	-0.651964
O38	O	0.060019	-1.558302	-0.401964
O39	O	0.310019	-1.308302	-0.151964
O40	O	0.560019	-1.058302	0.098036
O41	O	-0.309366	-1.660681	-0.309912
O42	O	-0.059366	-1.410681	-0.059912
O43	O	0.190634	-1.160681	0.190088
O44	O	0.440634	-0.910681	0.440088
O45	O	-0.309302	-1.466171	-0.504463
O46	O	-0.059302	-1.216171	-0.254463
O47	O	0.190698	-0.966171	-0.004463
O48	O	0.440698	-0.716171	0.245537
O49	O	-0.399622	-1.660764	-0.846427
O50	O	-0.149622	-1.410764	-0.596427
O51	O	0.100378	-1.160764	-0.346427
O52	O	0.350378	-0.910764	-0.096427
O53	O	-0.399660	-1.466140	-0.651844
O54	O	-0.149660	-1.216140	-0.401844
O55	O	0.100340	-0.966140	-0.151844
O56	O	0.350340	-0.716140	0.098156
O57	O	-0.309235	-1.808260	-0.846479
O58	O	-0.059235	-1.558260	-0.596479
O59	O	0.190765	-1.308260	-0.346479
O60	O	0.440765	-1.058260	-0.096479
O61	O	-0.519026	-1.807984	-0.504400
O62	O	-0.269026	-1.557984	-0.254400
O63	O	-0.019026	-1.307984	-0.004400
O64	O	0.230974	-1.057984	0.245600
O65	O	-0.518978	-1.660607	-0.651808
O66	O	-0.268978	-1.410607	-0.401808
O67	O	-0.018978	-1.160607	-0.151808
O68	O	0.231022	-0.910607	0.098192
C69	C	-0.354479	-1.422608	-0.578151
C70	C	-0.104479	-1.172608	-0.328151
C71	C	0.145521	-0.922608	-0.078151
C72	C	0.395521	-0.672608	0.171849
C73	C	-0.354488	-1.289208	-0.578168
C74	C	-0.104488	-1.039208	-0.328168
C75	C	0.145512	-0.789208	-0.078168
C76	C	0.395512	-0.539208	0.171832
C77	C	-0.545705	-1.734306	-0.578118
C78	C	-0.295705	-1.484306	-0.328118
C79	C	-0.045705	-1.234306	-0.078118
C80	C	0.204295	-0.984306	0.171882
C81	C	-0.627504	-1.734362	-0.578134
C82	C	-0.377504	-1.484362	-0.328134
C83	C	-0.127504	-1.234362	-0.078134
C84	C	0.122496	-0.984362	0.171866
C85	C	-0.815698	-1.811281	-0.501519
C86	C	-0.565698	-1.561281	-0.251519
C87	C	-0.315698	-1.311281	-0.001519
C88	C	-0.065698	-1.061281	0.248481
C89	C	-0.892557	-1.811335	-0.501548
C90	C	-0.642557	-1.561335	-0.251548
C91	C	-0.392557	-1.311335	-0.001548
C92	C	-0.142557	-1.061335	0.248452
C93	C	-0.892547	-1.657738	-0.654919
C94	C	-0.642547	-1.407738	-0.404919
C95	C	-0.392547	-1.157738	-0.154919
C96	C	-0.142547	-0.907738	0.095081
C97	C	-0.815689	-1.657691	-0.654895
C98	C	-0.565689	-1.407691	-0.404895
C99	C	-0.315689	-1.157691	-0.154895
C100	C	-0.065689	-0.907691	0.095105
C101	C	-0.777267	-1.734461	-0.578188
C102	C	-0.527267	-1.484461	-0.328188
C103	C	-0.277267	-1.234461	-0.078188
C104	C	-0.027267	-0.984461	0.171812
C105	C	-0.930983	-1.734561	-0.578241
C106	C	-0.680983	-1.484561	-0.328241
C107	C	-0.430983	-1.234561	-0.078241
C108	C	-0.180983	-0.984561	0.171759
C109	C	-1.014317	-1.734619	-0.578273
C110	C	-0.764317	-1.484619	-0.328273
C111	C	-0.514317	-1.234619	-0.078273
C112	C	-0.264317	-0.984619	0.171727
C113	C	-0.693928	-1.734405	-0.578157
C114	C	-0.443928	-1.484405	-0.328157
C115	C	-0.193928	-1.234405	-0.078157
C116	C	0.056072	-0.984405	0.171843
C117	C	-0.162546	-1.734593	-0.578260
C118	C	0.087454	-1.484593	-0.328260
C119	C	0.337454	-1.234593	-0.078260
C120	C	0.587454	-0.984593	0.171740
C121	C	-0.080747	-1.734661	-0.578296
C122	C	0.169253	-1.484661	-0.328296
C123	C	0.419253	-1.234661	-0.078296
C124	C	0.669253	-0.984661	0.171704
C125	C	-0.354417	-1.734525	-0.891218
C126	C	-0.104417	-1.484525	-0.641218
C127	C	0.145583	-1.234525	-0.391218
C128	C	0.395583	-0.984525	-0.141218
C129	C	-0.354382	-1.734564	-1.024619
C130	C	-0.104382	-1.484564	-0.774619
C131	C	0.145618	-1.234564	-0.524619
C132	C	0.395618	-0.984564	-0.274619
C133	C	-0.354512	-1.047475	-0.578194
C134	C	-0.104512	-0.797475	-0.328194
C135	C	0.145488	-0.547475	-0.078194
C136	C	0.395488	-0.297475	0.171806
C137	C	-0.354500	-1.180875	-0.578181
C138	C	-0.104500	-0.930875	-0.328181
C139	C	0.145500	-0.680875	-0.078181
C140	C	0.395500	-0.430875	0.171819
C141	C	-0.354527	-1.734410	-0.266351
C142	C	-0.104527	-1.484410	-0.016351
C143	C	0.145473	-1.234410	0.233649
C144	C	0.395473	-0.984410	0.483649
C145	C	-0.354354	-1.734603	-0.132952
C146	C	-0.104354	-1.484603	0.117048
C147	C	0.145646	-1.234603	0.367048
C148	C	0.395646	-0.984603	0.617048
H149	H	-0.784417	-1.873793	-0.439062
H150	H	-0.534417	-1.623793	-0.189062
H151	H	-0.284417	-1.373793	0.060938
H152	H	-0.034417	-1.123793	0.310938
H153	H	-0.923840	-1.595233	-0.717368
H154	H	-0.673840	-1.345233	-0.467368
H155	H	-0.423840	-1.095233	-0.217368
H156	H	-0.173840	-0.845233	0.032632
H157	H	-0.784397	-1.595135	-0.717334
H158	H	-0.534397	-1.345135	-0.467334
H159	H	-0.284397	-1.095135	-0.217334
H160	H	-0.034397	-0.845135	0.032666
H161	H	-0.923844	-1.873891	-0.439119
H162	H	-0.673844	-1.623891	-0.189119
H163	H	-0.423844	-1.373891	0.060881
H164	H	-0.173844	-1.123891	0.310881
