data_functionalizedCrystal
_audit_creation_method	'MofGen! by Chris Wilmer'
_symmetry_space_group_name_H-M	'P1'
_symmetry_Int_Tables_number	1
_symmetry_cell_setting	triclinic
loop_
_symmetry_equiv_pos_as_xyz
  x,y,z
_cell_length_a	17.699097
_cell_length_b	27.731996
_cell_length_c	16.176319
_cell_angle_alpha	90.009417
_cell_angle_beta	90.009574
_cell_angle_gamma	82.954908
loop_
_atom_site_label
_atom_site_type_symbol
_atom_site_fract_x
_atom_site_fract_y
_atom_site_fract_z
O1	O	1.003514	0.061157	0.068826
O2	O	1.503514	0.561157	0.568826
O3	O	0.783065	0.069103	0.068814
O4	O	1.283065	0.569103	0.568814
O5	O	0.900157	-0.005244	0.068803
O6	O	1.400157	0.494756	0.568803
O7	O	0.886422	0.135504	0.068838
O8	O	1.386422	0.635504	0.568838
O9	O	0.900143	-0.005244	-0.068691
O10	O	1.400143	0.494756	0.431309
O11	O	0.783051	0.069103	-0.068679
O12	O	1.283051	0.569103	0.431321
O13	O	1.003501	0.061157	-0.068667
O14	O	1.503501	0.561157	0.431333
Cu15	Cu	0.893275	0.065130	-0.081227
Cu16	Cu	1.393275	0.565130	0.418773
Cu17	Cu	0.893291	0.065130	0.081374
Cu18	Cu	1.393291	0.565130	0.581374
O19	O	0.886409	0.135503	-0.068656
O20	O	1.386409	0.635503	0.431344
C21	C	0.754864	0.068817	0.000066
C22	C	1.254864	0.568817	0.500066
C23	C	0.670854	0.067960	0.000060
C24	C	1.170854	0.567960	0.500060
C25	C	0.155191	0.062704	0.075040
C26	C	0.655191	0.562704	0.575040
C27	C	0.234128	0.063506	0.075036
C28	C	0.734128	0.563506	0.575036
C29	C	0.273583	0.063908	0.000085
C30	C	0.773583	0.563908	0.500085
C31	C	0.234098	0.063503	-0.074867
C32	C	0.734098	0.563503	0.425133
C33	C	0.155163	0.062697	-0.074862
C34	C	0.655163	0.562697	0.425138
C35	C	0.552432	0.066752	-0.074888
C36	C	1.052432	0.566752	0.425112
C37	C	0.631372	0.067559	-0.074887
C38	C	1.131372	0.567559	0.425113
C39	C	0.631397	0.067561	0.075010
C40	C	1.131397	0.567561	0.575010
C41	C	0.552462	0.066755	0.075015
C42	C	1.052462	0.566755	0.575015
C43	C	0.512985	0.066347	0.000064
C44	C	1.012985	0.566347	0.500064
C45	C	0.427393	0.065476	0.000069
C46	C	0.927393	0.565476	0.500069
C47	C	0.359173	0.064782	0.000079
C48	C	0.859173	0.564782	0.500079
C49	C	0.899868	-0.023252	0.000053
C50	C	1.399868	0.476748	0.500053
C51	C	0.899018	-0.076912	0.000045
C52	C	1.399018	0.423088	0.500045
C53	C	0.893679	-0.409647	0.075032
C54	C	1.393679	0.090353	0.575032
C55	C	0.890452	-0.611317	0.075047
C56	C	1.390452	-0.111317	0.575047
O57	O	0.890008	-0.637389	0.138787
O58	O	1.390008	-0.137389	0.638787
N59	N	0.890044	-0.636536	0.000100
N60	N	1.390044	-0.136536	0.500100
C61	C	0.890437	-0.611334	-0.074856
C62	C	1.390437	-0.111334	0.425144
O63	O	0.890008	-0.637410	-0.138603
O64	O	1.390008	-0.137410	0.361397
C65	C	0.893659	-0.409664	-0.074870
C66	C	1.393659	0.090336	0.425130
C67	C	0.894075	-0.384449	0.000082
C68	C	1.394075	0.115551	0.500082
C69	C	0.894094	-0.384432	0.149978
C70	C	1.394094	0.115568	0.649978
C71	C	0.894905	-0.334018	0.149974
C72	C	1.394905	0.165982	0.649974
C73	C	0.895301	-0.308819	0.075024
C74	C	1.395301	0.191181	0.575024
C75	C	0.894885	-0.334035	0.000078
C76	C	1.394885	0.165965	0.500078
C77	C	0.894047	-0.384462	-0.149824
C78	C	1.394047	0.115538	0.350176
C79	C	0.894850	-0.334041	-0.149821
C80	C	1.394850	0.165959	0.350179
C81	C	0.895266	-0.308826	-0.074869
C82	C	1.395266	0.191174	0.425131
C83	C	0.896092	-0.258422	-0.074876
C84	C	1.396092	0.241578	0.425124
N85	N	0.896500	-0.233203	0.000070
N86	N	1.396500	0.266797	0.500070
C87	C	0.896105	-0.258402	0.075020
C88	C	1.396105	0.241598	0.575020
C89	C	0.888747	-0.717213	-0.074844
C90	C	1.388747	-0.217213	0.425156
C91	C	0.887943	-0.767630	-0.074840
C92	C	1.387943	-0.267630	0.425160
C93	C	0.887956	-0.767610	0.075062
C94	C	1.387956	-0.267610	0.575062
C95	C	0.888766	-0.717193	0.075058
C96	C	1.388766	-0.217193	0.575058
C97	C	0.889155	-0.691994	0.000103
C98	C	1.389155	-0.191994	0.500103
C99	C	0.897808	-0.152528	0.075006
C100	C	1.397808	0.347472	0.575006
C101	C	0.898622	-0.102110	0.074995
C102	C	1.398622	0.397890	0.574995
C103	C	0.898605	-0.102134	-0.074908
C104	C	1.398605	0.397866	0.425092
C105	C	0.897795	-0.152548	-0.074897
C106	C	1.397795	0.347452	0.425103
C107	C	0.897394	-0.177744	0.000066
C108	C	1.397394	0.322256	0.500066
O109	O	0.896527	-0.232318	-0.138584
O110	O	1.396527	0.267682	0.361416
O111	O	0.896517	-0.232315	0.138757
O112	O	1.396517	0.267685	0.638757
C113	C	0.892868	-0.460061	0.075037
C114	C	1.392868	0.039939	0.575037
C115	C	0.892453	-0.485277	0.000091
C116	C	1.392453	0.014723	0.500091
C117	C	0.892849	-0.460078	-0.074859
C118	C	1.392849	0.039922	0.425141
C119	C	0.891649	-0.535694	0.000094
C120	C	1.391649	-0.035694	0.500094
C121	C	0.891253	-0.560893	0.075044
C122	C	1.391253	-0.060893	0.575044
C123	C	0.891661	-0.535674	0.149991
C124	C	1.391661	-0.035674	0.649991
C125	C	0.892472	-0.485260	0.149987
C126	C	1.392472	0.014740	0.649987
C127	C	0.892440	-0.485297	-0.149806
C128	C	1.392440	0.014703	0.350194
C129	C	0.891630	-0.535711	-0.149795
C130	C	1.391630	-0.035711	0.350205
C131	C	0.891235	-0.560910	-0.074845
C132	C	1.391235	-0.060910	0.425155
C133	C	1.031702	0.061442	0.000083
C134	C	1.531702	0.561442	0.500083
C135	C	1.115711	0.062300	0.000094
C136	C	1.615711	0.562300	0.500094
C137	C	0.886698	0.153512	0.000096
C138	C	1.386698	0.653512	0.500096
C139	C	0.887547	0.207171	0.000110
C140	C	1.387547	0.707171	0.500110
N141	N	0.893269	0.065129	-0.195593
N142	N	1.393269	0.565129	0.304407
C143	C	0.938817	0.094412	-0.238843
C144	C	1.438817	0.594412	0.261157
C145	C	0.938825	0.094411	-0.325390
C146	C	1.438825	0.594411	0.174610
C147	C	0.893280	0.065128	-0.368685
C148	C	1.393280	0.565128	0.131315
C149	C	0.847731	0.035841	-0.325429
C150	C	1.347731	0.535841	0.174571
C151	C	0.847727	0.035841	-0.238883
C152	C	1.347727	0.535841	0.261117
C153	C	0.847745	0.035842	-0.674457
C154	C	1.347745	0.535842	-0.174457
C155	C	0.847750	0.035845	-0.761009
C156	C	1.347750	0.535845	-0.261009
C157	C	0.938842	0.094412	-0.760964
C158	C	1.438842	0.594412	-0.260964
C159	C	0.938839	0.094411	-0.674418
C160	C	1.438839	0.594411	-0.174418
C161	C	0.893293	0.065123	-0.631169
C162	C	1.393293	0.565123	-0.131169
C163	C	0.893285	0.065125	-0.537325
C164	C	1.393285	0.565125	-0.037325
C165	C	0.893283	0.065128	-0.462528
C166	C	1.393283	0.565128	0.037472
N167	N	0.893303	0.065127	0.195739
N168	N	1.393303	0.565127	0.695739
H169	H	0.898963	-0.081582	0.136032
H170	H	1.398963	0.418418	0.636032
H171	H	0.520342	0.066431	0.136048
H172	H	1.020342	0.566431	0.636048
C173	C	0.674772	0.067997	-0.157342
C174	C	1.174772	0.567997	0.342658
N175	N	0.707461	0.068326	-0.219445
N176	N	1.207461	0.568326	0.280555
C177	C	0.277553	0.063944	0.157483
C178	C	0.777553	0.563944	0.657483
N179	N	0.310262	0.064271	0.219585
N180	N	0.810262	0.564271	0.719585
C181	C	0.797636	0.003628	-0.626895
C182	C	1.297636	0.503628	-0.126895
N183	N	0.759889	-0.020636	-0.591068
N184	N	1.259889	0.479364	-0.091068
C185	C	0.674831	0.068003	0.157459
C186	C	1.174831	0.568003	0.657459
N187	N	0.707544	0.068337	0.219558
N188	N	1.207544	0.568337	0.719558
C189	C	0.111735	0.062254	-0.157308
C190	C	0.611735	0.562254	0.342692
N191	N	0.079027	0.061920	-0.219410
N192	N	0.579027	0.561920	0.280590
C193	C	0.797619	0.003628	-0.191309
C194	C	1.297619	0.503628	0.308691
N195	N	0.759878	-0.020636	-0.155476
N196	N	1.259878	0.479364	0.344524
C197	C	0.509014	0.066318	-0.157336
C198	C	1.009014	0.566318	0.342664
N199	N	0.476308	0.065996	-0.219441
N200	N	0.976308	0.565996	0.280559
H201	H	0.892764	-0.464786	-0.210841
H202	H	1.392764	0.035214	0.289159
C203	C	0.889217	-0.689460	0.157510
C204	C	1.389217	-0.189460	0.657510
N205	N	0.889553	-0.668574	0.219617
N206	N	1.389553	-0.168574	0.719617
C207	C	0.988943	0.126623	-0.626798
C208	C	1.488943	0.626623	-0.126798
N209	N	1.026686	0.150884	-0.590932
N210	N	1.526686	0.650884	-0.090932
H211	H	0.891298	-0.556238	-0.210835
H212	H	1.391298	-0.056238	0.289165
C213	C	0.797630	0.003631	-0.373057
C214	C	1.297630	0.503631	0.126943
N215	N	0.759890	-0.020629	-0.408929
N216	N	1.259890	0.479371	0.091071
H217	H	0.266229	0.063827	-0.135893
H218	H	0.766229	0.563827	0.364107
H219	H	0.123072	0.062380	0.136074
H220	H	0.623072	0.562380	0.636074
C221	C	0.897380	-0.180238	0.157469
C222	C	1.397380	0.319762	0.657469
N223	N	0.897066	-0.201108	0.219581
N224	N	1.397066	0.298892	0.719581
C225	C	0.895354	-0.306286	0.232427
C226	C	1.395354	0.193714	0.732427
N227	N	0.895688	-0.285402	0.294536
N228	N	1.395688	0.214598	0.794536
C229	C	0.893691	-0.412145	0.232436
C230	C	1.393691	0.087855	0.732436
N231	N	0.893405	-0.433017	0.294549
N232	N	1.393405	0.066983	0.794549
C233	C	0.889181	-0.689502	-0.157306
C234	C	1.389181	-0.189502	0.342694
N235	N	0.889511	-0.668632	-0.219417
N236	N	1.389511	-0.168632	0.280583
H237	H	0.887616	-0.788157	-0.135874
H238	H	1.387616	-0.288157	0.364126
C239	C	0.893580	-0.412187	-0.232279
C240	C	1.393580	0.087813	0.267721
N241	N	0.893223	-0.433068	-0.294389
N242	N	1.393223	0.066932	0.205611
C243	C	0.887515	-0.795337	0.157508
C244	C	1.387515	-0.295337	0.657508
N245	N	0.887176	-0.816223	0.219603
N246	N	1.387176	-0.316223	0.719603
H247	H	0.895156	-0.313527	-0.210860
H248	H	1.395156	0.186473	0.289140
H249	H	0.897463	-0.173081	-0.135929
H250	H	1.397463	0.326919	0.364071
H251	H	0.810661	0.011998	-0.796257
H252	H	1.310661	0.511998	-0.296257
H253	H	0.898931	-0.081609	-0.135930
H254	H	1.398931	0.418391	0.364070
C255	C	0.988952	0.126625	-0.808545
C256	C	1.488952	0.626625	-0.308545
N257	N	1.026692	0.150888	-0.844382
N258	N	1.526692	0.650888	-0.344382
H259	H	0.892810	-0.464734	0.211020
H260	H	1.392810	0.035266	0.711020
C261	C	0.891224	-0.563402	0.232436
C262	C	1.391224	-0.063402	0.732436
N263	N	0.890889	-0.584289	0.294530
N264	N	1.390889	-0.084289	0.794530
H265	H	0.975916	0.118255	-0.360600
H266	H	1.475916	0.618255	0.139400
C267	C	0.988920	0.126626	-0.191226
C268	C	1.488920	0.626626	0.308774
N269	N	1.026663	0.150889	-0.155363
N270	N	1.526663	0.650889	0.344637
