data_functionalizedCrystal
_audit_creation_method	'MofGen! by Chris Wilmer'
_symmetry_space_group_name_H-M	'P1'
_symmetry_Int_Tables_number	1
_symmetry_cell_setting	triclinic
loop_
_symmetry_equiv_pos_as_xyz
  x,y,z
_cell_length_a	6.817900
_cell_length_b	11.102210
_cell_length_c	17.982968
_cell_angle_alpha	94.232492
_cell_angle_beta	102.451960
_cell_angle_gamma	108.604261
loop_
_atom_site_label
_atom_site_type_symbol
_atom_site_fract_x
_atom_site_fract_y
_atom_site_fract_z
V1	V	-4.041364	-0.177029	-0.237547
O2	O	-4.001741	0.007282	-0.233027
O3	O	-4.018612	-0.349840	-0.235920
O4	O	-3.987547	-0.174843	-0.341150
O5	O	-4.033021	-0.168927	-0.127069
V6	V	-4.522370	-0.154920	-0.224333
O7	O	-4.308142	-0.225527	-0.266532
O8	O	-4.705789	-0.106421	-0.195347
O9	O	-4.321915	0.017892	-0.225959
O10	O	-4.679390	-0.339230	-0.228853
O11	O	-4.648109	-0.163022	-0.334811
O12	O	-4.352981	-0.157105	-0.120730
C13	C	-3.870028	-0.391951	-0.232173
C14	C	-3.932676	-0.533230	-0.231533
C15	C	-3.830399	-0.168724	-0.366402
C16	C	-3.867851	-0.168080	-0.451098
C17	C	-3.981439	-0.713870	-0.160873
C18	C	-3.922552	-0.581121	-0.161465
C19	C	-4.001671	-0.618097	-0.301014
C20	C	-4.060541	-0.750843	-0.300422
C21	C	-4.068312	-0.174146	-0.494770
C22	C	-4.103489	-0.173541	-0.574351
C23	C	-3.938209	-0.166878	-0.610259
C24	C	-3.737730	-0.160808	-0.566581
C25	C	-3.702550	-0.161404	-0.487001
C26	C	-3.879600	-0.158401	-0.887518
C27	C	-3.914798	-0.157809	-0.967104
C28	C	-4.280539	-0.170538	-0.974868
C29	C	-4.245360	-0.171134	-0.895288
C30	C	-4.044882	-0.165057	-0.851616
C31	C	-4.006739	-0.165711	-0.765326
C32	C	-3.976353	-0.166233	-0.696549
C33	C	-4.133843	0.059996	-0.229705
C34	C	-4.050433	0.201274	-0.230349
C35	C	-4.173471	-0.163229	-0.095473
C36	C	-4.115257	-0.163866	-0.010777
H37	H	-3.973197	-0.752851	-0.103816
H38	H	-4.266717	-0.178473	-0.609904
H39	H	-4.202912	-0.179580	-0.465540
H40	H	-3.866372	-0.512034	-0.104891
O41	O	-4.011466	-0.571369	-0.369013
C42	C	-3.955725	-0.383251	-0.431772
C43	C	-3.944569	-0.435994	-0.354708
H44	H	-3.901606	-0.273793	-0.420232
H45	H	-4.127217	-0.423361	-0.468993
H46	H	-3.846461	-0.413561	-0.463144
H47	H	-4.053720	-0.405702	-0.323272
H48	H	-3.773014	-0.395889	-0.317543
H49	H	-4.116716	-0.819938	-0.357000
O50	O	-4.405961	-0.177834	-0.860395
C51	C	-4.632548	-0.296517	-0.785352
C52	C	-4.450684	-0.289107	-0.824847
H53	H	-4.668732	-0.386460	-0.756589
H54	H	-4.781972	-0.300832	-0.830212
H55	H	-4.581465	-0.207676	-0.739968
H56	H	-4.501563	-0.377926	-0.870227
H57	H	-4.301305	-0.284728	-0.779942
O58	O	-3.508000	-0.155699	-0.444514
C59	C	-3.310122	-0.259700	-0.360538
C60	C	-3.530593	-0.266312	-0.408606
H61	H	-3.328306	-0.349131	-0.331507
H62	H	-3.240751	-0.170325	-0.314689
H63	H	-3.198051	-0.254780	-0.399883
H64	H	-3.642825	-0.271281	-0.369323
H65	H	-3.599789	-0.355673	-0.454462
H66	H	-4.443779	-0.175481	-1.010434
O67	O	-3.754310	-0.151158	-1.002056
C68	C	-3.527587	-0.032381	-1.077028
C69	C	-3.709371	-0.039770	-1.037493
H70	H	-3.491167	0.057683	-1.105675
H71	H	-3.578590	-0.121118	-1.122485
H72	H	-3.378312	-0.028199	-1.032137
H73	H	-3.858714	-0.043911	-1.082327
H74	H	-3.658191	0.048966	-0.992022
H75	H	-3.716386	-0.153498	-0.851974
H76	H	-3.603154	-0.155375	-0.595823
