data_functionalizedCrystal
_audit_creation_method	'MofGen! by Chris Wilmer'
_symmetry_space_group_name_H-M	'P1'
_symmetry_Int_Tables_number	1
_symmetry_cell_setting	triclinic
loop_
_symmetry_equiv_pos_as_xyz
  x,y,z
_cell_length_a	10.489694
_cell_length_b	13.330367
_cell_length_c	14.853567
_cell_angle_alpha	89.999156
_cell_angle_beta	95.922560
_cell_angle_gamma	90.006427
loop_
_atom_site_label
_atom_site_type_symbol
_atom_site_fract_x
_atom_site_fract_y
_atom_site_fract_z
O1	O	-1.692669	-0.083389	0.126993
O2	O	-1.321331	-0.083395	0.138976
O3	O	-1.516919	-0.083395	0.001809
O4	O	-1.497081	-0.083389	0.264160
O5	O	-1.516890	0.083452	0.001806
O6	O	-1.321303	0.083452	0.138973
O7	O	-1.692640	0.083459	0.126990
Cu8	Cu	-1.506969	0.098690	0.132981
Cu9	Cu	-1.507002	-0.098626	0.132985
O10	O	-1.497052	0.083458	0.264157
C11	C	-1.273794	0.000027	0.138079
C12	C	-1.132192	0.000024	0.135398
N13	N	-1.506955	0.237471	0.132978
C14	C	-1.033573	0.000023	0.219512
C15	C	-0.956711	0.082290	0.175070
C16	C	-0.956746	-0.082208	0.175053
C17	C	-1.057195	0.082359	0.090991
C18	C	-1.057235	-0.082213	0.090987
C19	C	-0.980423	0.000074	0.046483
C20	C	-1.516006	0.000026	-0.031786
C21	C	-1.513312	0.000017	-0.131884
C22	C	-0.740175	0.000031	0.127902
C23	C	-0.881769	0.000020	0.130625
N24	N	-1.507027	-0.237408	0.132981
C25	C	-1.420392	0.710094	0.193698
C26	C	-1.593647	0.710062	0.072265
C27	C	-1.593632	0.605044	0.072262
C28	C	-1.506998	0.552546	0.132979
C29	C	-1.420378	0.605066	0.193699
C30	C	-1.680260	0.552516	0.011549
C31	C	-1.680250	0.447491	0.011544
C32	C	-1.593608	0.394991	0.072258
C33	C	-1.506983	0.447518	0.132980
C34	C	-1.420349	0.395019	0.193697
C35	C	-1.333717	0.447544	0.254416
C36	C	-1.333736	0.552566	0.254413
C37	C	-1.593589	0.289969	0.072261
C38	C	-1.420334	0.289991	0.193698
C39	C	-1.385742	0.000034	-0.545118
C40	C	-1.618105	0.000038	-0.565124
C41	C	-1.620638	0.000032	-0.471076
C42	C	-1.505721	0.000029	-0.414045
C43	C	-1.388272	0.000031	-0.451062
C44	C	-1.738085	0.000040	-0.434053
C45	C	-1.740623	0.000035	-0.340000
C46	C	-1.625705	0.000025	-0.282967
C47	C	-1.508250	0.000026	-0.319989
C48	C	-1.393333	0.000022	-0.262957
C49	C	-1.275878	0.000016	-0.299977
C50	C	-1.273353	0.000020	-0.394029
C51	C	-1.628229	0.000021	-0.188916
C52	C	-1.395863	0.000019	-0.168901
C53	C	-1.497966	0.000035	0.297752
C54	C	-1.500659	0.000037	0.397850
H55	H	-1.057421	0.000101	0.292672
Cl56	Cl	-1.125709	0.000010	-0.440574
H57	H	-0.956814	0.000120	-0.026731
H58	H	-1.101141	-0.151768	0.055507
H59	H	-1.182313	0.000020	-0.253530
H60	H	-0.912875	-0.151750	0.210580
H61	H	-1.750788	0.404732	-0.037896
Cl62	Cl	-1.311484	0.776119	0.270023
H63	H	-1.349781	0.247253	0.243139
Cl64	Cl	-1.224818	0.381535	0.330749
H65	H	-1.290113	0.000025	-0.575264
Cl66	Cl	-1.251386	0.000007	-0.097211
H67	H	-0.912818	0.151841	0.210577
Cl68	Cl	-1.882542	0.000066	-0.505752
Cl69	Cl	-1.224841	0.618598	0.330741
Cl70	Cl	-1.762564	0.000059	-0.636820
H71	H	-1.836262	0.000039	-0.309867
Cl72	Cl	-1.702563	0.776057	-0.004057
H73	H	-1.750801	0.595263	-0.037881
H74	H	-1.723859	0.000032	-0.158778
Cl75	Cl	-1.702497	0.223945	-0.004060
H76	H	-1.100898	0.151980	0.055502
