data_functionalizedCrystal
_audit_creation_method	'MofGen! by Chris Wilmer'
_symmetry_space_group_name_H-M	'P1'
_symmetry_Int_Tables_number	1
_symmetry_cell_setting	triclinic
loop_
_symmetry_equiv_pos_as_xyz
  x,y,z
_cell_length_a	13.032721
_cell_length_b	12.827893
_cell_length_c	12.827885
_cell_angle_alpha	90.021189
_cell_angle_beta	97.149035
_cell_angle_gamma	82.797239
loop_
_atom_site_label
_atom_site_type_symbol
_atom_site_fract_x
_atom_site_fract_y
_atom_site_fract_z
Zn1	Zn	-0.416035	-1.544792	-0.643701
Zn2	Zn	0.083965	-1.044792	-0.143701
Zn3	Zn	-0.590813	-1.522472	-0.491143
Zn4	Zn	-0.090813	-1.022472	0.008857
Zn5	Zn	-0.416080	-1.370028	-0.468975
Zn6	Zn	0.083920	-0.870028	0.031025
Zn7	Zn	-0.590730	-1.347815	-0.665827
Zn8	Zn	-0.090730	-0.847815	-0.165827
O9	O	-0.503414	-1.446277	-0.567411
O10	O	-0.003414	-0.946277	-0.067411
O11	O	-0.439235	-1.688065	-0.623482
O12	O	0.060765	-1.188065	-0.123482
O13	O	-0.567688	-1.502205	-0.341973
O14	O	-0.067688	-1.002205	0.158027
O15	O	-0.269837	-1.411848	-0.473616
O16	O	0.230163	-0.911848	0.026384
O17	O	-0.567644	-1.671667	-0.511398
O18	O	-0.067644	-1.171667	-0.011398
O19	O	-0.269804	-1.540246	-0.601987
O20	O	0.230196	-1.040246	-0.101987
O21	O	-0.439313	-1.390205	-0.325686
O22	O	0.060687	-0.890205	0.174314
O23	O	-0.439232	-1.220847	-0.495070
O24	O	0.060768	-0.720847	0.004930
O25	O	-0.567502	-1.373990	-0.809121
O26	O	-0.067502	-0.873990	-0.309121
O27	O	-0.567546	-1.204528	-0.639696
O28	O	-0.067546	-0.704528	-0.139696
O29	O	-0.439154	-1.518708	-0.792866
O30	O	0.060846	-1.018708	-0.292866
O31	O	-0.737039	-1.480667	-0.532852
O32	O	-0.237039	-0.980667	-0.032852
O33	O	-0.736978	-1.352347	-0.661191
O34	O	-0.236978	-0.852347	-0.161191
C35	C	-0.503386	-1.174771	-0.567379
C36	C	-0.003386	-0.674771	-0.067379
C37	C	-0.503399	-1.058616	-0.567393
C38	C	-0.003399	-0.558616	-0.067393
C39	C	-0.439969	-1.014931	-0.622967
C40	C	0.060031	-0.514931	-0.122967
C41	C	-0.439981	-0.894879	-0.622983
C42	C	0.060019	-0.394879	-0.122983
C43	C	-0.774926	-1.411703	-0.601851
C44	C	-0.274926	-0.911703	-0.101851
C45	C	-0.891079	-1.397007	-0.616619
C46	C	-0.391079	-0.897007	-0.116619
C47	C	-0.942860	-1.454002	-0.559751
C48	C	-0.442860	-0.954002	-0.059751
C49	C	-1.062911	-1.438815	-0.575013
C50	C	-0.562911	-0.938815	-0.075013
C51	C	-0.230843	-1.481014	-0.532861
C52	C	0.269157	-0.981014	-0.032861
C53	C	-0.114689	-1.495818	-0.518137
C54	C	0.385311	-0.995818	-0.018137
C55	C	-0.503314	-1.446361	-0.839969
C56	C	-0.003314	-0.946361	-0.339969
C57	C	-0.503271	-1.446396	-0.956117
C58	C	-0.003271	-0.946396	-0.456117
C59	C	-0.503435	-0.718844	-0.567435
C60	C	-0.003435	-0.218844	-0.067435
C61	C	-0.503422	-0.834999	-0.567421
C62	C	-0.003422	-0.334999	-0.067421
C63	C	-0.439748	-1.518016	-0.999856
C64	C	0.060252	-1.018016	-0.499856
C65	C	-0.439703	-1.518055	-1.119901
C66	C	0.060297	-1.018055	-0.619901
C67	C	-0.503439	-1.446263	-0.295905
C68	C	-0.003439	-0.946263	0.204095
C69	C	-0.503187	-1.446467	-0.179720
C70	C	-0.003187	-0.946467	0.320280
H71	H	-0.557735	-0.872590	-0.519846
H72	H	-0.057735	-0.372590	-0.019846
C73	C	-0.366609	-0.844089	-0.687256
C74	C	0.133391	-0.344089	-0.187256
N75	N	-0.311341	-0.805832	-0.735666
N76	N	0.188659	-0.305832	-0.235666
H77	H	-0.557710	-1.007138	-0.519823
H78	H	-0.057710	-0.507138	-0.019823
H79	H	-0.385394	-1.579300	-0.948430
H80	H	0.114606	-1.079300	-0.448430
H81	H	-0.898317	-1.514045	-0.499768
H82	H	-0.398317	-1.014045	0.000232
H83	H	-0.385322	-1.579374	-1.157547
H84	H	0.114678	-1.079374	-0.657547
H85	H	-0.557578	-1.385151	-1.142082
H86	H	-0.057578	-0.885151	-0.642082
H87	H	-0.557615	-1.385103	-1.007541
H88	H	-0.057615	-0.885103	-0.507541
H89	H	-1.107453	-1.378777	-0.635007
H90	H	-0.607453	-0.878777	-0.135007
C91	C	-0.366587	-1.084471	-0.687227
C92	C	0.133413	-0.584471	-0.187227
N93	N	-0.311314	-1.136848	-0.735629
N94	N	0.188686	-0.636848	-0.235629
H95	H	-1.070148	-1.555864	-0.458151
H96	H	-0.570148	-1.055864	0.041849
H97	H	-0.935625	-1.336973	-0.676609
H98	H	-0.435625	-0.836973	-0.176609
