data_functionalizedCrystal
_audit_creation_method	'MofGen! by Chris Wilmer'
_symmetry_space_group_name_H-M	'P1'
_symmetry_Int_Tables_number	1
_symmetry_cell_setting	triclinic
loop_
_symmetry_equiv_pos_as_xyz
  x,y,z
_cell_length_a	16.109301
_cell_length_b	11.026607
_cell_length_c	15.186229
_cell_angle_alpha	89.998222
_cell_angle_beta	89.999362
_cell_angle_gamma	96.023749
loop_
_atom_site_label
_atom_site_type_symbol
_atom_site_fract_x
_atom_site_fract_y
_atom_site_fract_z
O1	O	1.126503	0.155971	-0.073169
O2	O	0.887350	0.175382	-0.073183
O3	O	0.987106	-0.010969	-0.073174
O4	O	1.026747	0.342322	-0.073178
O5	O	0.987097	-0.010971	0.073283
O6	O	0.887341	0.175379	0.073274
O7	O	1.126494	0.155969	0.073288
Zn8	Zn	1.006916	0.165674	0.096534
Zn9	Zn	1.006928	0.165677	-0.096429
O10	O	1.026738	0.342319	0.073279
C11	C	0.856253	0.174594	0.000044
C12	C	0.763604	0.172237	0.000039
C13	C	0.557080	0.277333	0.000048
C14	C	0.470027	0.275108	0.000053
C15	C	0.456769	0.054010	0.000052
C16	C	0.543821	0.056235	0.000053
C17	C	0.593975	0.167900	0.000046
C18	C	0.419869	0.163450	0.000051
C19	C	0.325481	0.161038	0.000057
C20	C	0.688369	0.170314	0.000042
C21	C	0.979788	-0.056178	0.000053
C22	C	0.957987	-0.190883	0.000049
C23	C	1.018183	-0.264713	0.000051
C24	C	0.995652	-0.403938	0.000046
C25	C	1.157591	0.156756	0.000059
C26	C	1.250240	0.159114	0.000059
C27	C	1.034056	0.387529	0.000050
C28	C	1.055857	0.522234	0.000049
N29	N	1.006914	0.165670	0.228227
N30	N	1.006935	0.165671	-0.228122
C31	C	1.051109	0.083182	0.453954
C32	C	1.051112	0.083179	0.546144
C33	C	0.962734	0.248163	0.546145
C34	C	0.962728	0.248159	0.453957
C35	C	1.006920	0.165670	0.407864
C36	C	1.006929	0.165671	0.592241
C37	C	1.006931	0.165669	0.692198
C38	C	1.006917	0.165671	0.307901
H39	H	0.573861	-0.032883	0.000054
O40	O	0.914295	-0.451621	-0.000078
C41	C	0.805863	-0.577816	-0.075993
C42	C	0.898018	-0.523918	-0.075951
H43	H	0.792670	-0.636258	-0.137339
H44	H	0.792615	-0.636452	-0.014746
H45	H	0.764061	-0.500555	-0.075951
H46	H	0.939880	-0.601101	-0.076024
H47	H	0.911198	-0.465250	-0.137192
H48	H	1.124077	-0.437909	-0.000014
O49	O	0.605888	0.385723	0.000164
C50	C	0.711830	0.516578	0.076066
C51	C	0.656622	0.393770	0.076031
H52	H	0.752849	0.523136	0.137407
H53	H	0.752974	0.523172	0.014815
H54	H	0.670487	0.594390	0.076026
H55	H	0.697900	0.315888	0.076102
H56	H	0.615471	0.387283	0.137277
H57	H	1.086399	-0.224848	0.000060
H58	H	0.889771	-0.230748	0.000039
O59	O	1.094043	0.002932	0.409315
C60	C	1.181737	-0.160667	0.419048
C61	C	1.133135	-0.069863	0.469708
H62	H	1.213369	-0.219527	0.467854
H63	H	1.136796	-0.221386	0.375918
H64	H	1.231076	-0.108242	0.375858
H65	H	1.083795	-0.122189	0.512946
H66	H	1.178127	-0.009144	0.512782
H67	H	0.926755	0.315325	0.583683
O68	O	1.093907	0.002933	0.590955
C69	C	1.086823	-0.162736	0.695079
C70	C	1.038252	-0.071940	0.644371
H71	H	1.041849	-0.223277	0.738292
H72	H	1.118380	-0.221778	0.646336
H73	H	1.136217	-0.110302	0.738196
H74	H	0.988818	-0.124275	0.601252
H75	H	1.006753	-0.012898	0.693161
O76	O	0.919787	0.328411	0.409315
C77	C	0.832087	0.492002	0.419037
C78	C	0.880698	0.401213	0.469703
H79	H	0.800457	0.550869	0.467839
H80	H	0.877021	0.552717	0.375893
H81	H	0.782745	0.439564	0.375861
H82	H	0.930041	0.453551	0.512927
H83	H	0.835713	0.340499	0.512791
H84	H	0.439992	0.364219	0.000056
O85	O	0.407926	-0.054350	0.000013
C86	C	0.267943	-0.155769	0.000059
C87	C	0.323156	-0.032965	0.000087
H88	H	0.199395	-0.138522	0.000138
H89	H	0.281730	-0.209859	-0.061247
H90	H	0.281837	-0.209849	0.061337
H91	H	0.309293	0.021214	-0.061149
H92	H	0.309359	0.021033	0.061434
