data_functionalizedCrystal
_audit_creation_method	'MofGen! by Chris Wilmer'
_symmetry_space_group_name_H-M	'P1'
_symmetry_Int_Tables_number	1
_symmetry_cell_setting	triclinic
loop_
_symmetry_equiv_pos_as_xyz
  x,y,z
_cell_length_a	10.489741
_cell_length_b	10.540539
_cell_length_c	9.016244
_cell_angle_alpha	90.000067
_cell_angle_beta	89.995333
_cell_angle_gamma	95.467667
loop_
_atom_site_label
_atom_site_type_symbol
_atom_site_fract_x
_atom_site_fract_y
_atom_site_fract_z
O1	O	1.694038	-0.179097	-0.123241
O2	O	1.322840	-0.195909	-0.123263
O3	O	1.516908	-0.002798	-0.123250
O4	O	1.499970	-0.372209	-0.123254
O5	O	1.516879	-0.002802	0.123431
O6	O	1.322812	-0.195913	0.123417
O7	O	1.694009	-0.179102	0.123440
Cu8	Cu	1.508408	-0.187508	0.145953
Cu9	Cu	1.508442	-0.187503	-0.145776
O10	O	1.499942	-0.372213	0.123426
C11	C	1.275294	-0.194641	0.000074
C12	C	1.133665	-0.190843	0.000065
C13	C	1.515623	0.044503	0.000088
C14	C	1.511823	0.185452	0.000080
N15	N	1.508393	-0.187511	0.351139
C16	C	1.065540	-0.067971	0.000081
C17	C	0.973420	-0.126012	-0.121543
C18	C	0.973426	-0.126046	0.121665
C19	C	1.043411	-0.248934	-0.121659
C20	C	1.043426	-0.248951	0.121658
C21	C	0.951334	-0.307081	0.000004
C22	C	1.741555	-0.180369	0.000099
C23	C	1.883184	-0.184168	0.000098
C24	C	1.501226	-0.419514	0.000085
C25	C	1.505026	-0.560463	0.000084
C26	C	1.366206	0.368896	-0.000483
C27	C	1.370058	0.222277	0.000073
C28	C	1.580030	0.247099	0.140951
C29	C	1.575192	0.393644	0.141069
C30	C	1.578108	0.394167	-0.139453
C31	C	1.579414	0.247185	-0.141315
N32	N	1.508466	-0.187490	-0.350962
C33	C	1.404261	-0.290466	0.586164
C34	C	1.404492	-0.290852	0.414273
C35	C	1.641758	-0.217660	0.413485
C36	C	1.641189	-0.218389	0.585430
C37	C	1.480485	-0.054069	0.585682
C38	C	1.477425	-0.054933	0.413728
H39	H	1.115242	0.033036	-0.000070
H40	H	1.682772	0.222951	-0.149816
C41	C	0.869187	0.049878	0.217355
C42	C	0.931598	-0.055844	0.260478
H43	H	0.843374	0.093226	0.303049
H44	H	0.795979	0.022212	0.159722
H45	H	0.925892	0.105907	0.160067
H46	H	0.874889	-0.111878	0.317757
H47	H	1.004815	-0.028179	0.318135
H48	H	0.942424	-0.074021	-0.224368
H49	H	1.074245	-0.300881	-0.224599
H50	H	0.901898	-0.408195	-0.000063
C51	C	1.714386	0.590472	-0.146085
C52	C	1.716336	0.457907	-0.140746
H53	H	1.799719	0.629824	-0.146885
H54	H	1.670718	0.618240	-0.061532
H55	H	1.671414	0.613257	-0.233476
H56	H	1.759300	0.435121	-0.053349
H57	H	1.760023	0.430128	-0.225307
C58	C	1.025341	-0.443571	0.261736
C59	C	1.085328	-0.319077	0.260472
H60	H	1.051208	-0.486851	0.347449
H61	H	1.049053	-0.487318	0.175409
H62	H	0.935077	-0.440969	0.263235
H63	H	1.175592	-0.321679	0.258962
H64	H	1.061625	-0.275319	0.346822
H65	H	1.316388	0.179682	-0.100909
H66	H	1.529507	0.206334	-0.245528
C67	C	1.241074	-0.145668	0.595516
C68	C	1.270070	-0.266358	0.642050
H69	H	1.158231	-0.130781	0.630037
H70	H	1.242727	-0.141843	0.490275
H71	H	1.302591	-0.082525	0.634702
H72	H	1.208558	-0.329503	0.602855
H73	H	1.268406	-0.270193	0.747312
H74	H	1.666776	-0.313901	0.370407
C75	C	1.367836	0.495321	-0.222104
C76	C	1.290606	0.407525	-0.136844
H77	H	1.321157	0.519180	-0.306283
H78	H	1.441910	0.457605	-0.253774
H79	H	1.392800	0.568729	-0.164079
H80	H	1.265649	0.334112	-0.194866
H81	H	1.216508	0.445239	-0.105175
H82	H	1.310422	0.399108	0.099966
H83	H	1.684138	0.224732	0.146194
H84	H	1.315988	0.180526	0.101217
C85	C	1.471033	0.322580	0.367451
C86	C	1.507095	0.431726	0.283204
H87	H	1.428982	0.346088	0.455194
H88	H	1.545063	0.282096	0.393187
H89	H	1.414576	0.265543	0.311111
H90	H	1.563559	0.488760	0.339540
H91	H	1.433054	0.472229	0.257470
C92	C	1.799264	0.365126	0.154798
C93	C	1.712820	0.458393	0.149732
H94	H	1.884226	0.405098	0.160161
H95	H	1.790079	0.314081	0.067943
H96	H	1.782124	0.312960	0.239743
H97	H	1.729955	0.510554	0.064780
H98	H	1.722011	0.509460	0.236596
C99	C	1.331846	-0.513841	0.410984
C100	C	1.428782	-0.424477	0.358720
H101	H	1.346854	-0.596339	0.376696
H102	H	1.251330	-0.492683	0.375367
H103	H	1.331631	-0.513121	0.516340
H104	H	1.428991	-0.425191	0.253363
H105	H	1.509320	-0.445642	0.394330
H106	H	1.532626	0.204503	0.245776
C107	C	1.344743	-0.019887	0.203503
C108	C	1.344979	-0.024079	0.358726
H109	H	1.262977	-0.000837	0.169545
H110	H	1.362931	-0.100184	0.165297
H111	H	1.408151	0.044219	0.170398
H112	H	1.281578	-0.088193	0.391830
H113	H	1.326776	0.056228	0.396946
H114	H	1.721195	-0.144706	0.372586
C115	C	1.813944	-0.062361	0.520333
C116	C	1.749076	-0.121063	0.641585
H117	H	1.880548	-0.002281	0.555000
H118	H	1.755704	-0.019924	0.461989
H119	H	1.849590	-0.125071	0.461792
H120	H	1.713421	-0.058353	0.700120
H121	H	1.807325	-0.163501	0.699953
C122	C	1.662093	0.002944	0.262239
C123	C	1.573101	0.053492	0.355741
H124	H	1.721172	0.069881	0.226454
H125	H	1.618587	-0.038923	0.180928
H126	H	1.706889	-0.056391	0.315935
H127	H	1.528299	0.112821	0.302041
H128	H	1.616612	0.095379	0.437064
C129	C	1.557361	0.167908	0.583603
C130	C	1.583039	0.049408	0.640573
H131	H	1.620680	0.231779	0.617491
H132	H	1.475381	0.187327	0.616363
H133	H	1.558629	0.164986	0.478313
H134	H	1.581762	0.052327	0.745863
H135	H	1.665041	0.029985	0.607821
H136	H	1.532238	0.425727	-0.246224
H137	H	1.422014	-0.388892	0.629357
H138	H	1.305399	-0.272709	0.372123
H139	H	1.665661	-0.315730	0.625519
H140	H	1.385291	-0.025378	0.629124
