data_functionalizedCrystal
_audit_creation_method	'MofGen! by Chris Wilmer'
_symmetry_space_group_name_H-M	'P1'
_symmetry_Int_Tables_number	1
_symmetry_cell_setting	triclinic
loop_
_symmetry_equiv_pos_as_xyz
  x,y,z
_cell_length_a	21.295417
_cell_length_b	18.215407
_cell_length_c	18.215399
_cell_angle_alpha	89.980167
_cell_angle_beta	90.032152
_cell_angle_gamma	89.969045
loop_
_atom_site_label
_atom_site_type_symbol
_atom_site_fract_x
_atom_site_fract_y
_atom_site_fract_z
Zn1	Zn	-0.250608	-1.125043	0.416094
Zn2	Zn	0.082725	-0.791710	0.749428
Zn3	Zn	0.416059	-0.458377	1.082761
Zn4	Zn	-0.355879	-1.124940	0.293019
Zn5	Zn	-0.022546	-0.791606	0.626352
Zn6	Zn	0.310787	-0.458273	0.959686
Zn7	Zn	-0.250629	-1.001976	0.293042
Zn8	Zn	0.082705	-0.668642	0.626375
Zn9	Zn	0.416038	-0.335309	0.959708
Zn10	Zn	-0.355844	-1.001930	0.416044
Zn11	Zn	-0.022511	-0.668596	0.749377
Zn12	Zn	0.310822	-0.335263	1.082711
O13	O	-0.303240	-1.063472	0.354550
O14	O	0.030093	-0.730139	0.687883
O15	O	0.363427	-0.396805	1.021216
O16	O	-0.264579	-1.228014	0.399780
O17	O	0.068755	-0.894680	0.733113
O18	O	0.402088	-0.561347	1.066446
O19	O	-0.341941	-1.108604	0.190038
O20	O	-0.008608	-0.775271	0.523371
O21	O	0.324726	-0.441937	0.856704
O22	O	-0.162537	-1.018364	0.309396
O23	O	0.170797	-0.685030	0.642729
O24	O	0.504130	-0.351697	0.976062
O25	O	-0.341921	-1.227938	0.309357
O26	O	-0.008588	-0.894604	0.642690
O27	O	0.324746	-0.561271	0.976024
O28	O	-0.162521	-1.108781	0.399802
O29	O	0.170812	-0.775447	0.733135
O30	O	0.504145	-0.442114	1.066468
O31	O	-0.264614	-1.018263	0.190054
O32	O	0.068720	-0.684930	0.523388
O33	O	0.402053	-0.351596	0.856721
O34	O	-0.264580	-0.898985	0.309347
O35	O	0.068754	-0.565652	0.642680
O36	O	0.402087	-0.232319	0.976013
O37	O	-0.341861	-1.018285	0.519035
O38	O	-0.008528	-0.684952	0.852368
O39	O	0.324805	-0.351618	1.185702
O40	O	-0.341881	-0.898951	0.399716
O41	O	-0.008548	-0.565618	0.733049
O42	O	0.324786	-0.232285	1.066383
O43	O	-0.264545	-1.108736	0.519072
O44	O	0.068789	-0.775403	0.852405
O45	O	0.402122	-0.442069	1.185739
O46	O	-0.443964	-1.108559	0.309308
O47	O	-0.110631	-0.775226	0.642641
O48	O	0.222703	-0.441893	0.975975
O49	O	-0.443938	-1.018184	0.399694
O50	O	-0.110605	-0.684851	0.733027
O51	O	0.222728	-0.351518	1.066361
C52	C	-0.303229	-0.872266	0.354529
C53	C	0.030104	-0.538932	0.687862
C54	C	0.363437	-0.205599	1.021195
C55	C	-0.303240	-0.790467	0.354537
C56	C	0.030093	-0.457134	0.687870
C57	C	0.363427	-0.123800	1.021204
C58	C	-0.466792	-1.063376	0.354509
C59	C	-0.133458	-0.730042	0.687842
C60	C	0.199875	-0.396709	1.021176
C61	C	-0.536760	-1.063402	0.354516
C62	C	-0.203427	-0.730068	0.687850
C63	C	0.129907	-0.396735	1.021183
C64	C	-0.303197	-1.063517	0.546503
C65	C	0.030137	-0.730184	0.879836
C66	C	0.363470	-0.396850	1.213169
C67	C	-0.303178	-1.063536	0.628302
C68	C	0.030155	-0.730203	0.961635
C69	C	0.363488	-0.396869	1.294968
C70	C	-0.569619	-1.110502	0.307500
C71	C	-0.236286	-0.777168	0.640834
C72	C	0.097048	-0.443835	0.974167
C73	C	-0.635361	-1.110536	0.307517
C74	C	-0.302028	-0.777203	0.640850
C75	C	0.031305	-0.443869	0.974184
C76	C	-0.668242	-1.063457	0.354542
C77	C	-0.334909	-0.730124	0.687875
C78	C	-0.001576	-0.396791	1.021208
C79	C	-0.635375	-1.016354	0.401566
C80	C	-0.302042	-0.683021	0.734900
C81	C	0.031291	-0.349687	1.068233
C82	C	-0.569634	-1.016326	0.401554
C83	C	-0.236301	-0.682993	0.734887
C84	C	0.097033	-0.349660	1.068220
N85	N	-0.771508	-0.999079	0.360145
N86	N	-0.438175	-0.665745	0.693478
N87	N	-0.104842	-0.332412	1.026811
N88	N	-0.833960	-0.999107	0.360153
N89	N	-0.500627	-0.665774	0.693486
N90	N	-0.167293	-0.332441	1.026819
C91	C	-0.866317	-1.063540	0.354584
C92	C	-0.532984	-0.730207	0.687917
C93	C	-0.199650	-0.396873	1.021250
N94	N	-0.833863	-1.127944	0.348993
N95	N	-0.500530	-0.794611	0.682326
N96	N	-0.167197	-0.461277	1.015659
N97	N	-0.771406	-1.127915	0.348981
N98	N	-0.438073	-0.794581	0.682314
N99	N	-0.104740	-0.461248	1.015648
C100	C	-0.739528	-1.063483	0.354561
C101	C	-0.406194	-0.730149	0.687894
C102	C	-0.072861	-0.396816	1.021228
C103	C	-0.970462	-1.110681	0.307584
C104	C	-0.637128	-0.777348	0.640917
C105	C	-0.303795	-0.444015	0.974250
C106	C	-1.036205	-1.110717	0.307605
C107	C	-0.702872	-0.777384	0.640939
C108	C	-0.369539	-0.444050	0.974272
C109	C	-1.036218	-1.016528	0.401651
C110	C	-0.702885	-0.683195	0.734984
C111	C	-0.369551	-0.349862	1.068317
C112	C	-0.970475	-1.016499	0.401633
C113	C	-0.637142	-0.683166	0.734966
C114	C	-0.303809	-0.349833	1.068300
C115	C	-0.937601	-1.063575	0.354595
C116	C	-0.604268	-0.730241	0.687929
C117	C	-0.270935	-0.396908	1.021262
C118	C	-0.139050	-1.063589	0.354607
C119	C	0.194284	-0.730256	0.687940
C120	C	0.527617	-0.396922	1.021273
C121	C	-0.069082	-1.063639	0.354631
C122	C	0.264252	-0.730305	0.687964
C123	C	0.597585	-0.396972	1.021298
C124	C	-0.303251	-1.255425	0.354571
C125	C	0.030082	-0.922092	0.687905
C126	C	0.363415	-0.588758	1.021238
C127	C	-0.303256	-1.337224	0.354581
C128	C	0.030077	-1.003890	0.687914
C129	C	0.363410	-0.670557	1.021247
C130	C	-0.343554	-0.602275	0.401533
C131	C	-0.010221	-0.268941	0.734867
C132	C	0.323113	0.064392	1.068200
C133	C	-0.343556	-0.525416	0.401542
C134	C	-0.010223	-0.192082	0.734876
C135	C	0.323111	0.141251	1.068209
C136	C	-0.262938	-0.525422	0.307582
C137	C	0.070396	-0.192088	0.640916
C138	C	0.403729	0.141245	0.974249
C139	C	-0.262933	-0.602279	0.307577
C140	C	0.070400	-0.268946	0.640911
C141	C	0.403734	0.064388	0.974244
C142	C	-0.303245	-0.640703	0.354552
C143	C	0.030089	-0.307370	0.687885
C144	C	0.363422	0.025963	1.021218
C145	C	-0.303251	-0.486987	0.354566
C146	C	0.030082	-0.153654	0.687899
C147	C	0.363415	0.179679	1.021233
C148	C	-0.303253	-0.403654	0.354575
C149	C	0.030080	-0.070320	0.687909
C150	C	0.363413	0.263013	1.021242
C151	C	-0.303242	-0.724042	0.354543
C152	C	0.030091	-0.390709	0.687877
C153	C	0.363424	-0.057376	1.021210
C154	C	-0.303238	-1.063470	0.163344
C155	C	0.030095	-0.730136	0.496677
C156	C	0.363429	-0.396803	0.830010
C157	C	-0.303079	-1.063593	0.081545
C158	C	0.030254	-0.730260	0.414878
C159	C	0.363588	-0.396927	0.748212
C160	C	-0.262882	-1.110651	0.816516
C161	C	0.070451	-0.777317	1.149850
C162	C	0.403785	-0.443984	1.483183
C163	C	-0.262863	-1.110660	0.893375
C164	C	0.070470	-0.777326	1.226708
C165	C	0.403803	-0.443993	1.560042
C166	C	-0.343377	-1.016473	0.893325
C167	C	-0.010044	-0.683140	1.226659
C168	C	0.323289	-0.349807	1.559992
C169	C	-0.343392	-1.016461	0.816468
C170	C	-0.010059	-0.683128	1.149801
C171	C	0.323275	-0.349795	1.483134
C172	C	-0.303145	-1.063554	0.778065
C173	C	0.030188	-0.730221	1.111399
C174	C	0.363521	-0.396888	1.444732
C175	C	-0.303112	-1.063575	0.931781
C176	C	0.030221	-0.730242	1.265115
C177	C	0.363555	-0.396908	1.598448
C178	C	-0.303093	-1.063584	1.015115
C179	C	0.030241	-0.730251	1.348449
C180	C	0.363574	-0.396917	1.681782
C181	C	-0.303164	-1.063544	0.694726
C182	C	0.030170	-0.730211	1.028060
C183	C	0.363503	-0.396878	1.361393
H184	H	-0.542855	-1.148835	0.269202
H185	H	-0.209521	-0.815502	0.602535
H186	H	0.123812	-0.482168	0.935868
H187	H	-0.230118	-0.494127	0.269336
H188	H	0.103215	-0.160794	0.602670
H189	H	0.436548	0.172540	0.936003
C190	C	-0.934298	-1.162475	0.255853
C191	C	-0.600965	-0.829142	0.589186
C192	C	-0.267631	-0.495809	0.922519
N193	N	-0.907061	-1.201490	0.216891
N194	N	-0.573728	-0.868157	0.550224
N195	N	-0.240394	-0.534823	0.883558
H196	H	-0.943720	-0.978143	0.439914
H197	H	-0.610386	-0.644810	0.773248
H198	H	-0.277053	-0.311476	1.106581
H199	H	-0.662121	-1.148893	0.269231
H200	H	-0.328787	-0.815560	0.602565
H201	H	0.004546	-0.482227	0.935898
H202	H	-0.230076	-1.149009	0.924678
H203	H	0.103257	-0.815676	1.258012
H204	H	0.436591	-0.482342	1.591345
C205	C	-0.671545	-0.964565	0.453291
C206	C	-0.338212	-0.631231	0.786624
C207	C	-0.004879	-0.297898	1.119958
N208	N	-0.698789	-0.925556	0.492252
N209	N	-0.365455	-0.592223	0.825585
N210	N	-0.032122	-0.258890	1.158919
H211	H	-0.376377	-0.633557	0.439785
H212	H	-0.043044	-0.300224	0.773118
H213	H	0.290290	0.033109	1.106451
H214	H	-1.062958	-1.149076	0.269321
H215	H	-0.729625	-0.815743	0.602654
H216	H	-0.396292	-0.482409	0.935987
C217	C	-1.072383	-0.964742	0.453380
C218	C	-0.739050	-0.631409	0.786713
C219	C	-0.405716	-0.298076	1.120047
N220	N	-1.099626	-0.925737	0.492345
N221	N	-0.766292	-0.592404	0.825678
N222	N	-0.432959	-0.259070	1.159012
C223	C	-0.387645	-0.964672	0.935575
C224	C	-0.054312	-0.631339	1.268908
C225	C	0.279022	-0.298006	1.602242
N226	N	-0.420988	-0.925655	0.967397
N227	N	-0.087655	-0.592321	1.300730
N228	N	0.245678	-0.258988	1.634064
H229	H	-0.230104	-0.633569	0.269319
H230	H	0.103229	-0.300235	0.602653
H231	H	0.436562	0.033098	0.935986
C232	C	-0.387685	-0.964646	0.774169
C233	C	-0.054352	-0.631313	1.107503
C234	C	0.278982	-0.297980	1.440836
N235	N	-0.421044	-0.925619	0.742310
N236	N	-0.087710	-0.592286	1.075643
N237	N	0.245623	-0.258953	1.408977
H238	H	-0.376379	-0.494130	0.439801
H239	H	-0.043046	-0.160797	0.773134
H240	H	0.290288	0.172536	1.106467
H241	H	-0.542879	-0.977971	0.439840
H242	H	-0.209546	-0.644638	0.773174
H243	H	0.123787	-0.311304	1.106507
H244	H	-0.230109	-1.148995	0.785251
H245	H	0.103225	-0.815662	1.118585
H246	H	0.436558	-0.482328	1.451918
