data_functionalizedCrystal
_audit_creation_method	'MofGen! by Chris Wilmer'
_symmetry_space_group_name_H-M	'P1'
_symmetry_Int_Tables_number	1
_symmetry_cell_setting	triclinic
loop_
_symmetry_equiv_pos_as_xyz
  x,y,z
_cell_length_a	16.109301
_cell_length_b	10.654550
_cell_length_c	15.186229
_cell_angle_alpha	89.997420
_cell_angle_beta	89.999362
_cell_angle_gamma	83.973192
loop_
_atom_site_label
_atom_site_type_symbol
_atom_site_fract_x
_atom_site_fract_y
_atom_site_fract_z
O1	O	1.104090	0.161419	-0.073171
O2	O	0.862148	0.181507	-0.073184
O3	O	0.988682	-0.011352	-0.073174
O4	O	0.977556	0.354278	-0.073181
O5	O	0.988673	-0.011354	0.073283
O6	O	0.862139	0.181505	0.073273
O7	O	1.104082	0.161416	0.073287
Zn8	Zn	0.983109	0.171460	0.096533
Zn9	Zn	0.983120	0.171463	-0.096431
O10	O	0.977548	0.354275	0.073276
C11	C	0.831164	0.180692	0.000043
C12	C	0.738854	0.178253	0.000037
C13	C	0.517228	0.287019	0.000045
C14	C	0.430494	0.284717	0.000051
C15	C	0.449008	0.055896	0.000052
C16	C	0.535741	0.058199	0.000052
C17	C	0.569848	0.173764	0.000045
C18	C	0.396382	0.169159	0.000050
C19	C	0.302341	0.166662	0.000056
C20	C	0.663895	0.176262	0.000040
C21	C	0.987861	-0.058140	0.000054
C22	C	0.985417	-0.197550	0.000050
C23	C	1.059918	-0.278046	0.000057
C24	C	1.057616	-0.409036	0.000051
C25	C	0.906306	-0.379020	0.000035
C26	C	0.908608	-0.248033	0.000035
C27	C	1.136726	-0.227564	0.000073
C28	C	1.211233	-0.308061	0.000081
C29	C	1.208932	-0.439051	0.000075
C30	C	1.132123	-0.489543	0.000061
C31	C	1.135066	0.162231	0.000058
C32	C	1.227376	0.164671	0.000057
C33	C	0.978369	0.401063	0.000047
C34	C	0.980813	0.540473	0.000044
N35	N	0.983108	0.171457	0.228226
N36	N	0.983129	0.171457	-0.228123
C37	C	1.039156	0.086088	0.453953
C38	C	1.039159	0.086085	0.546143
C39	C	0.927074	0.256830	0.546143
C40	C	0.927068	0.256826	0.453955
C41	C	0.983114	0.171456	0.407862
C42	C	0.983122	0.171457	0.592240
C43	C	0.983125	0.171455	0.692196
C44	C	0.983111	0.171457	0.307900
H45	H	0.387654	0.376940	0.000053
H46	H	0.421227	-0.038193	0.000063
H47	H	1.130255	-0.596205	0.000046
C48	C	0.821825	-0.434559	0.000030
H49	H	0.831125	-0.524100	0.000040
H50	H	0.791117	-0.406927	-0.051044
H51	H	0.791118	-0.406928	0.051108
H52	H	1.084793	0.016568	0.583668
C53	C	0.865426	0.350742	0.403247
H54	H	0.873446	0.338504	0.341742
H55	H	0.874940	0.434560	0.418349
H56	H	0.809858	0.337080	0.418357
C57	C	1.139261	-0.083481	0.000075
H58	H	1.195673	-0.064941	0.000079
H59	H	1.111832	-0.048309	0.051143
H60	H	1.111850	-0.048306	-0.051009
H61	H	1.269599	-0.504589	0.000072
C62	C	0.593630	-0.066383	0.000051
H63	H	0.650169	-0.048457	0.000060
H64	H	0.583223	-0.113770	-0.051021
H65	H	0.583219	-0.113769	0.051131
C66	C	0.554745	0.414134	0.000046
H67	H	0.510981	0.481253	0.000055
H68	H	0.588195	0.419798	-0.051026
H69	H	0.588192	0.419782	0.051126
C70	C	1.295718	-0.252531	0.000093
H71	H	1.339758	-0.319236	0.000087
H72	H	1.299758	-0.202063	0.051168
H73	H	1.299765	-0.202052	-0.050985
H74	H	0.847943	-0.182490	0.000030
C75	C	1.100796	-0.007826	0.403254
H76	H	1.134167	-0.058676	0.443911
H77	H	1.135663	0.037356	0.367285
H78	H	1.070579	-0.060120	0.367300
C79	C	0.865408	0.350703	0.596843
H80	H	0.832018	0.401527	0.556187
H81	H	0.895593	0.403010	0.632814
H82	H	0.830550	0.305470	0.632796
