data_functionalizedCrystal
_audit_creation_method	'MofGen! by Chris Wilmer'
_symmetry_space_group_name_H-M	'P1'
_symmetry_Int_Tables_number	1
_symmetry_cell_setting	triclinic
loop_
_symmetry_equiv_pos_as_xyz
  x,y,z
_cell_length_a	19.077105
_cell_length_b	17.640280
_cell_length_c	19.077569
_cell_angle_alpha	76.074772
_cell_angle_beta	85.299277
_cell_angle_gamma	76.093206
loop_
_atom_site_label
_atom_site_type_symbol
_atom_site_fract_x
_atom_site_fract_y
_atom_site_fract_z
Zn1	Zn	1.154299	-0.349637	-0.381418
Zn2	Zn	1.487632	-0.016304	-0.048084
Zn3	Zn	1.820966	0.317030	0.285249
Zn4	Zn	1.173645	-0.489090	-0.239424
Zn5	Zn	1.506978	-0.155757	0.093909
Zn6	Zn	1.840312	0.177576	0.427243
Zn7	Zn	1.031683	-0.349648	-0.258811
Zn8	Zn	1.365017	-0.016315	0.074522
Zn9	Zn	1.698350	0.317018	0.407856
Zn10	Zn	1.058736	-0.478671	-0.354345
Zn11	Zn	1.392069	-0.145338	-0.021011
Zn12	Zn	1.725403	0.187995	0.312322
O13	O	1.104591	-0.416762	-0.308499
O14	O	1.437924	-0.083428	0.024834
O15	O	1.771257	0.249905	0.358167
O16	O	1.256270	-0.372491	-0.365798
O17	O	1.589604	-0.039158	-0.032465
O18	O	1.922937	0.294175	0.300868
O19	O	1.151588	-0.474958	-0.142590
O20	O	1.484921	-0.141625	0.190743
O21	O	1.818255	0.191708	0.524077
O22	O	1.028530	-0.237289	-0.294519
O23	O	1.361864	0.096045	0.038814
O24	O	1.695197	0.429378	0.372148
O25	O	1.270484	-0.474947	-0.261476
O26	O	1.603817	-0.141614	0.071857
O27	O	1.937150	0.191720	0.405190
O28	O	1.118616	-0.237280	-0.384597
O29	O	1.451949	0.096053	-0.051264
O30	O	1.785282	0.429387	0.282069
O31	O	1.047289	-0.372511	-0.156833
O32	O	1.380623	-0.039178	0.176500
O33	O	1.713956	0.294156	0.509833
O34	O	0.935867	-0.362408	-0.268267
O35	O	1.269200	-0.029075	0.065066
O36	O	1.602534	0.304259	0.398399
O37	O	1.074638	-0.457190	-0.457342
O38	O	1.407971	-0.123856	-0.124008
O39	O	1.741305	0.209477	0.209325
O40	O	0.955743	-0.457201	-0.338455
O41	O	1.289076	-0.123867	-0.005122
O42	O	1.622409	0.209466	0.328211
O43	O	1.144848	-0.362388	-0.477232
O44	O	1.478181	-0.029055	-0.143899
O45	O	1.811514	0.304278	0.189434
O46	O	1.177820	-0.600067	-0.235225
O47	O	1.511153	-0.266733	0.098109
O48	O	1.844487	0.066600	0.431442
O49	O	1.093397	-0.592412	-0.319656
O50	O	1.426730	-0.259079	0.013677
O51	O	1.760064	0.074255	0.347010
C52	C	0.920030	-0.408676	-0.302528
C53	C	1.253364	-0.075342	0.030806
C54	C	1.586697	0.257991	0.364139
C55	C	0.841078	-0.405235	-0.299986
C56	C	1.174412	-0.071902	0.033347
C57	C	1.507745	0.261432	0.366680
C58	C	0.814364	-0.453053	-0.335251
C59	C	1.147698	-0.119719	-0.001917
C60	C	1.481031	0.213614	0.331416
C61	C	0.740179	-0.449809	-0.332868
C62	C	1.073512	-0.116476	0.000465
C63	C	1.406846	0.216858	0.333798
C64	C	0.692709	-0.398751	-0.295217
C65	C	1.026043	-0.065418	0.038117
C66	C	1.359376	0.267915	0.371450
C67	C	0.719428	-0.350929	-0.259951
C68	C	1.052761	-0.017595	0.073382
C69	C	1.386094	0.315738	0.406715
C70	C	0.793611	-0.354168	-0.262338
C71	C	1.126945	-0.020835	0.070995
C72	C	1.460278	0.312498	0.404328
C73	C	0.469730	-0.383757	-0.284172
C74	C	0.803063	-0.050423	0.049162
C75	C	1.136397	0.282910	0.382495
C76	C	0.395542	-0.380522	-0.281785
C77	C	0.728875	-0.047189	0.051548
C78	C	1.062209	0.286145	0.384881
C79	C	0.416298	-0.479402	-0.354704
C80	C	0.749632	-0.146068	-0.021370
C81	C	1.082965	0.187265	0.311963
C82	C	0.490483	-0.482641	-0.357084
C83	C	0.823816	-0.149307	-0.023750
C84	C	1.157150	0.184026	0.309583
C85	C	0.517194	-0.434815	-0.321822
C86	C	0.850528	-0.101481	0.011512
C87	C	1.183861	0.231852	0.344845
N88	N	0.616880	-0.395437	-0.292778
N89	N	0.950213	-0.062103	0.040555
N90	N	1.283547	0.271230	0.373888
N91	N	0.593022	-0.438126	-0.324265
N92	N	0.926355	-0.104793	0.009069
N93	N	1.259689	0.228541	0.342402
C94	C	1.140663	-0.625373	-0.272415
C95	C	1.473997	-0.292039	0.060918
C96	C	1.807330	0.041294	0.394251
C97	C	1.156161	-0.714619	-0.257004
C98	C	1.489494	-0.381286	0.076329
C99	C	1.822828	-0.047953	0.409663
C100	C	0.987156	-0.988353	-0.425844
C101	C	1.320490	-0.655020	-0.092510
C102	C	1.653823	-0.321686	0.240823
C103	C	1.001719	-1.072215	-0.411340
C104	C	1.335053	-0.738881	-0.078007
C105	C	1.668386	-0.405548	0.255327
C106	C	1.089688	-1.080119	-0.323515
C107	C	1.423022	-0.746785	0.009818
C108	C	1.756355	-0.413452	0.343152
C109	C	1.075135	-0.996256	-0.338014
C110	C	1.408469	-0.662923	-0.004680
C111	C	1.741802	-0.329589	0.328653
C112	C	1.023868	-0.950380	-0.389178
C113	C	1.357201	-0.617046	-0.055845
C114	C	1.690535	-0.283713	0.277488
C115	C	1.111847	-0.958282	-0.301348
C116	C	1.445180	-0.624949	0.031985
C117	C	1.778514	-0.291616	0.365318
C118	C	1.097292	-0.874427	-0.315844
C119	C	1.430625	-0.541094	0.017490
C120	C	1.763959	-0.207760	0.350823
C121	C	1.046025	-0.828545	-0.367004
C122	C	1.379359	-0.495212	-0.033671
C123	C	1.712692	-0.161878	0.299663
C124	C	1.009313	-0.866524	-0.403673
C125	C	1.342646	-0.533191	-0.070340
C126	C	1.675980	-0.199858	0.262993
C127	C	1.163110	-1.004160	-0.250181
C128	C	1.496444	-0.670827	0.083153
C129	C	1.829777	-0.337494	0.416486
C130	C	1.199822	-0.966187	-0.213515
C131	C	1.533155	-0.632853	0.119818
C132	C	1.866489	-0.299520	0.453152
C133	C	1.185271	-0.882330	-0.228014
C134	C	1.518604	-0.548997	0.105320
C135	C	1.851938	-0.215663	0.438653
C136	C	1.134004	-0.836448	-0.279174
C137	C	1.467338	-0.503115	0.054159
C138	C	1.800671	-0.169781	0.387492
C139	C	1.221983	-0.844351	-0.191344
C140	C	1.555317	-0.511018	0.141989
C141	C	1.888650	-0.177684	0.475322
C142	C	1.207428	-0.760496	-0.205840
C143	C	1.540762	-0.427162	0.127494
C144	C	1.874095	-0.093829	0.460827
C145	C	1.119449	-0.752593	-0.293669
C146	C	1.452783	-0.419259	0.039664
C147	C	1.786116	-0.085926	0.372997
C148	C	1.289872	-0.424880	-0.314495
C149	C	1.623205	-0.091547	0.018839
C150	C	1.956539	0.241787	0.352172
C151	C	1.368828	-0.428340	-0.317050
C152	C	1.702161	-0.095006	0.016284
C153	C	2.035495	0.238327	0.349617
C154	C	1.110603	-0.408625	-0.493783
C155	C	1.443936	-0.075292	-0.160449
C156	C	1.777269	0.258041	0.172884
C157	C	1.113165	-0.405158	-0.572739
C158	C	1.446498	-0.071825	-0.239406
C159	C	1.779831	0.261508	0.093928
C160	C	1.068397	-0.207336	-0.344741
C161	C	1.401731	0.125997	-0.011407
C162	C	1.735064	0.459330	0.321926
C163	C	1.052974	-0.118092	-0.360184
C164	C	1.386307	0.215242	-0.026851
C165	C	1.719641	0.548575	0.306482
C166	C	1.077814	-0.452883	-0.599479
C167	C	1.411147	-0.119550	-0.266146
C168	C	1.744481	0.213783	0.067188
C169	C	1.080227	-0.449626	-0.673667
C170	C	1.413560	-0.116292	-0.340334
C171	C	1.746894	0.217041	-0.007001
C172	C	1.117987	-0.398638	-0.721115
C173	C	1.451320	-0.065305	-0.387782
C174	C	1.784653	0.268028	-0.054449
C175	C	1.153342	-0.350911	-0.694371
C176	C	1.486675	-0.017578	-0.361037
C177	C	1.820008	0.315755	-0.027704
C178	C	1.150933	-0.354174	-0.620183
C179	C	1.484266	-0.020840	-0.286850
C180	C	1.817599	0.312493	0.046484
C181	C	1.129116	-0.383593	-0.944103
C182	C	1.462449	-0.050259	-0.610770
C183	C	1.795782	0.283074	-0.277437
C184	C	1.131520	-0.380332	-1.018296
C185	C	1.464854	-0.046999	-0.684962
C186	C	1.798187	0.286334	-0.351629
C187	C	1.058406	-0.479048	-0.997587
C188	C	1.391740	-0.145715	-0.664254
C189	C	1.725073	0.187618	-0.330921
C190	C	1.055997	-0.482302	-0.923400
C191	C	1.389330	-0.148969	-0.590066
C192	C	1.722664	0.184364	-0.256733
C193	C	1.091355	-0.434579	-0.896661
C194	C	1.424689	-0.101245	-0.563328
C195	C	1.758022	0.232088	-0.229994
N196	N	1.120452	-0.395305	-0.796948
N197	N	1.453786	-0.061972	-0.463615
N198	N	1.787119	0.271361	-0.130282
N199	N	1.088894	-0.437916	-0.820829
N200	N	1.422227	-0.104583	-0.487495
N201	N	1.755560	0.228750	-0.154162
C202	C	1.098633	-0.424810	-0.123948
C203	C	1.431967	-0.091477	0.209385
C204	C	1.765300	0.241856	0.542718
C205	C	1.096170	-0.428057	-0.045036
C206	C	1.429503	-0.094724	0.288298
C207	C	1.762836	0.238609	0.621631
H208	H	0.356892	-0.338935	-0.251131
H209	H	0.690225	-0.005602	0.082203
H210	H	1.023558	0.327731	0.415536
H211	H	1.077708	-0.715238	-0.335338
H212	H	1.411041	-0.381905	-0.002005
H213	H	1.744374	-0.048571	0.331328
H214	H	1.241562	-1.003551	-0.171855
H215	H	1.574895	-0.670217	0.161478
H216	H	1.908228	-0.336884	0.494812
H217	H	0.491470	-0.344820	-0.255452
H218	H	0.824803	-0.011486	0.077881
H219	H	1.158136	0.321847	0.411215
N220	N	1.015236	-0.537262	-0.872230
N221	N	1.348569	-0.203929	-0.538896
N222	N	1.681903	0.129405	-0.205563
H223	H	0.993196	-0.566992	-0.900429
H224	H	1.326530	-0.233659	-0.567095
H225	H	1.659863	0.099675	-0.233762
H226	H	1.049546	-0.577050	-0.835935
H227	H	1.382879	-0.243717	-0.502602
H228	H	1.716212	0.089616	-0.169269
N229	N	1.037084	-0.507881	-0.548314
N230	N	1.370418	-0.174548	-0.214981
N231	N	1.703751	0.158785	0.118353
H232	H	1.071381	-0.547710	-0.512028
H233	H	1.404714	-0.214376	-0.178695
H234	H	1.738048	0.118957	0.154638
H235	H	0.997524	-0.475107	-0.522166
H236	H	1.330858	-0.141774	-0.188833
H237	H	1.664191	0.191560	0.144500
H238	H	1.179719	-0.315311	-0.598413
H239	H	1.513052	0.018023	-0.265080
H240	H	1.846385	0.351356	0.068253
N241	N	0.387490	-0.530976	-0.392744
N242	N	0.720823	-0.197642	-0.059411
N243	N	1.054157	0.135691	0.273923
H244	H	0.409956	-0.589376	-0.372124
H245	H	0.743290	-0.256043	-0.038791
H246	H	1.076623	0.077290	0.294543
H247	H	0.333293	-0.521112	-0.385512
H248	H	0.666626	-0.187778	-0.052179
H249	H	0.999959	0.145555	0.281155
N250	N	1.194065	-0.295917	-0.745549
N251	N	1.527399	0.037416	-0.412215
N252	N	1.860732	0.370749	-0.078882
H253	H	1.172699	-0.238634	-0.742204
H254	H	1.506032	0.094699	-0.408870
H255	H	1.839366	0.428033	-0.075537
H256	H	1.246548	-0.311247	-0.732096
H257	H	1.579882	0.022087	-0.398763
H258	H	1.913215	0.355420	-0.065430
N259	N	1.020262	-0.530510	-1.026428
N260	N	1.353596	-0.197176	-0.693094
N261	N	1.686929	0.136157	-0.359761
H262	H	1.027513	-0.520705	-1.080625
H263	H	1.360846	-0.187372	-0.747292
H264	H	1.694180	0.145961	-0.413958
H265	H	1.040800	-0.588911	-1.003900
H266	H	1.374133	-0.255577	-0.670567
H267	H	1.707467	0.077756	-0.337233
H268	H	0.971829	-1.103129	-0.441210
H269	H	1.305163	-0.769796	-0.107877
H270	H	1.638496	-0.436462	0.225457
N271	N	0.865562	-0.508128	-0.375855
N272	N	1.198895	-0.174795	-0.042522
N273	N	1.532229	0.158539	0.290811
H274	H	0.837379	-0.537927	-0.397834
H275	H	1.170712	-0.204593	-0.064501
H276	H	1.504045	0.128740	0.268833
H277	H	0.891775	-0.475403	-0.415411
H278	H	1.225109	-0.142070	-0.082077
H279	H	1.558442	0.191264	0.251256
N280	N	0.668234	-0.295874	-0.219325
N281	N	1.001568	0.037460	0.114009
N282	N	1.334901	0.370793	0.447342
H283	H	0.617186	-0.301085	-0.223154
H284	H	0.950519	0.032249	0.110179
H285	H	1.283853	0.365582	0.443513
H286	H	0.681705	-0.311096	-0.166848
H287	H	1.015038	0.022238	0.166486
H288	H	1.348371	0.355571	0.499819
H289	H	0.718433	-0.488748	-0.361584
H290	H	1.051766	-0.155415	-0.028250
H291	H	1.385099	0.177919	0.305083
H292	H	1.157907	-0.344733	-0.922342
H293	H	1.491240	-0.011400	-0.589009
H294	H	1.824574	0.321934	-0.255676
H295	H	0.815359	-0.315226	-0.233627
H296	H	1.148692	0.018107	0.099707
H297	H	1.482026	0.351441	0.433040
N298	N	0.541682	-0.537714	-0.397689
N299	N	0.875015	-0.204381	-0.064356
N300	N	1.208348	0.128952	0.268978
H301	H	0.513501	-0.567516	-0.419668
H302	H	0.846834	-0.234183	-0.086334
H303	H	1.180168	0.099151	0.246999
H304	H	0.567897	-0.504991	-0.437244
H305	H	0.901230	-0.171658	-0.103911
H306	H	1.234563	0.161676	0.229422
H307	H	1.034171	-0.760265	-0.378800
H308	H	1.367504	-0.426932	-0.045467
H309	H	1.700837	-0.093598	0.287867
N310	N	0.931856	-0.938866	-0.481024
N311	N	1.265190	-0.605532	-0.147691
N312	N	1.598523	-0.272199	0.185642
H313	H	0.928207	-0.879982	-0.484639
H314	H	1.261540	-0.546649	-0.151306
H315	H	1.594874	-0.213316	0.182028
H316	H	0.947055	-0.951751	-0.529596
H317	H	1.280388	-0.618417	-0.196262
H318	H	1.613722	-0.285084	0.137071
N319	N	1.172252	-0.325338	-1.069472
N320	N	1.505585	0.007996	-0.736139
N321	N	1.838919	0.341329	-0.402805
H322	H	1.224744	-0.340606	-1.056048
H323	H	1.558077	-0.007273	-0.722715
H324	H	1.891410	0.326060	-0.389382
H325	H	1.168352	-0.330537	-1.120507
H326	H	1.501685	0.002797	-0.787174
H327	H	1.835019	0.336130	-0.453840
N328	N	0.954023	-0.817027	-0.458861
N329	N	1.287357	-0.483694	-0.125528
N330	N	1.620690	-0.150361	0.207805
H331	H	0.969192	-0.829848	-0.507464
H332	H	1.302525	-0.496514	-0.174130
H333	H	1.635858	-0.163181	0.159203
H334	H	0.905478	-0.829950	-0.443557
H335	H	1.238811	-0.496616	-0.110224
H336	H	1.572144	-0.163283	0.223110
H337	H	1.263720	-0.881716	-0.149681
H338	H	1.597053	-0.548383	0.183652
H339	H	1.930386	-0.215049	0.516985
H340	H	1.131428	-1.117482	-0.281855
H341	H	1.464762	-0.784149	0.051479
H342	H	1.798095	-0.450816	0.384812
N343	N	1.178806	-1.094605	-0.234544
N344	N	1.512139	-0.761271	0.098789
N345	N	1.845473	-0.427938	0.432123
H346	H	1.196911	-1.113212	-0.280217
H347	H	1.530245	-0.779879	0.053117
H348	H	1.863578	-0.446546	0.386450
H349	H	1.216831	-1.117842	-0.196544
H350	H	1.550164	-0.784509	0.136789
H351	H	1.883498	-0.451175	0.470123
H352	H	1.237322	-0.729578	-0.175982
H353	H	1.570656	-0.396244	0.157351
H354	H	1.903989	-0.062911	0.490685
H355	H	1.051442	-0.488490	-0.695435
H356	H	1.384775	-0.155156	-0.362101
H357	H	1.718108	0.178177	-0.028768
