data_functionalizedCrystal
_audit_creation_method	'MofGen! by Chris Wilmer'
_symmetry_space_group_name_H-M	'P1'
_symmetry_Int_Tables_number	1
_symmetry_cell_setting	triclinic
loop_
_symmetry_equiv_pos_as_xyz
  x,y,z
_cell_length_a	16.776229
_cell_length_b	17.699083
_cell_length_c	17.699083
_cell_angle_alpha	96.716985
_cell_angle_beta	90.008282
_cell_angle_gamma	90.004823
loop_
_atom_site_label
_atom_site_type_symbol
_atom_site_fract_x
_atom_site_fract_y
_atom_site_fract_z
O1	O	0.066178	-1.004072	0.095715
O2	O	0.066204	-0.783693	0.108167
O3	O	0.066183	-0.900109	-0.008248
O4	O	0.066199	-0.887656	0.212130
O5	O	-0.066393	-0.900107	-0.008259
O6	O	-0.066372	-0.783691	0.108157
O7	O	-0.066398	-1.004070	0.095704
Zn8	Zn	-0.087435	-0.893880	0.101929
Zn9	Zn	0.087241	-0.893883	0.101942
O10	O	-0.066378	-0.887654	0.212120
C11	C	-0.000105	-0.899662	-0.036451
C12	C	-0.000105	-0.898323	-0.120469
C13	C	-0.000081	-0.755495	0.107716
C14	C	-0.000071	-0.671477	0.106377
N15	N	-0.206646	-0.893884	0.101919
N16	N	0.206452	-0.893885	0.101946
C17	C	0.248160	-0.945529	0.050499
C18	C	0.331612	-0.945532	0.050497
C19	C	0.373355	-0.893887	0.101939
C20	C	0.331641	-0.842240	0.153392
C21	C	0.248190	-0.842241	0.153397
C22	C	0.668188	-0.842234	0.153374
C23	C	0.751645	-0.842236	0.153364
C24	C	0.751610	-0.945525	0.050473
C25	C	0.668159	-0.945527	0.050478
C26	C	0.626453	-0.893883	0.101934
C27	C	0.535964	-0.893881	0.101936
C28	C	0.463842	-0.893884	0.101934
C29	C	-0.000112	-1.032268	0.096156
C30	C	-0.000116	-1.116286	0.097494
C31	C	-0.000066	-0.622856	0.174710
C32	C	-0.000077	-0.543913	0.173448
C33	C	-0.000086	-0.513592	0.103852
C34	C	-0.000093	-0.562219	0.035513
C35	C	-0.000088	-0.641161	0.036776
C36	C	-0.000113	-0.243856	0.030418
C37	C	-0.000115	-0.164908	0.029160
C38	C	-0.000101	-0.146608	0.167090
C39	C	-0.000097	-0.225550	0.168353
C40	C	-0.000108	-0.274170	0.100015
C41	C	-0.000098	-0.359769	0.101384
C42	C	-0.000090	-0.427995	0.102481
C43	C	-0.000114	-0.966656	-0.169090
C44	C	-0.000107	-0.965394	-0.248033
C45	C	-0.000096	-0.895798	-0.278354
C46	C	-0.000085	-0.827459	-0.229727
C47	C	-0.000086	-0.828722	-0.150785
C48	C	-0.000078	-0.822364	-0.548090
C49	C	-0.000078	-0.821106	-0.627038
C50	C	-0.000099	-0.959036	-0.645338
C51	C	-0.000100	-0.960299	-0.566396
C52	C	-0.000084	-0.891961	-0.517776
C53	C	-0.000090	-0.893330	-0.432177
C54	C	-0.000096	-0.894427	-0.363951
C55	C	-0.000087	-0.888102	0.240322
C56	C	-0.000082	-0.889440	0.324340
H57	H	0.365570	-0.987585	0.008605
H58	H	-0.000071	-0.770792	-0.254420
O59	O	-0.000116	-1.039096	-0.300478
H60	H	-0.054147	-1.041811	-0.336896
H61	H	-0.000113	-1.016971	-0.541714
H62	H	-0.000107	-1.014680	-0.684934
O63	O	-0.000081	-0.748660	-0.495653
H64	H	-0.000087	-0.700056	-0.530002
O65	O	-0.000098	-0.693603	-0.036929
H66	H	-0.000103	-0.753589	-0.024359
O67	O	0.203206	-0.786539	0.208891
H68	H	0.138165	-0.795222	0.200259
H69	H	0.634175	-0.987579	0.008587
O70	O	-0.000118	-1.041722	-0.136387
H71	H	-0.000113	-1.089025	-0.183462
H72	H	-0.000078	-0.773078	-0.111198
H73	H	0.214178	-0.987582	0.008605
H74	H	0.785576	-0.987579	0.008578
O75	O	0.796673	-0.786536	0.208857
H76	H	0.753653	-0.750631	0.244644
O77	O	-0.000061	-0.746038	-0.659745
H78	H	-0.000042	-0.698730	-0.612675
H79	H	-0.000072	-0.504328	0.229092
H80	H	0.634237	-0.800183	0.195269
O81	O	-0.000125	-0.296293	-0.043286
H82	H	-0.000125	-0.261944	-0.091890
H83	H	-0.000058	-0.647537	0.231384
H84	H	-0.000085	-0.250232	0.225025
O85	O	0.376658	-0.786519	0.208864
H86	H	0.441694	-0.795182	0.200207
O87	O	-0.000107	-0.094169	0.240803
H88	H	-0.000123	-0.034181	0.228237
H89	H	-0.000124	-0.140225	-0.027517
O90	O	-0.000106	-0.529522	-0.039555
H91	H	-0.000101	-0.466461	-0.028955
