data_functionalizedCrystal
_audit_creation_method	'MofGen! by Chris Wilmer'
_symmetry_space_group_name_H-M	'P1'
_symmetry_Int_Tables_number	1
_symmetry_cell_setting	triclinic
loop_
_symmetry_equiv_pos_as_xyz
  x,y,z
_cell_length_a	17.019372
_cell_length_b	17.038272
_cell_length_c	15.500237
_cell_angle_alpha	93.033514
_cell_angle_beta	91.029213
_cell_angle_gamma	87.242864
loop_
_atom_site_label
_atom_site_type_symbol
_atom_site_fract_x
_atom_site_fract_y
_atom_site_fract_z
O1	O	1.053042	0.099898	0.006440
O2	O	1.553042	0.599898	0.506440
O3	O	0.825041	0.111748	-0.010534
O4	O	1.325041	0.611748	0.489466
O5	O	0.937686	-0.007996	-0.002141
O6	O	1.437686	0.492004	0.497859
O7	O	0.940397	0.219642	-0.001953
O8	O	1.440397	0.719642	0.498047
O9	O	0.930847	-0.000757	0.141238
O10	O	1.430847	0.499243	0.641238
O11	O	0.818202	0.118986	0.132845
O12	O	1.318202	0.618986	0.632845
O13	O	1.046203	0.107137	0.149819
O14	O	1.546203	0.607137	0.649819
Cu15	Cu	0.931578	0.113723	0.154424
Cu16	Cu	1.431578	0.613723	0.654424
Cu17	Cu	0.939666	0.105162	-0.015139
Cu18	Cu	1.439666	0.605162	0.484861
O19	O	0.933558	0.226881	0.141426
O20	O	1.433558	0.726881	0.641426
C21	C	0.792304	0.114776	0.058973
C22	C	1.292304	0.614776	0.558973
C23	C	0.704948	0.113006	0.052470
C24	C	1.204948	0.613006	0.552470
C25	C	0.211070	0.102765	0.011712
C26	C	0.711070	0.602765	0.511712
C27	C	0.293150	0.104429	0.017834
C28	C	0.793150	0.604429	0.517834
C29	C	0.330454	0.109213	0.099052
C30	C	0.830454	0.609213	0.599052
C31	C	0.285674	0.112325	0.174152
C32	C	0.785674	0.612325	0.674152
C33	C	0.203596	0.110655	0.168030
C34	C	0.703596	0.610655	0.668030
C35	C	0.578090	0.114447	0.121448
C36	C	1.078090	0.614447	0.621448
C37	C	0.660174	0.116119	0.127565
C38	C	1.160174	0.616119	0.627565
C39	C	0.667644	0.108223	-0.028754
C40	C	1.167644	0.608223	0.471246
C41	C	0.585564	0.106558	-0.034869
C42	C	1.085564	0.606558	0.465131
C43	C	0.540792	0.109665	0.040231
C44	C	1.040792	0.609665	0.540231
C45	C	0.414353	0.110917	0.105311
C46	C	0.914353	0.610917	0.605311
C47	C	0.456895	0.107956	0.033971
C48	C	0.956895	0.607956	0.533971
C49	C	0.931802	-0.033512	0.069365
C50	C	1.431802	0.466488	0.569365
C51	C	0.924447	-0.120326	0.068817
C52	C	1.424447	0.379674	0.568817
C53	C	0.991967	-0.170246	0.073845
C54	C	1.491967	0.329754	0.573845
C55	C	0.985053	-0.251817	0.073322
C56	C	1.485053	0.248183	0.573322
C57	C	0.910618	-0.283466	0.067777
C58	C	1.410618	0.216534	0.567777
C59	C	0.843093	-0.233539	0.062747
C60	C	1.343093	0.266461	0.562747
C61	C	0.850008	-0.151970	0.063264
C62	C	1.350008	0.348030	0.563264
C63	C	0.886187	-0.529294	0.065947
C64	C	1.386187	-0.029294	0.565947
C65	C	0.879277	-0.610869	0.065433
C66	C	1.379277	-0.110869	0.565433
C67	C	1.021238	-0.629142	0.076006
C68	C	1.521238	-0.129142	0.576006
C69	C	1.028146	-0.547570	0.076528
C70	C	1.528146	-0.047570	0.576528
C71	C	0.960622	-0.497651	0.071493
C72	C	1.460622	0.002349	0.571493
C73	C	0.903548	-0.366844	0.067245
C74	C	1.403548	0.133156	0.567245
C75	C	0.967692	-0.414275	0.072018
C76	C	1.467692	0.085725	0.572018
C77	C	1.078940	0.104109	0.080310
C78	C	1.578940	0.604109	0.580310
C79	C	1.166296	0.105879	0.086807
C80	C	1.666296	0.605879	0.586807
C81	C	0.939442	0.252397	0.069918
C82	C	1.439442	0.752397	0.569918
C83	C	0.946797	0.339210	0.070460
C84	C	1.446797	0.839210	0.570460
N85	N	0.925896	0.119743	0.273685
N86	N	1.425896	0.619743	0.773685
C87	C	0.973646	0.069022	0.322520
C88	C	1.473646	0.569022	0.822520
C89	C	0.969357	0.073583	0.412773
C90	C	1.469357	0.573583	0.912773
C91	C	0.917320	0.128868	0.454190
C92	C	1.417320	0.628868	0.954190
C93	C	0.869564	0.179591	0.405349
C94	C	1.369564	0.679591	0.905349
C95	C	0.873850	0.175026	0.315098
C96	C	1.373850	0.675026	0.815098
C97	C	0.901878	0.145298	0.726507
C98	C	1.401878	0.645298	1.226507
C99	C	0.897597	0.149861	0.816765
C100	C	1.397597	0.649861	1.316765
C101	C	0.997389	0.043851	0.824183
C102	C	1.497389	0.543851	1.324183
C103	C	1.001674	0.039295	0.733929
C104	C	1.501674	0.539295	1.233929
C105	C	0.953916	0.090015	0.685096
C106	C	1.453916	0.590015	1.185096
C107	C	0.912936	0.133532	0.546444
C108	C	1.412936	0.633532	1.046444
C109	C	0.958296	0.085346	0.592844
C110	C	1.458296	0.585346	1.092844
N111	N	0.945348	0.099140	0.865600
N112	N	1.445348	0.599140	1.365600
H113	H	0.690544	0.120020	0.193706
H114	H	1.190544	0.620020	0.693706
C115	C	1.099875	-0.065041	0.750329
C116	C	1.599875	0.434959	1.250329
C117	C	1.058870	-0.021481	0.688405
C118	C	1.558870	0.478519	1.188405
H119	H	1.135183	-0.102563	0.722222
H120	H	1.635183	0.397437	1.222222
H121	H	1.128650	-0.030621	0.787781
H122	H	1.628650	0.469379	1.287781
H123	H	1.063599	-0.091492	0.782971
H124	H	1.563599	0.408508	1.282971
H125	H	1.095146	0.004974	0.655768
H126	H	1.595146	0.504974	1.155768
H127	H	1.030093	-0.055907	0.650938
H128	H	1.530093	0.444093	1.150938
C129	C	0.102601	0.180512	0.251496
C130	C	0.602601	0.680512	0.751496
C131	C	0.154375	0.114078	0.250575
C132	C	0.654375	0.614078	0.750575
H133	H	0.072212	0.182618	0.302455
H134	H	0.572212	0.682618	0.802455
H135	H	0.131825	0.226549	0.250418
H136	H	0.631825	0.726549	0.750418
H137	H	0.068644	0.177415	0.202245
H138	H	0.568644	0.677415	0.702245
H139	H	0.188336	0.117178	0.299823
H140	H	0.688336	0.617178	0.799823
H141	H	0.125148	0.068029	0.251662
H142	H	0.625148	0.568029	0.751662
C143	C	0.463063	0.100499	-0.113661
C144	C	0.963063	0.600499	0.386339
C145	C	0.544561	0.101301	-0.124146
C146	C	1.044561	0.601301	0.375854
H147	H	0.437750	0.097261	-0.168778
H148	H	0.937750	0.597261	0.331222
H149	H	0.451029	0.056292	-0.082335
H150	H	0.951029	0.556292	0.417665
H151	H	0.445137	0.147407	-0.082770
H152	H	0.945137	0.647407	0.417230
H153	H	0.562488	0.054390	-0.155031
H154	H	1.062488	0.554390	0.344969
H155	H	0.556601	0.145512	-0.155486
H156	H	1.056601	0.645512	0.344514
H157	H	0.704107	0.105692	-0.089896
H158	H	1.204107	0.605692	0.410104
H159	H	0.862993	0.186598	0.686754
H160	H	1.362993	0.686598	1.186754
H161	H	1.040035	-0.292459	0.077417
H162	H	1.540035	0.207541	0.577417
H163	H	0.541647	0.116966	0.182601
H164	H	1.041647	0.616966	0.682601
C165	C	0.408175	0.118400	0.252948
C166	C	0.908175	0.618400	0.752948
C167	C	0.326677	0.117586	0.263429
C168	C	0.826677	0.617586	0.763429
H169	H	0.433484	0.121655	0.308066
H170	H	0.933484	0.621655	0.808066
H171	H	0.426108	0.071497	0.222070
H172	H	0.926108	0.571497	0.722070
H173	H	0.420202	0.162610	0.221609
H174	H	0.920202	0.662610	0.721609
H175	H	0.314649	0.073372	0.294763
H176	H	0.814649	0.573372	0.794763
H177	H	0.308737	0.164494	0.294320
H178	H	0.808737	0.664494	0.794320
H179	H	1.000662	0.040330	0.559119
H180	H	1.500662	0.540330	1.059119
H181	H	0.834966	0.216327	0.275337
H182	H	1.334966	0.716327	0.775337
C183	C	0.802295	0.155291	0.640098
C184	C	1.302295	0.655291	1.140098
C185	C	0.855744	0.194304	0.591980
C186	C	1.355744	0.694304	1.091980
H187	H	0.766990	0.192810	0.668217
H188	H	1.266990	0.692810	1.168217
H189	H	0.773516	0.120885	0.602634
H190	H	1.273516	0.620885	1.102634
H191	H	0.830131	0.125731	0.682089
H192	H	1.330131	0.625731	1.182089
H193	H	0.827907	0.223860	0.549985
H194	H	1.327907	0.723860	1.049985
H195	H	0.884525	0.228725	0.629447
H196	H	1.384525	0.728725	1.129447
H197	H	0.818660	-0.636633	0.060932
H198	H	1.318660	-0.136633	0.560932
H199	H	0.795026	-0.111325	0.059170
H200	H	1.295026	0.388675	0.559170
H201	H	0.426519	0.104058	-0.032156
H202	H	0.926519	0.604058	0.467844
H203	H	0.855220	0.194884	0.850483
H204	H	1.355220	0.694884	1.350483
C205	C	1.070361	0.062101	0.522132
C206	C	1.570361	0.562101	1.022132
C207	C	1.021846	0.017836	0.466460
C208	C	1.521846	0.517836	0.966460
H209	H	1.102762	0.027683	0.555280
H210	H	1.602762	0.527683	1.055280
H211	H	1.102477	0.092955	0.489177
H212	H	1.602477	0.592955	0.989177
H213	H	1.038743	0.095676	0.559705
H214	H	1.538743	0.595676	1.059705
H215	H	1.053465	-0.015735	0.428882
H216	H	1.553465	0.484265	0.928882
H217	H	0.989727	-0.013032	0.499418
H218	H	1.489727	0.486968	0.999418
C219	C	0.226707	0.095123	-0.142185
C220	C	0.726707	0.595123	0.357815
C221	C	0.170070	0.097508	-0.077566
C222	C	0.670070	0.597508	0.422434
H223	H	0.201396	0.091872	-0.197302
H224	H	0.701396	0.591872	0.302698
H225	H	0.255615	0.141492	-0.136771
H226	H	0.755615	0.641492	0.363229
H227	H	0.261515	0.050379	-0.136314
H228	H	0.761515	0.550379	0.363686
H229	H	0.135265	0.142256	-0.083434
H230	H	0.635265	0.642256	0.416566
H231	H	0.141149	0.051134	-0.082983
H232	H	0.641149	0.551134	0.417017
H233	H	1.088759	-0.521808	0.081042
H234	H	1.588759	-0.021808	0.581042
H235	H	0.444735	0.114813	0.171439
H236	H	0.944735	0.614813	0.671439
H237	H	1.076212	-0.669794	0.080103
H238	H	1.576212	-0.169794	0.580103
H239	H	0.827191	0.224603	0.439076
H240	H	1.327191	0.724603	0.939076
H241	H	0.329602	0.101889	-0.043316
H242	H	0.829602	0.601889	0.456684
C243	C	1.061332	-0.336857	0.005029
C244	C	1.561332	0.163143	0.505029
C245	C	1.049509	-0.379486	0.078113
C246	C	1.549509	0.120514	0.578113
H247	H	1.111841	-0.315371	0.008799
H248	H	1.611841	0.184629	0.508799
H249	H	1.058081	-0.370822	-0.045381
H250	H	1.558081	0.129178	0.454619
H251	H	1.022099	-0.295459	0.002114
H252	H	1.522099	0.204541	0.502114
H253	H	1.088739	-0.420888	0.081025
H254	H	1.588739	0.079112	0.581025
H255	H	1.052767	-0.345519	0.128537
H256	H	1.552767	0.154481	0.628537
H257	H	0.831204	-0.488659	0.061847
H258	H	1.331204	0.011341	0.561847
H259	H	0.782487	-0.259314	0.058227
H260	H	1.282487	0.240686	0.558227
C261	C	1.131593	-0.196510	0.084228
C262	C	1.631593	0.303490	0.584228
C263	C	1.073790	-0.135462	0.079933
C264	C	1.573790	0.364538	0.579933
H265	H	1.182108	-0.175036	0.087979
H266	H	1.682108	0.324964	0.587979
H267	H	1.123562	-0.225420	0.133805
H268	H	1.623562	0.274580	0.633805
H269	H	1.128318	-0.230467	0.033805
H270	H	1.628318	0.269533	0.533805
H271	H	1.077062	-0.101508	0.130360
H272	H	1.577062	0.398492	0.630360
H273	H	1.081824	-0.106539	0.030351
H274	H	1.581824	0.393461	0.530351
H275	H	1.016024	0.024007	0.288804
H276	H	1.516024	0.524007	0.788804
C277	C	0.816941	-0.451699	-0.013164
C278	C	1.316941	0.048301	0.486836
C279	C	0.821731	-0.401639	0.061160
C280	C	1.321731	0.098361	0.561160
H281	H	0.766432	-0.473186	-0.016916
H282	H	1.266432	0.026814	0.483084
H283	H	0.824960	-0.422775	-0.062733
H284	H	1.324960	0.077225	0.437267
H285	H	0.856174	-0.493096	-0.010238
H286	H	1.356174	0.006904	0.489762
H287	H	0.782501	-0.360239	0.058232
H288	H	1.282501	0.139761	0.558232
H289	H	0.813703	-0.430565	0.110742
H290	H	1.313703	0.069435	0.610742
H291	H	1.036271	0.002557	0.863951
H292	H	1.536271	0.502557	1.363951
