data_functionalizedCrystal
_audit_creation_method	'MofGen! by Chris Wilmer'
_symmetry_space_group_name_H-M	'P1'
_symmetry_Int_Tables_number	1
_symmetry_cell_setting	triclinic
loop_
_symmetry_equiv_pos_as_xyz
  x,y,z
_cell_length_a	12.759401
_cell_length_b	19.805405
_cell_length_c	12.759393
_cell_angle_alpha	89.963446
_cell_angle_beta	89.979062
_cell_angle_gamma	90.027935
loop_
_atom_site_label
_atom_site_type_symbol
_atom_site_fract_x
_atom_site_fract_y
_atom_site_fract_z
Zn1	Zn	1.606181	-0.269403	-0.593976
Zn2	Zn	1.939514	0.063930	-0.260643
Zn3	Zn	2.272848	0.397264	0.072691
Zn4	Zn	1.606036	-0.382606	-0.418277
Zn5	Zn	1.939369	-0.049272	-0.084944
Zn6	Zn	2.272703	0.284061	0.248389
Zn7	Zn	1.430480	-0.269439	-0.418311
Zn8	Zn	1.763813	0.063894	-0.084978
Zn9	Zn	2.097146	0.397228	0.248356
Zn10	Zn	1.430436	-0.382558	-0.593915
Zn11	Zn	1.763769	-0.049225	-0.260581
Zn12	Zn	2.097102	0.284108	0.072752
O13	O	1.518283	-0.326001	-0.506120
O14	O	1.851616	0.007332	-0.172786
O15	O	2.184950	0.340665	0.160547
O16	O	1.753183	-0.284424	-0.570681
O17	O	2.086516	0.048909	-0.237347
O18	O	2.419849	0.382242	0.095986
O19	O	1.582706	-0.367629	-0.271261
O20	O	1.916039	-0.034295	0.062073
O21	O	2.249373	0.299038	0.395406
O22	O	1.453866	-0.174718	-0.441653
O23	O	1.787199	0.158616	-0.108320
O24	O	2.120532	0.491949	0.225014
O25	O	1.753076	-0.367594	-0.441596
O26	O	2.086410	-0.034260	-0.108262
O27	O	2.419743	0.299073	0.225071
O28	O	1.582953	-0.174691	-0.570713
O29	O	1.916286	0.158642	-0.237380
O30	O	2.249619	0.491976	0.095953
O31	O	1.453725	-0.284486	-0.271285
O32	O	1.787059	0.048848	0.062048
O33	O	2.120392	0.382181	0.395381
O34	O	1.283453	-0.284440	-0.441594
O35	O	1.616786	0.048894	-0.108260
O36	O	1.950119	0.382227	0.225073
O37	O	1.453791	-0.367513	-0.740944
O38	O	1.787124	-0.034180	-0.407611
O39	O	2.120457	0.299154	-0.074277
O40	O	1.283420	-0.367548	-0.570609
O41	O	1.616754	-0.034215	-0.237276
O42	O	1.950087	0.299119	0.096058
O43	O	1.582910	-0.284378	-0.740989
O44	O	1.916243	0.048955	-0.407656
O45	O	2.249577	0.382288	-0.074322
O46	O	1.582663	-0.477316	-0.441536
O47	O	1.915997	-0.143983	-0.108203
O48	O	2.249330	0.189351	0.225130
O49	O	1.453650	-0.477281	-0.570576
O50	O	1.786984	-0.143948	-0.237243
O51	O	2.120317	0.189385	0.096090
C52	C	1.245316	-0.325993	-0.506099
C53	C	1.578649	0.007340	-0.172766
C54	C	1.911982	0.340674	0.160568
C55	C	1.128539	-0.326006	-0.506115
C56	C	1.461872	0.007327	-0.172782
C57	C	1.795206	0.340661	0.160552
C58	C	1.073688	-0.369346	-0.573187
C59	C	1.407021	-0.036013	-0.239854
C60	C	1.740354	0.297320	0.093479
C61	C	0.963964	-0.369349	-0.573208
C62	C	1.297297	-0.036016	-0.239875
C63	C	1.630630	0.297318	0.093458
C64	C	0.963952	-0.282669	-0.439075
C65	C	1.297285	0.050665	-0.105742
C66	C	1.630619	0.383998	0.227592
C67	C	1.073674	-0.282663	-0.439060
C68	C	1.407007	0.050670	-0.105727
C69	C	1.740341	0.384003	0.227606
C70	C	1.518165	-0.501858	-0.506069
C71	C	1.851498	-0.168524	-0.172736
C72	C	2.184831	0.164809	0.160598
C73	C	1.518210	-0.577089	-0.506082
C74	C	1.851544	-0.243756	-0.172749
C75	C	2.184877	0.089577	0.160584
C76	C	1.585453	-0.612429	-0.438962
C77	C	1.918786	-0.279096	-0.105628
C78	C	2.252119	0.054237	0.227705
C79	C	1.585497	-0.683118	-0.438985
C80	C	1.918831	-0.349784	-0.105651
C81	C	2.252164	-0.016451	0.227682
C82	C	1.518294	-0.718465	-0.506124
C83	C	1.851627	-0.385132	-0.172791
C84	C	2.184960	-0.051798	0.160542
C85	C	1.451048	-0.683120	-0.573252
C86	C	1.784382	-0.349787	-0.239919
C87	C	2.117715	-0.016454	0.093414
C88	C	1.451010	-0.612433	-0.573234
C89	C	1.784343	-0.279100	-0.239900
C90	C	2.117676	0.054233	0.093433
C91	C	1.451203	-0.968194	-0.573330
C92	C	1.784537	-0.634860	-0.239997
C93	C	2.117870	-0.301527	0.093336
C94	C	1.451245	-1.038886	-0.573342
C95	C	1.784578	-0.705552	-0.240008
C96	C	2.117911	-0.372219	0.093325
C97	C	1.585691	-1.038878	-0.439081
C98	C	1.919024	-0.705545	-0.105748
C99	C	2.252357	-0.372211	0.227585
C100	C	1.585652	-0.968191	-0.439063
C101	C	1.918986	-0.634858	-0.105729
C102	C	2.252319	-0.301524	0.227604
C103	C	1.518411	-0.932852	-0.506194
C104	C	1.851745	-0.599519	-0.172861
C105	C	2.185078	-0.266186	0.160472
C106	C	1.518365	-0.856204	-0.506170
C107	C	1.851699	-0.522871	-0.172836
C108	C	2.185032	-0.189537	0.160497
C109	C	1.518334	-0.795112	-0.506144
C110	C	1.851667	-0.461779	-0.172811
C111	C	2.185000	-0.128445	0.160522
C112	C	1.792316	-0.326010	-0.506141
C113	C	2.125650	0.007323	-0.172808
C114	C	2.458983	0.340656	0.160525
C115	C	1.909093	-0.326014	-0.506150
C116	C	2.242426	0.007319	-0.172817
C117	C	2.575760	0.340653	0.160516
C118	C	1.518362	-0.325936	-0.780153
C119	C	1.851695	0.007397	-0.446820
C120	C	2.185028	0.340730	-0.113487
C121	C	1.518395	-0.325909	-0.896930
C122	C	1.851729	0.007425	-0.563597
C123	C	2.185062	0.340758	-0.230263
C124	C	1.518430	-0.149459	-0.506194
C125	C	1.851764	0.183875	-0.172860
C126	C	2.185097	0.517208	0.160473
C127	C	1.518493	-0.074227	-0.506225
C128	C	1.851826	0.259107	-0.172892
C129	C	2.185160	0.592440	0.160441
C130	C	1.585633	-0.282614	-0.951817
C131	C	1.918966	0.050720	-0.618484
C132	C	2.252299	0.384053	-0.285150
C133	C	1.585650	-0.282584	-1.061541
C134	C	1.918984	0.050749	-0.728208
C135	C	2.252317	0.384082	-0.394875
C136	C	1.451190	-0.369151	-1.061481
C137	C	1.784524	-0.035818	-0.728148
C138	C	2.117857	0.297515	-0.394815
C139	C	1.451168	-0.369177	-0.951759
C140	C	1.784501	-0.035843	-0.618426
C141	C	2.117835	0.297490	-0.285093
C142	C	1.518265	-0.326017	-0.233152
C143	C	1.851598	0.007316	0.100181
C144	C	2.184932	0.340649	0.433514
C145	C	1.518435	-0.325854	-0.116376
C146	C	1.851769	0.007479	0.216957
C147	C	2.185102	0.340812	0.550290
H148	H	1.640173	-0.583654	-0.384284
H149	H	1.973506	-0.250321	-0.050951
H150	H	2.306840	0.083013	0.282382
H151	H	1.396334	-0.711906	-0.627923
H152	H	1.729668	-0.378572	-0.294590
H153	H	2.063001	-0.045239	0.038744
H154	H	0.919267	-0.247382	-0.384480
H155	H	1.252601	0.085951	-0.051147
H156	H	1.585934	0.419285	0.282187
O157	O	1.378482	-0.574317	-0.645631
O158	O	1.711815	-0.240984	-0.312298
O159	O	2.045148	0.092350	0.021036
H160	H	1.389752	-0.519226	-0.634348
H161	H	1.723086	-0.185892	-0.301014
H162	H	2.056419	0.147441	0.032319
H163	H	1.640400	-0.247328	-1.106225
H164	H	1.973733	0.086005	-0.772892
H165	H	2.307067	0.419339	-0.439559
O166	O	1.378684	-0.415819	-1.120617
O167	O	1.712018	-0.082486	-0.787284
O168	O	2.045351	0.250847	-0.453950
H169	H	1.390000	-0.408533	-1.206136
H170	H	1.723333	-0.075199	-0.872802
H171	H	2.056666	0.258134	-0.539469
H172	H	1.118356	-0.404637	-0.627790
H173	H	1.451689	-0.071304	-0.294457
H174	H	1.785022	0.262030	0.038876
H175	H	1.640370	-0.247380	-0.907178
H176	H	1.973704	0.085953	-0.573845
H177	H	2.307037	0.419287	-0.240512
O178	O	1.132839	-0.235912	-0.366713
O179	O	1.466172	0.097421	-0.033380
O180	O	1.799505	0.430755	0.299953
H181	H	1.218352	-0.243185	-0.377980
H182	H	1.551686	0.090148	-0.044646
H183	H	1.885019	0.423482	0.288687
H184	H	0.919309	-0.404640	-0.627827
H185	H	1.252642	-0.071307	-0.294494
H186	H	1.585975	0.262027	0.038840
H187	H	1.640252	-0.711888	-0.384328
H188	H	1.973585	-0.378555	-0.050994
H189	H	2.306919	-0.045221	0.282339
O190	O	1.378614	-0.415856	-0.892547
O191	O	1.711948	-0.082523	-0.559214
O192	O	2.045281	0.250811	-0.225880
H193	H	1.331871	-0.445938	-0.949105
H194	H	1.665204	-0.112605	-0.615771
H195	H	1.998537	0.220728	-0.282438
H196	H	1.640372	-0.939413	-0.384388
H197	H	1.973705	-0.606080	-0.051055
H198	H	2.307039	-0.272747	0.282279
H199	H	1.640446	-1.067659	-0.384424
H200	H	1.973779	-0.734326	-0.051090
H201	H	2.307112	-0.400992	0.282243
H202	H	1.396521	-1.067663	-0.628022
H203	H	1.729854	-0.734330	-0.294689
H204	H	2.063187	-0.400997	0.038644
H205	H	1.396452	-0.939426	-0.627989
H206	H	1.729785	-0.606093	-0.294656
H207	H	2.063118	-0.272760	0.038678
