data_functionalizedCrystal
_audit_creation_method	'MofGen! by Chris Wilmer'
_symmetry_space_group_name_H-M	'P1'
_symmetry_Int_Tables_number	1
_symmetry_cell_setting	triclinic
loop_
_symmetry_equiv_pos_as_xyz
  x,y,z
_cell_length_a	10.723022
_cell_length_b	15.944551
_cell_length_c	9.198806
_cell_angle_alpha	89.995864
_cell_angle_beta	89.996352
_cell_angle_gamma	83.982982
loop_
_atom_site_label
_atom_site_type_symbol
_atom_site_fract_x
_atom_site_fract_y
_atom_site_fract_z
O1	O	1.655701	0.117802	-0.120886
O2	O	1.292405	0.129080	-0.120892
O3	O	1.483974	0.001223	-0.120876
O4	O	1.464132	0.245659	-0.120902
O5	O	1.483959	0.001222	0.120909
O6	O	1.292390	0.129079	0.120893
O7	O	1.655685	0.117801	0.120899
Cu8	Cu	1.474037	0.123440	0.142973
Cu9	Cu	1.474054	0.123441	-0.142966
O10	O	1.464117	0.245659	0.120883
C11	C	1.245909	0.128259	0.000000
C12	C	1.107385	0.125804	-0.000001
C13	C	0.888335	0.194808	-0.000012
C14	C	1.031506	0.197346	-0.000010
C15	C	1.483143	-0.030076	0.000017
C16	C	1.480673	-0.123336	0.000018
C17	C	1.356027	-0.338906	-0.000004
C18	C	1.413901	-0.399592	0.119211
C19	C	1.476206	-0.294088	0.000006
C20	C	1.413945	-0.399575	-0.119170
C21	C	1.471881	-0.459025	-0.000011
C22	C	1.534112	-0.353546	0.119320
C23	C	1.534139	-0.353522	-0.119168
C24	C	1.592100	-0.414191	0.000077
C25	C	1.478693	-0.199071	0.000018
C26	C	1.469403	-0.554040	-0.000011
C27	C	1.702182	0.118622	0.000003
C28	C	1.840706	0.121077	-0.000005
C29	C	1.464948	0.276957	-0.000013
C30	C	1.467418	0.370218	-0.000024
N31	N	1.474033	0.123440	0.344087
N32	N	1.474068	0.123435	-0.344080
C33	C	1.554470	0.069519	0.416290
C34	C	1.554489	0.069516	0.583703
H35	H	0.823119	0.256052	-0.000028
Br36	Br	1.668917	-0.007636	0.312763
H37	H	1.363105	-0.419943	-0.219964
H38	H	1.623360	0.023356	0.645795
H39	H	1.405203	0.169604	0.593837
H40	H	1.405177	0.169598	0.406209
H41	H	1.584894	-0.333265	0.220218
H42	H	1.256274	-0.306169	0.000113
Br43	Br	1.099856	0.302570	-0.000003
Br44	Br	1.758506	-0.468508	0.000181
Br45	Br	1.039044	0.020578	0.000026
Br46	Br	1.618802	-0.319483	-0.287161
H47	H	0.905922	0.059833	-0.000006
Br48	Br	1.329176	-0.433592	0.287198
