data_functionalizedCrystal
_audit_creation_method	'MofGen! by Chris Wilmer'
_symmetry_space_group_name_H-M	'P1'
_symmetry_Int_Tables_number	1
_symmetry_cell_setting	triclinic
loop_
_symmetry_equiv_pos_as_xyz
  x,y,z
_cell_length_a	12.784905
_cell_length_b	12.837942
_cell_length_c	9.482900
_cell_angle_alpha	100.328050
_cell_angle_beta	81.701790
_cell_angle_gamma	83.968130
loop_
_atom_site_label
_atom_site_type_symbol
_atom_site_fract_x
_atom_site_fract_y
_atom_site_fract_z
O1	O	1.425755	-0.011129	-0.120904
O2	O	1.925755	0.488871	0.379096
O3	O	1.120756	0.032863	-0.120905
O4	O	1.620756	0.532863	0.379095
O5	O	1.266491	-0.139425	-0.120895
O6	O	1.766491	0.360575	0.379105
O7	O	1.280020	0.161159	-0.120913
O8	O	1.780020	0.661159	0.379087
O9	O	1.236902	-0.104301	0.120895
O10	O	1.736902	0.395699	0.620895
O11	O	1.091167	0.067987	0.120886
O12	O	1.591167	0.567987	0.620886
O13	O	1.396166	0.023995	0.120887
O14	O	1.896166	0.523995	0.620887
Cu15	Cu	1.240965	0.049198	0.142964
Cu16	Cu	1.740965	0.549198	0.642964
Cu17	Cu	1.275957	0.007660	-0.142981
Cu18	Cu	1.775957	0.507660	0.357019
O19	O	1.250430	0.196283	0.120878
O20	O	1.750430	0.696283	0.620878
C21	C	1.066652	0.053286	-0.000009
C22	C	1.566652	0.553286	0.499991
C23	C	0.949520	0.061799	-0.000009
C24	C	1.449520	0.561799	0.499991
C25	C	0.735571	-0.111646	-0.000025
C26	C	1.235571	0.388354	0.499975
C27	C	0.625516	-0.103652	-0.000025
C28	C	1.125516	0.396348	0.499975
C29	C	0.619354	0.085778	-0.000021
C30	C	1.119354	0.585778	0.499979
C31	C	0.729409	0.077784	-0.000020
C32	C	1.229409	0.577784	0.499980
C33	C	0.787514	-0.020931	-0.000020
C34	C	1.287514	0.479069	0.499980
C35	C	0.897570	-0.028922	-0.000010
C36	C	1.397570	0.471078	0.499990
C37	C	0.891407	0.160506	-0.000015
C38	C	1.391407	0.660506	0.499985
C39	C	0.781352	0.168500	-0.000016
C40	C	1.281352	0.668500	0.499984
C41	C	1.247128	-0.160072	-0.000001
C42	C	1.747128	0.339928	0.499999
C43	C	1.233500	-0.273921	-0.000003
C44	C	1.733500	0.226079	0.499997
C45	C	1.397335	-0.529651	-0.000033
C46	C	1.897335	-0.029651	0.499967
C47	C	1.384536	-0.636623	-0.000035
C48	C	1.884536	-0.136623	0.499965
C49	C	1.195104	-0.594842	-0.000021
C50	C	1.695104	-0.094842	0.499979
C51	C	1.207904	-0.487869	-0.000018
C52	C	1.707904	0.012131	0.499982
C53	C	1.309022	-0.455278	-0.000022
C54	C	1.809022	0.044722	0.499978
C55	C	1.321819	-0.348302	-0.000009
C56	C	1.821819	0.151698	0.499991
C57	C	1.132390	-0.306524	-0.000005
C58	C	1.632390	0.193476	0.499995
C59	C	1.119590	-0.413497	-0.000008
C60	C	1.619590	0.086503	0.499992
C61	C	1.450271	0.003571	-0.000011
C62	C	1.950271	0.503571	0.499989
C63	C	1.567403	-0.004943	-0.000021
C64	C	2.067403	0.495057	0.499979
C65	C	1.269795	0.216929	-0.000020
C66	C	1.769795	0.716929	0.499980
C67	C	1.283423	0.330777	-0.000027
C68	C	1.783423	0.830777	0.499973
N69	N	1.216360	0.078413	0.344082
N70	N	1.716360	0.578413	0.844082
N71	N	1.300569	-0.021564	-0.344100
N72	N	1.800569	0.478436	0.155900
C73	C	1.268692	0.016272	0.416285
C74	C	1.768692	0.516272	0.916285
C75	C	1.248230	0.040586	0.583701
C76	C	1.748230	0.540586	1.083701
H77	H	0.583229	-0.177522	-0.000032
H78	H	1.083229	0.322478	0.499968
H79	H	0.572028	0.166144	-0.000040
H80	H	1.072028	0.666144	0.499960
Cl81	Cl	0.992479	-0.454482	-0.000015
Cl82	Cl	1.492479	0.045518	0.499985
Cl83	Cl	1.360996	-0.093869	0.320378
Cl84	Cl	1.860996	0.406131	0.820378
H85	H	1.188269	0.111789	0.645822
H86	H	1.688269	0.611789	1.145822
H87	H	1.360521	-0.092773	0.593779
H88	H	1.860521	0.407227	1.093779
Cl89	Cl	0.708297	0.292590	-0.000024
Cl90	Cl	1.208297	0.792590	0.499976
Cl91	Cl	1.021359	-0.213017	0.000027
Cl92	Cl	1.521359	0.286983	0.500027
H93	H	0.933709	0.234374	-0.000004
H94	H	1.433709	0.734374	0.499996
H95	H	1.404154	-0.321768	-0.000007
H96	H	1.904154	0.178232	0.499993
Cl97	Cl	1.524447	-0.488669	-0.000002
Cl98	Cl	2.024447	0.011331	0.499998
Cl99	Cl	1.123790	0.188341	0.439990
Cl100	Cl	1.623790	0.688341	0.939990
Cl101	Cl	1.068000	-0.635840	-0.000059
Cl102	Cl	1.568000	-0.135840	0.499941
Cl103	Cl	1.495564	-0.730119	-0.000053
Cl104	Cl	1.995564	-0.230119	0.499947
Cl105	Cl	0.808618	-0.235738	-0.000005
Cl106	Cl	1.308618	0.264262	0.499995
H107	H	0.944877	-0.109301	-0.000007
H108	H	1.444877	0.390699	0.499993
