data_functionalizedCrystal
_audit_creation_method	'MofGen! by Chris Wilmer'
_symmetry_space_group_name_H-M	'P1'
_symmetry_Int_Tables_number	1
_symmetry_cell_setting	triclinic
loop_
_symmetry_equiv_pos_as_xyz
  x,y,z
_cell_length_a	19.805407
_cell_length_b	18.101395
_cell_length_c	19.805399
_cell_angle_alpha	89.974882
_cell_angle_beta	89.980427
_cell_angle_gamma	90.031104
loop_
_atom_site_label
_atom_site_type_symbol
_atom_site_fract_x
_atom_site_fract_y
_atom_site_fract_z
Zn1	Zn	1.034714	-0.294847	-0.382731
Zn2	Zn	1.034619	-0.418690	-0.269548
Zn3	Zn	0.921528	-0.294867	-0.269556
Zn4	Zn	0.921482	-0.418651	-0.382695
O5	O	0.978086	-0.356764	-0.326132
O6	O	1.129418	-0.311283	-0.367729
O7	O	1.019597	-0.402290	-0.174832
O8	O	0.936601	-0.191232	-0.284587
O9	O	1.129348	-0.402270	-0.284574
O10	O	1.019758	-0.191217	-0.367737
O11	O	0.936510	-0.311318	-0.174838
O12	O	0.826806	-0.311279	-0.284552
O13	O	0.936523	-0.402203	-0.477416
O14	O	0.826772	-0.402223	-0.367674
O15	O	1.019714	-0.311245	-0.477443
O16	O	1.019553	-0.522318	-0.284538
O17	O	0.936432	-0.522289	-0.367667
C18	C	0.802230	-0.356750	-0.326110
C19	C	0.726998	-0.356761	-0.326117
C20	C	0.977995	-0.549174	-0.326112
C21	C	0.978018	-0.631489	-0.326127
C22	C	0.691654	-0.404187	-0.369329
C23	C	0.620965	-0.404188	-0.369339
C24	C	0.585622	-0.356767	-0.326132
C25	C	0.620971	-0.309336	-0.282919
C26	C	0.691658	-0.309332	-0.282913
C27	C	0.335898	-0.309353	-0.282941
C28	C	0.265206	-0.309363	-0.282948
C29	C	0.265205	-0.404209	-0.369367
C30	C	0.335892	-0.404205	-0.369361
C31	C	0.371235	-0.356771	-0.326150
C32	C	0.447883	-0.356770	-0.326141
C33	C	0.508975	-0.356772	-0.326137
C34	C	0.978167	-0.930579	-0.326163
C35	C	0.925991	-0.899267	-0.378595
C36	C	0.925743	-0.813649	-0.378431
C37	C	0.978093	-0.782197	-0.326146
C38	C	0.958782	-0.813345	-0.254811
C39	C	0.958446	-0.898990	-0.255125
C40	C	1.049768	-0.898924	-0.344438
C41	C	1.049347	-0.813273	-0.346002
C42	C	0.978053	-0.698337	-0.326131
C43	C	0.978206	-1.014439	-0.326173
C44	C	1.154629	-0.356779	-0.326155
C45	C	1.229861	-0.356785	-0.326164
C46	C	0.978124	-0.356717	-0.502675
C47	C	0.978140	-0.356697	-0.577907
C48	C	0.978195	-0.163602	-0.326167
C49	C	0.978242	-0.081288	-0.326182
C50	C	1.021458	-0.309333	-0.613266
C51	C	1.021465	-0.309311	-0.683955
C52	C	0.978157	-0.356659	-0.719283
C53	C	0.934834	-0.404025	-0.683919
C54	C	0.934824	-0.404042	-0.613231
C55	C	0.934872	-0.403956	-0.968992
C56	C	0.934887	-0.403937	-1.039684
C57	C	1.021513	-0.309225	-1.039716
C58	C	1.021503	-0.309242	-0.969028
C59	C	0.978178	-0.356606	-0.933670
C60	C	0.978170	-0.356628	-0.857022
C61	C	0.978168	-0.356641	-0.795930
C62	C	0.978087	-0.356757	-0.150276
C63	C	0.978202	-0.356568	-0.075045
H64	H	0.592192	-0.442808	-0.404525
H65	H	0.592189	-0.270722	-0.247742
H66	H	0.236420	-0.442829	-0.404554
O67	O	0.888091	-0.455120	-0.575094
H68	H	0.899662	-0.513244	-0.588643
O69	O	0.374000	-0.258200	-0.236322
H70	H	0.406230	-0.220548	-0.266664
O71	O	0.888116	-0.455090	-0.722017
H72	H	0.895403	-0.447126	-0.777111
H73	H	0.364665	-0.442822	-0.404542
H74	H	1.067374	-0.920474	-0.395569
O75	O	0.856114	-0.927853	-0.362769
H76	H	0.821982	-0.880578	-0.352417
H77	H	0.720435	-0.270709	-0.247729
O78	O	1.068219	-0.258179	-0.930926
H79	H	1.037943	-0.220510	-0.898717
H80	H	0.899617	-0.442494	-1.068446
H81	H	0.937825	-0.792587	-0.431325
O82	O	0.729774	-0.455331	-0.415933
H83	H	0.693318	-0.488303	-0.445988
O84	O	1.101330	-0.925738	-0.293922
H85	H	1.140959	-0.957837	-0.320538
H86	H	0.872670	-0.793225	-0.366326
O87	O	1.068226	-0.258116	-1.077850
H88	H	1.060950	-0.266043	-1.132939
H89	H	0.236431	-0.270742	-0.247765
O90	O	0.889117	-0.925549	-0.234626
H91	H	0.856144	-0.877220	-0.224586
O92	O	0.888111	-0.455000	-0.930859
H93	H	0.857991	-0.487910	-0.967303
O94	O	0.941584	-0.926842	-0.448827
H95	H	0.986720	-0.963114	-0.447125
H96	H	0.994801	-0.919706	-0.214727
H97	H	0.995590	-0.792973	-0.214680
H98	H	0.906997	-0.791960	-0.239053
H99	H	1.063910	-0.792912	-0.398501
O100	O	1.103566	-0.784943	-0.299088
H101	H	1.080471	-0.748107	-0.260714
H102	H	1.056741	-0.270744	-0.712741
H103	H	1.056727	-0.270779	-0.584508
