data_functionalizedCrystal
_audit_creation_method	'MofGen! by Chris Wilmer'
_symmetry_space_group_name_H-M	'P1'
_symmetry_Int_Tables_number	1
_symmetry_cell_setting	triclinic
loop_
_symmetry_equiv_pos_as_xyz
  x,y,z
_cell_length_a	27.354012
_cell_length_b	27.353283
_cell_length_c	27.349551
_cell_angle_alpha	60.005606
_cell_angle_beta	60.011434
_cell_angle_gamma	59.993282
loop_
_atom_site_label
_atom_site_type_symbol
_atom_site_fract_x
_atom_site_fract_y
_atom_site_fract_z
O1	O	0.067635	-0.714267	0.597330
O2	O	0.025429	-0.556105	0.481282
O3	O	0.125575	-0.656186	0.481214
O4	O	-0.032512	-0.614186	0.597397
O5	O	0.158797	-0.622968	0.514367
O6	O	0.058650	-0.522887	0.514434
O7	O	0.100856	-0.681048	0.630482
Zn8	Zn	0.085028	-0.596693	0.577722
Zn9	Zn	0.041257	-0.640460	0.534042
O10	O	0.000709	-0.580967	0.630549
N11	N	0.114901	-0.566828	0.607534
N12	N	0.011389	-0.670331	0.504229
C13	C	0.179404	-0.338196	0.672015
C14	C	0.179501	-0.502386	0.836160
C15	C	0.179415	-0.502363	0.671996
C16	C	0.343611	-0.502373	0.671960
C17	C	0.197478	-0.392371	0.690061
C18	C	0.197534	-0.484321	0.781984
C19	C	0.289434	-0.484312	0.690032
C20	C	0.197486	-0.484308	0.690051
C21	C	0.156398	-0.269238	0.649045
C22	C	0.156418	-0.525342	0.649015
C23	C	0.220484	-0.461329	0.713032
C24	C	0.443889	-0.485097	0.619172
C25	C	0.506571	-0.505993	0.598266
C26	C	0.506589	-0.607412	0.636940
C27	C	0.443909	-0.586515	0.657848
C28	C	0.171510	-0.237888	0.587422
C29	C	0.150593	-0.175201	0.566543
C30	C	0.099458	-0.175218	0.668913
C31	C	0.120375	-0.237905	0.689792
C32	C	0.094789	-0.510201	0.664176
C33	C	0.073888	-0.531091	0.643278
C34	C	0.176239	-0.582263	0.592072
C35	C	0.197142	-0.561373	0.612963
C36	C	0.094933	-0.510244	0.936476
C37	C	0.074073	-0.531151	0.999161
C38	C	0.176453	-0.582335	0.999126
C39	C	0.197312	-0.561429	0.936439
C40	C	0.156551	-0.525382	0.905116
C41	C	0.412561	-0.525357	0.648961
C42	C	-0.098513	-0.688235	0.485867
C43	C	-0.006461	-0.688368	0.394066
C44	C	-0.006645	-0.780264	0.486040
C45	C	-0.006630	-0.688361	0.486097
C46	C	-0.029562	-0.711308	0.463018
N47	N	0.537030	-0.566846	0.607436
O48	O	0.741877	-0.576849	0.459995
O49	O	0.742050	-0.693241	0.618010
O50	O	0.741986	-0.692977	0.517791
O51	O	0.741941	-0.577114	0.560214
O52	O	0.642405	-0.659839	0.551046
O53	O	0.642469	-0.660104	0.651265
O54	O	0.642296	-0.543712	0.493251
Zn55	Zn	0.626572	-0.596646	0.577538
Zn56	Zn	0.757774	-0.640307	0.533723
O57	O	0.642360	-0.543976	0.593469
N58	N	0.847316	-0.670107	0.503818
N59	N	0.114877	-0.144758	0.607577
O60	O	-0.032498	0.060193	0.597441
O61	O	0.125523	0.060193	0.481067
O62	O	0.025289	0.060179	0.481345
O63	O	0.067736	0.060207	0.597163
O64	O	0.058511	-0.039410	0.514543
O65	O	0.158745	-0.039397	0.514265
O66	O	0.000724	-0.039396	0.630638
Zn67	Zn	0.085009	-0.055208	0.577722
Zn68	Zn	0.041238	0.076005	0.533983
O69	O	0.100958	-0.039382	0.630360
N70	N	0.011362	0.165555	0.504130
N71	N	0.115121	-0.566884	1.029592
O72	O	0.104990	-0.714248	1.234528
O73	O	-0.011371	-0.556177	1.234539
O74	O	-0.011103	-0.656395	1.234497
O75	O	0.104722	-0.614030	1.234569
O76	O	0.022090	-0.623190	1.134913
O77	O	0.021822	-0.522972	1.134954
O78	O	0.138182	-0.681044	1.134943
Zn79	Zn	0.085272	-0.596736	1.119137
Zn80	Zn	0.041539	-0.640484	1.250344
O81	O	0.137914	-0.580826	1.134984
N82	N	0.011689	-0.670343	1.339890
C83	C	0.038085	-0.519567	0.481870
C84	C	0.162104	-0.643505	0.481786
C85	C	0.088200	-0.717587	0.629893
C86	C	-0.035819	-0.593649	0.629977
C87	C	0.692280	-0.692701	0.654545
C88	C	0.692203	-0.692374	0.530435
C89	C	0.692063	-0.544251	0.456717
C90	C	0.692144	-0.544580	0.580825
C91	C	0.162000	0.010521	0.481600
C92	C	0.037914	0.010381	0.481984
C93	C	-0.035795	0.010399	0.630065
C94	C	0.088333	0.010415	0.629722
C95	C	-0.010799	-0.519660	1.184747
C96	C	-0.010461	-0.643761	1.184677
C97	C	0.137610	-0.717561	1.184734
C98	C	0.137280	-0.593452	1.184783
H99	H	0.023897	-0.518815	1.024687
N100	N	0.540361	-0.462566	0.566132
H101	H	0.566350	-0.464254	0.524374
H102	H	0.566350	-0.473723	0.588861
N103	N	-0.095904	0.010391	0.678466
H104	H	-0.095975	0.010393	0.715429
H105	H	-0.103643	-0.026537	0.688447
H106	H	0.692134	-0.508185	0.589902
H107	H	-0.081227	-0.584696	0.666460
H108	H	0.097420	0.010424	0.666105
N109	N	-0.059191	-0.459525	1.184745
H110	H	-0.043843	-0.432762	1.184762
H111	H	-0.095365	-0.465121	1.221653
N112	N	-0.058644	-0.655739	1.184596
H113	H	-0.043108	-0.697886	1.184573
H114	H	-0.070208	-0.626330	1.147661
N115	N	0.186000	-0.777698	1.184745
H116	H	0.170651	-0.804463	1.184733
H117	H	0.197551	-0.796709	1.221677
N118	N	0.185481	-0.581456	1.184808
H119	H	0.169950	-0.539305	1.184818
H120	H	0.221681	-0.586237	1.147894
H121	H	0.207290	0.010797	0.444973
N122	N	0.410124	-0.629943	0.689978
H123	H	0.384101	-0.618809	0.667294
H124	H	0.384170	-0.628242	0.731735
H125	H	0.028825	0.010378	0.445599
H126	H	0.207509	-0.652460	0.445301
N127	N	0.050864	-0.471331	0.703049
H128	H	0.057246	-0.431379	0.682718
H129	H	0.057291	-0.491714	0.742990
H130	H	0.097215	-0.763020	0.666340
H131	H	0.061737	-0.480889	0.910978
N132	N	0.691992	-0.495841	0.396609
H133	H	0.655065	-0.485828	0.388840
H134	H	0.728919	-0.510430	0.364222
H135	H	0.692221	-0.728771	0.521355
N136	N	0.220419	-0.621201	1.032908
H137	H	0.246433	-0.658891	1.021988
H138	H	0.197812	-0.632102	1.077365
N139	N	0.263775	-0.577759	0.902616
H140	H	0.286429	-0.603762	0.931972
H141	H	0.274656	-0.540057	0.876611
N142	N	0.692337	-0.741104	0.714658
H143	H	0.692343	-0.725750	0.741429
H144	H	0.729271	-0.777267	0.709034
H145	H	0.209407	-0.611608	0.562721
N146	N	0.007418	-0.514765	0.659627
H147	H	-0.011297	-0.530098	0.704594
H148	H	0.000409	-0.533466	0.640878
N149	N	0.263613	-0.577698	0.596611
H150	H	0.286240	-0.603693	0.570601
H151	H	0.274534	-0.600293	0.634301
H152	H	0.418366	-0.435297	0.611936
N153	N	0.540403	-0.673374	0.646523
H154	H	0.529485	-0.687185	0.626395
H155	H	0.529501	-0.696583	0.690847
N156	N	0.210367	-0.271682	0.543474
H157	H	0.216763	-0.242309	0.501266
H158	H	0.190015	-0.297694	0.549916
H159	H	0.162897	-0.149674	0.516363
H160	H	0.070133	-0.149706	0.702094
N161	N	0.026154	-0.459391	0.433584
H162	H	0.055541	-0.440261	0.421966
H163	H	-0.015997	-0.432749	0.449083
H164	H	0.108067	-0.263426	0.739970
