data_functionalizedCrystal
_audit_creation_method	'MofGen! by Chris Wilmer'
_symmetry_space_group_name_H-M	'P1'
_symmetry_Int_Tables_number	1
_symmetry_cell_setting	triclinic
loop_
_symmetry_equiv_pos_as_xyz
  x,y,z
_cell_length_a	23.532407
_cell_length_b	14.971482
_cell_length_c	22.010155
_cell_angle_alpha	89.984387
_cell_angle_beta	89.991245
_cell_angle_gamma	83.230643
loop_
_atom_site_label
_atom_site_type_symbol
_atom_site_fract_x
_atom_site_fract_y
_atom_site_fract_z
O1	O	0.074203	1.186178	-0.050524
O2	O	0.574203	1.686178	0.449476
O3	O	0.083093	0.925684	-0.050527
O4	O	0.583093	1.425684	0.449473
O5	O	-0.004250	1.063786	-0.050514
O6	O	0.495750	1.563786	0.449486
O7	O	0.161546	1.048076	-0.050537
O8	O	0.661546	1.548076	0.449463
O9	O	-0.004249	1.063743	0.050536
O10	O	0.495751	1.563743	0.550536
O11	O	0.083094	0.925641	0.050523
O12	O	0.583094	1.425641	0.550523
O13	O	0.074204	1.186135	0.050527
O14	O	0.574204	1.686135	0.550527
Cu15	Cu	0.078649	1.055884	0.059751
Cu16	Cu	0.578649	1.555884	0.559751
Cu17	Cu	0.078648	1.055935	-0.059752
Cu18	Cu	0.578648	1.555935	0.440248
O19	O	0.161547	1.048033	0.050514
O20	O	0.661547	1.548033	0.550514
C21	C	0.082696	0.892342	-0.000003
C22	C	0.582696	1.392342	0.499997
C23	C	0.081506	0.793057	-0.000003
C24	C	0.581506	1.293057	0.499997
C25	C	0.080946	0.746395	0.055080
C26	C	0.580946	1.246395	0.555080
C27	C	0.079818	0.653109	0.055081
C28	C	0.579818	1.153109	0.555081
C29	C	0.079255	0.606485	-0.000003
C30	C	0.579255	1.106485	0.499997
C31	C	0.079814	0.653154	-0.055090
C32	C	0.579814	1.153154	0.444910
C33	C	0.080937	0.746439	-0.055090
C34	C	0.580937	1.246439	0.444910
C35	C	0.077474	0.458716	-0.055086
C36	C	0.577474	0.958716	0.444914
C37	C	0.076351	0.365424	-0.055086
C38	C	0.576351	0.865424	0.444914
C39	C	0.076355	0.365386	0.055085
C40	C	0.576355	0.865386	0.555085
C41	C	0.077478	0.458671	0.055085
C42	C	0.577478	0.958671	0.555085
C43	C	0.078038	0.505334	-0.000003
C44	C	0.578038	1.005334	0.499997
C45	C	-0.025467	1.063365	0.000012
C46	C	0.474533	1.563365	0.500012
C47	C	-0.088689	1.062162	0.000017
C48	C	0.411311	1.562162	0.500017
C49	C	-0.487475	1.136344	-0.000015
C50	C	0.012525	1.636344	0.499985
C51	C	-0.546880	1.135226	-0.000020
C52	C	-0.046880	1.635226	0.499980
O53	O	-0.583331	1.203994	-0.000041
O54	O	-0.083331	1.703994	0.499959
N55	N	-0.569858	1.053125	-0.000021
N56	N	-0.069858	1.553125	0.499979
C57	C	-0.533426	0.972135	-0.000023
C58	C	-0.033426	1.472135	0.499977
O59	O	-0.558425	0.902198	-0.000024
O60	O	-0.058425	1.402198	0.499976
C61	C	-0.474022	0.973253	-0.000023
C62	C	0.025978	1.473253	0.499977
C63	C	-0.451049	1.055360	-0.000016
C64	C	0.048951	1.555360	0.499984
C65	C	-0.464501	1.218444	-0.000009
C66	C	0.035499	1.718444	0.499991
C67	C	-0.405100	1.219561	-0.000003
C68	C	0.094900	1.719561	0.499997
C69	C	-0.368674	1.138578	-0.000004
C70	C	0.131326	1.638578	0.499996
C71	C	-0.391648	1.056477	-0.000010
C72	C	0.108352	1.556477	0.499990
C73	C	-0.437592	0.892264	-0.000029
C74	C	0.062408	1.392264	0.499971
C75	C	-0.378185	0.893390	-0.000029
C76	C	0.121815	1.393390	0.499971
C77	C	-0.355211	0.975497	-0.000022
C78	C	0.144789	1.475497	0.499978
C79	C	-0.295820	0.976611	-0.000005
C80	C	0.204180	1.476611	0.499995
N81	N	-0.272843	1.058713	-0.000004
N82	N	0.227157	1.558713	0.499996
C83	C	-0.309270	1.139696	-0.000003
C84	C	0.190730	1.639696	0.499997
C85	C	-0.658179	0.969792	-0.000024
C86	C	-0.158179	1.469792	0.499976
C87	C	-0.717581	0.968673	-0.000020
C88	C	-0.217581	1.468673	0.499980
C89	C	-0.731032	1.131765	-0.000019
C90	C	-0.231032	1.631765	0.499981
C91	C	-0.671628	1.132884	-0.000018
C92	C	-0.171628	1.632884	0.499982
C93	C	-0.635202	1.051894	-0.000024
C94	C	-0.135202	1.551894	0.499976
C95	C	-0.184523	1.142036	0.000009
C96	C	0.315477	1.642036	0.500009
C97	C	-0.125116	1.143145	0.000018
C98	C	0.374884	1.643145	0.500018
C99	C	-0.111671	0.980054	0.000012
C100	C	0.388329	1.480054	0.500012
C101	C	-0.171073	0.978944	0.000007
C102	C	0.328927	1.478944	0.500007
C103	C	-0.207498	1.059942	0.000004
C104	C	0.292502	1.559942	0.500004
O105	O	-0.259335	0.907879	0.000014
O106	O	0.240665	1.407879	0.500014
O107	O	-0.284263	1.209621	-0.000010
O108	O	0.215737	1.709621	0.499990
C109	C	0.182764	1.048454	-0.000015
C110	C	0.682764	1.548454	0.499985
C111	C	0.245987	1.049657	-0.000023
C112	C	0.745987	1.549657	0.499977
C113	C	0.074601	1.219477	0.000000
C114	C	0.574601	1.719477	0.500000
C115	C	0.075791	1.318762	-0.000003
C116	C	0.575791	1.818762	0.499997
N117	N	0.078649	1.055855	0.143804
N118	N	0.578649	1.555855	0.643804
C119	C	0.113244	1.109867	0.563579
C120	C	0.613244	1.609867	1.063579
C121	C	0.113244	1.109877	0.627187
C122	C	0.613244	1.609877	1.127187
O123	O	0.142651	1.155772	0.660075
O124	O	0.642651	1.655772	1.160075
N125	N	0.078648	1.055943	0.659011
N126	N	0.578648	1.555943	1.159011
C127	C	0.044046	1.002002	0.627224
C128	C	0.544046	1.502002	1.127224
O129	O	0.014619	0.956128	0.660134
O130	O	0.514619	1.456128	1.160134
C131	C	0.044044	1.001998	0.563618
C132	C	0.544044	1.501998	1.063618
C133	C	0.078647	1.055929	0.531797
C134	C	0.578647	1.555929	1.031797
C135	C	0.147844	1.163795	0.531758
C136	C	0.647844	1.663795	1.031758
C137	C	0.147845	1.163784	0.468155
C138	C	0.647845	1.663784	0.968155
C139	C	0.113247	1.109845	0.436373
C140	C	0.613247	1.609845	0.936373
C141	C	0.078648	1.055918	0.468194
C142	C	0.578648	1.555918	0.968194
C143	C	0.009440	0.948063	0.531832
C144	C	0.509440	1.448063	1.031832
C145	C	0.009441	0.948063	0.468222
C146	C	0.509441	1.448063	0.968222
C147	C	0.044043	1.001994	0.436401
C148	C	0.544043	1.501994	0.936401
C149	C	0.044052	1.001968	0.372808
C150	C	0.544052	1.501968	0.872808
N151	N	0.078648	1.055902	0.340984
N152	N	0.578648	1.555902	0.840984
C153	C	0.113246	1.109841	0.372766
C154	C	0.613246	1.609841	0.872766
C155	C	0.044052	1.002016	0.760802
C156	C	0.544052	1.502016	1.260802
C157	C	0.044056	1.002015	0.824407
C158	C	0.544056	1.502015	1.324407
C159	C	0.113253	1.109892	0.824366
C160	C	0.613253	1.609892	1.324366
C161	C	0.113251	1.109887	0.760759
C162	C	0.613251	1.609887	1.260759
C163	C	0.078648	1.055951	0.728978
C164	C	0.578648	1.555951	1.228978
C165	C	0.113247	1.109813	0.239195
C166	C	0.613247	1.609813	0.739195
C167	C	0.113247	1.109794	0.175586
C168	C	0.613247	1.609794	0.675586
C169	C	0.044048	1.001921	0.175634
C170	C	0.544048	1.501921	0.675634
C171	C	0.044050	1.001936	0.239237
C172	C	0.544050	1.501936	0.739237
C173	C	0.078651	1.055889	0.271016
C174	C	0.578651	1.555889	0.771016
O175	O	0.014658	0.956099	0.339880
O176	O	0.514658	1.456099	0.839880
O177	O	0.142662	1.155716	0.339849
O178	O	0.642662	1.655716	0.839849
N179	N	0.078652	1.055958	0.856195
N180	N	0.578652	1.555958	1.356195
H181	H	0.081409	0.784348	0.099935
H182	H	0.581409	1.284348	0.599935
H183	H	0.015886	0.958088	0.850311
H184	H	0.515886	1.458088	1.350311
H185	H	-0.652927	1.199742	-0.000013
H186	H	-0.152927	1.699742	0.499987
H187	H	0.081394	0.784430	-0.099945
H188	H	0.581394	1.284430	0.400055
F189	F	-0.027394	0.890661	0.434401
F190	F	0.472606	1.390661	0.934401
H191	H	-0.082002	0.914119	0.000014
H192	H	0.417998	1.414119	0.500014
H193	H	-0.348529	0.827437	-0.000035
H194	H	0.151471	1.327437	0.499965
H195	H	-0.494155	1.284395	-0.000011
H196	H	0.005845	1.784395	0.499989
F197	F	0.150073	1.167236	0.273008
F198	F	0.650073	1.667236	0.773008
H199	H	0.079351	0.615186	-0.099940
H200	H	0.579351	1.115186	0.400060
H201	H	0.015881	0.958003	0.149745
H202	H	0.515881	1.458003	0.649745
F203	F	0.184681	1.221174	0.434297
F204	F	0.684681	1.721174	0.934297
F205	F	0.150078	1.167290	0.726899
F206	F	0.650078	1.667290	1.226899
F207	F	0.078083	0.508289	0.113710
F208	F	0.578083	1.008289	0.613710
F209	F	0.007225	0.944596	0.726984
F210	F	0.507225	1.444596	1.226984
F211	F	-0.027389	0.890660	0.565685
F212	F	0.472611	1.390660	1.065685
H213	H	-0.106415	1.210010	0.000025
H214	H	0.393585	1.710010	0.500025
H215	H	0.075899	0.327389	0.099939
H216	H	0.575899	0.827389	0.599939
H217	H	0.079353	0.615123	0.099935
H218	H	0.579353	1.115123	0.599935
H219	H	0.141427	1.153711	0.149681
H220	H	0.641427	1.653711	0.649681
H221	H	-0.760701	1.197706	-0.000020
H222	H	-0.260701	1.697706	0.499980
F223	F	-0.742025	0.881284	-0.000017
F224	F	-0.242025	1.381284	0.499983
H225	H	0.176017	1.207723	0.557629
H226	H	0.676017	1.707723	1.057629
H227	H	0.075893	0.327465	-0.099939
H228	H	0.575893	0.827465	0.400061
F229	F	0.150073	1.167302	0.858202
F230	F	0.650073	1.667302	1.358202
H231	H	0.077930	0.496706	-0.099944
H232	H	0.577930	0.996706	0.400056
H233	H	-0.214174	1.207992	0.000004
H234	H	0.285826	1.707992	0.500004
H235	H	-0.386401	1.286421	-0.000000
H236	H	0.113599	1.786421	0.500000
F237	F	0.007228	0.944528	0.273104
F238	F	0.507228	1.444528	0.773104
F239	F	-0.619415	0.883587	-0.000025
F240	F	-0.119415	1.383587	0.499975
H241	H	-0.456286	0.825404	-0.000038
H242	H	0.043714	1.325404	0.499962
H243	H	-0.189779	0.912085	0.000019
H244	H	0.310221	1.412085	0.500019
