data_functionalizedCrystal
_audit_creation_method	'MofGen! by Chris Wilmer'
_symmetry_space_group_name_H-M	'P1'
_symmetry_Int_Tables_number	1
_symmetry_cell_setting	triclinic
loop_
_symmetry_equiv_pos_as_xyz
  x,y,z
_cell_length_a	16.109301
_cell_length_b	16.109301
_cell_length_c	9.798715
_cell_angle_alpha	90.004020
_cell_angle_beta	90.001516
_cell_angle_gamma	83.461481
loop_
_atom_site_label
_atom_site_type_symbol
_atom_site_fract_x
_atom_site_fract_y
_atom_site_fract_z
O1	O	-1.103132	-0.106865	-0.113409
O2	O	-0.861070	-0.120164	-0.113431
O3	O	-0.988751	0.007517	-0.113406
O4	O	-0.975451	-0.234545	-0.113435
O5	O	-0.988740	0.007516	0.113577
O6	O	-0.861059	-0.120165	0.113551
O7	O	-1.103121	-0.106866	0.113573
Zn8	Zn	-0.982088	-0.113516	0.149600
Zn9	Zn	-0.982103	-0.113514	-0.149458
O10	O	-0.975440	-0.234546	0.113547
C11	C	-0.830090	-0.119626	0.000057
C12	C	-0.737794	-0.118011	0.000049
N13	N	-0.982084	-0.113516	0.353700
C14	C	-0.988206	0.038491	0.000086
C15	C	-0.986591	0.130786	0.000088
C16	C	-1.134101	-0.107404	0.000082
C17	C	-1.226397	-0.109019	0.000081
C18	C	-0.515522	-0.190018	0.000056
C19	C	-0.428801	-0.188494	0.000065
C20	C	-0.448676	-0.037006	0.000078
C21	C	-0.535394	-0.038530	0.000078
C22	C	-0.568815	-0.115039	0.000061
C23	C	-0.395376	-0.111990	0.000069
C24	C	-0.301350	-0.110337	0.000079
C25	C	-0.662847	-0.116693	0.000054
C26	C	-0.975984	-0.265521	0.000053
C27	C	-0.977600	-0.357816	0.000042
C28	C	-1.058599	0.353059	0.000073
C29	C	-1.057075	0.439779	0.000061
C30	C	-0.905586	0.419905	0.000053
C31	C	-0.907111	0.333186	0.000055
C32	C	-0.983620	0.299766	0.000071
C33	C	-0.980571	0.473205	0.000058
C34	C	-0.978918	0.567231	0.000046
C35	C	-0.985273	0.205734	0.000081
C36	C	-1.035696	-0.059673	0.421488
C37	C	-1.035708	-0.059671	0.578650
N38	N	-0.982106	-0.113513	0.646442
H39	H	-0.542730	-0.252317	0.000052
C40	C	-1.148205	0.267078	0.116762
C41	C	-1.142697	0.316324	0.000077
H42	H	-1.200128	0.244407	0.116762
H43	H	-1.103776	0.222928	0.116754
H44	H	-1.144459	0.300508	0.195906
H45	H	-1.146437	0.282893	-0.079067
H46	H	-1.187138	0.360480	0.000072
H47	H	-0.578788	0.022530	0.000086
H48	H	-0.936208	-0.159616	0.588156
H49	H	-0.385413	-0.249550	0.000064
C50	C	-0.870552	-0.225530	0.339680
C51	C	-0.920127	-0.175745	0.432409
H52	H	-0.832298	-0.263944	0.388272
H53	H	-0.905206	-0.255375	0.283943
H54	H	-0.840520	-0.191031	0.283951
H55	H	-0.950164	-0.210244	0.488132
H56	H	-0.885469	-0.145897	0.488170
C57	C	-0.776002	0.429669	-0.116645
C58	C	-0.821492	0.456647	0.000042
H59	H	-0.724088	0.452356	-0.116651
H60	H	-0.766179	0.370403	-0.116636
H61	H	-0.806886	0.447965	-0.195787
H62	H	-0.790610	0.438345	0.079185
H63	H	-0.831312	0.515926	0.000045
H64	H	-0.421454	0.025285	0.000100
H65	H	-1.118130	0.483168	0.000060
H66	H	-0.846050	0.289792	0.000049
C67	C	-1.084163	0.084300	0.377145
C68	C	-1.097647	0.002540	0.342739
H69	H	-1.122409	0.122702	0.328513
H70	H	-1.092318	0.092480	0.472416
H71	H	-1.028620	0.093170	0.353816
H72	H	-1.153189	-0.006331	0.366078
H73	H	-1.089500	-0.005643	0.247447
C74	C	-1.179530	-0.010526	0.622878
C75	C	-1.097672	0.002564	0.657335
H76	H	-1.217784	0.027895	0.671463
H77	H	-1.187645	-0.002361	0.527596
H78	H	-1.188680	-0.065990	0.646228
H79	H	-1.088521	0.058026	0.633974
H80	H	-1.089555	-0.005594	0.752637
