data_functionalizedCrystal
_audit_creation_method	'MofGen! by Chris Wilmer'
_symmetry_space_group_name_H-M	'P1'
_symmetry_Int_Tables_number	1
_symmetry_cell_setting	triclinic
loop_
_symmetry_equiv_pos_as_xyz
  x,y,z
_cell_length_a	29.839134
_cell_length_b	29.839131
_cell_length_c	29.839126
_cell_angle_alpha	89.975848
_cell_angle_beta	89.970362
_cell_angle_gamma	90.036281
loop_
_atom_site_label
_atom_site_type_symbol
_atom_site_fract_x
_atom_site_fract_y
_atom_site_fract_z
Zn1	Zn	0.686754	-0.178949	-0.254125
Zn2	Zn	0.936754	0.071051	-0.004125
Zn3	Zn	1.186754	0.321051	0.245875
Zn4	Zn	1.436754	0.571051	0.495875
Zn5	Zn	0.686676	-0.254070	-0.178995
Zn6	Zn	0.936676	-0.004070	0.071005
Zn7	Zn	1.186676	0.245930	0.321005
Zn8	Zn	1.436676	0.495930	0.571005
Zn9	Zn	0.611626	-0.178948	-0.178995
Zn10	Zn	0.861626	0.071052	0.071005
Zn11	Zn	1.111626	0.321052	0.321005
Zn12	Zn	1.361626	0.571052	0.571005
Zn13	Zn	0.611584	-0.254046	-0.254083
Zn14	Zn	0.861584	-0.004046	-0.004083
Zn15	Zn	1.111584	0.245954	0.245917
Zn16	Zn	1.361584	0.495954	0.495917
O17	O	0.649160	-0.216503	-0.216549
O18	O	0.899160	0.033497	0.033451
O19	O	1.149160	0.283497	0.283451
O20	O	1.399160	0.533497	0.533451
O21	O	0.749610	-0.188925	-0.244176
O22	O	0.999610	0.061075	0.005824
O23	O	1.249610	0.311075	0.255824
O24	O	1.499610	0.561075	0.505824
O25	O	0.676705	-0.244114	-0.116128
O26	O	0.926705	0.005886	0.133872
O27	O	1.176705	0.255886	0.383872
O28	O	1.426705	0.505886	0.633872
O29	O	0.621642	-0.116081	-0.188978
O30	O	0.871642	0.133919	0.061022
O31	O	1.121642	0.383919	0.311022
O32	O	1.371642	0.633919	0.561022
O33	O	0.749553	-0.244115	-0.188979
O34	O	0.999553	0.005885	0.061021
O35	O	1.249553	0.255885	0.311021
O36	O	1.499553	0.505885	0.561021
O37	O	0.676838	-0.116082	-0.244176
O38	O	0.926838	0.133918	0.005824
O39	O	1.176838	0.383918	0.255824
O40	O	1.426838	0.633918	0.505824
O41	O	0.621567	-0.188922	-0.116128
O42	O	0.871567	0.061078	0.133872
O43	O	1.121567	0.311078	0.383872
O44	O	1.371567	0.561078	0.633872
O45	O	0.548754	-0.188899	-0.188938
O46	O	0.798754	0.061101	0.061062
O47	O	1.048754	0.311101	0.311062
O48	O	1.298754	0.561101	0.561062
O49	O	0.621570	-0.244075	-0.316956
O50	O	0.871570	0.005925	-0.066956
O51	O	1.121570	0.255925	0.183044
O52	O	1.371570	0.505925	0.433044
O53	O	0.548723	-0.244074	-0.244105
O54	O	0.798723	0.005926	0.005895
O55	O	1.048723	0.255926	0.255895
O56	O	1.298723	0.505926	0.505895
O57	O	0.676797	-0.188902	-0.316987
O58	O	0.926797	0.061098	-0.066987
O59	O	1.176797	0.311098	0.183013
O60	O	1.426797	0.561098	0.433013
O61	O	0.676664	-0.316934	-0.188938
O62	O	0.926664	-0.066934	0.061062
O63	O	1.176664	0.183066	0.311062
O64	O	1.426664	0.433066	0.561062
O65	O	0.621495	-0.316917	-0.244105
O66	O	0.871495	-0.066917	0.005895
O67	O	1.121495	0.183083	0.255895
O68	O	1.371495	0.433083	0.505895
C69	C	0.532437	-0.216484	-0.216517
C70	C	0.782437	0.033516	0.033483
C71	C	1.032437	0.283516	0.283483
C72	C	1.282437	0.533516	0.533483
C73	C	0.482503	-0.216487	-0.216514
C74	C	0.732503	0.033513	0.033486
C75	C	0.982503	0.283513	0.283486
C76	C	1.232503	0.533513	0.533486
C77	C	0.172853	-0.245275	-0.245240
C78	C	0.422853	0.004725	0.004760
C79	C	0.672853	0.254725	0.254760
C80	C	0.922853	0.504725	0.504760
C81	C	-0.014820	-0.245288	-0.245260
C82	C	0.235180	0.004712	0.004740
C83	C	0.485180	0.254712	0.254740
C84	C	0.735180	0.504712	0.504740
O85	O	-0.039091	-0.269743	-0.269665
O86	O	0.210909	-0.019743	-0.019665
O87	O	0.460909	0.230257	0.230335
O88	O	0.710909	0.480257	0.480335
N89	N	-0.038282	-0.216520	-0.216583
N90	N	0.211718	0.033480	0.033417
N91	N	0.461718	0.283480	0.283417
N92	N	0.711718	0.533480	0.533417
C93	C	-0.014823	-0.187744	-0.187902
C94	C	0.235177	0.062256	0.062098
C95	C	0.485177	0.312256	0.312098
C96	C	0.735177	0.562256	0.562098
O97	O	-0.039085	-0.163273	-0.163514
O98	O	0.210915	0.086727	0.086486
O99	O	0.460915	0.336727	0.336486
O100	O	0.710915	0.586727	0.586486
C101	C	0.172849	-0.187730	-0.187884
C102	C	0.422849	0.062270	0.062116
C103	C	0.672849	0.312270	0.312116
C104	C	0.922849	0.562270	0.562116
C105	C	0.196309	-0.216503	-0.216560
C106	C	0.446309	0.033497	0.033440
C107	C	0.696309	0.283497	0.283440
C108	C	0.946309	0.533497	0.533440
C109	C	0.196312	-0.274046	-0.273913
C110	C	0.446312	-0.024046	-0.023913
C111	C	0.696312	0.225954	0.226087
C112	C	0.946312	0.475954	0.476087
C113	C	0.243228	-0.274044	-0.273906
C114	C	0.493228	-0.024044	-0.023906
C115	C	0.743228	0.225956	0.226094
C116	C	0.993228	0.475956	0.476094
C117	C	0.266684	-0.245272	-0.245226
C118	C	0.516684	0.004728	0.004774
C119	C	0.766684	0.254728	0.254774
C120	C	1.016684	0.504728	0.504774
C121	C	0.243224	-0.216501	-0.216553
C122	C	0.493224	0.033499	0.033447
C123	C	0.743224	0.283499	0.283447
C124	C	0.993224	0.533499	0.533447
C125	C	0.196308	-0.158953	-0.159205
C126	C	0.446308	0.091047	0.090795
C127	C	0.696308	0.341047	0.340795
C128	C	0.946308	0.591047	0.590795
C129	C	0.243229	-0.158951	-0.159204
C130	C	0.493229	0.091049	0.090796
C131	C	0.743229	0.341049	0.340796
C132	C	0.993229	0.591049	0.590796
C133	C	0.266688	-0.187724	-0.187880
C134	C	0.516688	0.062276	0.062120
C135	C	0.766688	0.312276	0.312120
C136	C	1.016688	0.562276	0.562120
C137	C	0.313596	-0.187727	-0.187865
C138	C	0.563596	0.062273	0.062135
C139	C	0.813596	0.312273	0.312135
C140	C	1.063596	0.562273	0.562135
N141	N	0.337058	-0.216495	-0.216542
N142	N	0.587058	0.033505	0.033458
N143	N	0.837058	0.283505	0.283458
N144	N	1.087058	0.533505	0.533458
C145	C	0.313602	-0.245268	-0.245222
C146	C	0.563602	0.004732	0.004778
C147	C	0.813602	0.254732	0.254778
C148	C	1.063602	0.504732	0.504778
C149	C	-0.113354	-0.187755	-0.187912
C150	C	0.136646	0.062245	0.062088
C151	C	0.386646	0.312245	0.312088
C152	C	0.636646	0.562245	0.562088
C153	C	-0.160271	-0.187759	-0.187916
C154	C	0.089729	0.062241	0.062084
C155	C	0.339729	0.312241	0.312084
C156	C	0.589729	0.562241	0.562084
C157	C	-0.160265	-0.245302	-0.245275
C158	C	0.089735	0.004698	0.004725
C159	C	0.339735	0.254698	0.254725
C160	C	0.589735	0.504698	0.504725
C161	C	-0.113347	-0.245300	-0.245269
C162	C	0.136653	0.004700	0.004731
C163	C	0.386653	0.254700	0.254731
C164	C	0.636653	0.504700	0.504731
C165	C	-0.089892	-0.216523	-0.216589
C166	C	0.160108	0.033477	0.033411
C167	C	0.410108	0.283477	0.283411
C168	C	0.660108	0.533477	0.533411
C169	C	0.412127	-0.245262	-0.245205
C170	C	0.662127	0.004738	0.004795
C171	C	0.912127	0.254738	0.254795
C172	C	1.162127	0.504738	0.504795
C173	C	0.459047	-0.245259	-0.245194
C174	C	0.709047	0.004741	0.004806
C175	C	0.959047	0.254741	0.254806
C176	C	1.209047	0.504741	0.504806
C177	C	0.459037	-0.187715	-0.187837
C178	C	0.709037	0.062285	0.062163
C179	C	0.959037	0.312285	0.312163
C180	C	1.209037	0.562285	0.562163
C181	C	0.412121	-0.187719	-0.187846
C182	C	0.662121	0.062281	0.062154
C183	C	0.912121	0.312281	0.312154
C184	C	1.162121	0.562281	0.562154
C185	C	0.388668	-0.216494	-0.216534
C186	C	0.638668	0.033506	0.033466
C187	C	0.888668	0.283506	0.283466
C188	C	1.138668	0.533506	0.533466
O189	O	0.337895	-0.163281	-0.163477
O190	O	0.587895	0.086719	0.086523
O191	O	0.837895	0.336719	0.336523
O192	O	1.087895	0.586719	0.586523
O193	O	0.337872	-0.269729	-0.269613
O194	O	0.587872	-0.019729	-0.019613
O195	O	0.837872	0.230271	0.230387
O196	O	1.087872	0.480271	0.480387
C197	C	0.125937	-0.245277	-0.245247
C198	C	0.375937	0.004723	0.004753
C199	C	0.625937	0.254723	0.254753
C200	C	0.875937	0.504723	0.504753
C201	C	0.102478	-0.216506	-0.216574
C202	C	0.352478	0.033494	0.033426
C203	C	0.602478	0.283494	0.283426
C204	C	0.852478	0.533494	0.533426
C205	C	0.125934	-0.187734	-0.187893
C206	C	0.375934	0.062266	0.062107
C207	C	0.625934	0.312266	0.312107
C208	C	0.875934	0.562266	0.562107
C209	C	0.055560	-0.216511	-0.216577
C210	C	0.305560	0.033489	0.033423
C211	C	0.555560	0.283489	0.283423
C212	C	0.805560	0.533489	0.533423
C213	C	0.032104	-0.245283	-0.245258
C214	C	0.282104	0.004717	0.004742
C215	C	0.532104	0.254717	0.254742
C216	C	0.782104	0.504717	0.504742
C217	C	0.055566	-0.274051	-0.273934
C218	C	0.305566	-0.024051	-0.023934
C219	C	0.555566	0.225949	0.226066
C220	C	0.805566	0.475949	0.476066
C221	C	0.102482	-0.274049	-0.273927
C222	C	0.352482	-0.024049	-0.023927
C223	C	0.602482	0.225951	0.226073
C224	C	0.852482	0.475951	0.476073
C225	C	0.102472	-0.158966	-0.159217
C226	C	0.352472	0.091034	0.090783
C227	C	0.602472	0.341034	0.340783
C228	C	0.852472	0.591034	0.590783
C229	C	0.055556	-0.158971	-0.159226
C230	C	0.305556	0.091029	0.090774
C231	C	0.555556	0.341029	0.340774
C232	C	0.805556	0.591029	0.590774
C233	C	0.032100	-0.187743	-0.187906
C234	C	0.282100	0.062257	0.062094
C235	C	0.532100	0.312257	0.312094
C236	C	0.782100	0.562257	0.562094
C237	C	0.649079	-0.333226	-0.216527
C238	C	0.899079	-0.083226	0.033473
C239	C	1.149079	0.166774	0.283473
C240	C	1.399079	0.416774	0.533473
C241	C	0.649085	-0.383160	-0.216533
C242	C	0.899085	-0.133160	0.033467
C243	C	1.149085	0.116840	0.283467
C244	C	1.399085	0.366840	0.533467
C245	C	0.677939	-0.692800	-0.187866
C246	C	0.927939	-0.442800	0.062134
C247	C	1.177939	-0.192800	0.312134
C248	C	1.427939	0.057200	0.562134
C249	C	0.677994	-0.880473	-0.187883
C250	C	0.927994	-0.630473	0.062117
C251	C	1.177994	-0.380473	0.312117
C252	C	1.427994	-0.130473	0.562117
O253	O	0.702462	-0.904735	-0.163493
O254	O	0.952462	-0.654735	0.086507
O255	O	1.202462	-0.404735	0.336507
O256	O	1.452462	-0.154735	0.586507
N257	N	0.649253	-0.903945	-0.216583
N258	N	0.899253	-0.653945	0.033417
N259	N	1.149253	-0.403945	0.283417
N260	N	1.399253	-0.153945	0.533417
C261	C	0.620498	-0.880496	-0.245283
C262	C	0.870498	-0.630496	0.004717
C263	C	1.120498	-0.380496	0.254717
C264	C	1.370498	-0.130496	0.504717
O265	O	0.596056	-0.904767	-0.269698
O266	O	0.846056	-0.654767	-0.019698
O267	O	1.096056	-0.404767	0.230302
O268	O	1.346056	-0.154767	0.480302
C269	C	0.620445	-0.692824	-0.245268
C270	C	0.870445	-0.442824	0.004732
C271	C	1.120445	-0.192824	0.254732
C272	C	1.370445	0.057176	0.504732
C273	C	0.649185	-0.669354	-0.216563
C274	C	0.899185	-0.419354	0.033437
C275	C	1.149185	-0.169354	0.283437
C276	C	1.399185	0.080646	0.533437
C277	C	0.706677	-0.669330	-0.159164
C278	C	0.956677	-0.419330	0.090836
C279	C	1.206677	-0.169330	0.340836
C280	C	1.456677	0.080670	0.590836
C281	C	0.706661	-0.622415	-0.159158
C282	C	0.956661	-0.372415	0.090842
C283	C	1.206661	-0.122415	0.340842
C284	C	1.456661	0.127585	0.590842
C285	C	0.677907	-0.598969	-0.187854
C286	C	0.927907	-0.348969	0.062146
C287	C	1.177907	-0.098969	0.312146
C288	C	1.427907	0.151031	0.562146
C289	C	0.649169	-0.622439	-0.216557
C290	C	0.899169	-0.372439	0.033443
C291	C	1.149169	-0.122439	0.283443
C292	C	1.399169	0.127561	0.533443
C293	C	0.591693	-0.669376	-0.273969
C294	C	0.841693	-0.419376	-0.023969
C295	C	1.091693	-0.169376	0.226031
C296	C	1.341693	0.080624	0.476031
C297	C	0.591683	-0.622455	-0.273964
C298	C	0.841683	-0.372455	-0.023964
C299	C	1.091683	-0.122455	0.226036
C300	C	1.341683	0.127545	0.476036
C301	C	0.620423	-0.598985	-0.245259
C302	C	0.870423	-0.348985	0.004741
C303	C	1.120423	-0.098985	0.254741
C304	C	1.370423	0.151015	0.504741
C305	C	0.620399	-0.552078	-0.245248
C306	C	0.870399	-0.302078	0.004752
C307	C	1.120399	-0.052078	0.254752
C308	C	1.370399	0.197922	0.504752
N309	N	0.649141	-0.528606	-0.216548
N310	N	0.899141	-0.278606	0.033452
N311	N	1.149141	-0.028606	0.283452
N312	N	1.399141	0.221394	0.533452
C313	C	0.677895	-0.552051	-0.187851
C314	C	0.927895	-0.302051	0.062149
C315	C	1.177895	-0.052051	0.312149
C316	C	1.427895	0.197949	0.562149
C317	C	0.620527	-0.979027	-0.245289
C318	C	0.870527	-0.729027	0.004711
C319	C	1.120527	-0.479027	0.254711
C320	C	1.370527	-0.229027	0.504711
C321	C	0.620540	-1.025945	-0.245292
C322	C	0.870540	-0.775945	0.004708
C323	C	1.120540	-0.525945	0.254708
C324	C	1.370540	-0.275945	0.504708
C325	C	0.678037	-1.025918	-0.187893
C326	C	0.928037	-0.775918	0.062107
C327	C	1.178037	-0.525918	0.312107
C328	C	1.428037	-0.275918	0.562107
C329	C	0.678022	-0.979000	-0.187887
C330	C	0.928022	-0.729000	0.062113
C331	C	1.178022	-0.479000	0.312113
C332	C	1.428022	-0.229000	0.562113
C333	C	0.649268	-0.955555	-0.216589
C334	C	0.899268	-0.705555	0.033411
C335	C	1.149268	-0.455555	0.283411
C336	C	1.399268	-0.205555	0.533411
C337	C	0.677859	-0.453525	-0.187841
C338	C	0.927859	-0.203525	0.062159
C339	C	1.177859	0.046475	0.312159
C340	C	1.427859	0.296475	0.562159
C341	C	0.677839	-0.406606	-0.187836
C342	C	0.927839	-0.156606	0.062164
C343	C	1.177839	0.093394	0.312164
C344	C	1.427839	0.343394	0.562164
C345	C	0.620344	-0.406637	-0.245237
C346	C	0.870344	-0.156637	0.004763
C347	C	1.120344	0.093363	0.254763
C348	C	1.370344	0.343363	0.504763
C349	C	0.620362	-0.453552	-0.245240
C350	C	0.870362	-0.203552	0.004760
C351	C	1.120362	0.046448	0.254760
C352	C	1.370362	0.296448	0.504760
C353	C	0.649123	-0.476995	-0.216540
C354	C	0.899123	-0.226995	0.033460
C355	C	1.149123	0.023005	0.283460
C356	C	1.399123	0.273005	0.533460
O357	O	0.595948	-0.527787	-0.269629
O358	O	0.845948	-0.277787	-0.019629
O359	O	1.095948	-0.027787	0.230371
O360	O	1.345948	0.222213	0.480371
O361	O	0.702340	-0.527772	-0.163447
O362	O	0.952340	-0.277772	0.086553
O363	O	1.202340	-0.027772	0.336553
O364	O	1.452340	0.222228	0.586553
C365	C	0.677955	-0.739715	-0.187872
C366	C	0.927955	-0.489715	0.062128
C367	C	1.177955	-0.239715	0.312128
C368	C	1.427955	0.010285	0.562128
C369	C	0.649217	-0.763185	-0.216574
C370	C	0.899217	-0.513185	0.033426
C371	C	1.149217	-0.263185	0.283426
C372	C	1.399217	-0.013185	0.533426
C373	C	0.620463	-0.739740	-0.245271
C374	C	0.870463	-0.489740	0.004729
C375	C	1.120463	-0.239740	0.254729
C376	C	1.370463	0.010260	0.504729
C377	C	0.649229	-0.810103	-0.216578
C378	C	0.899229	-0.560103	0.033422
C379	C	1.149229	-0.310103	0.283422
C380	C	1.399229	-0.060103	0.533422
C381	C	0.677983	-0.833549	-0.187881
C382	C	0.927983	-0.583549	0.062119
C383	C	1.177983	-0.333549	0.312119
C384	C	1.427983	-0.083549	0.562119
C385	C	0.706724	-0.810076	-0.159181
C386	C	0.956724	-0.560076	0.090819
C387	C	1.206724	-0.310076	0.340819
C388	C	1.456724	-0.060076	0.590819
C389	C	0.706709	-0.763161	-0.159175
C390	C	0.956709	-0.513161	0.090825
C391	C	1.206709	-0.263161	0.340825
C392	C	1.456709	-0.013161	0.590825
C393	C	0.591722	-0.763212	-0.273971
C394	C	0.841722	-0.513212	-0.023971
C395	C	1.091722	-0.263212	0.226029
C396	C	1.341722	-0.013212	0.476029
C397	C	0.591740	-0.810128	-0.273974
C398	C	0.841740	-0.560128	-0.023974
C399	C	1.091740	-0.310128	0.226026
C400	C	1.341740	-0.060128	0.476026
C401	C	0.620493	-0.833573	-0.245277
C402	C	0.870493	-0.583573	0.004723
C403	C	1.120493	-0.333573	0.254723
C404	C	1.370493	-0.083573	0.504723
C405	C	0.766338	-0.216523	-0.216582
C406	C	1.016338	0.033477	0.033418
C407	C	1.266338	0.283477	0.283418
C408	C	1.516338	0.533477	0.533418
C409	C	0.816273	-0.216531	-0.216596
C410	C	1.066273	0.033469	0.033404
C411	C	1.316273	0.283469	0.283404
C412	C	1.566273	0.533469	0.533404
C413	C	0.649188	-0.216486	-0.333728
C414	C	0.899188	0.033514	-0.083728
C415	C	1.149188	0.283514	0.166272
C416	C	1.399188	0.533514	0.416272
C417	C	0.649200	-0.216479	-0.383662
C418	C	0.899200	0.033521	-0.133662
C419	C	1.149200	0.283521	0.116338
C420	C	1.399200	0.533521	0.366338
C421	C	0.649254	-0.099325	-0.216582
C422	C	0.899254	0.150675	0.033418
C423	C	1.149254	0.400675	0.283418
C424	C	1.399254	0.650675	0.533418
C425	C	0.649294	-0.049390	-0.216595
C426	C	0.899294	0.200610	0.033405
C427	C	1.149294	0.450610	0.283405
C428	C	1.399294	0.700610	0.533405
C429	C	0.620498	-0.187695	-0.693309
C430	C	0.870498	0.062305	-0.443309
C431	C	1.120498	0.312305	-0.193309
C432	C	1.370498	0.562305	0.056691
C433	C	0.620511	-0.187664	-0.880982
C434	C	0.870511	0.062336	-0.630982
C435	C	1.120511	0.312336	-0.380982
C436	C	1.370511	0.562336	-0.130982
O437	O	0.596085	-0.163236	-0.905249
O438	O	0.846085	0.086764	-0.655249
O439	O	1.096085	0.336764	-0.405249
O440	O	1.346085	0.586764	-0.155249
N441	N	0.649221	-0.216394	-0.904448
N442	N	0.899221	0.033606	-0.654448
N443	N	1.149221	0.283606	-0.404448
N444	N	1.399221	0.533606	-0.154448
C445	C	0.677928	-0.245137	-0.880992
C446	C	0.927928	0.004863	-0.630992
C447	C	1.177928	0.254863	-0.380992
C448	C	1.427928	0.504863	-0.130992
O449	O	0.702345	-0.269576	-0.905258
O450	O	0.952345	-0.019576	-0.655258
O451	O	1.202345	0.230424	-0.405258
O452	O	1.452345	0.480424	-0.155258
C453	C	0.677913	-0.245170	-0.693320
C454	C	0.927913	0.004830	-0.443320
C455	C	1.177913	0.254830	-0.193320
C456	C	1.427913	0.504830	0.056680
C457	C	0.649204	-0.216434	-0.669857
C458	C	0.899204	0.033566	-0.419857
C459	C	1.149204	0.283566	-0.169857
C460	C	1.399204	0.533566	0.080143
C461	C	0.591791	-0.158963	-0.669845
C462	C	0.841791	0.091037	-0.419845
C463	C	1.091791	0.341037	-0.169845
C464	C	1.341791	0.591037	0.080155
C465	C	0.591790	-0.158969	-0.622930
C466	C	0.841790	0.091031	-0.372930
C467	C	1.091790	0.341031	-0.122930
C468	C	1.341790	0.591031	0.127070
C469	C	0.620496	-0.187708	-0.599478
C470	C	0.870496	0.062292	-0.349478
C471	C	1.120496	0.312292	-0.099478
C472	C	1.370496	0.562292	0.150522
C473	C	0.649203	-0.216441	-0.622941
C474	C	0.899203	0.033559	-0.372941
C475	C	1.149203	0.283559	-0.122941
C476	C	1.399203	0.533559	0.127059
C477	C	0.706617	-0.273914	-0.669866
C478	C	0.956617	-0.023914	-0.419866
C479	C	1.206617	0.226086	-0.169866
C480	C	1.456617	0.476086	0.080134
C481	C	0.706610	-0.273920	-0.622945
C482	C	0.956610	-0.023920	-0.372945
C483	C	1.206610	0.226080	-0.122945
C484	C	1.456610	0.476080	0.127055
C485	C	0.677901	-0.245185	-0.599481
C486	C	0.927901	0.004815	-0.349481
C487	C	1.177901	0.254815	-0.099481
C488	C	1.427901	0.504815	0.150519
C489	C	0.677907	-0.245186	-0.552574
C490	C	0.927907	0.004814	-0.302574
C491	C	1.177907	0.254814	-0.052574
C492	C	1.427907	0.504814	0.197426
N493	N	0.649197	-0.216456	-0.529108
N494	N	0.899197	0.033544	-0.279108
N495	N	1.149197	0.283544	-0.029108
N496	N	1.399197	0.533544	0.220892
C497	C	0.620491	-0.187717	-0.552560
C498	C	0.870491	0.062283	-0.302560
C499	C	1.120491	0.312283	-0.052560
C500	C	1.370491	0.562283	0.197440
C501	C	0.677935	-0.245117	-0.979523
C502	C	0.927935	0.004883	-0.729523
C503	C	1.177935	0.254883	-0.479523
C504	C	1.427935	0.504883	-0.229523
C505	C	0.677939	-0.245108	-1.026441
C506	C	0.927939	0.004892	-0.776441
C507	C	1.177939	0.254892	-0.526441
C508	C	1.427939	0.504892	-0.276441
C509	C	0.620521	-0.187636	-1.026427
C510	C	0.870521	0.062364	-0.776427
C511	C	1.120521	0.312364	-0.526427
C512	C	1.370521	0.562364	-0.276427
C513	C	0.620519	-0.187643	-0.979508
C514	C	0.870519	0.062357	-0.729508
C515	C	1.120519	0.312357	-0.479508
C516	C	1.370519	0.562357	-0.229508
C517	C	0.649224	-0.216386	-0.956057
C518	C	0.899224	0.033614	-0.706057
C519	C	1.149224	0.283614	-0.456057
C520	C	1.399224	0.533614	-0.206057
C521	C	0.620491	-0.187732	-0.454034
C522	C	0.870491	0.062268	-0.204034
C523	C	1.120491	0.312268	0.045966
C524	C	1.370491	0.562268	0.295966
C525	C	0.620494	-0.187740	-0.407114
C526	C	0.870494	0.062260	-0.157114
C527	C	1.120494	0.312260	0.092886
C528	C	1.370494	0.562260	0.342886
C529	C	0.677910	-0.245213	-0.407132
C530	C	0.927910	0.004787	-0.157132
C531	C	1.177910	0.254787	0.092868
C532	C	1.427910	0.504787	0.342868
C533	C	0.677909	-0.245204	-0.454048
C534	C	0.927909	0.004796	-0.204048
C535	C	1.177909	0.254796	0.045952
C536	C	1.427909	0.504796	0.295952
C537	C	0.649196	-0.216462	-0.477497
C538	C	0.899196	0.033538	-0.227497
C539	C	1.149196	0.283538	0.022503
C540	C	1.399196	0.533538	0.272503
O541	O	0.702316	-0.269605	-0.528278
O542	O	0.952316	-0.019605	-0.278278
O543	O	1.202316	0.230395	-0.028278
O544	O	1.452316	0.480395	0.221722
O545	O	0.596071	-0.163288	-0.528286
O546	O	0.846071	0.086712	-0.278286
O547	O	1.096071	0.336712	-0.028286
O548	O	1.346071	0.586712	0.221714
C549	C	0.620499	-0.187689	-0.740224
C550	C	0.870499	0.062311	-0.490224
C551	C	1.120499	0.312311	-0.240224
C552	C	1.370499	0.562311	0.009776
C553	C	0.649206	-0.216422	-0.763688
C554	C	0.899206	0.033578	-0.513688
C555	C	1.149206	0.283578	-0.263688
C556	C	1.399206	0.533578	-0.013688
C557	C	0.677912	-0.245161	-0.740236
C558	C	0.927912	0.004839	-0.490236
C559	C	1.177912	0.254839	-0.240236
C560	C	1.427912	0.504839	0.009764
C561	C	0.649211	-0.216413	-0.810605
C562	C	0.899211	0.033587	-0.560605
C563	C	1.149211	0.283587	-0.310605
C564	C	1.399211	0.533587	-0.060605
C565	C	0.620505	-0.187674	-0.834057
C566	C	0.870505	0.062326	-0.584057
C567	C	1.120505	0.312326	-0.334057
C568	C	1.370505	0.562326	-0.084057
C569	C	0.591795	-0.158944	-0.810591
C570	C	0.841795	0.091056	-0.560591
C571	C	1.091795	0.341056	-0.310591
C572	C	1.341795	0.591056	-0.060591
C573	C	0.591793	-0.158950	-0.763676
C574	C	0.841793	0.091050	-0.513676
C575	C	1.091793	0.341050	-0.263676
C576	C	1.341793	0.591050	-0.013676
C577	C	0.706622	-0.273891	-0.763702
C578	C	0.956622	-0.023891	-0.513702
C579	C	1.206622	0.226109	-0.263702
C580	C	1.456622	0.476109	-0.013702
C581	C	0.706621	-0.273882	-0.810617
C582	C	0.956621	-0.023882	-0.560617
C583	C	1.206621	0.226118	-0.310617
C584	C	1.456621	0.476118	-0.060617
C585	C	0.677915	-0.245143	-0.834069
C586	C	0.927915	0.004857	-0.584069
C587	C	1.177915	0.254857	-0.334069
C588	C	1.427915	0.504857	-0.084069
C589	C	0.649158	-0.216488	-0.099827
C590	C	0.899158	0.033512	0.150173
C591	C	1.149158	0.283512	0.400173
C592	C	1.399158	0.533512	0.650173
C593	C	0.649233	-0.216369	-0.049893
C594	C	0.899233	0.033631	0.200107
C595	C	1.149233	0.283631	0.450107
C596	C	1.399233	0.533631	0.700107
H597	H	0.262323	-0.135514	-0.135852
H598	H	0.512323	0.114486	0.114148
H599	H	0.762323	0.364486	0.364148
H600	H	1.012323	0.614486	0.614148
C601	C	0.588943	-0.156025	-1.052228
C602	C	0.838943	0.093975	-0.802228
C603	C	1.088943	0.343975	-0.552228
C604	C	1.338943	0.593975	-0.302228
H605	H	0.571842	-0.138912	-1.031537
H606	H	0.821842	0.111088	-0.781537
H607	H	1.071842	0.361088	-0.531537
H608	H	1.321842	0.611088	-0.281537
H609	H	0.569361	-0.173208	-1.070518
H610	H	0.819361	0.076792	-0.820518
H611	H	1.069361	0.326792	-0.570518
H612	H	1.319361	0.576792	-0.320518
H613	H	0.606148	-0.136448	-1.070542
H614	H	0.856148	0.113552	-0.820542
H615	H	1.106148	0.363552	-0.570542
H616	H	1.356148	0.613552	-0.320542
C617	C	0.386315	-0.156071	-0.156303
C618	C	0.636315	0.093929	0.093697
C619	C	0.886315	0.343929	0.343697
C620	C	1.136315	0.593929	0.593697
H621	H	0.407006	-0.138934	-0.139223
H622	H	0.657006	0.111066	0.110777
H623	H	0.907006	0.361066	0.360777
H624	H	1.157006	0.611066	0.610777
H625	H	0.367986	-0.173226	-0.136700
H626	H	0.617986	0.076774	0.113300
H627	H	0.867986	0.326774	0.363300
H628	H	1.117986	0.576774	0.613300
H629	H	0.368039	-0.136519	-0.173532
H630	H	0.618039	0.113481	0.076468
H631	H	0.868039	0.363481	0.326468
H632	H	1.118039	0.613481	0.576468
C633	C	0.560081	-0.695183	-0.305549
C634	C	0.810081	-0.445183	-0.055549
C635	C	1.060081	-0.195183	0.194451
C636	C	1.310081	0.054817	0.444451
H637	H	0.542962	-0.674494	-0.322640
H638	H	0.792962	-0.424494	-0.072640
H639	H	1.042962	-0.174494	0.177360
H640	H	1.292962	0.075506	0.427360
H641	H	0.540518	-0.713515	-0.288351
H642	H	0.790518	-0.463515	-0.038351
H643	H	1.040518	-0.213515	0.211649
H644	H	1.290518	0.036485	0.461649
H645	H	0.577265	-0.713456	-0.325146
H646	H	0.827265	-0.463456	-0.075146
H647	H	1.077265	-0.213456	0.174854
H648	H	1.327265	0.036544	0.424854
C649	C	0.484852	-0.276915	-0.276733
C650	C	0.734852	-0.026915	-0.026733
C651	C	0.984852	0.223085	0.223267
C652	C	1.234852	0.473085	0.473267
H653	H	0.516155	-0.272799	-0.272618
H654	H	0.766155	-0.022799	-0.022618
H655	H	1.016155	0.227201	0.227382
H656	H	1.266155	0.477201	0.477382
H657	H	0.477189	-0.270388	-0.306932
H658	H	0.727189	-0.020388	-0.056932
H659	H	0.977189	0.229612	0.193068
H660	H	1.227189	0.479612	0.443068
H661	H	0.477136	-0.307090	-0.270095
H662	H	0.727136	-0.057090	-0.020095
H663	H	0.977136	0.192910	0.229905
H664	H	1.227136	0.442910	0.479905
C665	C	0.738326	-0.737350	-0.127603
C666	C	0.988326	-0.487350	0.122397
C667	C	1.238326	-0.237350	0.372397
C668	C	1.488326	0.012650	0.622397
H669	H	0.755454	-0.758039	-0.110518
H670	H	1.005454	-0.508039	0.139482
H671	H	1.255454	-0.258039	0.389482
H672	H	1.505454	-0.008039	0.639482
H673	H	0.721151	-0.719073	-0.108005
H674	H	0.971151	-0.469073	0.141995
H675	H	1.221151	-0.219073	0.391995
H676	H	1.471151	0.030927	0.641995
H677	H	0.757889	-0.719022	-0.144810
H678	H	1.007889	-0.469022	0.105190
H679	H	1.257889	-0.219022	0.355190
H680	H	1.507889	0.030978	0.605190
H681	H	0.729994	-0.297314	-0.688962
H682	H	0.979994	-0.047314	-0.438962
H683	H	1.229994	0.202686	-0.188962
H684	H	1.479994	0.452686	0.061038
H685	H	0.036460	-0.135541	-0.135871
H686	H	0.286460	0.114459	0.114129
H687	H	0.536460	0.364459	0.364129
H688	H	0.786460	0.614459	0.614129
H689	H	0.729988	-0.297324	-0.603853
H690	H	0.979988	-0.047324	-0.353853
H691	H	1.229988	0.202676	-0.103853
H692	H	1.479988	0.452676	0.146147
H693	H	0.701322	-0.268502	-1.045541
H694	H	0.951322	-0.018502	-0.795541
H695	H	1.201322	0.231498	-0.545541
H696	H	1.451322	0.481498	-0.295541
C697	C	0.709517	-0.276732	-0.953732
C698	C	0.959517	-0.026732	-0.703732
C699	C	1.209517	0.223268	-0.453732
C700	C	1.459517	0.473268	-0.203732
H701	H	0.726617	-0.293835	-0.974431
H702	H	0.976617	-0.043835	-0.724431
H703	H	1.226617	0.206165	-0.474431
H704	H	1.476617	0.456165	-0.224431
H705	H	0.692320	-0.296311	-0.935416
H706	H	0.942320	-0.046311	-0.685416
H707	H	1.192320	0.203689	-0.435416
H708	H	1.442320	0.453689	-0.185416
H709	H	0.729106	-0.259550	-0.935445
H710	H	0.979106	-0.009550	-0.685445
H711	H	1.229106	0.240450	-0.435445
H712	H	1.479106	0.490450	-0.185445
C713	C	0.170512	-0.127298	-0.127666
C714	C	0.420512	0.122702	0.122334
C715	C	0.670512	0.372702	0.372334
C716	C	0.920512	0.622702	0.622334
H717	H	0.191208	-0.110160	-0.110592
H718	H	0.441208	0.139840	0.139408
H719	H	0.691208	0.389840	0.389408
H720	H	0.941208	0.639840	0.639408
H721	H	0.152186	-0.144449	-0.108057
H722	H	0.402186	0.105551	0.141943
H723	H	0.652186	0.355551	0.391943
H724	H	0.902186	0.605551	0.641943
H725	H	0.152235	-0.107747	-0.144893
H726	H	0.402235	0.142253	0.105107
H727	H	0.652235	0.392253	0.355107
H728	H	0.902235	0.642253	0.605107
H729	H	0.701291	-0.268598	-0.473153
H730	H	0.951291	-0.018598	-0.223153
H731	H	1.201291	0.231402	0.026847
H732	H	1.451291	0.481402	0.276847
H733	H	0.596961	-0.472662	-0.268615
H734	H	0.846961	-0.222662	-0.018615
H735	H	1.096961	0.027338	0.231385
H736	H	1.346961	0.277338	0.481385
H737	H	0.597133	-1.045050	-0.268662
H738	H	0.847133	-0.795050	-0.018662
H739	H	1.097133	-0.545050	0.231338
H740	H	1.347133	-0.295050	0.481338
C741	C	0.738354	-0.835871	-0.127615
C742	C	0.988354	-0.585871	0.122385
C743	C	1.238354	-0.335871	0.372385
C744	C	1.488354	-0.085871	0.622385
H745	H	0.755468	-0.815176	-0.110516
H746	H	1.005468	-0.565176	0.139484
H747	H	1.255468	-0.315176	0.389484
H748	H	1.505468	-0.065176	0.639484
H749	H	0.757921	-0.854146	-0.144826
H750	H	1.007921	-0.604146	0.105174
H751	H	1.257921	-0.354146	0.355174
H752	H	1.507921	-0.104146	0.605174
H753	H	0.721181	-0.854199	-0.108023
H754	H	0.971181	-0.604199	0.141977
H755	H	1.221181	-0.354199	0.391977
H756	H	1.471181	-0.104199	0.641977
C757	C	-0.186073	-0.276947	-0.276826
C758	C	0.063927	-0.026947	-0.026826
C759	C	0.313927	0.223053	0.223174
C760	C	0.563927	0.473053	0.473174
H761	H	-0.217374	-0.272823	-0.272721
H762	H	0.032626	-0.022823	-0.022721
H763	H	0.282626	0.227177	0.227279
H764	H	0.532626	0.477177	0.477279
H765	H	-0.178408	-0.307125	-0.270202
H766	H	0.071592	-0.057125	-0.020202
H767	H	0.321592	0.192875	0.229798
H768	H	0.571592	0.442875	0.479798
H769	H	-0.178363	-0.270406	-0.307023
H770	H	0.071637	-0.020406	-0.057023
H771	H	0.321637	0.229594	0.192977
H772	H	0.571637	0.479594	0.442977
H773	H	0.393037	-0.268692	-0.268566
H774	H	0.643037	-0.018692	-0.018566
H775	H	0.893037	0.231308	0.231434
H776	H	1.143037	0.481308	0.481434
C777	C	0.560209	-0.127345	-0.737872
C778	C	0.810209	0.122655	-0.487872
C779	C	1.060209	0.372655	-0.237872
C780	C	1.310209	0.622655	0.012128
H781	H	0.543113	-0.110234	-0.758564
H782	H	0.793113	0.139766	-0.508564
H783	H	1.043113	0.389766	-0.258564
H784	H	1.293113	0.639766	-0.008564
H785	H	0.577404	-0.107774	-0.719581
H786	H	0.827404	0.142226	-0.469581
H787	H	1.077404	0.392226	-0.219581
H788	H	1.327404	0.642226	0.030419
H789	H	0.540617	-0.144533	-0.719558
H790	H	0.790617	0.105467	-0.469558
H791	H	1.040617	0.355467	-0.219558
H792	H	1.290617	0.605467	0.030442
C793	C	0.709482	-0.276825	-0.381329
C794	C	0.959482	-0.026825	-0.131329
C795	C	1.209482	0.223175	0.118671
C796	C	1.459482	0.473175	0.368671
H797	H	0.705363	-0.272715	-0.350027
H798	H	0.955363	-0.022715	-0.100027
H799	H	1.205363	0.227285	0.149973
H800	H	1.455363	0.477285	0.399973
H801	H	0.739674	-0.270260	-0.389030
H802	H	0.989674	-0.020260	-0.139030
H803	H	1.239674	0.229740	0.110970
H804	H	1.489674	0.479740	0.360970
H805	H	0.702877	-0.307009	-0.389006
H806	H	0.952877	-0.057009	-0.139006
H807	H	1.202877	0.192991	0.110994
H808	H	1.452877	0.442991	0.360994
C809	C	0.709456	-0.380792	-0.156261
C810	C	0.959456	-0.130792	0.093739
C811	C	1.209456	0.119208	0.343739
C812	C	1.459456	0.369208	0.593739
H813	H	0.726586	-0.401477	-0.139176
H814	H	0.976586	-0.151477	0.110824
H815	H	1.226586	0.098523	0.360824
H816	H	1.476586	0.348523	0.610824
H817	H	0.692279	-0.362515	-0.136665
H818	H	0.942279	-0.112515	0.113335
H819	H	1.192279	0.137485	0.363335
H820	H	1.442279	0.387485	0.613335
H821	H	0.729017	-0.362462	-0.173469
H822	H	0.979017	-0.112462	0.076531
H823	H	1.229017	0.137538	0.326531
H824	H	1.479017	0.387538	0.576531
C825	C	0.269027	-0.305689	-0.305455
C826	C	0.519027	-0.055689	-0.055455
C827	C	0.769027	0.194311	0.194545
C828	C	1.019027	0.444311	0.444545
H829	H	0.248333	-0.322819	-0.322538
H830	H	0.498333	-0.072819	-0.072538
H831	H	0.748333	0.177181	0.177462
H832	H	0.998333	0.427181	0.427462
H833	H	0.287310	-0.325241	-0.288238
H834	H	0.537310	-0.075241	-0.038238
H835	H	0.787310	0.174759	0.211762
H836	H	1.037310	0.424759	0.461762
H837	H	0.287349	-0.288526	-0.325062
H838	H	0.537349	-0.038526	-0.075062
H839	H	0.787349	0.211474	0.174938
H840	H	1.037349	0.461474	0.424938
H841	H	0.177220	-0.297475	-0.297271
H842	H	0.427220	-0.047475	-0.047271
H843	H	0.677220	0.202525	0.202729
H844	H	0.927220	0.452525	0.452729
H845	H	0.596931	-0.387540	-0.268600
H846	H	0.846931	-0.137540	-0.018600
H847	H	1.096931	0.112460	0.231400
H848	H	1.346931	0.362460	0.481400
H849	H	0.568423	-0.135542	-0.829694
H850	H	0.818423	0.114458	-0.579694
H851	H	1.068423	0.364458	-0.329694
H852	H	1.318423	0.614458	-0.079694
C853	C	0.560054	-0.596667	-0.305535
C854	C	0.810054	-0.346667	-0.055535
C855	C	1.060054	-0.096667	0.194465
C856	C	1.310054	0.153333	0.444465
H857	H	0.564161	-0.565362	-0.301425
H858	H	0.814161	-0.315362	-0.051425
H859	H	1.064161	-0.065362	0.198575
H860	H	1.314161	0.184638	0.448575
H861	H	0.529875	-0.604389	-0.298930
H862	H	0.779875	-0.354389	-0.048930
H863	H	1.029875	-0.104389	0.201070
H864	H	1.279875	0.145611	0.451070
H865	H	0.566619	-0.604335	-0.335728
H866	H	0.816619	-0.354335	-0.085728
H867	H	1.066619	-0.104335	0.164272
H868	H	1.316619	0.145665	0.414272
C869	C	0.588934	-0.156041	-0.953703
C870	C	0.838934	0.093959	-0.703703
C871	C	1.088934	0.343959	-0.453703
C872	C	1.338934	0.593959	-0.203703
H873	H	0.571837	-0.138928	-0.974393
H874	H	0.821837	0.111072	-0.724393
H875	H	1.071837	0.361072	-0.474393
H876	H	1.321837	0.611072	-0.224393
H877	H	0.606127	-0.136471	-0.935408
H878	H	0.856127	0.113529	-0.685408
H879	H	1.106127	0.363529	-0.435408
H880	H	1.356127	0.613529	-0.185408
H881	H	0.569341	-0.173231	-0.935392
H882	H	0.819341	0.076769	-0.685392
H883	H	1.069341	0.326769	-0.435392
H884	H	1.319341	0.576769	-0.185392
C885	C	0.560124	-0.835939	-0.305553
C886	C	0.810124	-0.585939	-0.055553
C887	C	1.060124	-0.335939	0.194447
C888	C	1.310124	-0.085939	0.444447
H889	H	0.543002	-0.815252	-0.322644
H890	H	0.793002	-0.565252	-0.072644
H891	H	1.043002	-0.315252	0.177356
H892	H	1.293002	-0.065252	0.427356
H893	H	0.540563	-0.854273	-0.288354
H894	H	0.790563	-0.604273	-0.038354
H895	H	1.040563	-0.354273	0.211646
H896	H	1.290563	-0.104273	0.461646
H897	H	0.577310	-0.854211	-0.325150
H898	H	0.827310	-0.604211	-0.075150
H899	H	1.077310	-0.354211	0.174850
H900	H	1.327310	-0.104211	0.424850
H901	H	0.121565	-0.135536	-0.135861
H902	H	0.371565	0.114464	0.114139
H903	H	0.621565	0.364464	0.364139
H904	H	0.871565	0.614464	0.614139
H905	H	-0.094249	-0.268729	-0.268619
H906	H	0.155751	-0.018729	-0.018619
H907	H	0.405751	0.231271	0.231381
H908	H	0.655751	0.481271	0.481381
H909	H	-0.179368	-0.164333	-0.164561
H910	H	0.070632	0.085667	0.085439
H911	H	0.320632	0.335667	0.335439
H912	H	0.570632	0.585667	0.585439
C913	C	0.029759	-0.305698	-0.305483
C914	C	0.279759	-0.055698	-0.055483
C915	C	0.529759	0.194302	0.194517
C916	C	0.779759	0.444302	0.444517
H917	H	-0.001543	-0.301572	-0.301380
H918	H	0.248457	-0.051572	-0.051380
H919	H	0.498457	0.198428	0.198620
H920	H	0.748457	0.448428	0.448620
H921	H	0.037422	-0.335875	-0.298857
H922	H	0.287422	-0.085875	-0.048857
H923	H	0.537422	0.164125	0.201143
H924	H	0.787422	0.414125	0.451143
H925	H	0.037469	-0.299160	-0.335681
H926	H	0.287469	-0.049160	-0.085681
H927	H	0.537469	0.200840	0.164319
H928	H	0.787469	0.450840	0.414319
C929	C	0.738266	-0.596602	-0.127575
C930	C	0.988266	-0.346602	0.122425
C931	C	1.238266	-0.096602	0.372425
C932	C	1.488266	0.153398	0.622425
H933	H	0.734139	-0.565300	-0.131672
H934	H	0.984139	-0.315300	0.118328
H935	H	1.234139	-0.065300	0.368328
H936	H	1.484139	0.184700	0.618328
H937	H	0.768452	-0.604257	-0.134174
H938	H	1.018452	-0.354257	0.115826
H939	H	1.268452	-0.104257	0.365826
H940	H	1.518452	0.145743	0.615826
H941	H	0.731698	-0.604321	-0.097386
H942	H	0.981698	-0.354321	0.152614
H943	H	1.231698	-0.104321	0.402614
H944	H	1.481698	0.145679	0.652614
H945	H	0.730004	-0.297281	-0.829717
H946	H	0.980004	-0.047281	-0.579717
H947	H	1.230004	0.202719	-0.329717
H948	H	1.480004	0.452719	-0.079717
H949	H	0.478143	-0.164291	-0.164485
H950	H	0.728143	0.085709	0.085515
H951	H	0.978143	0.335709	0.335515
H952	H	1.228143	0.585709	0.585515
C953	C	0.738204	-0.305502	-0.737911
C954	C	0.988204	-0.055502	-0.487911
C955	C	1.238204	0.194498	-0.237911
C956	C	1.488204	0.444498	0.012089
H957	H	0.755303	-0.322607	-0.758609
H958	H	1.005303	-0.072607	-0.508609
H959	H	1.255303	0.177393	-0.258609
H960	H	1.505303	0.427393	-0.008609
H961	H	0.721008	-0.325079	-0.719592
H962	H	0.971008	-0.075079	-0.469592
H963	H	1.221008	0.174921	-0.219592
H964	H	1.471008	0.424921	0.030408
H965	H	0.757794	-0.288318	-0.719625
H966	H	1.007794	-0.038318	-0.469625
H967	H	1.257794	0.211682	-0.219625
H968	H	1.507794	0.461682	0.030375
H969	H	-0.094261	-0.164321	-0.164556
H970	H	0.155739	0.085679	0.085444
H971	H	0.405739	0.335679	0.335444
H972	H	0.655739	0.585679	0.585444
C973	C	0.709492	-0.479307	-0.156269
C974	C	0.959492	-0.229307	0.093731
C975	C	1.209492	0.020693	0.343731
C976	C	1.459492	0.270693	0.593731
H977	H	0.726599	-0.458604	-0.139173
H978	H	0.976599	-0.208604	0.110827
H979	H	1.226599	0.041396	0.360827
H980	H	1.476599	0.291396	0.610827
H981	H	0.729066	-0.497583	-0.173472
H982	H	0.979066	-0.247583	0.076528
H983	H	1.229066	0.002417	0.326528
H984	H	1.479066	0.252417	0.576528
H985	H	0.692320	-0.497634	-0.136675
H986	H	0.942320	-0.247634	0.113325
H987	H	1.192320	0.002366	0.363325
H988	H	1.442320	0.252366	0.613325
H989	H	0.730094	-0.688415	-0.135795
H990	H	0.980094	-0.438415	0.114205
H991	H	1.230094	-0.188415	0.364205
H992	H	1.480094	0.061585	0.614205
H993	H	0.568307	-0.744126	-0.297340
H994	H	0.818307	-0.494126	-0.047340
H995	H	1.068307	-0.244126	0.202660
H996	H	1.318307	0.005874	0.452660
H997	H	0.597116	-0.164338	-0.388012
H998	H	0.847116	0.085662	-0.138012
H999	H	1.097116	0.335662	0.111988
H1000	H	1.347116	0.585662	0.361988
H1001	H	0.597111	-0.164327	-0.473121
H1002	H	0.847111	0.085673	-0.223121
H1003	H	1.097111	0.335673	0.026879
H1004	H	1.347111	0.585673	0.276879
H1005	H	0.121578	-0.297479	-0.297278
H1006	H	0.371578	-0.047479	-0.047278
H1007	H	0.621578	0.202521	0.202722
H1008	H	0.871578	0.452521	0.452722
C1009	C	0.560207	-0.127363	-0.597126
C1010	C	0.810207	0.122637	-0.347126
C1011	C	1.060207	0.372637	-0.097126
C1012	C	1.310207	0.622637	0.152874
H1013	H	0.543111	-0.110252	-0.617818
H1014	H	0.793111	0.139748	-0.367818
H1015	H	1.043111	0.389748	-0.117818
H1016	H	1.293111	0.639748	0.132182
H1017	H	0.577403	-0.107792	-0.578835
H1018	H	0.827403	0.142208	-0.328835
H1019	H	1.077403	0.392208	-0.078835
H1020	H	1.327403	0.642208	0.171165
H1021	H	0.540614	-0.144550	-0.578811
H1022	H	0.790614	0.105450	-0.328811
H1023	H	1.040614	0.355450	-0.078811
H1024	H	1.290614	0.605450	0.171189
C1025	C	0.709639	-0.953187	-0.156316
C1026	C	0.959639	-0.703187	0.093684
C1027	C	1.209639	-0.453187	0.343684
C1028	C	1.459639	-0.203187	0.593684
H1029	H	0.726765	-0.973874	-0.139229
H1030	H	0.976765	-0.723874	0.110771
H1031	H	1.226765	-0.473874	0.360771
H1032	H	1.476765	-0.223874	0.610771
H1033	H	0.692463	-0.934908	-0.136720
H1034	H	0.942463	-0.684908	0.113280
H1035	H	1.192463	-0.434908	0.363280
H1036	H	1.442463	-0.184908	0.613280
H1037	H	0.729202	-0.934861	-0.173524
H1038	H	0.979202	-0.684861	0.076476
H1039	H	1.229202	-0.434861	0.326476
H1040	H	1.479202	-0.184861	0.576476
H1041	H	0.568413	-0.135560	-0.688935
H1042	H	0.818413	0.114440	-0.438935
H1043	H	1.068413	0.364440	-0.188935
H1044	H	1.318413	0.614440	0.061065
H1045	H	0.701449	-1.045016	-0.164527
H1046	H	0.951449	-0.795016	0.085473
H1047	H	1.201449	-0.545016	0.335473
H1048	H	1.451449	-0.295016	0.585473
H1049	H	0.597112	-0.959941	-0.268661
H1050	H	0.847112	-0.709941	-0.018661
H1051	H	1.097112	-0.459941	0.231339
H1052	H	1.347112	-0.209941	0.481339
