data_functionalizedCrystal
_audit_creation_method	'MofGen! by Chris Wilmer'
_symmetry_space_group_name_H-M	'P1'
_symmetry_Int_Tables_number	1
_symmetry_cell_setting	triclinic
loop_
_symmetry_equiv_pos_as_xyz
  x,y,z
_cell_length_a	17.699083
_cell_length_b	14.044220
_cell_length_c	16.176319
_cell_angle_alpha	89.992517
_cell_angle_beta	89.998611
_cell_angle_gamma	88.235946
loop_
_atom_site_label
_atom_site_type_symbol
_atom_site_fract_x
_atom_site_fract_y
_atom_site_fract_z
O1	O	1.012346	0.119850	-0.068632
O2	O	0.793044	0.135443	-0.068659
O3	O	0.899403	-0.010330	-0.068638
O4	O	0.905987	0.265624	-0.068653
O5	O	0.899387	-0.010340	0.068855
O6	O	0.793027	0.135434	0.068834
O7	O	1.012330	0.119841	0.068861
Cu8	Cu	0.902677	0.127637	0.081402
Cu9	Cu	0.902696	0.127648	-0.081200
O10	O	0.905970	0.265614	0.068840
C11	C	0.764800	0.134880	0.000084
C12	C	0.680666	0.133204	0.000074
C13	C	0.896513	-0.045643	0.000109
C14	C	0.887917	-0.150849	0.000109
C15	C	0.637948	0.218769	0.000069
C16	C	0.558895	0.217189	0.000080
C17	C	0.522563	0.130041	0.000089
C18	C	0.565287	0.044469	0.000096
C19	C	0.644338	0.046050	0.000092
C20	C	0.246484	0.038089	0.000117
C21	C	0.167427	0.036514	0.000120
C22	C	0.161041	0.209227	0.000106
C23	C	0.240092	0.210809	0.000101
C24	C	0.282809	0.125237	0.000112
C25	C	0.368527	0.126952	0.000102
C26	C	0.436847	0.128325	0.000094
C27	C	0.872202	-0.343474	0.000095
C28	C	0.933168	-0.401248	0.000100
C29	C	0.924424	-0.508431	0.000092
C30	C	0.880945	-0.236281	0.000102
C31	C	1.040574	0.120404	0.000116
C32	C	1.124707	0.122081	0.000121
C33	C	0.908860	0.300927	0.000091
C34	C	0.917456	0.406133	0.000086
N35	N	0.902668	0.127628	0.195767
N36	N	0.902710	0.127648	-0.195565
C37	C	0.949782	0.063106	0.239041
C38	C	0.949786	0.063105	0.325588
C39	C	0.902679	0.127632	0.368860
C40	C	0.855561	0.192157	0.325580
C41	C	0.855554	0.192153	0.239034
C42	C	0.855588	0.192175	0.674608
C43	C	0.855600	0.192176	0.761160
C44	C	0.949820	0.063127	0.761161
C45	C	0.949813	0.063123	0.674616
C46	C	0.902692	0.127644	0.631344
C47	C	0.902687	0.127643	0.537500
C48	C	0.902687	0.127638	0.462702
H49	H	0.524117	0.286865	0.000075
C50	C	0.957529	-0.065912	0.422920
C51	C	1.001579	-0.007819	0.373148
H52	H	0.989508	-0.109703	0.452275
H53	H	0.929483	-0.027490	0.461077
H54	H	0.923730	-0.099952	0.389157
H55	H	1.035375	0.026227	0.406912
H56	H	1.029638	-0.046246	0.334986
H57	H	0.988144	0.010565	0.203814
C58	C	0.799463	-0.484976	0.000093
C59	C	0.792879	-0.385364	0.000092
H60	H	0.750493	-0.510843	0.000099
H61	H	0.826173	-0.505813	-0.047853
H62	H	0.826180	-0.505827	0.048042
H63	H	0.766167	-0.364513	-0.047860
H64	H	0.766158	-0.364518	0.048042
H65	H	0.988174	0.010583	0.639387
C66	C	1.051878	-0.390091	-0.070552
C67	C	1.012496	-0.359359	0.000121
H68	H	1.100848	-0.364222	-0.070537
H69	H	1.056330	-0.457662	-0.070550
H70	H	1.025169	-0.369216	-0.118499
H71	H	1.039203	-0.380240	0.048068
H72	H	1.008048	-0.291774	0.000127
C73	C	0.983194	-0.101019	0.787818
C74	C	1.001608	-0.007810	0.808729
H75	H	1.015169	-0.144809	0.817180
H76	H	0.932002	-0.111226	0.802012
H77	H	0.989935	-0.110240	0.730081
H78	H	0.994862	0.001413	0.866466
H79	H	1.052812	0.002401	0.794541
C80	C	0.762443	0.319727	0.752469
C81	C	0.803809	0.263100	0.808726
H82	H	0.730469	0.363505	0.781837
H83	H	0.796233	0.353775	0.718706
H84	H	0.732563	0.280303	0.718722
H85	H	0.833694	0.302524	0.842470
H86	H	0.770015	0.229049	0.842504
C87	C	0.847866	0.321186	0.577279
C88	C	0.803804	0.263111	0.627054
H89	H	0.815895	0.364981	0.547917
H90	H	0.881667	0.355216	0.611035
H91	H	0.875908	0.282747	0.539120
H92	H	0.775766	0.301551	0.665218
H93	H	0.769989	0.229079	0.593296
C94	C	0.325270	0.312792	-0.070608
C95	C	0.280022	0.306608	0.000080
H96	H	0.349915	0.371940	-0.070623
H97	H	0.362027	0.262069	-0.070599
H98	H	0.294552	0.308578	-0.118545
H99	H	0.310741	0.310815	0.048016
H100	H	0.243261	0.357345	0.000077
H101	H	0.817202	0.244692	0.360817
H102	H	0.817188	0.244692	0.203802
H103	H	0.667523	0.289735	0.000061
H104	H	0.126251	0.278904	0.000101
H105	H	0.137848	-0.034456	0.000128
H106	H	0.535699	-0.026488	0.000116
C107	C	0.244845	-0.132793	0.000126
C108	C	0.293432	-0.055971	0.000123
H109	H	0.273833	-0.190863	0.000125
H110	H	0.213881	-0.129817	0.048070
H111	H	0.213878	-0.129805	-0.047824
H112	H	0.324395	-0.058955	0.048077
H113	H	0.324409	-0.058948	-0.047826
H114	H	0.679119	-0.023626	0.000095
