data_functionalizedCrystal
_audit_creation_method	'MofGen! by Chris Wilmer'
_symmetry_space_group_name_H-M	'P1'
_symmetry_Int_Tables_number	1
_symmetry_cell_setting	triclinic
loop_
_symmetry_equiv_pos_as_xyz
  x,y,z
_cell_length_a	15.944545
_cell_length_b	15.944551
_cell_length_c	12.376593
_cell_angle_alpha	77.327037
_cell_angle_beta	77.338083
_cell_angle_gamma	83.497455
loop_
_atom_site_label
_atom_site_type_symbol
_atom_site_fract_x
_atom_site_fract_y
_atom_site_fract_z
O1	O	1.128881	0.122671	-0.093934
O2	O	1.628881	0.622671	0.406066
O3	O	0.884334	0.136035	-0.093953
O4	O	1.384334	0.636035	0.406047
O5	O	1.013284	0.007076	-0.093933
O6	O	1.513284	0.507076	0.406067
O7	O	0.999931	0.251630	-0.093954
O8	O	1.499931	0.751630	0.406046
O9	O	0.984544	-0.021677	0.094077
O10	O	1.484544	0.478323	0.594077
O11	O	0.855593	0.107282	0.094057
O12	O	1.355593	0.607282	0.594057
O13	O	1.100141	0.093917	0.094076
O14	O	1.600141	0.593917	0.594076
Zn15	Zn	0.973304	0.096035	0.123917
Zn16	Zn	1.473304	0.596035	0.623917
Zn17	Zn	1.011171	0.133918	-0.123794
Zn18	Zn	1.511171	0.633918	0.376206
O19	O	0.971191	0.222876	0.094056
O20	O	1.471191	0.722876	0.594056
C21	C	0.838670	0.121105	0.000050
C22	C	1.338670	0.621105	0.500050
C23	C	0.745425	0.119446	0.000043
C24	C	1.245425	0.619446	0.500043
C25	C	0.474789	0.034550	0.000062
C26	C	0.974789	0.534550	0.500062
C27	C	0.511200	0.061302	0.092760
C28	C	1.011200	0.561302	0.592760
C29	C	0.409778	0.113522	0.000063
C30	C	0.909778	0.613522	0.500063
C31	C	0.539517	0.089671	-0.092603
C32	C	1.039517	0.589671	0.407397
C33	C	0.574693	0.116429	0.000051
C34	C	1.074693	0.616429	0.500051
C35	C	0.444949	0.140242	0.092837
C36	C	0.944949	0.640242	0.592837
C37	C	0.473275	0.168613	-0.092609
C38	C	0.973275	0.668613	0.407391
C39	C	0.509650	0.195419	0.000112
C40	C	1.009650	0.695419	0.500112
C41	C	0.314774	0.111846	0.000071
C42	C	0.814774	0.611846	0.500071
C43	C	0.669692	0.118111	0.000052
C44	C	1.169692	0.618111	0.500052
C45	C	0.998359	-0.038594	0.000072
C46	C	1.498359	0.461406	0.500072
C47	C	0.996697	-0.131840	0.000073
C48	C	1.496697	0.368160	0.500073
C49	C	0.912796	-0.346692	0.000051
C50	C	1.412796	0.153308	0.500051
C51	C	0.937587	-0.421887	0.092754
C52	C	1.437587	0.078113	0.592754
C53	C	0.993691	-0.302565	0.000064
C54	C	1.493691	0.197435	0.500064
C55	C	0.965942	-0.393522	-0.092609
C56	C	1.465942	0.106478	0.407391
C57	C	0.990782	-0.467475	0.000050
C58	C	1.490782	0.032525	0.500050
C59	C	1.018493	-0.376544	0.092844
C60	C	1.518493	0.123456	0.592844
C61	C	1.046849	-0.348160	-0.092603
C62	C	1.546849	0.151840	0.407397
C63	C	1.071696	-0.423341	0.000123
C64	C	1.571696	0.076659	0.500123
C65	C	0.995364	-0.207564	0.000073
C66	C	1.495364	0.292436	0.500073
C67	C	0.989114	-0.562476	0.000050
C68	C	1.489114	-0.062476	0.500050
C69	C	1.145805	0.108848	0.000071
C70	C	1.645805	0.608848	0.500071
C71	C	1.239052	0.110508	0.000070
C72	C	1.739052	0.610508	0.500070
C73	C	0.986116	0.268547	0.000048
C74	C	1.486116	0.768547	0.500048
C75	C	0.987779	0.361795	0.000040
C76	C	1.487779	0.861795	0.500040
N77	N	0.947467	0.070179	0.292973
N78	N	1.447467	0.570179	0.792973
N79	N	1.037014	0.159767	-0.292850
N80	N	1.537014	0.659767	0.207150
C81	C	1.096996	0.219798	0.647971
C82	C	1.596996	0.719798	1.147971
C83	C	1.115072	0.237903	0.529632
C84	C	1.615072	0.737903	1.029632
C85	C	1.073173	0.195974	0.470462
C86	C	1.573173	0.695974	0.970462
C87	C	1.013194	0.135936	0.529641
C88	C	1.513194	0.635936	1.029641
C89	C	0.995111	0.117835	0.647991
C90	C	1.495111	0.617835	1.147991
C91	C	0.971287	0.094010	0.470482
C92	C	1.471287	0.594010	0.970482
C93	C	0.911309	0.033972	0.529661
C94	C	1.411309	0.533972	1.029661
C95	C	0.893230	0.015873	0.648000
C96	C	1.393230	0.515873	1.148000
C97	C	0.935129	0.057803	0.707170
C98	C	1.435129	0.557803	1.207170
C99	C	0.989370	0.112112	0.352132
C100	C	1.489370	0.612112	0.852132
C101	C	0.887485	0.010148	0.352152
C102	C	1.387485	0.510148	0.852152
C103	C	0.869409	-0.007957	0.470491
C104	C	1.369409	0.492043	0.970491
H105	H	0.456310	0.213922	-0.170986
H106	H	0.956310	0.713922	0.329014
H107	H	0.920416	0.043063	0.803531
H108	H	1.420416	0.543063	1.303531
Cl109	Cl	1.064771	0.187582	0.277750
Cl110	Cl	1.564771	0.687582	0.777750
H111	H	1.087893	0.210719	0.374105
H112	H	1.587893	0.710719	0.874105
H113	H	1.163907	0.286785	0.481457
H114	H	1.663907	0.786785	0.981457
Cl115	Cl	0.602659	0.056663	-0.213590
Cl116	Cl	1.102659	0.556663	0.286410
Cl117	Cl	0.450594	-0.070475	0.000207
Cl118	Cl	0.950594	0.429525	0.500207
H119	H	1.040686	-0.368553	0.171303
H120	H	1.540686	0.131447	0.671303
H121	H	0.404147	0.161571	0.171290
H122	H	0.904147	0.661571	0.671290
Cl123	Cl	0.537368	-0.008695	0.213766
Cl124	Cl	1.037368	0.491305	0.713766
Cl125	Cl	0.834804	-0.042564	0.277775
Cl126	Cl	1.334804	0.457436	0.777775
H127	H	0.943697	-0.401612	-0.170988
H128	H	1.443697	0.098388	0.329012
Cl129	Cl	0.866266	-0.471438	0.213749
Cl130	Cl	1.366266	0.028562	0.713749
Cl131	Cl	0.809105	-0.295284	0.000178
Cl132	Cl	1.309105	0.204716	0.500178
H133	H	1.093017	-0.316044	-0.170975
H134	H	1.593017	0.183956	0.329025
H135	H	0.525134	0.263477	0.000160
H136	H	1.025134	0.763477	0.500160
Cl137	Cl	1.149651	0.272514	0.722361
Cl138	Cl	1.649651	0.772514	1.222361
Cl139	Cl	1.175444	-0.474555	0.000207
Cl140	Cl	1.675444	0.025445	0.500207
Cl141	Cl	0.817815	-0.059590	0.722394
Cl142	Cl	1.317815	0.440410	1.222394
Cl143	Cl	0.794007	-0.083428	0.544901
Cl144	Cl	1.294007	0.416572	1.044901
