data_functionalizedCrystal
_audit_creation_method	'MofGen! by Chris Wilmer'
_symmetry_space_group_name_H-M	'P1'
_symmetry_Int_Tables_number	1
_symmetry_cell_setting	triclinic
loop_
_symmetry_equiv_pos_as_xyz
  x,y,z
_cell_length_a	14.908783
_cell_length_b	14.908506
_cell_length_c	14.908308
_cell_angle_alpha	83.637915
_cell_angle_beta	90.211273
_cell_angle_gamma	96.790846
loop_
_atom_site_label
_atom_site_type_symbol
_atom_site_fract_x
_atom_site_fract_y
_atom_site_fract_z
Zn1	Zn	1.325984	-0.317645	0.605038
Zn2	Zn	1.325883	-0.460296	0.462406
Zn3	Zn	1.184357	-0.316663	0.445956
Zn4	Zn	1.165851	-0.477687	0.604970
O5	O	1.250519	-0.393073	0.529592
O6	O	1.452216	-0.329702	0.593030
O7	O	1.314812	-0.433554	0.333984
O8	O	1.210931	-0.189704	0.460203
O9	O	1.452142	-0.434507	0.488239
O10	O	1.314984	-0.190426	0.577079
O11	O	1.210834	-0.328027	0.321898
O12	O	1.055656	-0.344889	0.460136
O13	O	1.179390	-0.464146	0.731218
O14	O	1.042060	-0.463193	0.576963
O15	O	1.297039	-0.346564	0.731268
O16	O	1.296868	-0.589693	0.488173
O17	O	1.179292	-0.602469	0.592914
C18	C	1.016124	-0.405822	0.516758
C19	C	0.915846	-0.411300	0.511290
C20	C	1.236084	-0.629034	0.542342
C21	C	1.229989	-0.729976	0.547831
C22	C	1.160143	-0.878933	0.610044
C23	C	1.165867	-0.784090	0.604893
C24	C	1.288394	-0.770712	0.495919
C25	C	1.282670	-0.865556	0.501071
C26	C	1.218541	-0.919664	0.558134
C27	C	1.212814	-1.014509	0.563280
C28	C	1.335345	-1.001130	0.454312
C29	C	1.341069	-0.906286	0.449161
C30	C	0.727468	-0.312629	0.610319
C31	C	0.633248	-0.317773	0.605184
C32	C	0.633186	-0.426725	0.495881
C33	C	0.727405	-0.421582	0.501016
C34	C	0.774543	-0.364533	0.558238
C35	C	0.868764	-0.359394	0.563377
C36	C	0.868700	-0.468342	0.454070
C37	C	0.774480	-0.473486	0.448935
C38	C	1.485829	-0.380274	0.542477
C39	C	1.586104	-0.374820	0.547968
C40	C	1.236161	-0.407405	0.764891
C41	C	1.230043	-0.413512	0.865162
C42	C	1.265033	-0.156191	0.516814
C43	C	1.271218	-0.055245	0.511368
C44	C	1.264876	-0.378728	0.295208
C45	C	1.271185	-0.372355	0.194934
C46	C	1.341053	-0.302530	1.053633
C47	C	1.335307	-0.308265	1.147846
C48	C	1.212802	-0.430713	1.147802
C49	C	1.218548	-0.424978	1.053589
C50	C	1.282676	-0.360885	1.006508
C51	C	1.288426	-0.355155	0.912294
C52	C	1.165917	-0.477598	0.912251
C53	C	1.160171	-0.483333	1.006464
H54	H	1.107928	-0.922989	0.656509
H55	H	0.736088	-0.519930	0.402344
O56	O	1.109044	-0.744671	0.655350
C57	C	1.051236	-0.812769	0.706836
H58	H	1.046314	-0.878309	0.673386
H59	H	0.981214	-0.789880	0.711028
H60	H	1.079432	-0.825185	0.777727
H61	H	1.393273	-0.250347	1.015299
H62	H	1.382897	-1.034302	0.412043
H63	H	0.907038	-0.510613	0.411669
O64	O	1.109331	-0.534320	0.866386
C65	C	1.160424	-0.586885	0.817889
H66	H	1.231614	-0.550273	0.805783
H67	H	1.126970	-0.597030	0.750286
H68	H	1.164003	-0.655855	0.858379
O69	O	0.914665	-0.303921	0.618836
C70	C	0.975855	-0.239075	0.567361
H71	H	0.992180	-0.266069	0.501441
H72	H	1.040615	-0.225579	0.607084
H73	H	0.944251	-0.173144	0.551933
H74	H	1.160599	-1.058562	0.609747
O75	O	1.350624	-0.292773	0.866586
C76	C	1.335051	-0.204737	0.883664
H77	H	1.261678	-0.205659	0.905369
H78	H	1.349346	-0.155670	0.819711
H79	H	1.381533	-0.181692	0.939719
O80	O	0.773127	-0.257147	0.665925
C81	C	0.711369	-0.212461	0.710818
H82	H	0.646647	-0.210668	0.670038
H83	H	0.742374	-0.140031	0.718183
H84	H	0.695147	-0.250549	0.780532
O85	O	1.403236	-0.853682	0.393625
C86	C	1.358782	-0.798111	0.329551
H87	H	1.286346	-0.830285	0.321590
H88	H	1.395763	-0.791018	0.261880
H89	H	1.358289	-0.728095	0.353368
O90	O	1.350805	-0.718188	0.440596
C91	C	1.438103	-0.737606	0.466541
H92	H	1.436633	-0.767798	0.540273
H93	H	1.486919	-0.672298	0.457856
H94	H	1.461348	-0.788421	0.422475
O95	O	0.587409	-0.267491	0.655824
C96	C	0.526226	-0.325805	0.713855
H97	H	0.509849	-0.393409	0.684877
H98	H	0.461491	-0.293189	0.720396
H99	H	0.557862	-0.337973	0.783216
H100	H	0.594791	-0.473161	0.449283
O101	O	1.392111	-0.251539	1.193488
C102	C	1.449924	-0.193726	1.131724
H103	H	1.454866	-0.226667	1.066744
H104	H	1.519938	-0.181824	1.162311
H105	H	1.421719	-0.125941	1.116173
O106	O	1.150579	-0.492929	1.193685
C107	C	1.158005	-0.485448	1.286942
H108	H	1.228669	-0.452711	1.302015
H109	H	1.145517	-0.555980	1.326097
H110	H	1.105835	-0.441605	1.308123
H111	H	1.107958	-0.535513	1.044810
