data_functionalizedCrystal
_audit_creation_method	'MofGen! by Chris Wilmer'
_symmetry_space_group_name_H-M	'P1'
_symmetry_Int_Tables_number	1
_symmetry_cell_setting	triclinic
loop_
_symmetry_equiv_pos_as_xyz
  x,y,z
_cell_length_a	6.394989
_cell_length_b	17.699083
_cell_length_c	16.176319
_cell_angle_alpha	90.001389
_cell_angle_beta	90.003737
_cell_angle_gamma	84.890363
loop_
_atom_site_label
_atom_site_type_symbol
_atom_site_fract_x
_atom_site_fract_y
_atom_site_fract_z
O1	O	-0.264132	-1.006774	-0.068625
O2	O	-0.298496	-0.786747	-0.068651
O3	O	0.022766	-0.899883	-0.068638
O4	O	-0.585394	-0.893637	-0.068638
O5	O	0.022787	-0.899867	0.068855
O6	O	-0.298475	-0.786730	0.068842
O7	O	-0.264111	-1.006758	0.068868
Cu8	Cu	-0.281291	-0.896743	0.081409
Cu9	Cu	-0.281315	-0.896762	-0.081193
O10	O	-0.585373	-0.893621	0.068855
C11	C	-0.297254	-0.758529	0.000092
C12	C	-0.293560	-0.674473	0.000081
C13	C	-0.265353	-1.034976	0.000123
C14	C	-0.269047	-1.119031	0.000128
N15	N	-0.281273	-0.896735	0.195774
C16	C	0.100592	-0.898640	0.000105
C17	C	0.336808	-0.894866	0.000104
N18	N	-0.281317	-0.896776	-0.195558
C19	C	-0.482134	-0.627777	0.000082
C20	C	-0.478651	-0.548798	0.000092
C21	C	-0.286591	-0.516517	0.000097
C22	C	-0.098003	-0.563220	0.000099
C23	C	-0.101488	-0.642197	0.000094
C24	C	-0.083942	-0.244713	0.000119
C25	C	-0.080470	-0.165730	0.000122
C26	C	-0.461104	-0.151314	0.000118
C27	C	-0.464590	-0.230291	0.000113
C28	C	-0.276002	-0.276987	0.000119
C29	C	-0.279782	-0.362625	0.000109
C30	C	-0.282810	-0.430881	0.000101
C31	C	-0.139076	-0.946848	0.239044
C32	C	-0.139074	-0.946852	0.325591
C33	C	-0.281280	-0.896746	0.368867
C34	C	-0.423484	-0.846627	0.325591
C35	C	-0.423474	-0.846620	0.239045
C36	C	-0.423523	-0.846653	0.674619
C37	C	-0.423526	-0.846666	0.761171
C38	C	-0.139123	-0.946885	0.761165
C39	C	-0.139113	-0.946878	0.674620
C40	C	-0.281308	-0.896757	0.631351
C41	C	-0.281306	-0.896753	0.537507
C42	C	-0.281294	-0.896753	0.462710
H43	H	-0.632207	-0.510780	0.000092
O44	O	0.106056	-0.134336	-0.000015
C45	C	0.330837	-0.053495	-0.071211
C46	C	0.119562	-0.089013	-0.071167
H47	H	0.341807	-0.016832	-0.128722
H48	H	0.465113	-0.100405	-0.071258
H49	H	0.341939	-0.016911	-0.013643
H50	H	0.108254	-0.125591	-0.128724
H51	H	-0.014613	-0.042067	-0.071076
H52	H	0.052069	-0.680217	0.000093
O53	O	-0.000733	-0.995549	0.197138
C54	C	0.281289	-1.094985	0.206277
C55	C	0.124753	-1.039860	0.253835
H56	H	0.382756	-1.130836	0.252096
H57	H	0.385670	-1.061353	0.165790
H58	H	0.191209	-1.133614	0.165728
H59	H	0.214663	-1.001218	0.294430
H60	H	0.020374	-1.073539	0.294270
O61	O	-0.000582	-0.995386	0.632560
C62	C	0.285332	-1.008557	0.535117
C63	C	0.128322	-0.953578	0.582636
H64	H	0.389621	-0.974776	0.494755
H65	H	0.195863	-1.047294	0.494464
H66	H	0.386849	-1.044307	0.581005
H67	H	0.026764	-0.917778	0.536807
H68	H	0.217920	-0.914892	0.623301
O69	O	-0.561739	-0.797912	0.803082
C70	C	-0.843893	-0.698524	0.793960
C71	C	-0.687461	-0.753680	0.746393
H72	H	-0.945610	-0.662758	0.748147
H73	H	-0.753937	-0.659818	0.834466
H74	H	-0.948043	-0.732205	0.834491
H75	H	-0.583272	-0.720060	0.705817
H76	H	-0.777547	-0.792386	0.705938
H77	H	0.069618	-0.282724	0.000125
H78	H	-0.539307	-0.805845	0.639397
H79	H	-0.023285	-0.987657	0.360821
H80	H	0.058376	-0.536930	0.000114
H81	H	-0.539264	-0.805826	0.360831
O82	O	-0.561812	-0.797916	0.197138
C83	C	-0.843828	-0.698477	0.206272
C84	C	-0.687312	-0.753611	0.253833
H85	H	-0.945306	-0.662632	0.252089
H86	H	-0.948201	-0.732102	0.165766
H87	H	-0.753731	-0.659843	0.165741
H88	H	-0.777238	-0.792258	0.294409
H89	H	-0.582942	-0.719940	0.294287
H90	H	-0.638531	-0.654053	0.000078
H91	H	-0.023333	-0.987694	0.796404
H92	H	-0.620984	-0.256569	0.000106
H93	H	-0.614661	-0.113284	0.000117
