data_functionalizedCrystal
_audit_creation_method	'MofGen! by Chris Wilmer'
_symmetry_space_group_name_H-M	'P1'
_symmetry_Int_Tables_number	1
_symmetry_cell_setting	triclinic
loop_
_symmetry_equiv_pos_as_xyz
  x,y,z
_cell_length_a	16.959455
_cell_length_b	17.640280
_cell_length_c	16.959447
_cell_angle_alpha	78.776124
_cell_angle_beta	89.982507
_cell_angle_gamma	78.797529
loop_
_atom_site_label
_atom_site_type_symbol
_atom_site_fract_x
_atom_site_fract_y
_atom_site_fract_z
Zn1	Zn	1.272084	-0.314742	-0.383353
Zn2	Zn	1.772084	0.185258	0.116647
Zn3	Zn	1.298741	-0.446920	-0.224484
Zn4	Zn	1.798741	0.053080	0.275516
Zn5	Zn	1.139909	-0.314759	-0.251188
Zn6	Zn	1.639909	0.185241	0.248812
Zn7	Zn	1.166608	-0.446869	-0.356633
Zn8	Zn	1.666608	0.053131	0.143367
O9	O	1.219335	-0.380822	-0.303915
O10	O	1.719335	0.119178	0.196085
O11	O	1.386234	-0.332290	-0.362286
O12	O	1.886234	0.167710	0.137714
O13	O	1.277653	-0.429416	-0.117410
O14	O	1.777653	0.070584	0.382590
O15	O	1.135113	-0.204151	-0.291077
O16	O	1.635113	0.295849	0.208923
O17	O	1.405818	-0.429400	-0.245566
O18	O	1.905818	0.070600	0.254434
O19	O	1.232222	-0.204139	-0.388179
O20	O	1.732222	0.295861	0.111821
O21	O	1.160960	-0.332318	-0.137029
O22	O	1.660960	0.167682	0.362971
O23	O	1.032837	-0.332269	-0.265168
O24	O	1.532837	0.167731	0.234832
O25	O	1.180618	-0.429314	-0.470794
O26	O	1.680618	0.070686	0.029206
O27	O	1.052453	-0.429330	-0.342639
O28	O	1.552453	0.070670	0.157361
O29	O	1.258111	-0.332241	-0.490426
O30	O	1.758111	0.167759	0.009574
O31	O	1.303542	-0.557518	-0.219657
O32	O	1.803542	-0.057518	0.280343
O33	O	1.206465	-0.557481	-0.316746
O34	O	1.706465	-0.057481	0.183254
C35	C	1.013964	-0.380796	-0.303902
C36	C	1.513964	0.119204	0.196098
C37	C	0.926109	-0.380804	-0.303911
C38	C	1.426109	0.119196	0.196089
C39	C	0.544390	-0.330241	-0.263690
C40	C	1.044390	0.169759	0.236310
C41	C	0.564897	-0.431468	-0.344172
C42	C	1.064897	0.068532	0.155828
C43	C	0.647441	-0.431457	-0.344169
C44	C	1.147441	0.068543	0.155831
C45	C	0.678463	-0.380838	-0.303925
C46	C	1.178463	0.119162	0.196075
C47	C	0.626941	-0.330230	-0.263684
C48	C	1.126941	0.169770	0.236316
C49	C	0.698969	-0.482069	-0.384403
C50	C	1.198969	0.017931	0.115597
C51	C	0.781518	-0.482061	-0.384401
C52	C	1.281518	0.017939	0.115599
C53	C	0.812541	-0.431437	-0.344162
C54	C	1.312541	0.068563	0.155838
C55	C	0.761014	-0.380827	-0.303919
C56	C	1.261014	0.119173	0.196081
C57	C	0.792036	-0.330208	-0.263676
C58	C	1.292036	0.169792	0.236324
C59	C	0.740510	-0.279593	-0.223438
C60	C	1.240510	0.220407	0.276562
C61	C	0.657964	-0.279606	-0.223444
C62	C	1.157964	0.220394	0.276556
C63	C	0.895087	-0.431423	-0.344155
C64	C	1.395087	0.068577	0.155845
C65	C	0.874588	-0.330196	-0.263670
C66	C	1.374588	0.169804	0.236330
C67	C	1.260815	-0.586178	-0.262421
C68	C	1.760815	-0.086178	0.237579
C69	C	1.278632	-0.674030	-0.244697
C70	C	1.778632	-0.174030	0.255303
C71	C	1.084303	-0.963005	-0.438854
C72	C	1.584303	-0.463005	0.061146
C73	C	1.101046	-1.045555	-0.422174
C74	C	1.601046	-0.545555	0.077826
C75	C	1.202195	-1.045529	-0.321177
C76	C	1.702195	-0.545529	0.178823
C77	C	1.185463	-0.962977	-0.337852
C78	C	1.685463	-0.462977	0.162148
C79	C	1.126515	-0.921721	-0.396690
C80	C	1.626515	-0.421721	0.103310
C81	C	1.227675	-0.921693	-0.295688
C82	C	1.727675	-0.421693	0.204312
C83	C	1.210941	-0.839148	-0.312358
C84	C	1.710941	-0.339148	0.187642
C85	C	1.151994	-0.797887	-0.371193
C86	C	1.651994	-0.297887	0.128807
C87	C	1.109781	-0.839176	-0.413361
C88	C	1.609781	-0.339176	0.086639
C89	C	1.286619	-0.962950	-0.236846
C90	C	1.786619	-0.462950	0.263154
C91	C	1.328831	-0.921666	-0.194682
C92	C	1.828831	-0.421666	0.305318
C93	C	1.312101	-0.839120	-0.211356
C94	C	1.812101	-0.339120	0.288644
C95	C	1.253154	-0.797859	-0.270190
C96	C	1.753154	-0.297859	0.229810
C97	C	1.354315	-0.797830	-0.169188
C98	C	1.854315	-0.297830	0.330812
C99	C	1.337580	-0.715286	-0.185858
C100	C	1.837580	-0.215286	0.314142
C101	C	1.236420	-0.715314	-0.286860
C102	C	1.736420	-0.215314	0.213140
C103	C	1.425509	-0.380849	-0.303928
C104	C	1.925509	0.119151	0.196072
C105	C	1.513368	-0.380860	-0.303934
C106	C	2.013368	0.119140	0.196066
C107	C	1.219369	-0.380770	-0.510094
C108	C	1.719369	0.119230	-0.010094
C109	C	1.219383	-0.380747	-0.597955
C110	C	1.719383	0.119253	-0.097955
C111	C	1.177715	-0.174665	-0.345587
C112	C	1.677715	0.325335	0.154413
C113	C	1.159979	-0.086812	-0.363346
C114	C	1.659979	0.413188	0.136654
C115	C	1.179044	-0.431279	-0.629011
C116	C	1.679044	0.068721	-0.129011
C117	C	1.259730	-0.330190	-0.649457
C118	C	1.759730	0.169810	-0.149457
C119	C	1.259742	-0.330164	-0.732008
C120	C	1.759742	0.169836	-0.232008
C121	C	1.219403	-0.380695	-0.763065
C122	C	1.719403	0.119305	-0.263065
C123	C	1.179052	-0.431253	-0.711570
C124	C	1.679052	0.068747	-0.211570
C125	C	1.300084	-0.279601	-0.783510
C126	C	1.800084	0.220399	-0.283510
C127	C	1.300096	-0.279573	-0.866067
C128	C	1.800096	0.220427	-0.366067
C129	C	1.259762	-0.330109	-0.897124
C130	C	1.759762	0.169891	-0.397124
C131	C	1.219411	-0.380669	-0.845624
C132	C	1.719411	0.119331	-0.345624
C133	C	1.179071	-0.431201	-0.876680
C134	C	1.679071	0.068799	-0.376680
C135	C	1.138725	-0.481766	-0.825180
C136	C	1.638725	0.018234	-0.325180
C137	C	1.138717	-0.481789	-0.742627
C138	C	1.638717	0.018211	-0.242627
C139	C	1.259769	-0.330086	-0.979677
C140	C	1.759769	0.169914	-0.479677
C141	C	1.179079	-0.431175	-0.959239
C142	C	1.679079	0.068825	-0.459239
C143	C	1.219336	-0.380818	-0.098549
C144	C	1.719336	0.119182	0.401451
C145	C	1.219430	-0.380617	-0.010734
C146	C	1.719430	0.119383	0.489266
H147	H	0.616005	-0.238399	-0.190684
H148	H	1.116005	0.261601	0.309316
H149	H	0.539634	-0.472685	-0.376931
H150	H	1.039634	0.027315	0.123069
H151	H	1.146233	-0.472327	-0.984517
H152	H	1.646233	0.027673	-0.484517
H153	H	0.502434	-0.289030	-0.230932
H154	H	1.002434	0.210970	0.269068
H155	H	0.899838	-0.288971	-0.230904
H156	H	1.399838	0.211029	0.269096
H157	H	1.371954	-0.681672	-0.151523
H158	H	1.871954	-0.181672	0.348477
H159	H	0.937036	-0.472635	-0.376913
H160	H	1.437036	0.027365	0.123087
H161	H	1.376824	-0.955268	-0.146773
H162	H	1.876824	-0.455268	0.353227
H163	H	1.036307	-0.929413	-0.486773
H164	H	1.536307	-0.429413	0.013227
H165	H	1.061785	-0.805584	-0.461279
H166	H	1.561785	-0.305584	0.038721
H167	H	0.765780	-0.238382	-0.190667
H168	H	1.265780	0.261618	0.309333
H169	H	1.105868	-0.522956	-0.700689
H170	H	1.605868	-0.022956	-0.200689
H171	H	1.146198	-0.472450	-0.587076
H172	H	1.646198	0.027550	-0.087076
H173	H	1.292569	-0.289046	-0.624166
H174	H	1.792569	0.210954	-0.124166
H175	H	1.332951	-0.238401	-0.907991
H176	H	1.832951	0.261599	-0.407991
H177	H	0.673705	-0.523286	-0.417161
H178	H	1.173705	-0.023286	0.082839
H179	H	0.823464	-0.523274	-0.417166
H180	H	1.323464	-0.023274	0.082834
H181	H	1.188424	-0.681722	-0.334779
H182	H	1.688424	-0.181722	0.165221
H183	H	1.332923	-0.238459	-0.758218
H184	H	1.832923	0.261541	-0.258218
H185	H	1.066677	-1.079165	-0.456523
H186	H	1.566677	-0.579165	0.043477
H187	H	1.292611	-0.288911	-1.021606
H188	H	1.792611	0.211089	-0.521606
H189	H	1.105875	-0.522904	-0.850478
H190	H	1.605875	-0.022904	-0.350478
H191	H	1.138365	-0.730673	-0.384759
H192	H	1.638365	-0.230673	0.115241
H193	H	1.250188	-1.079130	-0.273269
H194	H	1.750188	-0.579130	0.226731
H195	H	1.300244	-1.030163	-0.223277
H196	H	1.800244	-0.530163	0.276723
H197	H	1.402304	-0.831433	-0.121276
H198	H	1.902304	-0.331433	0.378724
