data_functionalizedCrystal
_audit_creation_method	'MofGen! by Chris Wilmer'
_symmetry_space_group_name_H-M	'P1'
_symmetry_Int_Tables_number	1
_symmetry_cell_setting	triclinic
loop_
_symmetry_equiv_pos_as_xyz
  x,y,z
_cell_length_a	9.065218
_cell_length_b	12.503584
_cell_length_c	9.065218
_cell_angle_alpha	86.422094
_cell_angle_beta	85.015919
_cell_angle_gamma	93.572944
loop_
_atom_site_label
_atom_site_type_symbol
_atom_site_fract_x
_atom_site_fract_y
_atom_site_fract_z
O1	O	-1.968801	-0.089371	-0.207929
O2	O	-1.468801	0.410629	0.292071
O3	O	-1.539516	-0.089361	-0.225677
O4	O	-1.039516	0.410639	0.274323
O5	O	-1.763032	-0.089364	-0.002161
O6	O	-1.263032	0.410636	0.497839
O7	O	-1.745286	-0.089368	-0.431445
O8	O	-1.245286	0.410632	0.068555
O9	O	-1.746221	0.089278	-0.019001
O10	O	-1.246221	0.589278	0.480999
O11	O	-1.522705	0.089281	-0.242517
O12	O	-1.022705	0.589281	0.257483
O13	O	-1.951991	0.089271	-0.224770
O14	O	-1.451991	0.589271	0.275230
Cu15	Cu	-1.735813	0.105588	-0.235181
Cu16	Cu	-1.235813	0.605588	0.264819
Cu17	Cu	-1.755693	-0.105678	-0.215265
Cu18	Cu	-1.255693	0.394322	0.284735
O19	O	-1.728475	0.089274	-0.448286
O20	O	-1.228475	0.589274	0.051714
C21	C	-1.476124	-0.000039	-0.232391
C22	C	-0.976124	0.499961	0.267609
C23	C	-1.312281	-0.000035	-0.227292
C24	C	-0.812281	0.499965	0.272708
N25	N	-1.721842	0.254180	-0.249188
N26	N	-1.221842	0.754180	0.250812
C27	C	-1.701288	0.473296	-0.269806
C28	C	-1.201288	0.973296	0.230194
C29	C	-1.790220	0.526621	-0.180649
C30	C	-1.290220	1.026621	0.319351
C31	C	-1.778784	0.648545	-0.192121
C32	C	-1.278784	1.148545	0.307879
C33	C	-1.712723	0.351361	-0.258336
C34	C	-1.212723	0.851361	0.241664
C35	C	-1.015383	-0.000047	-0.218055
C36	C	-0.515383	0.499953	0.281945
C37	C	-1.179225	-0.000038	-0.223156
C38	C	-0.679225	0.499962	0.276844
C39	C	-1.752921	-0.000045	0.044406
C40	C	-1.252921	0.499955	0.544406
C41	C	-1.747822	-0.000050	0.208249
C42	C	-1.247822	0.499950	0.708249
N43	N	-1.769672	0.745730	-0.201262
N44	N	-1.269672	1.245730	0.298738
C45	C	-1.738586	-0.000048	-0.494852
C46	C	-1.238586	0.499952	0.005148
C47	C	-1.743686	-0.000050	-0.658695
C48	C	-1.243686	0.499950	-0.158695
H49	H	-1.874946	0.480707	-0.095705
H50	H	-1.374946	0.980707	0.404295
C51	C	-1.586852	0.535313	-0.384564
C52	C	-1.086852	1.035313	0.115436
H53	H	-1.594097	0.610310	-0.377325
H54	H	-1.094097	1.110310	0.122675
H55	H	-1.489808	0.516965	-0.365657
H56	H	-0.989808	1.016965	0.134343
H57	H	-1.606079	0.516945	-0.481522
H58	H	-1.106079	1.016945	0.018478
