data_functionalizedCrystal
_audit_creation_method	'MofGen! by Chris Wilmer'
_symmetry_space_group_name_H-M	'P1'
_symmetry_Int_Tables_number	1
_symmetry_cell_setting	triclinic
loop_
_symmetry_equiv_pos_as_xyz
  x,y,z
_cell_length_a	10.686285
_cell_length_b	17.077404
_cell_length_c	17.077396
_cell_angle_alpha	90.017244
_cell_angle_beta	85.607459
_cell_angle_gamma	94.368190
loop_
_atom_site_label
_atom_site_type_symbol
_atom_site_fract_x
_atom_site_fract_y
_atom_site_fract_z
Zn1	Zn	-0.502329	-1.224097	-0.419935
Zn2	Zn	-0.168996	-0.890764	-0.086602
Zn3	Zn	0.164338	-0.557431	0.246732
Zn4	Zn	-0.713352	-1.234117	-0.278626
Zn5	Zn	-0.380019	-0.900784	0.054708
Zn6	Zn	-0.046686	-0.567451	0.388041
Zn7	Zn	-0.502376	-1.092837	-0.288681
Zn8	Zn	-0.169043	-0.759503	0.044653
Zn9	Zn	0.164290	-0.426170	0.377986
Zn10	Zn	-0.713274	-1.102901	-0.409853
Zn11	Zn	-0.379941	-0.769568	-0.076520
Zn12	Zn	-0.046608	-0.436234	0.256814
O13	O	-0.607833	-1.163488	-0.349274
O14	O	-0.274500	-0.830155	-0.015940
O15	O	0.058834	-0.496821	0.317393
O16	O	-0.530335	-1.335274	-0.401201
O17	O	-0.197001	-1.001941	-0.067868
O18	O	0.136332	-0.668607	0.265465
O19	O	-0.685418	-1.215357	-0.170110
O20	O	-0.352085	-0.882024	0.163223
O21	O	-0.018752	-0.548691	0.496557
O22	O	-0.325795	-1.101844	-0.314519
O23	O	0.007539	-0.768510	0.018814
O24	O	0.340872	-0.435177	0.352147
O25	O	-0.685373	-1.342636	-0.297382
O26	O	-0.352039	-1.009302	0.035951
O27	O	-0.018706	-0.675969	0.369285
O28	O	-0.325760	-1.198280	-0.410951
O29	O	0.007573	-0.864947	-0.077618
O30	O	0.340907	-0.531614	0.255715
O31	O	-0.530415	-1.111559	-0.177498
O32	O	-0.197082	-0.778226	0.155836
O33	O	0.136251	-0.444893	0.489169
O34	O	-0.530340	-0.984324	-0.304743
O35	O	-0.197006	-0.650991	0.028590
O36	O	0.136327	-0.317658	0.361923
O37	O	-0.685240	-1.118997	-0.521040
O38	O	-0.351906	-0.785663	-0.187707
O39	O	-0.018573	-0.452330	0.145627
O40	O	-0.685286	-0.991718	-0.393768
O41	O	-0.351952	-0.658385	-0.060435
O42	O	-0.018619	-0.325052	0.272899
O43	O	-0.530259	-1.208039	-0.528447
O44	O	-0.196926	-0.874706	-0.195114
O45	O	0.136408	-0.541373	0.138219
O46	O	-0.889918	-1.225116	-0.287606
O47	O	-0.556584	-0.891783	0.045727
O48	O	-0.223251	-0.558450	0.379061
O49	O	-0.889860	-1.128712	-0.384018
O50	O	-0.556527	-0.795379	-0.050685
O51	O	-0.223194	-0.462046	0.282649
C52	C	-0.607810	-0.959539	-0.349253
C53	C	-0.274477	-0.626206	-0.015920
C54	C	0.058856	-0.292873	0.317414
C55	C	-0.607831	-0.872290	-0.349262
C56	C	-0.274498	-0.538957	-0.015928
C57	C	0.058836	-0.205624	0.317405
C58	C	-0.935673	-1.179115	-0.333644
C59	C	-0.602340	-0.845782	-0.000311
C60	C	-0.269006	-0.512448	0.333023
C61	C	-1.075924	-1.185872	-0.326984
C62	C	-0.742591	-0.852539	0.006350
C63	C	-0.409258	-0.519206	0.339683
C64	C	-0.607735	-1.163523	-0.554023
C65	C	-0.274402	-0.830190	-0.220689
C66	C	0.058931	-0.496856	0.112644
C67	C	-0.607694	-1.163538	-0.641275
C68	C	-0.274360	-0.830204	-0.307941
C69	C	0.058973	-0.496871	0.025392
C70	C	-0.278713	-1.147822	-0.364982
C71	C	0.054620	-0.814488	-0.031648
C72	C	0.387954	-0.481155	0.301685
C73	C	-0.138462	-1.141145	-0.371675
C74	C	0.194872	-0.807812	-0.038342
C75	C	0.528205	-0.474479	0.294991
C76	C	-0.607857	-1.368234	-0.349295
C77	C	-0.274524	-1.034900	-0.015961
C78	C	0.058810	-0.701567	0.317372
C79	C	-0.607867	-1.455484	-0.349304
C80	C	-0.274534	-1.122150	-0.015970
C81	C	0.058800	-0.788817	0.317363
C82	C	-0.688633	-0.835177	-0.395530
C83	C	-0.355300	-0.501843	-0.062197
C84	C	-0.021966	-0.168510	0.271136
C85	C	-0.688636	-0.753196	-0.395543
C86	C	-0.355302	-0.419863	-0.062209
C87	C	-0.021969	-0.086530	0.271124
C88	C	-0.607842	-0.708331	-0.349282
C89	C	-0.274508	-0.374998	-0.015948
C90	C	0.058825	-0.041665	0.317385
C91	C	-0.527031	-0.745450	-0.303011
C92	C	-0.193697	-0.412117	0.030322
C93	C	0.139636	-0.078784	0.363656
C94	C	-0.527023	-0.827429	-0.303003
C95	C	-0.193689	-0.494096	0.030330
C96	C	0.139644	-0.160762	0.363663
C97	C	-0.527056	-0.574582	-0.303029
C98	C	-0.193722	-0.241248	0.030305
C99	C	0.139611	0.092085	0.363638
C100	C	-0.527065	-0.492597	-0.303035
C101	C	-0.193732	-0.159264	0.030298
C102	C	0.139602	0.174069	0.363632
C103	C	-0.688669	-0.500349	-0.395568
C104	C	-0.355335	-0.167016	-0.062235
C105	C	-0.022002	0.166318	0.271099
C106	C	-0.688660	-0.582328	-0.395561
C107	C	-0.355327	-0.248994	-0.062227
C108	C	-0.021994	0.084339	0.271106
C109	C	-0.607851	-0.619441	-0.349289
C110	C	-0.274518	-0.286108	-0.015955
C111	C	0.058816	0.047226	0.317378
C112	C	-0.526974	-1.109505	-0.686111
C113	C	-0.193641	-0.776171	-0.352778
C114	C	0.139693	-0.442838	-0.019445
C115	C	-0.526945	-1.109516	-0.768093
C116	C	-0.193612	-0.776183	-0.434760
C117	C	0.139721	-0.442850	-0.101426
C118	C	-0.607631	-1.163565	-0.805237
C119	C	-0.274298	-0.830232	-0.471904
C120	C	0.059036	-0.496898	-0.138570
C121	C	-0.688360	-1.217600	-0.760394
C122	C	-0.355026	-0.884267	-0.427061
C123	C	-0.021693	-0.550934	-0.093728
C124	C	-0.688394	-1.217585	-0.678414
C125	C	-0.355060	-0.884251	-0.345080
C126	C	-0.021727	-0.550918	-0.011747
C127	C	-0.688281	-1.217631	-0.931268
C128	C	-0.354947	-0.884297	-0.597935
C129	C	-0.021614	-0.550964	-0.264601
C130	C	-0.688245	-1.217647	-1.013255
C131	C	-0.354912	-0.884314	-0.679921
C132	C	-0.021579	-0.550981	-0.346588
C133	C	-0.526832	-1.109562	-1.020948
C134	C	-0.193499	-0.776229	-0.687614
C135	C	0.139834	-0.442895	-0.354281
C136	C	-0.526866	-1.109546	-0.938967
C137	C	-0.193533	-0.776213	-0.605634
C138	C	0.139800	-0.442880	-0.272300
C139	C	-0.607594	-1.163583	-0.894130
C140	C	-0.274260	-0.830250	-0.560797
C141	C	0.059073	-0.496916	-0.227463
C142	C	-0.607839	-1.163494	-0.145326
C143	C	-0.274506	-0.830161	0.188008
C144	C	0.058827	-0.496828	0.521341
C145	C	-0.607526	-1.163615	-0.058091
C146	C	-0.274192	-0.830281	0.275242
C147	C	0.059141	-0.496948	0.608576
H148	H	-1.084708	-1.097684	-0.415034
H149	H	-0.751374	-0.764351	-0.081701
H150	H	-0.418041	-0.431017	0.251632
H151	H	-0.461242	-0.708915	-0.265348
H152	H	-0.127908	-0.375581	0.067986
H153	H	0.205425	-0.042248	0.401319
F154	F	-1.146189	-1.242676	-0.270298
F155	F	-0.812856	-0.909342	0.063035
F156	F	-0.479523	-0.576009	0.396368
F157	F	-0.774636	-0.713701	-0.444789
F158	F	-0.441303	-0.380368	-0.111456
F159	F	-0.107969	-0.047035	0.221878
H160	H	-0.754429	-0.871701	-0.433199
H161	H	-0.421096	-0.538367	-0.099866
H162	H	-0.087762	-0.205034	0.233468
F163	F	-0.774658	-0.630075	-0.444791
F164	F	-0.441325	-0.296742	-0.111458
F165	F	-0.107992	0.036591	0.221875
H166	H	-0.754463	-0.470127	-0.433247
H167	H	-0.421130	-0.136794	-0.099914
H168	H	-0.087796	0.196539	0.233420
H169	H	-0.754115	-1.261589	-0.641909
H170	H	-0.420781	-0.928256	-0.308575
H171	H	-0.087448	-0.594923	0.024758
F172	F	-0.441080	-0.444850	-0.253795
F173	F	-0.107747	-0.111517	0.079538
F174	F	0.225586	0.221816	0.412871
H175	H	-0.461241	-0.604796	-0.265357
H176	H	-0.127907	-0.271462	0.067977
H177	H	0.205426	0.061871	0.401310
H178	H	-0.461219	-0.857645	-0.265331
H179	H	-0.127885	-0.524312	0.068003
H180	H	0.205448	-0.190978	0.401336
H181	H	-0.754062	-1.261604	-0.790643
H182	H	-0.420728	-0.928271	-0.457310
H183	H	-0.087395	-0.594937	-0.123976
F184	F	-0.441089	-1.051981	-0.646588
F185	F	-0.107756	-0.718648	-0.313254
F186	F	0.225577	-0.385315	0.020079
F187	F	-0.441079	-1.051980	-0.815806
F188	F	-0.107745	-0.718647	-0.482473
F189	F	0.225588	-0.385314	-0.149139
H190	H	-0.461159	-1.065539	-0.908727
H191	H	-0.127826	-0.732205	-0.575394
H192	H	0.205507	-0.398872	-0.242060
H193	H	-0.461100	-1.065564	-1.057458
H194	H	-0.127766	-0.732231	-0.724125
H195	H	0.205567	-0.398898	-0.390791
H196	H	-0.753947	-1.261659	-1.043495
H197	H	-0.420613	-0.928325	-0.710161
H198	H	-0.087280	-0.594992	-0.376828
F199	F	-0.774206	-1.275140	-0.883551
F200	F	-0.440873	-0.941806	-0.550217
F201	F	-0.107539	-0.608473	-0.216884
