data_functionalizedCrystal
_audit_creation_method	'MofGen! by Chris Wilmer'
_symmetry_space_group_name_H-M	'P1'
_symmetry_Int_Tables_number	1
_symmetry_cell_setting	triclinic
loop_
_symmetry_equiv_pos_as_xyz
  x,y,z
_cell_length_a	20.919320
_cell_length_b	20.919309
_cell_length_c	20.016444
_cell_angle_alpha	57.441335
_cell_angle_beta	90.002337
_cell_angle_gamma	65.116602
loop_
_atom_site_label
_atom_site_type_symbol
_atom_site_fract_x
_atom_site_fract_y
_atom_site_fract_z
Zr1	Zr	0.621723	0.749224	-0.143416
O2	O	0.528063	0.875492	-0.251420
O3	O	0.646950	0.617626	-0.106388
O4	O	0.651968	0.751586	-0.251419
O5	O	0.523050	0.741528	0.003556
O6	O	0.753671	0.759513	-0.255876
O7	O	0.523044	0.741532	-0.106389
O8	O	0.744693	0.519882	0.003558
O9	O	0.532027	0.981158	-0.255877
O10	O	0.737818	0.679644	-0.098657
O11	O	0.661923	0.673725	-0.013280
O12	O	0.667832	0.831446	-0.184035
O13	O	0.591936	0.825527	-0.098658
Zr14	Zr	0.783935	0.761858	0.024826
Zr15	Zr	0.783927	0.761866	-0.150524
Zr16	Zr	0.621731	0.749217	0.031934
Zr17	Zr	0.628045	0.917749	-0.150525
Zr18	Zr	0.777613	0.593334	0.031936
O19	O	0.758708	0.893457	-0.012202
O20	O	0.758696	0.893467	-0.261527
O21	O	0.528075	0.875482	-0.002095
O22	O	0.877595	0.635590	0.132830
O23	O	0.877583	0.635601	-0.116495
O24	O	0.646961	0.617616	0.142937
O25	O	0.882608	0.769555	-0.122146
O26	O	0.753689	0.759496	0.132829
O27	O	0.651987	0.751570	0.137286
O28	O	0.882613	0.769551	-0.012201
O29	O	0.660958	0.991206	-0.261528
O30	O	0.744700	0.519877	0.142938
O31	O	0.873630	0.529925	0.137288
O32	O	0.873624	0.529931	-0.002092
O33	O	0.532034	0.981152	-0.116498
O34	O	0.660964	0.991200	-0.122148
O35	O	0.737826	0.679637	0.065445
O36	O	0.813722	0.685556	-0.019932
O37	O	0.743735	0.837358	-0.105310
O38	O	0.667839	0.831439	-0.019933
C39	C	0.694921	0.544743	-0.050402
C40	C	0.692237	0.473200	-0.047384
C41	C	0.730591	0.442679	-0.090531
C42	C	0.728070	0.375452	-0.087688
C43	C	0.687192	0.338752	-0.041700
C44	C	0.648837	0.369276	0.001453
C45	C	0.651362	0.436498	-0.001387
C46	C	0.677591	0.135628	-0.030893
C47	C	0.675067	0.068404	-0.028058
C48	C	0.754302	0.074583	-0.117198
C49	C	0.756820	0.141809	-0.120037
C50	C	0.718468	0.172325	-0.076881
C51	C	0.684613	0.270037	-0.038794
C52	C	0.721051	0.241034	-0.079782
C53	C	0.499936	0.739729	-0.050404
C54	C	0.431077	0.734362	-0.047386
C55	C	0.043465	0.700006	-0.028059
C56	C	0.108163	0.705055	-0.030903
C57	C	0.103976	0.786820	-0.076888
C58	C	0.035085	0.863541	-0.120037
C59	C	-0.029612	0.858491	-0.117198
C60	C	0.297489	0.806033	-0.087696
C61	C	0.362193	0.811077	-0.090530
C62	C	0.435267	0.652591	-0.001397
C63	C	0.370566	0.647548	0.001443
C64	C	0.301681	0.724268	-0.041711
C65	C	0.170107	0.791983	-0.079794
C66	C	0.235551	0.719104	-0.038809
C67	C	0.905721	0.771354	-0.068186
C68	C	0.974581	0.776721	-0.071204
C69	C	0.702819	0.755551	-0.278631
C70	C	0.702815	0.755554	-0.353071
C71	C	0.710737	0.966340	-0.068188
C72	C	0.713421	1.037883	-0.071206
C73	C	0.666295	0.834783	-0.568894
C74	C	0.666301	0.834780	-0.638835
C75	C	0.739367	0.676293	-0.549687
C76	C	0.739365	0.676298	-0.479748
C77	C	0.702825	0.755545	-0.489355
C78	C	0.702833	0.755537	-0.629235
C79	C	0.702840	0.755533	-0.705068
C80	C	0.702819	0.755550	-0.413517
C81	C	0.702839	0.755532	0.160041
C82	C	0.702843	0.755529	0.234481
C83	C	0.897813	0.560556	-0.059293
C84	C	0.963989	0.494380	-0.059293
C85	C	0.694931	0.544734	0.168934
C86	C	0.692251	0.473188	0.246393
C87	C	0.897824	0.560547	0.160043
C88	C	0.964003	0.494367	0.234484
C89	C	0.507834	0.950536	-0.278632
C90	C	0.441655	1.016716	-0.353074
C91	C	0.507845	0.950527	-0.059297
C92	C	0.441669	1.016703	-0.059297
C93	C	0.710727	0.966349	-0.287524
C94	C	0.713407	1.037895	-0.364983
C95	C	0.955445	0.460217	-0.100393
C96	C	1.017619	0.398046	-0.100409
C97	C	1.088335	0.370034	-0.059319
C98	C	1.096878	0.404204	-0.018217
C99	C	1.034705	0.466378	-0.018207
C100	C	0.730613	0.442675	0.323869
C101	C	0.728091	0.375459	0.396656
C102	C	0.687212	0.338753	0.391965
C103	C	0.648846	0.369272	0.314481
C104	C	0.651363	0.436491	0.241695
C105	C	1.034705	0.466379	0.224876
C106	C	1.096894	0.404206	0.294814
C107	C	1.088379	0.370018	0.374359
C108	C	1.017670	0.398013	0.383966
C109	C	0.955483	0.460189	0.314028
C110	C	0.370953	1.044712	-0.343466
C111	C	0.308765	1.106906	-0.413405
C112	C	0.317280	1.141097	-0.492950
C113	C	0.387989	1.113098	-0.502556
C114	C	0.450176	1.050910	-0.432619
C115	C	0.450213	1.050873	-0.018204
C116	C	0.388040	1.113063	-0.018208
C117	C	0.317324	1.141076	-0.059301
C118	C	0.308781	1.106904	-0.100399
C119	C	0.370953	1.044720	-0.100400
C120	C	0.754293	1.074580	-0.360265
C121	C	0.756826	1.141798	-0.433039
C122	C	0.718468	1.172333	-0.510530
C123	C	0.677581	1.135641	-0.515246
C124	C	0.675053	1.068420	-0.442473
H125	H	0.641776	0.038526	0.009390
Cl126	Cl	0.240813	0.616318	0.018995
Cl127	Cl	0.603135	0.474836	0.144300
H128	H	0.769116	0.611773	-0.541876
H129	H	-0.085700	0.920960	-0.152332
Cl130	Cl	0.360199	1.001764	-0.152058
Cl131	Cl	0.629355	1.174045	-0.612671
H132	H	0.364006	1.016876	-0.278702
Cl133	Cl	0.539106	1.015674	0.033457
H134	H	0.759337	0.350619	0.459740
Cl135	Cl	0.539056	1.015716	-0.444711
H136	H	0.785527	0.049730	-0.152333
H137	H	1.154463	0.381388	0.015236
H138	H	0.646365	0.160463	0.004252
Cl139	Cl	0.219882	1.142088	-0.401310
Cl140	Cl	0.866552	0.495421	-0.152060
H141	H	0.266637	1.191734	-0.549891
H142	H	0.251195	1.129722	-0.133856
Cl143	Cl	0.866602	0.495361	0.326121
Cl144	Cl	0.398681	1.156087	-0.602563
Cl145	Cl	0.164850	0.894771	-0.137580
H146	H	1.041672	0.494186	0.015267
H147	H	0.720533	1.227069	-0.569781
Cl148	Cl	0.356925	0.913875	-0.148343
Cl149	Cl	0.772442	0.287170	-0.137591
H150	H	0.266705	1.191711	-0.059294
H151	H	0.641755	1.038558	-0.446325
Cl152	Cl	0.029821	0.966332	-0.177840
H153	H	0.615562	0.339376	0.310674
Cl154	Cl	0.781980	0.488813	-0.148352
H155	H	0.636557	0.899304	-0.703598
H156	H	0.395010	1.140876	0.015262
H157	H	0.785529	1.049730	-0.297175
Cl158	Cl	1.045429	0.509351	0.124884
Cl159	Cl	0.776272	0.337102	-0.141952
H160	H	1.010748	0.370168	0.448741
Cl161	Cl	0.210899	0.902482	-0.141934
H162	H	0.790120	1.171666	-0.429183
Cl163	Cl	0.782011	0.488804	0.329788
H164	H	0.790106	0.171689	-0.157484
Cl165	Cl	1.006862	0.355098	-0.152079
H166	H	0.769115	0.611769	-0.414979
Cl167	Cl	1.166488	0.291869	-0.059338
Cl168	Cl	0.633234	0.223885	0.019028
H169	H	0.615557	0.339386	0.038901
H170	H	0.620128	0.461349	0.033747
H171	H	0.636542	0.899312	-0.576721
Cl172	Cl	0.684057	0.254247	0.483476
H173	H	1.154463	0.381419	0.286978
H174	H	1.139023	0.319391	0.431300
H175	H	0.046883	0.633424	0.009390
H176	H	0.373983	0.580966	0.038889
Cl177	Cl	0.521866	0.556148	0.052852
Cl178	Cl	0.194759	0.608608	0.023338
