data_functionalizedCrystal
_audit_creation_method	'MofGen! by Chris Wilmer'
_symmetry_space_group_name_H-M	'P1'
_symmetry_Int_Tables_number	1
_symmetry_cell_setting	triclinic
loop_
_symmetry_equiv_pos_as_xyz
  x,y,z
_cell_length_a	27.440280
_cell_length_b	27.440280
_cell_length_c	21.606444
_cell_angle_alpha	59.992248
_cell_angle_beta	89.996802
_cell_angle_gamma	59.994730
loop_
_atom_site_label
_atom_site_type_symbol
_atom_site_fract_x
_atom_site_fract_y
_atom_site_fract_z
Zr1	Zr	0.469473	0.533437	-0.081353
O2	O	0.391647	0.635127	-0.180196
O3	O	0.493334	0.431755	-0.051037
O4	O	0.493325	0.533438	-0.180181
O5	O	0.391660	0.533440	0.050801
O6	O	0.573527	0.533430	-0.180184
O7	O	0.391656	0.533443	-0.051053
O8	O	0.573543	0.351538	0.050829
O9	O	0.391644	0.715333	-0.180213
O10	O	0.563361	0.473569	-0.038128
O11	O	0.503510	0.473573	0.037887
O12	O	0.503499	0.593292	-0.114162
O13	O	0.443649	0.593295	-0.038147
Zr14	Zr	0.597393	0.533419	0.081087
Zr15	Zr	0.597386	0.533424	-0.081359
Zr16	Zr	0.469480	0.533431	0.081093
Zr17	Zr	0.469469	0.661356	-0.081379
Zr18	Zr	0.597398	0.405500	0.081113
O19	O	0.573532	0.635101	0.050772
O20	O	0.573523	0.635109	-0.180205
O21	O	0.391657	0.635119	0.050780
O22	O	0.675219	0.431729	0.179931
O23	O	0.675210	0.431737	-0.051046
O24	O	0.493343	0.431747	0.179939
O25	O	0.675206	0.533416	-0.051066
O26	O	0.573541	0.533418	0.179915
O27	O	0.493339	0.533426	0.179919
O28	O	0.675210	0.533412	0.050788
O29	O	0.493318	0.715323	-0.180217
O30	O	0.573548	0.351533	0.179952
O31	O	0.675222	0.351523	0.179947
O32	O	0.675217	0.351528	0.050825
O33	O	0.391650	0.715328	-0.051090
O34	O	0.493323	0.715318	-0.051095
O35	O	0.563367	0.473564	0.113897
O36	O	0.623218	0.473561	0.037881
O37	O	0.563356	0.593283	-0.038153
O38	O	0.503505	0.593286	0.037863
C39	C	0.533439	0.373420	-0.000100
C40	C	0.533441	0.319115	-0.000089
C41	C	0.489244	0.026623	-0.056274
C42	C	0.489244	-0.024394	-0.056282
O43	O	0.451676	-0.013196	-0.104027
N44	N	0.533431	-0.094104	-0.000163
C45	C	0.577625	-0.112798	0.055964
O46	O	0.615210	-0.176776	0.103697
C47	C	0.577627	-0.061781	0.055968
C48	C	0.533434	0.007930	-0.000151
C49	C	0.445055	0.096330	-0.112388
C50	C	0.445055	0.147343	-0.112379
C51	C	0.489244	0.128650	-0.056256
C52	C	0.533434	0.058943	-0.000142
C53	C	0.621823	-0.080475	0.112091
C54	C	0.621822	-0.029451	0.112090
C55	C	0.577628	0.040260	0.055971
C56	C	0.577623	0.091263	0.055991
N57	N	0.533436	0.160973	-0.000129
C58	C	0.489246	0.179667	-0.056252
C59	C	0.577617	-0.219933	0.055950
C60	C	0.577613	-0.270949	0.055950
C61	C	0.489232	-0.182541	-0.056297
C62	C	0.489235	-0.131525	-0.056293
C63	C	0.533430	-0.150222	-0.000169
C64	C	0.489249	0.286795	-0.056228
C65	C	0.489252	0.337809	-0.056213
C66	C	0.577634	0.249397	0.056031
C67	C	0.577630	0.198388	0.056018
C68	C	0.533435	0.217092	-0.000118
O69	O	0.615173	0.080117	0.103709
O70	O	0.451672	0.243645	-0.103982
C71	C	0.373434	0.533444	-0.000125
C72	C	0.319131	0.533449	-0.000123
C73	C	-0.017569	0.533414	-0.056246
C74	C	-0.068587	0.533410	-0.056247
O75	O	-0.094963	0.533385	-0.103952
N76	N	-0.094102	0.533409	-0.000135
C77	C	-0.068594	0.533406	0.055985
O78	O	-0.094981	0.533405	0.103712
C79	C	-0.017574	0.533406	0.055988
C80	C	0.007935	0.533414	-0.000132
C81	C	0.007941	0.533421	-0.112361
C82	C	0.058955	0.533428	-0.112361
C83	C	0.084459	0.533427	-0.056247
C84	C	0.058949	0.533420	-0.000132
C85	C	0.007936	0.533399	0.112110
C86	C	0.058959	0.533398	0.112108
C87	C	0.084468	0.533406	0.055989
C88	C	0.135466	0.533426	0.055982
N89	N	0.160982	0.533426	-0.000129
C90	C	0.135478	0.533427	-0.056244
C91	C	-0.175737	0.533405	0.055975
C92	C	-0.226758	0.533410	0.055970
C93	C	-0.226747	0.533412	-0.056261
C94	C	-0.175728	0.533412	-0.056258
C95	C	-0.150222	0.533406	-0.000136
C96	C	0.242610	0.533440	-0.056240
C97	C	0.293627	0.533449	-0.056237
C98	C	0.293613	0.533444	0.055995
C99	C	0.242599	0.533438	0.055991
C100	C	0.217100	0.533434	-0.000131
O101	O	0.161877	0.533447	0.103665
O102	O	0.161876	0.533419	-0.103957
C103	C	0.693433	0.533412	-0.000140
C104	C	0.747735	0.533407	-0.000143
C105	C	0.533425	0.533435	-0.203327
C106	C	0.533422	0.533437	-0.272290
C107	C	0.533427	0.693435	-0.000165
C108	C	0.533425	0.747741	-0.000176
C109	C	0.502175	0.595930	-0.344377
C110	C	0.502180	0.595928	-0.409172
C111	C	0.533429	0.533433	-0.401878
C112	C	0.564681	0.470935	-0.329783
C113	C	0.564679	0.470937	-0.264989
C114	C	0.564690	0.470923	-0.591086
C115	C	0.564688	0.470925	-0.655886
C116	C	0.502192	0.595914	-0.735269
C117	C	0.502189	0.595916	-0.670475
C118	C	0.533443	0.533419	-0.598386
C119	C	0.533438	0.533422	-0.528129
C120	C	0.533431	0.533429	-0.472134
C121	C	0.533441	0.533421	0.203062
C122	C	0.533444	0.533419	0.272024
C123	C	0.693439	0.373405	-0.000108
C124	C	0.747743	0.319094	-0.000099
C125	C	0.533447	0.373414	0.203094
C126	C	0.533452	0.319106	0.272068
C127	C	0.693447	0.373398	0.203087
C128	C	0.747754	0.319085	0.272058
C129	C	0.373419	0.693458	-0.203352
C130	C	0.319112	0.747771	-0.272323
C131	C	0.373428	0.693451	-0.000158
C132	C	0.319123	0.747761	-0.000166
C133	C	0.533419	0.693442	-0.203360
C134	C	0.533414	0.747750	-0.272333
C135	C	0.742000	0.293594	-0.039778
C136	C	0.793020	0.242571	-0.039786
C137	C	0.849782	0.217045	-0.000109
C138	C	0.855524	0.242551	0.039572
C139	C	0.804505	0.293576	0.039574
C140	C	0.564699	0.293598	0.344141
C141	C	0.564701	0.242578	0.408956
C142	C	0.533460	0.217063	0.401694
C143	C	0.502209	0.242575	0.329613
C144	C	0.502204	0.293598	0.264800
C145	C	0.804504	0.293578	0.264768
C146	C	0.855536	0.242552	0.329567
C147	C	0.849817	0.217032	0.401656
C148	C	0.793061	0.242544	0.408944
C149	C	0.742030	0.293572	0.344145
C150	C	0.262362	0.773284	-0.265034
C151	C	0.211330	0.824326	-0.329833
C152	C	0.217049	0.849849	-0.401921
C153	C	0.273805	0.824333	-0.409209
C154	C	0.324836	0.773296	-0.344411
C155	C	0.324866	0.773267	0.039506
C156	C	0.273846	0.824305	0.039495
C157	C	0.217084	0.849832	-0.000184
C158	C	0.211342	0.824324	-0.039861
C159	C	0.262362	0.773291	-0.039854
C160	C	0.564662	0.773249	-0.265048
C161	C	0.564669	0.824270	-0.329849
C162	C	0.533425	0.849794	-0.401936
C163	C	0.502176	0.824290	-0.409220
C164	C	0.502173	0.773266	-0.344419
H165	H	0.453263	0.302034	-0.101941
C166	C	0.533428	0.905924	-0.473213
C167	C	0.499061	0.934008	-0.552511
C168	C	0.499066	0.990139	-0.623785
C169	C	0.533437	1.018187	-0.615762
C170	C	0.567806	0.990103	-0.536461
C171	C	0.567802	0.933971	-0.465187
H172	H	0.473615	0.913246	-0.558454
H173	H	0.473623	1.010929	-0.682489
H174	H	0.533440	1.059738	-0.668523
H175	H	0.593252	1.010865	-0.530518
H176	H	0.593245	0.913182	-0.406483
C177	C	0.160911	0.905986	-0.473197
C178	C	0.098488	0.934011	-0.465169
C179	C	0.042348	0.990146	-0.536441
C180	C	0.048631	1.018256	-0.615740
C181	C	0.111056	0.990231	-0.623771
C182	C	0.167196	0.934096	-0.552499
H183	H	0.093835	0.913203	-0.406464
H184	H	-0.003863	1.010892	-0.530496
H185	H	0.007072	1.059810	-0.668500
H186	H	0.115709	1.011039	-0.682476
H187	H	0.213407	0.913350	-0.558444
H188	H	0.165122	0.845092	-0.323884
C189	C	0.599062	0.321663	0.352142
C190	C	0.599063	0.377789	0.280862
C191	C	0.633424	0.405855	0.288871
C192	C	0.667784	0.377795	0.368159
C193	C	0.667785	0.321666	0.439444
C194	C	0.633424	0.293600	0.431436
H195	H	0.573626	0.398564	0.222163
H196	H	0.633423	0.447405	0.236100
H197	H	0.693220	0.398570	0.374087
H198	H	0.693222	0.300891	0.498143
H199	H	0.633425	0.252049	0.484207
C200	C	0.599038	0.745177	-0.185758
C201	C	0.565549	0.752195	-0.130294
C202	C	0.599931	0.724123	-0.051007
C203	C	0.667802	0.689033	-0.027185
C204	C	0.701294	0.682013	-0.082650
C205	C	0.666912	0.710085	-0.161937
H206	H	0.515304	0.778172	-0.147927
H207	H	0.575137	0.729320	-0.009948
H208	H	0.693253	0.668253	0.031508
H209	H	0.751539	0.656036	-0.065017
H210	H	0.691706	0.704888	-0.202996
C211	C	0.467835	0.321648	0.185520
C212	C	0.433475	0.293574	0.177542
C213	C	0.399103	0.321621	0.098263
C214	C	0.399091	0.377743	0.026961
C215	C	0.433452	0.405821	0.034937
C216	C	0.467824	0.377773	0.114216
H217	H	0.433483	0.252027	0.230325
H218	H	0.373667	0.300836	0.092359
H219	H	0.373647	0.398506	-0.031726
H220	H	0.433444	0.447368	-0.017847
H221	H	0.493260	0.398558	0.120120
H222	H	0.476738	0.845080	-0.467922
C223	C	0.321674	0.533440	0.117722
C224	C	0.386520	0.473904	0.170957
C225	C	0.414584	0.473894	0.232689
C226	C	0.377804	0.533419	0.241185
C227	C	0.312955	0.592959	0.187948
C228	C	0.284890	0.592969	0.126217
H229	H	0.413750	0.429836	0.164669
H230	H	0.462590	0.429818	0.272098
H231	H	0.398579	0.533412	0.286882
H232	H	0.285724	0.637027	0.194236
H233	H	0.236884	0.637045	0.086807
C234	C	0.599039	0.852322	-0.321824
C235	C	0.666907	0.803198	-0.280151
C236	C	0.701276	0.831249	-0.272123
C237	C	0.667777	0.908424	-0.305769
C238	C	0.599906	0.957553	-0.347445
C239	C	0.565537	0.929502	-0.355472
H240	H	0.691708	0.746064	-0.255242
H241	H	0.751519	0.794880	-0.241272
H242	H	0.693219	0.929189	-0.299826
H243	H	0.575105	1.014687	-0.372354
H244	H	0.515294	0.965871	-0.386324
H245	H	0.371043	0.752523	-0.350355
C246	C	0.280171	0.852349	0.083151
C247	C	0.342610	0.824255	0.126809
C248	C	0.348936	0.852296	0.170466
C249	C	0.292824	0.908432	0.170466
C250	C	0.230381	0.936529	0.126807
C251	C	0.224054	0.908488	0.083150
H252	H	0.384151	0.782698	0.126810
H253	H	0.395161	0.831497	0.202785
H254	H	0.297507	0.929190	0.202784
H255	H	0.188839	0.978087	0.126806
H256	H	0.177829	0.929287	0.050831
H257	H	0.453260	0.394572	-0.101910
C258	C	0.810828	0.321615	0.083236
C259	C	0.873267	0.293527	0.126883
C260	C	0.879595	0.321561	0.170549
C261	C	0.823484	0.377683	0.170567
C262	C	0.761040	0.405775	0.126917
C263	C	0.754712	0.377740	0.083252
H264	H	0.914808	0.251979	0.126871
H265	H	0.925821	0.300766	0.202861
H266	H	0.828168	0.398436	0.202890
H267	H	0.719499	0.447322	0.126929
H268	H	0.708486	0.398536	0.050940
C269	C	0.917962	0.214492	0.321537
C270	C	0.936713	0.179413	0.279900
C271	C	0.999136	0.151355	0.271867
C272	C	1.042809	0.158376	0.305471
C273	C	1.024060	0.193457	0.347112
C274	C	0.961636	0.221515	0.355144
H275	H	0.904383	0.174215	0.255021
H276	H	1.013016	0.125387	0.241042
H277	H	1.089019	0.137606	0.299525
H278	H	1.056390	0.198655	0.371990
H279	H	0.947757	0.247483	0.385969
C280	C	0.214535	0.533436	0.117719
C281	C	0.251326	0.473902	0.201820
C282	C	0.223270	0.473891	0.263554
C283	C	0.158423	0.533415	0.241188
C284	C	0.121629	0.592954	0.157083
C285	C	0.149684	0.592964	0.095348
H286	H	0.299332	0.429835	0.218380
H287	H	0.250508	0.429817	0.325815
H288	H	0.137655	0.533408	0.286888
H289	H	0.073622	0.637021	0.140522
H290	H	0.122446	0.637039	0.033088
C291	C	0.599060	0.402175	-0.511796
C292	C	0.666929	0.350606	-0.487960
C293	C	0.701299	0.281854	-0.408666
C294	C	0.667800	0.264670	-0.353207
C295	C	0.599927	0.316241	-0.377042
C296	C	0.565557	0.384993	-0.456336
H297	H	0.691731	0.363325	-0.529015
H298	H	0.751543	0.243678	-0.391022
H299	H	0.693242	0.213776	-0.294509
H300	H	0.575125	0.303522	-0.335987
H301	H	0.515313	0.423169	-0.473980
H302	H	0.453253	-0.167328	-0.101998
H303	H	0.371080	0.752487	0.071823
C304	C	0.786779	0.214456	0.488246
C305	C	0.813275	0.221451	0.543711
C306	C	0.806997	0.193354	0.623016
C307	C	0.774223	0.158260	0.646857
C308	C	0.747725	0.151263	0.591391
C309	C	0.754003	0.179361	0.512086
H310	H	0.837538	0.247431	0.526064
H311	H	0.826613	0.198534	0.664076
H312	H	0.769576	0.137461	0.705563
H313	H	0.723462	0.125284	0.609038
H314	H	0.734388	0.174181	0.471026
C315	C	0.670438	-0.050021	0.173830
C316	C	0.736654	-0.093496	0.182326
C317	C	0.785268	-0.114066	0.244066
C318	C	0.767665	-0.091160	0.297310
C319	C	0.701446	-0.047682	0.288816
C320	C	0.652832	-0.027112	0.227076
H321	H	0.749687	-0.110455	0.142910
H322	H	0.834288	-0.146252	0.250354
H323	H	0.803652	-0.106387	0.343014
H324	H	0.688412	-0.030724	0.328232
H325	H	0.603812	0.005073	0.220788
C326	C	-0.020114	0.533384	0.173846
C327	C	-0.025412	0.473843	0.227089
C328	C	-0.053460	0.473826	0.288830
C329	C	-0.076212	0.533349	0.297330
C330	C	-0.070915	0.592894	0.244086
C331	C	-0.042866	0.592911	0.182344
H332	H	-0.008569	0.429777	0.220799
H333	H	-0.057381	0.429746	0.328245
H334	H	-0.096975	0.533336	0.343035
H335	H	-0.087758	0.636960	0.250376
H336	H	-0.038946	0.636990	0.142929
H337	H	0.590151	0.221811	0.467641
C338	C	0.160965	0.905964	-0.000180
C339	C	0.150093	0.976117	-0.031817
C340	C	0.093978	1.032247	-0.031807
C341	C	0.048735	1.018224	-0.000161
C342	C	0.059606	0.948068	0.031478
C343	C	0.115721	0.891938	0.031468
H344	H	0.183586	0.986501	-0.055245
H345	H	0.085930	1.084181	-0.055229
H346	H	0.007195	1.059774	-0.000154
H347	H	0.026113	0.937684	0.054906
H348	H	0.123769	0.840004	0.054889
H349	H	0.590128	0.420049	-0.323848
H350	H	0.476725	0.752511	-0.350362
H351	H	0.257694	0.752506	-0.206342
H352	H	-0.247521	0.533411	-0.101952
H353	H	0.476741	0.646807	-0.676422
C354	C	0.440625	-0.054845	-0.118027
C355	C	0.458231	-0.007612	-0.171265
C356	C	0.409620	0.069067	-0.233003
C357	C	0.343402	0.098512	-0.241504
C358	C	0.325793	0.051278	-0.188265
C359	C	0.374404	-0.025401	-0.126527
H360	H	0.507252	-0.029409	-0.164973
H361	H	0.422656	0.104032	-0.272414
H362	H	0.307417	0.155274	-0.287207
H363	H	0.276772	0.073075	-0.194557
H364	H	0.361368	-0.060366	-0.087116
H365	H	0.590123	0.420049	-0.206292
C366	C	0.679566	0.321669	-0.083432
C367	C	0.673262	0.293615	-0.127082
C368	C	0.610830	0.321690	-0.170743
C369	C	0.554702	0.377818	-0.170753
C370	C	0.561004	0.405874	-0.127101
C371	C	0.623436	0.377800	-0.083441
H372	H	0.714813	0.252063	-0.127076
H373	H	0.606165	0.300920	-0.203057
H374	H	0.508486	0.398600	-0.203073
H375	H	0.519453	0.447426	-0.127107
H376	H	0.628101	0.398569	-0.051127
C377	C	0.280089	0.852411	-0.488511
C378	C	0.253587	0.845404	-0.543959
C379	C	0.259868	0.873480	-0.623262
C380	C	0.292650	0.908563	-0.647119
C381	C	0.319154	0.915571	-0.591670
C382	C	0.312873	0.887495	-0.512366
H383	H	0.229318	0.819432	-0.526300
H384	H	0.240248	0.868292	-0.664309
H385	H	0.297300	0.929346	-0.705824
H386	H	0.343423	0.941543	-0.609329
H387	H	0.332493	0.892683	-0.471319
C388	C	0.786695	0.214517	-0.083429
C389	C	0.813156	0.221540	-0.147816
C390	C	0.806828	0.193488	-0.191459
C391	C	0.774040	0.158411	-0.170714
C392	C	0.747577	0.151386	-0.106324
C393	C	0.753904	0.179439	-0.062682
H394	H	0.837429	0.247508	-0.163176
H395	H	0.826418	0.198688	-0.239125
H396	H	0.769356	0.137645	-0.203021
H397	H	0.723303	0.125419	-0.090965
H398	H	0.734314	0.174238	-0.015015
C399	C	0.917966	0.214461	0.083220
C400	C	0.936745	0.263549	0.062505
C401	C	0.999189	0.235453	0.106158
C402	C	1.042854	0.158270	0.170526
C403	C	1.024075	0.109177	0.191245
C404	C	0.961631	0.137273	0.147592
H405	H	0.904421	0.320689	0.014852
H406	H	1.013090	0.271795	0.090820
H407	H	1.089078	0.137471	0.202841
H408	H	1.056399	0.052037	0.238897
H409	H	0.947731	0.100931	0.162929
H410	H	0.533469	0.175516	0.454475
C411	C	0.148901	0.852400	-0.083496
C412	C	0.092787	0.908526	-0.083486
C413	C	0.030345	0.936598	-0.127112
C414	C	0.024016	0.908544	-0.170749
C415	C	0.080132	0.852415	-0.170761
C416	C	0.142575	0.824343	-0.127134
H417	H	0.097470	0.929296	-0.051181
H418	H	-0.011196	0.978148	-0.127103
H419	H	-0.022207	0.929325	-0.203044
H420	H	0.075449	0.831645	-0.203065
H421	H	0.184115	0.782793	-0.127143
H422	H	0.409072	0.204102	-0.158083
H423	H	0.695824	0.314334	0.350091
H424	H	0.409070	0.111563	-0.158095
C425	C	0.467850	0.214498	0.321635
C426	C	0.484171	0.179404	0.280015
C427	C	0.449816	0.151321	0.272042
C428	C	0.399141	0.158331	0.305688
C429	C	0.382817	0.193427	0.347311
C430	C	0.417172	0.221510	0.355285
H431	H	0.521686	0.174213	0.255105
H432	H	0.461900	0.125341	0.241230
H433	H	0.373709	0.137542	0.299786
H434	H	0.345301	0.198618	0.372221
H435	H	0.405087	0.247490	0.386097
H436	H	0.613594	-0.327707	0.101654
H437	H	0.891375	0.175481	0.454413
C438	C	-0.254820	0.533410	0.117697
C439	C	-0.218032	0.473875	0.201799
C440	C	-0.246089	0.473870	0.263531
C441	C	-0.310934	0.533399	0.241161
C442	C	-0.347726	0.592938	0.157055
C443	C	-0.319669	0.592943	0.095323
H444	H	-0.170027	0.429804	0.218362
H445	H	-0.218854	0.429795	0.325791
H446	H	-0.331704	0.533395	0.286859
H447	H	-0.395731	0.637009	0.140492
H448	H	-0.346904	0.637018	0.033062
C449	C	0.626230	-0.240507	0.117699
C450	C	0.668155	-0.217599	0.095351
C451	C	0.716768	-0.238175	0.157099
C452	C	0.723456	-0.281660	0.241194
C453	C	0.681530	-0.304571	0.263546
C454	C	0.632917	-0.283994	0.201799
H455	H	0.663205	-0.185406	0.033095
H456	H	0.747804	-0.221215	0.140552
H457	H	0.759443	-0.296892	0.286904
H458	H	0.686480	-0.336763	0.325802
H459	H	0.601881	-0.300954	0.218346
C460	C	0.626241	0.228844	0.117763
C461	C	0.668149	0.251774	0.095388
C462	C	0.716759	0.231223	0.157116
C463	C	0.723461	0.187741	0.241218
C464	C	0.681552	0.164808	0.263597
C465	C	0.632942	0.185360	0.201869
H466	H	0.663188	0.283964	0.033127
H467	H	0.747783	0.248199	0.140549
H468	H	0.759446	0.172527	0.286913
H469	H	0.686513	0.132618	0.325858
H470	H	0.601919	0.168383	0.218436
C471	C	0.321689	0.533455	-0.117970
C472	C	0.344441	0.473927	-0.126461
C473	C	0.372501	0.473931	-0.188190
C474	C	0.377810	0.533462	-0.241429
C475	C	0.355058	0.592995	-0.232939
C476	C	0.326997	0.592991	-0.171210
H477	H	0.340511	0.429854	-0.087049
H478	H	0.389344	0.429861	-0.194474
H479	H	0.398582	0.533465	-0.287124
H480	H	0.358987	0.637067	-0.272351
H481	H	0.310154	0.637061	-0.164926
H482	H	0.476724	0.646822	-0.350326
H483	H	0.657811	-0.137229	0.157788
H484	H	0.613610	0.141625	0.101721
H485	H	0.809172	0.314349	0.206076
H486	H	0.257677	0.752526	-0.072158
H487	H	0.221855	0.533436	-0.101939
H488	H	0.476737	0.646817	-0.467867
C489	C	0.087018	0.533426	-0.174086
C490	C	0.109752	0.473903	-0.182581
C491	C	0.137814	0.473897	-0.244307
C492	C	0.143141	0.533415	-0.297538
C493	C	0.120406	0.592942	-0.289045
C494	C	0.092344	0.592948	-0.227319
H495	H	0.105809	0.429840	-0.143175
H496	H	0.154644	0.429830	-0.250594
H497	H	0.163914	0.533411	-0.343232
H498	H	0.124349	0.637005	-0.328451
H499	H	0.075514	0.637014	-0.221032
C500	C	-0.147667	0.533414	-0.117986
C501	C	-0.124918	0.473885	-0.126473
C502	C	-0.096859	0.473885	-0.188203
C503	C	-0.091549	0.533414	-0.241445
C504	C	-0.114299	0.592948	-0.232960
C505	C	-0.142357	0.592948	-0.171230
H506	H	-0.128848	0.429813	-0.087059
H507	H	-0.080019	0.429813	-0.194484
H508	H	-0.070778	0.533414	-0.287141
H509	H	-0.110368	0.637019	-0.272374
H510	H	-0.159198	0.637019	-0.164949
H511	H	0.476745	0.646802	-0.793973
H512	H	-0.012818	0.533419	-0.158056
H513	H	0.079724	0.533391	0.157812
H514	H	0.590137	0.420030	-0.649939
H515	H	-0.154976	0.533405	0.101675
H516	H	0.891321	0.175496	-0.000116
