data_functionalizedCrystal
_audit_creation_method	'MofGen! by Chris Wilmer'
_symmetry_space_group_name_H-M	'P1'
_symmetry_Int_Tables_number	1
_symmetry_cell_setting	triclinic
loop_
_symmetry_equiv_pos_as_xyz
  x,y,z
_cell_length_a	9.065215
_cell_length_b	17.038272
_cell_length_c	7.540329
_cell_angle_alpha	90.003911
_cell_angle_beta	90.002426
_cell_angle_gamma	88.063127
loop_
_atom_site_label
_atom_site_type_symbol
_atom_site_fract_x
_atom_site_fract_y
_atom_site_fract_z
O1	O	1.971910	0.114731	0.147464
O2	O	2.471910	0.614731	0.647464
O3	O	1.543569	0.124145	0.147472
O4	O	2.043569	0.624145	0.647472
O5	O	1.755194	0.005604	0.147454
O6	O	2.255194	0.505604	0.647454
O7	O	1.760285	0.233272	0.147482
O8	O	2.260285	0.733272	0.647482
O9	O	1.755180	0.005603	-0.147511
O10	O	2.255180	0.505603	0.352489
O11	O	1.543555	0.124143	-0.147493
O12	O	2.043555	0.624143	0.352507
O13	O	1.971896	0.114729	-0.147501
O14	O	2.471896	0.614729	0.352499
Cu15	Cu	1.757724	0.119436	-0.174429
Cu16	Cu	2.257724	0.619436	0.325571
Cu17	Cu	1.757741	0.119438	0.174401
Cu18	Cu	2.257741	0.619438	0.674401
O19	O	1.760271	0.233270	-0.147483
O20	O	2.260271	0.733270	0.352517
C21	C	1.488485	0.123240	-0.000009
C22	C	1.988485	0.623240	0.499991
C23	C	1.324370	0.120536	-0.000006
C24	C	1.824370	0.620536	0.499994
C25	C	1.750556	-0.023558	-0.000028
C26	C	2.250556	0.476442	0.499972
C27	C	1.736740	-0.110451	-0.000027
C28	C	2.236740	0.389549	0.499973
C29	C	1.863588	-0.159650	-0.000031
C30	C	2.363588	0.340350	0.499969
C31	C	1.850597	-0.241294	-0.000014
C32	C	2.350597	0.258706	0.499986
C33	C	1.710758	-0.273738	-0.000006
C34	C	2.210758	0.226262	0.499994
C35	C	1.583900	-0.224532	0.000004
C36	C	2.083900	0.275468	0.500004
C37	C	1.596892	-0.142890	-0.000000
C38	C	2.096892	0.357110	0.500000
C39	C	1.664860	-0.519827	0.000019
C40	C	2.164860	-0.019827	0.500019
C41	C	1.651877	-0.601476	0.000019
C42	C	2.151877	-0.101476	0.500019
C43	C	1.918576	-0.618232	0.000004
C44	C	2.418576	-0.118232	0.500004
C45	C	1.931556	-0.536587	-0.000011
C46	C	2.431556	-0.036587	0.499989
C47	C	1.804698	-0.487389	0.000007
C48	C	2.304698	0.012611	0.500007
C49	C	1.697476	-0.357191	0.000006
C50	C	2.197476	0.142809	0.500006
C51	C	1.817981	-0.403937	0.000008
C52	C	2.317981	0.096063	0.500008
C53	C	2.026980	0.115634	-0.000015
C54	C	2.526980	0.615634	0.499985
C55	C	2.191095	0.118338	-0.000006
C56	C	2.691095	0.618338	0.499994
C57	C	1.764909	0.262433	0.000003
C58	C	2.264909	0.762433	0.500003
C59	C	1.778725	0.349325	0.000014
C60	C	2.278725	0.849325	0.500014
N61	N	1.757724	0.119435	-0.419778
N62	N	2.257724	0.619435	0.080222
N63	N	1.757752	0.119434	0.419749
N64	N	2.257752	0.619434	0.919749
H65	H	1.977460	-0.133241	-0.000049
H66	H	2.477460	0.366759	0.499951
Br67	Br	2.121345	-0.492562	0.000034
Br68	Br	2.621345	0.007438	0.500034
Br69	Br	2.090730	-0.685004	-0.000022
Br70	Br	2.590730	-0.185004	0.499978
Br71	Br	2.022757	-0.308062	-0.000020
Br72	Br	2.522757	0.191938	0.499980
H73	H	1.537997	-0.627888	-0.000003
H74	H	2.037997	-0.127888	0.499997
H75	H	1.470039	-0.250954	0.000022
H76	H	1.970039	0.249046	0.500022
H77	H	1.561562	-0.479779	0.000034
H78	H	2.061562	0.020221	0.500034
H79	H	1.493598	-0.102832	0.000003
H80	H	1.993598	0.397168	0.500003
Br81	Br	1.507697	-0.401229	0.000035
Br82	Br	2.007697	0.098771	0.500035
H83	H	1.931838	-0.377518	0.000040
H84	H	2.431838	0.122482	0.500040
