data_functionalizedCrystal
_audit_creation_method	'MofGen! by Chris Wilmer'
_symmetry_space_group_name_H-M	'P1'
_symmetry_Int_Tables_number	1
_symmetry_cell_setting	triclinic
loop_
_symmetry_equiv_pos_as_xyz
  x,y,z
_cell_length_a	12.827892
_cell_length_b	12.827893
_cell_length_c	12.827885
_cell_angle_alpha	89.978811
_cell_angle_beta	90.029976
_cell_angle_gamma	89.986589
loop_
_atom_site_label
_atom_site_type_symbol
_atom_site_fract_x
_atom_site_fract_y
_atom_site_fract_z
Zn1	Zn	-0.416032	-1.597671	0.590901
Zn2	Zn	-0.166032	-1.347671	0.840901
Zn3	Zn	0.083968	-1.097671	1.090901
Zn4	Zn	0.333968	-0.847671	1.340901
Zn5	Zn	-0.590810	-1.597566	0.416160
Zn6	Zn	-0.340810	-1.347566	0.666160
Zn7	Zn	-0.090810	-1.097566	0.916160
Zn8	Zn	0.159190	-0.847566	1.166160
Zn9	Zn	-0.416078	-1.422912	0.416169
Zn10	Zn	-0.166078	-1.172912	0.666169
Zn11	Zn	0.083922	-0.922912	0.916169
Zn12	Zn	0.333922	-0.672912	1.166169
Zn13	Zn	-0.590727	-1.422898	0.590855
Zn14	Zn	-0.340727	-1.172898	0.840855
Zn15	Zn	-0.090727	-0.922898	1.090855
Zn16	Zn	0.159273	-0.672898	1.340855
O17	O	-0.503412	-1.510262	0.503521
O18	O	-0.253412	-1.260262	0.753521
O19	O	-0.003412	-1.010262	1.003521
O20	O	0.246588	-0.760262	1.253521
O21	O	-0.439233	-1.743893	0.567737
O22	O	-0.189233	-1.493893	0.817737
O23	O	0.060767	-1.243893	1.067737
O24	O	0.310767	-0.993893	1.317737
O25	O	-0.567685	-1.574359	0.269925
O26	O	-0.317685	-1.324359	0.519925
O27	O	-0.067685	-1.074359	0.769925
O28	O	0.182315	-0.824359	1.019925
O29	O	-0.269836	-1.446144	0.439370
O30	O	-0.019836	-1.196144	0.689370
O31	O	0.230164	-0.946144	0.939370
O32	O	0.480164	-0.696144	1.189370
O33	O	-0.567641	-1.743816	0.439356
O34	O	-0.317641	-1.493816	0.689356
O35	O	-0.067641	-1.243816	0.939356
O36	O	0.182359	-0.993816	1.189356
O37	O	-0.269802	-1.574539	0.567745
O38	O	-0.019802	-1.324539	0.817745
O39	O	0.230198	-1.074539	1.067745
O40	O	0.480198	-0.824539	1.317745
O41	O	-0.439310	-1.446042	0.269931
O42	O	-0.189310	-1.196042	0.519931
O43	O	0.060690	-0.946042	0.769931
O44	O	0.310690	-0.696042	1.019931
O45	O	-0.439230	-1.276674	0.439325
O46	O	-0.189230	-1.026674	0.689325
O47	O	0.060770	-0.776674	0.939325
O48	O	0.310770	-0.526674	1.189325
O49	O	-0.567499	-1.446120	0.737097
O50	O	-0.317499	-1.196120	0.987097
O51	O	-0.067499	-0.946120	1.237097
O52	O	0.182501	-0.696120	1.487097
O53	O	-0.567543	-1.276664	0.567666
O54	O	-0.317543	-1.026664	0.817666
O55	O	-0.067543	-0.776664	1.067666
O56	O	0.182457	-0.526664	1.317666
O57	O	-0.439152	-1.574525	0.737131
O58	O	-0.189152	-1.324525	0.987131
O59	O	0.060848	-1.074525	1.237131
O60	O	0.310848	-0.824525	1.487131
O61	O	-0.737035	-1.574346	0.439311
O62	O	-0.487035	-1.324346	0.689311
O63	O	-0.237035	-1.074346	0.939311
O64	O	0.012965	-0.824346	1.189311
O65	O	-0.736974	-1.446018	0.567658
O66	O	-0.486974	-1.196018	0.817658
O67	O	-0.236974	-0.946018	1.067658
O68	O	0.013026	-0.696018	1.317658
C69	C	-0.503383	-1.238752	0.503492
C70	C	-0.253383	-0.988752	0.753492
C71	C	-0.003383	-0.738752	1.003492
C72	C	0.246617	-0.488752	1.253492
C73	C	-0.503396	-1.122599	0.503504
C74	C	-0.253396	-0.872599	0.753504
C75	C	-0.003396	-0.622599	1.003504
C76	C	0.246604	-0.372599	1.253504
C77	C	-0.439967	-1.070852	0.567129
C78	C	-0.189967	-0.820852	0.817129
C79	C	0.060033	-0.570852	1.067129
C80	C	0.310033	-0.320852	1.317129
C81	C	-0.439979	-0.950802	0.567143
C82	C	-0.189979	-0.700802	0.817143
C83	C	0.060021	-0.450802	1.067143
C84	C	0.310021	-0.200802	1.317143
C85	C	-0.774922	-1.510197	0.503502
C86	C	-0.524922	-1.260197	0.753502
C87	C	-0.274922	-1.010197	1.003502
C88	C	-0.024922	-0.760197	1.253502
C89	C	-0.891075	-1.510265	0.503528
C90	C	-0.641075	-1.260265	0.753528
C91	C	-0.391075	-1.010265	1.003528
C92	C	-0.141075	-0.760265	1.253528
C93	C	-0.942864	-1.446750	0.566992
C94	C	-0.692864	-1.196750	0.816992
C95	C	-0.442864	-0.946750	1.066992
C96	C	-0.192864	-0.696750	1.316992
C97	C	-1.062914	-1.446819	0.567021
C98	C	-0.812914	-1.196819	0.817021
C99	C	-0.562914	-0.946819	1.067021
C100	C	-0.312914	-0.696819	1.317021
C101	C	-0.230841	-1.510355	0.503563
C102	C	0.019159	-1.260355	0.753563
C103	C	0.269159	-1.010355	1.003563
C104	C	0.519159	-0.760355	1.253563
C105	C	-0.114688	-1.510395	0.503581
C106	C	0.135312	-1.260395	0.753581
C107	C	0.385312	-1.010395	1.003581
C108	C	0.635312	-0.760395	1.253581
C109	C	-0.503311	-1.510333	0.776091
C110	C	-0.253311	-1.260333	1.026091
C111	C	-0.003311	-1.010333	1.276091
C112	C	0.246689	-0.760333	1.526091
C113	C	-0.503269	-1.510363	0.892245
C114	C	-0.253269	-1.260363	1.142245
C115	C	-0.003269	-1.010363	1.392245
C116	C	0.246731	-0.760363	1.642245
C117	C	-0.503432	-0.782832	0.503542
C118	C	-0.253432	-0.532832	0.753542
C119	C	-0.003432	-0.282832	1.003542
C120	C	0.246568	-0.032832	1.253542
C121	C	-0.503419	-0.898985	0.503530
C122	C	-0.253419	-0.648985	0.753530
C123	C	-0.003419	-0.398985	1.003530
C124	C	0.246581	-0.148985	1.253530
C125	C	-0.503436	-1.510251	0.232011
C126	C	-0.253436	-1.260251	0.482011
C127	C	-0.003436	-1.010251	0.732011
C128	C	0.246564	-0.760251	0.982011
C129	C	-0.503185	-1.510423	0.115859
C130	C	-0.253185	-1.260423	0.365859
C131	C	-0.003185	-1.010423	0.615859
C132	C	0.246815	-0.760423	0.865859
C133	C	-0.439746	-1.573909	0.944046
C134	C	-0.189746	-1.323909	1.194046
C135	C	0.060254	-1.073909	1.444046
C136	C	0.310254	-0.823909	1.694046
C137	C	-0.439700	-1.573942	1.064097
C138	C	-0.189700	-1.323942	1.314097
C139	C	0.060300	-1.073942	1.564097
C140	C	0.310300	-0.823942	1.814097
H141	H	-0.557732	-0.943479	0.449062
H142	H	-0.307732	-0.693479	0.699062
H143	H	-0.057732	-0.443479	0.949062
H144	H	0.192268	-0.193479	1.199062
H145	H	-0.385678	-0.906301	0.621617
H146	H	-0.135678	-0.656301	0.871617
H147	H	0.114322	-0.406301	1.121617
H148	H	0.364322	-0.156301	1.371617
O149	O	-0.950068	-1.582380	0.431601
O150	O	-0.700068	-1.332380	0.681601
O151	O	-0.450068	-1.082380	0.931601
O152	O	-0.200068	-0.832380	1.181601
H153	H	-0.999889	-1.535630	0.378452
H154	H	-0.749889	-1.285630	0.628452
H155	H	-0.499889	-1.035630	0.878452
H156	H	-0.249889	-0.785630	1.128452
H157	H	-0.385650	-1.115427	0.621585
H158	H	-0.135650	-0.865427	0.871585
H159	H	0.114350	-0.615427	1.121585
H160	H	0.364350	-0.365427	1.371585
H161	H	-0.557575	-1.456020	1.071317
H162	H	-0.307575	-1.206020	1.321317
H163	H	-0.057575	-0.956020	1.571317
H164	H	0.192425	-0.706020	1.821317
O165	O	-0.575261	-1.438318	0.951212
O166	O	-0.325261	-1.188318	1.201212
O167	O	-0.075261	-0.938318	1.451212
O168	O	0.174739	-0.688318	1.701212
H169	H	-0.628377	-1.485126	1.000934
H170	H	-0.378377	-1.235126	1.250934
H171	H	-0.128377	-0.985126	1.500934
H172	H	0.121623	-0.735126	1.750934
H173	H	-0.898328	-1.392316	0.621301
H174	H	-0.648328	-1.142316	0.871301
H175	H	-0.398328	-0.892316	1.121301
H176	H	-0.148328	-0.642316	1.371301
H177	H	-0.557707	-1.078024	0.449042
H178	H	-0.307707	-0.828024	0.699042
H179	H	-0.057707	-0.578024	0.949042
H180	H	0.192293	-0.328024	1.199042
O181	O	-1.121895	-1.374774	0.638990
O182	O	-0.871895	-1.124774	0.888990
O183	O	-0.621895	-0.874774	1.138990
O184	O	-0.371895	-0.624774	1.388990
H185	H	-1.206931	-1.386124	0.627710
H186	H	-0.956931	-1.136124	0.877710
H187	H	-0.706931	-0.886124	1.127710
H188	H	-0.456931	-0.636124	1.377710
H189	H	-1.070159	-1.564780	0.449249
H190	H	-0.820159	-1.314780	0.699249
H191	H	-0.570159	-1.064780	0.949249
H192	H	-0.320159	-0.814780	1.199249
H193	H	-0.385392	-1.628285	0.899519
H194	H	-0.135392	-1.378285	1.149519
H195	H	0.114608	-1.128285	1.399519
H196	H	0.364608	-0.878285	1.649519
O197	O	-0.367637	-1.645994	1.123092
O198	O	-0.117637	-1.395994	1.373092
O199	O	0.132363	-1.145994	1.623092
O200	O	0.382363	-0.895994	1.873092
H201	H	-0.378895	-1.634699	1.208125
H202	H	-0.128895	-1.384699	1.458125
H203	H	0.121105	-1.134699	1.708125
H204	H	0.371105	-0.884699	1.958125
