data_functionalizedCrystal
_audit_creation_method	'MofGen! by Chris Wilmer'
_symmetry_space_group_name_H-M	'P1'
_symmetry_Int_Tables_number	1
_symmetry_cell_setting	triclinic
loop_
_symmetry_equiv_pos_as_xyz
  x,y,z
_cell_length_a	10.654545
_cell_length_b	19.188930
_cell_length_c	9.730223
_cell_angle_alpha	89.990488
_cell_angle_beta	89.997167
_cell_angle_gamma	83.813930
loop_
_atom_site_label
_atom_site_type_symbol
_atom_site_fract_x
_atom_site_fract_y
_atom_site_fract_z
O1	O	1.665768	0.098047	-0.114293
O2	O	1.300091	0.107393	-0.114301
O3	O	1.493482	0.001133	-0.114270
O4	O	1.472377	0.204306	-0.114324
O5	O	1.493469	0.001130	0.114310
O6	O	1.300078	0.107390	0.114279
O7	O	1.665755	0.098044	0.114286
Zn8	Zn	1.482915	0.102716	0.150575
Zn9	Zn	1.482931	0.102720	-0.150589
O10	O	1.472364	0.204304	0.114256
C11	C	1.253301	0.106706	-0.000011
C12	C	1.113901	0.104655	-0.000013
C13	C	1.048410	0.103687	0.124587
C14	C	0.917432	0.101749	0.124587
C15	C	0.917446	0.101747	-0.124623
C16	C	1.048423	0.103681	-0.124622
C17	C	1.492792	-0.024884	0.000024
C18	C	1.490741	-0.102402	0.000036
C19	C	1.604216	-0.146585	0.000044
C20	C	1.602289	-0.219421	0.000022
C21	C	1.486879	-0.248071	0.000019
C22	C	1.373389	-0.203879	0.000002
C23	C	1.375319	-0.131044	0.000011
N24	N	1.398658	-0.356653	0.077807
N25	N	1.396832	-0.425844	0.077802
C26	C	1.481055	-0.467518	-0.000009
N27	N	1.567193	-0.437389	-0.077798
N28	N	1.569023	-0.368192	-0.077787
C29	C	1.484773	-0.327048	0.000009
C30	C	1.592448	-0.590679	-0.000026
C31	C	1.590516	-0.663516	-0.000056
C32	C	1.361613	-0.647972	-0.000063
C33	C	1.363548	-0.575137	-0.000046
C34	C	1.478970	-0.546494	-0.000021
C35	C	1.712545	0.098731	-0.000006
C36	C	1.851945	0.100782	-0.000013
C37	C	1.473054	0.230320	-0.000041
C38	C	1.475105	0.307838	-0.000062
N39	N	1.482913	0.102713	0.356111
N40	N	1.482943	0.102718	-0.356126
C41	C	1.568575	0.055682	0.428051
C42	C	1.568588	0.055682	0.571934
C43	C	1.397272	0.149752	0.571925
C44	C	1.397254	0.149748	0.428044
H45	H	0.864117	0.100955	-0.226075
O46	O	1.313900	0.195370	0.641746
C47	C	1.095330	0.235177	0.685741
C48	C	1.189609	0.183463	0.606611
H49	H	0.994820	0.225578	0.657342
H50	H	1.109950	0.227101	0.800950
H51	H	1.111435	0.291177	0.657440
H52	H	1.173560	0.127442	0.634796
H53	H	1.174965	0.191599	0.491421
O54	O	1.112135	0.104499	-0.245631
C55	C	1.274647	0.046326	-0.390194
C56	C	1.202572	0.045307	-0.253128
H57	H	1.347800	-0.001518	-0.396288
H58	H	1.205419	0.045259	-0.479311
H59	H	1.324141	0.096026	-0.396416
H60	H	1.153075	-0.004385	-0.246772
H61	H	1.271859	0.046411	-0.164076
H62	H	1.267644	-0.671299	-0.000072
H63	H	1.271144	-0.539162	-0.000045
H64	H	1.698201	-0.123269	0.000060
H65	H	1.327492	0.188047	0.369467
O66	O	1.712639	-0.262250	0.000096
C67	C	1.939880	-0.269986	0.000046
C68	C	1.815004	-0.221405	-0.000006
H69	H	2.022675	-0.236983	-0.000066
H70	H	1.944768	-0.304470	0.095728
H71	H	1.944639	-0.304480	-0.095593
H72	H	1.810162	-0.186868	0.095568
H73	H	1.810169	-0.186970	-0.095751
H74	H	1.638322	0.017382	0.369486
O75	O	1.261358	-0.231789	-0.000182
C76	C	1.126315	-0.304958	-0.118657
C77	C	1.253249	-0.273411	-0.118594
H78	H	1.119705	-0.338604	-0.214397
H79	H	1.119661	-0.338723	-0.023063
H80	H	1.045559	-0.260853	-0.118595
H81	H	1.334077	-0.317470	-0.118704
H82	H	1.259792	-0.239627	-0.214179
O83	O	1.264968	-0.088221	0.000070
C84	C	1.037728	-0.080490	-0.000027
C85	C	1.162606	-0.129069	-0.000066
H86	H	0.954936	-0.113496	-0.000166
H87	H	1.032816	-0.046029	0.095664
H88	H	1.032988	-0.045975	-0.095657
H89	H	1.167429	-0.163628	0.095500
H90	H	1.167466	-0.163483	-0.095819
H91	H	1.686431	-0.567357	-0.000012
O92	O	1.700869	-0.706338	0.000012
C93	C	1.928109	-0.714065	-0.000036
C94	C	1.803228	-0.665489	-0.000082
H95	H	2.010898	-0.681058	-0.000141
H96	H	1.933000	-0.748553	0.095640
H97	H	1.932872	-0.748555	-0.095681
H98	H	1.798381	-0.630956	0.095498
H99	H	1.798389	-0.631049	-0.095821
O100	O	1.651752	0.009901	0.641664
C101	C	1.725981	-0.111120	0.685780
C102	C	1.631746	-0.059347	0.606703
H103	H	1.709822	-0.167118	0.657566
H104	H	1.826529	-0.101558	0.657441
H105	H	1.711299	-0.103006	0.800966
H106	H	1.646313	-0.067430	0.491500
H107	H	1.531232	-0.068923	0.635156
O108	O	0.853978	0.100720	0.245714
C109	C	0.828425	0.039729	0.458701
C110	C	0.900402	0.040819	0.321582
H111	H	0.865913	-0.008704	0.520067
H112	H	0.842438	0.088852	0.520222
H113	H	0.723562	0.038211	0.437274
H114	H	1.005287	0.042312	0.342884
H115	H	0.886284	-0.008302	0.260103
H116	H	1.101718	0.104480	0.226052
