data_functionalizedCrystal
_audit_creation_method	'MofGen! by Chris Wilmer'
_symmetry_space_group_name_H-M	'P1'
_symmetry_Int_Tables_number	1
_symmetry_cell_setting	triclinic
loop_
_symmetry_equiv_pos_as_xyz
  x,y,z
_cell_length_a	15.944551
_cell_length_b	14.421503
_cell_length_c	15.944493
_cell_angle_alpha	89.989835
_cell_angle_beta	83.486891
_cell_angle_gamma	90.003141
loop_
_atom_site_label
_atom_site_type_symbol
_atom_site_fract_x
_atom_site_fract_y
_atom_site_fract_z
O1	O	1.114507	0.077003	0.108323
O2	O	1.364507	0.327003	0.358323
O3	O	1.614507	0.577003	0.608323
O4	O	1.864507	0.827003	0.858323
O5	O	0.869954	0.077024	0.121680
O6	O	1.119954	0.327024	0.371680
O7	O	1.369954	0.577024	0.621680
O8	O	1.619954	0.827024	0.871680
O9	O	0.998934	0.077021	-0.007276
O10	O	1.248934	0.327021	0.242724
O11	O	1.498934	0.577021	0.492724
O12	O	1.748934	0.827021	0.742724
O13	O	0.985527	0.077006	0.237280
O14	O	1.235527	0.327006	0.487280
O15	O	1.485527	0.577006	0.737280
O16	O	1.735527	0.827006	0.987280
O17	O	0.998913	-0.077203	-0.007257
O18	O	1.248913	0.172797	0.242743
O19	O	1.498913	0.422797	0.492743
O20	O	1.748913	0.672797	0.742743
O21	O	0.869933	-0.077199	0.121699
O22	O	1.119933	0.172801	0.371699
O23	O	1.369933	0.422801	0.621699
O24	O	1.619933	0.672801	0.871699
O25	O	1.114485	-0.077221	0.108343
O26	O	1.364485	0.172779	0.358343
O27	O	1.614485	0.422779	0.608343
O28	O	1.864485	0.672779	0.858343
Cu29	Cu	0.992207	-0.091292	0.115023
Cu30	Cu	1.242207	0.158708	0.365023
Cu31	Cu	1.492207	0.408708	0.615023
Cu32	Cu	1.742207	0.658708	0.865023
Cu33	Cu	0.992232	0.091095	0.115000
Cu34	Cu	1.242232	0.341095	0.365000
Cu35	Cu	1.492232	0.591095	0.615000
Cu36	Cu	1.742232	0.841095	0.865000
O37	O	0.985506	-0.077217	0.237299
O38	O	1.235506	0.172783	0.487299
O39	O	1.485506	0.422783	0.737299
O40	O	1.735506	0.672783	0.987299
C41	C	0.838650	-0.000084	0.121135
C42	C	1.088650	0.249916	0.371135
C43	C	1.338650	0.499916	0.621135
C44	C	1.588650	0.749916	0.871135
C45	C	0.745404	-0.000076	0.119473
C46	C	0.995404	0.249924	0.369473
C47	C	1.245404	0.499924	0.619473
C48	C	1.495404	0.749924	0.869473
N49	N	0.992196	-0.219573	0.115038
N50	N	1.242196	0.030427	0.365038
N51	N	1.492196	0.280427	0.615038
N52	N	1.742196	0.530427	0.865038
C53	C	0.530565	-0.000089	0.035566
C54	C	0.780565	0.249911	0.285566
C55	C	1.030565	0.499911	0.535566
C56	C	1.280565	0.749911	0.785566
C57	C	0.469547	0.075949	0.074520
C58	C	0.719547	0.325949	0.324520
C59	C	0.969547	0.575949	0.574520
C60	C	1.219547	0.825949	0.824520
C61	C	0.574679	-0.000086	0.116465
C62	C	0.824679	0.249914	0.366465
C63	C	1.074679	0.499914	0.616465
C64	C	1.324679	0.749914	0.866465
C65	C	0.469548	-0.076103	0.074558
C66	C	0.719548	0.173897	0.324558
C67	C	0.969548	0.423897	0.574558
C68	C	1.219548	0.673897	0.824558
C69	C	0.409767	-0.000101	0.113555
C70	C	0.659767	0.249899	0.363555
C71	C	0.909767	0.499899	0.613555
C72	C	1.159767	0.749899	0.863555
C73	C	0.514889	0.076014	0.155442
C74	C	0.764889	0.326014	0.405442
C75	C	1.014889	0.576014	0.655442
C76	C	1.264889	0.826014	0.905442
C77	C	0.514897	-0.076106	0.155468
C78	C	0.764897	0.173894	0.405468
C79	C	1.014897	0.423894	0.655468
C80	C	1.264897	0.673894	0.905468
C81	C	0.453897	-0.000050	0.194481
C82	C	0.703897	0.249950	0.444481
C83	C	0.953897	0.499950	0.694481
C84	C	1.203897	0.749950	0.944481
C85	C	0.669681	-0.000077	0.118140
C86	C	0.919681	0.249923	0.368140
C87	C	1.169681	0.499923	0.618140
C88	C	1.419681	0.749923	0.868140
C89	C	0.314766	-0.000103	0.111886
C90	C	0.564766	0.249897	0.361886
C91	C	0.814766	0.499897	0.611886
C92	C	1.064766	0.749897	0.861886
C93	C	0.932545	-0.469225	0.174641
C94	C	1.182545	-0.219225	0.424641
C95	C	1.432545	0.030775	0.674641
C96	C	1.682545	0.280775	0.924641
C97	C	1.008441	-0.531036	0.190949
C98	C	1.258441	-0.281036	0.440949
C99	C	1.508441	-0.031036	0.690949
C100	C	1.758441	0.218964	0.940949
C101	C	0.992216	-0.408734	0.115018
C102	C	1.242216	-0.158734	0.365018
C103	C	1.492216	0.091266	0.615018
C104	C	1.742216	0.341266	0.865018
C105	C	0.916339	-0.531018	0.098730
C106	C	1.166339	-0.281018	0.348730
C107	C	1.416339	-0.031018	0.598730
C108	C	1.666339	0.218982	0.848730
C109	C	0.992229	-0.591456	0.115001
C110	C	1.242229	-0.341456	0.365001
C111	C	1.492229	-0.091456	0.615001
C112	C	1.742229	0.158544	0.865001
C113	C	1.068151	-0.469184	0.131364
C114	C	1.318151	-0.219184	0.381364
C115	C	1.568151	0.030816	0.631364
C116	C	1.818151	0.280816	0.881364
C117	C	0.975998	-0.469161	0.039112
C118	C	1.225998	-0.219161	0.289112
C119	C	1.475998	0.030839	0.539112
C120	C	1.725998	0.280839	0.789112
C121	C	1.051950	-0.530944	0.055388
C122	C	1.301950	-0.280944	0.305388
C123	C	1.551950	-0.030944	0.555388
C124	C	1.801950	0.219056	0.805388
C125	C	0.992207	-0.303473	0.115030
C126	C	1.242207	-0.053473	0.365030
C127	C	1.492207	0.196527	0.615030
C128	C	1.742207	0.446527	0.865030
C129	C	0.992246	-0.696715	0.114988
C130	C	1.242246	-0.446715	0.364988
C131	C	1.492246	-0.196715	0.614988
C132	C	1.742246	0.053285	0.864988
C133	C	1.145790	-0.000110	0.108888
C134	C	1.395790	0.249890	0.358888
C135	C	1.645790	0.499890	0.608888
C136	C	1.895790	0.749890	0.858888
C137	C	1.239036	-0.000113	0.110550
C138	C	1.489036	0.249887	0.360550
C139	C	1.739036	0.499887	0.610550
C140	C	1.989036	0.749887	0.860550
C141	C	0.998375	-0.000087	-0.038562
C142	C	1.248375	0.249913	0.211438
C143	C	1.498375	0.499913	0.461438
C144	C	1.748375	0.749913	0.711438
C145	C	0.996733	-0.000075	-0.131810
C146	C	1.246733	0.249925	0.118190
C147	C	1.496733	0.499925	0.368190
C148	C	1.746733	0.749925	0.618190
N149	N	0.992251	0.219377	0.114978
N150	N	1.242251	0.469377	0.364978
N151	N	1.492251	0.719377	0.614978
N152	N	1.742251	0.969377	0.864978
C153	C	1.072653	-0.000099	-0.367570
C154	C	1.322653	0.249901	-0.117570
C155	C	1.572653	0.499901	0.132430
C156	C	1.822653	0.749901	0.382430
C157	C	1.031722	0.075944	-0.418148
C158	C	1.281722	0.325944	-0.168148
C159	C	1.531722	0.575944	0.081852
C160	C	1.781722	0.825944	0.331852
C161	C	0.993688	-0.000086	-0.302531
C162	C	1.243688	0.249914	-0.052531
C163	C	1.493688	0.499914	0.197469
C164	C	1.743688	0.749914	0.447469
C165	C	1.031683	-0.076108	-0.418105
C166	C	1.281683	0.173892	-0.168105
C167	C	1.531683	0.423892	0.081895
C168	C	1.781683	0.673892	0.331895
C169	C	0.990754	-0.000101	-0.467441
C170	C	1.240754	0.249899	-0.217441
C171	C	1.490754	0.499899	0.032559
C172	C	1.740754	0.749899	0.282559
C173	C	0.952779	0.076020	-0.351881
C174	C	1.202779	0.326020	-0.101881
C175	C	1.452779	0.576020	0.148119
C176	C	1.702779	0.826020	0.398119
C177	C	0.952751	-0.076101	-0.351834
C178	C	1.202751	0.173899	-0.101834
C179	C	1.452751	0.423899	0.148166
C180	C	1.702751	0.673899	0.398166
C181	C	0.911763	-0.000039	-0.402379
C182	C	1.161763	0.249961	-0.152379
C183	C	1.411763	0.499961	0.097621
C184	C	1.661763	0.749961	0.347621
C185	C	0.995381	-0.000077	-0.207531
C186	C	1.245381	0.249923	0.042469
C187	C	1.495381	0.499923	0.292469
C188	C	1.745381	0.749923	0.542469
C189	C	0.989055	-0.000104	-0.562438
C190	C	1.239055	0.249896	-0.312438
C191	C	1.489055	0.499896	-0.062438
C192	C	1.739055	0.749896	0.187562
C193	C	0.986064	-0.000107	0.268584
C194	C	1.236064	0.249893	0.518584
C195	C	1.486064	0.499893	0.768584
C196	C	1.736064	0.749893	1.018584
C197	C	0.987707	-0.000113	0.361833
C198	C	1.237707	0.249887	0.611833
C199	C	1.487707	0.499887	0.861833
C200	C	1.737707	0.749887	1.111833
H201	H	0.563912	0.000009	-0.031574
H202	H	0.813912	0.250009	0.218426
H203	H	1.063912	0.500009	0.468426
H204	H	1.313912	0.750009	0.718426
H205	H	0.534879	0.140369	0.189625
H206	H	0.784879	0.390369	0.439625
H207	H	1.034879	0.640369	0.689625
H208	H	1.284879	0.890369	0.939625
H209	H	0.919423	-0.140387	-0.322866
H210	H	1.169423	0.109613	-0.072866
H211	H	1.419423	0.359613	0.177134
H212	H	1.669423	0.609613	0.427134
H213	H	0.449453	0.140238	0.040295
H214	H	0.699453	0.390238	0.290295
H215	H	0.949453	0.640238	0.540295
H216	H	1.199453	0.890238	0.790295
H217	H	0.420724	-0.000011	0.261690
H218	H	0.670724	0.249989	0.511690
H219	H	0.920724	0.499989	0.761690
H220	H	1.170724	0.749989	1.011690
H221	H	1.065038	-0.140393	-0.447028
H222	H	1.315038	0.109607	-0.197028
H223	H	1.565038	0.359607	0.052972
H224	H	1.815038	0.609607	0.302972
H225	H	1.140671	-0.000029	-0.351942
H226	H	1.390671	0.249971	-0.101942
H227	H	1.640671	0.499971	0.148058
H228	H	1.890671	0.749971	0.398058
H229	H	0.449460	-0.140385	0.040334
H230	H	0.699460	0.109615	0.290334
H231	H	0.949460	0.359615	0.540334
H232	H	1.199460	0.609615	0.790334
H233	H	0.535012	-0.140398	0.189665
H234	H	0.785012	0.109602	0.439665
H235	H	1.035012	0.359602	0.689665
H236	H	1.285012	0.609602	0.939665
H237	H	0.962246	-0.441962	-0.025052
H238	H	1.212246	-0.191962	0.224948
H239	H	1.462246	0.058038	0.474948
H240	H	1.712246	0.308038	0.724948
H241	H	0.919459	0.140377	-0.323069
H242	H	1.169459	0.390377	-0.073069
H243	H	1.419459	0.640377	0.176931
H244	H	1.669459	0.890377	0.426931
H245	H	0.882134	-0.442126	0.225102
H246	H	1.132134	-0.192126	0.475102
H247	H	1.382134	0.057874	0.725102
H248	H	1.632134	0.307874	0.975102
H249	H	0.852166	-0.558181	0.084961
H250	H	1.102166	-0.308181	0.334961
H251	H	1.352166	-0.058181	0.584961
H252	H	1.602166	0.191819	0.834961
H253	H	0.843692	0.000009	-0.417845
H254	H	1.093692	0.250009	-0.167845
H255	H	1.343692	0.500009	0.082155
H256	H	1.593692	0.750009	0.332155
H257	H	1.022171	-0.558213	0.255133
H258	H	1.272171	-0.308213	0.505133
H259	H	1.522171	-0.058213	0.755133
H260	H	1.772171	0.191787	1.005133
H261	H	1.132338	-0.442138	0.145209
H262	H	1.382338	-0.192138	0.395209
H263	H	1.632338	0.057862	0.645209
H264	H	1.882338	0.307862	0.895209
H265	H	1.102473	-0.557873	0.004956
H266	H	1.352473	-0.307873	0.254956
H267	H	1.602473	-0.057873	0.504956
H268	H	1.852473	0.192127	0.754956
H269	H	1.065079	0.140228	-0.447101
H270	H	1.315079	0.390228	-0.197101
H271	H	1.565079	0.640228	0.052899
H272	H	1.815079	0.890228	0.302899
