data_functionalizedCrystal
_audit_creation_method	'MofGen! by Chris Wilmer'
_symmetry_space_group_name_H-M	'P1'
_symmetry_Int_Tables_number	1
_symmetry_cell_setting	triclinic
loop_
_symmetry_equiv_pos_as_xyz
  x,y,z
_cell_length_a	12.827893
_cell_length_b	16.120444
_cell_length_c	16.120256
_cell_angle_alpha	95.616860
_cell_angle_beta	92.880277
_cell_angle_gamma	92.926466
loop_
_atom_site_label
_atom_site_type_symbol
_atom_site_fract_x
_atom_site_fract_y
_atom_site_fract_z
Zn1	Zn	1.543788	-0.356763	-0.489420
Zn2	Zn	1.543654	-0.489450	-0.356732
Zn3	Zn	1.378366	-0.349695	-0.349670
Zn4	Zn	1.359652	-0.496495	-0.496460
O5	O	1.456365	-0.423101	-0.423071
O6	O	1.690005	-0.374374	-0.471828
O7	O	1.529504	-0.465004	-0.238832
O8	O	1.408198	-0.233667	-0.362307
O9	O	1.689906	-0.471858	-0.374343
O10	O	1.529733	-0.238860	-0.464981
O11	O	1.408068	-0.362327	-0.233644
O12	O	1.229649	-0.369159	-0.369133
O13	O	1.376302	-0.483866	-0.612489
O14	O	1.215900	-0.477012	-0.476979
O15	O	1.511586	-0.381206	-0.607317
O16	O	1.511357	-0.607350	-0.381169
O17	O	1.376172	-0.612527	-0.483827
C18	C	1.184857	-0.423084	-0.423054
C19	C	1.068702	-0.423098	-0.423068
C20	C	1.010142	-0.476542	-0.476359
C21	C	0.890089	-0.476558	-0.476374
C22	C	1.441746	-0.640267	-0.434046
C23	C	1.435586	-0.733173	-0.438769
C24	C	1.488565	-0.942082	-0.398748
C25	C	1.424358	-0.903269	-0.447402
C26	C	1.430607	-0.808619	-0.442597
C27	C	1.482317	-1.036740	-0.403552
C28	C	1.728933	-0.423118	-0.423088
C29	C	1.845085	-0.423126	-0.423095
C30	C	1.441872	-0.434110	-0.641078
C31	C	1.435696	-0.438802	-0.733980
C32	C	1.471068	-0.205087	-0.412071
C33	C	1.477334	-0.112183	-0.407383
C34	C	1.488573	-0.398613	-0.942904
C35	C	1.424387	-0.447333	-0.904065
C36	C	1.430681	-0.442585	-0.809421
C37	C	1.482280	-0.403360	-1.037557
C38	C	1.470866	-0.412074	-0.205908
C39	C	1.477260	-0.407147	-0.112995
H40	H	1.029960	-0.377350	-0.377458
Br41	Br	1.324912	-0.966359	-0.522840
Br42	Br	0.928967	-0.346862	-0.347037
Br43	Br	0.806201	-0.552833	-0.552417
Br44	Br	1.588019	-0.323141	-0.879855
H45	H	1.548223	-0.904231	-0.353489
H46	H	1.364703	-0.492604	-0.941895
Br47	Br	1.074703	-0.552793	-0.552387
