data_functionalizedCrystal
_audit_creation_method	'MofGen! by Chris Wilmer'
_symmetry_space_group_name_H-M	'P1'
_symmetry_Int_Tables_number	1
_symmetry_cell_setting	triclinic
loop_
_symmetry_equiv_pos_as_xyz
  x,y,z
_cell_length_a	19.288859
_cell_length_b	16.109304
_cell_length_c	17.766277
_cell_angle_alpha	89.996447
_cell_angle_beta	89.989768
_cell_angle_gamma	83.298182
loop_
_atom_site_label
_atom_site_type_symbol
_atom_site_fract_x
_atom_site_fract_y
_atom_site_fract_z
O1	O	0.921604	0.103691	-0.062604
O2	O	0.719376	0.117688	-0.062602
O3	O	0.826045	-0.010360	-0.062604
O4	O	0.814936	0.231740	-0.062603
O5	O	0.826026	-0.010367	0.062585
O6	O	0.719358	0.117681	0.062586
O7	O	0.921585	0.103685	0.062584
Cu8	Cu	0.820470	0.110683	0.074016
Cu9	Cu	0.820492	0.110690	-0.074034
O10	O	0.814917	0.231733	0.062586
C11	C	0.693489	0.117235	-0.000008
C12	C	0.616382	0.115886	-0.000007
C13	C	0.052500	0.181891	-0.000008
C14	C	0.124949	0.183166	-0.000012
C15	C	0.169476	0.108033	-0.000011
C16	C	0.141548	0.031619	-0.000025
C17	C	0.069100	0.030346	-0.000028
C18	C	0.290606	0.051997	0.043851
C19	C	0.363052	0.053273	0.043859
C20	C	0.392931	0.111956	-0.000003
C21	C	0.350353	0.169377	-0.043864
C22	C	0.277905	0.168104	-0.043867
C23	C	0.248035	0.109405	-0.000007
C24	C	0.499409	0.189747	0.000002
C25	C	0.571861	0.191019	-0.000007
C26	C	0.588458	0.039471	-0.000012
C27	C	0.516008	0.038201	-0.000011
C28	C	0.471488	0.113342	-0.000001
C29	C	0.825585	-0.041337	-0.000011
C30	C	0.824235	-0.133627	-0.000016
C31	C	0.821126	-0.345951	-0.068254
C32	C	0.819851	-0.432666	-0.068253
C33	C	0.819834	-0.432670	0.068234
C34	C	0.821104	-0.345955	0.068233
C35	C	0.821753	-0.302598	-0.000013
C36	C	0.819208	-0.476029	-0.000011
C37	C	0.817826	-0.570050	-0.000010
C38	C	0.823135	-0.208571	-0.000015
C39	C	0.947472	0.104138	-0.000012
C40	C	1.024579	0.105487	-0.000018
C41	C	0.815377	0.262710	-0.000008
C42	C	0.816727	0.355000	-0.000008
N43	N	0.820459	0.110677	0.178146
N44	N	0.820508	0.110689	-0.178164
C45	C	0.867707	0.054005	0.217532
C46	C	0.867711	0.054001	0.296334
C47	C	0.820474	0.110683	0.335747
C48	C	0.773217	0.167360	0.296351
C49	C	0.773210	0.167356	0.217551
C50	C	0.811357	0.186437	0.460585
C51	C	0.811369	0.186441	0.539384
C52	C	0.820493	0.110693	0.578793
C53	C	0.829619	0.034938	0.539394
C54	C	0.829612	0.034934	0.460594
C55	C	0.820476	0.110693	0.421193
C56	C	0.867747	0.054012	0.703625
C57	C	0.867747	0.054007	0.782429
C58	C	0.773256	0.167373	0.782444
C59	C	0.773253	0.167371	0.703642
C60	C	0.820503	0.110691	0.664238
H61	H	0.594591	0.253239	-0.000005
O62	O	0.819120	-0.474796	-0.134522
C63	C	0.758273	-0.515326	-0.138597
H64	H	0.716630	-0.482453	-0.099871
H65	H	0.770897	-0.583227	-0.120263
C66	C	0.782152	-0.552655	-0.267691
C67	C	0.731003	-0.512276	-0.220132
H68	H	0.765332	-0.550778	-0.317986
H69	H	0.823147	-0.525353	-0.264946
H70	H	0.792668	-0.609236	-0.252404
H71	H	0.720494	-0.455694	-0.235415
H72	H	0.690005	-0.539569	-0.222883
O73	O	0.913674	-0.001088	0.334488
C74	C	0.955359	-0.051134	0.282811
H75	H	0.956135	-0.017053	0.226635
H76	H	0.932821	-0.112828	0.274442
C77	C	1.029337	-0.110361	0.382546
C78	C	1.030295	-0.068498	0.313552
H79	H	1.075561	-0.121076	0.401510
H80	H	1.001252	-0.076646	0.417363
H81	H	1.010553	-0.161767	0.375563
H82	H	1.049071	-0.017088	0.320538
H83	H	1.058385	-0.102204	0.278737
H84	H	0.147687	0.245385	0.000004
O85	O	0.819118	-0.474869	0.134477
C86	C	0.758257	-0.515373	0.138576
H87	H	0.738027	-0.525146	0.079328
H88	H	0.716645	-0.475206	0.172259
C89	C	0.800164	-0.588672	0.250358
C90	C	0.775319	-0.600681	0.177589
H91	H	0.810687	-0.641292	0.274426
H92	H	0.841166	-0.561381	0.247598
H93	H	0.765482	-0.555197	0.278418
H94	H	0.810003	-0.634147	0.149528
H95	H	0.734323	-0.627980	0.180345
H96	H	0.374679	0.217164	-0.079578
H97	H	0.734782	0.213522	0.671572
O98	O	0.821742	-0.303971	0.134593
C99	C	0.820885	-0.360829	0.194829
H100	H	0.841961	-0.426168	0.174828
H101	H	0.765056	-0.361120	0.215813
C102	C	0.841006	-0.254033	0.283867
C103	C	0.866898	-0.334283	0.259302
H104	H	0.869386	-0.237657	0.323639
H105	H	0.841581	-0.215725	0.243286
H106	H	0.794482	-0.254286	0.301349
H107	H	0.913417	-0.334026	0.241813
H108	H	0.866332	-0.372590	0.299883
H109	H	0.837041	-0.026749	0.428518
H110	H	0.821653	-0.310651	-0.123824
O111	O	0.913408	-0.001314	0.179288
C112	C	0.876048	-0.052486	0.133904
H113	H	0.821782	-0.019004	0.122001
H114	H	0.871123	-0.113742	0.164482
C115	C	0.981844	-0.111988	0.073722
C116	C	0.915195	-0.070862	0.059097
H117	H	1.005992	-0.123328	0.027579
H118	H	1.007015	-0.077516	0.104300
H119	H	0.977730	-0.163030	0.099206
H120	H	0.919310	-0.019817	0.033623
H121	H	0.890026	-0.105327	0.028513
H122	H	0.837048	-0.026744	0.571479
O123	O	0.913664	-0.001130	0.665459
C124	C	0.955375	-0.051145	0.717125
H125	H	0.926903	-0.051996	0.773304
H126	H	1.006965	-0.024309	0.725490
C127	C	1.004681	-0.139836	0.617372
C128	C	0.969708	-0.140887	0.686371
H129	H	1.013525	-0.195192	0.598401
H130	H	0.976581	-0.106138	0.582563
H131	H	1.047669	-0.117469	0.624353
H132	H	0.926718	-0.163243	0.679388
H133	H	0.997801	-0.174590	0.721178
H134	H	0.016255	0.243076	-0.000003
H135	H	0.463159	0.250931	0.000009
H136	H	0.906220	0.007854	0.814497
O137	O	0.727339	0.222321	0.820802
C138	C	0.684493	0.177926	0.866384
H139	H	0.712175	0.112783	0.878188
H140	H	0.633161	0.172433	0.836028
C141	C	0.635640	0.304860	0.926738
C142	C	0.669641	0.224853	0.941241
H143	H	0.626475	0.333807	0.972912
H144	H	0.664503	0.334771	0.896027
H145	H	0.592867	0.300271	0.901439
H146	H	0.712417	0.229443	0.966530
H147	H	0.640784	0.194944	0.971958
H148	H	0.243241	0.214856	-0.079581
O149	O	0.631802	-0.033438	0.000019
C150	C	0.701735	-0.015933	0.000000
H151	H	0.704495	0.049356	0.023707
H152	H	0.722696	-0.019154	-0.060060
C153	C	0.742694	-0.160845	0.019971
C154	C	0.746084	-0.080658	0.049094
H155	H	0.770052	-0.200772	0.050251
H156	H	0.695579	-0.172640	0.019981
H157	H	0.760160	-0.163517	-0.030078
H158	H	0.728610	-0.077984	0.099139
H159	H	0.793198	-0.068864	0.049094
O160	O	0.802524	0.260100	0.422424
C161	C	0.794465	0.326961	0.474093
H162	H	0.818887	0.305480	0.530262
H163	H	0.736545	0.348420	0.482483
C164	C	0.800917	0.426410	0.374337
C165	C	0.830918	0.400028	0.443323
H166	H	0.823399	0.471483	0.355356
H167	H	0.806343	0.381365	0.339526
H168	H	0.752651	0.444286	0.381338
H169	H	0.879180	0.382143	0.436319
H170	H	0.825500	0.445072	0.478132
H171	H	0.803942	0.248126	0.571457
O172	O	0.727303	0.222308	0.334717
C173	C	0.684462	0.177913	0.380304
H174	H	0.712145	0.112770	0.392106
H175	H	0.633127	0.172418	0.349953
C176	C	0.635613	0.304847	0.440661
C177	C	0.669616	0.224840	0.455162
H178	H	0.626452	0.333794	0.486835
H179	H	0.664474	0.334757	0.409946
H180	H	0.592838	0.300257	0.415367
H181	H	0.712394	0.229431	0.480446
H182	H	0.640762	0.194931	0.485882
O183	O	0.488998	-0.036092	0.000022
C184	C	0.543831	-0.102135	0.000003
H185	H	0.593038	-0.079016	0.023706
H186	H	0.554098	-0.125293	-0.060056
C187	C	0.462951	-0.202617	0.019983
C188	C	0.523386	-0.174224	0.049101
H189	H	0.450340	-0.247087	0.050266
H190	H	0.426008	-0.158123	0.019993
H191	H	0.471515	-0.221909	-0.030066
H192	H	0.514819	-0.154922	0.099146
H193	H	0.560327	-0.218716	0.049101
H194	H	0.734734	0.213506	0.185482
H195	H	0.046368	-0.031873	-0.000037
O196	O	0.404430	-0.002390	0.086551
C197	C	0.441652	0.041133	0.138840
H198	H	0.412665	0.106027	0.148676
H199	H	0.496000	0.047240	0.115829
C200	C	0.483655	-0.086937	0.201679
C201	C	0.448049	-0.007236	0.213763
H202	H	0.487604	-0.116775	0.247894
H203	H	0.458580	-0.116261	0.166449
H204	H	0.528941	-0.081837	0.182500
H205	H	0.402761	-0.012337	0.232932
H206	H	0.473117	0.022086	0.248998
O207	O	0.261696	-0.005045	0.086530
C208	C	0.314810	-0.055459	0.125232
H209	H	0.362736	-0.020620	0.130534
H210	H	0.329172	-0.116031	0.092708
C211	C	0.229824	-0.118556	0.197769
C212	C	0.288685	-0.075763	0.204286
H213	H	0.213709	-0.131084	0.246532
H214	H	0.194040	-0.084593	0.171693
H215	H	0.241800	-0.169028	0.170663
H216	H	0.276706	-0.025287	0.231383
H217	H	0.324467	-0.109717	0.230369
H218	H	0.177806	-0.029554	-0.000026
