data_functionalizedCrystal
_audit_creation_method	'MofGen! by Chris Wilmer'
_symmetry_space_group_name_H-M	'P1'
_symmetry_Int_Tables_number	1
_symmetry_cell_setting	triclinic
loop_
_symmetry_equiv_pos_as_xyz
  x,y,z
_cell_length_a	18.215407
_cell_length_b	16.959454
_cell_length_c	18.215399
_cell_angle_alpha	89.976304
_cell_angle_beta	89.980167
_cell_angle_gamma	90.020523
loop_
_atom_site_label
_atom_site_type_symbol
_atom_site_fract_x
_atom_site_fract_y
_atom_site_fract_z
Zn1	Zn	1.125097	-0.314680	-0.416138
Zn2	Zn	1.125015	-0.446866	-0.293080
Zn3	Zn	1.002029	-0.314706	-0.293085
Zn4	Zn	1.002005	-0.446822	-0.416105
O5	O	1.063537	-0.380768	-0.354602
O6	O	1.228070	-0.332222	-0.399825
O7	O	1.108677	-0.429364	-0.190097
O8	O	1.018398	-0.204092	-0.309424
O9	O	1.228010	-0.429339	-0.309416
O10	O	1.108815	-0.204073	-0.399830
O11	O	1.018319	-0.332267	-0.190100
O12	O	0.899042	-0.332224	-0.309392
O13	O	1.018358	-0.429264	-0.519094
O14	O	0.899024	-0.429289	-0.399775
O15	O	1.108792	-0.332180	-0.519118
O16	O	1.108654	-0.557471	-0.309385
O17	O	1.018279	-0.557438	-0.399770
C18	C	0.872330	-0.380755	-0.354581
C19	C	0.790531	-0.380768	-0.354589
C20	C	1.063475	-0.586135	-0.354590
C21	C	1.063516	-0.673991	-0.354609
C22	C	0.602348	-0.431389	-0.401593
C23	C	0.525489	-0.431392	-0.401602
C24	C	0.525478	-0.330162	-0.307628
C25	C	0.602335	-0.330156	-0.307623
C26	C	0.640768	-0.380774	-0.354604
C27	C	0.487052	-0.380782	-0.354618
C28	C	0.403718	-0.380785	-0.354628
C29	C	0.724107	-0.380771	-0.354596
C30	C	1.016547	-1.045480	-0.401661
C31	C	1.110731	-1.045454	-0.307618
C32	C	1.110706	-0.962908	-0.307611
C33	C	1.063599	-0.921644	-0.354629
C34	C	1.016518	-0.962926	-0.401654
C35	C	1.157781	-0.921619	-0.260582
C36	C	1.157756	-0.839068	-0.260573
C37	C	1.110653	-0.797803	-0.307595
C38	C	1.063570	-0.839091	-0.354622
C39	C	1.016464	-0.797827	-0.401640
C40	C	0.969384	-0.839113	-0.448672
C41	C	0.969414	-0.921661	-0.448676
C42	C	1.110623	-0.715255	-0.307591
C43	C	1.016435	-0.715273	-0.401634
C44	C	1.255489	-0.380783	-0.354624
C45	C	1.337288	-0.380789	-0.354633
C46	C	1.063581	-0.380714	-0.546555
C47	C	1.063601	-0.380691	-0.628354
C48	C	1.063619	-0.174600	-0.354631
C49	C	1.063653	-0.086744	-0.354643
C50	C	1.110707	-0.330092	-0.816562
C51	C	1.110716	-0.330069	-0.893420
C52	C	1.016546	-0.431167	-0.893384
C53	C	1.016534	-0.431186	-0.816527
C54	C	1.063619	-0.380649	-0.778118
C55	C	1.063639	-0.380608	-0.931834
C56	C	1.063649	-0.380583	-1.015168
C57	C	1.063609	-0.380672	-0.694779
C58	C	1.063534	-0.380766	-0.163396
C59	C	1.063658	-0.380566	-0.081597
H60	H	0.494211	-0.472606	-0.439866
H61	H	1.149058	-0.288899	-0.924718
N62	N	0.965621	-0.670777	-0.452347
H63	H	0.931520	-0.636574	-0.422404
H64	H	0.995545	-0.636528	-0.486467
N65	N	0.918581	-0.794601	-0.499385
H66	H	0.888762	-0.833277	-0.529182
H67	H	0.884530	-0.760397	-0.469391
H68	H	0.633638	-0.472604	-0.439850
N69	N	1.161487	-0.275587	-0.775133
H70	H	1.191317	-0.243555	-0.811152
H71	H	1.131539	-0.239014	-0.743244
N72	N	0.643786	-0.275567	-0.256940
H73	H	0.675695	-0.238978	-0.286908
H74	H	0.607737	-0.243556	-0.227182
N75	N	0.484025	-0.275590	-0.256938
H76	H	0.429505	-0.283281	-0.264062
H77	H	0.497446	-0.287841	-0.204365
N78	N	1.208542	-0.794542	-0.209860
H79	H	1.178649	-0.760330	-0.175723
H80	H	1.238377	-0.833260	-0.180127
N81	N	0.965729	-0.485711	-0.775067
H82	H	0.977132	-0.542188	-0.788431
H83	H	0.972879	-0.477987	-0.720562
H84	H	0.931084	-0.955284	-0.486966
H85	H	0.978214	-0.472314	-0.924667
H86	H	0.978218	-1.079098	-0.439955
N87	N	1.161525	-1.089954	-0.256896
H88	H	1.154395	-1.148513	-0.264032
H89	H	1.214076	-1.075486	-0.268392
H90	H	1.196127	-0.955222	-0.222297
H91	H	1.148950	-0.681644	-0.269295
