data_functionalizedCrystal
_audit_creation_method	'MofGen! by Chris Wilmer'
_symmetry_space_group_name_H-M	'P1'
_symmetry_Int_Tables_number	1
_symmetry_cell_setting	triclinic
loop_
_symmetry_equiv_pos_as_xyz
  x,y,z
_cell_length_a	18.050589
_cell_length_b	18.215407
_cell_length_c	18.215399
_cell_angle_alpha	89.982632
_cell_angle_beta	89.976397
_cell_angle_gamma	90.025664
loop_
_atom_site_label
_atom_site_type_symbol
_atom_site_fract_x
_atom_site_fract_y
_atom_site_fract_z
Zn1	Zn	-0.295718	1.125055	-0.416090
Zn2	Zn	-0.419913	1.124956	-0.293033
Zn3	Zn	-0.295736	1.001987	-0.293042
Zn4	Zn	-0.419865	1.001946	-0.416063
O5	O	-0.357808	1.063486	-0.354557
O6	O	-0.312205	1.228026	-0.399773
O7	O	-0.403468	1.108620	-0.190050
O8	O	-0.191809	1.018371	-0.309380
O9	O	-0.403451	1.227953	-0.309364
O10	O	-0.191796	1.108788	-0.399782
O11	O	-0.312235	1.018275	-0.190057
O12	O	-0.312189	0.898998	-0.309354
O13	O	-0.403369	1.018301	-0.519051
O14	O	-0.403386	0.898967	-0.399737
O15	O	-0.312159	1.108748	-0.519070
O16	O	-0.523831	1.108580	-0.309338
O17	O	-0.523796	1.018205	-0.399727
C18	C	-0.357785	0.872280	-0.354544
C19	C	-0.357793	0.790481	-0.354556
C20	C	-0.310379	0.602324	-0.401707
C21	C	-0.310386	0.525465	-0.401709
C22	C	-0.405257	0.525400	-0.307420
C23	C	-0.405246	0.602258	-0.307415
C24	C	-0.357809	0.640717	-0.354562
C25	C	-0.357826	0.487001	-0.354570
C26	C	-0.357833	0.403668	-0.354572
C27	C	-0.357800	0.724056	-0.354559
C28	C	-0.550760	1.063397	-0.354545
C29	C	-0.633306	1.063427	-0.354564
C30	C	-0.832764	1.014329	-0.403701
C31	C	-0.882204	0.996389	-0.336547
C32	C	-0.784436	1.063499	-0.354574
C33	C	-0.882078	1.081475	-0.421735
C34	C	-0.930421	1.063567	-0.354589
C35	C	-0.832788	1.045524	-0.287385
C36	C	-0.832658	1.130641	-0.372617
C37	C	-0.882076	1.112726	-0.305418
C38	C	-0.700338	1.063458	-0.354566
C39	C	-1.014518	1.063609	-0.354589
C40	C	-0.164102	1.063595	-0.354585
C41	C	-0.081556	1.063642	-0.354597
C42	C	-0.357757	1.063531	-0.546510
C43	C	-0.357735	1.063550	-0.628309
C44	C	-0.357831	1.255439	-0.354570
C45	C	-0.357841	1.337238	-0.354576
C46	C	-0.310197	1.110663	-0.816514
C47	C	-0.310175	1.110672	-0.893373
C48	C	-0.405158	1.016489	-0.893341
C49	C	-0.405175	1.016477	-0.816484
C50	C	-0.357696	1.063568	-0.778072
C51	C	-0.357657	1.063589	-0.931789
C52	C	-0.357634	1.063598	-1.015122
C53	C	-0.357718	1.063558	-0.694733
C54	C	-0.357805	1.063484	-0.163351
C55	C	-0.357618	1.063607	-0.081552
H56	H	-0.271763	0.494208	-0.440098
O57	O	-0.451254	0.639672	-0.261641
C58	C	-0.493311	0.758050	-0.219881
C59	C	-0.441163	0.715770	-0.271743
H60	H	-0.485182	0.819582	-0.228042
H61	H	-0.480197	0.742977	-0.160546
H62	H	-0.553205	0.742883	-0.232699
H63	H	-0.381252	0.730914	-0.258992
H64	H	-0.454341	0.730847	-0.331064
O65	O	-0.907872	1.099715	-0.489463
C66	C	-0.910769	1.190501	-0.585663
C67	C	-0.881525	1.169952	-0.508948
H68	H	-0.889467	1.247282	-0.601447
H69	H	-0.973922	1.190940	-0.584911
H70	H	-0.890527	1.148463	-0.627451
H71	H	-0.901713	1.211970	-0.467118
H72	H	-0.818375	1.169491	-0.509761
H73	H	-0.443853	0.978122	-0.785184
H74	H	-0.811111	0.972687	-0.445187
O75	O	-0.264003	1.156424	-0.779314
C76	C	-0.169819	1.249867	-0.787462
C77	C	-0.222087	1.198070	-0.829679
H78	H	-0.135927	1.283562	-0.828163
H79	H	-0.130943	1.216129	-0.751501
H80	H	-0.203936	1.288295	-0.751458
H81	H	-0.188029	1.159632	-0.865722
H82	H	-0.260965	1.231854	-0.865592
H83	H	-0.443880	0.494077	-0.269035
O84	O	-0.806948	1.027316	-0.219665
C85	C	-0.699673	1.006898	-0.143673
C86	C	-0.728838	1.027514	-0.220399
H87	H	-0.636519	1.007066	-0.144237
H88	H	-0.720470	0.949851	-0.128185
H89	H	-0.720448	1.048570	-0.101775
H90	H	-0.708076	0.985891	-0.262348
H91	H	-0.708048	1.084579	-0.235825
H92	H	-0.903983	0.939642	-0.321300
H93	H	-0.903591	1.154337	-0.263831
H94	H	-0.271750	0.633635	-0.440095
O95	O	-0.806763	1.198380	-0.390758
C96	C	-0.803505	1.327053	-0.360248
C97	C	-0.832896	1.250383	-0.339620
H98	H	-0.824609	1.369115	-0.318906
H99	H	-0.823740	1.342330	-0.417528
H100	H	-0.740355	1.326462	-0.359558
H101	H	-0.896044	1.250915	-0.340267
H102	H	-0.812604	1.235136	-0.282353
O103	O	-0.263954	1.156314	-0.930746
C104	C	-0.163689	1.166280	-1.017563
C105	C	-0.215981	1.114506	-0.975273
H106	H	-0.124900	1.132500	-1.053584
H107	H	-0.129705	1.199917	-0.976935
H108	H	-0.197790	1.204764	-1.053516
H109	H	-0.181937	1.075978	-0.939318
H110	H	-0.249967	1.080921	-1.015940
H111	H	-0.443815	0.978151	-0.924625
