data_functionalizedCrystal
_audit_creation_method	'MofGen! by Chris Wilmer'
_symmetry_space_group_name_H-M	'P1'
_symmetry_Int_Tables_number	1
_symmetry_cell_setting	triclinic
loop_
_symmetry_equiv_pos_as_xyz
  x,y,z
_cell_length_a	15.298206
_cell_length_b	15.297510
_cell_length_c	11.169409
_cell_angle_alpha	99.641876
_cell_angle_beta	80.333051
_cell_angle_gamma	91.575515
loop_
_atom_site_label
_atom_site_type_symbol
_atom_site_fract_x
_atom_site_fract_y
_atom_site_fract_z
Zn1	Zn	1.278580	0.580136	0.517191
Zn2	Zn	1.253104	0.726624	0.356084
Zn3	Zn	1.132105	0.554865	0.344486
Zn4	Zn	1.106738	0.701243	0.584639
O5	O	1.192632	0.640717	0.450600
O6	O	1.397756	0.620766	0.472447
O7	O	1.237008	0.703886	0.186617
O8	O	1.172814	0.435652	0.334315
O9	O	1.379039	0.728390	0.354082
O10	O	1.280428	0.454219	0.461201
O11	O	1.148111	0.577695	0.178096
O12	O	1.006185	0.553085	0.399717
O13	O	1.129578	0.685132	0.743621
O14	O	0.987548	0.660628	0.576156
O15	O	1.255830	0.596156	0.694067
O16	O	1.212410	0.845823	0.419483
O17	O	1.104875	0.827175	0.587402
C18	C	0.965089	0.601360	0.493998
C19	C	0.867742	0.584544	0.512598
C20	C	0.831744	0.520697	0.583111
C21	C	0.740283	0.504889	0.600587
C22	C	0.684810	0.552932	0.547559
C23	C	0.720806	0.616785	0.477052
C24	C	0.812277	0.632590	0.459566
C25	C	0.665342	0.664825	0.424015
C26	C	0.701339	0.728678	0.353507
C27	C	0.792801	0.744480	0.336025
C28	C	0.848275	0.696437	0.389053
C29	C	0.573871	0.649020	0.441500
C30	C	0.554404	0.760913	0.317956
C31	C	0.645865	0.776721	0.300480
C32	C	1.153149	0.868283	0.512042
C33	C	1.136339	0.965650	0.538351
C34	C	1.192716	0.640632	0.763604
C35	C	1.192752	0.640595	0.896987
C36	C	1.421063	0.680229	0.407034
C37	C	1.518406	0.697066	0.388469
C38	C	1.313097	1.278855	0.262979
C39	C	1.328891	1.187374	0.238254
C40	C	1.280755	1.131939	0.313276
C41	C	1.216821	1.167994	0.413028
C42	C	1.201021	1.259483	0.437750
C43	C	1.168678	1.112566	0.488047
C44	C	1.104744	1.148621	0.587798
C45	C	1.088947	1.240102	0.612516
C46	C	1.137084	1.295538	0.537494
C47	C	1.184479	1.021077	0.463325
C48	C	1.072402	1.001705	0.638096
C49	C	1.056608	1.093186	0.662821
C50	C	1.232284	1.412266	0.388955
C51	C	1.249160	1.314910	0.362723
C52	C	1.192609	0.640748	0.138788
C53	C	1.192786	0.640567	0.005306
H54	H	0.922749	0.709316	0.374846
H55	H	1.004552	1.122555	0.744039
H56	H	0.822107	0.796467	0.278601
C57	C	0.685469	0.846949	0.222916
H58	H	0.747888	0.849473	0.220094
H59	H	0.660281	0.903227	0.259096
H60	H	0.672684	0.831460	0.141691
H61	H	0.509237	0.800035	0.274777
H62	H	0.544572	0.597029	0.498906
C63	C	1.298135	1.031313	0.286088
H64	H	1.343111	1.017780	0.215944
H65	H	1.245192	1.000898	0.270482
H66	H	1.316846	1.013181	0.355068
C67	C	1.119708	1.396168	0.564685
H68	H	1.157532	1.424015	0.505714
H69	H	1.131257	1.419421	0.644845
H70	H	1.059612	1.407150	0.560244
H71	H	1.380945	1.158021	0.157036
C72	C	0.892760	0.467855	0.641433
H73	H	0.858226	0.427561	0.685926
H74	H	0.922648	0.507574	0.695877
H75	H	0.935044	0.435812	0.578466
H76	H	1.033203	0.956569	0.699183
C77	C	1.366041	1.339833	0.180471
H78	H	1.347477	1.399481	0.209488
H79	H	1.355836	1.322690	0.098219
H80	H	1.427481	1.334958	0.182821
C81	C	1.018618	1.279761	0.722234
H82	H	0.992217	1.233647	0.763382
H83	H	0.974302	1.308913	0.693219
H84	H	1.045956	1.321179	0.777807
H85	H	0.610339	0.540055	0.561788
H86	H	0.710981	0.452901	0.657996
H87	H	1.236534	0.991729	0.382106
