data_functionalizedCrystal
_audit_creation_method	'MofGen! by Chris Wilmer'
_symmetry_space_group_name_H-M	'P1'
_symmetry_Int_Tables_number	1
_symmetry_cell_setting	triclinic
loop_
_symmetry_equiv_pos_as_xyz
  x,y,z
_cell_length_a	10.723024
_cell_length_b	14.519709
_cell_length_c	9.798715
_cell_angle_alpha	89.995905
_cell_angle_beta	89.996609
_cell_angle_gamma	84.074007
loop_
_atom_site_label
_atom_site_type_symbol
_atom_site_fract_x
_atom_site_fract_y
_atom_site_fract_z
O1	O	1.655978	0.129347	-0.113485
O2	O	2.155978	0.629347	0.386515
O3	O	1.292710	0.141728	-0.113490
O4	O	1.792710	0.641728	0.386510
O5	O	1.483975	0.001349	-0.113475
O6	O	1.983975	0.501349	0.386525
O7	O	1.464712	0.269727	-0.113500
O8	O	1.964712	0.769727	0.386500
O9	O	1.483961	0.001348	0.113507
O10	O	1.983961	0.501348	0.613507
O11	O	1.292695	0.141728	0.113492
O12	O	1.792695	0.641728	0.613492
O13	O	1.655963	0.129347	0.113497
O14	O	2.155963	0.629347	0.613497
Zn15	Zn	1.474327	0.135537	0.149533
Zn16	Zn	1.974327	0.635537	0.649533
Zn17	Zn	1.474346	0.135538	-0.149526
Zn18	Zn	1.974346	0.635538	0.350474
O19	O	1.464698	0.269727	0.113482
O20	O	1.964698	0.769727	0.613482
C21	C	1.246211	0.140827	0.000000
C22	C	1.746211	0.640827	0.500000
C23	C	1.107682	0.138132	-0.000001
C24	C	1.607682	0.638132	0.499999
C25	C	1.031965	0.216681	-0.000009
C26	C	1.531965	0.716681	0.499991
C27	C	0.888788	0.213896	-0.000011
C28	C	1.388788	0.713896	0.499989
C29	C	1.483070	-0.033016	0.000016
C30	C	1.983070	0.466984	0.500016
C31	C	1.480380	-0.135411	0.000017
C32	C	1.980380	0.364589	0.500017
C33	C	1.470476	-0.510357	-0.000019
C34	C	1.970476	-0.010357	0.499981
C35	C	1.473227	-0.406035	-0.000009
C36	C	1.973227	0.093965	0.499991
C37	C	1.475428	-0.322887	0.000000
C38	C	1.975428	0.177113	0.500000
C39	C	1.478179	-0.218559	0.000008
C40	C	1.978179	0.281441	0.500008
C41	C	1.702462	0.130248	0.000003
C42	C	2.202462	0.630248	0.500003
C43	C	1.840991	0.132944	-0.000004
C44	C	2.340991	0.632944	0.499996
C45	C	1.465603	0.304091	-0.000012
C46	C	1.965603	0.804091	0.499988
C47	C	1.468293	0.406486	-0.000022
C48	C	1.968293	0.906486	0.499978
N49	N	1.474323	0.135537	0.353632
N50	N	1.974323	0.635537	0.853632
N51	N	1.474359	0.135532	-0.353626
N52	N	1.974359	0.635532	0.146374
C53	C	1.554633	0.076335	0.421415
C54	C	2.054633	0.576335	0.921415
C55	C	1.554653	0.076332	0.578578
C56	C	2.054653	0.576332	1.078578
H57	H	0.823726	0.281141	-0.000024
H58	H	1.323726	0.781141	0.499976
N59	N	1.086492	0.308494	-0.000030
N60	N	1.586492	0.808494	0.499970
H61	H	1.016292	0.360532	-0.000037
H62	H	1.516292	0.860532	0.499963
H63	H	1.139866	0.313151	0.084116
H64	H	1.639866	0.813151	0.584116
N65	N	1.645680	0.009202	0.344154
N66	N	2.145680	0.509202	0.844154
H67	H	1.734360	0.020213	0.368915
H68	H	2.234360	0.520213	0.868915
H69	H	1.630831	-0.056290	0.368981
H70	H	2.130831	0.443710	0.868981
N71	N	1.645739	0.009194	0.655779
N72	N	2.145739	0.509194	1.155779
H73	H	1.734404	0.020219	0.630961
H74	H	2.234404	0.520219	1.130961
H75	H	1.632733	0.018747	0.757082
H76	H	2.132733	0.518747	1.257082
H77	H	1.066508	0.068822	-0.000030
H78	H	1.566508	0.568822	0.499970
H79	H	0.906045	0.065696	-0.000006
H80	H	1.406045	0.565696	0.499994
N81	N	1.383271	0.202679	0.569193
N82	N	1.883271	0.702679	1.069193
H83	H	1.431253	0.243690	0.509894
H84	H	1.931253	0.743690	1.009894
H85	H	1.327861	0.167086	0.510001
H86	H	1.827861	0.667086	1.010001
N87	N	1.383262	0.202670	0.430876
N88	N	1.883262	0.702670	0.930876
H89	H	1.397997	0.268192	0.406075
H90	H	1.897997	0.768192	0.906075
H91	H	1.294629	0.191570	0.406066
H92	H	1.794629	0.691570	0.906066
