data_functionalizedCrystal
_audit_creation_method	'MofGen! by Chris Wilmer'
_symmetry_space_group_name_H-M	'P1'
_symmetry_Int_Tables_number	1
_symmetry_cell_setting	triclinic
loop_
_symmetry_equiv_pos_as_xyz
  x,y,z
_cell_length_a	16.959455
_cell_length_b	16.959447
_cell_length_c	16.959454
_cell_angle_alpha	89.973182
_cell_angle_beta	90.019023
_cell_angle_gamma	89.980656
loop_
_atom_site_label
_atom_site_type_symbol
_atom_site_fract_x
_atom_site_fract_y
_atom_site_fract_z
Zn1	Zn	1.208404	-0.446979	-0.314687
Zn2	Zn	1.708404	0.053021	0.185313
Zn3	Zn	1.208321	-0.314809	-0.446880
Zn4	Zn	1.708321	0.185191	0.053120
Zn5	Zn	1.076227	-0.314811	-0.314717
Zn6	Zn	1.576227	0.185189	0.185283
Zn7	Zn	1.076197	-0.446942	-0.446825
Zn8	Zn	1.576197	0.053058	0.053175
O9	O	1.142287	-0.380885	-0.380778
O10	O	1.642287	0.119115	0.119222
O11	O	1.319004	-0.429461	-0.332234
O12	O	1.819004	0.070539	0.167766
O13	O	1.190775	-0.204198	-0.429384
O14	O	1.690775	0.295802	0.070616
O15	O	1.093808	-0.332360	-0.204102
O16	O	1.593808	0.167640	0.295898
O17	O	1.318943	-0.332356	-0.429355
O18	O	1.818943	0.167644	0.070645
O19	O	1.190918	-0.429463	-0.204081
O20	O	1.690918	0.070537	0.295919
O21	O	1.093726	-0.204200	-0.332284
O22	O	1.593726	0.295800	0.167716
O23	O	0.965612	-0.332324	-0.332231
O24	O	1.465612	0.167676	0.167769
O25	O	1.093758	-0.557558	-0.429262
O26	O	1.593758	-0.057558	0.070738
O27	O	0.965590	-0.429400	-0.429290
O28	O	1.465590	0.070600	0.070710
O29	O	1.190889	-0.557585	-0.332181
O30	O	1.690889	-0.057585	0.167819
O31	O	1.190747	-0.332320	-0.557484
O32	O	1.690747	0.167680	-0.057484
O33	O	1.093677	-0.429398	-0.557444
O34	O	1.593677	0.070602	-0.057444
C35	C	0.936921	-0.380858	-0.380759
C36	C	1.436921	0.119142	0.119241
C37	C	0.849064	-0.380866	-0.380770
C38	C	1.349064	0.119134	0.119230
C39	C	0.807778	-0.330404	-0.330163
C40	C	1.307778	0.169596	0.169837
C41	C	0.807797	-0.431339	-0.431382
C42	C	1.307797	0.068661	0.068618
C43	C	0.725251	-0.431351	-0.431391
C44	C	1.225251	0.068649	0.068609
C45	C	0.683965	-0.380889	-0.380785
C46	C	1.183965	0.119111	0.119215
C47	C	0.725225	-0.330415	-0.330169
C48	C	1.225225	0.169585	0.169831
C49	C	0.683985	-0.481829	-0.482000
C50	C	1.183985	0.018171	0.018000
C51	C	0.601434	-0.481844	-0.482011
C52	C	1.101434	0.018156	0.017989
C53	C	0.560147	-0.431377	-0.431407
C54	C	1.060147	0.068623	0.068593
C55	C	0.601411	-0.380901	-0.380790
C56	C	1.101411	0.119099	0.119210
C57	C	0.560125	-0.330439	-0.330184
C58	C	1.060125	0.169561	0.169816
C59	C	0.601388	-0.279958	-0.279570
C60	C	1.101388	0.220042	0.220430
C61	C	0.683937	-0.279949	-0.279566
C62	C	1.183937	0.220051	0.220434
C63	C	0.477598	-0.431386	-0.431412
C64	C	0.977598	0.068614	0.068588
C65	C	0.477572	-0.330450	-0.330190
C66	C	0.977572	0.169550	0.169810
C67	C	1.142330	-0.587053	-0.380712
C68	C	1.642330	-0.087053	0.119288
C69	C	1.142348	-0.674910	-0.380684
C70	C	1.642348	-0.174910	0.119316
C71	C	1.091888	-1.046393	-0.330045
C72	C	1.591888	-0.546393	0.169955
C73	C	1.192946	-1.046379	-0.431156
C74	C	1.692946	-0.546379	0.068844
C75	C	1.192932	-0.963833	-0.431174
C76	C	1.692932	-0.463833	0.068826
C77	C	1.142395	-0.922563	-0.380628
C78	C	1.642395	-0.422563	0.119372
C79	C	1.091871	-0.963839	-0.330064
C80	C	1.591871	-0.463839	0.169936
C81	C	1.243449	-0.922550	-0.481744
C82	C	1.743449	-0.422550	0.018256
C83	C	1.243437	-0.839999	-0.481765
C84	C	1.743437	-0.339999	0.018235
C85	C	1.192903	-0.798728	-0.431214
C86	C	1.692903	-0.298728	0.068786
C87	C	1.142378	-0.840010	-0.380647
C88	C	1.642378	-0.340010	0.119353
C89	C	1.091841	-0.798740	-0.330101
C90	C	1.591841	-0.298740	0.169899
C91	C	1.041319	-0.840020	-0.279529
C92	C	1.541319	-0.340020	0.220471
C93	C	1.041337	-0.922568	-0.279513
C94	C	1.541337	-0.422568	0.220487
C95	C	1.192885	-0.716180	-0.431230
C96	C	1.692885	-0.216180	0.068770
C97	C	1.091824	-0.716186	-0.330119
C98	C	1.591824	-0.216186	0.169881
C99	C	1.348455	-0.380912	-0.380797
C100	C	1.848455	0.119088	0.119203
C101	C	1.436312	-0.380924	-0.380805
C102	C	1.936312	0.119076	0.119195
C103	C	1.142221	-0.380872	-0.586144
C104	C	1.642221	0.119128	-0.086144
C105	C	1.142265	-0.380892	-0.674000
C106	C	1.642265	0.119108	-0.174000
C107	C	1.142291	-0.175519	-0.380786
C108	C	1.642291	0.324481	0.119214
C109	C	1.142426	-0.087663	-0.380591
C110	C	1.642426	0.412337	0.119409
C111	C	1.091816	-0.431428	-1.045485
C112	C	1.591816	0.068572	-0.545485
C113	C	1.192979	-0.330423	-1.045467
C114	C	1.692979	0.169577	-0.545467
C115	C	1.192951	-0.330415	-0.962921
C116	C	1.692951	0.169585	-0.462921
C117	C	1.142354	-0.380914	-0.921653
C118	C	1.642354	0.119086	-0.421653
C119	C	1.091785	-0.431421	-0.962931
C120	C	1.591785	0.068579	-0.462931
C121	C	1.243514	-0.279905	-0.921637
C122	C	1.743514	0.220095	-0.421637
C123	C	1.243487	-0.279895	-0.839086
C124	C	1.743487	0.220105	-0.339086
C125	C	1.192894	-0.330398	-0.797817
C126	C	1.692894	0.169602	-0.297817
C127	C	1.142323	-0.380907	-0.839100
C128	C	1.642323	0.119093	-0.339100
C129	C	1.091727	-0.431406	-0.797832
C130	C	1.591727	0.068594	-0.297832
C131	C	1.041160	-0.481919	-0.839114
C132	C	1.541160	0.018081	-0.339114
C133	C	1.041192	-0.481924	-0.921662
C134	C	1.541192	0.018076	-0.421662
C135	C	1.192862	-0.330393	-0.715268
C136	C	1.692862	0.169607	-0.215268
C137	C	1.091696	-0.431399	-0.715279
C138	C	1.591696	0.068601	-0.215279
C139	C	1.142375	-0.380916	-0.174609
C140	C	1.642375	0.119084	0.325391
C141	C	1.142413	-0.380929	-0.086753
C142	C	1.642413	0.119071	0.413247
H143	H	0.443962	-0.289356	-0.288980
H144	H	0.943962	0.210644	0.211020
H145	H	1.000204	-0.956186	-0.238341
H146	H	1.500204	-0.456186	0.261659
H147	H	1.050497	-0.472524	-0.681683
H148	H	1.550497	0.027476	-0.181683
C149	C	0.555968	-0.224455	-0.223905
C150	C	1.055968	0.275545	0.276095
H151	H	0.500897	-0.231694	-0.231162
H152	H	1.000897	0.268306	0.268838
H153	H	0.569516	-0.236103	-0.170808
H154	H	1.069516	0.263897	0.329192
H155	H	0.569460	-0.171321	-0.235416
H156	H	1.069460	0.328679	0.264584
H157	H	1.234085	-1.079985	-0.472314
H158	H	1.734085	-0.579985	0.027686
C159	C	0.985507	-0.537465	-0.793714
C160	C	1.485507	-0.037465	-0.293714
H161	H	0.992737	-0.530224	-0.738640
H162	H	1.492737	-0.030224	-0.238640
H163	H	0.932409	-0.525855	-0.807286
H164	H	1.432409	-0.025855	-0.307286
H165	H	0.997056	-0.590590	-0.807198
H166	H	1.497056	-0.090590	-0.307198
C167	C	0.729327	-0.224434	-0.223891
C168	C	1.229327	0.275566	0.276109
H169	H	0.784403	-0.231662	-0.231129
H170	H	1.284403	0.268338	0.268871
H171	H	0.715776	-0.171306	-0.235393
H172	H	1.215776	0.328694	0.264607
H173	H	0.715816	-0.236098	-0.170795
H174	H	1.215816	0.263902	0.329205
H175	H	1.000022	-0.523049	-0.955281
H176	H	1.500022	-0.023049	-0.455281
H177	H	1.284701	-0.238785	-0.955243
H178	H	1.784701	0.261215	-0.455243
C179	C	0.985732	-0.794618	-0.223931
C180	C	1.485732	-0.294618	0.276069
H181	H	0.992963	-0.739544	-0.231187
H182	H	1.492963	-0.239544	0.268813
H183	H	0.932620	-0.808136	-0.235485
H184	H	1.432620	-0.308136	0.264515
H185	H	0.997333	-0.808154	-0.170817
H186	H	1.497333	-0.308154	0.329183
H187	H	1.234029	-0.289262	-0.681660
H188	H	1.734029	0.210738	-0.181660
C189	C	1.036194	-0.486986	-1.090890
C190	C	1.536194	0.013014	-0.590890
H191	H	1.043453	-0.479758	-1.145964
H192	H	1.543453	0.020242	-0.645964
H193	H	1.047722	-0.540104	-1.077320
H194	H	1.547722	-0.040104	-0.577320
H195	H	0.983085	-0.475359	-1.077405
H196	H	1.483085	0.024641	-0.577405
H197	H	1.284574	-0.806396	-0.522944
H198	H	1.784574	-0.306396	-0.022944
C199	C	0.853162	-0.274882	-0.274490
C200	C	1.353162	0.225118	0.225510
H201	H	0.908239	-0.282102	-0.281729
H202	H	1.408239	0.217898	0.218271
H203	H	0.839602	-0.221757	-0.285994
H204	H	1.339602	0.278243	0.214006
H205	H	0.839653	-0.286546	-0.221393
H206	H	1.339653	0.213454	0.278607
C207	C	0.853209	-0.486848	-0.487039
C208	C	1.353209	0.013152	0.012961
H209	H	0.908282	-0.479611	-0.479787
H210	H	1.408282	0.020389	0.020213
H211	H	0.839706	-0.539976	-0.475534
H212	H	1.339706	-0.039976	0.024466
H213	H	0.839667	-0.475192	-0.540140
H214	H	1.339667	0.024808	-0.040140
C215	C	1.248634	-0.274883	-1.090859
C216	C	1.748634	0.225117	-0.590859
H217	H	1.241414	-0.282125	-1.145934
H218	H	1.741414	0.217875	-0.645934
H219	H	1.237103	-0.221760	-1.077369
H220	H	1.737103	0.278240	-0.577369
H221	H	1.301732	-0.286513	-1.077287
H222	H	1.801732	0.213487	-0.577287
C223	C	0.729400	-0.537346	-0.537647
C224	C	1.229400	-0.037346	-0.037647
H225	H	0.784472	-0.530106	-0.530396
H226	H	1.284472	-0.030106	-0.030396
H227	H	0.715897	-0.590472	-0.526130
H228	H	1.215897	-0.090472	-0.026130
H229	H	0.715858	-0.525703	-0.590751
H230	H	1.215858	-0.025703	-0.090751
H231	H	1.284585	-0.956158	-0.522904
H232	H	1.784585	-0.456158	-0.022904
H233	H	1.284662	-0.238765	-0.805479
H234	H	1.784662	0.261235	-0.305479
H235	H	0.567845	-0.522947	-0.523224
H236	H	1.067845	-0.022947	-0.023224
H237	H	1.050673	-0.682590	-0.288954
H238	H	1.550673	-0.182590	0.211046
C239	C	0.432212	-0.486951	-0.487035
C240	C	0.932212	0.013049	0.012965
H241	H	0.468624	-0.517015	-0.517161
H242	H	0.968624	-0.017015	-0.017161
H243	H	0.400054	-0.521427	-0.456799
H244	H	0.900054	-0.021427	0.043201
H245	H	0.399967	-0.456701	-0.521464
H246	H	0.899967	0.043299	-0.021464
C247	C	1.036316	-1.091795	-0.274423
C248	C	1.536316	-0.591795	0.225577
H249	H	1.043559	-1.146870	-0.281651
H250	H	1.543559	-0.646870	0.218349
H251	H	1.047902	-1.078278	-0.221319
H252	H	1.547902	-0.578278	0.278681
H253	H	0.983198	-1.078257	-0.285997
H254	H	1.483198	-0.578257	0.214003
C255	C	1.248448	-0.670775	-0.486855
C256	C	1.748448	-0.170775	0.013145
H257	H	1.278548	-0.707177	-0.516955
H258	H	1.778548	-0.207177	-0.016955
H259	H	1.218187	-0.638559	-0.521294
H260	H	1.718187	-0.138559	-0.021294
H261	H	1.282902	-0.638587	-0.456628
H262	H	1.782902	-0.138587	0.043372
