data_functionalizedCrystal
_audit_creation_method	'MofGen! by Chris Wilmer'
_symmetry_space_group_name_H-M	'P1'
_symmetry_Int_Tables_number	1
_symmetry_cell_setting	triclinic
loop_
_symmetry_equiv_pos_as_xyz
  x,y,z
_cell_length_a	15.995292
_cell_length_b	15.995350
_cell_length_c	13.930277
_cell_angle_alpha	89.993131
_cell_angle_beta	90.007768
_cell_angle_gamma	83.480495
loop_
_atom_site_label
_atom_site_type_symbol
_atom_site_fract_x
_atom_site_fract_y
_atom_site_fract_z
O1	O	1.111020	0.107683	0.079852
O2	O	1.611020	0.607683	0.579852
O3	O	0.867238	0.121061	0.079848
O4	O	1.367238	0.621061	0.579848
O5	O	0.995793	-0.007517	0.079849
O6	O	1.495793	0.492483	0.579849
O7	O	0.982465	0.236261	0.079851
O8	O	1.482465	0.736261	0.579851
O9	O	0.995774	-0.007497	-0.079813
O10	O	1.495774	0.492503	0.420187
O11	O	0.867219	0.121081	-0.079814
O12	O	1.367219	0.621081	0.420186
O13	O	1.111001	0.107703	-0.079810
O14	O	1.611001	0.607703	0.420190
Zn15	Zn	0.989107	0.114395	-0.105162
Zn16	Zn	1.489107	0.614395	0.394838
Zn17	Zn	0.989132	0.114369	0.105200
Zn18	Zn	1.489132	0.614369	0.605200
O19	O	0.982446	0.236281	-0.079811
O20	O	1.482446	0.736281	0.420189
C21	C	0.836033	0.120527	0.000016
C22	C	1.336033	0.620527	0.500016
C23	C	0.743080	0.118894	0.000015
C24	C	1.243080	0.618894	0.500015
C25	C	0.405341	0.112893	0.000026
C26	C	0.905341	0.612893	0.500026
C27	C	0.428654	0.205697	0.000383
C28	C	0.928654	0.705697	0.500383
C29	C	0.525329	0.207461	0.000019
C30	C	1.025329	0.707461	0.500019
C31	C	0.572897	0.115871	0.000021
C32	C	1.072897	0.615871	0.500021
C33	C	0.543785	0.069484	-0.091151
C34	C	1.043785	0.569484	0.408849
C35	C	0.446994	0.068367	-0.091223
C36	C	0.946994	0.568367	0.408777
C37	C	0.447160	0.066450	0.090342
C38	C	0.947160	0.566450	0.590342
C39	C	0.543653	0.069889	0.091543
C40	C	1.043653	0.569889	0.591543
C41	C	0.667593	0.117549	0.000015
C42	C	1.167593	0.617549	0.500015
C43	C	0.310646	0.111212	0.000025
C44	C	0.810646	0.611212	0.500025
C45	C	0.995232	-0.038702	0.000020
C46	C	1.495232	0.461298	0.500020
C47	C	0.993580	-0.131652	0.000025
C48	C	1.493580	0.368348	0.500025
C49	C	0.987648	-0.469398	0.000022
C50	C	1.487648	0.030602	0.500022
C51	C	0.896094	-0.421945	0.000378
C52	C	1.396094	0.078055	0.500378
C53	C	0.897746	-0.325255	0.000019
C54	C	1.397746	0.174745	0.500019
C55	C	0.990591	-0.301838	0.000024
C56	C	1.490591	0.198162	0.500024
C57	C	1.035738	-0.342914	-0.091148
C58	C	1.535738	0.157086	0.408852
C59	C	1.033438	-0.439549	-0.091224
C60	C	1.533438	0.060451	0.408776
C61	C	1.035351	-0.439930	0.090341
C62	C	1.535351	0.060070	0.590341
C63	C	1.035329	-0.342985	0.091546
C64	C	1.535329	0.157015	0.591546
C65	C	0.992259	-0.207141	0.000022
C66	C	1.492259	0.292859	0.500022
C67	C	0.985983	-0.564095	0.000018
C68	C	1.485983	-0.064095	0.500018
C69	C	1.142206	0.108237	0.000024
C70	C	1.642206	0.608237	0.500024
C71	C	1.235159	0.109870	0.000032
C72	C	1.735159	0.609870	0.500032
C73	C	0.983006	0.267466	0.000020
C74	C	1.483006	0.767466	0.500020
C75	C	0.984658	0.360416	0.000021
C76	C	1.484658	0.860416	0.500021
N77	N	0.989096	0.114412	-0.248728
N78	N	1.489096	0.614412	0.251272
C79	C	1.039924	0.165156	-0.700986
C80	C	1.539924	0.665156	-0.200986
C81	C	0.938366	0.063548	-0.700978
C82	C	1.438366	0.563548	-0.200978
C83	C	0.938353	0.063561	-0.600482
C84	C	1.438353	0.563561	-0.100482
C85	C	0.989127	0.114372	-0.550234
C86	C	1.489127	0.614372	-0.050234
C87	C	1.039915	0.165169	-0.600481
C88	C	1.539915	0.665169	-0.100481
C89	C	0.887573	0.012759	-0.550228
C90	C	1.387573	0.512759	-0.050228
C91	C	0.887559	0.012770	-0.449726
C92	C	1.387559	0.512770	0.050274
C93	C	0.938330	0.063586	-0.399475
C94	C	1.438330	0.563586	0.100525
C95	C	0.989118	0.114385	-0.449729
C96	C	1.489118	0.614385	0.050271
C97	C	1.039893	0.165196	-0.399480
C98	C	1.539893	0.665196	0.100520
C99	C	1.090677	0.216001	-0.449731
C100	C	1.590677	0.716001	0.050269
C101	C	1.090685	0.215985	-0.550230
C102	C	1.590685	0.715985	-0.050230
C103	C	0.938322	0.063602	-0.298976
C104	C	1.438322	0.563602	0.201024
C105	C	1.039883	0.165209	-0.298975
C106	C	1.539883	0.665209	0.201025
N107	N	0.989149	0.114345	0.248766
N108	N	1.489149	0.614345	0.748766
H109	H	0.400665	0.241460	0.065766
H110	H	0.900665	0.741460	0.565766
H111	H	0.897033	0.022175	-0.741896
H112	H	1.397033	0.522175	-0.241896
H113	H	0.433167	-0.001861	0.090960
H114	H	0.933167	0.498139	0.590960
H115	H	1.081227	0.206590	-0.258070
H116	H	1.581227	0.706590	0.241930
H117	H	0.432443	0.000323	-0.095364
H118	H	0.932443	0.500323	0.404636
H119	H	1.004365	-0.314517	-0.158999
H120	H	1.504365	0.185483	0.341001
F121	F	1.144719	0.270070	-0.396242
F122	F	1.644719	0.770070	0.103758
F123	F	1.144727	0.270051	-0.603718
F124	F	1.644727	0.770051	-0.103718
F125	F	1.123581	-0.481463	0.091150
F126	F	1.623581	0.018537	0.591150
H127	H	0.846206	-0.028598	-0.408819
H128	H	1.346206	0.471402	0.091181
H129	H	1.081269	0.206522	-0.741905
H130	H	1.581269	0.706522	-0.241905
F131	F	0.411929	0.110381	-0.180304
F132	F	0.911929	0.610381	0.319696
H133	H	1.103948	-0.328802	-0.094535
H134	H	1.603948	0.171198	0.405465
F135	F	0.833539	-0.041313	-0.603710
F136	F	1.333539	0.458687	-0.103710
H137	H	0.575653	0.002087	-0.094540
H138	H	1.075653	0.502087	0.405460
H139	H	0.543725	0.244025	-0.065448
H140	H	1.043725	0.744025	0.434552
F141	F	0.848271	-0.446165	0.085837
F142	F	1.348271	0.053835	0.585837
F143	F	0.569990	0.111608	-0.179840
F144	F	1.069990	0.611608	0.320160
H145	H	0.896976	0.022235	-0.258066
H146	H	1.396976	0.522235	0.241934
H147	H	0.418841	0.095449	0.159445
H148	H	0.918841	0.595449	0.659445
F149	F	0.550210	0.254943	0.085443
F150	F	1.050210	0.754943	0.585443
F151	F	0.567964	0.114012	0.179706
F152	F	1.067964	0.614012	0.679706
F153	F	0.586743	-0.017496	0.098741
F154	F	1.086743	0.482504	0.598741
F155	F	0.390714	0.252207	-0.084595
F156	F	0.890714	0.752207	0.415405
H157	H	0.862257	-0.296834	0.065374
H158	H	1.362257	0.203166	0.565374
H159	H	0.859655	-0.441523	-0.064640
H160	H	1.359655	0.058477	0.435360
H161	H	0.862002	-0.297375	-0.065450
H162	H	1.362002	0.202625	0.434550
F163	F	0.996230	-0.466770	0.180665
F164	F	1.496230	0.033230	0.680665
H165	H	1.000501	-0.457835	-0.159381
H166	H	1.500501	0.042165	0.340619
H167	H	1.100655	-0.471811	-0.095357
H168	H	1.600655	0.028189	0.404643
H169	H	1.002321	-0.315737	0.158993
H170	H	1.502321	0.184263	0.658993
H171	H	1.103036	-0.327638	0.097055
H172	H	1.603036	0.172362	0.597055
