data_functionalizedCrystal
_audit_creation_method	'MofGen! by Chris Wilmer'
_symmetry_space_group_name_H-M	'P1'
_symmetry_Int_Tables_number	1
_symmetry_cell_setting	triclinic
loop_
_symmetry_equiv_pos_as_xyz
  x,y,z
_cell_length_a	13.262522
_cell_length_b	11.804365
_cell_length_c	12.837942
_cell_angle_alpha	103.105486
_cell_angle_beta	90.569537
_cell_angle_gamma	117.340743
loop_
_atom_site_label
_atom_site_type_symbol
_atom_site_fract_x
_atom_site_fract_y
_atom_site_fract_z
O1	O	1.520865	0.591569	-0.015130
O2	O	1.196519	0.486529	-0.052436
O3	O	1.351498	0.536712	0.116657
O4	O	1.365885	0.541386	-0.184223
O5	O	1.310693	0.325444	0.072183
O6	O	1.155714	0.275261	-0.096909
O7	O	1.480060	0.380300	-0.059604
Cu8	Cu	1.314161	0.308490	-0.082317
Cu9	Cu	1.362417	0.558340	-0.029722
O10	O	1.325080	0.330118	-0.228696
C11	C	1.134313	0.367357	-0.076672
C12	C	1.009752	0.327018	-0.082617
N13	N	1.280228	0.132762	-0.119309
C14	C	0.928996	0.192897	-0.109655
C15	C	0.811963	0.154986	-0.115233
C16	C	0.775673	0.251192	-0.093781
C17	C	0.856429	0.385315	-0.066749
C18	C	0.973474	0.423230	-0.061163
C19	C	0.820152	0.481525	-0.045288
C20	C	0.900908	0.615649	-0.018256
C21	C	1.017941	0.653557	-0.012672
C22	C	1.054230	0.557351	-0.034124
C23	C	0.703106	0.443610	-0.050875
C24	C	0.747585	0.673944	-0.002382
C25	C	0.864618	0.711855	0.003196
C26	C	1.477841	-0.177199	0.096128
C27	C	1.503509	-0.044226	0.124116
C28	C	1.447691	0.000028	0.063263
C29	C	1.366201	-0.088705	-0.025585
C30	C	1.340536	-0.221689	-0.053581
C31	C	1.310386	-0.044462	-0.086446
C32	C	1.228896	-0.133195	-0.175293
C33	C	1.203235	-0.266166	-0.203285
C34	C	1.259053	-0.310420	-0.142431
C35	C	1.336050	0.088522	-0.058450
C36	C	1.198746	0.044032	-0.208159
C37	C	1.173077	-0.088942	-0.236147
C38	C	1.542266	0.499475	-0.035367
C39	C	1.666829	0.539823	-0.029421
C40	C	1.326237	0.429505	0.132729
C41	C	1.311745	0.424814	0.246877
N42	N	1.396358	0.734070	0.007278
C43	C	1.350342	0.437328	-0.244768
C44	C	1.364836	0.442027	-0.358914
C45	C	1.485974	0.481263	0.499016
C46	C	1.472363	0.476857	0.606270
C47	C	1.270914	0.411605	0.568641
C48	C	1.284525	0.416011	0.461387
C49	C	1.392058	0.450839	0.426579
C50	C	1.405667	0.455236	0.319322
C51	C	1.204221	0.389994	0.281697
C52	C	1.190610	0.385588	0.388950
H53	H	0.637365	0.334406	-0.072893
O54	O	0.708464	0.777726	0.020752
H55	H	0.613512	0.728830	0.012313
O56	O	1.115386	-0.361838	-0.299151
H57	H	1.031568	-0.365091	-0.286247
H58	H	1.402400	0.160757	0.013889
H59	H	0.680378	0.220316	-0.098326
H60	H	1.468594	0.108301	0.086055
O61	O	1.591385	0.051474	0.219944
H62	H	1.625878	-0.001638	0.257565
O63	O	1.601951	0.518826	0.461471
H64	H	1.596344	0.436281	0.395389
H65	H	1.127746	0.365211	0.222704
H66	H	1.183368	0.383263	0.597004
H67	H	1.523287	-0.213239	0.145662
H68	H	1.149526	0.588212	-0.029587
O69	O	1.231373	-0.453844	-0.172631
H70	H	1.283882	-0.469701	-0.115390
H71	H	0.746219	0.045783	-0.137228
H72	H	0.958556	0.114581	-0.127110
H73	H	1.106726	-0.161204	-0.308489
O74	O	1.105048	0.798216	0.016490
H75	H	1.060155	0.858747	0.030460
H76	H	0.930386	0.821061	0.025205
H77	H	1.153295	0.080061	-0.257714
O78	O	1.573657	0.509666	0.684398
H79	H	1.555641	0.423112	0.716044
H80	H	1.493224	0.483590	0.290983
H81	H	1.103060	0.357237	0.417308
