data_functionalizedCrystal
_audit_creation_method	'MofGen! by Chris Wilmer'
_symmetry_space_group_name_H-M	'P1'
_symmetry_Int_Tables_number	1
_symmetry_cell_setting	triclinic
loop_
_symmetry_equiv_pos_as_xyz
  x,y,z
_cell_length_a	13.262390
_cell_length_b	18.266242
_cell_length_c	13.339070
_cell_angle_alpha	90.001096
_cell_angle_beta	99.429367
_cell_angle_gamma	105.926233
loop_
_atom_site_label
_atom_site_type_symbol
_atom_site_fract_x
_atom_site_fract_y
_atom_site_fract_z
O1	O	1.432472	0.346115	0.136429
O2	O	1.131195	0.286125	0.151262
O3	O	1.247257	0.309233	-0.003564
O4	O	1.316411	0.323007	0.291255
O5	O	1.247228	0.187465	-0.003568
O6	O	1.131166	0.164357	0.151257
O7	O	1.432443	0.224347	0.136424
Zn8	Zn	1.281800	0.175019	0.143840
Zn9	Zn	1.281838	0.335453	0.143846
O10	O	1.316382	0.201239	0.291250
C11	C	1.091833	0.217406	0.150428
C12	C	0.974585	0.194060	0.147939
N13	N	1.281782	0.065528	0.143835
C14	C	0.644150	0.393764	0.140917
C15	C	0.754310	0.415700	0.143251
C16	C	0.809384	0.360292	0.144424
C17	C	0.754288	0.282944	0.143261
C18	C	0.644117	0.261006	0.140919
C19	C	0.809350	0.227534	0.144425
C20	C	0.754254	0.150186	0.143262
C21	C	0.644094	0.128252	0.140921
C22	C	0.589020	0.183660	0.139749
C23	C	0.919522	0.249472	0.146767
C24	C	0.919488	0.116714	0.146769
C25	C	0.809329	0.094778	0.144435
C26	C	1.363412	0.043481	0.205576
C27	C	1.363429	-0.033161	0.205573
C28	C	1.281799	-0.087755	0.143842
C29	C	1.200161	-0.065700	0.082089
C30	C	1.200152	0.010942	0.082086
N31	N	1.188945	-0.226597	0.140688
N32	N	1.188958	-0.299402	0.140697
C33	C	1.281821	-0.318673	0.143846
N34	N	1.374678	-0.262387	0.147005
N35	N	1.374665	-0.189575	0.147002
C36	C	1.281799	-0.170862	0.143838
C37	C	1.363476	-0.423823	0.205586
C38	C	1.363493	-0.500466	0.205576
C39	C	1.200216	-0.533005	0.082098
C40	C	1.200208	-0.456362	0.082102
C41	C	1.281837	-0.401776	0.143852
C42	C	1.471806	0.293067	0.137258
C43	C	1.589053	0.316418	0.139747
C44	C	1.235561	0.246024	-0.041304
C45	C	1.200741	0.239094	-0.153753
N46	N	1.281863	0.444945	0.143843
C47	C	1.471480	0.293002	-0.517406
C48	C	1.504198	0.299510	-0.411755
C49	C	1.428336	0.284407	-0.347249
C50	C	1.319752	0.262794	-0.388405
C51	C	1.287030	0.256280	-0.494065
C52	C	1.243887	0.247684	-0.323909
C53	C	1.135302	0.226072	-0.365064
C54	C	1.102586	0.219559	-0.470715
C55	C	1.178448	0.234662	-0.535221
C56	C	1.276608	0.254199	-0.218248
C57	C	1.092159	0.217476	-0.194908
C58	C	1.059441	0.210968	-0.300559
C59	C	1.328078	0.264450	0.328991
C60	C	1.362897	0.271385	0.441439
H61	H	0.964371	0.312449	0.147716
H62	H	1.133676	0.028890	0.031808
Br63	Br	1.474293	-0.530387	0.289366
Br64	Br	1.089402	-0.426440	-0.001674
H65	H	1.030386	0.205174	-0.142387
H66	H	1.533234	0.305291	-0.569934
Br67	Br	1.089381	-0.139789	-0.001697
Br68	Br	1.089442	-0.607087	-0.001698
Br69	Br	1.474273	-0.349735	0.289364
H70	H	1.365018	0.271796	-0.184751
Br71	Br	0.734544	-0.010191	0.142859
H72	H	0.499319	0.165804	0.137852
Br73	Br	1.472741	0.293241	-0.203864
Br74	Br	0.829074	0.520667	0.144822
Br75	Br	0.958889	0.390063	0.147594
Br76	Br	1.651555	0.328856	-0.355908
Br77	Br	0.569394	0.468950	0.139264
H78	H	1.151814	0.229367	-0.621251
Br79	Br	0.955222	0.190214	-0.526567
H80	H	0.599235	0.065270	0.139956
Br81	Br	0.912080	0.181642	-0.356425
H82	H	1.429885	0.087922	0.255853
Br83	Br	1.474224	-0.063093	0.289366
Br84	Br	0.994220	0.041512	0.148347
