data_functionalizedCrystal
_audit_creation_method	'MofGen! by Chris Wilmer'
_symmetry_space_group_name_H-M	'P1'
_symmetry_Int_Tables_number	1
_symmetry_cell_setting	triclinic
loop_
_symmetry_equiv_pos_as_xyz
  x,y,z
_cell_length_a	16.109301
_cell_length_b	9.730217
_cell_length_c	16.109301
_cell_angle_alpha	89.993472
_cell_angle_beta	96.538519
_cell_angle_gamma	90.001005
loop_
_atom_site_label
_atom_site_type_symbol
_atom_site_fract_x
_atom_site_fract_y
_atom_site_fract_z
O1	O	1.103131	0.114207	-0.106868
O2	O	0.861069	0.114230	-0.120167
O3	O	0.988750	0.114204	0.007514
O4	O	0.975450	0.114233	-0.234548
O5	O	0.988741	-0.114376	0.007519
O6	O	0.861060	-0.114350	-0.120162
O7	O	1.103122	-0.114373	-0.106863
Zn8	Zn	0.982089	-0.150653	-0.113512
Zn9	Zn	0.982101	0.150511	-0.113518
O10	O	0.975441	-0.114347	-0.234543
C11	C	0.830090	-0.000057	-0.119626
C12	C	0.737794	-0.000049	-0.118011
C13	C	0.515522	-0.000057	-0.190018
C14	C	0.428801	-0.000066	-0.188494
C15	C	0.448676	-0.000078	-0.037006
C16	C	0.535394	-0.000079	-0.038530
C17	C	0.568815	-0.000061	-0.115039
C18	C	0.395376	-0.000069	-0.111990
C19	C	0.301350	-0.000079	-0.110337
C20	C	0.662847	-0.000054	-0.116693
N21	N	0.982087	-0.356190	-0.113506
C22	C	0.881283	-0.356249	-0.012614
C23	C	0.830889	-0.428219	0.037834
C24	C	0.830902	-0.572098	0.037834
C25	C	0.881311	-0.644012	-0.012621
C26	C	0.931704	-0.572042	-0.063069
C27	C	0.931688	-0.428159	-0.063062
C28	C	1.032503	-0.571983	-0.163965
C29	C	1.032497	-0.428104	-0.163962
C30	C	1.082913	-0.643897	-0.214420
C31	C	1.133312	-0.571928	-0.264865
C32	C	1.133298	-0.428039	-0.264862
C33	C	1.082890	-0.356134	-0.214410
C34	C	1.134101	-0.000082	-0.107404
C35	C	1.226397	-0.000081	-0.109019
C36	C	0.988206	-0.000087	0.038491
C37	C	0.986591	-0.000088	0.130786
N38	N	0.982110	0.356047	-0.113517
C39	C	0.975984	-0.000053	-0.265521
C40	C	0.977600	-0.000042	-0.357816
C41	C	1.058599	-0.000073	0.353059
C42	C	1.057075	-0.000062	0.439779
C43	C	0.905586	-0.000053	0.419905
C44	C	0.907111	-0.000055	0.333186
C45	C	0.983620	-0.000072	0.299766
C46	C	0.980571	-0.000059	0.473205
C47	C	0.978918	-0.000046	0.567231
C48	C	0.985273	-0.000082	0.205734
H49	H	0.578788	-0.000087	0.022530
H50	H	0.542730	-0.000053	-0.252317
C51	C	0.370182	-0.000067	-0.270977
N52	N	0.326030	-0.000072	-0.333108
C53	C	0.881270	-0.197977	-0.012604
N54	N	0.881258	-0.078765	-0.012596
C55	C	0.775566	-0.349103	0.093456
N56	N	0.733941	-0.289517	0.135395
H57	H	0.421454	-0.000101	0.025285
H58	H	0.789863	-0.630696	0.078910
H59	H	0.881309	-0.761166	-0.012624
H60	H	1.082915	-0.761052	-0.214420
C61	C	1.188755	-0.651041	-0.320360
N62	N	1.230518	-0.710635	-0.362158
C63	C	1.188736	-0.348884	-0.320360
N64	N	1.230495	-0.289270	-0.362161
H65	H	1.082876	-0.238980	-0.214400
H66	H	1.120897	-0.000084	0.325851
H67	H	1.118130	-0.000060	0.483168
H68	H	0.843295	-0.000042	0.447127
H69	H	0.846050	-0.000050	0.289792
