data_functionalizedCrystal
_audit_creation_method	'MofGen! by Chris Wilmer'
_symmetry_space_group_name_H-M	'P1'
_symmetry_Int_Tables_number	1
_symmetry_cell_setting	triclinic
loop_
_symmetry_equiv_pos_as_xyz
  x,y,z
_cell_length_a	19.121063
_cell_length_b	19.077241
_cell_length_c	19.076919
_cell_angle_alpha	90.113904
_cell_angle_beta	94.606347
_cell_angle_gamma	85.144908
loop_
_atom_site_label
_atom_site_type_symbol
_atom_site_fract_x
_atom_site_fract_y
_atom_site_fract_z
Zn1	Zn	-0.255845	-1.046918	-0.451026
Zn2	Zn	0.077488	-0.713585	-0.117692
Zn3	Zn	0.410821	-0.380251	0.215641
Zn4	Zn	-0.368787	-1.046538	-0.338137
Zn5	Zn	-0.035454	-0.713204	-0.004804
Zn6	Zn	0.297879	-0.379871	0.328530
Zn7	Zn	-0.255474	-0.934150	-0.328788
Zn8	Zn	0.077859	-0.600817	0.004545
Zn9	Zn	0.411193	-0.267483	0.337879
Zn10	Zn	-0.378188	-0.923939	-0.451257
Zn11	Zn	-0.044854	-0.590606	-0.117923
Zn12	Zn	0.288479	-0.257272	0.215410
O13	O	-0.314574	-0.987886	-0.392302
O14	O	0.018760	-0.654553	-0.058969
O15	O	0.352093	-0.321219	0.274365
O16	O	-0.267049	-1.145369	-0.439867
O17	O	0.066285	-0.812036	-0.106533
O18	O	0.399618	-0.478702	0.226800
O19	O	-0.349667	-1.035743	-0.238399
O20	O	-0.016333	-0.702410	0.094934
O21	O	0.317000	-0.369077	0.428268
O22	O	-0.156900	-0.953541	-0.340994
O23	O	0.176433	-0.620208	-0.007661
O24	O	0.509766	-0.286875	0.325673
O25	O	-0.350027	-1.145090	-0.356928
O26	O	-0.016693	-0.811756	-0.023594
O27	O	0.316640	-0.478423	0.309739
O28	O	-0.157173	-1.036392	-0.430801
O29	O	0.176160	-0.703058	-0.097468
O30	O	0.509493	-0.369725	0.235865
O31	O	-0.266416	-0.953173	-0.231530
O32	O	0.066918	-0.619839	0.101803
O33	O	0.400251	-0.286506	0.435136
O34	O	-0.275531	-0.834294	-0.341218
O35	O	0.057803	-0.500961	-0.007885
O36	O	0.391136	-0.167627	0.325449
O37	O	-0.366048	-0.936138	-0.549724
O38	O	-0.032715	-0.602805	-0.216391
O39	O	0.300619	-0.269472	0.116943
O40	O	-0.365688	-0.826792	-0.431195
O41	O	-0.032355	-0.493459	-0.097862
O42	O	0.300979	-0.160125	0.235471
O43	O	-0.276164	-1.026490	-0.549554
O44	O	0.057170	-0.693157	-0.216221
O45	O	0.390503	-0.359824	0.117112
O46	O	-0.468657	-1.025842	-0.357152
O47	O	-0.135324	-0.692509	-0.023818
O48	O	0.198010	-0.359175	0.309515
O49	O	-0.475563	-0.935770	-0.440260
O50	O	-0.142230	-0.602436	-0.106927
O51	O	0.191103	-0.269103	0.226406
C52	C	-0.321590	-0.805003	-0.385218
C53	C	0.011744	-0.471669	-0.051884
C54	C	0.345077	-0.138336	0.281449
C55	C	-0.324609	-0.726763	-0.382204
C56	C	0.008725	-0.393429	-0.048871
C57	C	0.342058	-0.060096	0.284462
C58	C	-0.282899	-0.690146	-0.424042
C59	C	0.050434	-0.356812	-0.090709
C60	C	0.383767	-0.023479	0.242624
C61	C	-0.285733	-0.616631	-0.421205
C62	C	0.047601	-0.283298	-0.087871
C63	C	0.380934	0.050035	0.245462
C64	C	-0.330279	-0.579735	-0.376533
C65	C	0.003054	-0.246402	-0.043199
C66	C	0.336387	0.086931	0.290134
C67	C	-0.371990	-0.616358	-0.334690
C68	C	-0.038657	-0.283024	-0.001357
C69	C	0.294676	0.050309	0.331977
C70	C	-0.369153	-0.689871	-0.337524
C71	C	-0.035820	-0.356538	-0.004191
C72	C	0.297514	-0.023204	0.329142
C73	C	-0.343387	-0.359859	-0.363414
C74	C	-0.010053	-0.026526	-0.030081
C75	C	0.323280	0.306807	0.303252
C76	C	-0.346222	-0.286341	-0.360585
C77	C	-0.012889	0.046992	-0.027251
C78	C	0.320444	0.380326	0.306082
C79	C	-0.259963	-0.286620	-0.447099
C80	C	0.073370	0.046714	-0.113765
C81	C	0.406703	0.380047	0.219568
C82	C	-0.257133	-0.360134	-0.449932
C83	C	0.076200	-0.026801	-0.116599
C84	C	0.409534	0.306533	0.216735
C85	C	-0.298841	-0.396750	-0.408087
C86	C	0.034492	-0.063417	-0.074754
C87	C	0.367826	0.269916	0.258580
N88	N	-0.333178	-0.504592	-0.373633
N89	N	0.000155	-0.171258	-0.040299
N90	N	0.333489	0.162075	0.293034
N91	N	-0.295938	-0.471893	-0.410983
N92	N	0.037395	-0.138560	-0.077650
N93	N	0.370728	0.194774	0.255683
C94	C	-0.497682	-0.979675	-0.399762
C95	C	-0.164349	-0.646342	-0.066428
C96	C	0.168985	-0.313008	0.266905
C97	C	-0.576015	-0.976226	-0.402979
C98	C	-0.242682	-0.642892	-0.069646
C99	C	0.090652	-0.309559	0.263688
C100	C	-0.609197	-1.021534	-0.361259
C101	C	-0.275864	-0.688201	-0.027926
C102	C	0.057470	-0.354868	0.305408
C103	C	-0.682800	-1.018294	-0.364289
C104	C	-0.349466	-0.684961	-0.030956
C105	C	-0.016133	-0.351628	0.302377
C106	C	-0.723218	-0.969741	-0.409036
C107	C	-0.389885	-0.636408	-0.075703
C108	C	-0.056552	-0.303075	0.257630
C109	C	-0.690031	-0.924431	-0.450761
C110	C	-0.356698	-0.591097	-0.117428
C111	C	-0.023365	-0.257764	0.215906
C112	C	-0.616430	-0.927675	-0.447734
C113	C	-0.283097	-0.594341	-0.114401
C114	C	0.050236	-0.261008	0.218933
C115	C	-0.945627	-0.957602	-0.420342
C116	C	-0.612294	-0.624268	-0.087009
C117	C	-0.278961	-0.290935	0.246324
C118	C	-1.019233	-0.954360	-0.423365
C119	C	-0.685900	-0.621026	-0.090031
C120	C	-0.352567	-0.287693	0.243302
C121	C	-1.011996	-1.048225	-0.336893
C122	C	-0.678663	-0.714891	-0.003560
C123	C	-0.345330	-0.381558	0.329773
C124	C	-0.938394	-1.051462	-0.333867
C125	C	-0.605061	-0.718128	-0.000534
C126	C	-0.271728	-0.384795	0.332799
C127	C	-0.905214	-1.006153	-0.375595
C128	C	-0.571880	-0.672820	-0.042261
C129	C	-0.238547	-0.339487	0.291072
C130	C	-0.798452	-0.966427	-0.412133
C131	C	-0.465119	-0.633093	-0.078800
C132	C	-0.131785	-0.299760	0.254533
C133	C	-0.829981	-1.009472	-0.372501
C134	C	-0.496648	-0.676139	-0.039168
C135	C	-0.163315	-0.342805	0.294166
C136	C	-0.130750	-0.996148	-0.384829
C137	C	0.202583	-0.662815	-0.051496
C138	C	0.535917	-0.329481	0.281838
C139	C	-0.052416	-0.999669	-0.381645
C140	C	0.280918	-0.666335	-0.048311
C141	C	0.614251	-0.333002	0.285022
C142	C	-0.322196	-0.980218	-0.575893
C143	C	0.011137	-0.646884	-0.242559
C144	C	0.344471	-0.313551	0.090774
C145	C	-0.325444	-0.976950	-0.654128
C146	C	0.007889	-0.643617	-0.320795
C147	C	0.341223	-0.310283	0.012539
C148	C	-0.307526	-0.171484	-0.399409
C149	C	0.025807	0.161849	-0.066075
C150	C	0.359140	0.495182	0.267258
C151	C	-0.304513	-0.249724	-0.402422
C152	C	0.028820	0.083610	-0.069089
C153	C	0.362154	0.416943	0.264244
C154	C	-0.280174	-1.022454	-0.690796
C155	C	0.053159	-0.689120	-0.357463
C156	C	0.386492	-0.355787	-0.024129
C157	C	-0.283224	-1.019375	-0.764306
C158	C	0.050109	-0.686041	-0.430973
C159	C	0.383443	-0.352708	-0.097639
C160	C	-0.331547	-0.970795	-0.801147
C161	C	0.001786	-0.637462	-0.467814
C162	C	0.335119	-0.304128	-0.134481
C163	C	-0.376819	-0.925286	-0.764474
C164	C	-0.043486	-0.591953	-0.431141
C165	C	0.289848	-0.258620	-0.097807
C166	C	-0.373766	-0.928362	-0.690965
C167	C	-0.040432	-0.595029	-0.357632
C168	C	0.292901	-0.261696	-0.024298
C169	C	-0.345695	-0.956548	-1.021005
C170	C	-0.012361	-0.623215	-0.687671
C171	C	0.320972	-0.289881	-0.354338
C172	C	-0.348746	-0.953477	-1.094519
C173	C	-0.015413	-0.620143	-0.761186
C174	C	0.317920	-0.286810	-0.427852
C175	C	-0.255150	-1.047565	-1.094346
C176	C	0.078183	-0.714231	-0.761013
C177	C	0.411517	-0.380898	-0.427679
C178	C	-0.252103	-1.050639	-1.020836
C179	C	0.081230	-0.717306	-0.687502
C180	C	0.414563	-0.383973	-0.354169
C181	C	-0.297373	-1.005128	-0.984169
C182	C	0.035961	-0.671795	-0.650836
C183	C	0.369294	-0.338462	-0.317502
N184	N	-0.334667	-0.967648	-0.876286
N185	N	-0.001334	-0.634315	-0.542953
N186	N	0.331999	-0.300981	-0.209620
N187	N	-0.294249	-1.008272	-0.909031
N188	N	0.039085	-0.674939	-0.575697
N189	N	0.372418	-0.341605	-0.242364
C190	C	-0.306928	-0.995567	-0.209425
C191	C	0.026405	-0.662234	0.123908
C192	C	0.359738	-0.328901	0.457242
C193	C	-0.303477	-0.998980	-0.131187
C194	C	0.029857	-0.665647	0.202146
C195	C	0.363190	-0.332314	0.535480
H196	H	-0.246627	-0.720181	-0.460421
H197	H	0.086707	-0.386848	-0.127088
H198	H	0.420040	-0.053514	0.206246
C199	C	-0.785518	-1.062877	-0.323279
C200	C	-0.452185	-0.729544	0.010054
C201	C	-0.118852	-0.396211	0.343387
N202	N	-0.752022	-1.103100	-0.286202
N203	N	-0.418689	-0.769766	0.047131
N204	N	-0.085356	-0.436433	0.380464
C205	C	-0.415038	-0.730149	-0.291501
C206	C	-0.081705	-0.396816	0.041833
C207	C	0.251628	-0.063483	0.375166
N208	N	-0.449599	-0.760486	-0.256833
N209	N	-0.116266	-0.427153	0.076500
N210	N	0.217067	-0.093819	0.409834
H211	H	-0.408258	-0.586311	-0.298313
H212	H	-0.074924	-0.252978	0.035020
H213	H	0.258409	0.080355	0.368353
C214	C	-0.564743	-1.074945	-0.312032
C215	C	-0.231409	-0.741612	0.021302
C216	C	0.101924	-0.408279	0.354635
N217	N	-0.531261	-1.115178	-0.274954
N218	N	-0.197928	-0.781844	0.058380
N219	N	0.135405	-0.448511	0.391713
C220	C	-0.239851	-0.576356	-0.467232
C221	C	0.093482	-0.243022	-0.133899
C222	C	0.426816	0.090311	0.199435
N223	N	-0.205291	-0.546020	-0.501902
N224	N	0.128042	-0.212687	-0.168569
N225	N	0.461376	0.120646	0.164764
H226	H	-0.388099	-0.913915	-1.124513
H227	H	-0.054766	-0.580582	-0.791180
H228	H	0.278568	-0.247248	-0.457846
C229	C	-0.893938	-1.104856	-0.284623
C230	C	-0.560605	-0.771523	0.048710
C231	C	-0.227272	-0.438190	0.382043
N232	N	-0.860454	-1.145066	-0.247523
N233	N	-0.527121	-0.811733	0.085810
N234	N	-0.193788	-0.478399	0.419143
C235	C	-0.389270	-0.400128	-0.317386
C236	C	-0.055937	-0.066794	0.015947
C237	C	0.277396	0.266539	0.349281
N238	N	-0.423833	-0.430460	-0.282716
N239	N	-0.090500	-0.097126	0.050618
N240	N	0.242834	0.236207	0.383951
C241	C	-0.842920	-0.913012	-0.461346
C242	C	-0.509587	-0.579679	-0.128012
C243	C	-0.176253	-0.246345	0.205321
N244	N	-0.876416	-0.872779	-0.498411
N245	N	-0.543083	-0.539446	-0.165078
N246	N	-0.209749	-0.206113	0.168255
H247	H	-0.722946	-0.884901	-0.487198
H248	H	-0.389613	-0.551567	-0.153865
H249	H	-0.056280	-0.218234	0.179468
C250	C	-1.048501	-1.098063	-0.290999
C251	C	-0.715168	-0.764729	0.042335
C252	C	-0.381835	-0.431396	0.375668
N253	N	-1.075997	-1.135604	-0.256430
N254	N	-0.742663	-0.802270	0.076903
N255	N	-0.409330	-0.468937	0.410236
H256	H	-0.709813	-1.055189	-0.330316
H257	H	-0.376480	-0.721856	0.003017
H258	H	-0.043146	-0.388522	0.336351
H259	H	-0.382501	-0.256302	-0.324207
H260	H	-0.049168	0.077031	0.009126
H261	H	0.284166	0.410365	0.342460
H262	H	-0.220861	-0.390170	-0.486312
H263	H	0.112472	-0.056836	-0.152978
H264	H	0.445806	0.276497	0.180355
C265	C	-0.233424	-1.069434	-0.804638
C266	C	0.099909	-0.736101	-0.471304
C267	C	0.433242	-0.402767	-0.137971
N268	N	-0.195913	-1.107141	-0.835015
N269	N	0.137420	-0.773808	-0.501681
N270	N	0.470754	-0.440474	-0.168348
H271	H	-0.212755	-1.090200	-0.990845
H272	H	0.120578	-0.756867	-0.657512
H273	H	0.453911	-0.423533	-0.324178
H274	H	-0.382566	-0.919499	-0.991160
H275	H	-0.049233	-0.586166	-0.657827
H276	H	0.284101	-0.252833	-0.324494
C277	C	-0.214075	-0.246337	-0.493113
C278	C	0.119259	0.086996	-0.159779
C279	C	0.452592	0.420330	0.173554
N280	N	-0.179505	-0.215996	-0.527767
N281	N	0.153829	0.117337	-0.194434
N282	N	0.487162	0.450670	0.138899
C283	C	-1.063693	-0.900950	-0.472597
C284	C	-0.730360	-0.567617	-0.139263
C285	C	-0.397027	-0.234283	0.194070
N286	N	-1.097180	-0.860724	-0.509677
N287	N	-0.763847	-0.527391	-0.176344
N288	N	-0.430514	-0.194057	0.156990
C289	C	-0.579931	-0.877832	-0.493630
C290	C	-0.246597	-0.544498	-0.160297
C291	C	0.086736	-0.211165	0.173037
N292	N	-0.552440	-0.840290	-0.528202
N293	N	-0.219107	-0.506956	-0.194869
N294	N	0.114227	-0.173623	0.138464
H295	H	-0.918618	-0.920709	-0.454317
H296	H	-0.585284	-0.587375	-0.120984
H297	H	-0.251951	-0.254042	0.212350
H298	H	-0.240826	-1.062015	-0.660805
H299	H	0.092507	-0.728682	-0.327472
H300	H	0.425841	-0.395348	0.005861
H301	H	-0.416163	-0.885729	-0.794476
H302	H	-0.082829	-0.552396	-0.461142
H303	H	0.250504	-0.219062	-0.127809
C304	C	-0.423567	-0.878306	-0.650631
C305	C	-0.090234	-0.544972	-0.317297
C306	C	0.243099	-0.211639	0.016036
N307	N	-0.461078	-0.840600	-0.620252
N308	N	-0.127745	-0.507267	-0.286919
N309	N	0.205588	-0.173933	0.046415
C310	C	-0.205349	-1.097615	-1.134685
C311	C	0.127985	-0.764282	-0.801352
C312	C	0.461318	-0.430949	-0.468018
N313	N	-0.167833	-1.135312	-1.165068
N314	N	0.165500	-0.801978	-0.831735
N315	N	0.498834	-0.468645	-0.498401
