data_functionalizedCrystal
_audit_creation_method	'MofGen! by Chris Wilmer'
_symmetry_space_group_name_H-M	'P1'
_symmetry_Int_Tables_number	1
_symmetry_cell_setting	triclinic
loop_
_symmetry_equiv_pos_as_xyz
  x,y,z
_cell_length_a	10.489741
_cell_length_b	16.109296
_cell_length_c	15.186229
_cell_angle_alpha	89.994110
_cell_angle_beta	90.011663
_cell_angle_gamma	96.000768
loop_
_atom_site_label
_atom_site_type_symbol
_atom_site_fract_x
_atom_site_fract_y
_atom_site_fract_z
O1	O	0.163929	-1.104148	0.073187
O2	O	0.184339	-0.862211	0.073197
O3	O	-0.011544	-0.988685	0.073186
O4	O	0.359812	-0.977675	0.073197
O5	O	-0.011576	-0.988668	-0.073271
O6	O	0.184307	-0.862194	-0.073260
O7	O	0.163897	-1.104131	-0.073271
Zn8	Zn	0.174097	-0.983160	-0.096519
Zn9	Zn	0.174139	-0.983183	0.096445
O10	O	0.359780	-0.977657	-0.073260
C11	C	0.183497	-0.831223	-0.000030
C12	C	0.181022	-0.738912	-0.000026
C13	C	0.289162	-0.430579	-0.000040
C14	C	0.291500	-0.517314	-0.000034
C15	C	0.059095	-0.535755	-0.000029
C16	C	0.056759	-0.449022	-0.000029
C17	C	0.171797	-0.396436	-0.000039
C18	C	0.176470	-0.569904	-0.000033
C19	C	0.179004	-0.663946	-0.000027
C20	C	0.169263	-0.302388	-0.000043
C21	C	-0.059080	-0.987845	-0.000042
C22	C	-0.200673	-0.985357	-0.000040
C23	C	-0.267643	-0.904885	-0.000030
C24	C	-0.360334	-0.942891	-0.072243
C25	C	-0.360278	-0.942927	0.072153
C26	C	-0.291499	-1.023395	-0.072312
C27	C	-0.291433	-1.023420	0.072148
C28	C	-0.384097	-1.061484	-0.000082
C29	C	0.407315	-0.978498	-0.000030
C30	C	0.548909	-0.980985	-0.000026
C31	C	0.164746	-0.135119	-0.000043
C32	C	0.167244	-0.227428	-0.000046
N33	N	0.174068	-0.983150	-0.228211
C34	C	0.096745	-0.932292	-0.546163
C35	C	0.096726	-0.932285	-0.453974
C36	C	0.251484	-1.034062	-0.453916
C37	C	0.251495	-1.034073	-0.546104
C38	C	0.174127	-0.983183	-0.592226
C39	C	0.174098	-0.983165	-0.407848
C40	C	0.174079	-0.983158	-0.307892
C41	C	0.174145	-0.983192	-0.692188
N42	N	0.174158	-0.983199	0.228138
H43	H	-0.217030	-0.838722	-0.000100
N44	N	-0.069841	-0.412196	-0.000032
H45	H	-0.076003	-0.376616	-0.054323
H46	H	-0.075897	-0.376669	0.054296
N47	N	0.413231	-0.373860	-0.000069
H48	H	0.487936	-0.408655	-0.000074
H49	H	0.417362	-0.337466	0.054217
H50	H	0.033746	-0.890855	-0.583713
N51	N	-0.400766	-0.897791	-0.153115
H52	H	-0.357969	-0.838639	-0.153064
H53	H	-0.496907	-0.896977	-0.152768
H54	H	0.033712	-0.890845	-0.416474
H55	H	-0.390733	-0.908875	0.133209
N56	N	-0.251347	-1.068453	-0.153271
H57	H	-0.155311	-1.069834	-0.152791
H58	H	-0.277073	-1.038251	-0.207700
H59	H	-0.434484	-1.127707	-0.000125
H60	H	-0.260870	-1.057448	0.133199
H61	H	0.314476	-1.075494	-0.416353
N62	N	0.418095	-0.554131	-0.000040
H63	H	0.424229	-0.589704	-0.054330
H64	H	0.424194	-0.589664	0.054289
H65	H	0.314510	-1.075520	-0.583609
H66	H	-0.034564	-0.578581	-0.000023
