data_functionalizedCrystal
_audit_creation_method	'MofGen! by Chris Wilmer'
_symmetry_space_group_name_H-M	'P1'
_symmetry_Int_Tables_number	1
_symmetry_cell_setting	triclinic
loop_
_symmetry_equiv_pos_as_xyz
  x,y,z
_cell_length_a	15.538191
_cell_length_b	10.489741
_cell_length_c	14.750779
_cell_angle_alpha	77.226586
_cell_angle_beta	97.572172
_cell_angle_gamma	65.905634
loop_
_atom_site_label
_atom_site_type_symbol
_atom_site_fract_x
_atom_site_fract_y
_atom_site_fract_z
O1	O	1.226910	-0.375937	-0.079837
O2	O	0.953648	-0.229122	-0.079837
O3	O	1.096498	-0.491086	-0.079831
O4	O	1.084059	-0.113973	-0.079843
O5	O	1.136881	-0.565134	0.079820
O6	O	0.994030	-0.303170	0.079815
O7	O	1.267292	-0.449985	0.079814
Zn8	Zn	1.137073	-0.388334	0.105163
Zn9	Zn	1.083867	-0.290773	-0.105185
O10	O	1.124442	-0.188021	0.079809
C11	C	0.938847	-0.250786	-0.000011
C12	C	0.834584	-0.205032	-0.000010
C13	C	0.543710	-0.659589	-0.000011
C14	C	0.445735	-0.616562	-0.000013
C15	C	0.424932	-0.374552	-0.000021
C16	C	0.522908	-0.417560	-0.000014
C17	C	0.582289	-0.560080	-0.000010
C18	C	0.561488	-0.318051	-0.000013
C19	C	0.659454	-0.361054	-0.000011
C20	C	0.718840	-0.503566	-0.000011
C21	C	0.680255	-0.603083	-0.000009
C22	C	0.502103	-0.175529	-0.000023
C23	C	0.540683	-0.076020	-0.000022
C24	C	0.638652	-0.119026	-0.000013
C25	C	0.698039	-0.261538	-0.000013
C26	C	0.677237	-0.019509	-0.000015
C27	C	0.775203	-0.062512	-0.000014
C28	C	0.796005	-0.304540	-0.000011
C29	C	1.115750	-0.575195	-0.000006
C30	C	1.112940	-0.715488	-0.000008
C31	C	1.022047	-0.740411	-0.000014
C32	C	1.084893	-0.889457	0.078702
C33	C	1.045101	-0.816436	-0.078702
C34	C	1.175840	-0.862716	0.078774
C35	C	1.136017	-0.789647	-0.078701
C36	C	1.198935	-0.938706	0.000035
C37	C	1.282092	-0.428320	-0.000014
C38	C	1.386354	-0.474071	-0.000020
C39	C	1.105189	-0.103911	-0.000018
C40	C	1.107998	0.036385	-0.000023
N41	N	1.173391	-0.454921	0.248720
N42	N	1.047557	-0.224199	-0.248742
C43	C	0.946125	-0.038287	0.600530
C44	C	0.971581	-0.084942	0.701030
C45	C	1.098102	-0.316860	0.700997
C46	C	1.072654	-0.270227	0.600495
C47	C	0.996665	-0.130939	0.550269
C48	C	1.123193	-0.362879	0.550235
C49	C	1.097750	-0.316246	0.449741
C50	C	1.021766	-0.176962	0.399508
C51	C	0.971221	-0.084307	0.449776
C52	C	1.199186	-0.502162	0.600462
C53	C	1.249726	-0.594814	0.550202
C54	C	1.224278	-0.548186	0.449707
C55	C	1.148295	-0.408902	0.399474
C56	C	1.274823	-0.640842	0.399439
C57	C	1.249379	-0.594209	0.298946
C58	C	1.122851	-0.362270	0.298980
H59	H	0.376570	-0.258511	-0.000027
C60	C	0.887625	0.068899	0.394517
H61	H	0.879708	0.083390	0.327469
H62	H	0.902550	0.141422	0.410978
H63	H	0.829035	0.076383	0.411002
C64	C	0.394342	-0.128219	-0.000024
H65	H	0.364499	-0.029085	-0.000038
H66	H	0.390100	-0.189000	0.055653
H67	H	0.361939	-0.137362	-0.055703
H68	H	0.628872	0.096534	-0.000028
H69	H	1.159976	-0.430268	0.741903
H70	H	0.592063	-0.775645	-0.000003
C71	C	1.333304	-0.748026	0.605451
H72	H	1.359761	-0.796525	0.561122
H73	H	1.309091	-0.803531	0.644662
H74	H	1.382633	-0.738542	0.644642
H75	H	0.492321	0.040021	-0.000029
C76	C	1.055687	-0.948363	0.168603
H77	H	1.106537	-1.041964	0.205664
H78	H	0.997844	-0.956716	0.149683
H79	H	1.044676	-0.882748	0.205933
H80	H	0.930420	-0.009480	0.741947
C81	C	0.403302	-0.726033	-0.000013
H82	H	0.452702	-0.817070	-0.000005
H83	H	0.351436	-0.688464	-0.055687
H84	H	0.379602	-0.740118	0.055668
C85	C	0.826601	-0.550880	-0.000011
H86	H	0.856437	-0.650005	-0.000016
H87	H	0.859008	-0.541740	0.055661
H88	H	0.830838	-0.490092	-0.055694
C89	C	0.817644	0.046943	-0.000012
H90	H	0.768251	0.137976	-0.000006
H91	H	0.841347	0.061018	-0.055687
H92	H	0.869512	0.009369	0.055669
H93	H	1.001054	-0.138994	0.317680
H94	H	1.060966	-0.248853	0.258085
C95	C	0.862536	0.114927	0.545275
H96	H	0.836079	0.163436	0.589599
H97	H	0.813220	0.105436	0.506079
H98	H	0.886754	0.170439	0.506068
C99	C	1.165153	-0.730582	-0.168601
H100	H	1.223648	-0.723910	-0.149696
H101	H	1.114788	-0.636199	-0.204979
H102	H	1.174997	-0.795184	-0.206589
H103	H	1.290536	-0.669656	0.258023
C104	C	1.227180	-0.553464	0.711003
H105	H	1.279682	-0.649678	0.733717
H106	H	1.172811	-0.553692	0.733756
H107	H	1.246337	-0.488675	0.733731
H108	H	0.728609	-0.719139	-0.000000
H109	H	1.336700	-0.754246	0.440346
C110	C	0.970397	-0.791888	-0.168604
H111	H	1.002480	-0.851099	-0.205676
H112	H	0.940498	-0.691638	-0.205914
H113	H	0.922128	-0.817807	-0.149676
C114	C	1.250506	-0.887496	0.168781
H115	H	1.251812	-0.797577	0.168255
H116	H	1.313209	-0.957502	0.169012
H117	H	1.232544	-0.922669	0.224609
H118	H	0.844358	-0.420597	-0.000003
H119	H	1.273743	-1.023712	0.000078
H120	H	0.947337	-0.655267	0.000065
