data_functionalizedCrystal
_audit_creation_method	'MofGen! by Chris Wilmer'
_symmetry_space_group_name_H-M	'P1'
_symmetry_Int_Tables_number	1
_symmetry_cell_setting	triclinic
loop_
_symmetry_equiv_pos_as_xyz
  x,y,z
_cell_length_a	29.839131
_cell_length_b	29.839135
_cell_length_c	17.639306
_cell_angle_alpha	78.771629
_cell_angle_beta	101.176836
_cell_angle_gamma	90.037758
loop_
_atom_site_label
_atom_site_type_symbol
_atom_site_fract_x
_atom_site_fract_y
_atom_site_fract_z
Zn1	Zn	-0.230173	0.738078	-0.446900
Zn2	Zn	0.269827	1.238078	0.053100
Zn3	Zn	-0.290115	0.722832	-0.314707
Zn4	Zn	0.209885	1.222832	0.185293
Zn5	Zn	-0.215006	0.647779	-0.314739
Zn6	Zn	0.284994	1.147779	0.185261
Zn7	Zn	-0.305272	0.662908	-0.446824
Zn8	Zn	0.194728	1.162908	0.053176
O9	O	-0.260141	0.692899	-0.380793
O10	O	0.239859	1.192899	0.119207
O11	O	-0.238129	0.798925	-0.429383
O12	O	0.261871	1.298925	0.070617
O13	O	-0.267461	0.700164	-0.204110
O14	O	0.232539	1.200164	0.295890
O15	O	-0.154156	0.659806	-0.332316
O16	O	0.345844	1.159806	0.167684
O17	O	-0.282167	0.787724	-0.332261
O18	O	0.217833	1.287724	0.167739
O19	O	-0.165299	0.726149	-0.429414
O20	O	0.334701	1.226149	0.070586
O21	O	-0.212279	0.645022	-0.204133
O22	O	0.287721	1.145022	0.295867
O23	O	-0.226976	0.586916	-0.332242
O24	O	0.273024	1.086916	0.167758
O25	O	-0.308000	0.685592	-0.557436
O26	O	0.192000	1.185592	-0.057436
O27	O	-0.293294	0.598032	-0.429284
O28	O	0.206706	1.098032	0.070716
O29	O	-0.252826	0.740819	-0.557491
O30	O	0.247174	1.240819	-0.057491
O31	O	-0.354987	0.714835	-0.332188
O32	O	0.145013	1.214835	0.167812
O33	O	-0.366123	0.670809	-0.429253
O34	O	0.133877	1.170809	0.070747
C35	C	-0.260134	0.576173	-0.380759
C36	C	0.239866	1.076173	0.119241
C37	C	-0.260144	0.526239	-0.380763
C38	C	0.239856	1.026239	0.119237
C39	C	-0.376856	0.692823	-0.380726
C40	C	0.123144	1.192823	0.119274
C41	C	-0.426791	0.692835	-0.380724
C42	C	0.073209	1.192835	0.119276
C43	C	-0.237263	0.222437	-0.431438
C44	C	0.262737	0.722437	0.068562
C45	C	-0.237268	0.034767	-0.431461
C46	C	0.262732	0.534767	0.068539
O47	O	-0.217799	0.015464	-0.474509
O48	O	0.282201	0.515464	0.025491
N49	N	-0.260145	0.005461	-0.380822
N50	N	0.239855	0.505461	0.119178
C51	C	-0.283020	0.023074	-0.330169
C52	C	0.216980	0.523074	0.169831
O53	O	-0.302474	-0.006159	-0.287093
O54	O	0.197526	0.493841	0.212907
C55	C	-0.283011	0.210744	-0.330144
C56	C	0.216989	0.710744	0.169856
C57	C	-0.260137	0.240048	-0.380792
C58	C	0.239863	0.740048	0.119208
C59	C	-0.214390	0.251741	-0.482082
C60	C	0.285610	0.751741	0.017918
C61	C	-0.214390	0.298656	-0.482079
C62	C	0.285610	0.798656	0.017921
C63	C	-0.237264	0.316267	-0.431432
C64	C	0.262736	0.816267	0.068568
C65	C	-0.260138	0.286963	-0.380789
C66	C	0.239862	0.786963	0.119211
C67	C	-0.305883	0.228356	-0.279488
C68	C	0.194117	0.728356	0.220512
C69	C	-0.305878	0.275277	-0.279485
C70	C	0.194122	0.775277	0.220515
C71	C	-0.283003	0.304581	-0.330133
C72	C	0.216997	0.804581	0.169867
C73	C	-0.283012	0.351489	-0.330139
C74	C	0.216988	0.851489	0.169861
N75	N	-0.260136	0.380795	-0.380778
N76	N	0.239864	0.880795	0.119222
C77	C	-0.237262	0.363184	-0.431425
C78	C	0.262738	0.863184	0.068575
C79	C	-0.283024	-0.075454	-0.330188
C80	C	0.216976	0.424546	0.169812
C81	C	-0.283027	-0.122371	-0.330195
C82	C	0.216973	0.377629	0.169805
C83	C	-0.237274	-0.110676	-0.431486
C84	C	0.262726	0.389324	0.068514
C85	C	-0.237274	-0.063758	-0.431482
C86	C	0.262726	0.436242	0.068518
C87	C	-0.260147	-0.046148	-0.380827
C88	C	0.239853	0.453852	0.119173
C89	C	-0.237266	0.461709	-0.431415
C90	C	0.262734	0.961709	0.068585
C91	C	-0.237270	0.508628	-0.431410
C92	C	0.262730	1.008628	0.068590
C93	C	-0.283020	0.496928	-0.330117
C94	C	0.216980	0.996928	0.169883
C95	C	-0.283018	0.450014	-0.330124
C96	C	0.216982	0.950014	0.169876
C97	C	-0.260137	0.432405	-0.380776
C98	C	0.239863	0.932405	0.119224
O99	O	-0.302467	0.370823	-0.287107
O100	O	0.197533	0.870823	0.212893
O101	O	-0.217802	0.392423	-0.474483
O102	O	0.282198	0.892423	0.025517
C103	C	-0.237262	0.175522	-0.431441
C104	C	0.262738	0.675522	0.068559
C105	C	-0.260135	0.146218	-0.380798
C106	C	0.239865	0.646218	0.119202
C107	C	-0.283009	0.163829	-0.330151
C108	C	0.216991	0.663829	0.169849
C109	C	-0.260138	0.099301	-0.380805
C110	C	0.239862	0.599301	0.119195
C111	C	-0.237264	0.081690	-0.431452
C112	C	0.262736	0.581690	0.068548
C113	C	-0.214387	0.110996	-0.482091
C114	C	0.285613	0.610996	0.017909
C115	C	-0.214388	0.157911	-0.482088
C116	C	0.285612	0.657911	0.017912
C117	C	-0.305886	0.134523	-0.279512
C118	C	0.194114	0.634523	0.220488
C119	C	-0.305884	0.087609	-0.279520
C120	C	0.194116	0.587609	0.220480
C121	C	-0.283010	0.069997	-0.330167
C122	C	0.216990	0.569997	0.169833
C123	C	-0.742217	0.727446	-0.431424
C124	C	-0.242217	1.227446	0.068576
C125	C	-0.929896	0.727500	-0.431471
C126	C	-0.429896	1.227500	0.068529
O127	O	-0.959072	0.756855	-0.474528
O128	O	-0.459072	1.256855	0.025472
N129	N	-0.947594	0.692986	-0.380880
N130	N	-0.447594	1.192986	0.119120
C131	C	-0.918369	0.658454	-0.330278
C132	C	-0.418369	1.158454	0.169722
O133	O	-0.937729	0.629095	-0.287254
O134	O	-0.437729	1.129095	0.212746
C135	C	-0.730692	0.658398	-0.330235
C136	C	-0.230692	1.158398	0.169765
C137	C	-0.712996	0.692917	-0.380823
C138	C	-0.212996	1.192917	0.119177
C139	C	-0.724522	0.761962	-0.482009
C140	C	-0.224522	1.261962	0.017991
C141	C	-0.677604	0.761950	-0.481993
C142	C	-0.177604	1.261950	0.018007
C143	C	-0.648383	0.727421	-0.431393
C144	C	-0.148383	1.227421	0.068607
C145	C	-0.666079	0.692905	-0.380808
C146	C	-0.166079	1.192905	0.119192
C147	C	-0.701468	0.623864	-0.279637
C148	C	-0.201468	1.123864	0.220363
C149	C	-0.654547	0.623853	-0.279632
C150	C	-0.154547	1.123853	0.220368
C151	C	-0.636851	0.658372	-0.330220
C152	C	-0.136851	1.158372	0.169780
C153	C	-0.589940	0.658363	-0.330192
C154	C	-0.089940	1.158363	0.169808
N155	N	-0.572243	0.692878	-0.380783
N156	N	-0.072243	1.192878	0.119217
C157	C	-0.601464	0.727407	-0.431383
C158	C	-0.101464	1.227407	0.068617
C159	C	-1.016902	0.658486	-0.330303
C160	C	-0.516902	1.158486	0.169697
C161	C	-1.063821	0.658500	-0.330312
C162	C	-0.563821	1.158500	0.169688
C163	C	-1.075345	0.727546	-0.431507
C164	C	-0.575345	1.227546	0.068493
C165	C	-1.028425	0.727534	-0.431493
C166	C	-0.528425	1.227534	0.068507
C167	C	-0.999205	0.693000	-0.380893
C168	C	-0.499205	1.193000	0.119107
C169	C	-0.502934	0.727378	-0.431347
C170	C	-0.002934	1.227378	0.068653
C171	C	-0.456012	0.727364	-0.431324
C172	C	0.043988	1.227364	0.068676
C173	C	-0.444492	0.658316	-0.330133
C174	C	0.055508	1.158316	0.169867
C175	C	-0.491410	0.658332	-0.330152
C176	C	0.008590	1.158332	0.169848
C177	C	-0.520630	0.692865	-0.380765
C178	C	-0.020630	1.192865	0.119235
O179	O	-0.560738	0.629021	-0.287163
O180	O	-0.060738	1.129021	0.212837
O181	O	-0.582097	0.756755	-0.474413
O182	O	-0.082097	1.256755	0.025587
C183	C	-0.789135	0.727459	-0.431439
C184	C	-0.289135	1.227459	0.068561
C185	C	-0.806831	0.692942	-0.380854
C186	C	-0.306831	1.192942	0.119146
C187	C	-0.777609	0.658414	-0.330254
C188	C	-0.277609	1.158414	0.169746
C189	C	-0.853750	0.692957	-0.380864
C190	C	-0.353750	1.192957	0.119136
C191	C	-0.882971	0.727485	-0.431464
C192	C	-0.382971	1.227485	0.068536
C193	C	-0.865273	0.762000	-0.482055
C194	C	-0.365273	1.262000	0.017945
C195	C	-0.818356	0.761987	-0.482040
C196	C	-0.318356	1.261987	0.017960
C197	C	-0.795307	0.623899	-0.279663
C198	C	-0.295307	1.123899	0.220337
C199	C	-0.842225	0.623915	-0.279682
C200	C	-0.342225	1.123915	0.220318
C201	C	-0.871446	0.658443	-0.330282
C202	C	-0.371446	1.158443	0.169718
C203	C	-0.142973	0.692990	-0.380877
C204	C	0.357027	1.192990	0.119123
C205	C	-0.093042	0.693029	-0.380913
C206	C	0.406958	1.193029	0.119087
C207	C	-0.283796	0.716594	-0.586943
C208	C	0.216204	1.216594	-0.086943
C209	C	-0.293876	0.726691	-0.674792
C210	C	0.206124	1.226691	-0.174792
C211	C	-0.260149	0.810082	-0.380827
C212	C	0.239851	1.310082	0.119173
C213	C	-0.260153	0.860018	-0.380842
C214	C	0.239847	1.360018	0.119158
C215	C	-0.183397	0.616367	-0.963801
C216	C	0.316603	1.116367	-0.463801
C217	C	-0.192878	0.625865	-1.046349
C218	C	0.307122	1.125865	-0.546349
C219	C	-0.250333	0.683278	-1.046304
C220	C	0.249667	1.183278	-0.546304
C221	C	-0.240855	0.673786	-0.963755
C222	C	0.259145	1.173786	-0.463755
C223	C	-0.207387	0.640330	-0.922510
C224	C	0.292613	1.140330	-0.422510
C225	C	-0.264845	0.697750	-0.922464
C226	C	0.235155	1.197750	-0.422464
C227	C	-0.255369	0.688257	-0.839922
C228	C	0.244631	1.188257	-0.339922
C229	C	-0.221904	0.654801	-0.798671
C230	C	0.278096	1.154801	-0.298671
C231	C	-0.197911	0.630837	-0.839968
C232	C	0.302089	1.130837	-0.339968
C233	C	-0.298315	0.731203	-0.963711
C234	C	0.201685	1.231203	-0.463711
C235	C	-0.322305	0.755167	-0.922420
C236	C	0.177695	1.255167	-0.422420
C237	C	-0.312827	0.745676	-0.839876
C238	C	0.187173	1.245676	-0.339876
C239	C	-0.279362	0.712221	-0.798625
C240	C	0.220638	1.212221	-0.298625
C241	C	-0.336820	0.769640	-0.798579
C242	C	0.163180	1.269640	-0.298579
C243	C	-0.327344	0.760147	-0.716037
C244	C	0.172656	1.260147	-0.216037
C245	C	-0.269886	0.702728	-0.716083
C246	C	0.230114	1.202728	-0.216083
C247	C	-0.236547	0.669323	-0.175444
C248	C	0.263453	1.169323	0.324556
C249	C	-0.226340	0.659313	-0.087596
C250	C	0.273660	1.159313	0.412404
H251	H	-0.218643	0.532487	-0.472656
H252	H	0.281357	1.032487	0.027344
H253	H	-0.218647	-0.039901	-0.472722
H254	H	0.281353	0.460099	0.027278
Br255	Br	-0.206212	0.437819	-0.500156
Br256	Br	0.293788	0.937819	-0.000156
Br257	Br	-0.314062	-0.051564	-0.261426
Br258	Br	0.185938	0.448436	0.238574
H259	H	-0.301659	-0.146226	-0.288961
H260	H	0.198341	0.353774	0.211039
Br261	Br	-0.152483	0.585438	-0.783985
Br262	Br	0.347517	1.085438	-0.283985
Br263	Br	-0.314080	0.410245	-0.261414
Br264	Br	0.185920	0.910245	0.238586
Br265	Br	-0.359905	0.792665	-0.659994
Br266	Br	0.140095	1.292665	-0.159994
Br267	Br	-1.115011	0.774407	-0.500178
Br268	Br	-0.615011	1.274407	-0.000178
H269	H	-0.218650	-0.125023	-0.472724
H270	H	0.281350	0.374977	0.027276
Br271	Br	-0.515425	0.611489	-0.261483
Br272	Br	-0.015425	1.111489	0.238517
Br273	Br	-0.904940	0.808862	-0.550723
Br274	Br	-0.404940	1.308862	-0.050723
H275	H	-0.242628	0.675489	-0.682499
H276	H	0.257372	1.175489	-0.182499
H277	H	-1.078223	0.630395	-0.289109
H278	H	-0.578223	1.130395	0.210891
H279	H	-0.173338	0.606350	-1.079965
H280	H	0.326662	1.106350	-0.579965
Br281	Br	-0.336918	0.188595	-0.210731
Br282	Br	0.163082	0.688595	0.289269
Br283	Br	-0.311175	0.744087	-1.075734
Br284	Br	0.188825	1.244087	-0.575734
H285	H	-0.993113	0.630364	-0.289097
H286	H	-0.493113	1.130364	0.210903
H287	H	-0.630757	0.595730	-0.238429
H288	H	-0.130757	1.095730	0.261571
Br289	Br	-0.725471	0.577013	-0.210978
Br290	Br	-0.225471	1.077013	0.289022
H291	H	-0.277584	0.710517	-1.079897
H292	H	0.222416	1.210517	-0.579897
Br293	Br	-0.183344	0.338419	-0.550817
Br294	Br	0.316656	0.838419	-0.050817
H295	H	-0.324503	0.289611	-0.238233
H296	H	0.175497	0.789611	0.261767
H297	H	-0.771518	0.595781	-0.238459
H298	H	-0.271518	1.095781	0.261541
Br299	Br	-0.866233	0.577064	-0.211014
Br300	Br	-0.366233	1.077064	0.288986
H301	H	-0.364072	0.796877	-0.832173
H302	H	0.135928	1.296877	-0.332173
Br303	Br	-0.404826	0.611458	-0.261463
Br304	Br	0.095174	1.111458	0.238537
H305	H	-0.803952	0.790096	-0.523234
H306	H	-0.303952	1.290096	-0.023234
Br307	Br	-0.209047	0.641912	-0.686648
Br308	Br	0.290953	1.141912	-0.186648
H309	H	-0.195760	0.237408	-0.523324
H310	H	0.304240	0.737408	-0.023324
H311	H	-0.301645	0.511276	-0.288883
H312	H	0.198355	1.011276	0.211117
H313	H	-0.195761	0.181767	-0.523330
H314	H	0.304239	0.681767	-0.023330
H315	H	-0.349556	0.782405	-0.956013
H316	H	0.150444	1.282405	-0.456013
Br317	Br	-0.137969	0.570968	-0.907818
Br318	Br	0.362031	1.070968	-0.407818
H319	H	-1.014021	0.755642	-0.472687
H320	H	-0.514021	1.255642	0.027313
Br321	Br	-0.336930	0.047843	-0.210776
Br322	Br	0.163070	0.547843	0.289224
Br323	Br	-0.432000	0.774216	-0.499982
Br324	Br	0.068000	1.274216	0.000018
Br325	Br	-0.183347	0.087086	-0.550829
Br326	Br	0.316653	0.587086	-0.050829
Br327	Br	-0.764172	0.808828	-0.550694
Br328	Br	-0.264172	1.308828	-0.050694
Br329	Br	-0.653597	0.808798	-0.550658
Br330	Br	-0.153597	1.308798	-0.050658
Br331	Br	-0.542583	0.774246	-0.500035
Br332	Br	-0.042583	1.274246	-0.000035
H333	H	-0.324512	0.148856	-0.238268
H334	H	0.175488	0.648856	0.261732
