data_functionalizedCrystal
_audit_creation_method	'MofGen! by Chris Wilmer'
_symmetry_space_group_name_H-M	'P1'
_symmetry_Int_Tables_number	1
_symmetry_cell_setting	triclinic
loop_
_symmetry_equiv_pos_as_xyz
  x,y,z
_cell_length_a	25.639242
_cell_length_b	25.639240
_cell_length_c	12.759393
_cell_angle_alpha	90.039325
_cell_angle_beta	89.978478
_cell_angle_gamma	89.964534
loop_
_atom_site_label
_atom_site_type_symbol
_atom_site_fract_x
_atom_site_fract_y
_atom_site_fract_z
Zn1	Zn	0.799246	0.208226	-0.594042
Zn2	Zn	0.799151	0.295673	-0.418339
Zn3	Zn	0.711811	0.208242	-0.418369
Zn4	Zn	0.711760	0.295621	-0.593968
O5	O	0.755492	0.251941	-0.506179
O6	O	0.872398	0.219842	-0.570753
O7	O	0.787547	0.284104	-0.271322
O8	O	0.723470	0.135075	-0.441716
O9	O	0.872329	0.284089	-0.441665
O10	O	0.787708	0.135063	-0.570782
O11	O	0.723379	0.219868	-0.271344
O12	O	0.638639	0.219818	-0.441644
O13	O	0.723384	0.283999	-0.740999
O14	O	0.638602	0.284014	-0.570656
O15	O	0.787659	0.219791	-0.741053
O16	O	0.787498	0.368832	-0.441593
O17	O	0.723292	0.368793	-0.570627
C18	C	0.619650	0.251912	-0.506145
C19	C	0.561536	0.251913	-0.506156
C20	C	0.310386	0.218547	-0.573518
C21	C	0.364991	0.218541	-0.573512
O22	O	0.393265	0.190149	-0.630779
N23	N	0.392262	0.251935	-0.506191
C24	C	0.364926	0.285339	-0.438880
O25	O	0.393136	0.313742	-0.381618
C26	C	0.310322	0.285346	-0.438892
C27	C	0.283054	0.251947	-0.506210
C28	C	0.283118	0.185151	-0.640831
C29	C	0.228517	0.185155	-0.640836
C30	C	0.201185	0.218556	-0.573527
C31	C	0.228454	0.251952	-0.506214
C32	C	0.282987	0.318753	-0.371586
C33	C	0.228380	0.318757	-0.371605
C34	C	0.201112	0.285358	-0.438922
C35	C	0.146521	0.285357	-0.438909
N36	N	0.119250	0.251964	-0.506230
C37	C	0.146582	0.218563	-0.573539
C38	C	0.479596	0.285321	-0.438861
C39	C	0.534199	0.285312	-0.438843
C40	C	0.534260	0.218515	-0.573477
C41	C	0.479656	0.218522	-0.573489
C42	C	0.452325	0.251928	-0.506182
C43	C	0.031917	0.218575	-0.573542
C44	C	-0.022689	0.218581	-0.573538
C45	C	-0.022745	0.285379	-0.438908
C46	C	0.031856	0.285372	-0.438908
C47	C	0.059185	0.251968	-0.506234
O48	O	0.118212	0.313736	-0.381675
O49	O	0.118365	0.190169	-0.630801
C50	C	0.755394	0.387783	-0.506121
C51	C	0.755399	0.445897	-0.506132
C52	C	0.788968	0.806268	-0.439066
C53	C	0.788984	0.860872	-0.439076
O54	O	0.817456	0.889115	-0.382021
N55	N	0.755534	0.888180	-0.506203
C56	C	0.722070	0.860880	-0.573332
O57	O	0.693620	0.889121	-0.630430
C58	C	0.722057	0.806277	-0.573326
C59	C	0.755505	0.778972	-0.506187
C60	C	0.822414	0.778963	-0.371933
C61	C	0.822397	0.724362	-0.371922
C62	C	0.788934	0.697067	-0.439043
C63	C	0.755489	0.724371	-0.506176
C64	C	0.688596	0.778978	-0.640459
C65	C	0.688586	0.724371	-0.640449
C66	C	0.722034	0.697066	-0.573310
C67	C	0.722009	0.642475	-0.573286
N68	N	0.755459	0.615168	-0.506159
C69	C	0.788921	0.642463	-0.439038
C70	C	0.722101	0.975551	-0.573340
C71	C	0.722111	1.030153	-0.573341
C72	C	0.789025	1.030141	-0.439086
C73	C	0.789012	0.975538	-0.439080
C74	C	0.755550	0.948243	-0.506213
C75	C	0.788883	0.527798	-0.439019
C76	C	0.788862	0.473193	-0.439010
C77	C	0.721949	0.473209	-0.573268
C78	C	0.721969	0.527810	-0.573273
C79	C	0.755440	0.555103	-0.506145
O80	O	0.693553	0.614197	-0.630315
O81	O	0.817371	0.614216	-0.381959
C82	C	0.891865	0.251969	-0.506214
C83	C	0.949979	0.251982	-0.506229
C84	C	0.755526	0.251887	-0.780213
C85	C	0.755541	0.251865	-0.896990
C86	C	0.755586	1.115568	-0.506242
C87	C	0.755575	1.057453	-0.506223
C88	C	0.722142	0.218411	-0.951869
C89	C	0.722158	0.218396	-1.061593
C90	C	0.788975	0.285289	-1.061549
C91	C	0.788956	0.285306	-0.951827
C92	C	0.688727	0.184969	-0.897032
C93	C	0.655326	0.151513	-0.951912
C94	C	0.655342	0.151497	-1.061636
C95	C	0.688758	0.184938	-1.116480
C96	C	0.755488	0.251956	-0.233212
C97	C	0.755575	0.251831	-0.116436
H98	H	0.457347	0.312523	-0.384042
H99	H	0.816183	0.312513	-1.106212
H100	H	0.305180	0.345950	-0.316769
C101	C	-0.052821	0.322119	-0.364873
N102	N	-0.075476	0.349794	-0.309116
H103	H	0.206130	0.345963	-0.316796
C104	C	0.825693	0.322111	-0.891456
N105	N	0.853361	0.349835	-0.845984
C106	C	0.061852	0.322110	-0.364851
N107	N	0.084441	0.349786	-0.309078
C108	C	-0.052681	0.181840	-0.647599
N109	N	-0.075269	0.154168	-0.703383
H110	H	0.206320	0.157961	-0.695657
C111	C	0.825657	0.443161	-0.365144
N112	N	0.853369	0.420543	-0.309509
C113	C	0.685290	0.945531	-0.647200
N114	N	0.657566	0.922923	-0.702836
H115	H	0.054162	0.191374	-0.628365
H116	H	0.661356	0.801200	-0.695126
C117	C	0.859226	0.808980	-0.298082
N118	N	0.886952	0.831585	-0.242445
H119	H	0.816140	0.550014	-0.384359
H120	H	0.849635	0.702134	-0.317255
H121	H	0.816249	0.953310	-0.384411
H122	H	0.628117	0.124289	-0.907250
H123	H	0.694734	0.550043	-0.627947
H124	H	0.816274	1.052375	-0.384436
H125	H	0.694869	1.052380	-0.628002
C126	C	0.313175	0.148401	-0.714877
N127	N	0.335810	0.120715	-0.770645
H128	H	0.457458	0.191325	-0.628304
C129	C	0.651775	0.694350	-0.714302
N130	N	0.624047	0.671740	-0.769926
C131	C	0.685144	0.443174	-0.647103
N132	N	0.657426	0.420549	-0.702721
C133	C	0.564188	0.322048	-0.364778
N134	N	0.586773	0.349722	-0.308995
C135	C	0.688705	0.184984	-0.776334
N136	N	0.688690	0.184996	-0.685423
C137	C	0.618601	0.114695	-1.122000
N138	N	0.590929	0.086971	-1.167465
C139	C	0.688773	0.184920	-1.237181
N140	N	0.688785	0.184904	-1.328091
H141	H	0.556524	0.191318	-0.628284
