data_functionalizedCrystal
_audit_creation_method	'MofGen! by Chris Wilmer'
_symmetry_space_group_name_H-M	'P1'
_symmetry_Int_Tables_number	1
_symmetry_cell_setting	triclinic
loop_
_symmetry_equiv_pos_as_xyz
  x,y,z
_cell_length_a	14.519709
_cell_length_b	14.519731
_cell_length_c	11.892095
_cell_angle_alpha	93.895723
_cell_angle_beta	86.099364
_cell_angle_gamma	83.684499
loop_
_atom_site_label
_atom_site_type_symbol
_atom_site_fract_x
_atom_site_fract_y
_atom_site_fract_z
O1	O	1.229754	0.115013	-0.093858
O2	O	0.961280	0.129247	-0.093893
O3	O	1.102625	-0.012106	-0.093864
O4	O	1.088410	0.256367	-0.093886
O5	O	1.090840	-0.000339	0.094141
O6	O	0.949495	0.141015	0.094112
O7	O	1.217969	0.126781	0.094147
Zn8	Zn	1.081861	0.135766	0.123980
Zn9	Zn	1.097388	0.120262	-0.123725
O10	O	1.076625	0.268134	0.094119
C11	C	0.921028	0.134467	0.000105
C12	C	0.818648	0.132478	0.000092
C13	C	0.443748	0.125162	0.000145
C14	C	0.548057	0.127194	0.000130
C15	C	0.631195	0.128820	0.000117
C16	C	0.735510	0.130852	0.000105
C17	C	1.096066	-0.040582	0.000139
C18	C	1.094070	-0.142962	0.000139
C19	C	1.092448	-0.226106	0.000136
C20	C	1.090422	-0.330416	0.000127
C21	C	1.088814	-0.413555	0.000120
C22	C	1.086788	-0.517871	0.000113
C23	C	1.258221	0.121560	0.000147
C24	C	1.360602	0.123549	0.000152
C25	C	1.083184	0.296610	0.000113
C26	C	1.085180	0.398989	0.000106
N27	N	1.071271	0.146347	0.293032
N28	N	1.107986	0.109674	-0.292777
C29	C	1.181678	0.035995	0.529702
C30	C	1.174282	0.043398	0.648042
C31	C	1.049080	0.168550	0.648055
C32	C	1.056475	0.161147	0.529715
C33	C	1.122777	0.094869	0.470542
C34	C	1.130177	0.087471	0.352200
C35	C	1.004971	0.212618	0.352214
C36	C	0.997575	0.220020	0.470555
H37	H	1.184166	0.033506	0.304022
H38	H	0.943591	0.273981	0.518747
O39	O	1.231368	-0.013878	0.705563
C40	C	1.177601	-0.066580	0.774048
H41	H	1.107100	-0.070525	0.738396
H42	H	1.215015	-0.139717	0.775390
H43	H	1.167213	-0.032116	0.863735
H44	H	0.957013	0.260559	0.304033
O45	O	0.984548	0.232822	0.705501
C46	C	0.895045	0.215828	0.676573
H47	H	0.896511	0.139959	0.644023
H48	H	0.843919	0.231181	0.754409
H49	H	0.872330	0.262600	0.607899
H50	H	1.235669	-0.017965	0.481523
