data_functionalizedCrystal
_audit_creation_method	'MofGen! by Chris Wilmer'
_symmetry_space_group_name_H-M	'P1'
_symmetry_Int_Tables_number	1
_symmetry_cell_setting	triclinic
loop_
_symmetry_equiv_pos_as_xyz
  x,y,z
_cell_length_a	16.992694
_cell_length_b	23.532357
_cell_length_c	15.455313
_cell_angle_alpha	92.642146
_cell_angle_beta	87.142206
_cell_angle_gamma	86.748258
loop_
_atom_site_label
_atom_site_type_symbol
_atom_site_fract_x
_atom_site_fract_y
_atom_site_fract_z
O1	O	1.042872	0.118386	-0.072039
O2	O	1.376206	0.451719	0.261294
O3	O	1.709539	0.785052	0.594627
O4	O	0.814599	0.117060	-0.072065
O5	O	1.147932	0.450394	0.261269
O6	O	1.481266	0.783727	0.594602
O7	O	0.935639	0.035133	-0.072034
O8	O	1.268972	0.368466	0.261300
O9	O	1.602306	0.701799	0.594633
O10	O	0.921833	0.200314	-0.072071
O11	O	1.255166	0.533647	0.261263
O12	O	1.588499	0.866980	0.594596
O13	O	0.928717	0.039797	0.072227
O14	O	1.262051	0.373130	0.405560
O15	O	1.595384	0.706464	0.738893
O16	O	0.807678	0.121725	0.072196
O17	O	1.141011	0.455058	0.405529
O18	O	1.474344	0.788392	0.738862
O19	O	1.035951	0.123050	0.072221
O20	O	1.369284	0.456383	0.405554
O21	O	1.702618	0.789717	0.738888
Cu22	Cu	0.921182	0.122813	0.085380
Cu23	Cu	1.254516	0.456147	0.418714
Cu24	Cu	1.587849	0.789480	0.752047
Cu25	Cu	0.929368	0.117297	-0.085224
Cu26	Cu	1.262701	0.450630	0.248109
Cu27	Cu	1.596034	0.783964	0.581442
O28	O	0.914911	0.204978	0.072190
O29	O	1.248245	0.538311	0.405523
O30	O	1.581578	0.871645	0.738856
C31	C	0.781940	0.117689	0.000062
C32	C	1.115273	0.451022	0.333396
C33	C	1.448606	0.784356	0.666729
C34	C	0.694937	0.112605	0.000053
C35	C	1.028270	0.445939	0.333387
C36	C	1.361603	0.779272	0.666720
C37	C	0.644303	0.161652	0.000043
C38	C	0.977636	0.494985	0.333376
C39	C	1.310969	0.828319	0.666710
C40	C	0.562554	0.156873	0.000056
C41	C	0.895887	0.490206	0.333390
C42	C	1.229220	0.823539	0.666723
C43	C	0.531441	0.103046	0.000073
C44	C	0.864774	0.436379	0.333407
C45	C	1.198108	0.769713	0.666740
C46	C	0.582081	0.053996	0.000086
C47	C	0.915415	0.387329	0.333420
C48	C	1.248748	0.720663	0.666753
C49	C	0.663828	0.058776	0.000080
C50	C	0.997162	0.392109	0.333413
C51	C	1.330495	0.725442	0.666746
C52	C	0.288001	0.083235	0.000101
C53	C	0.621334	0.416568	0.333434
C54	C	0.954668	0.749901	0.666768
C55	C	0.206248	0.078458	0.000105
C56	C	0.539581	0.411792	0.333439
C57	C	0.872914	0.745125	0.666772
C58	C	0.186726	0.181336	0.000077
C59	C	0.520059	0.514669	0.333410
C60	C	0.853392	0.848002	0.666743
C61	C	0.268475	0.186111	0.000065
C62	C	0.601809	0.519444	0.333398
C63	C	0.935142	0.852778	0.666731
C64	C	0.319108	0.137061	0.000082
C65	C	0.652442	0.470394	0.333416
C66	C	0.985775	0.803727	0.666749
N67	N	0.447881	0.098159	0.000084
N68	N	0.781214	0.431493	0.333417
N69	N	1.114548	0.764826	0.666751
N70	N	0.402667	0.141948	0.000078
N71	N	0.736000	0.475281	0.333411
N72	N	1.069333	0.808615	0.666744
C73	C	0.931833	0.016231	0.000099
C74	C	1.265166	0.349564	0.333433
C75	C	1.598499	0.682898	0.666766
C76	C	0.930794	-0.047039	0.000107
C77	C	1.264127	0.286295	0.333441
C78	C	1.597461	0.619628	0.666774
C79	C	0.928050	-0.441918	-0.078577
C80	C	1.261383	-0.108584	0.254757
C81	C	1.594717	0.224749	0.588090
C82	C	0.927063	-0.501366	-0.078582
C83	C	1.260396	-0.168033	0.254752
C84	C	1.593730	0.165300	0.588085
O85	O	0.929735	-0.534272	-0.145459
O86	O	1.263068	-0.200938	0.187875
O87	O	1.596401	0.132395	0.521208
N88	N	0.922801	-0.528559	0.000054
N89	N	1.256134	-0.195226	0.333387
N90	N	1.589467	0.138107	0.666720
C91	C	0.919517	-0.496300	0.078699
C92	C	1.252851	-0.162967	0.412032
C93	C	1.586184	0.170367	0.745366
O94	O	0.915800	-0.524888	0.145584
O95	O	1.249134	-0.191555	0.478917
O96	O	1.582467	0.141778	0.812250
C97	C	0.920498	-0.436852	0.078703
C98	C	1.253832	-0.103519	0.412036
C99	C	1.587165	0.229815	0.745370
C100	C	0.924769	-0.409663	0.000063
C101	C	1.258102	-0.076329	0.333396
C102	C	1.591436	0.257004	0.666729
C103	C	0.932319	-0.414728	-0.157210
C104	C	1.265653	-0.081395	0.176123
C105	C	1.598986	0.251939	0.509456
C106	C	0.933308	-0.355284	-0.157205
C107	C	1.266641	-0.021950	0.176128
C108	C	1.599974	0.311383	0.509462
C109	C	0.930027	-0.323029	-0.078566
C110	C	1.263360	0.010305	0.254768
C111	C	1.596693	0.343638	0.588101
C112	C	0.925757	-0.350218	0.000068
C113	C	1.259091	-0.016885	0.333401
C114	C	1.592424	0.316448	0.666735
C115	C	0.917209	-0.404594	0.157348
C116	C	1.250543	-0.071260	0.490681
C117	C	1.583876	0.262073	0.824014
C118	C	0.918190	-0.345142	0.157345
C119	C	1.251524	-0.011809	0.490678
C120	C	1.584857	0.321525	0.824012
C121	C	0.922461	-0.317953	0.078705
C122	C	1.255794	0.015381	0.412038
C123	C	1.589127	0.348714	0.745371
C124	C	0.923464	-0.258519	0.078713
C125	C	1.256798	0.074814	0.412046
C126	C	1.590131	0.408148	0.745380
N127	N	0.927727	-0.231326	0.000078
N128	N	1.261060	0.102007	0.333411
N129	N	1.594393	0.435340	0.666744
C130	C	0.931008	-0.263581	-0.078562
C131	C	1.264341	0.069752	0.254772
C132	C	1.597674	0.403086	0.588105
C133	C	0.917455	-0.621144	0.078684
C134	C	1.250789	-0.287811	0.412018
C135	C	1.584122	0.045522	0.745351
C136	C	0.916480	-0.680591	0.078681
C137	C	1.249813	-0.347258	0.412014
C138	C	1.583146	-0.013925	0.745348
C139	C	0.924024	-0.685653	-0.078600
C140	C	1.257358	-0.352320	0.254733
C141	C	1.590691	-0.018987	0.588067
C142	C	0.925006	-0.626206	-0.078596
C143	C	1.258339	-0.292872	0.254738
C144	C	1.591672	0.040461	0.588071
C145	C	0.921718	-0.593951	0.000049
C146	C	1.255051	-0.260618	0.333382
C147	C	1.588384	0.072715	0.666716
C148	C	0.933084	-0.138743	-0.078544
C149	C	1.266417	0.194590	0.254789
C150	C	1.599750	0.527923	0.588122
C151	C	0.934075	-0.079294	-0.078532
C152	C	1.267408	0.254040	0.254801
C153	C	1.600742	0.587373	0.588135
C154	C	0.926526	-0.074236	0.078748
C155	C	1.259859	0.259097	0.412082
C156	C	1.593193	0.592430	0.745415
C157	C	0.925539	-0.133681	0.078737
C158	C	1.258872	0.199652	0.412070
C159	C	1.592206	0.532986	0.745403
C160	C	0.928816	-0.165933	0.000083
C161	C	1.262149	0.167400	0.333416
C162	C	1.595482	0.500733	0.666750
O163	O	0.920792	-0.225577	0.145556
O164	O	1.254125	0.107756	0.478889
O165	O	1.587459	0.441090	0.812223
O166	O	0.934714	-0.234984	-0.145435
O167	O	1.268047	0.098349	0.187898
O168	O	1.601380	0.431682	0.521231
C169	C	1.068611	0.122422	0.000092
C170	C	1.401944	0.455755	0.333425
C171	C	1.735277	0.789088	0.666758
C172	C	1.155614	0.127505	0.000095
C173	C	1.488947	0.460838	0.333428
C174	C	1.822280	0.794172	0.666762
C175	C	0.918717	0.223879	0.000055
C176	C	1.252051	0.557213	0.333388
C177	C	1.585384	0.890546	0.666721
C178	C	0.919757	0.287149	0.000041
C179	C	1.253090	0.620482	0.333374
C180	C	1.586423	0.953816	0.666708
N181	N	0.915431	0.126693	0.205374
N182	N	1.248764	0.460026	0.538708
N183	N	1.582098	0.793360	0.872041
N184	N	0.935125	0.113413	-0.205218
N185	N	1.268459	0.446747	0.128115
N186	N	1.601792	0.780080	0.461448
C187	C	0.966871	0.091902	0.250782
C188	C	1.300204	0.425235	0.584115
C189	C	1.633537	0.758568	0.917448
C190	C	0.962528	0.094841	0.341589
C191	C	1.295861	0.428175	0.674922
C192	C	1.629195	0.761508	1.008255
C193	C	0.906749	0.132576	0.386986
C194	C	1.240083	0.465909	0.720320
C195	C	1.573416	0.799242	1.053653
C196	C	0.855304	0.167368	0.341572
C197	C	1.188638	0.500702	0.674906
C198	C	1.521971	0.834035	1.008239
C199	C	0.859643	0.164425	0.250767
C200	C	1.192977	0.497759	0.584101
C201	C	1.526310	0.831092	0.917434
C202	C	0.888020	0.145263	0.658563
C203	C	1.221353	0.478596	0.991896
C204	C	1.554686	0.811930	1.325229
C205	C	0.883686	0.148205	0.749374
C206	C	1.217019	0.481538	1.082708
C207	C	1.550352	0.814871	1.416041
C208	C	0.990909	0.075676	0.749384
C209	C	1.324243	0.409010	1.082717
C210	C	1.657576	0.742343	1.416051
C211	C	0.995247	0.072739	0.658577
C212	C	1.328580	0.406073	0.991911
C213	C	1.661913	0.739406	1.325244
C214	C	0.943799	0.107530	0.613171
C215	C	1.277132	0.440863	0.946505
C216	C	1.610466	0.774197	1.279838
N217	N	0.902311	0.135583	0.479805
N218	N	1.235644	0.468916	0.813139
N219	N	1.568978	0.802249	1.146472
N220	N	0.948234	0.104520	0.520354
N221	N	1.281567	0.437853	0.853687
N222	N	1.614901	0.771186	1.187021
H223	H	0.145492	0.221269	0.000064
H224	H	0.478825	0.554603	0.333398
H225	H	0.812159	0.887936	0.666731
Br226	Br	0.779597	0.218576	0.403180
Br227	Br	1.112930	0.551910	0.736513
Br228	Br	1.446263	0.885243	1.069847
H229	H	0.923858	-0.047964	0.142774
H230	H	1.257192	0.285369	0.476108
H231	H	1.590525	0.618703	0.809441
Br232	Br	0.913726	-0.301372	0.264084
Br233	Br	1.247059	0.031962	0.597417
Br234	Br	1.580393	0.365295	0.930750
Br235	Br	0.539858	-0.019055	0.000118
Br236	Br	0.873191	0.314278	0.333452
Br237	Br	1.206524	0.647611	0.666785
Br238	Br	0.789824	0.211641	0.189143
Br239	Br	1.123157	0.544974	0.522476
Br240	Br	1.456491	0.878307	0.855810
Br241	Br	1.070950	0.021531	0.596965
Br242	Br	1.404283	0.354864	0.930298
Br243	Br	1.737617	0.688197	1.263631
H244	H	0.838262	0.178935	0.786333
H245	H	1.171595	0.512268	1.119666
H246	H	1.504928	0.845601	1.453000
Br247	Br	0.164023	0.005404	0.000147
Br248	Br	0.497357	0.338737	0.333480
Br249	Br	0.830690	0.672070	0.666814
H250	H	0.329217	0.043295	0.000116
H251	H	0.662551	0.376628	0.333449
H252	H	0.995884	0.709961	0.666783
H253	H	0.705055	0.018837	0.000087
H254	H	1.038388	0.352170	0.333421
H255	H	1.371721	0.685503	0.666754
Br256	Br	1.060726	0.028462	0.811009
Br257	Br	1.394060	0.361795	1.144343
Br258	Br	1.727393	0.695128	1.477676
H259	H	0.937554	-0.057159	-0.142573
H260	H	1.270888	0.276174	0.190760
H261	H	1.604221	0.609508	0.524093
Br262	Br	0.818201	0.192479	0.596945
Br263	Br	1.151535	0.525812	0.930279
Br264	Br	1.484868	0.859145	1.263612
Br265	Br	0.937530	-0.182505	-0.185289
Br266	Br	1.270863	0.150829	0.148044
Br267	Br	1.604196	0.484162	0.481378
H268	H	0.936782	-0.333151	-0.221242
H269	H	1.270115	0.000182	0.112091
H270	H	1.603449	0.333515	0.445424
Br271	Br	0.936772	-0.458492	-0.263950
Br272	Br	1.270105	-0.125158	0.069383
Br273	Br	1.603439	0.208175	0.402717
Br274	Br	0.910703	-0.717484	0.185411
Br275	Br	1.244036	-0.384151	0.518745
Br276	Br	1.577369	-0.050818	0.852078
H277	H	0.669628	0.205483	0.000029
H278	H	1.002961	0.538817	0.333362
H279	H	1.336294	0.872150	0.666695
H280	H	1.004414	0.066511	0.378559
H281	H	1.337747	0.399844	0.711892
H282	H	1.671080	0.733178	1.045225
H283	H	0.521330	0.196812	0.000047
H284	H	0.854664	0.530145	0.333380
H285	H	1.187997	0.863478	0.666713
H286	H	0.928482	-0.604072	-0.142632
H287	H	1.261815	-0.270739	0.190702
H288	H	1.595148	0.062594	0.524035
H289	H	0.914780	-0.594886	0.142730
H290	H	1.248114	-0.261553	0.476064
H291	H	1.581447	0.071780	0.809397
Br292	Br	0.310694	0.259164	0.000032
Br293	Br	0.644028	0.592497	0.333365
Br294	Br	0.977361	0.925830	0.666698
H295	H	0.926693	-0.711926	-0.142632
H296	H	1.260027	-0.378593	0.190701
H297	H	1.593360	-0.045259	0.524034
Br298	Br	0.911410	-0.441478	0.264081
Br299	Br	1.244744	-0.108145	0.597414
Br300	Br	1.578077	0.225189	0.930747
H301	H	0.922069	-0.155820	0.142772
H302	H	1.255402	0.177513	0.476105
H303	H	1.588736	0.510847	0.809438
H304	H	1.012295	0.061177	0.213825
H305	H	1.345628	0.394510	0.547158
H306	H	1.678961	0.727844	0.880492
