data_functionalizedCrystal
_audit_creation_method	'MofGen! by Chris Wilmer'
_symmetry_space_group_name_H-M	'P1'
_symmetry_Int_Tables_number	1
_symmetry_cell_setting	triclinic
loop_
_symmetry_equiv_pos_as_xyz
  x,y,z
_cell_length_a	19.288840
_cell_length_b	19.188924
_cell_length_c	18.366186
_cell_angle_alpha	89.991683
_cell_angle_beta	89.983729
_cell_angle_gamma	83.133990
loop_
_atom_site_label
_atom_site_type_symbol
_atom_site_fract_x
_atom_site_fract_y
_atom_site_fract_z
O1	O	0.921368	0.087016	-0.060675
O2	O	0.719106	0.098784	-0.060650
O3	O	0.826076	-0.008757	-0.060654
O4	O	0.814398	0.194557	-0.060670
O5	O	0.826058	-0.008762	0.060445
O6	O	0.719088	0.098779	0.060450
O7	O	0.921350	0.087011	0.060425
Zn8	Zn	0.820216	0.092894	0.079664
Zn9	Zn	0.820240	0.092901	-0.079889
O10	O	0.814379	0.194552	0.060429
C11	C	0.693220	0.098406	-0.000097
C12	C	0.616115	0.097278	-0.000087
C13	C	0.579922	0.096739	-0.066100
C14	C	0.507475	0.095671	-0.066109
C15	C	0.471226	0.095129	-0.000101
C16	C	0.507428	0.095672	0.065921
C17	C	0.579873	0.096746	0.065928
C18	C	0.361889	0.052528	0.050464
C19	C	0.289446	0.051449	0.050454
C20	C	0.247782	0.091817	-0.000120
C21	C	0.278571	0.133255	-0.050696
C22	C	0.351016	0.134330	-0.050689
C23	C	0.392672	0.093964	-0.000101
C24	C	0.133033	0.090122	-0.066147
C25	C	0.060584	0.089059	-0.066153
C26	C	0.060540	0.089052	0.065879
C27	C	0.132986	0.090122	0.065883
C28	C	0.169229	0.090654	-0.000132
C29	C	0.825690	-0.034771	-0.000104
C30	C	0.824557	-0.112275	-0.000102
C31	C	0.824038	-0.148671	-0.066113
C32	C	0.822964	-0.221494	-0.066119
C33	C	0.822422	-0.257919	-0.000109
C34	C	0.822937	-0.221514	0.065911
C35	C	0.824005	-0.148692	0.065915
N36	N	0.860266	-0.377591	0.049016
N37	N	0.859254	-0.446769	0.049008
C38	C	0.819205	-0.477328	-0.000115
N39	N	0.780215	-0.436096	-0.049242
N40	N	0.781231	-0.366912	-0.049236
C41	C	0.821264	-0.336883	-0.000105
C42	C	0.817520	-0.592686	-0.066137
C43	C	0.816441	-0.665510	-0.066140
C44	C	0.816422	-0.665529	0.065892
C45	C	0.817494	-0.592707	0.065893
C46	C	0.818046	-0.556290	-0.000124
C47	C	0.947236	0.087389	-0.000130
C48	C	1.024340	0.088517	-0.000144
C49	C	0.814766	0.220565	-0.000123
C50	C	0.815899	0.298070	-0.000129
N51	N	0.820205	0.092889	0.188556
N52	N	0.820257	0.092901	-0.188780
C53	C	0.867587	0.045293	0.226654
C54	C	0.867591	0.045290	0.302882
C55	C	0.820220	0.092895	0.341008
C56	C	0.772829	0.140494	0.302901
C57	C	0.772822	0.140491	0.226674
C58	C	0.810925	0.156512	0.461764
C59	C	0.810938	0.156516	0.537989
C60	C	0.820240	0.092903	0.576116
C61	C	0.829544	0.029284	0.538008
C62	C	0.829537	0.029281	0.461782
C63	C	0.820223	0.092903	0.423663
C64	C	0.867629	0.045300	0.696869
C65	C	0.867629	0.045296	0.773098
C66	C	0.772870	0.140506	0.773116
C67	C	0.772867	0.140504	0.696888
C68	C	0.820251	0.092902	0.658769
H69	H	0.162543	0.090562	-0.119900
C70	C	0.824433	-0.109061	-0.137759
C71	C	0.765269	-0.059240	-0.141553
C72	C	0.765572	-0.022744	-0.207550
H73	H	0.823906	-0.141118	-0.177103
H74	H	0.865298	-0.086030	-0.140602
H75	H	0.724414	-0.082270	-0.138717
H76	H	0.765783	-0.027168	-0.102224
H77	H	0.806436	0.000286	-0.210393
H78	H	0.765047	-0.054807	-0.246889
H79	H	0.725433	0.011067	-0.210130
H80	H	0.906167	0.006531	0.195620
C81	C	0.021360	0.088584	-0.137884
C82	C	0.031006	0.148889	-0.177728
C83	C	-0.005109	0.148470	-0.243815
H84	H	-0.026992	0.087907	-0.128540
H85	H	0.038683	0.048071	-0.165038
H86	H	0.013680	0.189390	-0.150580
H87	H	0.079351	0.149578	-0.187091
H88	H	0.012214	0.107958	-0.270969
H89	H	-0.053459	0.147791	-0.234464
H90	H	0.001436	0.189382	-0.270860
H91	H	0.162456	0.090556	0.119638
C92	C	0.839553	-0.039846	0.579292
C93	C	0.786078	-0.079900	0.560762
C94	C	0.795287	-0.143589	0.598772
H95	H	0.838205	-0.030843	0.630160
H96	H	0.883423	-0.064891	0.566766
H97	H	0.742219	-0.054861	0.573293
H98	H	0.787416	-0.088923	0.509901
H99	H	0.839156	-0.168634	0.586246
H100	H	0.793940	-0.134578	0.649637
H101	H	0.759009	-0.170776	0.586199
C102	C	0.822460	-0.260985	0.137633
C103	C	0.882447	-0.251313	0.177465
C104	C	0.882023	-0.287654	0.243545
H105	H	0.821787	-0.309584	0.128279
H106	H	0.782154	-0.243588	0.164800
H107	H	0.922742	-0.268713	0.150304
H108	H	0.883132	-0.202722	0.186838
H109	H	0.841717	-0.270257	0.270712
H110	H	0.881348	-0.336251	0.234184
H111	H	0.922720	-0.281091	0.270582
H112	H	0.815976	-0.695186	0.119638
C113	C	0.824461	-0.109246	0.137642
C114	C	0.764458	-0.118926	0.177481
C115	C	0.764860	-0.082605	0.243564
H116	H	0.825141	-0.060645	0.128292
H117	H	0.864756	-0.126654	0.164802
H118	H	0.724173	-0.101514	0.150327
H119	H	0.763765	-0.167519	0.186851
H120	H	0.805154	-0.100013	0.270724
H121	H	0.765541	-0.034006	0.234206
H122	H	0.724152	-0.089173	0.270606
H123	H	0.477909	0.095231	0.119665
H124	H	0.803366	0.208319	0.569011
C125	C	0.721325	0.192113	0.814461
C126	C	0.653107	0.180956	0.795961
C127	C	0.605602	0.228476	0.834045
H128	H	0.728627	0.238722	0.801989
H129	H	0.728066	0.185295	0.865324
H130	H	0.646369	0.187780	0.745111
H131	H	0.645783	0.134356	0.808436
H132	H	0.612343	0.221658	0.884907
H133	H	0.612910	0.275083	0.821569
H134	H	0.559311	0.220909	0.821503
H135	H	0.906176	0.006530	0.333907
H136	H	0.822537	-0.251132	-0.119875
C137	C	0.818103	-0.553318	0.137640
C138	C	0.817419	-0.600805	0.195450
C139	C	0.817989	-0.564547	0.261557
H140	H	0.778036	-0.519451	0.140497
H141	H	0.859033	-0.530387	0.140417
H142	H	0.776493	-0.623724	0.192674
H143	H	0.857483	-0.634673	0.192617
H144	H	0.858919	-0.541616	0.264334
H145	H	0.777921	-0.530681	0.264406
H146	H	0.817532	-0.596762	0.300788
H147	H	0.734237	0.179250	0.195654
H148	H	0.817966	-0.563034	-0.119892
C149	C	0.468297	0.095053	-0.137860
C150	C	0.515545	0.095734	-0.195670
C151	C	0.479484	0.095156	-0.261777
H152	H	0.434607	0.135329	-0.140714
H153	H	0.445484	0.053910	-0.140639
H154	H	0.538347	0.136872	-0.192892
H155	H	0.549236	0.055461	-0.192841
H156	H	0.456670	0.054014	-0.264556
H157	H	0.445794	0.135434	-0.264623
H158	H	0.511536	0.095612	-0.301009
C159	C	0.384391	0.179447	-0.105510
C160	C	0.357353	0.249870	-0.095964
C161	C	0.388088	0.291456	-0.146444
H162	H	0.374474	0.164990	-0.153470
H163	H	0.433503	0.174353	-0.098258
H164	H	0.308253	0.254961	-0.103222
H165	H	0.367269	0.264349	-0.048015
H166	H	0.437199	0.286361	-0.139191
H167	H	0.378169	0.276992	-0.194400
H168	H	0.369752	0.339243	-0.139969
H169	H	0.609426	0.097172	-0.119855
H170	H	0.816015	-0.695141	-0.119896
H171	H	0.031026	0.088614	0.119624
H172	H	0.837111	-0.022520	0.430757
H173	H	0.264384	0.017704	0.091633
H174	H	0.906210	0.006537	0.665832
C175	C	0.233303	0.177186	-0.105500
C176	C	0.185259	0.224984	-0.068423
C177	C	0.143553	0.265467	-0.118886
H178	H	0.208915	0.147367	-0.134771
H179	H	0.261993	0.202056	-0.135606
H180	H	0.156572	0.200116	-0.038330
H181	H	0.209627	0.254818	-0.039155
H182	H	0.172243	0.290337	-0.148992
H183	H	0.119170	0.235642	-0.148154
H184	H	0.110955	0.297907	-0.093737
C185	C	0.919155	-0.006413	0.814334
C186	C	0.960660	-0.048084	0.764632
C187	C	1.008141	-0.095719	0.802592
H188	H	0.894350	-0.035482	0.844088
H189	H	0.948026	0.018616	0.844038
H190	H	0.931793	-0.073111	0.734940
H191	H	0.985481	-0.019034	0.734876
H192	H	1.037012	-0.070691	0.832296
H193	H	0.983330	-0.124784	0.832344
H194	H	1.036312	-0.123995	0.768875
C195	C	0.721508	0.192301	0.655560
C196	C	0.732575	0.260882	0.674072
C197	C	0.685279	0.308618	0.636009
H198	H	0.675147	0.184938	0.668041
H199	H	0.728290	0.185531	0.604695
H200	H	0.725788	0.267650	0.724925
H201	H	0.778927	0.268268	0.661588
H202	H	0.692060	0.301848	0.585144
H203	H	0.638921	0.301247	0.648493
H204	H	0.692785	0.355155	0.648558
C205	C	0.800859	0.225658	0.420506
C206	C	0.792743	0.281372	0.470191
C207	C	0.783482	0.345076	0.432211
H208	H	0.760407	0.227286	0.390779
H209	H	0.840546	0.229456	0.390773
H210	H	0.753060	0.277575	0.499911
H211	H	0.833188	0.279768	0.499919
H212	H	0.823168	0.348874	0.402478
H213	H	0.743030	0.346696	0.402486
H214	H	0.777980	0.382886	0.465916
H215	H	0.395806	0.019654	0.091650
C216	C	0.721429	0.192291	0.344197
C217	C	0.732461	0.260873	0.325620
C218	C	0.685113	0.308605	0.363639
H219	H	0.728169	0.185577	0.395063
H220	H	0.675083	0.184869	0.331709
H221	H	0.778796	0.268292	0.338113
H222	H	0.725716	0.267610	0.274761
H223	H	0.638768	0.301183	0.351151
H224	H	0.691857	0.301884	0.414503
H225	H	0.692588	0.355143	0.351035
C226	C	0.619053	0.097288	0.137679
C227	C	0.571808	0.096570	0.195488
C228	C	0.607879	0.097057	0.261596
H229	H	0.641891	0.138401	0.140527
H230	H	0.652727	0.056982	0.140468
H231	H	0.538147	0.136873	0.192701
H232	H	0.548969	0.055460	0.192665
H233	H	0.641553	0.056751	0.264384
H234	H	0.630716	0.138171	0.264436
H235	H	0.575830	0.096564	0.300827
