data_functionalizedCrystal
_audit_creation_method	'MofGen! by Chris Wilmer'
_symmetry_space_group_name_H-M	'P1'
_symmetry_Int_Tables_number	1
_symmetry_cell_setting	triclinic
loop_
_symmetry_equiv_pos_as_xyz
  x,y,z
_cell_length_a	19.805407
_cell_length_b	19.805405
_cell_length_c	12.759393
_cell_angle_alpha	89.966133
_cell_angle_beta	89.976310
_cell_angle_gamma	90.026726
loop_
_atom_site_label
_atom_site_type_symbol
_atom_site_fract_x
_atom_site_fract_y
_atom_site_fract_z
Zn1	Zn	1.034762	-0.269430	-0.594073
Zn2	Zn	1.534762	0.230570	-0.094073
Zn3	Zn	1.034668	-0.382633	-0.418382
Zn4	Zn	1.534668	0.117367	0.081618
Zn5	Zn	0.921568	-0.269463	-0.418399
Zn6	Zn	1.421568	0.230537	0.081601
Zn7	Zn	0.921539	-0.382583	-0.594011
Zn8	Zn	1.421539	0.117417	-0.094011
O9	O	0.978134	-0.326027	-0.506216
O10	O	1.478134	0.173973	-0.006216
O11	O	1.129466	-0.284454	-0.570786
O12	O	1.629466	0.215546	-0.070786
O13	O	1.019638	-0.367656	-0.271363
O14	O	1.519638	0.132344	0.228637
O15	O	0.936635	-0.174742	-0.441736
O16	O	1.436635	0.325258	0.058264
O17	O	1.129397	-0.367624	-0.441707
O18	O	1.629397	0.132376	0.058293
O19	O	1.019798	-0.174718	-0.570802
O20	O	1.519798	0.325282	-0.070802
O21	O	0.936544	-0.284510	-0.271376
O22	O	1.436544	0.215490	0.228624
O23	O	0.826848	-0.284462	-0.441676
O24	O	1.326848	0.215538	0.058324
O25	O	0.936586	-0.367538	-0.741040
O26	O	1.436586	0.132462	-0.241040
O27	O	0.826827	-0.367570	-0.570697
O28	O	1.326827	0.132430	-0.070697
O29	O	1.019770	-0.284405	-0.741086
O30	O	1.519770	0.215595	-0.241086
O31	O	1.019610	-0.477343	-0.441647
O32	O	1.519610	0.022657	0.058353
O33	O	0.936495	-0.477306	-0.570681
O34	O	1.436495	0.022694	-0.070681
C35	C	0.802278	-0.326014	-0.506182
C36	C	1.302278	0.173986	-0.006182
C37	C	0.727046	-0.326025	-0.506193
C38	C	1.227046	0.173975	-0.006193
C39	C	0.978057	-0.501883	-0.506178
C40	C	1.478057	-0.001883	-0.006178
C41	C	0.978086	-0.577115	-0.506197
C42	C	1.478086	-0.077115	-0.006197
C43	C	0.691709	-0.369365	-0.573265
C44	C	1.191709	0.130635	-0.073265
C45	C	0.621020	-0.369366	-0.573280
C46	C	1.121020	0.130634	-0.073280
C47	C	0.585671	-0.326031	-0.506216
C48	C	1.085671	0.173969	-0.006216
C49	C	0.621013	-0.282686	-0.439141
C50	C	1.121013	0.217314	0.060859
C51	C	0.691700	-0.282682	-0.439132
C52	C	1.191700	0.217318	0.060868
C53	C	0.335940	-0.282701	-0.439175
C54	C	0.835940	0.217299	0.060825
C55	C	0.265248	-0.282710	-0.439187
C56	C	0.765248	0.217290	0.060813
C57	C	0.265260	-0.369385	-0.573324
C58	C	0.765260	0.130615	-0.073324
C59	C	0.335947	-0.369381	-0.573315
C60	C	0.835947	0.130619	-0.073315
C61	C	0.371283	-0.326034	-0.506244
C62	C	0.871283	0.173966	-0.006244
C63	C	0.447932	-0.326033	-0.506230
C64	C	0.947932	0.173967	-0.006230
C65	C	0.509024	-0.326035	-0.506224
C66	C	1.009024	0.173965	-0.006224
C67	C	1.021363	-0.612389	-0.573455
C68	C	1.521363	-0.112389	-0.073455
C69	C	1.021388	-0.683077	-0.573474
C70	C	1.521388	-0.183077	-0.073474
C71	C	0.978138	-0.718491	-0.506230
C72	C	1.478138	-0.218491	-0.006230
C73	C	0.934856	-0.683213	-0.438970
C74	C	1.434856	-0.183213	0.061030
C75	C	0.934828	-0.612526	-0.438956
C76	C	1.434828	-0.112526	0.061044
C77	C	0.934965	-0.968286	-0.439024
C78	C	1.434965	-0.468286	0.060976
C79	C	0.934997	-1.038978	-0.439040
C80	C	1.434997	-0.538978	0.060960
C81	C	1.021524	-1.038838	-0.573542
C82	C	1.521524	-0.538838	-0.073542
C83	C	1.021496	-0.968150	-0.573528
C84	C	1.521496	-0.468150	-0.073528
C85	C	0.978212	-0.932878	-0.506272
C86	C	1.478212	-0.432878	-0.006272
C87	C	0.978185	-0.856230	-0.506253
C88	C	1.478185	-0.356230	-0.006253
C89	C	0.978168	-0.795138	-0.506243
C90	C	1.478168	-0.295138	-0.006243
C91	C	1.154677	-0.326041	-0.506251
C92	C	1.654677	0.173959	-0.006251
C93	C	1.229909	-0.326047	-0.506266
C94	C	1.729909	0.173953	-0.006266
C95	C	0.978185	-0.325962	-0.780250
C96	C	1.478185	0.174038	-0.280250
C97	C	0.978206	-0.325935	-0.897027
C98	C	1.478206	0.174065	-0.397027
C99	C	0.978230	-0.149485	-0.506278
C100	C	1.478230	0.350515	-0.006278
C101	C	0.978271	-0.074253	-0.506304
C102	C	1.478271	0.425747	-0.006304
C103	C	1.021524	-0.282641	-0.951914
C104	C	1.521524	0.217359	-0.451914
C105	C	1.021535	-0.282612	-1.061638
C106	C	1.521535	0.217388	-0.561638
C107	C	0.934910	-0.369176	-1.061578
C108	C	1.434910	0.130824	-0.561578
C109	C	0.934896	-0.369202	-0.951856
C110	C	1.434896	0.130798	-0.451856
C111	C	0.978123	-0.326043	-0.233249
C112	C	1.478123	0.173957	0.266751
C113	C	0.978232	-0.325880	-0.116473
C114	C	1.478232	0.174120	0.383527
H115	H	0.720485	-0.404656	-0.627873
H116	H	1.220485	0.095344	-0.127873
N117	N	1.068031	-0.721123	-0.646069
N118	N	1.568031	-0.221123	-0.146069
H119	H	1.095417	-0.687962	-0.688678
H120	H	1.595417	-0.187962	-0.188678
H121	H	1.099390	-0.750465	-0.603406
H122	H	1.599390	-0.250465	-0.103406
H123	H	0.899617	-0.404456	-0.907166
H124	H	1.399617	0.095544	-0.407166
N125	N	0.888211	-0.721409	-0.366438
N126	N	1.388211	-0.221409	0.133562
H127	H	0.898745	-0.709128	-0.291387
H128	H	1.398745	-0.209128	0.208613
H129	H	0.839857	-0.709128	-0.382770
H130	H	1.339857	-0.209128	0.117230
N131	N	0.582905	-0.416120	-0.645607
N132	N	1.082905	0.083880	-0.145607
H133	H	0.616025	-0.443579	-0.688080
H134	H	1.116025	0.056421	-0.188080
H135	H	0.553555	-0.447406	-0.602740
H136	H	1.053555	0.052594	-0.102740
N137	N	1.068006	-0.574192	-0.645988
N138	N	1.568006	-0.074192	-0.145988
H139	H	1.099377	-0.544856	-0.603336
H140	H	1.599377	-0.044856	-0.103336
H141	H	1.095379	-0.607306	-0.688589
H142	H	1.595379	-0.107306	-0.188589
N143	N	0.374045	-0.235960	-0.366820
N144	N	0.874045	0.264040	0.133180
H145	H	0.424189	-0.242529	-0.376987
H146	H	0.924189	0.257471	0.123013
H147	H	0.361712	-0.187633	-0.383302
H148	H	0.861712	0.312367	0.116698
N149	N	0.582890	-0.235957	-0.366786
N150	N	1.082890	0.264043	0.133214
H151	H	0.532747	-0.242542	-0.376957
H152	H	1.032747	0.257458	0.123043
H153	H	0.595228	-0.246450	-0.291731
H154	H	1.095228	0.253550	0.208269
N155	N	0.374074	-0.416125	-0.645641
N156	N	0.874074	0.083875	-0.145641
H157	H	0.340961	-0.443581	-0.688135
H158	H	0.840961	0.056419	-0.188135
H159	H	0.403430	-0.388609	-0.694332
H160	H	0.903430	0.111391	-0.194332
H161	H	0.236468	-0.247417	-0.384576
H162	H	0.736468	0.252583	0.115424
N163	N	1.068142	-0.929951	-0.646055
N164	N	1.568142	-0.429951	-0.146055
H165	H	1.116514	-0.942217	-0.629816
H166	H	1.616514	-0.442217	-0.129816
H167	H	1.057548	-0.942241	-0.721079
H168	H	1.557548	-0.442241	-0.221079
N169	N	0.227147	-0.416139	-0.645669
N170	N	0.727147	0.083861	-0.145669
H171	H	0.177003	-0.409567	-0.635505
H172	H	0.677003	0.090433	-0.135505
H173	H	0.239533	-0.405665	-0.720731
H174	H	0.739533	0.094335	-0.220731
N175	N	1.068237	-0.235980	-0.892774
N176	N	1.568237	0.264020	-0.392774
H177	H	1.040748	-0.204622	-0.847243
H178	H	1.540748	0.295378	-0.347243
H179	H	1.099570	-0.263557	-0.847319
H180	H	1.599570	0.236443	-0.347319
H181	H	0.899722	-0.939573	-0.384259
H182	H	1.399722	-0.439573	0.115741
H183	H	0.899587	-0.583807	-0.384190
H184	H	1.399587	-0.083807	0.115810
H185	H	0.720471	-0.247387	-0.384520
H186	H	1.220471	0.252613	0.115480
H187	H	1.056807	-0.247356	-1.106322
H188	H	1.556807	0.252644	-0.606322
N189	N	0.888189	-0.415831	-1.120715
N190	N	1.388189	0.084169	-0.620715
H191	H	0.894767	-0.409244	-1.198553
H192	H	1.394767	0.090756	-0.698553
H193	H	0.898682	-0.464180	-1.101531
H194	H	1.398682	0.035820	-0.601531
H195	H	1.056766	-1.067565	-0.628308
H196	H	1.556766	-0.567565	-0.128308
H197	H	0.899774	-1.067810	-0.384280
H198	H	1.399774	-0.567810	0.115720
