data_functionalizedCrystal
_audit_creation_method	'MofGen! by Chris Wilmer'
_symmetry_space_group_name_H-M	'P1'
_symmetry_Int_Tables_number	1
_symmetry_cell_setting	triclinic
loop_
_symmetry_equiv_pos_as_xyz
  x,y,z
_cell_length_a	14.853566
_cell_length_b	13.330367
_cell_length_c	9.065218
_cell_angle_alpha	89.993138
_cell_angle_beta	84.325150
_cell_angle_gamma	90.004068
loop_
_atom_site_label
_atom_site_type_symbol
_atom_site_fract_x
_atom_site_fract_y
_atom_site_fract_z
O1	O	1.197795	0.083353	0.192586
O2	O	1.697795	0.583353	0.692586
O3	O	0.935505	0.083369	0.215533
O4	O	1.435505	0.583369	0.715533
O5	O	1.072072	0.083359	-0.010691
O6	O	1.572072	0.583359	0.489309
O7	O	1.061229	0.083363	0.418809
O8	O	1.561229	0.583363	0.918809
O9	O	1.072051	-0.083488	-0.010655
O10	O	1.572051	0.416512	0.489345
O11	O	0.935484	-0.083478	0.215569
O12	O	1.435484	0.416522	0.715569
O13	O	1.197774	-0.083494	0.192622
O14	O	1.697774	0.416506	0.692622
Cu15	Cu	1.066627	-0.098721	0.204099
Cu16	Cu	1.566627	0.401279	0.704099
Cu17	Cu	1.066652	0.098596	0.204056
Cu18	Cu	1.566652	0.598596	0.704056
O19	O	1.061208	-0.083484	0.418845
O20	O	1.561208	0.416516	0.918845
C21	C	0.901899	-0.000052	0.214511
C22	C	1.401899	0.499948	0.714511
C23	C	0.801792	-0.000046	0.211397
C24	C	1.301792	0.499954	0.711397
C25	C	0.378521	0.090884	0.198202
C26	C	0.878521	0.590884	0.698202
C27	C	0.378519	-0.091019	0.198243
C28	C	0.878519	0.408981	0.698243
C29	C	0.472575	-0.091016	0.201168
C30	C	0.972575	0.408984	0.701168
C31	C	0.519608	-0.000061	0.202612
C32	C	1.019608	0.499939	0.702612
C33	C	0.472585	0.090890	0.201132
C34	C	0.972585	0.590890	0.701132
C35	C	0.519604	-0.181965	0.202663
C36	C	1.019604	0.318035	0.702663
C37	C	0.613665	-0.181966	0.205590
C38	C	1.113665	0.318034	0.705590
C39	C	0.660701	-0.091010	0.207024
C40	C	1.160701	0.408990	0.707024
C41	C	0.613672	-0.000055	0.205542
C42	C	1.113672	0.499945	0.705542
C43	C	0.660705	0.090899	0.206987
C44	C	1.160705	0.590899	0.706987
C45	C	0.613679	0.181856	0.205494
C46	C	1.113679	0.681856	0.705494
C47	C	0.519620	0.181846	0.202566
C48	C	1.019620	0.681846	0.702566
C49	C	0.754759	-0.091001	0.209952
C50	C	1.254759	0.408999	0.709952
C51	C	0.754769	0.090905	0.209916
C52	C	1.254769	0.590905	0.709916
N53	N	1.066617	-0.237502	0.204128
N54	N	1.566617	0.262498	0.704128
C55	C	1.122071	-0.710117	0.293672
C56	C	1.622071	-0.210117	0.793672
C57	C	1.011260	-0.710101	0.114380
C58	C	1.511260	-0.210101	0.614380
C59	C	1.011247	-0.605083	0.114403
C60	C	1.511247	-0.105083	0.614403
C61	C	1.066648	-0.552577	0.204060
C62	C	1.566648	-0.052577	0.704060
C63	C	1.122062	-0.605089	0.293695
C64	C	1.622062	-0.105089	0.793695
C65	C	0.955841	-0.552563	0.024759
C66	C	1.455841	-0.052563	0.524759
C67	C	0.955827	-0.447538	0.024777
C68	C	1.455827	0.052462	0.524777
C69	C	1.011224	-0.395030	0.114443
C70	C	1.511224	0.104970	0.614443
C71	C	1.066639	-0.447548	0.204083
C72	C	1.566639	0.052452	0.704083
C73	C	1.122040	-0.395042	0.293740
C74	C	1.622040	0.104958	0.793740
C75	C	1.177451	-0.447559	0.383388
C76	C	1.677451	0.052441	0.883388
C77	C	1.177458	-0.552581	0.383361
C78	C	1.677458	-0.052581	0.883361
C79	C	1.011216	-0.290008	0.114471
C80	C	1.511216	0.209992	0.614471
C81	C	1.122030	-0.290014	0.293762
C82	C	1.622030	0.209986	0.793762
C83	C	1.231381	-0.000070	0.193643
C84	C	1.731381	0.499930	0.693643
C85	C	1.331488	-0.000070	0.196758
C86	C	1.831488	0.499930	0.696758
C87	C	1.071019	-0.000063	-0.065639
C88	C	1.571019	0.499937	0.434361
C89	C	1.067903	-0.000058	-0.229420
C90	C	1.567903	0.499942	0.270580
N91	N	1.066670	0.237377	0.204015
N92	N	1.566670	0.737377	0.704015
C93	C	1.062260	-0.000060	0.473793
C94	C	1.562260	0.499940	0.973793
C95	C	1.065376	-0.000058	0.637574
C96	C	1.565376	0.499942	1.137574
H97	H	0.651984	0.255911	0.206680
H98	H	1.151984	0.755911	0.706680
Br99	Br	0.936081	-0.781359	-0.007298
Br100	Br	1.436081	-0.281359	0.492702
H101	H	0.481323	0.255898	0.201349
H102	H	0.981323	0.755898	0.701349
Br103	Br	0.314708	0.214319	0.196124
Br104	Br	0.814708	0.714319	0.696124
Br105	Br	0.314688	-0.214451	0.196305
Br106	Br	0.814688	0.285549	0.696305
Br107	Br	1.197213	-0.218764	0.415461
Br108	Br	1.697213	0.281236	0.915461
H109	H	1.167182	-0.752881	0.366666
H110	H	1.667182	-0.252881	0.866666
Br111	Br	0.677478	-0.305403	0.207616
Br112	Br	1.177478	0.194597	0.707616
Br113	Br	0.880613	-0.376274	-0.096859
Br114	Br	1.380613	0.123726	0.403141
H115	H	0.793042	-0.165056	0.211182
H116	H	1.293042	0.334944	0.711182
H117	H	0.910745	-0.595321	-0.048248
H118	H	1.410745	-0.095321	0.451752
Br119	Br	0.455769	-0.305396	0.200728
Br120	Br	0.955769	0.194604	0.700728
H121	H	1.222562	-0.404795	0.456381
H122	H	1.722562	0.095205	0.956381
H123	H	0.966104	-0.247254	0.041476
H124	H	1.466104	0.252746	0.541476
Br125	Br	0.818593	0.214351	0.211859
Br126	Br	1.318593	0.714351	0.711859
Br127	Br	1.252648	-0.623859	0.505021
Br128	Br	1.752648	-0.123859	1.005021
