data_functionalizedCrystal
_audit_creation_method	'MofGen! by Chris Wilmer'
_symmetry_space_group_name_H-M	'P1'
_symmetry_Int_Tables_number	1
_symmetry_cell_setting	triclinic
loop_
_symmetry_equiv_pos_as_xyz
  x,y,z
_cell_length_a	18.101395
_cell_length_b	16.625547
_cell_length_c	16.625539
_cell_angle_alpha	90.023545
_cell_angle_beta	89.971371
_cell_angle_gamma	89.968863
loop_
_atom_site_label
_atom_site_type_symbol
_atom_site_fract_x
_atom_site_fract_y
_atom_site_fract_z
Zn1	Zn	-0.294858	-1.232599	-0.456037
Zn2	Zn	-0.418703	-1.232489	-0.321199
Zn3	Zn	-0.294878	-1.097769	-0.321202
Zn4	Zn	-0.418660	-1.097709	-0.455973
O5	O	-0.356775	-1.165142	-0.388603
O6	O	-0.311296	-1.345417	-0.438175
O7	O	-0.402304	-1.214597	-0.208367
O8	O	-0.191242	-1.115727	-0.339116
O9	O	-0.402284	-1.345336	-0.339110
O10	O	-0.191228	-1.214785	-0.438178
O11	O	-0.311330	-1.115619	-0.208369
O12	O	-0.311289	-0.984929	-0.339054
O13	O	-0.402212	-1.115624	-0.568814
O14	O	-0.402231	-0.984885	-0.438070
O15	O	-0.311254	-1.214727	-0.568861
O16	O	-0.522330	-1.214538	-0.339049
O17	O	-0.522299	-1.115517	-0.438067
C18	C	-0.356758	-0.955651	-0.388556
C19	C	-0.356769	-0.866030	-0.388556
C20	C	-0.356769	-0.793247	-0.388563
C21	C	-0.356772	-0.701939	-0.388579
C22	C	-0.356778	-0.629162	-0.388597
C23	C	-0.356782	-0.537848	-0.388613
C24	C	-0.549185	-1.165031	-0.388569
C25	C	-0.631500	-1.165057	-0.388581
C26	C	-0.782208	-1.165150	-0.388613
C27	C	-0.813573	-1.102816	-0.450865
C28	C	-0.899191	-1.103051	-0.451127
C29	C	-0.930590	-1.165239	-0.388645
C30	C	-0.899409	-1.250244	-0.411514
C31	C	-0.813764	-1.249832	-0.411947
C32	C	-0.813844	-1.143241	-0.303343
C33	C	-0.899496	-1.141418	-0.303815
C34	C	-1.014450	-1.165295	-0.388661
C35	C	-0.698348	-1.165099	-0.388598
C36	C	-0.163613	-1.165275	-0.388655
C37	C	-0.081299	-1.165332	-0.388677
C38	C	-0.356726	-1.165181	-0.598912
C39	C	-0.356705	-1.165198	-0.688533
C40	C	-0.356789	-0.375451	-0.388640
C41	C	-0.356788	-0.465072	-0.388631
C42	C	-0.356689	-1.165211	-0.761315
C43	C	-0.356661	-1.165230	-0.852624
C44	C	-0.356635	-1.165249	-0.925400
C45	C	-0.356608	-1.165269	-1.016715
C46	C	-0.356770	-1.165149	-0.179112
C47	C	-0.356582	-1.165288	-0.089491
H48	H	-0.920279	-1.040026	-0.436832
H49	H	-0.793551	-1.188636	-0.256962
H50	H	-0.919741	-1.297982	-0.367576
O51	O	-0.789826	-1.272082	-0.486248
C52	C	-0.746379	-1.342199	-0.479861
H53	H	-0.761408	-1.375592	-0.422262
H54	H	-0.757152	-1.382732	-0.533915
H55	H	-0.685445	-1.324974	-0.478240
H56	H	-0.793052	-1.039566	-0.436730
O57	O	-0.787804	-1.120054	-0.525767
C58	C	-0.741509	-1.188184	-0.522154
H59	H	-0.755816	-1.225169	-0.466569
H60	H	-0.749878	-1.226413	-0.578351
H61	H	-0.681399	-1.168062	-0.518619
O62	O	-0.924843	-1.272682	-0.485131
C63	C	-0.901898	-1.216142	-0.543168
H64	H	-0.850943	-1.182971	-0.520347
H65	H	-0.887910	-1.248598	-0.601643
H66	H	-0.948287	-1.171137	-0.554445
O67	O	-0.923707	-1.120364	-0.526472
C68	C	-1.001596	-1.120667	-0.527003
H69	H	-1.023053	-1.082746	-0.474834
H70	H	-1.022322	-1.094456	-0.586194
H71	H	-1.022394	-1.185041	-0.520412
H72	H	-0.793009	-1.297872	-0.368568
O73	O	-0.923853	-1.066824	-0.283144
C74	C	-0.965129	-1.071589	-0.211364
H75	H	-0.948282	-1.127796	-0.176653
H76	H	-0.953974	-1.016050	-0.173020
H77	H	-1.026504	-1.074774	-0.226374
H78	H	-0.792311	-1.082286	-0.282480
O79	O	-0.925031	-1.191737	-0.245650
C80	C	-0.971828	-1.249834	-0.280542
H81	H	-0.958053	-1.256354	-0.347143
H82	H	-0.963461	-1.310072	-0.249095
H83	H	-1.031808	-1.230054	-0.273603
