data_functionalizedCrystal
_audit_creation_method	'MofGen! by Chris Wilmer'
_symmetry_space_group_name_H-M	'P1'
_symmetry_Int_Tables_number	1
_symmetry_cell_setting	triclinic
loop_
_symmetry_equiv_pos_as_xyz
  x,y,z
_cell_length_a	10.654550
_cell_length_b	10.540539
_cell_length_c	9.730223
_cell_angle_alpha	90.000775
_cell_angle_beta	89.996251
_cell_angle_gamma	84.505197
loop_
_atom_site_label
_atom_site_type_symbol
_atom_site_fract_x
_atom_site_fract_y
_atom_site_fract_z
O1	O	1.667897	0.178295	-0.114396
O2	O	1.302424	0.195282	-0.114373
O3	O	1.493499	0.002079	-0.114383
O4	O	1.476822	0.371498	-0.114386
O5	O	1.493496	0.002084	0.114197
O6	O	1.302422	0.195287	0.114207
O7	O	1.667895	0.178300	0.114184
Zn8	Zn	1.485158	0.186794	0.150487
Zn9	Zn	1.485161	0.186788	-0.150677
O10	O	1.476820	0.371503	0.114194
C11	C	1.255625	0.194038	-0.000080
C12	C	1.116180	0.190306	-0.000072
C13	C	1.036734	0.304061	-0.000093
C14	C	0.905712	0.300547	-0.000116
C15	C	0.933595	0.069513	-0.000104
C16	C	1.064614	0.073028	-0.000071
C17	C	1.088301	0.421338	-0.000094
C18	C	1.008854	0.535103	-0.000116
C19	C	0.877832	0.531589	-0.000140
C20	C	0.826256	0.414310	-0.000141
C21	C	1.492247	-0.045221	-0.000096
C22	C	1.488505	-0.186168	-0.000103
C23	C	1.345134	-0.369543	-0.000607
C24	C	1.348927	-0.222926	-0.000093
C25	C	1.555675	-0.247847	0.130423
C26	C	1.550912	-0.394389	0.130533
C27	C	1.553753	-0.394914	-0.129405
C28	C	1.555039	-0.247933	-0.131131
C29	C	1.714694	0.179545	-0.000112
C30	C	1.854139	0.183276	-0.000129
C31	C	1.478072	0.418803	-0.000096
C32	C	1.481813	0.559750	-0.000098
N33	N	1.485165	0.186798	0.356024
N34	N	1.485164	0.186774	-0.356213
C35	C	1.569795	0.101277	0.427945
C36	C	1.569791	0.101261	0.571828
C37	C	1.400525	0.272299	0.571855
C38	C	1.400523	0.272308	0.427975
C39	C	1.654437	0.015767	0.355994
C40	C	1.739074	-0.069760	0.427916
C41	C	1.739071	-0.069775	0.571799
C42	C	1.654430	0.015736	0.643760
H43	H	0.719568	0.411458	-0.000139
H44	H	0.891591	-0.025970	-0.000128
H45	H	1.654426	0.015708	0.760919
C46	C	1.307433	0.366374	0.348850
H47	H	1.319546	0.354119	0.252856
H48	H	1.321815	0.451230	0.372427
H49	H	1.223493	0.351781	0.372436
C50	C	1.232419	0.425209	-0.000062
H51	H	1.251754	0.511344	-0.000055
H52	H	1.267228	0.383331	-0.079760
H53	H	1.267184	0.383352	0.079672
H54	H	1.050855	0.630586	-0.000103
C55	C	1.689945	-0.458758	-0.130614
H56	H	1.732941	-0.430985	-0.208975
H57	H	1.688664	-0.548693	-0.133966
H58	H	1.732256	-0.435963	-0.049641
H59	H	1.807977	-0.139423	0.630356
C60	C	0.790444	0.656720	-0.000163
H61	H	0.839924	0.727065	-0.000169
H62	H	0.738731	0.660164	0.079534
H63	H	0.738778	0.660142	-0.079897
C64	C	1.152014	-0.052095	-0.000049
H65	H	1.237429	-0.033202	-0.000013
H66	H	1.136299	-0.100144	-0.079761
H67	H	1.136248	-0.100126	0.079671
H68	H	1.651295	-0.442394	0.136449
C69	C	1.492632	-0.190296	0.261653
H70	H	1.425387	-0.128696	0.237177
H71	H	1.552959	-0.150744	0.314465
H72	H	1.460626	-0.255954	0.314266
C73	C	1.277533	-0.165337	-0.126488
H74	H	1.279767	-0.075450	-0.126347
H75	H	1.192423	-0.185023	-0.123261
H76	H	1.316382	-0.200003	-0.207846
C77	C	1.307440	0.366364	0.651009
H78	H	1.319572	0.354118	0.747000
H79	H	1.223499	0.351796	0.627440
H80	H	1.321845	0.451221	0.627433
C81	C	1.270636	-0.408165	-0.127040
H82	H	1.322213	-0.467764	-0.180649
H83	H	1.246041	-0.334742	-0.180793
H84	H	1.197695	-0.445851	-0.097672
H85	H	1.290221	-0.399729	0.092477
H86	H	1.501268	-0.422569	0.228111
C87	C	1.277030	-0.166474	0.126523
H88	H	1.279093	-0.076568	0.127262
H89	H	1.315652	-0.201729	0.207719
H90	H	1.191973	-0.186280	0.122688
H91	H	1.654450	0.015774	0.238837
H92	H	1.658178	-0.225529	0.135270
H93	H	1.508579	-0.426453	-0.228336
C94	C	1.488745	-0.192609	-0.261582
H95	H	1.420807	-0.132115	-0.236315
H96	H	1.457301	-0.259440	-0.312833
H97	H	1.547231	-0.152109	-0.316066
C98	C	1.832176	-0.163809	0.348765
H99	H	1.820069	-0.151544	0.252774
H100	H	1.817795	-0.248669	0.372328
H101	H	1.916114	-0.149216	0.372350
H102	H	1.656802	-0.223748	-0.139019
