data_functionalizedCrystal
_audit_creation_method	'MofGen! by Chris Wilmer'
_symmetry_space_group_name_H-M	'P1'
_symmetry_Int_Tables_number	1
_symmetry_cell_setting	triclinic
loop_
_symmetry_equiv_pos_as_xyz
  x,y,z
_cell_length_a	12.759401
_cell_length_b	16.625546
_cell_length_c	12.759393
_cell_angle_alpha	90.035119
_cell_angle_beta	90.020938
_cell_angle_gamma	90.023993
loop_
_atom_site_label
_atom_site_type_symbol
_atom_site_fract_x
_atom_site_fract_y
_atom_site_fract_z
Zn1	Zn	1.606210	-0.320930	0.593986
Zn2	Zn	1.939543	0.012404	0.927320
Zn3	Zn	2.272876	0.345737	1.260653
Zn4	Zn	1.606077	-0.455784	0.418292
Zn5	Zn	1.939410	-0.122451	0.751626
Zn6	Zn	2.272744	0.210883	1.084959
Zn7	Zn	1.430508	-0.320973	0.418322
Zn8	Zn	1.763842	0.012361	0.751655
Zn9	Zn	2.097175	0.345694	1.084988
Zn10	Zn	1.430476	-0.455728	0.593930
Zn11	Zn	1.763810	-0.122394	0.927263
Zn12	Zn	2.097143	0.210939	1.260596
O13	O	1.518318	-0.388354	0.506132
O14	O	1.851651	-0.055020	0.839466
O15	O	2.184985	0.278313	1.172799
O16	O	1.753213	-0.338824	0.570692
O17	O	2.086546	-0.005491	0.904025
O18	O	2.419880	0.327843	1.237358
O19	O	1.582745	-0.437943	0.271275
O20	O	1.916079	-0.104609	0.604608
O21	O	2.249412	0.228724	0.937942
O22	O	1.453884	-0.208135	0.441660
O23	O	1.787218	0.125199	0.774993
O24	O	2.120551	0.458532	1.108327
O25	O	1.753116	-0.437901	0.441610
O26	O	2.086449	-0.104568	0.774943
O27	O	2.419782	0.228766	1.108277
O28	O	1.582971	-0.208103	0.570720
O29	O	1.916305	0.125230	0.904053
O30	O	2.249638	0.458564	1.237387
O31	O	1.453756	-0.338897	0.271297
O32	O	1.787089	-0.005564	0.604630
O33	O	2.120422	0.327769	0.937963
O34	O	1.283483	-0.338843	0.441605
O35	O	1.616816	-0.005509	0.774938
O36	O	1.950150	0.327824	1.108271
O37	O	1.453830	-0.437805	0.740958
O38	O	1.787163	-0.104472	1.074292
O39	O	2.120497	0.228862	1.407625
O40	O	1.283460	-0.437847	0.570623
O41	O	1.616793	-0.104513	0.903957
O42	O	1.950126	0.228820	1.237290
O43	O	1.582940	-0.338770	0.741000
O44	O	1.916274	-0.005436	1.074333
O45	O	2.249607	0.327897	1.407667
O46	O	1.582714	-0.568609	0.441555
O47	O	1.916048	-0.235276	0.774888
O48	O	2.249381	0.098058	1.108222
O49	O	1.453701	-0.568568	0.570595
O50	O	1.787035	-0.235234	0.903928
O51	O	2.120368	0.098099	1.237261
C52	C	1.245350	-0.388344	0.506112
C53	C	1.578684	-0.055010	0.839445
C54	C	1.912017	0.278323	1.172778
C55	C	1.128574	-0.388359	0.506128
C56	C	1.461907	-0.055026	0.839461
C57	C	1.795241	0.278308	1.172794
C58	C	1.073727	-0.439989	0.573202
C59	C	1.407061	-0.106655	0.906535
C60	C	1.740394	0.226678	1.239868
C61	C	0.964003	-0.439992	0.573223
C62	C	1.297336	-0.106658	0.906556
C63	C	1.630670	0.226675	1.239889
C64	C	0.963982	-0.336733	0.439086
C65	C	1.297315	-0.003400	0.772419
C66	C	1.630649	0.329934	1.105753
C67	C	1.073704	-0.336726	0.439071
C68	C	1.407037	-0.003393	0.772405
C69	C	1.740371	0.329940	1.105738
C70	C	1.518218	-0.597844	0.506088
C71	C	1.851552	-0.264511	0.839422
C72	C	2.184885	0.068822	1.172755
C73	C	1.518272	-0.687466	0.506105
C74	C	1.851605	-0.354132	0.839438
C75	C	2.184939	-0.020799	1.172771
C76	C	1.518455	-1.015641	0.506214
C77	C	1.851789	-0.682308	0.839548
C78	C	2.185122	-0.348974	1.172881
C79	C	1.518401	-0.924333	0.506187
C80	C	1.851734	-0.590999	0.839520
C81	C	2.185068	-0.257666	1.172853
C82	C	1.518363	-0.851556	0.506159
C83	C	1.851696	-0.518223	0.839492
C84	C	2.185029	-0.184890	1.172826
C85	C	1.518310	-0.760242	0.506132
C86	C	1.851643	-0.426909	0.839466
C87	C	2.184977	-0.093575	1.172799
C88	C	1.792351	-0.388364	0.506154
C89	C	2.125684	-0.055031	0.839487
C90	C	2.459018	0.278303	1.172821
C91	C	1.909128	-0.388369	0.506163
C92	C	2.242461	-0.055035	0.839496
C93	C	2.575794	0.278298	1.172830
C94	C	1.518396	-0.388276	0.780166
C95	C	1.851730	-0.054943	1.113499
C96	C	2.185063	0.278391	1.446833
C97	C	1.518430	-0.388243	0.896943
C98	C	1.851763	-0.054910	1.230276
C99	C	2.185097	0.278423	1.563609
C100	C	1.518446	-0.178045	0.506200
C101	C	1.851780	0.155289	0.839533
C102	C	2.185113	0.488622	1.172866
C103	C	1.518501	-0.088424	0.506228
C104	C	1.851834	0.244910	0.839562
C105	C	2.185168	0.578243	1.172895
C106	C	1.518300	-0.388372	0.233165
C107	C	1.851633	-0.055039	0.566498
C108	C	2.184967	0.278294	0.899832
C109	C	1.518470	-0.388178	0.116389
C110	C	1.851803	-0.054845	0.449722
C111	C	2.185137	0.278488	0.783056
C112	C	1.585663	-0.336667	0.951828
C113	C	1.918996	-0.003334	1.285161
C114	C	2.252329	0.329999	1.618495
C115	C	1.585681	-0.336632	1.061552
C116	C	1.919014	-0.003299	1.394886
C117	C	2.252347	0.330034	1.728219
C118	C	1.451230	-0.439757	1.061496
C119	C	1.784563	-0.106423	1.394829
C120	C	2.117896	0.226910	1.728163
C121	C	1.451208	-0.439787	0.951774
C122	C	1.784541	-0.106453	1.285107
C123	C	2.117874	0.226880	1.618440
H124	H	1.118399	-0.482029	0.627806
H125	H	1.451732	-0.148696	0.961139
H126	H	1.785066	0.184638	1.294473
H127	H	0.919352	-0.482033	0.627843
H128	H	1.252685	-0.148699	0.961176
H129	H	1.586018	0.184634	1.294509
Br130	Br	1.676890	-0.266714	0.877417
Br131	Br	2.010224	0.066619	1.210751
Br132	Br	2.343557	0.399952	1.544084
H133	H	1.640427	-0.294633	1.106235
H134	H	1.973760	0.038701	1.439568
H135	H	2.307093	0.372034	1.772902
Br136	Br	1.359947	-0.509781	0.877279
Br137	Br	1.693280	-0.176447	1.210612
Br138	Br	2.026613	0.156886	1.543946
Br139	Br	1.360008	-0.509708	1.135916
Br140	Br	1.693341	-0.176375	1.469249
Br141	Br	2.026674	0.156959	1.802583
Br142	Br	0.889510	-0.266664	0.348085
Br143	Br	1.222843	0.066669	0.681419
Br144	Br	1.556176	0.400003	1.014752
H145	H	1.118362	-0.294678	0.384451
H146	H	1.451695	0.038655	0.717785
H147	H	1.785028	0.371988	1.051118
