data_functionalizedCrystal
_audit_creation_method	'MofGen! by Chris Wilmer'
_symmetry_space_group_name_H-M	'P1'
_symmetry_Int_Tables_number	1
_symmetry_cell_setting	triclinic
loop_
_symmetry_equiv_pos_as_xyz
  x,y,z
_cell_length_a	14.519731
_cell_length_b	13.596369
_cell_length_c	10.654550
_cell_angle_alpha	89.995191
_cell_angle_beta	95.913122
_cell_angle_gamma	90.005416
loop_
_atom_site_label
_atom_site_type_symbol
_atom_site_fract_x
_atom_site_fract_y
_atom_site_fract_z
O1	O	1.224711	0.081791	-0.164753
O2	O	0.956337	0.081792	-0.184111
O3	O	1.096694	0.081788	0.008366
O4	O	1.084353	0.081795	-0.357230
O5	O	1.096680	-0.081795	0.008376
O6	O	0.956323	-0.081791	-0.184101
O7	O	1.224696	-0.081792	-0.164742
Zn8	Zn	1.090507	-0.107764	-0.174420
Zn9	Zn	1.090526	0.107764	-0.174434
O10	O	1.084339	-0.081788	-0.357220
C11	C	0.921965	0.000001	-0.183199
C12	C	0.819571	0.000001	-0.180481
C13	C	0.736415	0.000005	-0.178272
C14	C	0.632092	0.000006	-0.175513
C15	C	0.548942	0.000005	-0.173322
C16	C	0.444612	0.000008	-0.170563
N17	N	1.090501	-0.254855	-0.174410
C18	C	1.090525	-0.656146	-0.174435
C19	C	1.090515	-0.544495	-0.174432
C20	C	1.090513	-0.455505	-0.174423
C21	C	1.090503	-0.343846	-0.174419
C22	C	1.259068	0.000002	-0.165655
C23	C	1.361462	0.000007	-0.168373
C24	C	1.095781	-0.000002	0.055160
C25	C	1.093070	0.000001	0.194578
N26	N	1.090539	0.254856	-0.174434
C27	C	1.085252	0.000005	-0.404014
C28	C	1.087963	0.000008	-0.543432
C29	C	1.175710	-0.000002	0.274850
C30	C	1.173157	0.000005	0.405846
C31	C	1.005317	0.000014	0.376286
C32	C	1.007871	0.000014	0.245292
C33	C	1.272611	-0.000012	0.291917
C34	C	1.270059	-0.000005	0.422913
H35	H	0.940577	0.000031	0.179939
H36	H	1.303462	-0.070644	0.256588
O37	O	1.308857	0.093543	0.483761
H38	H	1.382082	0.102284	0.464439
O39	O	0.913425	0.000013	0.430984
H40	H	0.925531	0.000005	0.535558
O41	O	1.322810	0.090665	0.253479
H42	H	1.345353	0.135065	0.338546
O43	O	1.318398	-0.090687	0.478711
H44	H	1.344079	-0.135093	0.402140
