data_functionalizedCrystal
_audit_creation_method	'MofGen! by Chris Wilmer'
_symmetry_space_group_name_H-M	'P1'
_symmetry_Int_Tables_number	1
_symmetry_cell_setting	triclinic
loop_
_symmetry_equiv_pos_as_xyz
  x,y,z
_cell_length_a	27.732048
_cell_length_b	14.971486
_cell_length_c	26.210047
_cell_angle_alpha	90.006338
_cell_angle_beta	89.981055
_cell_angle_gamma	96.871608
loop_
_atom_site_label
_atom_site_type_symbol
_atom_site_fract_x
_atom_site_fract_y
_atom_site_fract_z
O1	O	0.641432	-0.106426	-0.042364
O2	O	0.500714	-0.122608	-0.042379
O3	O	0.574845	0.015742	-0.042367
O4	O	0.567301	-0.244777	-0.042375
O5	O	0.574810	0.015744	0.042491
O6	O	0.500679	-0.122607	0.042479
O7	O	0.641398	-0.106425	0.042494
Cu8	Cu	0.571035	-0.114516	0.050235
Cu9	Cu	0.571076	-0.114517	-0.050120
O10	O	0.567267	-0.244775	0.042483
C11	C	0.482688	-0.122268	0.000048
C12	C	0.429028	-0.121245	0.000042
C13	C	0.090561	-0.196562	0.000062
C14	C	-0.111116	-0.192767	0.000067
O15	O	-0.142054	-0.261639	0.000087
N16	N	-0.130619	-0.110731	0.000068
C17	C	-0.099698	-0.029637	0.000072
O18	O	-0.120914	0.040227	0.000079
C19	C	0.101978	-0.033433	0.000071
C20	C	0.121477	-0.115475	0.000064
C21	C	0.110061	-0.278597	0.000056
C22	C	0.160477	-0.279545	0.000052
C23	C	0.191393	-0.198458	0.000054
C24	C	0.171893	-0.116423	0.000060
C25	C	0.132897	0.047659	0.000079
C26	C	0.183319	0.046703	0.000080
C27	C	0.202818	-0.035339	0.000073
C28	C	0.253226	-0.036284	0.000059
N29	N	0.272729	-0.118320	0.000057
C30	C	0.241812	-0.199407	0.000055
C31	C	-0.205582	-0.027650	0.000072
C32	C	-0.256000	-0.026701	0.000071
C33	C	-0.267415	-0.189831	0.000066
C34	C	-0.216995	-0.190779	0.000063
C35	C	-0.186079	-0.109686	0.000070
C36	C	0.347690	-0.201392	0.000046
C37	C	0.398112	-0.202332	0.000040
C38	C	0.409522	-0.039203	0.000047
C39	C	0.359105	-0.038261	0.000050
C40	C	0.328190	-0.119363	0.000052
O41	O	0.284193	0.032551	0.000044
O42	O	0.263037	-0.269261	0.000059
C43	C	0.040144	-0.195614	0.000066
C44	C	0.020644	-0.113579	0.000072
C45	C	0.051561	-0.032492	0.000074
C46	C	-0.029774	-0.112630	0.000071
C47	C	-0.060691	-0.193717	0.000069
C48	C	-0.041188	-0.275753	0.000068
C49	C	0.009228	-0.276701	0.000064
C50	C	0.032059	0.049544	0.000076
C51	C	-0.018358	0.050486	0.000079
C52	C	-0.049275	-0.030602	0.000077
C53	C	0.574490	0.049063	0.000062
C54	C	0.573479	0.148344	0.000061
C55	C	0.659424	-0.106765	0.000066
C56	C	0.713083	-0.107788	0.000069
C57	C	0.567621	-0.278096	0.000053
C58	C	0.568632	-0.377377	0.000050
N59	N	0.571010	-0.114514	0.120819
C60	C	0.617029	0.206257	0.000066
C61	C	0.616076	0.299542	0.000061
C62	C	0.571573	0.334911	0.000054
C63	C	0.528020	0.276990	0.000047
C64	C	0.528973	0.183707	0.000049
C65	C	0.526036	0.471421	0.000045
C66	C	0.525082	0.564710	0.000045
C67	C	0.613139	0.587255	0.000057
C68	C	0.614092	0.493973	0.000059
C69	C	0.570539	0.436058	0.000053
N70	N	0.571105	-0.114512	-0.120704
C71	C	0.538219	-0.175750	0.526781
C72	C	0.538196	-0.175751	0.313122
O73	O	0.510258	-0.227808	0.285499
N74	N	0.571025	-0.114511	0.286403
C75	C	0.603861	-0.053262	0.313101
O76	O	0.631781	-0.001168	0.285471
C77	C	0.603882	-0.053258	0.526758
C78	C	0.571053	-0.114508	0.553475
C79	C	0.505393	-0.236995	0.553498
C80	C	0.505401	-0.236997	0.606910
C81	C	0.538235	-0.175755	0.633604
C82	C	0.571061	-0.114511	0.606887
C83	C	0.636715	0.007994	0.553455
C84	C	0.636716	0.007991	0.606873
C85	C	0.603888	-0.053259	0.633590
C86	C	0.603903	-0.053271	0.686993
N87	N	0.571073	-0.114511	0.713712
C88	C	0.538239	-0.175753	0.687018
C89	C	0.603849	-0.053270	0.200927
C90	C	0.603844	-0.053272	0.147513
C91	C	0.538178	-0.175759	0.147539
C92	C	0.538185	-0.175761	0.200954
C93	C	0.571019	-0.114510	0.227647
C94	C	0.538259	-0.175755	0.799186
C95	C	0.538271	-0.175754	0.852602
C96	C	0.603935	-0.053264	0.852572
C97	C	0.603925	-0.053267	0.799160
C98	C	0.571083	-0.114516	0.772469
O99	O	0.631822	-0.001235	0.714649
O100	O	0.510317	-0.227827	0.714657
C101	C	0.538211	-0.175748	0.473370
C102	C	0.571037	-0.114503	0.446652
C103	C	0.603871	-0.053261	0.473347
C104	C	0.571033	-0.114505	0.393238
C105	C	0.538199	-0.175747	0.366544
C106	C	0.505369	-0.236987	0.393264
C107	C	0.505377	-0.236990	0.446675
C108	C	0.636701	0.007979	0.446627
C109	C	0.636691	0.007975	0.393215
C110	C	0.603857	-0.053266	0.366521
H111	H	-0.292596	-0.255855	0.000065
H112	H	0.653269	0.177468	0.000075
H113	H	0.491784	0.305795	0.000039
H114	H	0.651539	0.346692	0.000066
H115	H	-0.066370	-0.341777	0.000064
O116	O	0.662091	0.455818	0.000060
H117	H	0.692216	0.511759	0.000056
O118	O	0.672135	0.074047	0.635665
H119	H	0.694962	0.116626	0.608110
O120	O	-0.172239	0.059820	0.000079
H121	H	-0.179168	0.099106	-0.034509
O122	O	0.502761	-0.241803	0.118736
H123	H	0.508954	-0.311461	0.128970
H124	H	0.176348	-0.346352	0.000046
H125	H	0.343228	0.028543	0.000049
H126	H	0.493510	0.136554	0.000045
O127	O	0.660117	0.649712	0.000058
H128	H	0.651980	0.720520	0.000049
O129	O	0.076718	-0.366062	0.000051
H130	H	0.098756	-0.423256	0.000044
O131	O	-0.277031	0.061786	0.000077
H132	H	-0.247057	0.118006	0.000086
O133	O	0.470008	-0.303087	0.635724
H134	H	0.447182	-0.345672	0.608180
H135	H	0.630581	-0.003406	0.125764
O136	O	0.477084	0.602864	0.000029
H137	H	0.446959	0.546923	0.000015
O138	O	0.030257	-0.365189	0.000059
H139	H	0.052947	-0.369522	0.034643
H140	H	0.630587	-0.003391	0.222657
H141	H	0.490570	0.424269	0.000039
O142	O	-0.195965	-0.279266	0.000059
H143	H	-0.173278	-0.283599	0.034646
H144	H	0.434703	0.026816	0.000047
O145	O	0.469969	-0.303066	0.475480
H146	H	0.446453	-0.265735	0.499834
O147	O	0.639326	0.012821	0.770352
H148	H	0.618939	0.056030	0.746041
H149	H	0.511538	-0.225634	0.874354
H150	H	0.511515	-0.225628	0.777460
O151	O	0.469979	-0.303059	0.524710
H152	H	0.447160	-0.345644	0.552270
H153	H	0.117030	0.114466	0.000085
O154	O	0.216665	0.134169	0.000085
H155	H	0.194632	0.191370	0.000086
H156	H	0.511453	-0.225636	0.222704
O157	O	0.672118	0.074066	0.524646
H158	H	0.694941	0.116655	0.552190
H159	H	-0.034229	0.117299	0.000081
O160	O	0.065402	0.137007	0.000078
H161	H	0.043365	0.194203	0.000077
O162	O	0.639347	0.012792	0.881368
H163	H	0.633830	0.002502	0.922998
O164	O	0.469946	-0.303029	0.364468
H165	H	0.475455	-0.292720	0.322838
H166	H	0.663438	0.057850	0.468357
O167	O	0.419144	-0.290823	0.000041
H168	H	0.389172	-0.347046	0.000048
O169	O	0.314350	-0.288862	0.000043
H170	H	0.336387	-0.346058	0.000033
O171	O	0.672099	0.074046	0.364401
H172	H	0.694926	0.116634	0.391942
