data_functionalizedCrystal
_audit_creation_method	'MofGen! by Chris Wilmer'
_symmetry_space_group_name_H-M	'P1'
_symmetry_Int_Tables_number	1
_symmetry_cell_setting	triclinic
loop_
_symmetry_equiv_pos_as_xyz
  x,y,z
_cell_length_a	11.169417
_cell_length_b	19.805405
_cell_length_c	11.169409
_cell_angle_alpha	90.039857
_cell_angle_beta	90.019824
_cell_angle_gamma	90.027289
loop_
_atom_site_label
_atom_site_type_symbol
_atom_site_fract_x
_atom_site_fract_y
_atom_site_fract_z
Zn1	Zn	1.834828	-0.269393	0.678480
Zn2	Zn	1.834661	-0.382602	0.477771
Zn3	Zn	1.634114	-0.269434	0.477814
Zn4	Zn	1.634065	-0.382547	0.678415
O5	O	1.734417	-0.325994	0.578120
O6	O	2.002756	-0.284416	0.651864
O7	O	1.808009	-0.367630	0.309827
O8	O	1.660830	-0.174712	0.504478
O9	O	2.002633	-0.367590	0.504404
O10	O	1.808293	-0.174681	0.651907
O11	O	1.660668	-0.284486	0.309859
O12	O	1.466158	-0.284433	0.504416
O13	O	1.660746	-0.367496	0.846374
O14	O	1.466122	-0.367536	0.651797
O15	O	1.808246	-0.284362	0.846421
O16	O	1.807962	-0.477311	0.504341
O17	O	1.660585	-0.477271	0.651754
C18	C	1.422593	-0.325983	0.578105
C19	C	1.289193	-0.325995	0.578127
C20	C	1.734282	-0.501850	0.578062
C21	C	1.734334	-0.577082	0.578077
C22	C	1.811148	-0.612424	0.501400
C23	C	1.811199	-0.683113	0.501426
C24	C	1.734429	-0.718457	0.578125
C25	C	1.657612	-0.683110	0.654811
C26	C	1.657568	-0.612422	0.654790
C27	C	1.657789	-0.968183	0.654900
C28	C	1.657837	-1.038875	0.654913
C29	C	1.811420	-1.038873	0.501537
C30	C	1.811376	-0.968186	0.501515
C31	C	1.734564	-0.932845	0.578205
C32	C	1.734511	-0.856196	0.578177
C33	C	1.734475	-0.795104	0.578148
C34	C	2.047460	-0.326004	0.578136
C35	C	2.180860	-0.326009	0.578143
C36	C	1.734509	-0.325919	0.891163
C37	C	1.734549	-0.325886	1.024563
C38	C	1.734586	-0.149451	0.578205
C39	C	1.734657	-0.074219	0.578241
C40	C	1.734395	-0.326020	0.266295
C41	C	1.734588	-0.325861	0.132896
H42	H	1.873657	-0.583652	0.438938
O43	O	1.885850	-0.717340	0.426825
C44	C	1.953614	-0.670986	0.359139
H45	H	1.904422	-0.620624	0.354929
H46	H	2.044740	-0.663402	0.403159
C47	C	2.031407	-0.760484	0.236598
C48	C	1.970983	-0.698630	0.231418
H49	H	2.042127	-0.777536	0.157815
H50	H	1.985757	-0.791714	0.282201
H51	H	2.107339	-0.754155	0.273286
H52	H	1.895047	-0.704961	0.194744
H53	H	2.016620	-0.667401	0.185806
O54	O	1.886064	-0.933958	0.426973
C55	C	1.953855	-0.980311	0.359279
H56	H	1.958016	-1.030675	0.408453
H57	H	1.909960	-0.987892	0.268090
C58	C	2.076472	-0.890814	0.281692
C59	C	2.081591	-0.952670	0.342094
H60	H	2.155264	-0.873763	0.271085
H61	H	2.030798	-0.859585	0.327294
H62	H	2.039887	-0.897140	0.205707
H63	H	2.118161	-0.946342	0.418082
H64	H	2.127275	-0.983898	0.296503
H65	H	1.873969	-1.067657	0.439096
H66	H	1.595323	-1.067650	0.717380
O67	O	1.583047	-0.933963	0.729414
C68	C	1.515312	-0.980319	0.797122
H69	H	1.511232	-1.030733	0.747974
H70	H	1.559205	-0.987770	0.888322
C71	C	1.392555	-0.890871	0.874644
C72	C	1.387535	-0.952789	0.814274
H73	H	1.313737	-0.873888	0.885230
H74	H	1.438191	-0.859639	0.829032
H75	H	1.429137	-0.897088	0.950638
H76	H	1.350967	-0.946569	0.738277
H77	H	1.341889	-0.984019	0.859874
O78	O	1.583168	-0.717412	0.729490
C79	C	1.609307	-0.700057	0.849125
H80	H	1.705171	-0.680578	0.855261
H81	H	1.544920	-0.659042	0.880432
C82	C	1.477597	-0.786744	0.921691
C83	C	1.595343	-0.762825	0.929229
H84	H	1.468978	-0.825461	0.971105
H85	H	1.459982	-0.798435	0.841091
H86	H	1.423954	-0.752559	0.947778
H87	H	1.648982	-0.797007	0.903128
H88	H	1.612966	-0.751141	1.009826
O89	O	1.583123	-0.578056	0.729400
C90	C	1.651394	-0.537087	0.806940
H91	H	1.745927	-0.558345	0.814438
H92	H	1.655518	-0.483532	0.769818
C93	C	1.476592	-0.509856	0.922450
C94	C	1.592697	-0.535969	0.931666
H95	H	1.440384	-0.509163	0.999385
H96	H	1.430595	-0.537456	0.870207
H97	H	1.480045	-0.465229	0.891510
H98	H	1.589242	-0.580598	0.962591
H99	H	1.638693	-0.508377	0.983917
