data_functionalizedCrystal
_audit_creation_method	'MofGen! by Chris Wilmer'
_symmetry_space_group_name_H-M	'P1'
_symmetry_Int_Tables_number	1
_symmetry_cell_setting	triclinic
loop_
_symmetry_equiv_pos_as_xyz
  x,y,z
_cell_length_a	16.974803
_cell_length_b	14.971486
_cell_length_c	13.448316
_cell_angle_alpha	89.998199
_cell_angle_beta	86.348417
_cell_angle_gamma	96.497769
loop_
_atom_site_label
_atom_site_type_symbol
_atom_site_fract_x
_atom_site_fract_y
_atom_site_fract_z
O1	O	-0.103043	1.186691	-0.074279
O2	O	-0.115382	0.926260	-0.073312
O3	O	0.005884	1.063741	-0.083058
O4	O	-0.224309	1.049209	-0.064534
O5	O	0.005891	1.063724	0.082326
O6	O	-0.115375	0.926243	0.092071
O7	O	-0.103035	1.186674	0.091104
Cu8	Cu	-0.109204	1.056457	0.106688
Cu9	Cu	-0.109213	1.056477	-0.088896
O10	O	-0.224301	1.049192	0.100850
C11	C	-0.114827	0.892928	0.009331
C12	C	-0.113173	0.793635	0.009188
C13	C	-0.184414	0.736232	0.014922
C14	C	-0.182855	0.642937	0.014812
C15	C	-0.110055	0.607046	0.008960
C16	C	-0.038809	0.664456	0.003228
C17	C	-0.040368	0.757750	0.003346
C18	C	-0.035564	0.470001	0.002981
C19	C	-0.034004	0.376701	0.002861
C20	C	-0.178050	0.355189	0.014447
C21	C	-0.179610	0.448482	0.014564
C22	C	-0.108363	0.505886	0.008831
C23	C	-0.253764	1.049752	0.020529
C24	C	-0.341542	1.051404	0.027593
C25	C	-0.382782	1.052190	-0.059239
C26	C	-0.465257	1.053754	-0.052602
C27	C	-0.506493	1.054525	0.040869
C28	C	-0.465247	1.053741	0.127708
C29	C	-0.382772	1.052184	0.121069
C30	C	-0.753155	1.059188	0.070391
C31	C	-0.835636	1.060743	0.077023
C32	C	-0.835640	1.060758	-0.103288
C33	C	-0.753164	1.059195	-0.109918
C34	C	-0.711926	1.058416	-0.023080
N35	N	-0.590796	1.056121	0.047656
N36	N	-0.627623	1.056826	-0.029867
C37	C	0.035346	1.063182	-0.002739
C38	C	0.123125	1.061530	-0.009810
C39	C	-0.103591	1.220006	0.008458
C40	C	-0.105245	1.319299	0.008595
N41	N	-0.109198	1.056449	0.244252
N42	N	-0.109214	1.056492	-0.226461
C43	C	-0.055523	1.117344	0.291979
C44	C	-0.055522	1.117350	0.396082
C45	C	-0.109201	1.056464	0.452457
C46	C	-0.162878	0.995561	0.404723
C47	C	-0.162874	0.995552	0.300621
C48	C	-0.162883	0.995586	0.621703
C49	C	-0.162888	0.995596	0.725812
C50	C	-0.055532	1.117384	0.717164
C51	C	-0.055528	1.117375	0.613063
C52	C	-0.109206	1.056474	0.565336
H53	H	0.025276	0.347482	-0.001903
N54	N	0.036469	0.819667	-0.002831
H55	H	0.082825	0.782776	-0.006557
H56	H	0.038960	0.858845	-0.064342
H57	H	-0.498827	1.054375	0.203814
H58	H	-0.011816	1.166935	0.434941
H59	H	-0.011815	1.166929	0.246085
H60	H	-0.238890	0.477701	0.019320
H61	H	-0.349215	1.051554	-0.135353
N62	N	0.002361	1.183049	0.552255
H63	H	0.036367	1.221630	0.598284
H64	H	0.037368	1.148849	0.506255
N65	N	-0.708694	1.058342	0.164057
H66	H	-0.729410	1.003186	0.205126
H67	H	-0.650197	1.057276	0.145605
H68	H	0.022453	0.516738	-0.001687
N69	N	0.039708	0.625740	-0.003072
H70	H	0.043565	0.587510	-0.064687
H71	H	0.084559	0.676309	-0.006641
H72	H	-0.206591	0.945991	0.582848
N73	N	-0.262936	0.774937	0.021242
H74	H	-0.253116	0.842749	0.020445
H75	H	-0.294118	0.753927	-0.037557
H76	H	-0.498831	1.054396	-0.123310
H77	H	-0.719596	1.058573	-0.186032
N78	N	-0.220768	0.929878	0.249136
H79	H	-0.190489	0.890315	0.203521
H80	H	-0.254762	0.891368	0.300703
H81	H	-0.349196	1.051543	0.191778
N82	N	0.002364	1.183074	0.768633
H83	H	-0.005779	1.173841	0.843135
H84	H	0.058474	1.172821	0.745928
H85	H	-0.236062	0.308446	0.019119
H86	H	-0.240866	0.596203	0.019480
H87	H	-0.206598	0.946015	0.771708
N88	N	-0.880158	1.061541	-0.196918
H89	H	-0.908042	1.117589	-0.198712
H90	H	-0.841503	1.060762	-0.257109
N91	N	-0.880115	1.061568	0.177842
H92	H	-0.841476	1.060838	0.231848
H93	H	-0.907980	1.117632	0.184014
N94	N	-0.220768	0.929888	0.465529
H95	H	-0.255831	0.964023	0.511530
H96	H	-0.254717	0.891322	0.419431
