data_functionalizedCrystal
_audit_creation_method	'MofGen! by Chris Wilmer'
_symmetry_space_group_name_H-M	'P1'
_symmetry_Int_Tables_number	1
_symmetry_cell_setting	triclinic
loop_
_symmetry_equiv_pos_as_xyz
  x,y,z
_cell_length_a	10.489741
_cell_length_b	15.944551
_cell_length_c	8.965430
_cell_angle_alpha	89.999468
_cell_angle_beta	89.998843
_cell_angle_gamma	84.018956
loop_
_atom_site_label
_atom_site_type_symbol
_atom_site_fract_x
_atom_site_fract_y
_atom_site_fract_z
O1	O	1.692411	0.118500	-0.123951
O2	O	1.321061	0.129624	-0.123974
O3	O	1.516876	0.001848	-0.123948
O4	O	1.496595	0.246276	-0.123977
O5	O	1.516860	0.001857	0.124130
O6	O	1.321044	0.129633	0.124105
O7	O	1.692394	0.118509	0.124128
Cu8	Cu	1.506718	0.124071	0.146768
Cu9	Cu	1.506737	0.124061	-0.146614
O10	O	1.496578	0.246285	0.124102
C11	C	1.273532	0.128788	0.000062
C12	C	1.131938	0.126275	0.000054
C13	C	1.064925	0.044975	0.000077
C14	C	0.972274	0.083376	-0.122240
C15	C	0.972291	0.083403	0.122346
C16	C	1.041152	0.164709	-0.122364
C17	C	1.041179	0.164726	0.122332
C18	C	0.948554	0.203186	-0.000015
C19	C	1.516026	-0.029446	0.000091
C20	C	1.513502	-0.122708	0.000092
C21	C	1.386093	-0.338330	0.000063
C22	C	1.445249	-0.398988	0.122385
C23	C	1.508935	-0.293461	0.000080
C24	C	1.445294	-0.398979	-0.122201
C25	C	1.504515	-0.458400	0.000062
C26	C	1.568126	-0.352890	0.122503
C27	C	1.568154	-0.352875	-0.122193
C28	C	1.627399	-0.413515	0.000158
C29	C	1.511478	-0.198443	0.000092
C30	C	1.501982	-0.553417	0.000061
C31	C	1.739922	0.119345	0.000088
C32	C	1.881517	0.121858	0.000087
C33	C	1.497429	0.277579	0.000059
C34	C	1.499953	0.370841	0.000049
N35	N	1.506713	0.124078	0.353117
N36	N	1.506752	0.124048	-0.352963
C37	C	1.416127	0.183150	0.450411
C38	C	1.531388	0.200146	0.549830
C39	C	1.391501	0.107089	0.549826
C40	C	1.622032	0.141112	0.450347
C41	C	1.482069	0.048022	0.450334
C42	C	1.597413	0.064986	0.549708
H43	H	0.898203	0.270090	-0.000090
H44	H	1.284128	-0.305636	0.000179
H45	H	1.620032	-0.332584	0.226030
C46	C	1.640851	-0.237657	-0.259543
C47	C	1.638246	-0.325272	-0.261789
H48	H	1.684122	-0.220617	-0.345729
H49	H	1.555617	-0.210882	-0.258679
H50	H	1.684601	-0.222057	-0.172706
H51	H	1.594487	-0.340872	-0.348621
H52	H	1.723495	-0.352057	-0.262668
H53	H	1.339592	0.233152	0.406812
H54	H	1.552259	0.264453	0.593533
C55	C	1.829152	-0.434199	0.128435
C56	C	1.765162	-0.457461	0.000256
H57	H	1.914196	-0.461336	0.128502
H58	H	1.831489	-0.374810	0.129246
H59	H	1.785177	-0.450689	0.214488
H60	H	1.809132	-0.440964	-0.085798
H61	H	1.762831	-0.516862	-0.000568
H62	H	1.393328	-0.419372	-0.225622
H63	H	1.393285	-0.419405	0.225792
C64	C	1.738451	0.234000	0.304807
C65	C	1.753606	0.160655	0.391673
H66	H	1.819676	0.246083	0.268607
H67	H	1.683523	0.225877	0.223008
H68	H	1.701896	0.279785	0.363909
H69	H	1.790152	0.114868	0.332568
H70	H	1.808554	0.168772	0.473484
H71	H	1.674119	0.015015	0.593033
H72	H	1.461162	-0.016264	0.406597
C73	C	1.165232	0.149657	0.558668
C74	C	1.259950	0.087697	0.608804
H75	H	1.084017	0.137684	0.595068
H76	H	1.183371	0.203262	0.594209
H77	H	1.164060	0.150033	0.452722
H78	H	1.261129	0.087325	0.714751
H79	H	1.241807	0.034078	0.573271
H80	H	1.115541	-0.021859	-0.000068
H81	H	1.071741	0.199101	0.225741
C82	C	1.039347	0.009958	-0.347293
C83	C	0.931054	0.036931	-0.261827
H84	H	1.013904	-0.018724	-0.433458
H85	H	1.081026	0.057414	-0.376702
H86	H	1.096545	-0.027123	-0.289683
H87	H	0.873860	0.074017	-0.319434
H88	H	0.889355	-0.010532	-0.232420
C89	C	1.142562	0.281530	-0.219034
C90	C	1.082125	0.211101	-0.262131
H91	H	1.167865	0.310164	-0.305321
H92	H	1.084800	0.318464	-0.161875
H93	H	1.216023	0.263724	-0.160695
H94	H	1.008658	0.228908	-0.320461
H95	H	1.139890	0.174160	-0.319315
H96	H	0.941783	0.048992	0.225756
