data_functionalizedCrystal
_audit_creation_method	'MofGen! by Chris Wilmer'
_symmetry_space_group_name_H-M	'P1'
_symmetry_Int_Tables_number	1
_symmetry_cell_setting	triclinic
loop_
_symmetry_equiv_pos_as_xyz
  x,y,z
_cell_length_a	19.077312
_cell_length_b	12.759399
_cell_length_c	12.759393
_cell_angle_alpha	90.026988
_cell_angle_beta	92.276336
_cell_angle_gamma	92.279844
loop_
_atom_site_label
_atom_site_type_symbol
_atom_site_fract_x
_atom_site_fract_y
_atom_site_fract_z
Zn1	Zn	1.076017	0.482647	-0.529528
Zn2	Zn	1.075944	0.658358	-0.353863
Zn3	Zn	0.958317	0.475650	-0.360920
Zn4	Zn	0.958312	0.651236	-0.536553
O5	O	1.017147	0.566973	-0.445216
O6	O	1.174494	0.511864	-0.500332
O7	O	1.060313	0.634174	-0.207780
O8	O	0.973962	0.329559	-0.383300
O9	O	1.174441	0.640958	-0.371271
O10	O	1.060436	0.334700	-0.507175
O11	O	0.973892	0.499939	-0.212965
O12	O	0.859829	0.493034	-0.390112
O13	O	0.973954	0.628820	-0.682641
O14	O	0.859825	0.622036	-0.519149
O15	O	1.060431	0.504958	-0.677479
O16	O	1.060308	0.804433	-0.378084
O17	O	0.973884	0.799200	-0.512306
C18	C	0.834291	0.556004	-0.456159
C19	C	0.756064	0.551336	-0.460866
C20	C	0.315732	0.517775	-0.494633
C21	C	0.389235	0.522180	-0.490205
C22	C	0.425949	0.591485	-0.420687
C23	C	0.389157	0.656396	-0.355601
C24	C	0.315656	0.651996	-0.360035
C25	C	0.645771	0.611847	-0.400214
C26	C	0.719277	0.616240	-0.395782
C27	C	0.719349	0.482025	-0.530388
C28	C	0.645846	0.477626	-0.534812
C29	C	0.609061	0.542541	-0.469729
N30	N	0.501081	0.595987	-0.416157
N31	N	0.533931	0.538044	-0.474266
C32	C	1.017107	0.839938	-0.445213
C33	C	1.017154	0.956717	-0.445243
C34	C	1.017200	0.566875	-0.719246
C35	C	1.017223	0.566834	-0.836022
C36	C	1.200718	0.577986	-0.434231
C37	C	1.278945	0.582679	-0.429549
C38	C	1.062248	1.124006	-0.375466
C39	C	1.062206	1.014279	-0.375429
C40	C	0.972136	1.008888	-0.515092
C41	C	0.972176	1.118612	-0.515123
C42	C	1.017208	1.292943	-0.445256
C43	C	1.017236	1.176168	-0.445311
C44	C	1.062254	0.502328	-0.888197
C45	C	1.062266	0.502284	-0.997921
C46	C	0.972212	0.631259	-1.003283
C47	C	0.972198	0.631297	-0.893562
C48	C	1.017135	0.566997	-0.172249
C49	C	1.017249	0.566751	-0.055466
H50	H	0.749308	0.429176	-0.583375
O51	O	0.424889	0.459172	-0.553573
C52	C	0.406977	0.481195	-0.659328
H53	H	0.353606	0.518395	-0.664657
H54	H	0.448351	0.537723	-0.692138
C55	C	0.469168	0.332953	-0.716788
C56	C	0.403614	0.378634	-0.723333
H57	H	0.467096	0.269690	-0.756272
H58	H	0.481238	0.318117	-0.645539
H59	H	0.503639	0.380069	-0.744128
H60	H	0.369146	0.331523	-0.695982
H61	H	0.391537	0.393460	-0.794580
O62	O	0.928524	1.169246	-0.583123
C63	C	0.943846	1.143237	-0.686929
H64	H	1.000058	1.116369	-0.688930
H65	H	0.906079	1.077312	-0.716589
C66	C	0.866627	1.273176	-0.755092
C67	C	0.935669	1.240184	-0.757552
H68	H	0.861581	1.332974	-0.798658
H69	H	0.856302	1.290696	-0.685157
H70	H	0.835163	1.218230	-0.779806
H71	H	0.967132	1.295125	-0.732826
H72	H	0.946000	1.222675	-0.827485
H73	H	0.935522	0.683824	-0.851080
O74	O	0.928275	0.953021	-0.582811
C75	C	0.858146	0.975748	-0.563998
H76	H	0.854625	1.005759	-0.480279
H77	H	0.839756	1.038320	-0.621419
C78	C	0.815462	0.838650	-0.681796
C79	C	0.811137	0.875502	-0.578968
H80	H	0.786464	0.776816	-0.691035
H81	H	0.862709	0.823340	-0.694475
H82	H	0.800139	0.890803	-0.729636
H83	H	0.826468	0.823355	-0.531131
H84	H	0.763891	0.890801	-0.566282
H85	H	0.285844	0.461334	-0.551235
O86	O	0.754834	0.683669	-0.328231
C87	C	0.706606	0.740007	-0.271723
H88	H	0.654227	0.740559	-0.317905
H89	H	0.698765	0.700980	-0.192462
C90	C	0.799605	0.852844	-0.197961
C91	C	0.735274	0.853530	-0.254687
H92	H	0.817290	0.922869	-0.187447
H93	H	0.832098	0.814886	-0.236027
H94	H	0.793062	0.820316	-0.131916
H95	H	0.741820	0.886045	-0.320735
H96	H	0.702783	0.891496	-0.216630
O97	O	1.106008	0.439606	-0.832463
C98	C	1.145767	0.382681	-0.902049
H99	H	1.116951	0.377289	-0.981983
H100	H	1.199213	0.424356	-0.910523
C101	C	1.191323	0.278111	-0.760458
C102	C	1.155926	0.271480	-0.858632
H103	H	1.197592	0.209518	-0.733676
H104	H	1.164538	0.316465	-0.713576
H105	H	1.235857	0.312844	-0.767533
H106	H	1.111390	0.236759	-0.851554
H107	H	1.182704	0.233118	-0.905513
H108	H	1.098935	0.449755	-1.040397
O109	O	0.610219	0.410418	-0.602494
C110	C	0.628232	0.434568	-0.706079
H111	H	0.648423	0.519717	-0.710024
H112	H	0.670919	0.380833	-0.731060
C113	C	0.538172	0.313934	-0.775311
C114	C	0.562966	0.418518	-0.780158
H115	H	0.497914	0.304029	-0.821008
H116	H	0.526037	0.297660	-0.705524
H117	H	0.573751	0.269166	-0.796126
H118	H	0.527390	0.463282	-0.759330
H119	H	0.575093	0.434799	-0.849943
O120	O	0.609963	0.674747	-0.336948
C121	C	0.567438	0.612306	-0.271741
H122	H	0.556454	0.532074	-0.309592
H123	H	0.595733	0.602361	-0.192193
C124	C	0.511095	0.764454	-0.210350
C125	C	0.497599	0.665915	-0.256843
H126	H	0.468016	0.797524	-0.201155
H127	H	0.539746	0.806523	-0.254277
H128	H	0.534675	0.756153	-0.144065
H129	H	0.474027	0.674219	-0.323132
H130	H	0.468942	0.623849	-0.212926
O131	O	1.106035	1.179755	-0.307548
C132	C	1.145766	1.110181	-0.245910
H133	H	1.116911	1.030277	-0.243943
H134	H	1.199201	1.101618	-0.281244
C135	C	1.191403	1.251826	-0.135922
C136	C	1.155959	1.153689	-0.133499
H137	H	1.197694	1.278664	-0.066583
H138	H	1.164637	1.298701	-0.177450
H139	H	1.235928	1.244676	-0.165372
H140	H	1.111431	1.160841	-0.104062
H141	H	1.182717	1.106816	-0.091963
H142	H	0.419056	0.712829	-0.299002
H143	H	0.285705	0.704849	-0.307039
H144	H	1.098858	0.971811	-0.318554
H145	H	0.935556	0.683745	-1.050146
