data_functionalizedCrystal
_audit_creation_method	'MofGen! by Chris Wilmer'
_symmetry_space_group_name_H-M	'P1'
_symmetry_Int_Tables_number	1
_symmetry_cell_setting	triclinic
loop_
_symmetry_equiv_pos_as_xyz
  x,y,z
_cell_length_a	15.995350
_cell_length_b	15.995350
_cell_length_c	14.472310
_cell_angle_alpha	89.998838
_cell_angle_beta	89.990621
_cell_angle_gamma	96.507625
loop_
_atom_site_label
_atom_site_type_symbol
_atom_site_fract_x
_atom_site_fract_y
_atom_site_fract_z
O1	O	1.110997	-0.107921	-0.076758
O2	O	0.867221	-0.121248	-0.076776
O3	O	0.995773	0.007303	-0.076766
O4	O	0.982445	-0.236472	-0.076769
O5	O	0.995740	0.007296	0.076916
O6	O	0.867188	-0.121256	0.076906
O7	O	1.110963	-0.107928	0.076924
Cu8	Cu	0.989073	-0.114593	0.090947
Cu9	Cu	0.989112	-0.114584	-0.090800
O10	O	0.982412	-0.236480	0.076913
C11	C	0.836010	-0.120701	0.000062
C12	C	0.743060	-0.119049	0.000055
C13	C	0.405312	-0.113117	0.000074
C14	C	0.452746	-0.021565	0.000418
C15	C	0.549436	-0.023217	0.000065
C16	C	0.572873	-0.116060	0.000065
C17	C	0.531804	-0.161212	-0.087692
C18	C	0.435169	-0.158912	-0.087759
C19	C	0.434792	-0.160812	0.087007
C20	C	0.531737	-0.160790	0.088160
C21	C	0.667570	-0.117727	0.000057
C22	C	0.310614	-0.111452	0.000076
C23	C	0.995205	0.038494	0.000073
C24	C	0.993553	0.131444	0.000068
C25	C	1.142175	-0.108476	0.000083
C26	C	1.235125	-0.110127	0.000084
C27	C	0.982980	-0.267671	0.000072
C28	C	0.984631	-0.360621	0.000071
N29	N	0.989051	-0.114598	0.218778
C30	C	0.987621	0.469192	0.000071
C31	C	0.896069	0.421758	-0.000281
C32	C	0.897721	0.325068	0.000066
C33	C	0.990564	0.301631	0.000069
C34	C	1.035701	0.342705	0.087831
C35	C	1.033401	0.439340	0.087904
C36	C	1.035330	0.439707	-0.086861
C37	C	1.035309	0.342762	-0.088021
C38	C	0.992231	0.206934	0.000071
C39	C	0.985956	0.563890	0.000075
N40	N	0.989140	-0.114572	-0.218631
C41	C	0.989111	-0.114581	0.592869
C42	C	0.920095	-0.183135	0.553698
C43	C	0.920254	-0.183385	0.446610
C44	C	0.989081	-0.114590	0.407278
C45	C	1.076445	-0.133671	0.446122
C46	C	1.076057	-0.134159	0.553243
C47	C	0.971542	-0.026741	0.553398
C48	C	0.969538	-0.027327	0.446270
C49	C	0.989069	-0.114593	0.302390
C50	C	0.989128	-0.114579	0.697757
H51	H	0.434210	0.015027	0.063352
C52	C	0.391597	-0.249708	-0.093147
H53	H	0.332297	-0.248919	-0.093219
H54	H	0.408198	-0.275505	-0.148287
H55	H	0.407407	-0.280710	-0.041248
C56	C	0.552479	-0.252256	0.095324
H57	H	0.526841	-0.277710	0.149140
H58	H	0.531672	-0.282788	0.042257
H59	H	0.611726	-0.252698	0.099009
C60	C	0.935055	-0.270706	0.590011
H61	H	0.893088	-0.311754	0.566008
H62	H	0.989002	-0.283392	0.570842
H63	H	0.932295	-0.270998	0.655584
H64	H	0.433166	0.014865	-0.062168
H65	H	1.092297	-0.197002	0.419285
C66	C	0.832082	-0.168042	0.588537
H67	H	0.836634	-0.119801	0.627289
H68	H	0.796995	-0.159292	0.537299
H69	H	0.808322	-0.215724	0.622540
H70	H	0.859490	0.440293	-0.063217
C71	C	0.990793	0.305885	-0.175732
H72	H	0.945132	0.265587	-0.158749
H73	H	0.970234	0.349787	-0.210193
H74	H	1.029553	0.279511	-0.212360
H75	H	0.403031	-0.228313	0.087600
C76	C	0.550890	-0.253353	-0.092111
H77	H	0.584158	-0.265131	-0.040354
H78	H	0.499603	-0.289659	-0.091295
H79	H	0.580703	-0.262108	-0.147409
C80	C	0.935414	-0.271440	0.411974
H81	H	0.941508	-0.307196	0.463372
H82	H	0.888916	-0.294188	0.375542
H83	H	0.985189	-0.267260	0.375650
H84	H	0.862239	0.296649	-0.062846
C85	C	0.568612	-0.116264	0.175867
H86	H	0.608913	-0.070606	0.158878
H87	H	0.524711	-0.095698	0.210333
H88	H	0.594984	-0.155019	0.212491
C89	C	0.846836	0.448211	0.084262
H90	H	0.881834	0.488035	0.119774
H91	H	0.798642	0.472757	0.064083
H92	H	0.829674	0.400156	0.121099
C93	C	0.849442	0.287416	0.085197
H94	H	0.828748	0.331224	0.119708
H95	H	0.803624	0.248446	0.065631
H96	H	0.886179	0.259362	0.122788
C97	C	1.124196	0.482913	0.093311
H98	H	1.123406	0.542212	0.093390
H99	H	1.149977	0.466311	0.148453
H100	H	1.155214	0.467102	0.041416
C101	C	0.887330	-0.001971	0.589917
H102	H	0.862096	-0.044974	0.629582
H103	H	0.897111	0.049348	0.623280
H104	H	0.850819	0.004973	0.539411
H105	H	1.000459	0.457639	0.153505
H106	H	0.577308	0.012521	-0.062951
H107	H	0.577852	0.012275	0.062973
H108	H	0.416874	-0.125979	-0.153359
C109	C	1.096961	-0.220700	0.586989
H110	H	1.105606	-0.255230	0.535231
H111	H	1.146588	-0.213645	0.623531
H112	H	1.051570	-0.246625	0.623011
H113	H	0.905272	-0.012845	0.420883
H114	H	1.103909	0.328579	0.091097
H115	H	1.103014	0.327400	-0.093317
C116	C	0.570144	-0.118837	-0.175922
H117	H	0.611167	-0.073635	-0.159467
H118	H	0.595886	-0.158825	-0.211430
H119	H	0.527026	-0.097889	-0.211295
C120	C	0.407034	-0.120386	0.176867
H121	H	0.377204	-0.074035	0.162204
H122	H	0.371555	-0.160790	0.211129
H123	H	0.455223	-0.101372	0.212696
C124	C	1.033039	0.044821	0.410120
H125	H	1.072480	0.022569	0.370602
H126	H	1.003986	0.083693	0.376676
H127	H	1.061847	0.072703	0.460790
H128	H	1.004324	0.314320	0.153137
H129	H	1.129018	-0.086196	0.579154
C130	C	1.039520	0.042183	0.587623
H131	H	1.028570	0.095114	0.563541
H132	H	1.038699	0.044090	0.653218
H133	H	1.093234	0.029868	0.567212
H134	H	0.855314	-0.172016	0.420349
C135	C	0.994912	0.467451	-0.176722
H136	H	0.948557	0.497278	-0.162060
H137	H	1.035317	0.502927	-0.210988
H138	H	0.975906	0.419254	-0.212547
C139	C	1.126514	0.482618	-0.087665
H140	H	1.135499	0.518334	-0.035310
H141	H	1.164341	0.440956	-0.085738
H142	H	1.135946	0.515057	-0.142436
H143	H	1.129029	-0.085068	0.420643
