data_functionalizedCrystal
_audit_creation_method	'MofGen! by Chris Wilmer'
_symmetry_space_group_name_H-M	'P1'
_symmetry_Int_Tables_number	1
_symmetry_cell_setting	triclinic
loop_
_symmetry_equiv_pos_as_xyz
  x,y,z
_cell_length_a	9.730223
_cell_length_b	16.992694
_cell_length_c	16.974813
_cell_angle_alpha	92.975366
_cell_angle_beta	93.655888
_cell_angle_gamma	90.005291
loop_
_atom_site_label
_atom_site_type_symbol
_atom_site_fract_x
_atom_site_fract_y
_atom_site_fract_z
O1	O	0.132760	-1.040206	0.167645
O2	O	0.132596	-0.811922	0.165806
O3	O	0.119913	-0.932428	0.052024
O4	O	0.145443	-0.919700	0.281426
O5	O	-0.108666	-0.932427	0.052027
O6	O	-0.095984	-0.811921	0.165809
O7	O	-0.095820	-1.040204	0.167648
Zn8	Zn	-0.132194	-0.926062	0.166729
Zn9	Zn	0.168970	-0.926064	0.166725
O10	O	-0.083137	-0.919698	0.281429
C11	C	0.018048	-0.782712	0.163441
C12	C	0.017278	-0.695675	0.156382
N13	N	-0.337730	-0.926067	0.166731
C14	C	0.002345	-0.931943	0.022537
C15	C	-0.007424	-0.930492	-0.065331
C16	C	-0.415270	-0.979440	0.116368
C17	C	-0.559154	-0.979438	0.116358
C18	C	-0.547944	-0.872687	0.217082
C19	C	-0.404064	-0.872685	0.217087
C20	C	-0.348936	-1.032822	0.066012
C21	C	-0.426476	-1.086200	0.015645
C22	C	-0.570360	-1.086198	0.015635
C23	C	-0.636704	-1.032818	0.065993
N24	N	0.374505	-0.926066	0.166717
C25	C	0.018731	-1.069415	0.170013
C26	C	0.019510	-1.156451	0.177072
C27	C	0.024858	-0.645361	0.224497
C28	C	0.024100	-0.563581	0.217859
C29	C	0.015773	-0.532118	0.143105
C30	C	0.008189	-0.582438	0.074985
C31	C	0.008937	-0.664216	0.081623
C32	C	0.012674	-0.288550	0.115590
C33	C	0.011931	-0.206765	0.108957
C34	C	0.027839	-0.187914	0.251832
C35	C	0.028595	-0.269695	0.258464
C36	C	0.021004	-0.320008	0.190344
N37	N	0.015002	-0.448526	0.136318
N38	N	0.021764	-0.403598	0.197131
C39	C	0.112585	-0.929812	-0.106609
C40	C	0.103402	-0.928443	-0.189170
C41	C	-0.025791	-0.927759	-0.230453
C42	C	-0.145809	-0.928436	-0.189169
C43	C	-0.136624	-0.929800	-0.106609
C44	C	-0.066621	-0.923675	-0.477371
C45	C	-0.075796	-0.922314	-0.559937
C46	C	0.173415	-0.922320	-0.559933
C47	C	0.182588	-0.923688	-0.477371
C48	C	0.062571	-0.924361	-0.436094
N49	N	-0.035181	-0.926362	-0.314844
N50	N	0.071962	-0.925752	-0.351704
C51	C	0.034434	-0.920183	0.310917
C52	C	0.044212	-0.921635	0.398785
H53	H	-0.231778	-1.032830	0.066017
O54	O	-0.612602	-0.820916	0.265975
C55	C	-0.756224	-0.832351	0.255158
H56	H	-0.778722	-0.894716	0.229582
H57	H	-0.801772	-0.788022	0.212670
C58	C	-0.793556	-0.743880	0.366697
C59	C	-0.821189	-0.820480	0.335290
H60	H	-0.833632	-0.736554	0.416125
H61	H	-0.696796	-0.736173	0.373984
H62	H	-0.831514	-0.706947	0.331283
H63	H	-0.783216	-0.857411	0.370699
H64	H	-0.917945	-0.828193	0.328011
H65	H	0.005151	-0.181152	0.048080
H66	H	-0.164348	-0.924239	-0.443775
H67	H	-0.340930	-0.829223	0.258097
O68	O	-0.201411	-0.921613	-0.599915
C69	C	-0.305374	-0.922518	-0.545782
H70	H	-0.262109	-0.898678	-0.485224
H71	H	-0.343212	-0.985530	-0.541322
C72	C	-0.479406	-0.899869	-0.648857
C73	C	-0.426271	-0.870583	-0.574480
H74	H	-0.553984	-0.867837	-0.666560
H75	H	-0.409365	-0.899262	-0.685329
H76	H	-0.510926	-0.952379	-0.645130
H77	H	-0.394735	-0.818078	-0.578211
H78	H	-0.496309	-0.871180	-0.538010
O79	O	-0.271199	-0.927808	-0.229393
C80	C	-0.253575	-0.926443	-0.311114
H81	H	-0.147935	-0.951065	-0.324094
H82	H	-0.261602	-0.863188	-0.330225
C83	C	-0.495931	-0.946900	-0.341087
C84	C	-0.366186	-0.977147	-0.357031
H85	H	-0.565397	-0.978173	-0.369412
H86	H	-0.507806	-0.947816	-0.286031
H87	H	-0.502600	-0.894188	-0.357014
H88	H	-0.359512	-1.029854	-0.341095
H89	H	-0.354312	-0.976241	-0.412086
O90	O	0.032895	-0.675791	0.297175
C91	C	0.039454	-0.613842	0.355871
H92	H	-0.006686	-0.558316	0.330195
H93	H	0.151480	-0.602235	0.377128
C94	C	0.014286	-0.705054	0.457490
C95	C	-0.042394	-0.636858	0.425957
H96	H	-0.036195	-0.719252	0.500725
H97	H	0.009872	-0.746791	0.417947
H98	H	0.107640	-0.695372	0.475198
H99	H	-0.135740	-0.646543	0.408241
H100	H	-0.037998	-0.595123	0.465500
H101	H	0.030274	-0.522618	0.273326
H102	H	-0.234348	-0.930342	-0.073001
H103	H	0.035392	-0.295306	0.319337
H104	H	-0.372452	-1.129657	-0.025359
O105	O	0.005077	-0.337452	0.049446
C106	C	-0.113331	-0.385345	0.049017
H107	H	-0.191794	-0.355358	0.087553
H108	H	-0.083865	-0.444787	0.073240
C109	C	-0.080117	-0.434699	-0.083558
C110	C	-0.176491	-0.397866	-0.036233
H111	H	-0.119075	-0.442426	-0.136145
H112	H	-0.000340	-0.402435	-0.083269
H113	H	-0.055570	-0.484230	-0.063363
H114	H	-0.201023	-0.348331	-0.056423
H115	H	-0.256274	-0.430122	-0.036528
O116	O	0.035132	-0.138928	0.317920
C117	C	0.032721	-0.060001	0.296036
H118	H	-0.017486	-0.056936	0.233736
H119	H	0.142547	-0.036337	0.297538
C120	C	0.011218	-0.013657	0.430774
C121	C	-0.050458	-0.009892	0.354259
H122	H	-0.040085	0.017254	0.466691
H123	H	0.012848	-0.066831	0.445519
H124	H	0.102738	0.006062	0.432015
H125	H	-0.141969	-0.029619	0.353017
H126	H	-0.052105	0.043280	0.339516
H127	H	0.001389	-0.556814	0.014118
O128	O	-0.645474	-1.138120	-0.033315
C129	C	-0.556068	-1.185217	-0.077772
H130	H	-0.449899	-1.186063	-0.045292
H131	H	-0.547464	-1.159831	-0.138131
C132	C	-0.743845	-1.268772	-0.128564
C133	C	-0.613449	-1.269817	-0.088668
H134	H	-0.779242	-1.320957	-0.135289
H135	H	-0.804082	-1.237041	-0.098615
H136	H	-0.736658	-1.247614	-0.178859
H137	H	-0.620641	-1.290966	-0.038371
H138	H	-0.553215	-1.301555	-0.118609
H139	H	-0.753865	-1.032815	0.065975
H140	H	0.201125	-0.927893	-0.222775
H141	H	0.002766	-0.705182	0.026156
O142	O	0.238194	-0.930440	-0.066631
C143	C	0.342145	-0.929565	-0.120773
H144	H	0.299261	-0.903783	-0.177919
H145	H	0.378990	-0.992290	-0.133876
C146	C	0.516526	-0.910371	-0.014834
C147	C	0.463858	-0.878699	-0.085019
H148	H	0.591608	-0.878998	0.007222
H149	H	0.446494	-0.910964	0.021644
H150	H	0.547220	-0.962641	-0.025763
H151	H	0.433150	-0.826434	-0.074088
H152	H	0.533888	-0.878097	-0.121494
H153	H	0.271126	-0.921770	-0.593549
H154	H	0.287791	-0.924246	-0.443765
