data_functionalizedCrystal
_audit_creation_method	'MofGen! by Chris Wilmer'
_symmetry_space_group_name_H-M	'P1'
_symmetry_Int_Tables_number	1
_symmetry_cell_setting	triclinic
loop_
_symmetry_equiv_pos_as_xyz
  x,y,z
_cell_length_a	23.532407
_cell_length_b	19.288865
_cell_length_c	18.366186
_cell_angle_alpha	90.011479
_cell_angle_beta	89.988493
_cell_angle_gamma	97.007538
loop_
_atom_site_label
_atom_site_type_symbol
_atom_site_fract_x
_atom_site_fract_y
_atom_site_fract_z
O1	O	0.755438	-0.084319	-0.060599
O2	O	1.255438	0.415681	0.439401
O3	O	0.589600	-0.096519	-0.060592
O4	O	1.089600	0.403481	0.439408
O5	O	0.677311	0.010726	-0.060581
O6	O	1.177311	0.510726	0.439419
O7	O	0.667727	-0.191564	-0.060610
O8	O	1.167727	0.308436	0.439390
O9	O	0.677296	0.010731	0.060518
O10	O	1.177296	0.510731	0.560518
O11	O	0.589585	-0.096514	0.060507
O12	O	1.089585	0.403486	0.560507
O13	O	0.755423	-0.084314	0.060501
O14	O	1.255423	0.415686	0.560501
Zn15	Zn	0.672502	-0.090413	0.079731
Zn16	Zn	1.172502	0.409587	0.579731
Zn17	Zn	0.672521	-0.090420	-0.079823
Zn18	Zn	1.172521	0.409580	0.420177
O19	O	0.667712	-0.191559	0.060490
O20	O	1.167712	0.308441	0.560490
C21	C	0.568376	-0.096206	-0.000042
C22	C	1.068376	0.403794	0.499958
C23	C	0.505157	-0.095272	-0.000039
C24	C	1.005157	0.404728	0.499961
C25	C	0.676995	0.036604	-0.000029
C26	C	1.176995	0.536604	0.499971
C27	C	0.676069	0.113705	-0.000023
C28	C	1.176069	0.613705	0.499977
C29	C	0.776647	-0.084627	-0.000052
C30	C	1.276647	0.415373	0.499948
C31	C	0.839866	-0.085561	-0.000059
C32	C	1.339866	0.414439	0.499941
C33	C	1.238850	-0.027954	-0.000026
C34	C	1.738850	0.472046	0.499974
C35	C	1.298252	-0.028822	-0.000023
C36	C	1.798252	0.471178	0.499977
O37	O	1.334886	0.024580	0.000011
O38	O	1.834886	0.524580	0.500011
N39	N	1.321010	-0.092579	-0.000034
N40	N	1.821010	0.407421	0.499966
C41	C	1.284363	-0.155473	-0.000041
C42	C	1.784363	0.344527	0.499959
O43	O	1.309175	-0.209783	-0.000049
O44	O	1.809175	0.290217	0.499951
C45	C	1.224962	-0.154604	-0.000039
C46	C	1.724962	0.345396	0.499961
C47	C	1.202207	-0.090843	-0.000035
C48	C	1.702207	0.409157	0.499965
C49	C	1.216094	0.035802	-0.000022
C50	C	1.716094	0.535802	0.499978
C51	C	1.156696	0.036669	-0.000026
C52	C	1.656696	0.536669	0.499974
C53	C	1.120054	-0.026220	-0.000035
C54	C	1.620054	0.473780	0.499965
C55	C	1.142809	-0.089976	-0.000040
C56	C	1.642809	0.410024	0.499960
C57	C	1.188316	-0.217497	-0.000040
C58	C	1.688316	0.282503	0.499960
C59	C	1.128912	-0.216623	-0.000038
C60	C	1.628912	0.283377	0.499962
C61	C	1.106157	-0.152862	-0.000034
C62	C	1.606157	0.347138	0.499966
C63	C	1.046769	-0.151997	-0.000053
C64	C	1.546769	0.348003	0.499947
N65	N	1.024011	-0.088240	-0.000042
N66	N	1.524011	0.411760	0.499958
C67	C	1.060653	-0.025351	-0.000033
C68	C	1.560653	0.474649	0.499967
C69	C	1.409109	-0.157292	-0.000044
C70	C	1.909109	0.342708	0.499956
C71	C	1.468509	-0.158161	-0.000051
C72	C	1.968509	0.341839	0.499949
C73	C	1.482394	-0.031510	-0.000032
C74	C	1.982394	0.468490	0.499968
C75	C	1.422993	-0.030641	-0.000030
C76	C	1.922993	0.469359	0.499970
C77	C	1.386351	-0.093535	-0.000033
C78	C	1.886351	0.406465	0.499967
C79	C	0.935913	-0.023534	-0.000043
C80	C	1.435913	0.476466	0.499957
C81	C	0.876509	-0.022672	-0.000050
C82	C	1.376509	0.477328	0.499950
C83	C	0.862629	-0.149323	-0.000066
C84	C	1.362629	0.350677	0.499934
C85	C	0.922028	-0.150185	-0.000062
C86	C	1.422028	0.349815	0.499938
C87	C	0.958669	-0.087285	-0.000048
C88	C	1.458669	0.412715	0.499952
O89	O	1.010100	-0.205371	-0.000084
O90	O	1.510100	0.294629	0.499916
O91	O	1.035833	0.028950	-0.000015
O92	O	1.535833	0.528950	0.499985
C93	C	0.668028	-0.217437	-0.000064
C94	C	1.168028	0.282563	0.499936
C95	C	0.668954	-0.294538	-0.000075
C96	C	1.168954	0.205462	0.499925
N97	N	0.672493	-0.090408	0.188622
N98	N	1.172493	0.409592	0.688622
C99	C	0.727534	0.158560	-0.000021
C100	C	1.227534	0.658560	0.499979
C101	C	0.726664	0.231004	-0.000033
C102	C	1.226664	0.731004	0.499967
C103	C	0.674327	0.258590	-0.000031
C104	C	1.174327	0.758590	0.499969
C105	C	0.622855	0.213725	-0.000037
C106	C	1.122855	0.713725	0.499963
C107	C	0.623727	0.141283	-0.000033
C108	C	1.123727	0.641283	0.499967
C109	C	0.633179	0.366753	0.042389
C110	C	1.133179	0.866753	0.542389
C111	C	0.632310	0.439194	0.042389
C112	C	1.132310	0.939194	0.542389
C113	C	0.671638	0.482028	-0.000048
C114	C	1.171638	0.982028	0.499952
C115	C	0.711845	0.452412	-0.042475
C116	C	1.211845	0.952412	0.457525
C117	C	0.712716	0.379969	-0.042471
C118	C	1.212716	0.879969	0.457529
C119	C	0.673377	0.337141	-0.000036
C120	C	1.173377	0.837141	0.499964
C121	C	0.722163	0.605436	-0.000059
C122	C	1.222163	1.105436	0.499941
C123	C	0.721292	0.677881	-0.000075
C124	C	1.221292	1.177881	0.499925
C125	C	0.617481	0.660601	-0.000072
C126	C	1.117481	1.160601	0.499928
C127	C	0.618354	0.588157	-0.000064
C128	C	1.118354	1.088157	0.499936
C129	C	0.670697	0.560579	-0.000054
C130	C	1.170697	1.060579	0.499946
N131	N	0.672535	-0.090420	-0.188714
N132	N	1.172535	0.409580	0.311286
C133	C	0.711344	-0.042943	0.226727
C134	C	1.211344	0.457057	0.726727
C135	C	0.711347	-0.042940	0.302955
C136	C	1.211347	0.457060	0.802955
C137	C	0.672505	-0.090414	0.341075
C138	C	1.172505	0.409586	0.841075
C139	C	0.633647	-0.137882	0.302960
C140	C	1.133647	0.362118	0.802960
C141	C	0.633640	-0.137880	0.226734
C142	C	1.133640	0.362120	0.726734
C143	C	0.664881	-0.153725	0.461826
C144	C	1.164881	0.346275	0.961826
C145	C	0.664892	-0.153729	0.538051
C146	C	1.164892	0.346271	1.038051
C147	C	0.672521	-0.090422	0.576182
C148	C	1.172521	0.409578	1.076182
C149	C	0.680153	-0.027109	0.538079
C150	C	1.180153	0.472891	1.038079
C151	C	0.680147	-0.027107	0.461853
C152	C	1.180147	0.472893	0.961853
C153	C	0.672507	-0.090422	0.423730
C154	C	1.172507	0.409578	0.923730
C155	C	0.711378	-0.042950	0.696943
C156	C	1.211378	0.457050	1.196943
C157	C	0.711378	-0.042946	0.773172
C158	C	1.211378	0.457054	1.273172
C159	C	0.633680	-0.137895	0.773176
C160	C	1.133680	0.362105	1.273176
C161	C	0.633678	-0.137893	0.696948
C162	C	1.133678	0.362107	1.196948
C163	C	0.672530	-0.090421	0.658836
C164	C	1.172530	0.409579	1.158836
H165	H	0.857985	0.029252	-0.000049
H166	H	1.357985	0.529252	0.499951
Cl167	Cl	0.655342	-0.233320	0.413898
Cl168	Cl	1.155342	0.266680	0.913898
H169	H	0.602020	-0.176535	0.334001
H170	H	1.102020	0.323465	0.834001
H171	H	1.487030	-0.210082	-0.000065
H172	H	1.987030	0.289918	0.499935
Cl173	Cl	0.793336	0.123894	-0.000030
Cl174	Cl	1.293336	0.623894	0.499970
H175	H	0.743870	0.487285	-0.077031
H176	H	1.243870	0.987285	0.422969
H177	H	0.764784	0.582981	-0.000055
H178	H	1.264784	1.082981	0.499945
H179	H	0.686365	0.024441	0.569124
H180	H	1.186365	0.524441	1.069124
Cl181	Cl	0.584796	-0.197555	0.178827
Cl182	Cl	1.084796	0.302445	0.678827
H183	H	0.965739	0.027685	-0.000032
H184	H	1.465739	0.527685	0.499968
Cl185	Cl	1.363050	-0.236366	-0.000057
Cl186	Cl	1.863050	0.263634	0.499943
Cl187	Cl	0.760182	0.016737	0.178816
Cl188	Cl	1.260182	0.516737	0.678816
H189	H	0.602044	-0.176546	0.665920
H190	H	1.102044	0.323454	1.165920
Cl191	Cl	1.128100	0.116831	-0.000028
Cl192	Cl	1.628100	0.616831	0.499972
Cl193	Cl	0.760218	0.016732	0.649029
Cl194	Cl	1.260218	0.516732	1.149029
Cl195	Cl	0.763256	0.342739	-0.095810
Cl196	Cl	1.263256	0.842739	0.404190
Cl197	Cl	1.262150	0.114873	-0.000010
Cl198	Cl	1.762150	0.614873	0.499990
H199	H	0.576446	0.551635	-0.000061
H200	H	1.076446	1.051635	0.499939
Cl201	Cl	0.583733	0.312912	0.095745
Cl202	Cl	1.083733	0.812912	0.595745
Cl203	Cl	1.082851	-0.295695	-0.000039
Cl204	Cl	1.582851	0.204305	0.499961
Cl205	Cl	0.785997	0.734272	-0.000078
Cl206	Cl	1.285997	1.234272	0.499922
H207	H	0.574867	0.683060	-0.000075
H208	H	1.074867	1.183060	0.499925
H209	H	0.832784	-0.200525	-0.000077
H210	H	1.332784	0.299475	0.499923
H211	H	0.581816	0.104761	-0.000034
H212	H	1.081816	0.604761	0.499966
Cl213	Cl	1.394393	0.049518	-0.000022
Cl214	Cl	1.894393	0.549518	0.499978
Cl215	Cl	0.760194	0.016735	0.350867
Cl216	Cl	1.260194	0.516735	0.850867
Cl217	Cl	0.584846	-0.197571	0.821092
Cl218	Cl	1.084846	0.302429	1.321092
H219	H	1.206832	-0.269419	-0.000047
H220	H	1.706832	0.230581	0.499953
Cl221	Cl	0.581766	0.476419	0.095729
Cl222	Cl	1.081766	0.976419	0.595729
H223	H	0.768575	0.267532	-0.000034
H224	H	1.268575	0.767532	0.499966
Cl225	Cl	1.528470	0.047551	-0.000021
Cl226	Cl	2.028470	0.547551	0.499979
H227	H	0.940555	-0.202105	-0.000066
H228	H	1.440555	0.297895	0.499934
Cl229	Cl	0.557060	0.248404	-0.000041
Cl230	Cl	1.057060	0.748404	0.499959
H231	H	0.686359	0.024445	0.430832
H232	H	1.186359	0.524445	0.930832
Cl233	Cl	0.655302	-0.233321	0.585945
Cl234	Cl	1.155302	0.266679	1.085945
Cl235	Cl	0.760220	0.016733	0.821079
Cl236	Cl	1.260220	0.516733	1.321079
