data_functionalizedCrystal
_audit_creation_method	'MofGen! by Chris Wilmer'
_symmetry_space_group_name_H-M	'P1'
_symmetry_Int_Tables_number	1
_symmetry_cell_setting	triclinic
loop_
_symmetry_equiv_pos_as_xyz
  x,y,z
_cell_length_a	19.288864
_cell_length_b	16.776229
_cell_length_c	19.288865
_cell_angle_alpha	89.994091
_cell_angle_beta	96.863755
_cell_angle_gamma	90.020968
loop_
_atom_site_label
_atom_site_type_symbol
_atom_site_fract_x
_atom_site_fract_y
_atom_site_fract_z
O1	O	0.921351	0.066553	-0.086643
O2	O	1.254685	0.399886	0.246690
O3	O	1.588018	0.733220	0.580023
O4	O	0.719091	0.066500	-0.098332
O5	O	1.052424	0.399833	0.235001
O6	O	1.385757	0.733166	0.568335
O7	O	0.826066	0.066512	0.008643
O8	O	1.159399	0.399845	0.341976
O9	O	1.492732	0.733179	0.675309
O10	O	0.814377	0.066541	-0.193618
O11	O	1.147710	0.399874	0.139715
O12	O	1.481043	0.733207	0.473049
O13	O	0.826050	-0.066065	0.008637
O14	O	1.159383	0.267269	0.341970
O15	O	1.492717	0.600602	0.675304
O16	O	0.719075	-0.066077	-0.098338
O17	O	1.052409	0.267256	0.234996
O18	O	1.385742	0.600590	0.568329
O19	O	0.921336	-0.066024	-0.086649
O20	O	1.254669	0.267310	0.246684
O21	O	1.588003	0.600643	0.580018
Zn22	Zn	0.820203	-0.087100	-0.092494
Zn23	Zn	1.153536	0.246234	0.240839
Zn24	Zn	1.486870	0.579567	0.574173
Zn25	Zn	0.820224	0.087576	-0.092487
Zn26	Zn	1.153557	0.420909	0.240847
Zn27	Zn	1.486890	0.754242	0.574180
O28	O	0.814361	-0.066036	-0.193624
O29	O	1.147695	0.267297	0.139710
O30	O	1.481028	0.600631	0.473043
C31	C	0.693207	0.000204	-0.097959
C32	C	1.026540	0.333538	0.235375
C33	C	1.359873	0.666871	0.568708
C34	C	0.616103	0.000183	-0.096830
C35	C	0.949436	0.333517	0.236504
C36	C	1.282770	0.666850	0.569837
C37	C	0.571407	0.000205	-0.159598
C38	C	0.904740	0.333538	0.173736
C39	C	1.238073	0.666871	0.507069
C40	C	0.498960	0.000213	-0.158537
C41	C	0.832293	0.333547	0.174796
C42	C	1.165626	0.666880	0.508130
C43	C	0.471212	0.000217	-0.094705
C44	C	0.804545	0.333550	0.238629
C45	C	1.137879	0.666883	0.571962
C46	C	0.515918	0.000191	-0.031929
C47	C	0.849252	0.333524	0.301405
C48	C	1.182585	0.666857	0.634738
C49	C	0.588364	0.000174	-0.032991
C50	C	0.921697	0.333507	0.300342
C51	C	1.255030	0.666841	0.633676
C52	C	0.362956	0.046684	-0.044524
C53	C	0.696289	0.380017	0.288810
C54	C	1.029622	0.713350	0.622143
C55	C	0.290511	0.046705	-0.043464
C56	C	0.623844	0.380039	0.289870
C57	C	0.957178	0.713372	0.623203
C58	C	0.247767	0.000264	-0.091425
C59	C	0.581100	0.333598	0.241908
C60	C	0.914433	0.666931	0.575242
C61	C	0.277474	-0.046188	-0.140458
C62	C	0.610807	0.287145	0.192875
C63	C	0.944140	0.620479	0.526209
C64	C	0.349919	-0.046204	-0.141521
C65	C	0.683253	0.287129	0.191813
C66	C	1.016586	0.620462	0.525146
C67	C	0.392658	0.000234	-0.093546
C68	C	0.725991	0.333567	0.239788
C69	C	1.059325	0.666901	0.573121
C70	C	0.124514	0.000294	-0.153047
C71	C	0.457848	0.333627	0.180286
C72	C	0.791181	0.666961	0.513619
C73	C	0.052066	0.000298	-0.151984
C74	C	0.385400	0.333631	0.181349
C75	C	0.718733	0.666964	0.514683
C76	C	0.069026	0.000283	-0.025374
C77	C	0.402360	0.333617	0.307960
C78	C	0.735693	0.666950	0.641293
C79	C	0.141473	0.000271	-0.026439
C80	C	0.474806	0.333605	0.306894
C81	C	0.808140	0.666938	0.640228
C82	C	0.169212	0.000281	-0.090278
C83	C	0.502546	0.333614	0.243056
C84	C	0.835879	0.666947	0.576389
N85	N	0.820194	-0.206311	-0.092499
N86	N	1.153528	0.127022	0.240835
N87	N	1.486861	0.460356	0.574168
C88	C	0.867612	-0.751470	-0.045125
C89	C	1.200945	-0.418137	0.288208
C90	C	1.534279	-0.084803	0.621541
C91	C	0.867609	-0.668018	-0.045130
C92	C	1.200942	-0.334685	0.288203
C93	C	1.534275	-0.001351	0.621537
C94	C	0.820227	-0.626310	-0.092484
C95	C	1.153561	-0.292977	0.240850
C96	C	1.486894	0.040356	0.574183
C97	C	0.772851	-0.668059	-0.139840
C98	C	1.106184	-0.334726	0.193493
C99	C	1.439518	-0.001392	0.526827
C100	C	0.772858	-0.751510	-0.139838
C101	C	1.106192	-0.418176	0.193496
C102	C	1.439525	-0.084843	0.526829
C103	C	0.772821	-0.331512	-0.139850
C104	C	1.106155	0.001821	0.193483
C105	C	1.439488	0.335155	0.526816
C106	C	0.772816	-0.248055	-0.139847
C107	C	1.106150	0.085278	0.193486
C108	C	1.439483	0.418611	0.526819
C109	C	0.867572	-0.248020	-0.045143
C110	C	1.200905	0.085313	0.288191
C111	C	1.534238	0.418647	0.621524
C112	C	0.867579	-0.331471	-0.045140
C113	C	1.200912	0.001863	0.288193
C114	C	1.534246	0.335196	0.621526
C115	C	0.820205	-0.373212	-0.092499
C116	C	1.153539	-0.039879	0.240834
C117	C	1.486872	0.293454	0.574168
C118	C	0.820211	-0.463701	-0.092494
C119	C	1.153544	-0.130367	0.240839
C120	C	1.486877	0.202966	0.574173
C121	C	0.820218	-0.535823	-0.092486
C122	C	1.153552	-0.202490	0.240848
C123	C	1.486885	0.130843	0.574181
C124	C	0.947220	0.000273	-0.087022
C125	C	1.280553	0.333607	0.246311
C126	C	1.613887	0.666940	0.579645
C127	C	1.024324	0.000300	-0.088151
C128	C	1.357657	0.333633	0.245182
C129	C	1.690990	0.666966	0.578516
C130	C	0.825682	0.000221	0.034516
C131	C	1.159015	0.333555	0.367850
C132	C	1.492348	0.666888	0.701183
C133	C	0.824553	0.000214	0.111620
C134	C	1.157886	0.333547	0.444953
C135	C	1.491219	0.666881	0.778287
N136	N	0.820238	0.206787	-0.092476
N137	N	1.153571	0.540120	0.240857
N138	N	1.486905	0.873454	0.574190
C139	C	0.814745	0.000256	-0.219497
C140	C	1.148078	0.333590	0.113836
C141	C	1.481412	0.666923	0.447170
C142	C	0.815874	0.000269	-0.296601
C143	C	1.149207	0.333602	0.036733
C144	C	1.482541	0.666936	0.370066
C145	C	0.887321	0.000227	0.156316
C146	C	1.220654	0.333560	0.489650
C147	C	1.553987	0.666893	0.822983
C148	C	0.886260	0.000239	0.228763
C149	C	1.219593	0.333572	0.562097
C150	C	1.552927	0.666906	0.895430
C151	C	0.822428	0.000223	0.256511
C152	C	1.155761	0.333556	0.589844
C153	C	1.489094	0.666889	0.923178
C154	C	0.759652	0.000214	0.211805
C155	C	1.092985	0.333548	0.545138
C156	C	1.426318	0.666881	0.878471
C157	C	0.760714	0.000210	0.139359
C158	C	1.094047	0.333543	0.472693
C159	C	1.427381	0.666877	0.806026
C160	C	0.772243	-0.046229	0.364796
C161	C	1.105576	0.287104	0.698130
C162	C	1.438909	0.620437	1.031463
C163	C	0.771183	-0.046230	0.437241
C164	C	1.104516	0.287103	0.770574
C165	C	1.437850	0.620437	1.103907
C166	C	0.819148	0.000240	0.479956
C167	C	1.152481	0.333573	0.813290
C168	C	1.485815	0.666906	1.146623
C169	C	0.868185	0.046699	0.450220
C170	C	1.201518	0.380033	0.783554
C171	C	1.534852	0.713366	1.116887
C172	C	0.869247	0.046695	0.377775
C173	C	1.202581	0.380028	0.711108
C174	C	1.535914	0.713362	1.044442
C175	C	0.821269	0.000228	0.335065
C176	C	1.154602	0.333561	0.668398
C177	C	1.487935	0.666895	1.001732
C178	C	0.880770	0.000267	0.603209
C179	C	1.214104	0.333600	0.936542
C180	C	1.547437	0.666933	1.269875
C181	C	0.879707	0.000284	0.675657
C182	C	1.213040	0.333617	1.008990
C183	C	1.546374	0.666951	1.342323
C184	C	0.753097	0.000252	0.658697
C185	C	1.086430	0.333585	0.992030
C186	C	1.419763	0.666918	1.325363
C187	C	0.754162	0.000242	0.586250
C188	C	1.087495	0.333576	0.919583
C189	C	1.420829	0.666909	1.252917
C190	C	0.818001	0.000246	0.558511
C191	C	1.151334	0.333579	0.891844
C192	C	1.484667	0.666913	1.225177
H193	H	0.015674	0.000311	-0.203099
H194	H	0.349008	0.333644	0.130234
H195	H	0.682341	0.666977	0.463567
H196	H	0.374104	-0.084030	-0.181443
H197	H	0.707437	0.249303	0.151891
H198	H	1.040771	0.582637	0.485224
H199	H	0.939303	0.000232	0.133736
H200	H	1.272636	0.333566	0.467069
H201	H	1.605970	0.666899	0.800403
Cl202	Cl	0.416685	0.105072	0.015777
Cl203	Cl	0.750018	0.438406	0.349110
Cl204	Cl	1.083351	0.771739	0.682444
H205	H	0.906185	-0.634031	-0.006574
H206	H	1.239518	-0.300698	0.326760
H207	H	1.572851	0.032636	0.660093
Cl208	Cl	0.223746	-0.104575	-0.200757
Cl209	Cl	0.557079	0.228759	0.132576
Cl210	Cl	0.890412	0.562092	0.465909
H211	H	0.734231	-0.214098	-0.178411
H212	H	1.067565	0.119235	0.154922
H213	H	1.400898	0.452568	0.488256
H214	H	0.906193	-0.785423	-0.006562
H215	H	1.239526	-0.452090	0.326772
H216	H	1.572859	-0.118756	0.660105
Cl217	Cl	0.928488	0.105124	0.503912
Cl218	Cl	1.261821	0.438457	0.837245
Cl219	Cl	1.595154	0.771790	1.170579
H220	H	0.624756	0.000157	0.018124
H221	H	0.958090	0.333490	0.351457
H222	H	1.291423	0.666824	0.684790
Cl223	Cl	0.961023	0.000267	0.568333
Cl224	Cl	1.294356	0.333600	0.901666
Cl225	Cl	1.627689	0.666934	1.235000
H226	H	0.733182	-0.084075	0.330022
H227	H	1.066515	0.249259	0.663355
H228	H	1.399849	0.582592	0.996689
H229	H	0.930822	0.000299	0.712049
H230	H	1.264156	0.333632	1.045382
H231	H	1.597489	0.666965	1.378715
H232	H	0.707679	0.000203	0.234401
H233	H	1.041012	0.333536	0.567735
H234	H	1.374346	0.666870	0.901068
Cl235	Cl	0.927131	-0.195540	0.014393
Cl236	Cl	1.260464	0.137793	0.347726
Cl237	Cl	1.593798	0.471126	0.681059
H238	H	0.734247	-0.365491	-0.178410
H239	H	1.067580	-0.032158	0.154923
H240	H	1.400914	0.301175	0.488257
Cl241	Cl	0.034151	0.000278	0.054873
Cl242	Cl	0.367484	0.333611	0.388207
Cl243	Cl	0.700817	0.666945	0.721540
Cl244	Cl	0.672850	0.000236	0.693572
Cl245	Cl	1.006183	0.333569	1.026906
Cl246	Cl	1.339516	0.666902	1.360239
Cl247	Cl	0.965174	0.000256	0.284963
Cl248	Cl	1.298507	0.333589	0.618297
Cl249	Cl	1.631841	0.666922	0.951630
H250	H	0.734274	-0.634096	-0.178399
H251	H	1.067608	-0.300763	0.154934
H252	H	1.400941	0.032571	0.488267
Cl253	Cl	0.675249	0.000223	0.530057
Cl254	Cl	1.008582	0.333556	0.863391
Cl255	Cl	1.341916	0.666889	1.196724
H256	H	0.493322	0.000204	0.020044
H257	H	0.826655	0.333538	0.353377
H258	H	1.159988	0.666871	0.686711
H259	H	0.731251	-0.084056	0.461446
H260	H	1.064585	0.249278	0.794779
H261	H	1.397918	0.582611	1.128112
Cl262	Cl	0.606275	0.000213	-0.239852
Cl263	Cl	0.939609	0.333546	0.093482
Cl264	Cl	1.272942	0.666879	0.426815
Cl265	Cl	0.930886	0.105104	0.340394
Cl266	Cl	1.264220	0.438437	0.673727
Cl267	Cl	1.597553	0.771771	1.007060
H268	H	0.177866	0.000258	0.024674
H269	H	0.511199	0.333592	0.358007
H270	H	0.844533	0.666925	0.691340
Cl271	Cl	0.159390	0.000298	-0.233300
Cl272	Cl	0.492723	0.333631	0.100034
Cl273	Cl	0.826057	0.666964	0.433367
Cl274	Cl	0.681799	0.000194	0.083166
Cl275	Cl	1.015132	0.333527	0.416500
Cl276	Cl	1.348466	0.666860	0.749833
H277	H	0.266329	0.084533	-0.003541
H278	H	0.599662	0.417866	0.329792
H279	H	0.932996	0.751199	0.663126
H280	H	0.906159	-0.365427	-0.006579
H281	H	1.239492	-0.032093	0.326755
H282	H	1.572826	0.301240	0.660088
H283	H	0.462561	0.000229	-0.209652
H284	H	0.795894	0.333562	0.123682
H285	H	1.129228	0.666895	0.457015
H286	H	0.734282	-0.785496	-0.178397
H287	H	1.067616	-0.452163	0.154937
H288	H	1.400949	-0.118830	0.488270
