data_functionalizedCrystal
_audit_creation_method	'MofGen! by Chris Wilmer'
_symmetry_space_group_name_H-M	'P1'
_symmetry_Int_Tables_number	1
_symmetry_cell_setting	triclinic
loop_
_symmetry_equiv_pos_as_xyz
  x,y,z
_cell_length_a	17.640112
_cell_length_b	10.686285
_cell_length_c	10.686551
_cell_angle_alpha	99.084519
_cell_angle_beta	97.710326
_cell_angle_gamma	82.237776
loop_
_atom_site_label
_atom_site_type_symbol
_atom_site_fract_x
_atom_site_fract_y
_atom_site_fract_z
Zn1	Zn	1.227280	0.081885	-0.311757
Zn2	Zn	1.227218	0.310484	-0.083273
Zn3	Zn	1.089657	0.139536	-0.140701
Zn4	Zn	1.107968	0.329885	-0.331161
O5	O	1.163031	0.215447	-0.216723
O6	O	1.334774	0.079962	-0.249294
O7	O	1.201281	0.303815	0.084438
O8	O	1.100275	-0.043442	-0.179305
O9	O	1.334728	0.247913	-0.081427
O10	O	1.201387	-0.085798	-0.304979
O11	O	1.100215	0.178221	0.042246
O12	O	0.984583	0.197033	-0.198120
O13	O	1.131484	0.280980	-0.503916
O14	O	0.998036	0.336882	-0.338050
O15	O	1.219142	0.098775	-0.489660
O16	O	1.219036	0.488388	-0.100243
O17	O	1.131424	0.502642	-0.282365
C18	C	1.177232	0.540968	-0.187199
C19	C	1.183380	0.680202	-0.174589
C20	C	0.963436	0.275320	-0.276423
C21	C	0.878051	0.300961	-0.301990
C22	C	1.177363	0.185611	-0.543520
C23	C	1.183470	0.172896	-0.682782
C24	C	0.562104	0.020633	-0.022505
C25	C	0.481874	0.044750	-0.046544
C26	C	0.495935	0.190620	-0.191957
C27	C	0.576168	0.166510	-0.167935
C28	C	0.609246	0.081516	-0.083207
C29	C	0.623309	0.227393	-0.228637
C30	C	0.703535	0.203290	-0.204611
C31	C	0.736620	0.118303	-0.119884
C32	C	0.689472	0.057413	-0.059181
C33	C	0.590230	0.312394	-0.313357
C34	C	0.637371	0.373277	-0.374059
C35	C	0.717599	0.349167	-0.350041
C36	C	0.750683	0.264180	-0.265314
C37	C	0.764747	0.410058	-0.410744
C38	C	0.844973	0.385954	-0.386718
C39	C	0.830909	0.240077	-0.241289
C40	C	1.363405	0.155342	-0.156790
C41	C	1.448792	0.129729	-0.131250
C42	C	1.148795	-0.111353	-0.246383
C43	C	1.142729	-0.250615	-0.259023
C44	C	1.148795	0.245065	0.108808
C45	C	1.142821	0.257382	0.248082
H46	H	0.857843	0.170846	-0.172315
C47	C	1.089490	0.368241	-0.687955
N48	N	1.049319	0.451740	-0.639770
H49	H	0.737802	0.479269	-0.479719
C50	C	1.236801	0.062027	-0.746751
N51	N	1.276967	-0.021480	-0.794935
H52	H	0.443493	-0.004845	0.002884
C53	C	1.236748	0.744092	-0.063881
N54	N	1.276944	0.792214	0.019502
C55	C	1.089363	0.685500	-0.369723
N56	N	1.049167	0.637374	-0.453105
H57	H	0.716406	-0.011818	0.009792
C58	C	0.501978	0.338905	-0.339784
N59	N	0.435506	0.358870	-0.359690
H60	H	0.801945	0.098683	-0.100322
H61	H	0.589038	-0.048598	0.046469
H62	H	0.468991	0.259826	-0.260939
H63	H	0.610428	0.442483	-0.443041
C64	C	0.896831	0.452923	-0.453500
N65	N	0.935892	0.503368	-0.503800
