data_functionalizedCrystal
_audit_creation_method	'MofGen! by Chris Wilmer'
_symmetry_space_group_name_H-M	'P1'
_symmetry_Int_Tables_number	1
_symmetry_cell_setting	triclinic
loop_
_symmetry_equiv_pos_as_xyz
  x,y,z
_cell_length_a	15.995350
_cell_length_b	14.044220
_cell_length_c	12.503572
_cell_angle_alpha	93.835250
_cell_angle_beta	93.525550
_cell_angle_gamma	91.659374
loop_
_atom_site_label
_atom_site_type_symbol
_atom_site_fract_x
_atom_site_fract_y
_atom_site_fract_z
O1	O	0.197434	-1.263165	-0.089196
O2	O	0.190148	-0.987198	-0.089224
O3	O	0.072467	-1.132725	-0.089208
O4	O	0.315115	-1.117638	-0.089212
O5	O	0.081333	-1.121781	0.089432
O6	O	0.199014	-0.976253	0.089417
O7	O	0.206300	-1.252221	0.089445
Cu8	Cu	0.203467	-1.113237	0.105742
Cu9	Cu	0.192981	-1.126181	-0.105521
O10	O	0.323981	-1.106693	0.089429
C11	C	0.191392	-0.946411	0.000093
C12	C	0.181881	-0.841186	0.000082
C13	C	0.045658	-1.126629	0.000110
C14	C	-0.047432	-1.124760	0.000104
N15	N	0.210842	-1.104141	0.254333
C16	C	-0.385681	-1.118044	0.000107
C17	C	-0.346008	-1.014426	-0.000304
C18	C	-0.249158	-1.016272	0.000099
C19	C	-0.217872	-1.121375	0.000105
C20	C	-0.250068	-1.166245	0.102120
C21	C	-0.346894	-1.163636	0.102206
C22	C	-0.357175	-1.178223	-0.100942
C23	C	-0.260298	-1.178281	-0.102290
C24	C	-0.123033	-1.123263	0.000107
C25	C	-0.480519	-1.116158	0.000111
C26	C	0.350789	-1.112789	0.000108
C27	C	0.443879	-1.114659	0.000108
C28	C	0.205055	-1.293007	0.000125
C29	C	0.214567	-1.398233	0.000129
C30	C	0.164494	-0.648523	0.000104
C31	C	0.231950	-0.590890	0.000107
C32	C	0.222276	-0.483686	0.000119
C33	C	0.174167	-0.755737	0.000092
N34	N	0.185600	-1.135285	-0.254113
C35	C	0.221698	-1.090759	0.473447
C36	C	0.174747	-1.148663	0.526780
C37	C	0.180787	-1.141218	0.648703
C38	C	0.215658	-1.098204	0.351514
H39	H	-0.227367	-0.980568	-0.073031
H40	H	0.130016	-1.203829	0.480873
Cl41	Cl	0.332332	-0.639012	0.000099
Cl42	Cl	0.290760	-1.005596	0.544318
H43	H	-0.383262	-1.254680	-0.101623
Cl44	Cl	0.064118	-0.600400	0.000107
Cl45	Cl	-0.205183	-0.946883	0.113183
H46	H	-0.365072	-0.968729	0.072438
Cl47	Cl	-0.385001	-0.957383	-0.113256
H48	H	-0.373229	-1.239445	0.106839
Cl49	Cl	-0.373609	-1.098866	0.219932
Cl50	Cl	-0.204531	-1.104248	0.219327
Cl51	Cl	-0.227797	-1.128190	-0.218828
H52	H	-0.384083	-1.149075	-0.178264
Cl53	Cl	-0.228211	-1.297200	-0.111801
Cl54	Cl	-0.219065	-1.285103	0.107991
