data_functionalizedCrystal
_audit_creation_method	'MofGen! by Chris Wilmer'
_symmetry_space_group_name_H-M	'P1'
_symmetry_Int_Tables_number	1
_symmetry_cell_setting	triclinic
loop_
_symmetry_equiv_pos_as_xyz
  x,y,z
_cell_length_a	16.120297
_cell_length_b	17.077404
_cell_length_c	16.120847
_cell_angle_alpha	87.099973
_cell_angle_beta	89.836070
_cell_angle_gamma	87.121653
loop_
_atom_site_label
_atom_site_type_symbol
_atom_site_fract_x
_atom_site_fract_y
_atom_site_fract_z
Zn1	Zn	-0.453433	-1.161586	-0.354915
Zn2	Zn	-0.120099	-0.828252	-0.021582
Zn3	Zn	0.213234	-0.494919	0.311751
Zn4	Zn	-0.307345	-1.162210	-0.486925
Zn5	Zn	0.025988	-0.828877	-0.153592
Zn6	Zn	0.359321	-0.495544	0.179741
Zn7	Zn	-0.314392	-1.037289	-0.347888
Zn8	Zn	0.018941	-0.703955	-0.014555
Zn9	Zn	0.352275	-0.370622	0.318779
Zn10	Zn	-0.446357	-1.024035	-0.493931
Zn11	Zn	-0.113023	-0.690701	-0.160597
Zn12	Zn	0.220310	-0.357368	0.172736
O13	O	-0.380382	-1.096280	-0.420915
O14	O	-0.047048	-0.762947	-0.087582
O15	O	0.286285	-0.429613	0.245752
O16	O	-0.434066	-1.271515	-0.372436
O17	O	-0.100733	-0.938181	-0.039102
O18	O	0.232601	-0.604848	0.294231
O19	O	-0.191914	-1.151448	-0.462609
O20	O	0.141419	-0.818114	-0.129275
O21	O	0.474753	-0.484781	0.204058
O22	O	-0.338746	-1.059062	-0.232454
O23	O	-0.005413	-0.725729	0.100879
O24	O	0.327920	-0.392396	0.434212
O25	O	-0.326736	-1.271974	-0.469423
O26	O	0.006597	-0.938640	-0.136090
O27	O	0.339930	-0.605307	0.197244
O28	O	-0.440899	-1.150383	-0.237617
O29	O	-0.107566	-0.817050	0.095716
O30	O	0.225768	-0.483716	0.429049
O31	O	-0.197091	-1.059668	-0.360459
O32	O	0.136242	-0.726335	-0.027125
O33	O	0.469575	-0.393001	0.306208
O34	O	-0.331885	-0.925685	-0.367252
O35	O	0.001448	-0.592351	-0.033919
O36	O	0.334782	-0.259018	0.299415
O37	O	-0.563661	-1.036473	-0.481363
O38	O	-0.230328	-0.703139	-0.148030
O39	O	0.103005	-0.369806	0.185304
O40	O	-0.428839	-0.915947	-0.474549
O41	O	-0.095506	-0.582614	-0.141215
O42	O	0.237828	-0.249280	0.192118
O43	O	-0.568860	-1.137531	-0.379229
O44	O	-0.235526	-0.804198	-0.045896
O45	O	0.097807	-0.470864	0.287438
O46	O	-0.319875	-1.138596	-0.604220
O47	O	0.013458	-0.805262	-0.270887
O48	O	0.346792	-0.471929	0.062446
O49	O	-0.422006	-1.037079	-0.609367
O50	O	-0.088673	-0.703745	-0.276034
O51	O	0.244660	-0.370412	0.057299
C52	C	-0.380359	-0.892334	-0.420899
C53	C	-0.047026	-0.559001	-0.087565
C54	C	0.286307	-0.225667	0.245768
C55	C	-0.380369	-0.805083	-0.420913
C56	C	-0.047035	-0.471750	-0.087579
C57	C	0.286298	-0.138416	0.245754
C58	C	-0.369426	-1.086487	-0.636967
C59	C	-0.036093	-0.753154	-0.303634
C60	C	0.297240	-0.419820	0.029699
C61	C	-0.364767	-1.082368	-0.729397
C62	C	-0.031434	-0.749035	-0.396063
C63	C	0.301899	-0.415701	-0.062730
C64	C	-0.597276	-1.085454	-0.431861
C65	C	-0.263943	-0.752120	-0.098528
C66	C	0.069390	-0.418787	0.234805
C67	C	-0.689704	-1.080840	-0.436526
C68	C	-0.356371	-0.747507	-0.103193
C69	C	-0.023037	-0.414174	0.230141
C70	C	-0.858932	-1.072389	-0.445024
C71	C	-0.525598	-0.739056	-0.111691
C72	C	-0.192265	-0.405723	0.221643
C73	C	-0.902696	-1.120336	-0.396556
C74	C	-0.569362	-0.787003	-0.063223
C75	C	-0.236029	-0.453670	0.270110
C76	C	-0.996860	-1.115634	-0.401285
C77	C	-0.663527	-0.782301	-0.067952
C78	C	-0.330193	-0.448967	0.265382
C79	C	-0.764759	-1.077091	-0.440297
C80	C	-0.431426	-0.743757	-0.106963
C81	C	-0.098092	-0.410424	0.226370
C82	C	-0.164334	-1.107112	-0.409951
C83	C	0.169000	-0.773778	-0.076618
C84	C	0.502333	-0.440445	0.256716
C85	C	-0.071918	-1.111888	-0.405052
C86	C	0.261415	-0.778554	-0.071719
C87	C	0.594748	-0.445221	0.261615
C88	C	-0.380404	-1.301022	-0.420932
C89	C	-0.047071	-0.967689	-0.087598
C90	C	0.286262	-0.634356	0.245735
C91	C	-0.380414	-1.388271	-0.420939
C92	C	-0.047081	-1.054938	-0.087606
C93	C	0.286253	-0.721605	0.245728
C94	C	-0.430763	-0.759044	-0.476858
C95	C	-0.097430	-0.425710	-0.143525
C96	C	0.235903	-0.092377	0.189809
C97	C	-0.430776	-0.677062	-0.476861
C98	C	-0.097443	-0.343729	-0.143527
C99	C	0.235890	-0.010396	0.189806
C100	C	-0.380390	-0.641122	-0.420921
C101	C	-0.047057	-0.307789	-0.087588
C102	C	0.286277	0.025545	0.245746
C103	C	-0.329993	-0.687168	-0.364970
C104	C	0.003340	-0.353834	-0.031636
C105	C	0.336673	-0.020501	0.301697
C106	C	-0.329985	-0.769147	-0.364964
C107	C	0.003348	-0.435814	-0.031630
C108	C	0.336681	-0.102481	0.301703
C109	C	-0.330013	-0.516296	-0.364987
C110	C	0.003321	-0.182962	-0.031654
C111	C	0.336654	0.150371	0.301680
C112	C	-0.330019	-0.434311	-0.364994
C113	C	0.003314	-0.100977	-0.031660
C114	C	0.336647	0.232356	0.301673
C115	C	-0.430804	-0.424211	-0.476884
C116	C	-0.097471	-0.090878	-0.143550
C117	C	0.235863	0.242456	0.189783
C118	C	-0.430796	-0.506191	-0.476878
C119	C	-0.097462	-0.172857	-0.143545
C120	C	0.235871	0.160476	0.189789
C121	C	-0.380398	-0.552230	-0.420927
C122	C	-0.047064	-0.218897	-0.087594
C123	C	0.286269	0.114436	0.245739
C124	C	-0.391398	-1.106131	-0.204020
C125	C	-0.058065	-0.772798	0.129314
C126	C	0.275269	-0.439465	0.462647
C127	C	-0.396092	-1.110329	-0.111592
C128	C	-0.062759	-0.776996	0.221741
C129	C	0.270574	-0.443663	0.555075
C130	C	-0.404661	-1.118008	0.057635
C131	C	-0.071328	-0.784675	0.390968
C132	C	0.262006	-0.451342	0.724302
C133	C	-0.356201	-1.074692	0.101381
C134	C	-0.022868	-0.741358	0.434715
C135	C	0.310465	-0.408025	0.768048
C136	C	-0.360969	-1.078964	0.195545
C137	C	-0.027636	-0.745631	0.528878
C138	C	0.305698	-0.412297	0.862212
C139	C	-0.399894	-1.113737	-0.036537
C140	C	-0.066561	-0.780403	0.296796
C141	C	0.266772	-0.447070	0.630129
H142	H	-0.869444	-1.164915	-0.351510
H143	H	-0.536111	-0.831582	-0.018177
H144	H	-0.202777	-0.498249	0.315157
Br145	Br	-0.914351	-0.998092	-0.520101
Br146	Br	-0.581018	-0.664759	-0.186768
Br147	Br	-0.247684	-0.331426	0.146565
H148	H	-0.471791	-0.788300	-0.522413
H149	H	-0.138458	-0.454966	-0.189080
H150	H	0.194876	-0.121633	0.144253
H151	H	-0.288981	-0.553779	-0.319419
H152	H	0.044352	-0.220446	0.013914
H153	H	0.377686	0.112887	0.347248
H154	H	-0.289001	-0.405051	-0.319433
H155	H	0.044333	-0.071717	0.013900
H156	H	0.377666	0.261616	0.347234
Br157	Br	-0.281078	-1.007539	0.045939
Br158	Br	0.052256	-0.674205	0.379273
Br159	Br	0.385589	-0.340872	0.712606
H160	H	-0.449726	-1.158299	0.090898
H161	H	-0.116392	-0.824966	0.424232
H162	H	0.216941	-0.491633	0.757565
H163	H	-0.471812	-0.639580	-0.522418
H164	H	-0.138479	-0.306247	-0.189084
H165	H	0.194855	0.027086	0.144249
H166	H	-0.471820	-0.535451	-0.522433
H167	H	-0.138487	-0.202117	-0.189100
H168	H	0.194847	0.131216	0.144233
H169	H	-0.288972	-0.657899	-0.319419
H170	H	0.044362	-0.324565	0.013914
H171	H	0.377695	0.008768	0.347248
Br172	Br	-0.499213	-0.361730	-0.552807
Br173	Br	-0.165879	-0.028396	-0.219474
Br174	Br	0.167454	0.304937	0.113860
H175	H	-0.288953	-0.806632	-0.319403
H176	H	0.044380	-0.473299	0.013930
H177	H	0.377713	-0.139965	0.347264
