data_functionalizedCrystal
_audit_creation_method	'MofGen! by Chris Wilmer'
_symmetry_space_group_name_H-M	'P1'
_symmetry_Int_Tables_number	1
_symmetry_cell_setting	triclinic
loop_
_symmetry_equiv_pos_as_xyz
  x,y,z
_cell_length_a	21.395364
_cell_length_b	19.077692
_cell_length_c	21.395355
_cell_angle_alpha	92.280661
_cell_angle_beta	89.975273
_cell_angle_gamma	87.729011
loop_
_atom_site_label
_atom_site_type_symbol
_atom_site_fract_x
_atom_site_fract_y
_atom_site_fract_z
Zn1	Zn	0.967894	-0.280297	-0.364295
Zn2	Zn	0.972009	-0.397969	-0.263729
Zn3	Zn	0.863109	-0.280294	-0.259532
Zn4	Zn	0.867290	-0.397948	-0.368468
O5	O	0.917575	-0.339127	-0.314006
O6	O	1.056118	-0.295917	-0.350965
O7	O	0.957535	-0.382367	-0.175495
O8	O	0.873536	-0.181809	-0.269926
O9	O	1.059141	-0.382370	-0.277080
O10	O	0.950522	-0.181811	-0.346895
O11	O	0.877527	-0.295911	-0.172411
O12	O	0.775985	-0.295890	-0.273972
O13	O	0.880663	-0.382333	-0.455592
O14	O	0.779057	-0.382330	-0.354007
O15	O	0.954576	-0.295896	-0.452526
O16	O	0.961590	-0.496451	-0.281126
O17	O	0.884653	-0.496436	-0.358077
C18	C	0.754787	-0.339108	-0.313987
C19	C	0.685146	-0.339117	-0.313995
C20	C	0.184969	-0.384219	-0.355644
C21	C	0.250404	-0.384219	-0.355638
C22	C	0.281509	-0.339142	-0.314026
C23	C	0.247172	-0.294075	-0.272407
C24	C	0.181738	-0.294081	-0.272411
C25	C	0.382927	-0.275717	-0.306905
C26	C	0.448359	-0.275710	-0.306906
C27	C	0.483329	-0.339124	-0.314012
C28	C	0.452857	-0.402547	-0.321130
C29	C	0.387423	-0.402553	-0.321134
C30	C	0.352461	-0.339131	-0.314018
C31	C	0.588610	-0.384192	-0.355618
C32	C	0.654046	-0.384193	-0.355607
C33	C	0.650813	-0.294043	-0.272380
C34	C	0.585377	-0.294048	-0.272388
C35	C	0.554280	-0.339121	-0.314010
C36	C	0.924039	-0.521980	-0.320523
C37	C	0.926861	-0.600205	-0.323332
C38	C	0.888141	-0.637017	-0.284552
C39	C	0.890800	-0.710517	-0.287194
C40	C	0.932175	-0.747205	-0.328620
C41	C	0.970899	-0.710388	-0.367402
C42	C	0.968243	-0.636889	-0.364756
C43	C	0.944414	-0.967018	-0.340831
C44	C	0.947066	-1.040523	-0.343475
C45	C	0.866967	-1.040647	-0.263266
C46	C	0.864312	-0.967147	-0.260626
C47	C	0.903038	-0.930336	-0.299406
N48	N	0.934892	-0.822335	-0.331323
N49	N	0.900324	-0.855208	-0.296699
C50	C	1.080999	-0.339146	-0.314025
C51	C	1.150641	-0.339155	-0.314033
C52	C	0.917627	-0.339113	-0.477429
C53	C	0.917649	-0.339107	-0.547070
C54	C	0.911104	-0.155560	-0.307477
C55	C	0.908346	-0.077335	-0.304695
C56	C	0.956133	-0.294097	-0.578188
C57	C	0.956132	-0.294066	-0.643622
C58	C	0.917652	-0.339059	-0.677937
C59	C	0.879159	-0.384072	-0.646811
C60	C	0.879158	-0.384096	-0.581378
C61	C	0.914944	-0.402427	-0.783870
C62	C	0.914950	-0.402405	-0.849302
C63	C	0.917653	-0.338984	-0.879755
C64	C	0.920363	-0.275585	-0.844767
C65	C	0.920361	-0.275609	-0.779334
C66	C	0.917649	-0.339037	-0.748888
C67	C	0.956138	-0.293938	-0.981824
C68	C	0.956131	-0.293906	-1.047259
C69	C	0.879163	-0.383918	-1.050447
C70	C	0.879166	-0.383943	-0.985013
C71	C	0.917656	-0.338954	-0.950705
C72	C	0.917558	-0.339090	-0.151217
C73	C	0.917651	-0.338898	-0.081569
H74	H	0.159654	-0.420923	-0.389535
H75	H	0.999774	-0.606917	-0.396335
C76	C	0.353907	-0.472318	-0.328952
N77	N	0.328663	-0.524866	-0.334835
C78	C	0.987022	-0.926536	-0.383482
N79	N	1.019119	-0.896043	-0.415607
C80	C	1.016413	-0.750747	-0.412971
N81	N	1.050694	-0.781145	-0.447295
C82	C	0.911970	-0.472145	-0.887782
N83	N	0.909723	-0.524675	-0.916764
H84	H	0.830621	-0.937277	-0.226894
H85	H	0.922564	-0.223942	-0.869560
H86	H	0.980750	-1.070392	-0.377221
H87	H	0.987475	-0.257462	-0.550258
H88	H	0.987469	-0.257410	-0.668963
C89	C	0.344467	-0.205952	-0.299088
N90	N	0.315500	-0.153407	-0.293200
H91	H	0.563289	-0.420894	-0.389509
H92	H	0.272501	-0.257375	-0.238526
H93	H	0.922566	-0.223987	-0.750850
H94	H	0.987469	-0.257250	-1.072594
C95	C	0.998472	-0.244443	-0.944083
N96	N	1.030358	-0.207162	-0.915658
C97	C	0.836835	-0.433411	-1.088190
N98	N	0.804952	-0.470690	-1.116620
C99	C	0.836829	-0.433560	-0.684558
N100	N	0.804941	-0.470834	-0.712989
H101	H	0.847831	-0.420599	-0.959677
H102	H	0.153788	-0.257383	-0.238526
C103	C	0.848202	-0.751007	-0.244535
N104	N	0.816115	-0.781504	-0.212403
C105	C	0.911983	-0.472201	-0.750379
N106	N	0.909758	-0.524753	-0.725154
H107	H	0.847816	-0.420747	-0.556042
H108	H	0.835438	-1.070627	-0.231693
C109	C	0.491318	-0.472308	-0.328947
N110	N	0.520290	-0.524850	-0.334835
H111	H	0.278360	-0.420915	-0.389525
H112	H	0.676137	-0.257343	-0.238497
C113	C	0.691808	-0.433773	-0.401382
N114	N	0.720250	-0.471118	-0.435861
H115	H	0.854446	-0.607150	-0.250821
H116	H	0.557427	-0.257350	-0.238505
C117	C	0.481872	-0.205944	-0.299077
N118	N	0.507112	-0.153394	-0.293178
