data_functionalizedCrystal
_audit_creation_method	'MofGen! by Chris Wilmer'
_symmetry_space_group_name_H-M	'P1'
_symmetry_Int_Tables_number	1
_symmetry_cell_setting	triclinic
loop_
_symmetry_equiv_pos_as_xyz
  x,y,z
_cell_length_a	12.645330
_cell_length_b	16.959455
_cell_length_c	16.959447
_cell_angle_alpha	90.026267
_cell_angle_beta	89.973848
_cell_angle_gamma	89.987315
loop_
_atom_site_label
_atom_site_type_symbol
_atom_site_fract_x
_atom_site_fract_y
_atom_site_fract_z
Zn1	Zn	-0.422159	-1.208417	-0.447129
Zn2	Zn	0.077841	-0.708417	0.052871
Zn3	Zn	-0.599451	-1.208339	-0.314960
Zn4	Zn	-0.099451	-0.708339	0.185040
Zn5	Zn	-0.422187	-1.076240	-0.314945
Zn6	Zn	0.077813	-0.576240	0.185055
Zn7	Zn	-0.599365	-1.076216	-0.447077
Zn8	Zn	-0.099365	-0.576216	0.052923
O9	O	-0.510791	-1.142303	-0.381028
O10	O	-0.010791	-0.642303	0.118972
O11	O	-0.445702	-1.319018	-0.429624
O12	O	0.054298	-0.819018	0.070376
O13	O	-0.575984	-1.190793	-0.204347
O14	O	-0.075984	-0.690793	0.295653
O15	O	-0.273836	-1.093816	-0.332494
O16	O	0.226164	-0.593816	0.167506
O17	O	-0.575957	-1.318961	-0.332520
O18	O	-0.075957	-0.818961	0.167480
O19	O	-0.273815	-1.190926	-0.429609
O20	O	0.226185	-0.690926	0.070391
O21	O	-0.445748	-1.093740	-0.204336
O22	O	0.054252	-0.593740	0.295664
O23	O	-0.445665	-0.965626	-0.332444
O24	O	0.054335	-0.465626	0.167556
O25	O	-0.575811	-1.093776	-0.557695
O26	O	-0.075811	-0.593776	-0.057695
O27	O	-0.575838	-0.965608	-0.429521
O28	O	-0.075838	-0.465608	0.070479
O29	O	-0.445619	-1.190903	-0.557733
O30	O	0.054381	-0.690903	-0.057733
O31	O	-0.747787	-1.190770	-0.332470
O32	O	-0.247787	-0.690770	0.167530
O33	O	-0.747724	-1.093700	-0.429536
O34	O	-0.247724	-0.593700	0.070464
C35	C	-0.510746	-0.936937	-0.380976
C36	C	-0.010746	-0.436937	0.119024
C37	C	-0.510753	-0.849080	-0.380973
C38	C	-0.010753	-0.349080	0.119027
C39	C	-0.578516	-0.477564	-0.330402
C40	C	-0.078516	0.022436	0.169598
C41	C	-0.443090	-0.477645	-0.431674
C42	C	0.056910	0.022355	0.068326
C43	C	-0.443077	-0.560191	-0.431659
C44	C	0.056923	-0.060191	0.068341
C45	C	-0.510785	-0.601427	-0.381016
C46	C	-0.010785	-0.101427	0.118984
C47	C	-0.578507	-0.560118	-0.330387
C48	C	-0.078507	-0.060118	0.169613
C49	C	-0.375364	-0.601507	-0.482292
C50	C	0.124636	-0.101507	0.017708
C51	C	-0.375348	-0.684058	-0.482280
C52	C	0.124652	-0.184058	0.017720
C53	C	-0.443052	-0.725296	-0.431633
C54	C	0.056948	-0.225296	0.068367
C55	C	-0.510776	-0.683981	-0.381002
C56	C	-0.010776	-0.183981	0.118998
C57	C	-0.578484	-0.725217	-0.330359
C58	C	-0.078484	-0.225217	0.169641
C59	C	-0.646203	-0.683904	-0.279723
C60	C	-0.146203	-0.183904	0.220277
C61	C	-0.646210	-0.601355	-0.279740
C62	C	-0.146210	-0.101355	0.220260
C63	C	-0.443044	-0.807844	-0.431616
C64	C	0.056956	-0.307844	0.068384
C65	C	-0.578475	-0.807771	-0.330344
C66	C	-0.078475	-0.307771	0.169656
C67	C	-0.786220	-1.142245	-0.381016
C68	C	-0.286220	-0.642245	0.118984
C69	C	-0.904050	-1.142293	-0.381038
C70	C	-0.404050	-0.642293	0.118962
C71	C	-1.071619	-1.081478	-0.442291
C72	C	-0.571619	-0.581478	0.057709
C73	C	-0.949059	-1.081167	-0.442094
C74	C	-0.449059	-0.581167	0.057906
C75	C	-0.948644	-1.119748	-0.297733
C76	C	-0.448644	-0.619748	0.202267
C77	C	-1.071243	-1.119377	-0.298105
C78	C	-0.571243	-0.619377	0.201895
C79	C	-1.071149	-1.226025	-0.402416
C80	C	-0.571149	-0.726025	0.097584
C81	C	-0.948542	-1.225512	-0.404237
C82	C	-0.448542	-0.725512	0.095763
C83	C	-0.234285	-1.142383	-0.381056
C84	C	0.265715	-0.642383	0.118944
C85	C	-0.116455	-1.142416	-0.381068
C86	C	0.383545	-0.642416	0.118932
C87	C	-0.510702	-1.142345	-0.587196
C88	C	-0.010702	-0.642345	-0.087196
C89	C	-0.510665	-1.142363	-0.675053
C90	C	-0.010665	-0.642363	-0.175053
C91	C	-0.510824	-0.348471	-0.381065
C92	C	-0.010824	0.151529	0.118935
C93	C	-0.510808	-0.436328	-0.381045
C94	C	-0.010808	0.063672	0.118955
C95	C	-0.442746	-1.091902	-1.046529
C96	C	0.057254	-0.591902	-0.546529
C97	C	-0.578361	-1.192964	-1.046528
C98	C	-0.078361	-0.692964	-0.546528
C99	C	-0.578386	-1.192950	-0.963982
C100	C	-0.078386	-0.692950	-0.463982
C101	C	-0.510590	-1.142411	-0.922706
C102	C	-0.010590	-0.642411	-0.422706
C103	C	-0.442770	-1.091885	-0.963975
C104	C	0.057230	-0.591885	-0.463975
C105	C	-0.646212	-1.243470	-0.922706
C106	C	-0.146212	-0.743470	-0.422706
C107	C	-0.646240	-1.243457	-0.840155
C108	C	-0.146240	-0.743457	-0.340155
C109	C	-0.578439	-1.192921	-0.798877
C110	C	-0.078439	-0.692921	-0.298877
C111	C	-0.510615	-1.142394	-0.840152
C112	C	-0.010615	-0.642394	-0.340152
C113	C	-0.442820	-1.091855	-0.798876
C114	C	0.057180	-0.591855	-0.298876
C115	C	-0.374990	-1.041331	-0.840149
C116	C	0.125010	-0.541331	-0.340149
C117	C	-0.374969	-1.041349	-0.922697
C118	C	0.125031	-0.541349	-0.422697
C119	C	-0.578460	-1.192903	-0.716329
C120	C	-0.078460	-0.692903	-0.216329
C121	C	-0.442845	-1.091838	-0.716322
C122	C	0.057155	-0.591838	-0.216322
C123	C	-0.510802	-1.142306	-0.175661
C124	C	-0.010802	-0.642306	0.324339
C125	C	-0.510541	-1.142442	-0.087805
C126	C	-0.010541	-0.642442	0.412195
H127	H	-0.633648	-0.443923	-0.289173
H128	H	-0.133648	0.056077	0.210827
H129	H	-0.319747	-1.000214	-0.956309
H130	H	0.180253	-0.500214	-0.456309
Cl131	Cl	-0.731326	-0.735753	-0.216065
Cl132	Cl	-0.231326	-0.235753	0.283935
H133	H	-0.633608	-0.841339	-0.289101
H134	H	-0.133608	-0.341339	0.210899
Cl135	Cl	-0.289764	-0.977800	-0.788249
Cl136	Cl	0.210236	-0.477800	-0.288249
H137	H	-0.387971	-0.444066	-0.472909
H138	H	0.112029	0.055934	0.027091
Cl139	Cl	-0.357924	-0.859777	-0.495270
Cl140	Cl	0.142076	-0.359777	0.004730
Cl141	Cl	-0.902499	-1.102940	-0.537463
Cl142	Cl	-0.402499	-0.602940	-0.037463
H143	H	-0.387517	-1.050769	-1.080137
H144	H	0.112483	-0.550769	-0.580137
H145	H	-0.320246	-0.567926	-0.523528
H146	H	0.179754	-0.067926	-0.023528
Cl147	Cl	-0.903639	-1.186100	-0.225377
Cl148	Cl	-0.403639	-0.686100	0.274623
Cl149	Cl	-0.663594	-1.256489	-1.098419
Cl150	Cl	-0.163594	-0.756489	-0.598419
H151	H	-0.320207	-0.717688	-0.523511
H152	H	0.179793	-0.217688	-0.023511
Cl153	Cl	-0.731338	-0.549414	-0.216092
Cl154	Cl	-0.231338	-0.049414	0.283908
Cl155	Cl	-0.903537	-1.251766	-0.498893
Cl156	Cl	-0.403537	-0.751766	0.001107
H157	H	-0.918027	-1.059266	-0.279323
H158	H	-0.418027	-0.559266	0.220677
Cl159	Cl	-0.731445	-1.306992	-0.974599
Cl160	Cl	-0.231445	-0.806992	-0.474599
Cl161	Cl	-1.117046	-1.184920	-0.225269
Cl162	Cl	-0.617046	-0.684920	0.274731
Cl163	Cl	-0.663732	-1.256407	-0.664446
Cl164	Cl	-0.163732	-0.756407	-0.164446
Cl165	Cl	-1.117032	-1.103049	-0.537975
Cl166	Cl	-0.617032	-0.603049	-0.037975
H167	H	-0.701472	-1.284596	-0.806558
H168	H	-0.201472	-0.784596	-0.306558
Cl169	Cl	-1.118767	-1.257780	-0.494611
Cl170	Cl	-0.618767	-0.757780	0.005389
Cl171	Cl	-1.119339	-0.986379	-0.420750
Cl172	Cl	-0.619339	-0.486379	0.079250
Cl173	Cl	-0.903905	-0.985467	-0.420260
Cl174	Cl	-0.403905	-0.485467	0.079740
Cl175	Cl	-1.115534	-1.025015	-0.270187
Cl176	Cl	-0.615534	-0.525015	0.229813
Cl177	Cl	-0.901225	-1.299306	-0.340412
Cl178	Cl	-0.401225	-0.799306	0.159588
H179	H	-1.100143	-1.271426	-0.357825
H180	H	-0.600143	-0.771426	0.142175
H181	H	-0.387632	-1.050685	-0.682721
H182	H	0.112368	-0.550685	-0.182721
