data_functionalizedCrystal
_audit_creation_method	'MofGen! by Chris Wilmer'
_symmetry_space_group_name_H-M	'P1'
_symmetry_Int_Tables_number	1
_symmetry_cell_setting	triclinic
loop_
_symmetry_equiv_pos_as_xyz
  x,y,z
_cell_length_a	27.731994
_cell_length_b	27.731993
_cell_length_c	9.130313
_cell_angle_alpha	89.991446
_cell_angle_beta	90.008653
_cell_angle_gamma	97.379399
loop_
_atom_site_label
_atom_site_type_symbol
_atom_site_fract_x
_atom_site_fract_y
_atom_site_fract_z
O1	O	-0.057390	0.640933	0.121380
O2	O	-0.066163	0.500134	0.121465
O3	O	0.008623	0.574920	0.121442
O4	O	-0.132176	0.566147	0.121403
O5	O	0.008619	0.574915	-0.122157
O6	O	-0.066167	0.500129	-0.122133
O7	O	-0.057394	0.640928	-0.122219
Cu8	Cu	-0.061781	0.570528	-0.144419
Cu9	Cu	-0.061776	0.570534	0.143665
O10	O	-0.132180	0.566142	-0.122196
C11	C	-0.065985	0.482124	-0.000323
C12	C	-0.065443	0.428468	-0.000288
C13	C	-0.061510	0.045311	0.132427
C14	C	-0.063577	0.246968	0.132466
O15	O	-0.063822	0.273044	0.245398
N16	N	-0.063838	0.272186	-0.000316
C17	C	-0.063579	0.246986	-0.133118
O18	O	-0.063843	0.273063	-0.246057
C19	C	-0.061508	0.045330	-0.133156
C20	C	-0.061252	0.020115	-0.000365
C21	C	-0.061253	0.020096	0.265208
C22	C	-0.060739	-0.030316	0.265197
C23	C	-0.060481	-0.055512	0.132405
C24	C	-0.060738	-0.030297	-0.000376
C25	C	-0.061246	0.020132	-0.265957
C26	C	-0.060727	-0.030285	-0.265954
C27	C	-0.060471	-0.055500	-0.133163
C28	C	-0.059967	-0.105904	-0.133179
N29	N	-0.059705	-0.131122	-0.000396
C30	C	-0.059963	-0.105926	0.132396
C31	C	-0.064667	0.352858	-0.133089
C32	C	-0.065185	0.403272	-0.133080
C33	C	-0.065182	0.403250	0.132505
C34	C	-0.064667	0.352835	0.132495
C35	C	-0.064406	0.327641	-0.000307
C36	C	-0.058884	-0.211794	0.132363
C37	C	-0.058372	-0.262210	0.132340
C38	C	-0.058372	-0.262184	-0.133245
C39	C	-0.058887	-0.211772	-0.133223
C40	C	-0.059141	-0.186578	-0.000407
O41	O	-0.059715	-0.132010	-0.246051
O42	O	-0.059688	-0.132010	0.245318
C43	C	-0.062024	0.095723	0.132438
C44	C	-0.062280	0.120938	-0.000342
C45	C	-0.062023	0.095742	-0.133134
C46	C	-0.062799	0.171352	-0.000333
C47	C	-0.063056	0.196548	0.132459
C48	C	-0.062795	0.171330	0.265241
C49	C	-0.062281	0.120919	0.265230
C50	C	-0.062284	0.120959	-0.265917
C51	C	-0.062799	0.171371	-0.265895
C52	C	-0.063056	0.196567	-0.133103
C53	C	-0.150185	0.566325	-0.000402
C54	C	-0.203841	0.566867	-0.000419
C55	C	-0.536557	0.570285	0.132430
C56	C	-0.738215	0.572347	0.132450
O57	O	-0.764285	0.572637	0.245379
N58	N	-0.763432	0.572600	-0.000335
C59	C	-0.738231	0.572341	-0.133135
O60	O	-0.764306	0.572609	-0.246076
C61	C	-0.536574	0.570283	-0.133154
C62	C	-0.511360	0.570025	-0.000360
C63	C	-0.511343	0.570028	0.265213
C64	C	-0.460932	0.569510	0.265206
C65	C	-0.435735	0.569249	0.132417
C66	C	-0.460949	0.569507	-0.000366
C67	C	-0.511374	0.570028	-0.265952
C68	C	-0.460956	0.569514	-0.265945
C69	C	-0.435742	0.569256	-0.133151
C70	C	-0.385341	0.568728	-0.133162
N71	N	-0.360124	0.568475	-0.000377
C72	C	-0.385320	0.568736	0.132412
C73	C	-0.844104	0.573421	-0.133116
C74	C	-0.894518	0.573934	-0.133111
C75	C	-0.894498	0.573941	0.132474
C76	C	-0.844084	0.573424	0.132468
C77	C	-0.818887	0.573167	-0.000330
C78	C	-0.279454	0.567647	0.132389
C79	C	-0.229038	0.567127	0.132371
C80	C	-0.229063	0.567123	-0.133214
C81	C	-0.279474	0.567641	-0.133196
C82	C	-0.304668	0.567904	-0.000383
O83	O	-0.359238	0.568444	-0.246032
O84	O	-0.359235	0.568479	0.245337
C85	C	-0.586968	0.570803	0.132436
C86	C	-0.612182	0.571061	-0.000347
C87	C	-0.586985	0.570800	-0.133136
C88	C	-0.662596	0.571575	-0.000343
C89	C	-0.687793	0.571835	0.132447
C90	C	-0.662576	0.571582	0.265232
C91	C	-0.612165	0.571064	0.265225
C92	C	-0.612202	0.571054	-0.265922
C93	C	-0.662613	0.571571	-0.265904
C94	C	-0.687810	0.571832	-0.133115
C95	C	0.026628	0.574737	-0.000348
C96	C	0.080285	0.574195	-0.000322
C97	C	-0.057572	0.658938	-0.000428
C98	C	-0.058114	0.712594	-0.000452
N99	N	-0.061784	0.570527	-0.347041
C100	C	-0.090894	0.599618	-0.423735
C101	C	-0.090885	0.599626	-0.577072
C102	C	-0.032656	0.541446	-0.577008
C103	C	-0.032663	0.541442	-0.423674
C104	C	-0.120015	0.628704	-0.347102
C105	C	-0.149127	0.657797	-0.423795
C106	C	-0.149118	0.657804	-0.577132
C107	C	-0.119997	0.628718	-0.653776
N108	N	-0.061769	0.570538	0.346288
H109	H	-0.061461	0.040605	0.373349
F110	F	-0.306260	0.567928	0.273744
F111	F	-0.180114	0.688755	-0.342225
H112	H	-0.058164	-0.282738	0.240479
H113	H	-0.300007	0.567832	-0.241328
H114	H	-0.119987	0.628731	-0.778633
F115	F	-0.921349	0.574198	-0.274449
H116	H	-0.440443	0.569306	-0.374088
H117	H	-0.064452	0.332349	-0.241238
H118	H	-0.061453	0.040654	-0.374090
H119	H	-0.008948	0.517764	-0.639423
H120	H	-0.683139	0.571777	-0.374049
F121	F	-0.059154	-0.184987	0.273720
H122	H	-0.063008	0.191854	0.373365
F123	F	-0.001674	0.510487	-0.342047
F124	F	-0.060463	-0.057145	0.406533
H125	H	-0.064459	0.332308	0.240625
H126	H	-0.065402	0.423797	-0.241212
F127	F	-0.059166	-0.184936	-0.274553
F128	F	-0.063075	0.198201	-0.407240
H129	H	-0.440406	0.569303	0.373341
H130	H	-0.060518	-0.050796	-0.374099
H131	H	-0.823558	0.573213	0.240601
F132	F	-0.202238	0.566842	-0.274531
H133	H	-0.531853	0.570241	0.373352
H134	H	-0.065393	0.423773	0.240630
H135	H	-0.058165	-0.282708	-0.241360
F136	F	-0.180097	0.688771	-0.658751
F137	F	-0.921324	0.574212	0.273799
F138	F	-0.062008	0.094089	0.406566
F139	F	-0.202207	0.566852	0.273714
F140	F	-0.062013	0.094150	-0.407260
F141	F	-0.817294	0.573146	-0.274468
F142	F	-0.585336	0.570790	0.406564
F143	F	-0.538198	0.570297	-0.407292
H144	H	-0.683101	0.571790	0.373354
F145	F	-0.585392	0.570776	-0.407262
H146	H	-0.120027	0.628700	-0.222247
