data_functionalizedCrystal
_audit_creation_method	'MofGen! by Chris Wilmer'
_symmetry_space_group_name_H-M	'P1'
_symmetry_Int_Tables_number	1
_symmetry_cell_setting	triclinic
loop_
_symmetry_equiv_pos_as_xyz
  x,y,z
_cell_length_a	15.711784
_cell_length_b	15.625429
_cell_length_c	14.750779
_cell_angle_alpha	59.907167
_cell_angle_beta	106.501624
_cell_angle_gamma	101.028942
loop_
_atom_site_label
_atom_site_type_symbol
_atom_site_fract_x
_atom_site_fract_y
_atom_site_fract_z
O1	O	1.084669	0.539499	-0.267634
O2	O	1.584669	1.039499	0.232366
O3	O	0.838887	0.466571	-0.242244
O4	O	1.338887	0.966571	0.257756
O5	O	0.979704	0.366024	-0.207248
O6	O	1.479704	0.866024	0.292752
O7	O	0.943852	0.640046	-0.302629
O8	O	1.443852	1.140046	0.197371
O9	O	1.019511	0.337606	-0.037707
O10	O	1.519511	0.837606	0.462293
O11	O	0.878694	0.438152	-0.072703
O12	O	1.378694	0.938152	0.427297
O13	O	1.124476	0.511081	-0.098092
O14	O	1.624476	1.011081	0.401908
Zn15	Zn	1.007905	0.470104	-0.058479
Zn16	Zn	1.507905	0.970104	0.441521
Zn17	Zn	0.955458	0.507547	-0.281857
Zn18	Zn	1.455458	1.007547	0.218143
O19	O	0.983659	0.611627	-0.133088
O20	O	1.483659	1.111627	0.366912
C21	C	0.827547	0.440448	-0.153326
C22	C	1.327547	0.940448	0.346674
C23	C	0.734452	0.404938	-0.140964
C24	C	1.234452	0.904938	0.359036
C25	C	1.001932	0.315934	-0.109990
C26	C	1.501932	0.815934	0.390010
C27	C	1.008845	0.209017	-0.072781
C28	C	1.508845	0.709017	0.427219
C29	C	0.620283	0.271258	-0.094432
C30	C	1.120283	0.771258	0.405568
C31	C	0.707758	0.304634	-0.106051
C32	C	1.207758	0.804634	0.393949
C33	C	0.673673	0.471907	-0.164279
C34	C	1.173673	0.971907	0.335721
C35	C	0.586192	0.438545	-0.152670
C36	C	1.086192	0.938545	0.347330
C37	C	0.559505	0.338220	-0.117745
C38	C	1.059505	0.838220	0.382255
C39	C	0.525415	0.505507	-0.175983
C40	C	1.025415	1.005507	0.324017
C41	C	0.437943	0.472147	-0.164370
C42	C	0.937943	0.972147	0.335630
C43	C	0.411249	0.371825	-0.129443
C44	C	0.911249	0.871825	0.370557
C45	C	0.472033	0.304860	-0.106132
C46	C	0.972033	0.804860	0.393868
C47	C	0.552106	0.605831	-0.210900
C48	C	1.052106	1.105831	0.289100
C49	C	0.491328	0.672793	-0.234213
C50	C	0.991328	1.172793	0.265787
C51	C	0.403853	0.639434	-0.222607
C52	C	0.903853	1.139434	0.277393
C53	C	0.377159	0.539113	-0.187681
C54	C	0.877159	1.039113	0.312319
C55	C	0.343068	0.706400	-0.245918
C56	C	0.843068	1.206400	0.254082
C57	C	0.255597	0.673040	-0.234305
C58	C	0.755597	1.173040	0.265695
C59	C	0.289687	0.505752	-0.176068
C60	C	0.789687	1.005752	0.323932
C61	C	0.923075	-0.065182	-0.412448
C62	C	1.423075	0.434818	0.087552
C63	C	0.929575	-0.165654	-0.377452
C64	C	1.429575	0.334346	0.122548
C65	C	0.972970	-0.196620	-0.192630
C66	C	1.472970	0.303380	0.307370
C67	C	0.966478	-0.096148	-0.227611
C68	C	1.466478	0.403852	0.272389
C69	C	0.941529	-0.030437	-0.337521
C70	C	1.441529	0.469563	0.162479
C71	C	0.984932	-0.061403	-0.152683
C72	C	1.484932	0.438597	0.347317
C73	C	0.978435	0.039059	-0.187662
C74	C	1.478435	0.539059	0.312338
C75	C	0.953485	0.104775	-0.297567
C76	C	1.453485	0.604775	0.202433
C77	C	0.935033	0.070025	-0.372499
C78	C	1.435033	0.570025	0.127501
C79	C	1.009875	-0.127117	-0.042773
C80	C	1.509875	0.372883	0.457227
C81	C	1.028329	-0.092372	0.032154
C82	C	1.528329	0.407628	0.532154
C83	C	1.021838	0.008093	-0.002824
C84	C	1.521838	0.508093	0.497176
C85	C	0.996888	0.073809	-0.112730
C86	C	1.496888	0.573809	0.387270
C87	C	1.040291	0.042843	0.072108
C88	C	1.540291	0.542843	0.572108
C89	C	1.033794	0.143305	0.037130
C90	C	1.533794	0.643305	0.537130
C91	C	0.990392	0.174271	-0.147708
C92	C	1.490392	0.674271	0.352292
C93	C	1.135816	0.537204	-0.187012
C94	C	1.635816	1.037204	0.312988
C95	C	1.228909	0.572714	-0.199381
C96	C	1.728909	1.072714	0.300619
C97	C	0.961431	0.661718	-0.230348
C98	C	1.461431	1.161718	0.269652
C99	C	0.954516	0.768636	-0.267564
C100	C	1.454516	1.268636	0.232436
N101	N	1.043706	0.444552	0.093970
N102	N	1.543706	0.944552	0.593970
N103	N	0.919665	0.533094	-0.434305
N104	N	1.419665	1.033094	0.065695
C105	C	0.819683	0.604415	0.390147
C106	C	1.319683	1.104415	0.890147
C107	C	0.844776	0.586518	0.496876
C108	C	1.344776	1.086518	0.996876
C109	C	0.969489	0.497541	0.527807
C110	C	1.469489	0.997541	1.027807
C111	C	0.944405	0.515426	0.421081
C112	C	1.444405	1.015426	0.921081
C113	C	0.869502	0.568865	0.352259
C114	C	1.369502	1.068865	0.852259
C115	C	0.994223	0.479876	0.383192
C116	C	1.494223	0.979876	0.883192
C117	C	0.969144	0.497764	0.276474
C118	C	1.469144	0.997764	0.776474
C119	C	0.894245	0.551203	0.207644
C120	C	1.394245	1.051203	0.707644
C121	C	0.844422	0.586753	0.245540
C122	C	1.344422	1.086753	0.745540
C123	C	1.069130	0.426444	0.452014
C124	C	1.569130	0.926444	0.952014
C125	C	1.118948	0.390893	0.414126
C126	C	1.618948	0.890893	0.914126
C127	C	1.093865	0.408775	0.307407
C128	C	1.593865	0.908775	0.807407
C129	C	1.018967	0.462214	0.238578
C130	C	1.518967	0.962214	0.738578
C131	C	1.143688	0.373225	0.269511
C132	C	1.643688	0.873225	0.769511
C133	C	1.118608	0.391114	0.162793
C134	C	1.618608	0.891114	0.662793
C135	C	0.993887	0.480102	0.131859
C136	C	1.493887	0.980102	0.631859
H137	H	0.267955	0.424059	-0.147639
H138	H	0.767955	0.924059	0.352361
H139	H	0.206110	0.727566	-0.253285
H140	H	0.706110	1.227566	0.246715
H141	H	1.204680	0.329723	0.325557
H142	H	1.704680	0.829723	0.825557
H143	H	1.159177	0.362166	0.131944
H144	H	1.659177	0.862166	0.631944
Br145	Br	1.018686	-0.263462	0.004699
Br146	Br	1.518686	0.236538	0.504699
H147	H	0.970083	0.227780	-0.237208
H148	H	1.470083	0.727780	0.262792
H149	H	0.993281	-0.250136	-0.103140
H150	H	1.493281	0.249864	0.396860
H151	H	0.757242	0.250099	-0.087067
H152	H	1.257242	0.750099	0.412933
Br153	Br	0.379302	0.842548	-0.293299
Br154	Br	0.879302	1.342548	0.206701
Br155	Br	1.058841	0.190466	0.138816
Br156	Br	1.558841	0.690466	0.638816
H157	H	0.598550	0.189565	-0.066004
H158	H	1.098550	0.689565	0.433996
Br159	Br	1.062176	-0.181561	0.181314
Br160	Br	1.562176	0.318439	0.681314
H161	H	0.948187	0.186575	-0.326044
H162	H	1.448187	0.686575	0.173956
Br163	Br	0.527555	0.808945	-0.281608
Br164	Br	1.027555	1.308945	0.218392
H165	H	0.450301	0.223167	-0.077704
H166	H	0.950301	0.723167	0.422296
H167	H	1.060596	-0.010675	0.161598
H168	H	1.560596	0.489325	0.661598
Br169	Br	0.892220	0.552611	0.038457
Br170	Br	1.392220	1.052611	0.538457
H171	H	0.783423	0.630259	0.189504
H172	H	1.283423	1.130259	0.689504
Br173	Br	0.718017	0.676923	0.296746
Br174	Br	1.218017	1.176923	0.796746
H175	H	1.179937	0.347386	0.470172
H176	H	1.679937	0.847386	0.970172
H177	H	0.914724	0.123533	-0.462000
H178	H	1.414724	0.623533	0.038000
Br179	Br	0.777157	0.634780	0.548284
Br180	Br	1.277157	1.134780	1.048284
H181	H	0.873829	0.565771	0.120746
H182	H	1.373829	1.065771	0.620746
H183	H	1.030478	0.454034	0.583853
H184	H	1.530478	0.954034	1.083853
H185	H	0.914538	-0.193938	-0.438475
H186	H	1.414538	0.306062	0.061525
Br187	Br	0.292539	0.326544	-0.113669
Br188	Br	0.792539	0.826544	0.386331
H189	H	0.695416	0.553592	-0.192711
H190	H	1.195416	1.053592	0.307289
H191	H	0.623333	0.632989	-0.220350
H192	H	1.123333	1.132989	0.279650
Br193	Br	0.889232	0.024010	-0.561616
Br194	Br	1.389232	0.524010	-0.061616
Br195	Br	1.103169	0.402178	0.596845
Br196	Br	1.603169	0.902178	1.096845
