data_functionalizedCrystal
_audit_creation_method	'MofGen! by Chris Wilmer'
_symmetry_space_group_name_H-M	'P1'
_symmetry_Int_Tables_number	1
_symmetry_cell_setting	triclinic
loop_
_symmetry_equiv_pos_as_xyz
  x,y,z
_cell_length_a	25.639242
_cell_length_b	21.395361
_cell_length_c	25.639243
_cell_angle_alpha	89.983775
_cell_angle_beta	90.019739
_cell_angle_gamma	89.973766
loop_
_atom_site_label
_atom_site_type_symbol
_atom_site_fract_x
_atom_site_fract_y
_atom_site_fract_z
Zn1	Zn	0.799242	0.249619	0.295734
Zn2	Zn	1.049242	0.499619	0.545734
Zn3	Zn	1.299242	0.749619	0.795734
Zn4	Zn	1.549242	0.999619	1.045734
Zn5	Zn	0.799181	0.354369	0.208295
Zn6	Zn	1.049181	0.604369	0.458295
Zn7	Zn	1.299181	0.854369	0.708295
Zn8	Zn	1.549181	1.104369	0.958295
Zn9	Zn	0.711822	0.249601	0.208298
Zn10	Zn	0.961822	0.499601	0.458298
Zn11	Zn	1.211822	0.749601	0.708298
Zn12	Zn	1.461822	0.999601	0.958298
Zn13	Zn	0.711775	0.354354	0.295685
Zn14	Zn	0.961775	0.604354	0.545685
Zn15	Zn	1.211775	0.854354	0.795685
Zn16	Zn	1.461775	1.104354	1.045685
O17	O	0.755505	0.301986	0.252003
O18	O	1.005505	0.551986	0.502003
O19	O	1.255505	0.801986	0.752003
O20	O	1.505505	1.051986	1.002003
O21	O	0.872399	0.263527	0.284154
O22	O	1.122399	0.513527	0.534154
O23	O	1.372399	0.763527	0.784154
O24	O	1.622399	1.013527	1.034154
O25	O	0.787587	0.340470	0.135130
O26	O	1.037587	0.590470	0.385130
O27	O	1.287587	0.840470	0.635130
O28	O	1.537587	1.090470	0.885130
O29	O	0.723463	0.161925	0.219919
O30	O	0.973463	0.411925	0.469919
O31	O	1.223463	0.661925	0.719919
O32	O	1.473463	0.911925	0.969919
O33	O	0.872354	0.340487	0.219913
O34	O	1.122354	0.590487	0.469913
O35	O	1.372354	0.840487	0.719913
O36	O	1.622354	1.090487	0.969913
O37	O	0.787690	0.161938	0.284157
O38	O	1.037690	0.411938	0.534157
O39	O	1.287690	0.661938	0.784157
O40	O	1.537690	0.911938	1.034157
O41	O	0.723404	0.263497	0.135133
O42	O	0.973404	0.513497	0.385133
O43	O	1.223404	0.763497	0.635133
O44	O	1.473404	1.013497	0.885133
O45	O	0.638650	0.263483	0.219871
O46	O	0.888650	0.513483	0.469871
O47	O	1.138650	0.763483	0.719871
O48	O	1.388650	1.013483	0.969871
O49	O	0.723384	0.340462	0.368857
O50	O	0.973384	0.590462	0.618857
O51	O	1.223384	0.840462	0.868857
O52	O	1.473384	1.090462	1.118857
O53	O	0.638616	0.340445	0.284074
O54	O	0.888616	0.590445	0.534074
O55	O	1.138616	0.840445	0.784074
O56	O	1.388616	1.090445	1.034074
O57	O	0.787645	0.263513	0.368893
O58	O	1.037645	0.513513	0.618893
O59	O	1.287645	0.763513	0.868893
O60	O	1.537645	1.013513	1.118893
O61	O	0.787541	0.442045	0.219866
O62	O	1.037541	0.692045	0.469866
O63	O	1.287541	0.942045	0.719866
O64	O	1.537541	1.192045	0.969866
O65	O	0.723325	0.442034	0.284071
O66	O	0.973325	0.692034	0.534071
O67	O	1.223325	0.942034	0.784071
O68	O	1.473325	1.192034	1.034071
C69	C	0.619662	0.301961	0.251968
C70	C	0.869662	0.551961	0.501968
C71	C	1.119662	0.801961	0.751968
C72	C	1.369662	1.051961	1.001968
C73	C	0.561548	0.301965	0.251965
C74	C	0.811548	0.551965	0.501965
C75	C	1.061548	0.801965	0.751965
C76	C	1.311548	1.051965	1.001965
C77	C	0.755436	0.464773	0.251974
C78	C	1.005436	0.714773	0.501974
C79	C	1.255436	0.964773	0.751974
C80	C	1.505436	1.214773	1.001974
C81	C	0.755454	0.534414	0.251979
C82	C	1.005454	0.784414	0.501979
C83	C	1.255454	1.034414	0.751979
C84	C	1.505454	1.284414	1.001979
C85	C	0.755516	0.301988	0.388376
C86	C	1.005516	0.551988	0.638376
C87	C	1.255516	0.801988	0.888376
C88	C	1.505516	1.051988	1.138376
C89	C	0.755521	0.301989	0.446490
C90	C	1.005521	0.551989	0.696490
C91	C	1.255521	0.801989	0.946490
C92	C	1.505521	1.051989	1.196490
C93	C	0.201176	0.342127	0.285402
C94	C	0.451176	0.592127	0.535402
C95	C	0.701176	0.842127	0.785402
C96	C	0.951176	1.092127	1.035402
C97	C	0.146572	0.342130	0.285410
C98	C	0.396572	0.592130	0.535410
C99	C	0.646572	0.842130	0.785410
C100	C	0.896572	1.092130	1.035410
O101	O	0.118328	0.376246	0.313809
O102	O	0.368328	0.626246	0.563809
O103	O	0.618328	0.876246	0.813809
O104	O	0.868328	1.126246	1.063809
N105	N	0.119266	0.302003	0.252037
N106	N	0.369266	0.552003	0.502037
N107	N	0.619266	0.802003	0.752037
N108	N	0.869266	1.052003	1.002037
C109	C	0.146567	0.261864	0.218658
C110	C	0.396567	0.511864	0.468658
C111	C	0.646567	0.761864	0.718658
C112	C	0.896567	1.011864	0.968658
O113	O	0.118327	0.227733	0.190273
O114	O	0.368327	0.477733	0.440273
O115	O	0.618327	0.727733	0.690273
O116	O	0.868327	0.977733	0.940273
C117	C	0.201170	0.261858	0.218653
C118	C	0.451170	0.511858	0.468653
C119	C	0.701170	0.761858	0.718653
C120	C	0.951170	1.011858	0.968653
C121	C	0.228473	0.301992	0.252024
C122	C	0.478473	0.551992	0.502024
C123	C	0.728473	0.801992	0.752024
C124	C	0.978473	1.051992	1.002024
C125	C	0.228480	0.382257	0.318771
C126	C	0.478480	0.632257	0.568771
C127	C	0.728480	0.882257	0.818771
C128	C	0.978480	1.132257	1.068771
C129	C	0.283080	0.382254	0.318762
C130	C	0.533080	0.632254	0.568762
C131	C	0.783080	0.882254	0.818762
C132	C	1.033080	1.132254	1.068762
C133	C	0.310377	0.342120	0.285384
C134	C	0.560377	0.592120	0.535384
C135	C	0.810377	0.842120	0.785384
C136	C	1.060377	1.092120	1.035384
C137	C	0.283074	0.301989	0.252015
C138	C	0.533074	0.551989	0.502015
C139	C	0.783074	0.801989	0.752015
C140	C	1.033074	1.051989	1.002015
C141	C	0.228470	0.221717	0.185276
C142	C	0.478470	0.471717	0.435276
C143	C	0.728470	0.721717	0.685276
C144	C	0.978470	0.971717	0.935276
C145	C	0.283077	0.221713	0.185274
C146	C	0.533077	0.471713	0.435274
C147	C	0.783077	0.721713	0.685274
C148	C	1.033077	0.971713	0.935274
C149	C	0.310380	0.261848	0.218645
C150	C	0.560380	0.511848	0.468645
C151	C	0.810380	0.761848	0.718645
C152	C	1.060380	1.011848	0.968645
C153	C	0.364971	0.261852	0.218628
C154	C	0.614971	0.511852	0.468628
C155	C	0.864971	0.761852	0.718628
C156	C	1.114971	1.011852	0.968628
N157	N	0.392278	0.301980	0.252001
N158	N	0.642278	0.551980	0.502001
N159	N	0.892278	0.801980	0.752001
N160	N	1.142278	1.051980	1.002001
C161	C	0.364981	0.342114	0.285379
C162	C	0.614981	0.592114	0.535379
C163	C	0.864981	0.842114	0.785379
C164	C	1.114981	1.092114	1.035379
C165	C	0.031896	0.261880	0.218672
C166	C	0.281896	0.511880	0.468672
C167	C	0.531896	0.761880	0.718672
C168	C	0.781896	1.011880	0.968672
C169	C	-0.022706	0.261890	0.218674
C170	C	0.227294	0.511890	0.468674
C171	C	0.477294	0.761890	0.718674
C172	C	0.727294	1.011890	0.968674
C173	C	-0.022697	0.342155	0.285427
C174	C	0.227303	0.592155	0.535427
C175	C	0.477303	0.842155	0.785427
C176	C	0.727303	1.092155	1.035427
C177	C	0.031906	0.342148	0.285422
C178	C	0.281906	0.592148	0.535422
C179	C	0.531906	0.842148	0.785422
C180	C	0.781906	1.092148	1.035422
C181	C	0.059202	0.302008	0.252045
C182	C	0.309202	0.552008	0.502045
C183	C	0.559202	0.802008	0.752045
C184	C	0.809202	1.052008	1.002045
C185	C	0.479646	0.342104	0.285357
C186	C	0.729646	0.592104	0.535357
C187	C	0.979646	0.842104	0.785357
C188	C	1.229646	1.092104	1.035357
C189	C	0.534251	0.342099	0.285343
C190	C	0.784251	0.592099	0.535343
C191	C	1.034251	0.842099	0.785343
C192	C	1.284251	1.092099	1.035343
C193	C	0.534237	0.261832	0.218592
C194	C	0.784237	0.511832	0.468592
C195	C	1.034237	0.761832	0.718592
C196	C	1.284237	1.011832	0.968592
C197	C	0.479637	0.261839	0.218604
C198	C	0.729637	0.511839	0.468604
C199	C	0.979637	0.761839	0.718604
C200	C	1.229637	1.011839	0.968604
C201	C	0.452342	0.301977	0.251990
C202	C	0.702342	0.551977	0.501990
C203	C	0.952342	0.801977	0.751990
C204	C	1.202342	1.051977	1.001990
O205	O	0.393250	0.227752	0.190245
O206	O	0.643250	0.477752	0.440245
O207	O	0.893250	0.727752	0.690245
O208	O	1.143250	0.977752	0.940245
O209	O	0.393227	0.376234	0.313764
O210	O	0.643227	0.626234	0.563764
O211	O	0.893227	0.876234	0.813764
O212	O	1.143227	1.126234	1.063764
C213	C	0.891878	0.302011	0.252039
C214	C	1.141878	0.552011	0.502039
C215	C	1.391878	0.802011	0.752039
C216	C	1.641878	1.052011	1.002039
C217	C	0.949992	0.302022	0.252054
C218	C	1.199992	0.552022	0.502054
C219	C	1.449992	0.802022	0.752054
C220	C	1.699992	1.052022	1.002054
C221	C	0.755588	0.138562	0.252044
C222	C	1.005588	0.388562	0.502044
C223	C	1.255588	0.638562	0.752044
C224	C	1.505588	0.888562	1.002044
C225	C	0.755624	0.068921	0.252061
C226	C	1.005624	0.318921	0.502061
C227	C	1.255624	0.568921	0.752061
C228	C	1.505624	0.818921	1.002061
C229	C	0.788921	0.567112	0.218582
C230	C	1.038921	0.817112	0.468582
C231	C	1.288921	1.067112	0.718582
C232	C	1.538921	1.317112	0.968582
C233	C	0.788946	0.632548	0.218594
C234	C	1.038946	0.882548	0.468594
C235	C	1.288946	1.132548	0.718594
C236	C	1.538946	1.382548	0.968594
C237	C	0.755493	0.665283	0.251997
C238	C	1.005493	0.915283	0.501997
C239	C	1.255493	1.165283	0.751997
C240	C	1.505493	1.415283	1.001997
C241	C	0.722024	0.632577	0.285401
C242	C	0.972024	0.882577	0.535401
C243	C	1.222024	1.132577	0.785401
C244	C	1.472024	1.382577	1.035401
C245	C	0.722004	0.567143	0.285392
C246	C	0.972004	0.817143	0.535392
C247	C	1.222004	1.067143	0.785392
C248	C	1.472004	1.317143	1.035392
C249	C	0.708416	0.768994	0.256087
C250	C	0.958416	1.018994	0.506087
C251	C	1.208416	1.268994	0.756087
C252	C	1.458416	1.518994	1.006087
C253	C	0.708434	0.834427	0.256092
C254	C	0.958434	1.084427	0.506092
C255	C	1.208434	1.334427	0.756092
C256	C	1.458434	1.584427	1.006092
C257	C	0.755554	0.867103	0.252028
C258	C	1.005554	1.117103	0.502028
C259	C	1.255554	1.367103	0.752028
C260	C	1.505554	1.617103	1.002028
C261	C	0.802657	0.834339	0.247947
C262	C	1.052657	1.084339	0.497947
C263	C	1.302657	1.334339	0.747947
C264	C	1.552657	1.584339	0.997947
C265	C	0.802637	0.768905	0.247938
C266	C	1.052637	1.018905	0.497938
C267	C	1.302637	1.268905	0.747938
C268	C	1.552637	1.518905	0.997938
C269	C	0.755511	0.736235	0.252011
C270	C	1.005511	0.986235	0.502011
C271	C	1.255511	1.236235	0.752011
C272	C	1.505511	1.486235	1.002011
C273	C	0.789051	0.970754	0.218641
C274	C	1.039051	1.220754	0.468641
C275	C	1.289051	1.470754	0.718641
C276	C	1.539051	1.720754	0.968641
C277	C	0.789076	1.036191	0.218657
C278	C	1.039076	1.286191	0.468657
C279	C	1.289076	1.536191	0.718657
C280	C	1.539076	1.786191	0.968657
C281	C	0.722149	1.036218	0.285461
C282	C	0.972149	1.286218	0.535461
C283	C	1.222149	1.536218	0.785461
C284	C	1.472149	1.786218	1.035461
C285	C	0.722129	0.970783	0.285449
C286	C	0.972129	1.220783	0.535449
C287	C	1.222129	1.470783	0.785449
C288	C	1.472129	1.720783	1.035449
C289	C	0.755579	0.938055	0.252036
C290	C	1.005579	1.188055	0.502036
C291	C	1.255579	1.438055	0.752036
C292	C	1.505579	1.688055	1.002036
C293	C	0.788922	0.342072	0.697675
C294	C	1.038922	0.592072	0.947675
C295	C	1.288922	0.842072	1.197675
C296	C	1.538922	1.092072	1.447675
C297	C	0.788924	0.342074	0.643071
C298	C	1.038924	0.592074	0.893071
C299	C	1.288924	0.842074	1.143071
C300	C	1.538924	1.092074	1.393071
O301	O	0.817329	0.376170	0.614827
O302	O	1.067329	0.626170	0.864827
O303	O	1.317329	0.876170	1.114827
O304	O	1.567329	1.126170	1.364827
N305	N	0.755510	0.301996	0.615764
N306	N	1.005510	0.551996	0.865764
N307	N	1.255510	0.801996	1.115764
N308	N	1.505510	1.051996	1.365764
C309	C	0.722090	0.261919	0.643065
C310	C	0.972090	0.511919	0.893065
C311	C	1.222090	0.761919	1.143065
C312	C	1.472090	1.011919	1.393065
O313	O	0.693669	0.227831	0.614825
O314	O	0.943669	0.477831	0.864825
O315	O	1.193669	0.727831	1.114825
O316	O	1.443669	0.977831	1.364825
C317	C	0.722086	0.261922	0.697668
C318	C	0.972086	0.511922	0.947668
C319	C	1.222086	0.761922	1.197668
C320	C	1.472086	1.011922	1.447668
C321	C	0.755505	0.301997	0.724972
C322	C	1.005505	0.551997	0.974972
C323	C	1.255505	0.801997	1.224972
C324	C	1.505505	1.051997	1.474972
C325	C	0.822338	0.382145	0.724979
C326	C	1.072338	0.632145	0.974979
C327	C	1.322338	0.882145	1.224979
C328	C	1.572338	1.132145	1.474979
C329	C	0.822338	0.382143	0.779579
C330	C	1.072338	0.632143	1.029579
C331	C	1.322338	0.882143	1.279579
C332	C	1.572338	1.132143	1.529579
C333	C	0.788921	0.342068	0.806876
C334	C	1.038921	0.592068	1.056876
C335	C	1.288921	0.842068	1.306876
C336	C	1.538921	1.092068	1.556876
C337	C	0.755505	0.301995	0.779572
C338	C	1.005505	0.551995	1.029572
C339	C	1.255505	0.801995	1.279572
C340	C	1.505505	1.051995	1.529572
C341	C	0.688663	0.221849	0.724968
C342	C	0.938663	0.471849	0.974968
C343	C	1.188663	0.721849	1.224968
C344	C	1.438663	0.971849	1.474968
C345	C	0.688662	0.221855	0.779575
C346	C	0.938662	0.471855	1.029575
C347	C	1.188662	0.721855	1.279575
C348	C	1.438662	0.971855	1.529575
C349	C	0.722081	0.261931	0.806878
C350	C	0.972081	0.511931	1.056878
C351	C	1.222081	0.761931	1.306878
C352	C	1.472081	1.011931	1.556878
C353	C	0.722087	0.261918	0.861470
C354	C	0.972087	0.511918	1.111470
C355	C	1.222087	0.761918	1.361470
C356	C	1.472087	1.011918	1.611470
N357	N	0.755500	0.301996	0.888776
N358	N	1.005500	0.551996	1.138776
N359	N	1.255500	0.801996	1.388776
N360	N	1.505500	1.051996	1.638776
C361	C	0.788917	0.342071	0.861479
C362	C	1.038917	0.592071	1.111479
C363	C	1.288917	0.842071	1.361479
C364	C	1.538917	1.092071	1.611479
C365	C	0.722099	0.261918	0.528394
C366	C	0.972099	0.511918	0.778394
C367	C	1.222099	0.761918	1.028394
C368	C	1.472099	1.011918	1.278394
C369	C	0.722105	0.261911	0.473792
C370	C	0.972105	0.511911	0.723792
C371	C	1.222105	0.761911	0.973792
C372	C	1.472105	1.011911	1.223792
C373	C	0.788939	0.342067	0.473801
C374	C	1.038939	0.592067	0.723801
C375	C	1.288939	0.842067	0.973801
C376	C	1.538939	1.092067	1.223801
C377	C	0.788935	0.342069	0.528405
C378	C	1.038935	0.592069	0.778405
C379	C	1.288935	0.842069	1.028405
C380	C	1.538935	1.092069	1.278405
C381	C	0.755513	0.301995	0.555701
C382	C	1.005513	0.551995	0.805701
C383	C	1.255513	0.801995	1.055701
C384	C	1.505513	1.051995	1.305701
C385	C	0.788913	0.342063	0.976144
C386	C	1.038913	0.592063	1.226144
C387	C	1.288913	0.842063	1.476144
C388	C	1.538913	1.092063	1.726144
C389	C	0.788911	0.342056	1.030750
C390	C	1.038911	0.592056	1.280750
C391	C	1.288911	0.842056	1.530750
C392	C	1.538911	1.092056	1.780750
C393	C	0.722076	0.261903	1.030735
C394	C	0.972076	0.511903	1.280735
C395	C	1.222076	0.761903	1.530735
C396	C	1.472076	1.011903	1.780735
C397	C	0.722080	0.261908	0.976135
C398	C	0.972080	0.511908	1.226135
C399	C	1.222080	0.761908	1.476135
C400	C	1.472080	1.011908	1.726135
C401	C	0.755500	0.301993	0.948841
C402	C	1.005500	0.551993	1.198841
C403	C	1.255500	0.801993	1.448841
C404	C	1.505500	1.051993	1.698841
O405	O	0.693694	0.227841	0.889748
O406	O	0.943694	0.477841	1.139748
O407	O	1.193694	0.727841	1.389748
O408	O	1.443694	0.977841	1.639748
O409	O	0.817328	0.376160	0.889726
O410	O	1.067328	0.626160	1.139726
O411	O	1.317328	0.876160	1.389726
O412	O	1.567328	1.126160	1.639726
C413	C	0.755492	0.301993	1.116161
C414	C	1.005492	0.551993	1.366161
C415	C	1.255492	0.801993	1.616161
C416	C	1.505492	1.051993	1.866161
C417	C	0.755494	0.301981	1.058047
C418	C	1.005494	0.551981	1.308047
C419	C	1.255494	0.801981	1.558047
C420	C	1.505494	1.051981	1.808047
H421	H	0.556479	0.374784	0.312518
H422	H	0.806479	0.624784	0.562518
H423	H	1.056479	0.874784	0.812518
H424	H	1.306479	1.124784	1.062518
H425	H	0.457429	0.374787	0.312544
H426	H	0.707429	0.624787	0.562544
H427	H	0.957429	0.874787	0.812544
H428	H	1.207429	1.124787	1.062544
O429	O	0.825050	0.667833	0.182582
O430	O	1.075050	0.917833	0.432582
O431	O	1.325050	1.167833	0.682582
O432	O	1.575050	1.417833	0.932582
H433	H	0.801679	0.697692	0.155966
H434	H	1.051679	0.947692	0.405966
H435	H	1.301679	1.197692	0.655966
H436	H	1.551679	1.447692	0.905966
O437	O	0.686070	1.071520	0.321491
O438	O	0.936070	1.321520	0.571491
O439	O	1.186070	1.571520	0.821491
O440	O	1.436070	1.821520	1.071491
H441	H	0.662795	1.037786	0.344714
H442	H	0.912795	1.287786	0.594714
H443	H	1.162795	1.537786	0.844714
H444	H	1.412795	1.787786	1.094714
H445	H	0.694874	0.229267	0.953903
H446	H	0.944874	0.479267	1.203903
H447	H	1.194874	0.729267	1.453903
H448	H	1.444874	0.979267	1.703903
O449	O	0.686057	0.218679	0.557830
O450	O	0.936057	0.468679	0.807830
O451	O	1.186057	0.718679	1.057830
O452	O	1.436057	0.968679	1.307830
H453	H	0.709476	0.186809	0.582723
H454	H	0.959476	0.436809	0.832723
H455	H	1.209476	0.686809	1.082723
H456	H	1.459476	0.936809	1.332723
O457	O	0.825005	0.531811	0.182553
O458	O	1.075005	0.781811	0.432553
O459	O	1.325005	1.031811	0.682553
O460	O	1.575005	1.281811	0.932553
H461	H	0.848285	0.565546	0.159336
H462	H	1.098285	0.815546	0.409336
H463	H	1.348285	1.065546	0.659336
H464	H	1.598285	1.315546	0.909336
O465	O	0.824967	0.385290	0.946713
O466	O	1.074967	0.635290	1.196713
O467	O	1.324967	0.885290	1.446713
O468	O	1.574967	1.135290	1.696713
H469	H	0.815982	0.434462	0.957184
H470	H	1.065982	0.684462	1.207184
H471	H	1.315982	0.934462	1.457184
H472	H	1.565982	1.184462	1.707184
O473	O	0.853486	0.869568	0.243553
O474	O	1.103486	1.119568	0.493553
O475	O	1.353486	1.369568	0.743553
O476	O	1.603486	1.619568	0.993553
H477	H	0.879135	0.856959	0.276818
H478	H	1.129135	1.106959	0.526818
H479	H	1.379135	1.356959	0.776818
H480	H	1.629135	1.606959	1.026818
O481	O	0.824956	0.385282	1.060201
O482	O	1.074956	0.635282	1.310201
O483	O	1.324956	0.885282	1.560201
O484	O	1.574956	1.135282	1.810201
H485	H	0.801536	0.417149	1.085066
H486	H	1.051536	0.667149	1.335066
H487	H	1.301536	0.917149	1.585066
H488	H	1.551536	1.167149	1.835066
O489	O	0.858368	0.425385	0.809026
O490	O	1.108368	0.675385	1.059026
O491	O	1.358368	0.925385	1.309026
O492	O	1.608368	1.175385	1.559026
H493	H	0.881594	0.453257	0.780864
H494	H	1.131594	0.703257	1.030864
H495	H	1.381594	0.953257	1.280864
H496	H	1.631594	1.203257	1.530864
O497	O	0.853436	0.733563	0.243544
O498	O	1.103436	0.983563	0.493544
O499	O	1.353436	1.233563	0.743544
O500	O	1.603436	1.483563	0.993544
H501	H	0.886207	0.767273	0.240723
H502	H	1.136207	1.017273	0.490723
H503	H	1.386207	1.267273	0.740723
H504	H	1.636207	1.517273	0.990723
O505	O	0.686070	0.218675	0.444347
O506	O	0.936070	0.468675	0.694347
O507	O	1.186070	0.718675	0.944347
O508	O	1.436070	0.968675	1.194347
H509	H	0.645028	0.229411	0.454807
H510	H	0.895028	0.479411	0.704807
H511	H	1.145028	0.729411	0.954807
H512	H	1.395028	0.979411	1.204807
O513	O	0.061331	0.218596	0.182655
O514	O	0.311331	0.468596	0.432655
O515	O	0.561331	0.718596	0.682655
O516	O	0.811331	0.968596	0.932655
H517	H	0.050865	0.169439	0.191690
H518	H	0.300865	0.419439	0.441690
H519	H	0.550865	0.669439	0.691690
H520	H	0.800865	0.919439	0.941690
O521	O	-0.052157	0.218612	0.182676
O522	O	0.197843	0.468612	0.432676
O523	O	0.447843	0.718612	0.682676
O524	O	0.697843	0.968612	0.932676
H525	H	-0.041660	0.169453	0.191719
H526	H	0.208340	0.419453	0.441719
H527	H	0.458340	0.669453	0.691719
H528	H	0.708340	0.919453	0.941719
H529	H	0.816289	0.944105	0.191436
H530	H	1.066289	1.194105	0.441436
H531	H	1.316289	1.444105	0.691436
H532	H	1.566289	1.694105	0.941436
O533	O	0.686042	0.218679	1.060190
O534	O	0.936042	0.468679	1.310190
O535	O	1.186042	0.718679	1.560190
O536	O	1.436042	0.968679	1.810190
H537	H	0.644999	0.229410	1.049697
H538	H	0.894999	0.479410	1.299697
H539	H	1.144999	0.729410	1.549697
H540	H	1.394999	0.979410	1.799697
O541	O	0.199028	0.178423	0.149287
O542	O	0.449028	0.428423	0.399287
O543	O	0.699028	0.678423	0.649287
O544	O	0.949028	0.928423	0.899287
H545	H	0.227192	0.150512	0.126086
H546	H	0.477192	0.400512	0.376086
H547	H	0.727192	0.650512	0.626086
H548	H	0.977192	0.900512	0.876086
O549	O	0.825173	1.071463	0.182633
O550	O	1.075173	1.321463	0.432633
O551	O	1.325173	1.571463	0.682633
O552	O	1.575173	1.821463	0.932633
H553	H	0.848424	1.037709	0.159395
H554	H	1.098424	1.287709	0.409395
H555	H	1.348424	1.537709	0.659395
H556	H	1.598424	1.787709	0.909395
H557	H	0.661449	0.189216	0.702746
H558	H	0.911449	0.439216	0.952746
H559	H	1.161449	0.689216	1.202746
H560	H	1.411449	0.939216	1.452746
H561	H	0.694874	0.944159	0.312642
H562	H	0.944874	1.194159	0.562642
H563	H	1.194874	1.444159	0.812642
H564	H	1.444874	1.694159	1.062642
O565	O	0.312519	0.178426	0.149267
O566	O	0.562519	0.428426	0.399267
O567	O	0.812519	0.678426	0.649267
O568	O	1.062519	0.928426	0.899267
H569	H	0.284356	0.150528	0.126061
H570	H	0.534356	0.400528	0.376061
H571	H	0.784356	0.650528	0.626061
H572	H	1.034356	0.900528	0.876061
H573	H	0.457405	0.229159	0.191429
H574	H	0.707405	0.479159	0.441429
H575	H	0.957405	0.729159	0.691429
H576	H	1.207405	0.979159	0.941429
O577	O	0.652617	0.178627	0.809017
O578	O	0.902617	0.428627	1.059017
O579	O	1.152617	0.678627	1.309017
O580	O	1.402617	0.928627	1.559017
H581	H	0.629385	0.150759	0.780853
H582	H	0.879385	0.400759	1.030853
H583	H	1.129385	0.650759	1.280853
H584	H	1.379385	0.900759	1.530853
H585	H	0.816148	0.374703	0.550632
H586	H	1.066148	0.624703	0.800632
H587	H	1.316148	0.874703	1.050632
H588	H	1.566148	1.124703	1.300632
H589	H	0.849551	0.414782	0.702759
H590	H	1.099551	0.664782	0.952759
H591	H	1.349551	0.914782	1.202759
H592	H	1.599551	1.164782	1.452759
O593	O	0.824979	0.385299	0.444356
O594	O	1.074979	0.635299	0.694356
O595	O	1.324979	0.885299	0.944356
O596	O	1.574979	1.135299	1.194356
H597	H	0.819359	0.378567	0.401800
H598	H	1.069359	0.628567	0.651800
H599	H	1.319359	0.878567	0.901800
H600	H	1.569359	1.128567	1.151800
H601	H	0.305306	0.414935	0.345937
H602	H	0.555306	0.664935	0.595937
H603	H	0.805306	0.914935	0.845937
H604	H	1.055306	1.164935	1.095937
H605	H	0.206260	0.414940	0.345954
H606	H	0.456260	0.664940	0.595954
H607	H	0.706260	0.914940	0.845954
H608	H	0.956260	1.164940	1.095954
H609	H	0.054133	0.374829	0.312597
H610	H	0.304133	0.624829	0.562597
H611	H	0.554133	0.874829	0.812597
H612	H	0.804133	1.124829	1.062597
H613	H	0.556472	0.229158	0.191415
H614	H	0.806472	0.479158	0.441415
H615	H	1.056472	0.729158	0.691415
H616	H	1.306472	0.979158	0.941415
O617	O	0.657635	0.869765	0.260493
O618	O	0.907635	1.119765	0.510493
O619	O	1.157635	1.369765	0.760493
O620	O	1.407635	1.619765	1.010493
H621	H	0.624867	0.836052	0.263329
H622	H	0.874867	1.086052	0.513329
H623	H	1.124867	1.336052	0.763329
H624	H	1.374867	1.586052	1.013329
H625	H	-0.044932	0.374832	0.312607
H626	H	0.205068	0.624832	0.562607
H627	H	0.455068	0.874832	0.812607
H628	H	0.705068	1.124832	1.062607
H629	H	0.694788	0.659234	0.312599
H630	H	0.944788	0.909234	0.562599
H631	H	1.194788	1.159234	0.812599
H632	H	1.444788	1.409234	1.062599
H633	H	0.670042	0.742395	0.259399
H634	H	0.920042	0.992395	0.509399
H635	H	1.170042	1.242395	0.759399
H636	H	1.420042	1.492395	1.009399
O637	O	0.685896	0.531869	0.321405
O638	O	0.935896	0.781869	0.571405
O639	O	1.185896	1.031869	0.821405
O640	O	1.435896	1.281869	1.071405
H641	H	0.662634	0.565622	0.344632
H642	H	0.912634	0.815622	0.594632
H643	H	1.162634	1.065622	0.844632
H644	H	1.412634	1.315622	1.094632
