data_functionalizedCrystal
_audit_creation_method	'MofGen! by Chris Wilmer'
_symmetry_space_group_name_H-M	'P1'
_symmetry_Int_Tables_number	1
_symmetry_cell_setting	triclinic
loop_
_symmetry_equiv_pos_as_xyz
  x,y,z
_cell_length_a	6.817900
_cell_length_b	17.982959
_cell_length_c	17.078481
_cell_angle_alpha	96.484289
_cell_angle_beta	99.306161
_cell_angle_gamma	102.451857
loop_
_atom_site_label
_atom_site_type_symbol
_atom_site_fract_x
_atom_site_fract_y
_atom_site_fract_z
V1	V	-3.974480	-0.105234	-0.247692
O2	O	-3.968302	0.005240	-0.242636
O3	O	-3.921245	-0.208838	-0.246326
O4	O	-3.905609	-0.103535	-0.355570
O5	O	-3.984046	-0.100792	-0.132636
V6	V	-4.461387	-0.092030	-0.233891
O7	O	-4.228316	-0.134200	-0.277967
O8	O	-4.657750	-0.063065	-0.203616
O9	O	-4.291416	0.011574	-0.235257
O10	O	-4.584963	-0.202504	-0.238947
O11	O	-4.569219	-0.096473	-0.348947
O12	O	-4.307052	-0.093729	-0.126013
C13	C	-3.765732	-0.234097	-0.242503
C14	C	-3.803356	-0.318794	-0.242105
C15	C	-4.002196	-0.362462	-0.245888
C16	C	-4.037538	-0.442045	-0.245519
C17	C	-3.874035	-0.477956	-0.241361
C18	C	-3.675180	-0.434282	-0.237581
C19	C	-3.639843	-0.354702	-0.237956
C20	C	-3.817687	-0.755219	-0.236070
C21	C	-3.853040	-0.834804	-0.235693
C22	C	-4.215382	-0.842561	-0.243633
C23	C	-4.180045	-0.762981	-0.244007
C24	C	-3.981196	-0.719315	-0.240231
C25	C	-3.942877	-0.633023	-0.240633
C26	C	-3.912350	-0.564246	-0.240954
C27	C	-3.745786	-0.099772	-0.381854
C28	C	-3.770728	-0.099068	-0.470046
C29	C	-3.963600	-0.102541	-0.515533
C30	C	-3.987024	-0.101879	-0.598399
C31	C	-3.817575	-0.097751	-0.635778
C32	C	-3.624686	-0.094275	-0.590285
C33	C	-3.601263	-0.094931	-0.507419
C34	C	-3.868202	-0.095376	-0.883173
C35	C	-3.891643	-0.094722	-0.966045
C36	C	-4.253979	-0.102325	-0.974154
C37	C	-4.230540	-0.102985	-0.891287
C38	C	-4.037652	-0.099506	-0.845801
N39	N	-3.841515	-0.097077	-0.720480
N40	N	-4.013713	-0.100174	-0.761099
C41	C	-4.110271	0.036829	-0.239078
C42	C	-4.051884	0.121525	-0.239481
C43	C	-4.130218	-0.097495	-0.099725
C44	C	-4.084515	-0.098195	-0.011532
H45	H	-3.542058	-0.463528	-0.234201
F46	F	-3.711281	-0.090327	-1.005825
F47	F	-4.427021	-0.889041	-0.247654
F48	F	-3.428214	-0.308228	-0.233934
H49	H	-3.444198	-0.092085	-0.470381
H50	H	-4.101591	-0.105908	-0.485106
H51	H	-3.711158	-0.092570	-0.846153
H52	H	-4.199450	-0.477597	-0.248600
H53	H	-4.411021	-0.105156	-1.011198
F54	F	-3.444346	-0.089880	-0.630068
F55	F	-3.606057	-0.708755	-0.232046
H56	H	-4.368527	-0.106346	-0.860859
F57	F	-4.176224	-0.324250	-0.250309
H58	H	-4.313188	-0.733746	-0.247389
H59	H	-3.719887	-0.864041	-0.232312
H60	H	-4.144076	-0.104703	-0.635430
