data_functionalizedCrystal
_audit_creation_method	'MofGen! by Chris Wilmer'
_symmetry_space_group_name_H-M	'P1'
_symmetry_Int_Tables_number	1
_symmetry_cell_setting	triclinic
loop_
_symmetry_equiv_pos_as_xyz
  x,y,z
_cell_length_a	14.519709
_cell_length_b	14.519709
_cell_length_c	9.730223
_cell_angle_alpha	90.002325
_cell_angle_beta	89.998206
_cell_angle_gamma	96.319856
loop_
_atom_site_label
_atom_site_type_symbol
_atom_site_fract_x
_atom_site_fract_y
_atom_site_fract_z
O1	O	-0.120891	1.223866	-0.114091
O2	O	0.379109	1.723866	0.385909
O3	O	-0.135127	0.955389	-0.114131
O4	O	0.364873	1.455389	0.385869
O5	O	0.006229	1.096746	-0.114123
O6	O	0.506229	1.596746	0.385877
O7	O	-0.262248	1.082509	-0.114100
O8	O	0.237752	1.582509	0.385900
O9	O	0.006233	1.096737	0.114457
O10	O	0.506233	1.596737	0.614457
O11	O	-0.135124	0.955380	0.114449
O12	O	0.364876	1.455380	0.614449
O13	O	-0.120887	1.223857	0.114488
O14	O	0.379113	1.723857	0.614488
Zn15	Zn	-0.128005	1.089617	0.150761
Zn16	Zn	0.371995	1.589617	0.650761
Zn17	Zn	-0.128010	1.089629	-0.150403
Zn18	Zn	0.371990	1.589629	0.349597
O19	O	-0.262244	1.082500	0.114480
O20	O	0.237756	1.582500	0.614480
C21	C	-0.134462	0.921025	0.000153
C22	C	0.365538	1.421025	0.500153
C23	C	-0.132474	0.818643	0.000137
C24	C	0.367526	1.318643	0.500137
C25	C	-0.125154	0.443748	0.000199
C26	C	0.374846	0.943748	0.500199
C27	C	-0.127187	0.548056	0.000181
C28	C	0.372813	1.048056	0.500181
C29	C	-0.128814	0.631192	0.000167
C30	C	0.371186	1.131192	0.500167
C31	C	-0.130847	0.735507	0.000152
C32	C	0.369153	1.235507	0.500152
C33	C	-0.296605	1.083168	0.000193
C34	C	0.203395	1.583168	0.500193
C35	C	-0.398987	1.085156	0.000203
C36	C	0.101013	1.585156	0.500203
C37	C	-0.773883	1.092476	0.000149
C38	C	-0.273883	1.592476	0.500149
C39	C	-0.669575	1.090443	0.000165
C40	C	-0.169575	1.590443	0.500165
C41	C	-0.586438	1.088816	0.000177
C42	C	-0.086438	1.588816	0.500177
C43	C	-0.482123	1.086783	0.000190
C44	C	0.017877	1.586783	0.500190
C45	C	0.040591	1.096078	0.000161
C46	C	0.540591	1.596078	0.500161
C47	C	0.142972	1.094090	0.000142
C48	C	0.642972	1.594090	0.500142
C49	C	-0.121553	1.258221	0.000201
C50	C	0.378447	1.758221	0.500201
C51	C	-0.123541	1.360602	0.000208
C52	C	0.376459	1.860602	0.500208
N53	N	-0.128001	1.089616	0.356297
N54	N	0.371999	1.589616	0.856297
N55	N	-0.128006	1.089638	-0.355940
N56	N	0.371994	1.589638	0.144060
C57	C	-0.065434	1.152229	0.428227
C58	C	0.434566	1.652229	0.928227
C59	C	-0.065435	1.152239	0.572110
C60	C	0.434565	1.652239	1.072110
C61	C	-0.190576	1.027017	0.572121
C62	C	0.309424	1.527017	1.072121
C63	C	-0.190570	1.027004	0.428240
C64	C	0.309430	1.527004	0.928240
H65	H	-0.014485	1.203210	0.369654
H66	H	0.485515	1.703210	0.869654
H67	H	-0.241520	0.976041	0.630711
H68	H	0.258480	1.476041	1.130711
N69	N	-0.001513	1.216199	0.645562
N70	N	0.498487	1.716199	1.145562
N71	N	0.054347	1.272090	0.581305
N72	N	0.554347	1.772090	1.081305
H73	H	0.099497	1.317264	0.633179
H74	H	0.599497	1.817264	1.133179
H75	H	-0.241520	0.976012	0.369671
H76	H	0.258480	1.476012	0.869671
