data_functionalizedCrystal
_audit_creation_method	'MofGen! by Chris Wilmer'
_symmetry_space_group_name_H-M	'P1'
_symmetry_Int_Tables_number	1
_symmetry_cell_setting	triclinic
loop_
_symmetry_equiv_pos_as_xyz
  x,y,z
_cell_length_a	12.645330
_cell_length_b	18.215407
_cell_length_c	18.215399
_cell_angle_alpha	90.013852
_cell_angle_beta	89.973779
_cell_angle_gamma	89.991482
loop_
_atom_site_label
_atom_site_type_symbol
_atom_site_fract_x
_atom_site_fract_y
_atom_site_fract_z
Zn1	Zn	-0.422134	-1.125114	-0.416079
Zn2	Zn	-0.088801	-0.791781	-0.082745
Zn3	Zn	0.244532	-0.458447	0.250588
Zn4	Zn	-0.599424	-1.125056	-0.293021
Zn5	Zn	-0.266091	-0.791722	0.040312
Zn6	Zn	0.067243	-0.458389	0.373645
Zn7	Zn	-0.422163	-1.002053	-0.293032
Zn8	Zn	-0.088830	-0.668720	0.040301
Zn9	Zn	0.244503	-0.335386	0.373634
Zn10	Zn	-0.599344	-1.002039	-0.416053
Zn11	Zn	-0.266011	-0.668706	-0.082719
Zn12	Zn	0.067322	-0.335373	0.250614
O13	O	-0.510767	-1.063566	-0.354546
O14	O	-0.177433	-0.730232	-0.021213
O15	O	0.155900	-0.396899	0.312120
O16	O	-0.445674	-1.228091	-0.399761
O17	O	-0.112340	-0.894757	-0.066428
O18	O	0.220993	-0.561424	0.266906
O19	O	-0.575956	-1.108721	-0.190038
O20	O	-0.242622	-0.775387	0.143295
O21	O	0.090711	-0.442054	0.476628
O22	O	-0.273812	-1.018407	-0.309370
O23	O	0.059521	-0.685074	0.023963
O24	O	0.392855	-0.351741	0.357296
O25	O	-0.575928	-1.228048	-0.309351
O26	O	-0.242594	-0.894714	0.023982
O27	O	0.090739	-0.561381	0.357315
O28	O	-0.273791	-1.108820	-0.399772
O29	O	0.059542	-0.775487	-0.066439
O30	O	0.392876	-0.442153	0.266895
O31	O	-0.445723	-1.018351	-0.190047
O32	O	-0.112389	-0.685018	0.143287
O33	O	0.220944	-0.351684	0.476620
O34	O	-0.445645	-0.899067	-0.309345
O35	O	-0.112312	-0.565734	0.023988
O36	O	0.221021	-0.232400	0.357322
O37	O	-0.575792	-1.018384	-0.519040
O38	O	-0.242458	-0.685051	-0.185707
O39	O	0.090875	-0.351717	0.147626
O40	O	-0.575819	-0.899057	-0.399727
O41	O	-0.242486	-0.565724	-0.066394
O42	O	0.090847	-0.232390	0.266939
O43	O	-0.445596	-1.108807	-0.519059
O44	O	-0.112263	-0.775473	-0.185726
O45	O	0.221070	-0.442140	0.147607
O46	O	-0.747761	-1.108707	-0.309326
O47	O	-0.414427	-0.775374	0.024007
O48	O	-0.081094	-0.442041	0.357341
O49	O	-0.747702	-1.018328	-0.399717
O50	O	-0.414369	-0.684994	-0.066383
O51	O	-0.081035	-0.351661	0.266950
C52	C	-0.510728	-0.872359	-0.354535
C53	C	-0.177394	-0.539026	-0.021202
C54	C	0.155939	-0.205693	0.312132
C55	C	-0.510737	-0.790560	-0.354548
C56	C	-0.177403	-0.457227	-0.021214
C57	C	0.155930	-0.123894	0.312119
C58	C	-0.578642	-0.525517	-0.401544
C59	C	-0.245308	-0.192183	-0.068211
C60	C	0.088025	0.141150	0.265123
C61	C	-0.578635	-0.602376	-0.401540
C62	C	-0.245302	-0.269042	-0.068207
C63	C	0.088032	0.064291	0.265126
C64	C	-0.442882	-0.602355	-0.307562
C65	C	-0.109549	-0.269022	0.025771
C66	C	0.223785	0.064311	0.359105
C67	C	-0.442895	-0.525498	-0.307562
C68	C	-0.109561	-0.192165	0.025771
C69	C	0.223772	0.141169	0.359104
C70	C	-0.510773	-0.487081	-0.354558
C71	C	-0.177439	-0.153747	-0.021224
C72	C	0.155894	0.179586	0.312109
C73	C	-0.510754	-0.640797	-0.354554
C74	C	-0.177420	-0.307464	-0.021220
C75	C	0.155913	0.025870	0.312113
C76	C	-0.510746	-0.724131	-0.354549
C77	C	-0.177413	-0.390797	-0.021216
C78	C	0.155921	-0.057464	0.312117
C79	C	-0.510782	-0.403742	-0.354561
C80	C	-0.177449	-0.070408	-0.021228
C81	C	0.155885	0.262925	0.312106
C82	C	-0.786196	-1.063530	-0.354533
C83	C	-0.452863	-0.730196	-0.021200
C84	C	-0.119530	-0.396863	0.312133
C85	C	-0.904026	-1.063581	-0.354552
C86	C	-0.570693	-0.730248	-0.021219
C87	C	-0.237360	-0.396915	0.312114
C88	C	-0.948900	-1.120504	-0.297737
C89	C	-0.615567	-0.787171	0.035597
C90	C	-0.282234	-0.453838	0.368930
C91	C	-1.071461	-1.120374	-0.297534
C92	C	-0.738127	-0.787040	0.035799
C93	C	-0.404794	-0.453707	0.369133
C94	C	-1.072026	-0.986029	-0.333716
C95	C	-0.738692	-0.652696	-0.000383
C96	C	-0.405359	-0.319362	0.332951
C97	C	-0.949428	-0.986321	-0.333283
C98	C	-0.616094	-0.652988	0.000050
C99	C	-0.282761	-0.319655	0.333384
C100	C	-0.949107	-1.083611	-0.432390
C101	C	-0.615774	-0.750277	-0.099057
C102	C	-0.282440	-0.416944	0.234277
C103	C	-1.071712	-1.085359	-0.431995
C104	C	-0.738379	-0.752026	-0.098662
C105	C	-0.405045	-0.418692	0.234671
C106	C	-0.234261	-1.063622	-0.354575
C107	C	0.099072	-0.730288	-0.021242
C108	C	0.432405	-0.396955	0.312091
C109	C	-0.116431	-1.063646	-0.354588
C110	C	0.216902	-0.730312	-0.021254
C111	C	0.550235	-0.396979	0.312079
C112	C	-0.510682	-1.063600	-0.546499
C113	C	-0.177348	-0.730267	-0.213166
C114	C	0.155985	-0.396934	0.120167
C115	C	-0.510646	-1.063615	-0.628298
C116	C	-0.177312	-0.730282	-0.294965
C117	C	0.156021	-0.396948	0.038369
C118	C	-0.510798	-0.255518	-0.354558
C119	C	-0.177465	0.077815	-0.021225
C120	C	0.155869	0.411148	0.312109
C121	C	-0.510790	-0.337317	-0.354564
C122	C	-0.177457	-0.003984	-0.021230
C123	C	0.155877	0.329349	0.312103
C124	C	-0.442788	-1.016599	-0.816497
C125	C	-0.109454	-0.683266	-0.483164
C126	C	0.223879	-0.349933	-0.149831
C127	C	-0.442766	-1.016612	-0.893356
C128	C	-0.109433	-0.683279	-0.560023
C129	C	0.223900	-0.349946	-0.226689
C130	C	-0.578377	-1.110719	-0.893337
C131	C	-0.245044	-0.777385	-0.560004
C132	C	0.088289	-0.444052	-0.226670
C133	C	-0.578403	-1.110702	-0.816480
C134	C	-0.245070	-0.777368	-0.483146
C135	C	0.088263	-0.444035	-0.149813
C136	C	-0.510602	-1.063643	-0.778062
C137	C	-0.177269	-0.730310	-0.444728
C138	C	0.156064	-0.396976	-0.111395
C139	C	-0.510555	-1.063673	-0.931778
C140	C	-0.177222	-0.730340	-0.598445
C141	C	0.156112	-0.397006	-0.265111
C142	C	-0.510532	-1.063687	-1.015112
C143	C	-0.177199	-0.730354	-0.681778
C144	C	0.156134	-0.397020	-0.348445
C145	C	-0.510626	-1.063628	-0.694723
C146	C	-0.177293	-0.730294	-0.361389
C147	C	0.156040	-0.396961	-0.028056
C148	C	-0.510774	-1.063573	-0.163340
C149	C	-0.177441	-0.730240	0.169993
C150	C	0.155892	-0.396907	0.503327
C151	C	-0.510512	-1.063701	-0.081541
C152	C	-0.177179	-0.730368	0.251792
C153	C	0.156155	-0.397034	0.585125
H154	H	-0.919361	-1.178214	-0.310619
H155	H	-0.586028	-0.844881	0.022714
H156	H	-0.252694	-0.511548	0.356048
H157	H	-1.100727	-1.142478	-0.447737
H158	H	-0.767394	-0.809145	-0.114403
H159	H	-0.434061	-0.475812	0.218930
H160	H	-0.919745	-0.942455	-0.372877
H161	H	-0.586412	-0.609122	-0.039543
H162	H	-0.253079	-0.275789	0.293790
N163	N	-0.369658	-0.643789	-0.256885
N164	N	-0.036325	-0.310455	0.076449
N165	N	0.297008	0.022878	0.409782
H166	H	-0.386034	-0.630402	-0.204283
H167	H	-0.052701	-0.297069	0.129050
H168	H	0.280633	0.036265	0.462383
H169	H	-0.379975	-0.698297	-0.264077
H170	H	-0.046642	-0.364964	0.069257
H171	H	0.286691	-0.031631	0.402590
N172	N	-0.910669	-1.028701	-0.488465
N173	N	-0.577335	-0.695368	-0.155132
N174	N	-0.244002	-0.362034	0.178202
H175	H	-0.864281	-0.991031	-0.463612
H176	H	-0.530948	-0.657697	-0.130278
H177	H	-0.197614	-0.324364	0.203055
H178	H	-0.868698	-1.054998	-0.527650
H179	H	-0.535365	-0.721665	-0.194317
H180	H	-0.202032	-0.388331	0.139016
H181	H	-1.102318	-1.046958	-0.476590
H182	H	-0.768985	-0.713625	-0.143256
H183	H	-0.435651	-0.380292	0.190077
N184	N	-0.369696	-0.484035	-0.256877
N185	N	-0.036363	-0.150702	0.076456
N186	N	0.296971	0.182631	0.409789
H187	H	-0.326689	-0.520034	-0.227109
H188	H	0.006645	-0.186700	0.106224
H189	H	0.339978	0.146633	0.439557
H190	H	-0.320695	-0.452153	-0.286889
H191	H	0.012639	-0.118820	0.046445
H192	H	0.345972	0.214514	0.379778
H193	H	-1.100867	-1.107119	-0.239870
H194	H	-0.767533	-0.773785	0.093463
H195	H	-0.434200	-0.440452	0.426797
H196	H	-0.633913	-0.494240	-0.439810
H197	H	-0.300580	-0.160906	-0.106477
H198	H	0.032754	0.172427	0.226856
H199	H	-1.101481	-1.177921	-0.310570
H200	H	-0.768148	-0.844588	0.022763
H201	H	-0.434815	-0.511255	0.356096
H202	H	-0.920912	-0.969374	-0.276391
H203	H	-0.587579	-0.636041	0.056942
H204	H	-0.254245	-0.302707	0.390275
H205	H	-0.918163	-1.107395	-0.240392
H206	H	-0.584830	-0.774062	0.092942
H207	H	-0.251497	-0.440728	0.426275
N208	N	-1.110620	-0.928338	-0.386851
N209	N	-0.777287	-0.595004	-0.053517
N210	N	-0.443953	-0.261671	0.279816
H211	H	-1.152295	-0.889839	-0.359341
H212	H	-0.818962	-0.556506	-0.026007
H213	H	-0.485629	-0.223172	0.307326
H214	H	-1.048001	-0.904561	-0.411741
H215	H	-0.714668	-0.571227	-0.078408
H216	H	-0.381335	-0.237894	0.254925
N217	N	-0.651486	-1.161482	-0.934776
N218	N	-0.318152	-0.828149	-0.601443
N219	N	0.015181	-0.494815	-0.268109
H220	H	-0.694451	-1.191281	-0.898762
H221	H	-0.361118	-0.857948	-0.565429
H222	H	-0.027784	-0.524614	-0.232096
H223	H	-0.700530	-1.131527	-0.966659
H224	H	-0.367196	-0.798194	-0.633326
H225	H	-0.033863	-0.464860	-0.299992
H226	H	-0.633630	-1.149012	-0.785184
H227	H	-0.300297	-0.815679	-0.451851
H228	H	0.033036	-0.482345	-0.118518
N229	N	-0.369662	-0.965848	-0.775059
N230	N	-0.036328	-0.632514	-0.441726
N231	N	0.297005	-0.299181	-0.108393
H232	H	-0.326699	-0.936048	-0.811074
H233	H	0.006635	-0.602715	-0.477740
H234	H	0.339968	-0.269381	-0.144407
H235	H	-0.412815	-0.931775	-0.743161
H236	H	-0.079481	-0.598442	-0.409827
H237	H	0.253852	-0.265109	-0.076494
H238	H	-0.633902	-0.633667	-0.439801
H239	H	-0.300568	-0.300333	-0.106467
H240	H	0.032765	0.033000	0.226866
H241	H	-1.102810	-0.968806	-0.277459
H242	H	-0.769477	-0.635472	0.055874
H243	H	-0.436143	-0.302139	0.389208
H244	H	-0.918113	-1.139225	-0.451411
H245	H	-0.584780	-0.805892	-0.118078
H246	H	-0.251446	-0.472559	0.215256
N247	N	-0.369628	-0.965870	-0.934813
N248	N	-0.036295	-0.632536	-0.601479
N249	N	0.297039	-0.299203	-0.268146
H250	H	-0.326685	-0.936057	-0.898810
H251	H	0.006649	-0.602724	-0.565477
H252	H	0.339982	-0.269391	-0.232144
H253	H	-0.320564	-0.995840	-0.966712
H254	H	0.012769	-0.662507	-0.633379
H255	H	0.346102	-0.329174	-0.300046
