data_functionalizedCrystal
_audit_creation_method	'MofGen! by Chris Wilmer'
_symmetry_space_group_name_H-M	'P1'
_symmetry_Int_Tables_number	1
_symmetry_cell_setting	triclinic
loop_
_symmetry_equiv_pos_as_xyz
  x,y,z
_cell_length_a	15.944551
_cell_length_b	10.654550
_cell_length_c	9.730223
_cell_angle_alpha	90.004253
_cell_angle_beta	89.992517
_cell_angle_gamma	96.008166
loop_
_atom_site_label
_atom_site_type_symbol
_atom_site_fract_x
_atom_site_fract_y
_atom_site_fract_z
O1	O	1.115460	-0.161966	-0.114423
O2	O	0.871026	-0.181935	-0.114397
O3	O	0.998863	0.010862	-0.114402
O4	O	0.987623	-0.354762	-0.114418
O5	O	0.998855	0.010867	0.114178
O6	O	0.871018	-0.181929	0.114183
O7	O	1.115452	-0.161961	0.114157
Zn8	Zn	0.993234	-0.171944	0.150462
Zn9	Zn	0.993244	-0.171951	-0.150702
O10	O	0.987615	-0.354757	0.114162
C11	C	0.998034	0.057652	-0.000112
C12	C	0.995565	0.197063	-0.000114
C13	C	0.839723	-0.181103	-0.000103
C14	C	0.746463	-0.178618	-0.000093
C15	C	1.146755	-0.162792	-0.000140
C16	C	1.240015	-0.165278	-0.000159
C17	C	1.455598	-0.290722	-0.000133
C18	C	1.516285	-0.232472	-0.112831
C19	C	1.410767	-0.169774	-0.000139
C20	C	1.516255	-0.232439	0.112531
C21	C	1.575705	-0.174126	-0.000114
C22	C	1.470226	-0.111491	-0.112930
C23	C	1.470189	-0.111474	0.112533
C24	C	1.530858	-0.053136	-0.000193
C25	C	1.315750	-0.167270	-0.000155
C26	C	1.670721	-0.176620	-0.000108
C27	C	0.988444	-0.401547	-0.000130
C28	C	0.990913	-0.540958	-0.000137
N29	N	0.993232	-0.171939	0.355999
C30	C	1.070833	0.277522	-0.000123
C31	C	1.068508	0.408513	-0.000139
C32	C	0.915639	0.378572	-0.000133
C33	C	0.917965	0.247584	-0.000126
N34	N	0.993252	-0.171947	-0.356238
C35	C	1.049858	-0.086604	0.427922
C36	C	1.049866	-0.086605	0.571805
C37	C	0.936621	-0.257285	0.571828
C38	C	0.936609	-0.257278	0.427948
H39	H	1.422873	-0.391116	-0.000250
C40	C	1.442586	-0.042418	0.241260
C41	C	1.380401	-0.111721	0.343852
C42	C	1.352799	-0.042676	0.472595
C43	C	1.387381	0.095672	0.498745
C44	C	1.449569	0.164982	0.396150
C45	C	1.477172	0.095937	0.267407
H46	H	1.354798	-0.214141	0.324497
H47	H	1.306763	-0.093985	0.548542
H48	H	1.366948	0.146783	0.594048
H49	H	1.475172	0.267402	0.415505
H50	H	1.523208	0.147246	0.191460
C51	C	1.112136	0.007275	0.348777
C52	C	1.109898	0.150284	0.368584
C53	C	1.172175	0.244170	0.289444
C54	C	1.236690	0.195047	0.190497
C55	C	1.238931	0.052032	0.170686
C56	C	1.176653	-0.041854	0.249826
H57	H	1.062137	0.186654	0.441834
H58	H	1.170516	0.350040	0.304110
H59	H	1.282792	0.264547	0.131913
H60	H	1.286691	0.015662	0.097436
H61	H	1.178312	-0.147724	0.235160
C62	C	0.835164	0.159068	-0.000113
C63	C	0.771792	0.164714	-0.118804
C64	C	0.688995	0.076200	-0.118796
C65	C	0.669570	-0.017961	-0.000098
C66	C	0.732943	-0.023611	0.118602
C67	C	0.815740	0.064904	0.118594
H68	H	0.786171	0.234421	-0.206679
H69	H	0.642083	0.080383	-0.206666
H70	H	0.608279	-0.083485	-0.000092
H71	H	0.718565	-0.093318	0.206477
H72	H	0.862653	0.060721	0.206464
C73	C	0.830285	0.434154	-0.000133
C74	C	0.767541	0.403806	0.118566
C75	C	0.682185	0.459386	0.118570
C76	C	0.659574	0.545315	-0.000125
C77	C	0.722320	0.575668	-0.118832
C78	C	0.807675	0.520087	-0.118836
H79	H	0.784277	0.340192	0.206438
H80	H	0.635737	0.436917	0.206445
H81	H	0.596389	0.586459	-0.000122
H82	H	0.705583	0.639281	-0.206705
H83	H	0.854124	0.542557	-0.206712
C84	C	1.112158	0.007261	0.650923
C85	C	1.174452	0.101107	0.571778
C86	C	1.236745	0.194978	0.650896
C87	C	1.236744	0.195002	0.809159
C88	C	1.174448	0.101152	0.888312
C89	C	1.112155	0.007282	0.809194
H90	H	1.174455	0.101092	0.454615
H91	H	1.282861	0.264452	0.592300
H92	H	1.282857	0.264491	0.867727
H93	H	1.174445	0.101167	1.005476
H94	H	1.066039	-0.062192	0.867790
H95	H	1.449945	-0.060383	-0.208318
H96	H	1.536699	-0.283633	-0.208110
H97	H	0.890493	-0.326768	0.369384
C98	C	1.543784	-0.301563	0.241249
C99	C	1.510375	-0.440616	0.265968
C100	C	1.537900	-0.509750	0.394679
C101	C	1.598834	-0.439831	0.498670
C102	C	1.632247	-0.300771	0.473954
C103	C	1.604722	-0.231637	0.345244
H104	H	1.465265	-0.492381	0.188985
H105	H	1.513166	-0.612692	0.412975
H106	H	1.619210	-0.491009	0.593950
H107	H	1.677357	-0.249006	0.550938
H108	H	1.629456	-0.128695	0.326948
H109	H	1.134019	0.236393	-0.000116
H110	H	1.563429	0.047348	-0.000245
H111	H	1.129799	0.474019	-0.000150
H112	H	0.890520	-0.326768	0.630424
