data_functionalizedCrystal
_audit_creation_method	'MofGen! by Chris Wilmer'
_symmetry_space_group_name_H-M	'P1'
_symmetry_Int_Tables_number	1
_symmetry_cell_setting	triclinic
loop_
_symmetry_equiv_pos_as_xyz
  x,y,z
_cell_length_a	19.121102
_cell_length_b	19.121063
_cell_length_c	13.897441
_cell_angle_alpha	87.594330
_cell_angle_beta	92.460778
_cell_angle_gamma	90.126902
loop_
_atom_site_label
_atom_site_type_symbol
_atom_site_fract_x
_atom_site_fract_y
_atom_site_fract_z
Zn1	Zn	1.059871	-0.324874	0.626425
Zn2	Zn	1.054772	-0.442120	0.471683
Zn3	Zn	0.942627	-0.319896	0.457988
Zn4	Zn	0.937596	-0.437065	0.625779
O5	O	0.998716	-0.380989	0.545469
O6	O	1.157299	-0.344626	0.611899
O7	O	1.039867	-0.425939	0.334884
O8	O	0.962420	-0.222453	0.474871
O9	O	1.153553	-0.430766	0.498211
O10	O	1.048558	-0.226111	0.598621
O11	O	0.957475	-0.336141	0.324823
O12	O	0.843855	-0.331240	0.474245
O13	O	0.953844	-0.422150	0.760847
O14	O	0.840158	-0.417323	0.597520
O15	O	1.043679	-0.339725	0.761321
O16	O	1.034988	-0.539553	0.497585
O17	O	0.948899	-0.535839	0.610799
C18	C	0.816569	-0.373193	0.534327
C19	C	0.738644	-0.369875	0.529585
C20	C	0.990863	-0.563133	0.555630
C21	C	0.987568	-0.641058	0.560013
C22	C	0.700126	-0.413203	0.591446
C23	C	0.626908	-0.410076	0.586994
C24	C	0.592210	-0.363624	0.520675
C25	C	0.630734	-0.320291	0.458811
C26	C	0.703950	-0.323415	0.463268
C27	C	0.371239	-0.351942	0.504014
C28	C	0.298017	-0.348823	0.499560
C29	C	0.294197	-0.438607	0.627745
C30	C	0.367415	-0.441730	0.632193
C31	C	0.405932	-0.398395	0.570332
C32	C	0.517370	-0.360428	0.516121
C33	C	0.480771	-0.401587	0.574891
C34	C	1.030876	-0.679580	0.503181
C35	C	1.027781	-0.752798	0.507309
C36	C	0.981374	-0.787495	0.568265
C37	C	0.938064	-0.748968	0.625104
C38	C	0.941163	-0.675751	0.620980
C39	C	0.969775	-1.008468	0.583668
C40	C	0.966678	-1.081691	0.587785
C41	C	1.056397	-1.085516	0.469991
C42	C	1.059489	-1.012297	0.465868
C43	C	1.016182	-0.973777	0.522711
C44	C	0.978207	-0.862336	0.572484
C45	C	1.019352	-0.898937	0.518496
C46	C	1.181575	-0.388816	0.556655
C47	C	1.259499	-0.392151	0.561421
C48	C	0.998769	-0.380929	0.797062
C49	C	0.998791	-0.380903	0.904275
C50	C	1.006619	-0.198134	0.535290
C51	C	1.009987	-0.120212	0.530953
C52	C	0.998707	-0.381000	0.294855
C53	C	0.998829	-0.380833	0.187639
C54	C	0.998812	-0.380857	1.100569
C55	C	0.998798	-0.380885	0.991337
H56	H	0.595550	-0.445358	0.637368
C57	C	0.893521	-0.633374	0.683492
C58	C	0.813396	-0.640101	0.671227
C59	C	0.765755	-0.597724	0.733745
C60	C	0.798238	-0.548620	0.808527
C61	C	0.878367	-0.541890	0.820795
C62	C	0.926008	-0.584267	0.758278
H63	H	0.789346	-0.676453	0.615866
H64	H	0.706438	-0.602706	0.724663
H65	H	0.762972	-0.517250	0.854806
H66	H	0.902417	-0.505539	0.876157
H67	H	0.985325	-0.579285	0.767360
H68	H	1.057140	-0.870686	0.468869
H69	H	0.402591	-0.316661	0.453636
H70	H	1.068663	-0.651335	0.453540
H71	H	0.735311	-0.288129	0.412898
H72	H	1.091657	-1.116887	0.423715
C73	C	0.518937	-0.452684	0.647840
C74	C	0.566890	-0.509827	0.612039
C75	C	0.605063	-0.560926	0.684984
C76	C	0.595284	-0.554881	0.793731
C77	C	0.547329	-0.497736	0.829538
C78	C	0.509156	-0.446637	0.756592
H79	H	0.574131	-0.514304	0.531533
H80	H	0.640562	-0.603229	0.658477
H81	H	0.623542	-0.592708	0.847730
H82	H	0.540088	-0.493259	0.910044
H83	H	0.473656	-0.404334	0.783100
C84	C	0.887014	-0.787130	0.692158
C85	C	0.893122	-0.777240	0.801597
C86	C	0.842069	-0.815399	0.868651
C87	C	0.784907	-0.863447	0.826266
C88	C	0.778796	-0.873339	0.716822
C89	C	0.829849	-0.835181	0.649768
H90	H	0.935439	-0.741669	0.832978
H91	H	0.846593	-0.808075	0.949669
H92	H	0.747115	-0.891694	0.875904
H93	H	0.736480	-0.908910	0.685441
H94	H	0.825325	-0.842504	0.568750
C95	C	0.405577	-0.492829	0.705147
C96	C	0.453522	-0.549981	0.669355
C97	C	0.491683	-0.601085	0.742307
C98	C	0.481897	-0.595037	0.851052
C99	C	0.433949	-0.537882	0.886850
C100	C	0.395789	-0.486778	0.813898
H101	H	0.460768	-0.554461	0.588850
H102	H	0.527177	-0.643395	0.715806
H103	H	0.510145	-0.632867	0.905055
H104	H	0.426703	-0.533402	0.967354
H105	H	0.360295	-0.444468	0.840398
C106	C	0.251827	-0.486267	0.695797
C107	C	0.171292	-0.482833	0.690904
C108	C	0.128923	-0.530493	0.758963
C109	C	0.167089	-0.581586	0.831915
C110	C	0.247629	-0.585022	0.836810
C111	C	0.289998	-0.537362	0.768751
H112	H	0.143035	-0.445009	0.636898
H113	H	0.069302	-0.527949	0.755339
H114	H	0.135725	-0.616867	0.882296
H115	H	0.275886	-0.622847	0.890816
H116	H	0.349619	-0.539906	0.772376
C117	C	0.259855	-0.297715	0.426607
C118	C	0.208192	-0.325869	0.349423
C119	C	0.170032	-0.274763	0.276473
C120	C	0.183535	-0.195503	0.280708
C121	C	0.235201	-0.167346	0.357895
C122	C	0.273360	-0.218452	0.430845
H123	H	0.198194	-0.384545	0.346285
H124	H	0.131786	-0.295607	0.219333
H125	H	0.155287	-0.157672	0.226706
H126	H	0.245199	-0.108670	0.361033
H127	H	0.311606	-0.197607	0.487985
H128	H	1.063047	-0.784159	0.461030
C129	C	0.927154	-0.900501	0.639530
C130	C	0.933256	-0.890612	0.748970
C131	C	0.882204	-0.928778	0.816018
C132	C	0.825050	-0.976833	0.773627
C133	C	0.818946	-0.986724	0.664182
C134	C	0.869998	-0.948558	0.597133
H135	H	0.975567	-0.855038	0.780355
H136	H	0.886723	-0.921456	0.897037
H137	H	0.787258	-1.005086	0.823260
H138	H	0.776635	-1.022298	0.632796
H139	H	0.865479	-0.955880	0.516115
C140	C	1.110543	-0.974139	0.398815
C141	C	1.104434	-0.984037	0.289378
C142	C	1.155487	-0.945881	0.222320
C143	C	1.212647	-0.897828	0.264698
C144	C	1.218757	-0.887928	0.374141
C145	C	1.167705	-0.926083	0.441199
H146	H	1.062119	-1.019610	0.258002
H147	H	1.150963	-0.953210	0.141303
H148	H	1.250439	-0.869582	0.215057
H149	H	1.261073	-0.852354	0.405517
H150	H	1.172229	-0.918755	0.522216
H151	H	0.602477	-0.282466	0.404816
C152	C	0.479194	-0.309336	0.443169
C153	C	0.431241	-0.252193	0.478969
C154	C	0.393061	-0.201100	0.406022
C155	C	0.402834	-0.207151	0.297274
C156	C	0.450789	-0.264297	0.261469
C157	C	0.488969	-0.315390	0.334416
H158	H	0.424005	-0.247711	0.559475
H159	H	0.357561	-0.158797	0.432528
H160	H	0.374570	-0.169330	0.243274
H161	H	0.458025	-0.268779	0.180963
H162	H	0.524468	-0.357693	0.307910
C163	C	0.915631	-1.119862	0.654844
C164	C	0.836357	-1.106465	0.641459
C165	C	0.785313	-1.144639	0.708512
C166	C	0.813543	-1.196211	0.788948
C167	C	0.892821	-1.209611	0.802336
C168	C	0.943865	-1.171437	0.735284
H169	H	0.815456	-1.068286	0.581913
H170	H	0.726627	-1.134719	0.698601
H171	H	0.775757	-1.224470	0.838584
H172	H	0.913722	-1.247790	0.861882
H173	H	1.002552	-1.181357	0.745194
H174	H	0.728372	-0.451031	0.645447
H175	H	0.934511	-0.977111	0.629949
