data_functionalizedCrystal
_audit_creation_method	'MofGen! by Chris Wilmer'
_symmetry_space_group_name_H-M	'P1'
_symmetry_Int_Tables_number	1
_symmetry_cell_setting	triclinic
loop_
_symmetry_equiv_pos_as_xyz
  x,y,z
_cell_length_a	21.295417
_cell_length_b	19.121102
_cell_length_c	19.120904
_cell_angle_alpha	90.088173
_cell_angle_beta	87.591662
_cell_angle_gamma	92.415380
loop_
_atom_site_label
_atom_site_type_symbol
_atom_site_fract_x
_atom_site_fract_y
_atom_site_fract_z
Zn1	Zn	-0.307921	-1.054814	0.442032
Zn2	Zn	0.192079	-0.554814	0.942032
Zn3	Zn	-0.408895	-1.059724	0.324785
Zn4	Zn	0.091105	-0.559724	0.824785
Zn5	Zn	-0.298967	-0.942584	0.319816
Zn6	Zn	0.201033	-0.442584	0.819816
Zn7	Zn	-0.408472	-0.937535	0.436987
Zn8	Zn	0.091528	-0.437535	0.936987
O9	O	-0.356064	-0.998664	0.380905
O10	O	0.143936	-0.498664	0.880905
O11	O	-0.325239	-1.153571	0.430669
O12	O	0.174761	-0.653571	0.930669
O13	O	-0.390743	-1.048352	0.226021
O14	O	0.109257	-0.548352	0.726021
O15	O	-0.212069	-0.957530	0.336060
O16	O	0.287931	-0.457530	0.836060
O17	O	-0.399425	-1.157177	0.344528
O18	O	0.100575	-0.657177	0.844528
O19	O	-0.218647	-1.039985	0.425851
O20	O	0.281353	-0.539985	0.925851
O21	O	-0.309980	-0.962291	0.222371
O22	O	0.190020	-0.462291	0.722371
O23	O	-0.309569	-0.843809	0.331169
O24	O	0.190431	-0.343809	0.831169
O25	O	-0.398703	-0.948925	0.535761
O26	O	0.101297	-0.448925	1.035761
O27	O	-0.390022	-0.840100	0.417254
O28	O	0.109978	-0.340100	0.917254
O29	O	-0.324829	-1.035089	0.539467
O30	O	0.175171	-0.535089	1.039467
O31	O	-0.496925	-1.043456	0.339637
O32	O	0.003075	-0.543456	0.839637
O33	O	-0.496614	-0.953685	0.422072
O34	O	0.003386	-0.453685	0.922072
C35	C	-0.348778	-0.816517	0.373125
C36	C	0.151222	-0.316517	0.873125
C37	C	-0.345677	-0.738593	0.369814
C38	C	0.154323	-0.238593	0.869814
C39	C	-0.519610	-0.998574	0.380862
C40	C	-0.019610	-0.498574	0.880862
C41	C	-0.589580	-0.998599	0.380870
C42	C	-0.089580	-0.498599	0.880870
C43	C	-0.362718	-0.990896	0.563763
C44	C	0.137282	-0.490896	1.063763
C45	C	-0.365553	-0.987586	0.641686
C46	C	0.134447	-0.487586	1.141686
C47	C	-0.622590	-1.045380	0.337994
C48	C	-0.122590	-0.545380	0.837994
C49	C	-0.688335	-1.045413	0.338011
C50	C	-0.188335	-0.545413	0.838011
C51	C	-0.721065	-0.998651	0.380897
C52	C	-0.221065	-0.498651	0.880897
C53	C	-0.688046	-0.951865	0.423781
C54	C	-0.188046	-0.451865	0.923781
C55	C	-0.622304	-0.951839	0.423768
C56	C	-0.122304	-0.451839	0.923768
N57	N	-0.822078	-0.937094	0.383622
N58	N	-0.322078	-0.437094	0.883622
N59	N	-0.884530	-0.937121	0.383630
N60	N	-0.384530	-0.437121	0.883630
C61	C	-0.919144	-0.998728	0.380940
C62	C	-0.419144	-0.498728	0.880940
N63	N	-0.888946	-1.060308	0.378228
N64	N	-0.388946	-0.560308	0.878228
N65	N	-0.826487	-1.060281	0.378215
N66	N	-0.326487	-0.560281	0.878215
C67	C	-0.792352	-0.998674	0.380916
C68	C	-0.292352	-0.498674	0.880916
C69	C	-1.023443	-1.045548	0.338080
C70	C	-0.523443	-0.545548	0.838080
C71	C	-1.089189	-1.045581	0.338103
C72	C	-0.589189	-0.545581	0.838103
C73	C	-1.088899	-0.952028	0.423869
C74	C	-0.588899	-0.452028	0.923869
C75	C	-1.023154	-0.952001	0.423850
C76	C	-0.523154	-0.452001	0.923850
C77	C	-0.990430	-0.998760	0.380953
C78	C	-0.490430	-0.498760	0.880953
C79	C	-0.191880	-0.998773	0.380964
C80	C	0.308120	-0.498773	0.880964
C81	C	-0.121914	-0.998820	0.380989
C82	C	0.378086	-0.498820	0.880989
C83	C	-0.363378	-1.181523	0.388716
C84	C	0.136622	-0.681523	0.888716
C85	C	-0.366495	-1.259446	0.392044
C86	C	0.133505	-0.759446	0.892044
C87	C	-0.386166	-0.700074	0.413007
C88	C	0.113834	-0.200074	0.913007
C89	C	-0.383244	-0.626856	0.409899
C90	C	0.116756	-0.126856	0.909899
C91	C	-0.339836	-0.592158	0.363593
C92	C	0.160164	-0.092158	0.863593
C93	C	-0.299344	-0.630682	0.320398
C94	C	0.200656	-0.130682	0.820398
C95	C	-0.302263	-0.703899	0.323510
C96	C	0.197737	-0.203899	0.823510
C97	C	-0.328921	-0.371187	0.351961
C98	C	0.171079	0.128813	0.851961
C99	C	-0.326006	-0.297965	0.348850
C100	C	0.173994	0.202035	0.848850
C101	C	-0.409906	-0.294144	0.438353
C102	C	0.090094	0.205856	0.938353
C103	C	-0.412824	-0.367362	0.441458
C104	C	0.087176	0.132638	0.941458
C105	C	-0.372329	-0.405880	0.398265
C106	C	0.127671	0.094120	0.898265
C107	C	-0.336850	-0.517318	0.360413
C108	C	0.163150	-0.017318	0.860413
C109	C	-0.375313	-0.480719	0.401449
C110	C	0.124687	0.019281	0.901449
C111	C	-0.349392	-1.006442	0.198761
C112	C	0.150608	-0.506442	0.698761
C113	C	-0.346384	-1.009889	0.120844
C114	C	0.153616	-0.509889	0.620844
C115	C	-0.328425	-1.030890	0.680225
C116	C	0.171575	-0.530890	1.180225
C117	C	-0.331086	-1.027771	0.753441
C118	C	0.168914	-0.527771	1.253441
C119	C	-0.370880	-0.981351	0.788118
C120	C	0.129120	-0.481351	1.288118
C121	C	-0.408010	-0.938043	0.749573
C122	C	0.091990	-0.438043	1.249573
C123	C	-0.405345	-0.941159	0.676358
C124	C	0.094655	-0.441159	1.176358
C125	C	-0.380849	-0.969696	1.009084
C126	C	0.119151	-0.469696	1.509084
C127	C	-0.383513	-0.966585	1.082305
C128	C	0.116487	-0.466585	1.582305
C129	C	-0.306588	-1.056312	1.086168
C130	C	0.193412	-0.556312	1.586168
C131	C	-0.303929	-1.059427	1.012951
C132	C	0.196071	-0.559427	1.512951
C133	C	-0.341056	-1.016116	0.974413
C134	C	0.158944	-0.516116	1.474413
C135	C	-0.373603	-0.978164	0.862957
C136	C	0.126397	-0.478164	1.362957
C137	C	-0.338330	-1.019300	0.899575
C138	C	0.161670	-0.519300	1.399575
H139	H	-0.595949	-1.083456	0.303066
H140	H	-0.095949	-0.583456	0.803066
H141	H	-0.996275	-0.913904	0.458761
H142	H	-0.496275	-0.413904	0.958761
H143	H	-0.269289	-0.735260	0.288341
H144	H	0.230711	-0.235260	0.788341
H145	H	-0.435572	-0.905889	0.644980
H146	H	0.064428	-0.405889	1.144980
H147	H	-0.296022	-1.068692	0.651997
H148	H	0.203978	-0.568692	1.151997
N149	N	-0.588572	-0.904058	0.467567
N150	N	-0.088572	-0.404058	0.967567
N151	N	-0.554457	-0.926779	0.513302
N152	N	-0.054457	-0.426779	1.013302
H153	H	-0.530632	-0.893033	0.544236
H154	H	-0.030632	-0.393033	1.044236
N155	N	-0.297692	-1.066726	0.864157
N156	N	0.202308	-0.566726	1.364157
N157	N	-0.304758	-1.131066	0.875095
N158	N	0.195242	-0.631066	1.375095
H159	H	-0.276060	-1.164563	0.850076
H160	H	0.223940	-0.664563	1.350076
H161	H	-0.263997	-0.602426	0.282698
H162	H	0.236003	-0.102426	0.782698
N163	N	-0.281653	-0.262530	0.301553
N164	N	0.218347	0.237470	0.801553
N165	N	-0.224074	-0.270530	0.306679
N166	N	0.275926	0.229470	0.806679
H167	H	-0.192751	-0.245504	0.273278
H168	H	0.307249	0.254496	0.773278
H169	H	-0.295952	-0.402539	0.316785
H170	H	0.204048	0.097461	0.816785
H171	H	-0.442874	-0.262775	0.473519
H172	H	0.057126	0.237225	0.973519
N173	N	-0.990021	-1.093314	0.294260
N174	N	-0.490021	-0.593314	0.794260
N175	N	-1.019507	-1.135086	0.255984
N176	N	-0.519507	-0.635086	0.755984
H177	H	-0.995905	-1.168821	0.225034
H178	H	-0.495905	-0.668821	0.725034
H179	H	-0.715218	-1.083510	0.303097
H180	H	-0.215218	-0.583510	0.803097
N181	N	-0.448654	-0.890613	0.784981
N182	N	0.051346	-0.390613	1.284981
N183	N	-0.481794	-0.851944	0.750559
N184	N	0.018206	-0.351944	1.250559
H185	H	-0.510497	-0.818442	0.775564
H186	H	-0.010497	-0.318442	1.275564
H187	H	-0.416215	-0.595497	0.445071
H188	H	0.083785	-0.095497	0.945071
H189	H	-0.271526	-1.097229	0.984722
H190	H	0.228474	-0.597229	1.484722
H191	H	-1.116065	-1.083681	0.303189
H192	H	-0.616065	-0.583681	0.803189
H193	H	-0.714700	-0.913793	0.458700
H194	H	-0.214700	-0.413793	0.958700
N195	N	-1.122333	-0.904270	0.467676
N196	N	-0.622333	-0.404270	0.967676
N197	N	-1.181032	-0.904300	0.467685
N198	N	-0.681032	-0.404300	0.967685
H199	H	-1.204649	-0.870571	0.498626
H200	H	-0.704649	-0.370571	0.998626
N201	N	-0.268670	-1.100547	1.125544
N202	N	0.231330	-0.600547	1.625544
N203	N	-0.271054	-1.097762	1.190914
N204	N	0.228946	-0.597762	1.690914
H205	H	-0.244272	-1.129003	1.218725
H206	H	0.255728	-0.629003	1.718725
N207	N	-0.430516	-0.735503	0.460306
N208	N	0.069484	-0.235503	0.960306
N209	N	-0.466663	-0.701099	0.498868
N210	N	0.033337	-0.201099	0.998868
H211	H	-0.497986	-0.726118	0.532275
H212	H	0.002014	-0.226118	1.032275
H213	H	-0.448173	-0.395608	0.479164
H214	H	0.051827	0.104392	0.979164
N215	N	-0.414238	-0.930741	0.898389
N216	N	0.085762	-0.430741	1.398389
N217	N	-0.391775	-0.884352	0.937340
N218	N	0.108225	-0.384352	1.437340
H219	H	-0.420469	-0.850857	0.962370
H220	H	0.079531	-0.350857	1.462370
N221	N	-0.419653	-0.516170	0.448738
N222	N	0.080347	-0.016170	0.948738
N223	N	-0.460452	-0.558053	0.425715
N224	N	0.039548	-0.058053	0.925715
H225	H	-0.491769	-0.583098	0.459110
H226	H	0.008231	-0.083098	0.959110
N227	N	-0.292507	-0.481872	0.313120
N228	N	0.207493	0.018128	0.813120
N229	N	-0.251702	-0.439992	0.336137
N230	N	0.248298	0.060008	0.836137
H231	H	-0.220383	-0.414956	0.302738
H232	H	0.279617	0.085044	0.802738
H233	H	-0.415919	-0.928782	1.110536
H234	H	0.084081	-0.428782	1.610536
N235	N	-0.293156	-1.072010	0.792797
N236	N	0.206844	-0.572010	1.292797
N237	N	-0.257632	-1.113456	0.761828
N238	N	0.242368	-0.613456	1.261828
H239	H	-0.230842	-1.144702	0.789622
H240	H	0.269158	-0.644702	1.289622
H241	H	-0.411090	-0.934439	0.977716
H242	H	0.088910	-0.434439	1.477716
