data_functionalizedCrystal
_audit_creation_method	'MofGen! by Chris Wilmer'
_symmetry_space_group_name_H-M	'P1'
_symmetry_Int_Tables_number	1
_symmetry_cell_setting	triclinic
loop_
_symmetry_equiv_pos_as_xyz
  x,y,z
_cell_length_a	16.974867
_cell_length_b	16.974939
_cell_length_c	14.421503
_cell_angle_alpha	93.640344
_cell_angle_beta	93.645911
_cell_angle_gamma	83.165077
loop_
_atom_site_label
_atom_site_type_symbol
_atom_site_fract_x
_atom_site_fract_y
_atom_site_fract_z
O1	O	-1.049035	-0.100737	-0.009067
O2	O	-0.549035	0.399263	0.490933
O3	O	-0.818818	-0.113582	0.007229
O4	O	-0.318818	0.386418	0.507229
O5	O	-0.940334	0.007947	0.007218
O6	O	-0.440334	0.507947	0.507218
O7	O	-0.927518	-0.222265	-0.009056
O8	O	-0.427518	0.277735	0.490944
O9	O	-0.940323	0.007960	-0.147004
O10	O	-0.440323	0.507960	0.352996
O11	O	-0.818807	-0.113569	-0.146993
O12	O	-0.318807	0.386431	0.353007
O13	O	-1.049024	-0.100724	-0.163289
O14	O	-0.549024	0.399276	0.336711
Cu15	Cu	-0.933914	-0.107145	-0.169222
Cu16	Cu	-0.433914	0.392855	0.330778
Cu17	Cu	-0.933927	-0.107160	0.013162
Cu18	Cu	-0.433927	0.392840	0.513162
O19	O	-0.927507	-0.222252	-0.163278
O20	O	-0.427507	0.277748	0.336722
C21	C	-0.789355	-0.113088	-0.067637
C22	C	-0.289355	0.386912	0.432363
C23	C	-0.701580	-0.111627	-0.060948
C24	C	-0.201580	0.388373	0.439052
C25	C	-0.207509	-0.103379	-0.014205
C26	C	0.292491	0.396621	0.485795
C27	C	-0.289982	-0.104752	-0.020503
C28	C	0.210018	0.395248	0.479497
C29	C	-0.331204	-0.105437	-0.107719
C30	C	0.168796	0.394563	0.392281
C31	C	-0.289949	-0.104741	-0.188642
C32	C	0.210051	0.395259	0.311358
C33	C	-0.207478	-0.103363	-0.182343
C34	C	0.292522	0.396637	0.317657
C35	C	-0.577855	-0.109553	-0.135572
C36	C	-0.077855	0.390447	0.364428
C37	C	-0.660331	-0.110934	-0.141865
C38	C	-0.160331	0.389066	0.358135
C39	C	-0.660359	-0.110943	0.026275
C40	C	-0.160359	0.389057	0.526275
C41	C	-0.577885	-0.109569	0.032566
C42	C	-0.077885	0.390431	0.532566
C43	C	-0.536639	-0.108870	-0.048357
C44	C	-0.036639	0.391130	0.451643
N45	N	-0.415505	-0.106842	-0.114159
N46	N	0.084495	0.393158	0.385841
N47	N	-0.452340	-0.107459	-0.041916
N48	N	0.047660	0.392541	0.458084
C49	C	-0.939838	0.037411	-0.067649
C50	C	-0.439838	0.537411	0.432351
C51	C	-0.938366	0.125182	-0.060962
C52	C	-0.438366	0.625182	0.439038
C53	C	-0.078486	-0.101219	-0.088425
C54	C	0.421514	0.398781	0.411575
C55	C	-0.166260	-0.102686	-0.095122
C56	C	0.333740	0.397314	0.404878
C57	C	-0.930153	0.619252	-0.014201
C58	C	-0.430153	1.119252	0.485799
C59	C	-0.931528	0.536780	-0.020502
C60	C	-0.431528	1.036780	0.479498
C61	C	-0.932204	0.495567	-0.107719
C62	C	-0.432204	0.995567	0.392281
C63	C	-0.931512	0.536831	-0.188640
C64	C	-0.431512	1.036831	0.311360
C65	C	-0.930142	0.619302	-0.182338
C66	C	-0.430142	1.119302	0.317662
C67	C	-0.936304	0.248918	-0.135581
C68	C	-0.436304	0.748918	0.364419
C69	C	-0.937672	0.166440	-0.141877
C70	C	-0.437672	0.666440	0.358123
C71	C	-0.937690	0.166395	0.026261
C72	C	-0.437690	0.666395	0.526261
C73	C	-0.936315	0.248868	0.032556
C74	C	-0.436315	0.748868	0.532556
C75	C	-0.935628	0.290125	-0.048365
C76	C	-0.435628	0.790125	0.451635
N77	N	-0.933607	0.411267	-0.114162
N78	N	-0.433607	0.911267	0.385838
N79	N	-0.934230	0.374424	-0.041922
N80	N	-0.434230	0.874424	0.458078
N81	N	-0.933911	-0.107134	-0.297503
N82	N	-0.433911	0.392866	0.202497
C83	C	-0.927999	0.748284	-0.088415
C84	C	-0.427999	1.248284	0.411585
C85	C	-0.929459	0.660510	-0.095116
C86	C	-0.429459	1.160510	0.404884
C87	C	-0.989679	-0.050492	-0.608872
C88	C	-0.489679	0.449508	-0.108872
C89	C	-1.005595	-0.121703	-0.553559
C90	C	-0.505595	0.378297	-0.053559
C91	C	-0.933928	-0.107156	-0.669395
C92	C	-0.433928	0.392844	-0.169395
C93	C	-0.918042	-0.035936	-0.540614
C94	C	-0.418042	0.464064	-0.040614
C95	C	-0.933922	-0.107141	-0.486672
C96	C	-0.433922	0.392859	0.013328
C97	C	-0.949879	-0.178403	-0.615449
C98	C	-0.449879	0.321597	-0.115449
C99	C	-0.862295	-0.092589	-0.602503
C100	C	-0.362295	0.407411	-0.102503
C101	C	-0.878180	-0.163852	-0.547221
C102	C	-0.378180	0.336148	-0.047221
C103	C	-0.933934	-0.107164	-0.774657
C104	C	-0.433934	0.392836	-0.274657
C105	C	-0.933915	-0.107142	-0.381412
C106	C	-0.433915	0.392858	0.118588
N107	N	-0.933937	-0.107165	0.141443
N108	N	-0.433937	0.392835	0.641443
H109	H	-0.173951	-0.102827	0.056816
H110	H	0.326049	0.397173	0.556816
O111	O	-1.045900	0.006590	-0.641338
O112	O	-0.545900	0.506590	-0.141338
C113	C	-1.044685	0.006266	-0.739027
C114	C	-0.544685	0.506266	-0.239027
H115	H	-0.983937	-0.021351	-0.761811
H116	H	-0.483937	0.478649	-0.261811
H117	H	-1.056646	0.069856	-0.761888
H118	H	-0.556646	0.569856	-0.261888
H119	H	-1.092490	-0.029968	-0.772375
H120	H	-0.592490	0.470032	-0.272375
H121	H	-0.801738	-0.080246	-0.624234
H122	H	-0.301738	0.419754	-0.124234
H123	H	-0.904607	0.024287	-0.507959
H124	H	-0.404607	0.524287	-0.007959
H125	H	-0.323564	-0.105311	0.045389
H126	H	0.176436	0.394689	0.545389
H127	H	-0.544328	-0.109011	0.103587
H128	H	-0.044328	0.390989	0.603587
O129	O	-1.077913	-0.136269	-0.527688
O130	O	-0.577913	0.363731	-0.027688
C131	C	-1.136527	-0.076412	-0.559090
C132	C	-0.636527	0.423588	-0.059090
H133	H	-1.107715	-0.020654	-0.570122
H134	H	-0.607715	0.479346	-0.070122
H135	H	-1.183002	-0.062191	-0.504939
H136	H	-0.683002	0.437809	-0.004939
H137	H	-1.166261	-0.097990	-0.627599
H138	H	-0.666261	0.402010	-0.127599
O139	O	-0.700501	-0.111724	0.104805
O140	O	-0.200501	0.388276	0.604805
C141	C	-0.739164	-0.180975	0.101764
C142	C	-0.239164	0.319025	0.601764
H143	H	-0.748495	-0.203999	0.026349
H144	H	-0.248495	0.296001	0.526349
H145	H	-0.799195	-0.166550	0.133914
H146	H	-0.299195	0.333450	0.633914
H147	H	-0.701067	-0.228371	0.142569
H148	H	-0.201067	0.271629	0.642569
O149	O	-0.935739	0.289052	-0.214154
O150	O	-0.435739	0.789052	0.285846
C151	C	-1.003365	0.345809	-0.220015
C152	C	-0.503365	0.845809	0.279985
H153	H	-1.051652	0.327253	-0.177365
H154	H	-0.551652	0.827253	0.322635
H155	H	-1.026280	0.349812	-0.295804
H156	H	-0.526280	0.849812	0.204196
H157	H	-0.986849	0.406257	-0.191617
H158	H	-0.486849	0.906257	0.308383
O159	O	-0.537911	-0.108919	-0.214273
O160	O	-0.037911	0.391081	0.285727
C161	C	-0.591984	-0.109805	-0.292598
C162	C	-0.091984	0.390195	0.207402
H163	H	-0.647475	-0.135808	-0.274059
H164	H	-0.147475	0.364192	0.225941
H165	H	-0.563087	-0.147775	-0.352066
H166	H	-0.063087	0.352225	0.147934
H167	H	-0.609115	-0.046551	-0.315005
H168	H	-0.109115	0.453449	0.184995
O169	O	-0.966036	-0.250202	-0.654423
O170	O	-0.466036	0.249798	-0.154423
C171	C	-0.965867	-0.249335	-0.752106
C172	C	-0.465867	0.250665	-0.252106
H173	H	-0.977797	-0.185403	-0.773814
H174	H	-0.477797	0.314597	-0.273814
H175	H	-1.014168	-0.284978	-0.785368
H176	H	-0.514168	0.215022	-0.285368
H177	H	-0.905500	-0.276925	-0.776125
H178	H	-0.405500	0.223075	-0.276125
O179	O	-0.700479	-0.111492	-0.226532
O180	O	-0.200479	0.388508	0.273468
C181	C	-0.757202	-0.043838	-0.230760
C182	C	-0.257202	0.456162	0.269240
H183	H	-0.772573	-0.021232	-0.157228
H184	H	-0.272573	0.478768	0.342772
H185	H	-0.813161	-0.060202	-0.271761
H186	H	-0.313161	0.439798	0.228239
H187	H	-0.731740	0.004626	-0.266711
H188	H	-0.231740	0.504626	0.233289
H189	H	-0.323519	-0.105294	-0.259656
H190	H	0.176481	0.394706	0.240344
H191	H	-0.932095	0.503192	0.045387
H192	H	-0.432095	1.003192	0.545387
O193	O	-0.932185	0.496924	-0.273438
O194	O	-0.432185	0.996924	0.226562
C195	C	-0.931251	0.551024	-0.343503
C196	C	-0.431251	1.051024	0.156497
H197	H	-0.955315	0.613100	-0.316005
H198	H	-0.455315	1.113100	0.183995
H199	H	-0.969990	0.532260	-0.406631
H200	H	-0.469990	1.032260	0.093369
H201	H	-0.867695	0.551458	-0.364528
H202	H	-0.367695	1.051458	0.135472
H203	H	-0.173893	-0.102807	-0.248236
H204	H	0.326107	0.397193	0.251764
H205	H	-0.831028	-0.211816	-0.520322
H206	H	-0.331028	0.288184	-0.020322
H207	H	-0.929576	0.652894	-0.248228
H208	H	-0.429576	1.152894	0.251772
O209	O	-0.929516	0.659164	0.070596
O210	O	-0.429516	1.159164	0.570596
C211	C	-0.930396	0.605055	0.140662
C212	C	-0.430396	1.105055	0.640662
H213	H	-0.956405	0.549578	0.109900
H214	H	-0.456405	1.049578	0.609900
H215	H	-0.968358	0.633926	0.198793
H216	H	-0.468358	1.133926	0.698793
H217	H	-0.867138	0.587909	0.169951
H218	H	-0.367138	1.087909	0.669951
O219	O	-0.938432	0.126341	-0.226565
O220	O	-0.438432	0.626341	0.273435
C221	C	-1.007673	0.087666	-0.239723
C222	C	-0.507673	0.587666	0.260277
H223	H	-1.030708	0.078285	-0.169168
H224	H	-0.530708	0.578285	0.330832
H225	H	-0.993229	0.027659	-0.278739
H226	H	-0.493229	0.527659	0.221261
H227	H	-1.055070	0.125779	-0.281900
H228	H	-0.555070	0.625779	0.218100
H229	H	-0.935771	0.282419	0.103577
H230	H	-0.435771	0.782419	0.603577
H231	H	-0.938250	0.132795	0.092143
H232	H	-0.438250	0.632795	0.592143
