data_functionalizedCrystal
_audit_creation_method	'MofGen! by Chris Wilmer'
_symmetry_space_group_name_H-M	'P1'
_symmetry_Int_Tables_number	1
_symmetry_cell_setting	triclinic
loop_
_symmetry_equiv_pos_as_xyz
  x,y,z
_cell_length_a	16.959455
_cell_length_b	16.625545
_cell_length_c	16.959447
_cell_angle_alpha	90.029927
_cell_angle_beta	90.016723
_cell_angle_gamma	90.024506
loop_
_atom_site_label
_atom_site_type_symbol
_atom_site_fract_x
_atom_site_fract_y
_atom_site_fract_z
Zn1	Zn	1.208354	-0.321008	0.446961
Zn2	Zn	1.208264	-0.455856	0.314784
Zn3	Zn	1.076182	-0.321038	0.314793
Zn4	Zn	1.076134	-0.455800	0.446917
O5	O	1.142233	-0.388426	0.380864
O6	O	1.318953	-0.338907	0.429442
O7	O	1.190725	-0.438008	0.204174
O8	O	1.093773	-0.208202	0.332349
O9	O	1.318886	-0.437979	0.332332
O10	O	1.190879	-0.208180	0.429452
O11	O	1.093685	-0.338958	0.204181
O12	O	0.965565	-0.338904	0.332305
O13	O	1.093691	-0.437884	0.557534
O14	O	0.965530	-0.437913	0.429376
O15	O	1.190832	-0.338853	0.557567
O16	O	1.190678	-0.568681	0.332289
O17	O	1.093604	-0.568640	0.429366
C18	C	0.936867	-0.388406	0.380837
C19	C	0.849011	-0.388418	0.380844
C20	C	0.807731	-0.336795	0.330385
C21	C	0.807736	-0.440047	0.431315
C22	C	0.725190	-0.440056	0.431327
C23	C	0.683911	-0.388433	0.380868
C24	C	0.725178	-0.336801	0.330397
C25	C	0.683917	-0.491681	0.481802
C26	C	0.601366	-0.491692	0.481817
C27	C	0.560086	-0.440073	0.431353
C28	C	0.601358	-0.388439	0.380880
C29	C	0.560078	-0.336816	0.330420
C30	C	0.601349	-0.285186	0.279942
C31	C	0.683897	-0.285181	0.279933
C32	C	0.477537	-0.440077	0.431362
C33	C	0.477525	-0.336822	0.330432
C34	C	1.142147	-0.597917	0.380839
C35	C	1.142183	-0.687538	0.380855
C36	C	1.142214	-0.760320	0.380871
C37	C	1.142260	-0.851628	0.380888
C38	C	1.142301	-0.924405	0.380898
C39	C	1.142346	-1.015719	0.380914
C40	C	1.348402	-0.388446	0.380891
C41	C	1.436258	-0.388454	0.380903
C42	C	1.142266	-0.388359	0.587032
C43	C	1.142280	-0.388330	0.674889
C44	C	1.142341	-0.178117	0.380906
C45	C	1.142387	-0.088496	0.380924
C46	C	1.142246	-0.388434	0.175498
C47	C	1.142385	-0.388235	0.087641
C48	C	1.091798	-0.439806	1.046350
C49	C	1.192952	-0.336685	1.046379
C50	C	1.192931	-0.336702	0.963833
C51	C	1.142343	-0.388273	0.922542
C52	C	1.091777	-0.439827	0.963797
C53	C	1.243502	-0.285154	0.922573
C54	C	1.243483	-0.285170	0.840022
C55	C	1.192891	-0.336738	0.798729
C56	C	1.142322	-0.388293	0.839988
C57	C	1.091735	-0.439864	0.798697
C58	C	1.041161	-0.491416	0.839955
C59	C	1.041185	-0.491394	0.922504
C60	C	1.192868	-0.336759	0.716180
C61	C	1.091714	-0.439884	0.716143
H62	H	0.443939	-0.482109	0.472465
H63	H	1.284663	-0.243193	0.806436
O64	O	0.991953	-0.541387	0.962544
C65	C	0.857491	-0.580548	0.987755
C66	C	0.913152	-0.523867	0.942373
H67	H	0.793769	-0.566414	0.971452
H68	H	0.866129	-0.571676	1.053857
H69	H	0.871377	-0.645563	0.971513
H70	H	0.899300	-0.458830	0.958549
H71	H	0.904503	-0.532808	0.876282
O72	O	0.561369	-0.234964	0.230903
C73	C	0.570056	-0.132587	0.130753
C74	C	0.615434	-0.189407	0.186260
H75	H	0.613748	-0.095752	0.094633
H76	H	0.531464	-0.090419	0.167084
H77	H	0.531351	-0.169576	0.089408
H78	H	0.654182	-0.152483	0.227616
H79	H	0.653976	-0.231577	0.149879
H80	H	1.234142	-0.294702	1.080004
O81	O	1.242014	-0.286614	0.676225
C82	C	1.342391	-0.184370	0.684970
C83	C	1.286757	-0.241110	0.730316
H84	H	1.378592	-0.147578	0.728683
H85	H	1.306153	-0.142157	0.646356
H86	H	1.383654	-0.221418	0.646290
H87	H	1.245483	-0.204127	0.769039
H88	H	1.323044	-0.283325	0.768880
H89	H	1.050620	-0.481776	1.079946
O90	O	0.437552	-0.286598	0.281389
C91	C	0.446259	-0.184223	0.181240
C92	C	0.491626	-0.241046	0.236753
H93	H	0.489958	-0.147391	0.145125
H94	H	0.407667	-0.142051	0.217566
H95	H	0.407556	-0.221208	0.139890
H96	H	0.530372	-0.204125	0.278113
H97	H	0.530168	-0.283220	0.200377
O98	O	0.724109	-0.235052	0.230983
C99	C	0.851280	-0.189312	0.186213
C100	C	0.805836	-0.246112	0.241698
H101	H	0.917364	-0.198246	0.194845
H102	H	0.835135	-0.124297	0.200206
H103	H	0.834976	-0.203385	0.122462
H104	H	0.822116	-0.232112	0.305467
H105	H	0.821984	-0.311110	0.227636
O106	O	1.292600	-0.234953	0.962598
C107	C	1.331018	-0.097798	0.987948
C108	C	1.275377	-0.154562	0.942549
H109	H	1.317102	-0.032790	0.971767
H110	H	1.394757	-0.111904	0.971708
H111	H	1.322351	-0.106684	1.054029
H112	H	1.283974	-0.145709	0.876457
H113	H	1.211658	-0.140443	0.958853
O114	O	0.847938	-0.286668	0.281428
C115	C	0.975102	-0.240933	0.236634
C116	C	0.929667	-0.297728	0.292130
H117	H	1.041188	-0.249867	0.245255
H118	H	0.958961	-0.175916	0.250626
H119	H	0.958786	-0.255009	0.172887
H120	H	0.945958	-0.283724	0.355896
H121	H	0.945812	-0.362727	0.278070
H122	H	0.841350	-0.482072	0.472400
O123	O	0.561402	-0.541925	0.530867
C124	C	0.570126	-0.644310	0.631003
C125	C	0.615484	-0.587473	0.575485
H126	H	0.613831	-0.681138	0.667102
H127	H	0.531475	-0.686485	0.594682
H128	H	0.531482	-0.607337	0.672367
H129	H	0.654171	-0.624381	0.534110
H130	H	0.654085	-0.545296	0.611855
O131	O	0.724136	-0.541800	0.530739
C132	C	0.851315	-0.587521	0.575471
C133	C	0.805861	-0.530729	0.519999
H134	H	0.917397	-0.578578	0.566819
H135	H	0.835112	-0.652539	0.561484
H136	H	0.835077	-0.573449	0.639227
H137	H	0.822075	-0.544729	0.456225
H138	H	0.822068	-0.465728	0.534053
H139	H	1.050512	-0.481873	0.682530
H140	H	0.999976	-0.533409	0.806325
