data_functionalizedCrystal
_audit_creation_method	'MofGen! by Chris Wilmer'
_symmetry_space_group_name_H-M	'P1'
_symmetry_Int_Tables_number	1
_symmetry_cell_setting	triclinic
loop_
_symmetry_equiv_pos_as_xyz
  x,y,z
_cell_length_a	6.817900
_cell_length_b	12.850268
_cell_length_c	7.190329
_cell_angle_alpha	93.878914
_cell_angle_beta	113.843368
_cell_angle_gamma	88.222550
loop_
_atom_site_label
_atom_site_type_symbol
_atom_site_fract_x
_atom_site_fract_y
_atom_site_fract_z
V1	V	3.556597	-0.124419	-0.621539
O2	O	3.607587	0.025815	-0.619020
O3	O	3.458888	-0.265780	-0.608332
O4	O	3.327067	-0.113801	-0.896700
O5	O	3.740321	-0.127216	-0.328656
V6	V	4.070085	-0.107478	-0.587596
O7	O	3.752126	-0.161581	-0.695997
O8	O	4.324753	-0.070316	-0.513139
O9	O	3.944587	0.033883	-0.600803
O10	O	4.136492	-0.257712	-0.590115
O11	O	4.003758	-0.104681	-0.880480
O12	O	4.076409	-0.118095	-0.312435
C13	C	3.297764	-0.300514	-0.596225
C14	C	3.297956	-0.418193	-0.587097
V15	V	3.554248	-0.609050	-0.590695
O16	O	3.589934	-0.761768	-0.598062
O17	O	3.459235	-0.462165	-0.593093
O18	O	3.590406	-0.614112	-0.304662
O19	O	3.457855	-0.608769	-0.888490
V20	V	4.007590	-0.653709	-0.678981
O21	O	3.810523	-0.584837	-0.541640
O22	O	4.177269	-0.703039	-0.777286
O23	O	3.891417	-0.788140	-0.652167
O24	O	4.082980	-0.507541	-0.684457
O25	O	4.215058	-0.660539	-0.394030
O26	O	3.760246	-0.636193	-0.940598
C27	C	3.769077	0.068611	-0.612916
C28	C	3.747710	0.186288	-0.622091
C29	C	3.129618	-0.106644	-0.964056
C30	C	3.020903	-0.098751	-1.193169
C31	C	3.465290	-0.612022	-0.219174
C32	C	3.573427	-0.619895	0.009973
