data_functionalizedCrystal
_audit_creation_method	'MofGen! by Chris Wilmer'
_symmetry_space_group_name_H-M	'P1'
_symmetry_Int_Tables_number	1
_symmetry_cell_setting	triclinic
loop_
_symmetry_equiv_pos_as_xyz
  x,y,z
_cell_length_a	14.519709
_cell_length_b	15.995292
_cell_length_c	13.596369
_cell_angle_alpha	89.997204
_cell_angle_beta	90.000291
_cell_angle_gamma	83.574380
loop_
_atom_site_label
_atom_site_type_symbol
_atom_site_fract_x
_atom_site_fract_y
_atom_site_fract_z
O1	O	1.223644	0.109763	-0.081656
O2	O	1.473644	0.359763	0.168344
O3	O	1.723644	0.609763	0.418344
O4	O	1.973644	0.859763	0.668344
O5	O	0.955141	0.122689	-0.081685
O6	O	1.205141	0.372689	0.168315
O7	O	1.455141	0.622689	0.418315
O8	O	1.705141	0.872689	0.668315
O9	O	1.096760	-0.005654	-0.081671
O10	O	1.346760	0.244346	0.168329
O11	O	1.596760	0.494346	0.418329
O12	O	1.846760	0.744346	0.668329
O13	O	1.082025	0.238106	-0.081670
O14	O	1.332025	0.488106	0.168330
O15	O	1.582025	0.738106	0.418330
O16	O	1.832025	0.988106	0.668330
O17	O	1.096746	-0.005661	0.081911
O18	O	1.346746	0.244339	0.331911
O19	O	1.596746	0.494339	0.581911
O20	O	1.846746	0.744339	0.831911
O21	O	0.955126	0.122682	0.081898
O22	O	1.205126	0.372682	0.331898
O23	O	1.455126	0.622682	0.581898
O24	O	1.705126	0.872682	0.831898
O25	O	1.223630	0.109756	0.081927
O26	O	1.473630	0.359756	0.331927
O27	O	1.723630	0.609756	0.581927
O28	O	1.973630	0.859756	0.831927
Zn29	Zn	1.089376	0.116218	0.107884
Zn30	Zn	1.339376	0.366218	0.357884
Zn31	Zn	1.589376	0.616218	0.607884
Zn32	Zn	1.839376	0.866218	0.857884
Zn33	Zn	1.089394	0.116227	-0.107643
Zn34	Zn	1.339394	0.366227	0.142357
Zn35	Zn	1.589394	0.616227	0.392357
Zn36	Zn	1.839394	0.866227	0.642357
O37	O	1.082010	0.238099	0.081913
O38	O	1.332010	0.488099	0.331913
O39	O	1.582010	0.738099	0.581913
O40	O	1.832010	0.988099	0.831913
C41	C	0.920775	0.122083	0.000102
C42	C	1.170775	0.372083	0.250102
C43	C	1.420775	0.622083	0.500102
C44	C	1.670775	0.872083	0.750102
C45	C	0.818397	0.120278	0.000091
C46	C	1.068397	0.370278	0.250091
C47	C	1.318397	0.620278	0.500091
C48	C	1.568397	0.870278	0.750091
C49	C	0.443515	0.113632	0.000135
C50	C	0.693515	0.363632	0.250135
C51	C	0.943515	0.613632	0.500135
C52	C	1.193515	0.863632	0.750135
C53	C	0.547819	0.115478	0.000123
C54	C	0.797819	0.365478	0.250123
C55	C	1.047819	0.615478	0.500123
C56	C	1.297819	0.865478	0.750123
C57	C	0.630953	0.116955	0.000112
C58	C	0.880953	0.366955	0.250112
C59	C	1.130953	0.616955	0.500112
C60	C	1.380953	0.866955	0.750112
C61	C	0.735264	0.118801	0.000101
C62	C	0.985264	0.368801	0.250101
C63	C	1.235264	0.618801	0.500101
C64	C	1.485264	0.868801	0.750101
C65	C	1.096153	-0.036854	0.000117
C66	C	1.346153	0.213146	0.250117
C67	C	1.596153	0.463146	0.500117
C68	C	1.846153	0.713146	0.750117
C69	C	1.094355	-0.129810	0.000110
C70	C	1.344355	0.120190	0.250110
C71	C	1.594355	0.370190	0.500110
C72	C	1.844355	0.620190	0.750110
C73	C	1.087745	-0.467558	0.000118
C74	C	1.337745	-0.217558	0.250118
C75	C	1.587745	0.032442	0.500118
C76	C	1.837745	0.282442	0.750118
C77	C	1.189962	-0.444093	0.000495
C78	C	1.439962	-0.194093	0.250495
C79	C	1.689962	0.055907	0.500495
C80	C	1.939962	0.305907	0.750495
C81	C	1.191905	-0.347414	0.000123
C82	C	1.441905	-0.097414	0.250123
C83	C	1.691905	0.152586	0.500123
C84	C	1.941905	0.402586	0.750123
C85	C	1.091025	-0.299997	0.000115
C86	C	1.341025	-0.049997	0.250115
C87	C	1.591025	0.200003	0.500115
C88	C	1.841025	0.450003	0.750115
C89	C	1.039929	-0.329171	-0.093302
C90	C	1.289929	-0.079171	0.156698
C91	C	1.539929	0.170829	0.406698
C92	C	1.789929	0.420829	0.656698
C93	C	1.038699	-0.425963	-0.093377
C94	C	1.288699	-0.175963	0.156623
C95	C	1.538699	0.074037	0.406623
C96	C	1.788699	0.324037	0.656623
C97	C	1.036596	-0.425831	0.092648
C98	C	1.286596	-0.175831	0.342648
C99	C	1.536596	0.074169	0.592648
C100	C	1.786596	0.324169	0.842648
C101	C	1.040383	-0.329333	0.093879
C102	C	1.290383	-0.079333	0.343879
C103	C	1.540383	0.170667	0.593879
C104	C	1.790383	0.420667	0.843879
C105	C	1.092873	-0.205298	0.000109
C106	C	1.342873	0.044702	0.250109
C107	C	1.592873	0.294702	0.500109
C108	C	1.842873	0.544702	0.750109
C109	C	1.085894	-0.562257	0.000117
C110	C	1.335894	-0.312257	0.250117
C111	C	1.585894	-0.062257	0.500117
C112	C	1.835894	0.187743	0.750117
C113	C	1.257995	0.110362	0.000137
C114	C	1.507995	0.360362	0.250137
C115	C	1.757995	0.610362	0.500137
C116	C	2.007995	0.860362	0.750137
C117	C	1.360373	0.112167	0.000142
C118	C	1.610373	0.362167	0.250142
C119	C	1.860373	0.612167	0.500142
C120	C	2.110373	0.862167	0.750142
C121	C	1.082617	0.269299	0.000122
C122	C	1.332617	0.519299	0.250122
C123	C	1.582617	0.769299	0.500122
C124	C	1.832617	1.019299	0.750122
C125	C	1.084415	0.362254	0.000123
C126	C	1.334415	0.612254	0.250123
C127	C	1.584415	0.862254	0.500123
C128	C	1.834415	1.112254	0.750123
N129	N	1.089370	0.116211	0.254976
N130	N	1.339370	0.366211	0.504976
N131	N	1.589370	0.616211	0.754976
N132	N	1.839370	0.866211	1.004976
N133	N	1.089408	0.116227	-0.254735
N134	N	1.339408	0.366227	-0.004735
N135	N	1.589408	0.616227	0.245265
N136	N	1.839408	0.866227	0.495265
C137	C	1.089393	0.116228	0.656267
C138	C	1.339393	0.366228	0.906267
C139	C	1.589393	0.616228	1.156267
C140	C	1.839393	0.866228	1.406267
C141	C	1.089384	0.116226	0.544616
C142	C	1.339384	0.366226	0.794616
C143	C	1.589384	0.616226	1.044616
C144	C	1.839384	0.866226	1.294616
C145	C	1.089382	0.116220	0.455625
C146	C	1.339382	0.366220	0.705625
C147	C	1.589382	0.616220	0.955625
C148	C	1.839382	0.866220	1.205625
C149	C	1.089372	0.116217	0.343967
C150	C	1.339372	0.366217	0.593967
C151	C	1.589372	0.616217	0.843967
C152	C	1.839372	0.866217	1.093967
H153	H	1.231922	-0.328332	0.067086
H154	H	1.481922	-0.078332	0.317086
H155	H	1.731922	0.171668	0.567086
H156	H	1.981922	0.421668	0.817086
C157	C	1.246297	-0.322461	-0.090494
C158	C	1.496297	-0.072461	0.159506
C159	C	1.746297	0.177539	0.409506
C160	C	1.996297	0.427539	0.659506
N161	N	1.287265	-0.303667	-0.158752
N162	N	1.537265	-0.053667	0.091248
N163	N	1.787265	0.196333	0.341248
N164	N	2.037265	0.446333	0.591248
H165	H	1.229356	-0.472034	0.067488
H166	H	1.479356	-0.222034	0.317488
H167	H	1.729356	0.027966	0.567488
H168	H	1.979356	0.277966	0.817488
C169	C	1.242903	-0.483207	-0.089493
C170	C	1.492903	-0.233207	0.160507
C171	C	1.742903	0.016793	0.410507
C172	C	1.992903	0.266793	0.660507
N173	N	1.282775	-0.512670	-0.157273
N174	N	1.532775	-0.262670	0.092727
N175	N	1.782775	-0.012670	0.342727
N176	N	2.032775	0.237330	0.592727
H177	H	1.074097	-0.452724	-0.163201
H178	H	1.324097	-0.202724	0.086799
H179	H	1.574097	0.047276	0.336799
H180	H	1.824097	0.297276	0.586799
C181	C	0.937453	-0.445774	-0.099131
C182	C	1.187453	-0.195774	0.150869
C183	C	1.437453	0.054226	0.400869
C184	C	1.687453	0.304226	0.650869
N185	N	0.861197	-0.460692	-0.103475
N186	N	1.111197	-0.210692	0.146525
N187	N	1.361197	0.039308	0.396525
N188	N	1.611197	0.289308	0.646525
H189	H	0.965695	-0.297414	-0.096781
H190	H	1.215695	-0.047414	0.153219
H191	H	1.465695	0.202586	0.403219
H192	H	1.715695	0.452586	0.653219
H193	H	1.075423	-0.309054	-0.162816
H194	H	1.325423	-0.059054	0.087184
H195	H	1.575423	0.190946	0.337184
H196	H	1.825423	0.440946	0.587184
H197	H	0.961356	-0.439934	0.093271
H198	H	1.211356	-0.189934	0.343271
H199	H	1.461356	0.060066	0.593271
H200	H	1.711356	0.310066	0.843271
H201	H	1.068780	-0.453874	0.163456
H202	H	1.318780	-0.203874	0.413456
H203	H	1.568780	0.046126	0.663456
H204	H	1.818780	0.296126	0.913456
C205	C	1.090624	-0.304152	0.187245
C206	C	1.340624	-0.054152	0.437245
C207	C	1.590624	0.195848	0.687245
C208	C	1.840624	0.445848	0.937245
N209	N	1.128460	-0.285171	0.257567
N210	N	1.378460	-0.035171	0.507567
N211	N	1.628460	0.214829	0.757567
N212	N	1.878460	0.464829	1.007567
H213	H	0.966751	-0.296474	0.099514
H214	H	1.216751	-0.046474	0.349514
H215	H	1.466751	0.203526	0.599514
H216	H	1.716751	0.453526	0.849514
