data_functionalizedCrystal
_audit_creation_method	'MofGen! by Chris Wilmer'
_symmetry_space_group_name_H-M	'P1'
_symmetry_Int_Tables_number	1
_symmetry_cell_setting	triclinic
loop_
_symmetry_equiv_pos_as_xyz
  x,y,z
_cell_length_a	10.489741
_cell_length_b	15.944551
_cell_length_c	9.565339
_cell_angle_alpha	89.999279
_cell_angle_beta	89.999100
_cell_angle_gamma	84.018956
loop_
_atom_site_label
_atom_site_type_symbol
_atom_site_fract_x
_atom_site_fract_y
_atom_site_fract_z
O1	O	1.692410	0.118501	-0.116177
O2	O	1.321060	0.129624	-0.116199
O3	O	1.516876	0.001849	-0.116175
O4	O	1.496594	0.246276	-0.116201
O5	O	1.516860	0.001857	0.116345
O6	O	1.321045	0.129632	0.116321
O7	O	1.692395	0.118509	0.116343
Zn8	Zn	1.506717	0.124072	0.153250
Zn9	Zn	1.506738	0.124061	-0.153106
O10	O	1.496579	0.246284	0.116319
C11	C	1.273532	0.128788	0.000058
C12	C	1.131938	0.126275	0.000050
C13	C	1.064925	0.044975	0.000072
C14	C	0.972273	0.083376	-0.114573
C15	C	0.972292	0.083403	0.114673
C16	C	1.041151	0.164709	-0.114690
C17	C	1.041179	0.164725	0.114659
C18	C	0.948554	0.203186	-0.000014
C19	C	1.516026	-0.029446	0.000085
C20	C	1.513502	-0.122708	0.000086
C21	C	1.386093	-0.338330	0.000059
C22	C	1.445250	-0.398988	0.114709
C23	C	1.508935	-0.293461	0.000075
C24	C	1.445294	-0.398979	-0.114537
C25	C	1.504515	-0.458400	0.000058
C26	C	1.568126	-0.352890	0.114820
C27	C	1.568153	-0.352875	-0.114530
C28	C	1.627399	-0.413515	0.000148
C29	C	1.511478	-0.198443	0.000086
C30	C	1.501982	-0.553417	0.000058
C31	C	1.739922	0.119345	0.000083
C32	C	1.881517	0.121858	0.000082
C33	C	1.497429	0.277579	0.000056
C34	C	1.499953	0.370841	0.000046
N35	N	1.506713	0.124078	0.362329
N36	N	1.506752	0.124048	-0.362185
C37	C	1.416127	0.183150	0.453521
C38	C	1.531388	0.200146	0.546705
C39	C	1.391501	0.107089	0.546701
C40	C	1.622032	0.141112	0.453461
C41	C	1.482069	0.048022	0.453449
C42	C	1.597414	0.064986	0.546591
H43	H	0.941784	0.048992	0.211598
H44	H	1.620033	-0.332584	0.211854
H45	H	1.071509	0.199079	-0.211724
C46	C	1.250112	-0.294773	0.000483
C47	C	1.186375	-0.318006	0.120802
C48	C	1.061119	-0.277888	0.121256
H49	H	1.205884	-0.311182	-0.080042
H50	H	1.252612	-0.235383	-0.000274
H51	H	1.183869	-0.377383	0.121546
H52	H	1.230564	-0.301596	0.201346
H53	H	1.063618	-0.218499	0.120498
H54	H	1.016903	-0.294300	0.040725
H55	H	1.017861	-0.293640	0.202896
H56	H	1.294052	0.092733	0.587660
C57	C	1.376208	-0.426288	0.244059
C58	C	1.460253	-0.481276	0.323367
C59	C	1.396694	-0.506430	0.442535
H60	H	1.304528	-0.454231	0.216674
H61	H	1.347780	-0.378104	0.298499
H62	H	1.488662	-0.529452	0.268937
H63	H	1.531934	-0.453351	0.350787
H64	H	1.368266	-0.458246	0.496975
H65	H	1.325016	-0.534369	0.415137
H66	H	1.453712	-0.543735	0.496367
H67	H	1.729454	-0.446060	0.000219
H68	H	1.620072	-0.332436	-0.211456
H69	H	1.393327	-0.419372	-0.211472
C70	C	1.559007	0.285887	0.601533
C71	C	1.456198	0.319972	0.684123
C72	C	1.481590	0.398952	0.734663
H73	H	1.569971	0.322503	0.525121
H74	H	1.635004	0.279719	0.656232
H75	H	1.380223	0.326144	0.629426
H76	H	1.445218	0.283380	0.760556
H77	H	1.557587	0.392784	0.789362
H78	H	1.492556	0.435560	0.658242
H79	H	1.411845	0.422085	0.790716
H80	H	1.339591	0.233152	0.412657
C81	C	1.751860	0.160456	0.398820
C82	C	1.750281	0.160332	0.252456
C83	C	1.869831	0.178191	0.202070
H84	H	1.816412	0.118794	0.431253
H85	H	1.769464	0.214329	0.431478
H86	H	1.732693	0.106466	0.219812
H87	H	1.685755	0.201994	0.219986
H88	H	1.887435	0.232065	0.234728
H89	H	1.934374	0.136527	0.234512
H90	H	1.868772	0.178117	0.102758
H91	H	1.115541	-0.021859	-0.000064
H92	H	1.674119	0.015015	0.587199
C93	C	1.454013	-0.037613	0.398576
C94	C	1.343237	-0.027986	0.316016
C95	C	1.317346	-0.106852	0.265426
H96	H	1.441323	-0.073893	0.474965
H97	H	1.524286	-0.061357	0.343845
H98	H	1.272980	-0.004254	0.370745
H99	H	1.355899	0.008280	0.239606
H100	H	1.387619	-0.130595	0.210695
H101	H	1.304661	-0.143126	0.341823
H102	H	1.242189	-0.100329	0.209394
C103	C	0.931820	0.037440	-0.243852
C104	C	1.040304	0.010542	-0.323687
C105	C	1.003099	-0.031792	-0.442771
H106	H	0.874654	0.074452	-0.297993
H107	H	0.890174	-0.010057	-0.216329
H108	H	1.081929	0.058033	-0.351211
H109	H	1.097481	-0.026479	-0.269588
H110	H	0.961454	-0.079289	-0.415249
H111	H	0.945932	0.005224	-0.496901
H112	H	1.076700	-0.050054	-0.496948
C113	C	0.881470	0.292410	-0.000388
C114	C	0.916379	0.334568	-0.120643
C115	C	0.854591	0.416756	-0.121052
H116	H	0.906057	0.321612	0.080181
H117	H	0.791280	0.290359	0.000314
H118	H	1.006549	0.336623	-0.121333
H119	H	0.891790	0.305391	-0.201232
H120	H	0.764401	0.414706	-0.120349
H121	H	0.879182	0.445951	-0.040477
H122	H	0.878258	0.445369	-0.202649
C123	C	1.081910	0.210416	0.244060
C124	C	1.047451	0.167570	0.363788
C125	C	1.084972	0.209621	0.483028
H126	H	1.040491	0.266305	0.245077
H127	H	1.172169	0.212101	0.242723
H128	H	0.957209	0.165893	0.365125
H129	H	1.088867	0.111683	0.362817
H130	H	1.175231	0.211306	0.481691
H131	H	1.043550	0.265509	0.484031
H132	H	1.061609	0.180552	0.564276
