data_functionalizedCrystal
_audit_creation_method	'MofGen! by Chris Wilmer'
_symmetry_space_group_name_H-M	'P1'
_symmetry_Int_Tables_number	1
_symmetry_cell_setting	triclinic
loop_
_symmetry_equiv_pos_as_xyz
  x,y,z
_cell_length_a	16.625545
_cell_length_b	13.033290
_cell_length_c	13.032268
_cell_angle_alpha	105.155942
_cell_angle_beta	82.853439
_cell_angle_gamma	97.154173
loop_
_atom_site_label
_atom_site_type_symbol
_atom_site_fract_x
_atom_site_fract_y
_atom_site_fract_z
Zn1	Zn	0.511247	1.547362	-0.394131
Zn2	Zn	0.630896	1.569799	-0.216537
Zn3	Zn	0.480899	1.392320	-0.239117
Zn4	Zn	0.630839	1.369717	-0.416660
O5	O	0.563470	1.469799	-0.316611
O6	O	0.539844	1.698959	-0.351694
O7	O	0.598321	1.565105	-0.070906
O8	O	0.372101	1.412957	-0.259702
O9	O	0.627749	1.715443	-0.221216
O10	O	0.394398	1.526865	-0.373589
O11	O	0.488119	1.434712	-0.087496
O12	O	0.488064	1.240701	-0.281548
O13	O	0.627652	1.374433	-0.562298
O14	O	0.598224	1.224095	-0.411988
O15	O	0.539788	1.504948	-0.545746
O16	O	0.743711	1.543187	-0.243062
O17	O	0.743670	1.396188	-0.390092
C18	C	0.772949	1.469696	-0.316591
C19	C	0.862576	1.469744	-0.316605
C20	C	0.539845	1.193862	-0.351663
C21	C	0.529760	1.075812	-0.366684
C22	C	0.587099	1.434667	-0.593636
C23	C	0.597168	1.419695	-0.711688
C24	C	1.190777	1.469901	-0.316710
C25	C	1.099462	1.469854	-0.316684
C26	C	1.026679	1.469822	-0.316657
C27	C	0.935358	1.469776	-0.316633
C28	C	1.353178	1.469919	-0.316665
C29	C	1.263565	1.469943	-0.316723
C30	C	0.587188	1.746814	-0.281423
C31	C	0.597295	1.864861	-0.266428
C32	C	0.558307	1.909335	-0.324300
C33	C	0.568753	2.031342	-0.308803
C34	C	0.558184	1.477597	-0.756129
C35	C	0.568591	1.462124	-0.878141
C36	C	0.539880	1.504857	-0.040656
C37	C	0.529601	1.520034	0.077421
H38	H	0.609872	2.083589	-0.247786
H39	H	0.517199	1.857083	-0.385324
H40	H	0.488514	1.581059	-0.870303
C41	C	0.474219	2.005245	-0.449134
C42	C	0.509788	1.918378	-0.542135
C43	C	0.454251	1.847814	-0.624587
C44	C	0.363146	1.864117	-0.614038
C45	C	0.327572	1.950987	-0.521032
C46	C	0.383109	2.021552	-0.438580
H47	H	0.577235	1.906307	-0.549948
H48	H	0.480586	1.783507	-0.693436
H49	H	0.322034	1.811881	-0.675074
H50	H	0.260126	1.963059	-0.513219
H51	H	0.356774	2.085859	-0.369732
C52	C	0.652666	1.337249	-0.782305
C53	C	0.726365	1.373625	-0.852728
C54	C	0.781864	1.291176	-0.923343
C55	C	0.763665	1.172352	-0.923535
C56	C	0.689963	1.135970	-0.853110
C57	C	0.634464	1.218419	-0.782495
H58	H	0.739839	1.461591	-0.852588
H59	H	0.836423	1.318109	-0.975476
H60	H	0.804749	1.111319	-0.975808
H61	H	0.676489	1.048004	-0.853250
H62	H	0.579905	1.191486	-0.730362
C63	C	0.502687	1.560042	-0.685510
C64	C	0.411572	1.549526	-0.701771
C65	C	0.356073	1.631973	-0.631153
C66	C	0.391688	1.724937	-0.544274
C67	C	0.482808	1.735457	-0.528008
C68	C	0.538307	1.653010	-0.598626
H69	H	0.385203	1.480705	-0.766088
H70	H	0.288620	1.624185	-0.643195
H71	H	0.350605	1.785969	-0.491998
H72	H	0.509177	1.804278	-0.463692
H73	H	0.605760	1.660798	-0.586585
C74	C	0.624091	1.379674	-0.948756
C75	C	0.697790	1.416050	-1.019178
C76	C	0.753289	1.333601	-1.089793
C77	C	0.735090	1.214777	-1.089985
C78	C	0.661389	1.178395	-1.019560
C79	C	0.605889	1.260844	-0.948945
H80	H	0.711265	1.504016	-1.019038
H81	H	0.807848	1.360534	-1.141926
H82	H	0.776174	1.153744	-1.142258
H83	H	0.647914	1.090429	-1.019700
H84	H	0.551330	1.233911	-0.896812
H85	H	0.638412	1.917111	-0.205414
