data_functionalizedCrystal
_audit_creation_method	'MofGen! by Chris Wilmer'
_symmetry_space_group_name_H-M	'P1'
_symmetry_Int_Tables_number	1
_symmetry_cell_setting	triclinic
loop_
_symmetry_equiv_pos_as_xyz
  x,y,z
_cell_length_a	12.759401
_cell_length_b	16.959447
_cell_length_c	12.759400
_cell_angle_alpha	89.973532
_cell_angle_beta	90.013149
_cell_angle_gamma	89.987142
loop_
_atom_site_label
_atom_site_type_symbol
_atom_site_fract_x
_atom_site_fract_y
_atom_site_fract_z
Zn1	Zn	1.606202	-0.446899	-0.418246
Zn2	Zn	1.606120	-0.314729	-0.593953
Zn3	Zn	1.430523	-0.314740	-0.418288
Zn4	Zn	1.430497	-0.446871	-0.593883
O5	O	1.518336	-0.380810	-0.506093
O6	O	1.753212	-0.429374	-0.441565
O7	O	1.582803	-0.204120	-0.570697
O8	O	1.453872	-0.332287	-0.271262
O9	O	1.753152	-0.332269	-0.570656
O10	O	1.582943	-0.429384	-0.271231
O11	O	1.453793	-0.204128	-0.441637
O12	O	1.283499	-0.332260	-0.441570
O13	O	1.453828	-0.557486	-0.570538
O14	O	1.283480	-0.429337	-0.570579
O15	O	1.582918	-0.557506	-0.441498
O16	O	1.582778	-0.332242	-0.740965
O17	O	1.453749	-0.429326	-0.740914
C18	C	1.245368	-0.380797	-0.506072
C19	C	1.128592	-0.380810	-0.506089
C20	C	0.964031	-0.431457	-0.439006
C21	C	1.073755	-0.431450	-0.438992
C22	C	1.073698	-0.330180	-0.573213
C23	C	0.963976	-0.330191	-0.573232
C24	C	0.909200	-0.482095	-0.371897
C25	C	0.964086	-0.532727	-0.304774
C26	C	1.073810	-0.532720	-0.304760
C27	C	1.128648	-0.482081	-0.371868
C28	C	1.518379	-0.586978	-0.506006
C29	C	1.518398	-0.674835	-0.505969
C30	C	1.451312	-1.046303	-0.573043
C31	C	1.585734	-1.046319	-0.438673
C32	C	1.585706	-0.963773	-0.438695
C33	C	1.518482	-0.922488	-0.505893
C34	C	1.451285	-0.963749	-0.573070
C35	C	1.652910	-0.922506	-0.371527
C36	C	1.652885	-0.839955	-0.371548
C37	C	1.585654	-0.798668	-0.438742
C38	C	1.518454	-0.839934	-0.505920
C39	C	1.451229	-0.798649	-0.573118
C40	C	1.384022	-0.839914	-0.640292
C41	C	1.384053	-0.922463	-0.640263
C42	C	1.585623	-0.716120	-0.438770
C43	C	1.451201	-0.716096	-0.573145
C44	C	1.792369	-0.380823	-0.506114
C45	C	1.909145	-0.380829	-0.506123
C46	C	1.518280	-0.380797	-0.779060
C47	C	1.518353	-0.380818	-0.895837
C48	C	1.518352	-0.175444	-0.506103
C49	C	1.518537	-0.087587	-0.505845
C50	C	1.585526	-0.431418	-0.950603
C51	C	1.585575	-0.431437	-1.060327
C52	C	1.451274	-0.330251	-1.060509
C53	C	1.451221	-0.330236	-0.950787
C54	C	1.652658	-0.482001	-0.895653
C55	C	1.719838	-0.532604	-0.950419
C56	C	1.719887	-0.532623	-1.060143
C57	C	1.652756	-0.482039	-1.115101
C58	C	1.518419	-0.380840	-0.232059
C59	C	1.518455	-0.380852	-0.115283
H60	H	0.919429	-0.573960	-0.250143
Br61	Br	1.652569	-0.481998	-0.746742
Br62	Br	1.810924	-0.601261	-0.875837
Br63	Br	1.360174	-0.261606	-1.135094
Br64	Br	1.811042	-0.601308	-1.134467
H65	H	1.396521	-0.289034	-0.906196
H66	H	1.118495	-0.573952	-0.250112
Br67	Br	1.277561	-0.482081	-0.371858
Br68	Br	1.148121	-0.261459	-0.664280
Br69	Br	1.652999	-0.481936	-1.264013
H70	H	1.329341	-0.956067	-0.694956
Br71	Br	1.292801	-0.783875	-0.731495
H72	H	0.819857	-0.482103	-0.371897
Br73	Br	1.359953	-0.660073	-0.664339
Br74	Br	0.889481	-0.261496	-0.664341
H75	H	1.396591	-1.079904	-0.627731
H76	H	1.640472	-1.079938	-0.383969
H77	H	1.707647	-0.956126	-0.316825
H78	H	1.707608	-0.806364	-0.316850
Br79	Br	1.676834	-0.660121	-0.347624
