data_functionalizedCrystal
_audit_creation_method	'MofGen! by Chris Wilmer'
_symmetry_space_group_name_H-M	'P1'
_symmetry_Int_Tables_number	1
_symmetry_cell_setting	triclinic
loop_
_symmetry_equiv_pos_as_xyz
  x,y,z
_cell_length_a	19.805407
_cell_length_b	21.295417
_cell_length_c	19.805399
_cell_angle_alpha	89.968796
_cell_angle_beta	89.984884
_cell_angle_gamma	90.027018
loop_
_atom_site_label
_atom_site_type_symbol
_atom_site_fract_x
_atom_site_fract_y
_atom_site_fract_z
Zn1	Zn	1.034702	-0.250660	-0.382677
Zn2	Zn	1.034616	-0.355931	-0.269485
Zn3	Zn	0.921522	-0.250675	-0.269505
Zn4	Zn	0.921474	-0.355890	-0.382635
O5	O	0.978079	-0.303289	-0.326075
O6	O	1.129407	-0.264635	-0.367671
O7	O	1.019598	-0.341992	-0.174771
O8	O	0.936592	-0.162584	-0.284544
O9	O	1.129344	-0.341978	-0.284509
O10	O	1.019745	-0.162573	-0.367691
O11	O	0.936508	-0.264661	-0.174786
O12	O	0.826799	-0.264621	-0.284503
O13	O	0.936510	-0.341908	-0.477357
O14	O	0.826764	-0.341923	-0.367619
O15	O	1.019698	-0.264596	-0.477388
O16	O	1.019551	-0.444015	-0.284468
O17	O	0.936426	-0.443985	-0.367599
C18	C	0.802223	-0.303270	-0.326059
C19	C	0.726991	-0.303276	-0.326068
C20	C	0.691680	-0.263075	-0.369436
C21	C	0.620992	-0.263079	-0.369439
C22	C	0.585615	-0.303287	-0.326076
C23	C	0.620930	-0.343489	-0.282703
C24	C	0.691618	-0.343482	-0.282698
C25	C	0.335857	-0.343518	-0.282724
C26	C	0.265165	-0.343523	-0.282734
C27	C	0.265231	-0.263114	-0.369465
C28	C	0.335918	-0.263107	-0.369460
C29	C	0.371228	-0.303307	-0.326084
C30	C	0.447876	-0.303302	-0.326081
C31	C	0.508968	-0.303295	-0.326082
C32	C	0.977992	-0.466841	-0.326041
C33	C	0.978017	-0.536809	-0.326049
C34	C	1.021290	-0.569613	-0.369375
C35	C	1.021314	-0.635355	-0.369391
C36	C	0.978072	-0.668292	-0.326071
C37	C	0.934791	-0.635480	-0.282742
C38	C	0.934763	-0.569739	-0.282731
N39	N	0.972964	-0.771554	-0.266835
N40	N	0.972994	-0.834005	-0.266847
C41	C	0.978151	-0.866366	-0.326101
N42	N	0.983291	-0.833916	-0.385344
N43	N	0.983264	-0.771459	-0.385331
C44	C	0.978097	-0.739577	-0.326078
C45	C	1.021452	-0.970455	-0.369448
C46	C	1.021471	-1.036199	-0.369466
C47	C	0.934952	-1.036323	-0.282811
C48	C	0.934929	-0.970580	-0.282799
C49	C	0.978183	-0.937650	-0.326117
C50	C	1.154621	-0.303310	-0.326092
C51	C	1.229853	-0.303318	-0.326100
C52	C	0.978108	-0.303246	-0.502618
C53	C	0.978121	-0.303227	-0.577850
C54	C	0.978184	-0.139099	-0.326125
C55	C	0.978228	-0.069131	-0.326146
C56	C	0.934869	-0.262957	-0.613202
C57	C	0.934878	-0.262945	-0.683890
C58	C	0.978143	-0.303200	-0.719226
C59	C	1.021398	-0.343474	-0.683869
C60	C	1.021384	-0.343489	-0.613182
C61	C	1.021451	-0.343416	-0.968943
C62	C	1.021463	-0.343396	-1.039635
C63	C	0.934945	-0.262871	-1.039651
C64	C	0.934932	-0.262886	-0.968964
C65	C	0.978183	-0.303162	-0.933613
C66	C	0.978171	-0.303176	-0.856965
C67	C	0.978159	-0.303183	-0.795873
C68	C	0.978088	-0.303287	-0.150220
C69	C	0.978206	-0.303129	-0.074988
H70	H	0.592245	-0.230344	-0.404755
N71	N	0.374075	-0.219744	-0.416233
H72	H	0.340979	-0.194276	-0.443707
H73	H	0.403406	-0.190577	-0.388736
H74	H	1.056670	-0.943643	-0.404723
H75	H	1.056508	-0.542803	-0.404648
H76	H	0.720479	-0.230335	-0.404749
H77	H	0.899695	-0.943869	-0.247516
N78	N	1.067989	-0.670747	-0.416122
H79	H	1.095385	-0.639911	-0.443562
H80	H	1.099337	-0.698015	-0.388597
H81	H	0.236474	-0.230379	-0.404781
N82	N	1.068121	-1.071584	-0.416224
H83	H	1.095510	-1.040745	-0.443668
H84	H	1.099477	-1.098867	-0.388726
H85	H	1.056622	-0.376254	-0.712645
H86	H	0.899739	-1.063139	-0.247542
H87	H	0.899581	-0.662301	-0.247471
N88	N	1.068124	-0.386818	-1.077754
H89	H	1.116491	-0.377057	-1.065461
H90	H	1.057518	-0.431780	-1.065427
H91	H	0.899525	-0.543029	-0.247450
N92	N	1.068037	-0.386919	-0.575047
H93	H	1.040504	-0.416093	-0.545708
H94	H	1.095441	-0.412377	-0.608197
N95	N	0.888210	-0.219532	-0.575092
H96	H	0.860811	-0.194019	-0.608216
H97	H	0.856863	-0.245155	-0.545750
H98	H	0.899655	-0.230155	-0.712670
H99	H	0.236363	-0.376266	-0.247420
N100	N	0.888276	-0.219460	-0.930852
H101	H	0.860877	-0.193945	-0.963974
H102	H	0.856930	-0.245082	-0.901509
H103	H	0.899725	-0.230077	-1.068442
H104	H	1.056662	-0.376218	-0.940169
H105	H	0.364597	-0.376252	-0.247406
H106	H	0.720366	-0.376218	-0.247382
N107	N	0.582778	-0.386851	-0.235925
H108	H	0.532640	-0.380757	-0.242509
H109	H	0.595119	-0.431821	-0.246366
