data_functionalizedCrystal
_audit_creation_method	'MofGen! by Chris Wilmer'
_symmetry_space_group_name_H-M	'P1'
_symmetry_Int_Tables_number	1
_symmetry_cell_setting	triclinic
loop_
_symmetry_equiv_pos_as_xyz
  x,y,z
_cell_length_a	16.776229
_cell_length_b	10.654550
_cell_length_c	10.654551
_cell_angle_alpha	95.514868
_cell_angle_beta	90.003795
_cell_angle_gamma	89.989355
loop_
_atom_site_label
_atom_site_type_symbol
_atom_site_fract_x
_atom_site_fract_y
_atom_site_fract_z
O1	O	0.066348	-1.667846	0.176402
O2	O	0.066335	-1.302368	0.193208
O3	O	0.066342	-1.493510	0.002065
O4	O	0.066341	-1.476705	0.367544
O5	O	-0.066234	-1.493484	0.002053
O6	O	-0.066241	-1.302342	0.193196
O7	O	-0.066228	-1.667821	0.176389
Zn8	Zn	-0.087284	-1.485077	0.184791
Zn9	Zn	0.087391	-1.485111	0.184807
O10	O	-0.066236	-1.476679	0.367532
C11	C	0.000045	-1.255557	0.191968
C12	C	0.000040	-1.116114	0.188276
N13	N	-0.206495	-1.485063	0.184779
C14	C	0.000056	-1.492263	-0.044739
C15	C	0.000061	-1.488570	-0.184182
C16	C	-0.248209	-1.569727	0.100177
C17	C	-0.331661	-1.569734	0.100176
C18	C	-0.373398	-1.485083	0.184784
C19	C	-0.331679	-1.400410	0.269391
C20	C	-0.248228	-1.400398	0.269385
C21	C	-0.668226	-1.400455	0.269416
C22	C	-0.751682	-1.400476	0.269418
C23	C	-0.751659	-1.569792	0.100207
C24	C	-0.668209	-1.569780	0.100201
C25	C	-0.626496	-1.485103	0.184802
C26	C	-0.536008	-1.485095	0.184801
C27	C	-0.463885	-1.485096	0.184793
N28	N	0.206602	-1.485135	0.184808
C29	C	0.000063	-1.714632	0.177629
C30	C	0.000074	-1.854075	0.181321
C31	C	0.000051	-1.036629	0.300817
C32	C	0.000065	-0.905608	0.297341
C33	C	0.000060	-0.933570	0.068771
C34	C	0.000041	-1.064589	0.072249
C35	C	0.000058	-1.020484	0.432780
C36	C	0.000072	-0.889463	0.429304
C37	C	0.072327	-1.486852	-0.249687
C38	C	0.072323	-1.483372	-0.380707
C39	C	-0.072219	-1.483333	-0.380706
C40	C	-0.072214	-1.486804	-0.249687
C41	C	0.155778	-1.486879	-0.249690
C42	C	0.155774	-1.483399	-0.380710
C43	C	0.000053	-1.477926	0.414336
C44	C	0.000053	-1.481619	0.553779
H45	H	-0.214233	-1.638666	0.031284
H46	H	-0.131063	-1.481893	-0.434056
C47	C	0.199059	-1.369651	-0.187149
H48	H	0.199067	-1.372021	-0.098241
H49	H	0.172372	-1.295738	-0.207830
H50	H	0.252448	-1.368889	-0.216780
C51	C	0.077365	-1.068678	0.489589
H52	H	0.074715	-1.157700	0.490061
H53	H	0.083470	-1.030870	0.573474
H54	H	0.121604	-1.047213	0.440264
C55	C	-0.074894	-1.060110	0.502490
H56	H	-0.074898	-1.149018	0.504858
H57	H	-0.121129	-1.035618	0.459503
H58	H	-0.074883	-1.020153	0.586133
C59	C	-0.077245	-0.827740	0.483171
H60	H	-0.111685	-0.890915	0.509573
H61	H	-0.102935	-0.785253	0.419983
H62	H	-0.064812	-0.768982	0.553208
C63	C	0.000068	-0.876887	-0.058847
H64	H	0.000086	-0.787473	-0.044802
H65	H	-0.046166	-0.904076	-0.105241
H66	H	0.046305	-0.904132	-0.105226
H67	H	-0.131060	-1.488197	-0.196357
C68	C	0.075027	-0.833086	0.496466
H69	H	0.075029	-0.744176	0.494115
H70	H	0.121261	-0.867899	0.455050
H71	H	0.075024	-0.852387	0.581680
C72	C	0.190765	-1.610618	-0.209734
H73	H	0.206346	-1.663317	-0.282604
H74	H	0.151649	-1.652563	-0.164661
H75	H	0.235897	-1.592309	-0.157299
H76	H	0.181672	-1.391808	-0.410275
C77	C	0.199049	-1.600654	-0.443258
H78	H	0.199052	-1.598280	-0.532165
H79	H	0.172362	-1.674551	-0.422579
H80	H	0.252441	-1.601452	-0.413628
C81	C	-0.377547	-1.662861	0.007114
H82	H	-0.433225	-1.650735	0.019221
H83	H	-0.363858	-1.746793	0.021532
H84	H	-0.363875	-1.648486	-0.076838
C85	C	-0.622302	-1.662892	0.007128
H86	H	-0.659098	-1.713309	-0.043268
H87	H	-0.589732	-1.715557	0.052786
H88	H	-0.589764	-1.617244	-0.045578
H89	H	-0.785663	-1.331538	0.338319
C90	C	-0.797541	-1.662927	0.007131
H91	H	-0.760731	-1.713348	-0.043249
H92	H	-0.830106	-1.617306	-0.045573
H93	H	-0.830083	-1.715605	0.052805
C94	C	-0.622349	-1.307350	0.362503
H95	H	-0.566671	-1.319459	0.350387
H96	H	-0.636025	-1.321742	0.446441
H97	H	-0.636037	-1.223406	0.348101
C98	C	-0.377587	-1.307297	0.362460
H99	H	-0.433262	-1.319437	0.350358
H100	H	-0.363929	-1.223360	0.348044
H101	H	-0.363899	-1.321670	0.446410
H102	H	0.000020	-1.129302	-0.019393
C103	C	-0.202343	-1.307273	0.362452
H104	H	-0.239150	-1.256866	0.412852
H105	H	-0.169801	-1.254600	0.316785
H106	H	-0.169778	-1.352906	0.415156
