data_functionalizedCrystal
_audit_creation_method	'MofGen! by Chris Wilmer'
_symmetry_space_group_name_H-M	'P1'
_symmetry_Int_Tables_number	1
_symmetry_cell_setting	triclinic
loop_
_symmetry_equiv_pos_as_xyz
  x,y,z
_cell_length_a	16.959454
_cell_length_b	14.908780
_cell_length_c	14.908308
_cell_angle_alpha	90.212689
_cell_angle_beta	93.269679
_cell_angle_gamma	86.690567
loop_
_atom_site_label
_atom_site_type_symbol
_atom_site_fract_x
_atom_site_fract_y
_atom_site_fract_z
Zn1	Zn	-0.276501	-1.345313	-0.587883
Zn2	Zn	0.223499	-0.845313	-0.087883
Zn3	Zn	-0.400658	-1.353894	-0.437532
Zn4	Zn	0.099342	-0.853894	0.062468
Zn5	Zn	-0.275642	-1.203627	-0.428851
Zn6	Zn	0.224358	-0.703627	0.071149
Zn7	Zn	-0.415789	-1.194920	-0.579150
Zn8	Zn	0.084211	-0.694920	-0.079150
O9	O	-0.342147	-1.274439	-0.508354
O10	O	0.157853	-0.774439	-0.008354
O11	O	-0.286998	-1.472279	-0.575227
O12	O	0.213002	-0.972279	-0.075227
O13	O	-0.377382	-1.341196	-0.310557
O14	O	0.122618	-0.841196	0.189443
O15	O	-0.165143	-1.222475	-0.449969
O16	O	0.334857	-0.722475	0.050031
O17	O	-0.378215	-1.478584	-0.464764
O18	O	0.121785	-0.978584	0.035236
O19	O	-0.165774	-1.326571	-0.566809
O20	O	0.334226	-0.826571	-0.066809
O21	O	-0.285533	-1.230795	-0.304179
O22	O	0.214467	-0.730795	0.195821
O23	O	-0.300205	-1.076644	-0.441500
O24	O	0.199795	-0.576644	0.058500
O25	O	-0.404004	-1.207635	-0.706132
O26	O	0.095996	-0.707635	-0.206132
O27	O	-0.403171	-1.070248	-0.551925
O28	O	0.096829	-0.570248	-0.051925
O29	O	-0.301670	-1.318128	-0.712548
O30	O	0.198330	-0.818128	-0.212548
O31	O	-0.513277	-1.332753	-0.456296
O32	O	-0.013277	-0.832753	0.043704
O33	O	-0.524394	-1.215956	-0.560342
O34	O	-0.024394	-0.715956	-0.060342
C35	C	-0.353238	-1.040820	-0.494823
C36	C	0.146762	-0.540820	0.005177
C37	C	-0.358002	-0.940876	-0.489056
C38	C	0.141998	-0.440876	0.010944
C39	C	-0.272118	-0.746493	-0.593420
C40	C	0.227882	-0.246493	-0.093420
C41	C	-0.276592	-0.652587	-0.588004
C42	C	0.223408	-0.152587	-0.088004
C43	C	-0.371420	-0.659155	-0.472805
C44	C	0.128580	-0.159155	0.027195
C45	C	-0.366946	-0.753061	-0.478221
C46	C	0.133054	-0.253061	0.021779
C47	C	-0.317294	-0.796727	-0.538531
C48	C	0.182706	-0.296727	-0.038531
C49	C	-0.312825	-0.890635	-0.543951
C50	C	0.187175	-0.390635	-0.043951
C51	C	-0.407648	-0.897202	-0.428748
C52	C	0.092352	-0.397202	0.071252
C53	C	-0.412122	-0.803295	-0.423332
C54	C	0.087878	-0.303295	0.076668
C55	C	-0.547516	-1.274364	-0.508334
C56	C	-0.047516	-0.774364	-0.008334
C57	C	-0.635372	-1.274413	-0.508361
C58	C	-0.135372	-0.774413	-0.008361
C59	C	-1.012660	-1.213706	-0.562530
C60	C	-0.512660	-0.713706	-0.062530
C61	C	-1.001024	-1.335417	-0.454284
C62	C	-0.501024	-0.835417	0.045716
C63	C	-0.918480	-1.335386	-0.454274
C64	C	-0.418480	-0.835386	0.045726
C65	C	-0.883021	-1.274513	-0.508392
C66	C	-0.383021	-0.774513	-0.008392
C67	C	-0.930108	-1.213671	-0.562519
C68	C	-0.430108	-0.713671	-0.062519
C69	C	-0.871387	-1.396220	-0.400141
C70	C	-0.371387	-0.896220	0.099859
C71	C	-0.788837	-1.396191	-0.400128
C72	C	-0.288837	-0.896191	0.099872
C73	C	-0.753377	-1.335322	-0.454251
C74	C	-0.253377	-0.835322	0.045749
C75	C	-0.800469	-1.274478	-0.508381
C76	C	-0.300469	-0.774478	-0.008381
C77	C	-0.765011	-1.213606	-0.562499
C78	C	-0.265011	-0.713606	-0.062499
C79	C	-0.812101	-1.152766	-0.616635
C80	C	-0.312101	-0.652766	-0.116635
C81	C	-0.894648	-1.152802	-0.616642
C82	C	-0.394648	-0.652802	-0.116642
C83	C	-0.670830	-1.335286	-0.454243
C84	C	-0.170830	-0.835286	0.045757
C85	C	-0.682458	-1.213571	-0.562488
C86	C	-0.182458	-0.713571	-0.062488
C87	C	-0.135976	-1.274537	-0.508395
C88	C	0.364024	-0.774537	-0.008395
C89	C	-0.048118	-1.274579	-0.508412
C90	C	0.451882	-0.774579	-0.008412
C91	C	-0.354621	-1.260953	-0.742877
C92	C	0.145379	-0.760953	-0.242877
C93	C	-0.359936	-1.255207	-0.842817
C94	C	0.140064	-0.755207	-0.342817
C95	C	-0.331007	-0.508970	-0.521931
C96	C	0.168993	-0.008970	-0.021931
C97	C	-0.326242	-0.608914	-0.527700
C98	C	0.173758	-0.108914	-0.027700
C99	C	-0.263345	-1.359462	-1.037297
C100	C	0.236655	-0.859462	-0.537297
C101	C	-0.268337	-1.354066	-1.131199
C102	C	0.231663	-0.854066	-0.631199
C103	C	-0.374907	-1.239013	-1.124526
C104	C	0.125093	-0.739013	-0.624526
C105	C	-0.369915	-1.244410	-1.030623
C106	C	0.130085	-0.744410	-0.530623
C107	C	-0.314133	-1.304637	-0.987012
C108	C	0.185867	-0.804637	-0.487012
C109	C	-0.309146	-1.310038	-0.893108
C110	C	0.190854	-0.810038	-0.393108
C111	C	-0.415712	-1.194981	-0.886436
C112	C	0.084288	-0.694981	-0.386436
C113	C	-0.420703	-1.189585	-0.980338
C114	C	0.079297	-0.689585	-0.480338
C115	C	-0.329663	-1.287923	-0.274746
C116	C	0.170337	-0.787923	0.225254
C117	C	-0.324116	-1.293844	-0.174817
C118	C	0.175884	-0.793844	0.325183
H119	H	-0.444440	-0.938112	-0.384060
H120	H	0.055560	-0.438112	0.115940
H121	H	-0.783221	-1.103199	-0.660693
H122	H	-0.283221	-0.603199	-0.160693
N123	N	-0.909643	-1.461864	-0.341779
N124	N	-0.409643	-0.961864	0.158221
H125	H	-0.892928	-1.525289	-0.359508
H126	H	-0.392928	-1.025289	0.140492
H127	H	-0.892540	-1.451560	-0.276734
H128	H	-0.392540	-0.951560	0.223266
N129	N	-0.465672	-0.756185	-0.358293
N130	N	0.034328	-0.256185	0.141707
H131	H	-0.522125	-0.771716	-0.373097
H132	H	-0.022125	-0.271716	0.126903
H133	H	-0.449055	-0.776225	-0.295039
H134	H	0.050945	-0.276225	0.204961
N135	N	-0.945436	-1.087183	-0.675023
N136	N	-0.445436	-0.587183	-0.175023
H137	H	-1.003109	-1.096440	-0.666811
H138	H	-0.503109	-0.596440	-0.166811
H139	H	-0.933353	-1.023780	-0.657252
H140	H	-0.433353	-0.523780	-0.157252
H141	H	-0.272397	-0.926187	-0.593060
H142	H	0.227603	-0.426187	-0.093060
H143	H	-0.653594	-1.164004	-0.606561
H144	H	-0.153594	-0.664004	-0.106561
H145	H	-0.750501	-1.445731	-0.356049
H146	H	-0.250501	-0.945731	0.143951
N147	N	-0.480870	-1.124627	-1.027366
N148	N	0.019130	-0.624627	-0.527366
H149	H	-0.470777	-1.061328	-1.007300
H150	H	0.029223	-0.561328	-0.507300
H151	H	-0.476304	-1.129593	-1.094474
H152	H	0.023696	-0.629593	-0.594474
N153	N	-0.218579	-0.793597	-0.658474
N154	N	0.281421	-0.293597	-0.158474
H155	H	-0.190641	-0.747524	-0.692429
H156	H	0.309359	-0.247524	-0.192429
H157	H	-0.178150	-0.834663	-0.624194
H158	H	0.321850	-0.334663	-0.124194
H159	H	-0.263727	-1.359080	-0.857602
H160	H	0.236273	-0.859080	-0.357602
N161	N	-1.063442	-1.148090	-0.620919
N162	N	-0.563442	-0.648090	-0.120919
H163	H	-1.121118	-1.157346	-0.612719
H164	H	-0.621118	-0.657346	-0.112719
H165	H	-1.051363	-1.084686	-0.603150
H166	H	-0.551363	-0.584686	-0.103150
H167	H	-0.239803	-0.611690	-0.632698
H168	H	0.260197	-0.111690	-0.132698
N169	N	-0.213557	-1.413206	-1.185426
N170	N	0.286443	-0.913206	-0.685426
H171	H	-0.245768	-1.452624	-1.226794
H172	H	0.254232	-0.952624	-0.726794
H173	H	-0.180742	-1.374382	-1.222221
H174	H	0.319258	-0.874382	-0.722221
H175	H	-0.411835	-0.623586	-0.423694
H176	H	0.088165	-0.123586	0.076306
N177	N	-1.039264	-1.401055	-0.395902
N178	N	-0.539264	-0.901055	0.104098
H179	H	-1.098703	-1.391840	-0.404117
H180	H	-0.598703	-0.891840	0.095883
H181	H	-1.022494	-1.464452	-0.413658
H182	H	-0.522494	-0.964452	0.086342
H183	H	-0.632493	-1.384817	-0.410162
H184	H	-0.132493	-0.884817	0.089838
H185	H	-0.457069	-1.150341	-0.845484
H186	H	0.042931	-0.650341	-0.345484
H187	H	-0.217930	-1.408507	-1.001789
H188	H	0.282070	-0.908507	-0.501789
H189	H	-0.420321	-1.189978	-1.160050
H190	H	0.079679	-0.689978	-0.660050
