data_functionalizedCrystal
_audit_creation_method	'MofGen! by Chris Wilmer'
_symmetry_space_group_name_H-M	'P1'
_symmetry_Int_Tables_number	1
_symmetry_cell_setting	triclinic
loop_
_symmetry_equiv_pos_as_xyz
  x,y,z
_cell_length_a	42.784839
_cell_length_b	42.784841
_cell_length_c	42.784893
_cell_angle_alpha	90.002418
_cell_angle_beta	59.997780
_cell_angle_gamma	119.999863
loop_
_atom_site_label
_atom_site_type_symbol
_atom_site_fract_x
_atom_site_fract_y
_atom_site_fract_z
O1	O	0.275695	-0.214412	-0.009300
O2	O	0.211692	-0.168961	0.009253
O3	O	0.275692	-0.168961	-0.054750
O4	O	0.211694	-0.214412	0.054702
O5	O	0.223708	-0.220945	-0.054749
O6	O	0.159708	-0.220945	0.009253
O7	O	0.223710	-0.266397	-0.009300
Zn8	Zn	0.183455	-0.251924	-0.000023
Zn9	Zn	0.251947	-0.183433	-0.000024
O10	O	0.159710	-0.266396	0.054703
C11	C	0.051021	-0.022778	0.028112
C12	C	0.013142	-0.041761	0.028375
C13	C	0.051018	-0.079378	0.028116
C14	C	0.013139	-0.098275	0.028379
C15	C	-0.005578	-0.079377	0.028112
C16	C	0.069652	-0.041762	0.028379
C17	C	0.152948	0.113708	0.017863
C18	C	0.173786	0.152360	0.014965
C19	C	0.155902	0.171750	0.013509
C20	C	0.178499	0.213661	0.010359
C21	C	0.117177	0.152485	0.014953
C22	C	0.096339	0.113835	0.017857
C23	C	0.114226	0.094447	0.019312
C24	C	-0.131813	-0.113936	0.017859
C25	C	-0.167567	-0.131750	0.014961
C26	C	-0.185502	-0.169024	0.013506
C27	C	-0.224264	-0.188340	0.010358
C28	C	-0.167685	-0.188485	0.014954
C29	C	-0.131938	-0.170675	0.017859
C30	C	-0.114002	-0.133396	0.019309
C31	C	0.152939	-0.113943	0.017877
C32	C	0.173778	-0.131757	0.014977
C33	C	0.155892	-0.169032	0.013523
C34	C	0.178486	-0.188349	0.010377
C35	C	0.117170	-0.188491	0.014967
C36	C	0.096334	-0.170675	0.017865
C37	C	0.114220	-0.133401	0.019323
C38	C	0.091629	0.052537	0.022456
C39	C	0.073617	0.019131	0.024964
C40	C	0.073613	-0.098693	0.024971
C41	C	0.091623	-0.114089	0.022466
C42	C	-0.044339	-0.098690	0.024964
C43	C	-0.075237	-0.114084	0.022456
O44	O	-0.327856	-0.266388	-0.009322
O45	O	-0.236954	-0.220935	0.009228
O46	O	-0.236950	-0.220939	-0.054773
O47	O	-0.327860	-0.266385	0.054680
O48	O	-0.236948	-0.168954	-0.054776
O49	O	-0.236952	-0.168950	0.009225
O50	O	-0.327854	-0.214403	-0.009325
Zn51	Zn	-0.282403	-0.183423	-0.000050
Zn52	Zn	-0.282405	-0.251916	-0.000046
O53	O	-0.327858	-0.214400	0.054676
C54	C	0.384390	-0.079141	-0.361606
C55	C	0.422270	-0.041526	-0.380503
C56	C	0.384390	-0.079141	-0.305008
C57	C	0.422270	-0.041526	-0.323990
C58	C	0.440988	-0.022543	-0.361606
C59	C	0.365758	-0.098038	-0.323991
C60	C	0.282465	-0.170819	-0.396168
C61	C	0.261627	-0.188759	-0.413983
C62	C	0.279513	-0.169420	-0.451257
C63	C	0.256917	-0.188867	-0.470572
C64	C	0.318239	-0.132140	-0.470717
C65	C	0.339076	-0.114205	-0.452905
C66	C	0.321187	-0.133546	-0.415628
C67	C	0.567227	0.113942	-0.453282
C68	C	0.602981	0.152594	-0.471222
C69	C	0.620916	0.171985	-0.451883
C70	C	0.659678	0.213894	-0.471328
C71	C	0.603097	0.152719	-0.414603
C72	C	0.567349	0.114068	-0.396667
C73	C	0.549414	0.094682	-0.416011
C74	C	0.282465	-0.170819	-0.168522
C75	C	0.261624	-0.188757	-0.129868
C76	C	0.279510	-0.169418	-0.110479
C77	C	0.256914	-0.188865	-0.068568
C78	C	0.318233	-0.132140	-0.129742
C79	C	0.339070	-0.114203	-0.168394
C80	C	0.321184	-0.133548	-0.187782
C81	C	0.343783	-0.114094	-0.396315
C82	C	0.361794	-0.098590	-0.380920
C83	C	0.361794	-0.098590	-0.263099
C84	C	0.343783	-0.114094	-0.229693
C85	C	0.479750	0.019366	-0.381054
C86	C	0.510649	0.052771	-0.396557
C87	C	0.440758	-0.356212	-0.028193
C88	C	0.422041	-0.393827	-0.028459
C89	C	0.384158	-0.356213	-0.028190
C90	C	0.365526	-0.393828	-0.028456
C91	C	0.384160	-0.412810	-0.028193
C92	C	0.422038	-0.337315	-0.028456
C93	C	0.567000	-0.264532	-0.017949
C94	C	0.602755	-0.246591	-0.015053
C95	C	0.620692	-0.265931	-0.013601
C96	C	0.659455	-0.246483	-0.010453
C97	C	0.602873	-0.303210	-0.015048
C98	C	0.567125	-0.321146	-0.017949
C99	C	0.549188	-0.301805	-0.019399
C100	C	0.339356	-0.549295	-0.017951
C101	C	0.318645	-0.587947	-0.015055
C102	C	0.279915	-0.607338	-0.013597
C103	C	0.257452	-0.649247	-0.010452
C104	C	0.261899	-0.588073	-0.015042
C105	C	0.282613	-0.549422	-0.017945
C106	C	0.321343	-0.530035	-0.019397
C107	C	0.339344	-0.264537	-0.017936
C108	C	0.318628	-0.246599	-0.015032
C109	C	0.279898	-0.265939	-0.013577
C110	C	0.257433	-0.246493	-0.010426
C111	C	0.261884	-0.303217	-0.015022
C112	C	0.282601	-0.321153	-0.017924
C113	C	0.321334	-0.301808	-0.019385
C114	C	0.510421	-0.321258	-0.022542
C115	C	0.479522	-0.336762	-0.025048
C116	C	0.361696	-0.336765	-0.025041
C117	C	0.343793	-0.321261	-0.022532
C118	C	0.361701	-0.454719	-0.025047
C119	C	0.343799	-0.488125	-0.022541
O120	O	0.223728	0.336934	-0.009323
O121	O	0.159726	0.227482	0.009227
O122	O	0.223729	0.291478	-0.054775
O123	O	0.159725	0.272938	0.054678
O124	O	0.275711	0.291477	-0.054771
O125	O	0.211707	0.227481	0.009230
O126	O	0.275710	0.336932	-0.009320
Zn127	Zn	0.251962	0.282206	-0.000045
Zn128	Zn	0.183474	0.282208	-0.000049
O129	O	0.211707	0.272936	0.054681
O130	O	0.763271	0.337164	-0.496871
O131	O	0.672367	0.227713	-0.451422
O132	O	0.672365	0.291711	-0.451418
O133	O	0.763273	0.273165	-0.496876
O134	O	0.672366	0.291712	-0.503402
O135	O	0.672368	0.227714	-0.503407
O136	O	0.763272	0.337165	-0.548856
Zn137	Zn	0.717820	0.282440	-0.534385
Zn138	Zn	0.717819	0.282438	-0.465893
O139	O	0.763275	0.273167	-0.548860
O140	O	0.211690	-0.214417	-0.548617
O141	O	0.275691	-0.168962	-0.503167
O142	O	0.211689	-0.168964	-0.503163
O143	O	0.275692	-0.214415	-0.548621
O144	O	0.159706	-0.220947	-0.451179
O145	O	0.223708	-0.220945	-0.451183
O146	O	0.159707	-0.266400	-0.496633
Zn147	Zn	0.183454	-0.251926	-0.465654
Zn148	Zn	0.251944	-0.183436	-0.534146
O149	O	0.223709	-0.266398	-0.496637
C150	C	-0.005343	-0.412572	0.361558
C151	C	0.013375	-0.393590	0.380456
C152	C	0.051255	-0.355974	0.304961
C153	C	0.069887	-0.337077	0.323944
C154	C	0.051254	-0.355974	0.361560
C155	C	0.013375	-0.393589	0.323943
C156	C	-0.131582	-0.549057	0.396116
C157	C	-0.167336	-0.587709	0.413930
C158	C	-0.185271	-0.607098	0.451205
C159	C	-0.224034	-0.649009	0.470519
C160	C	-0.167452	-0.587833	0.470666
C161	C	-0.131705	-0.549184	0.452854
C162	C	-0.113770	-0.529796	0.415578
C163	C	0.096061	-0.321414	0.453239
C164	C	0.116773	-0.303600	0.471179
C165	C	0.155502	-0.266327	0.451842
C166	C	0.177965	-0.247011	0.471288
C167	C	0.173517	-0.246866	0.414562
C168	C	0.152802	-0.264677	0.396625
C169	C	0.114073	-0.301955	0.415968
C170	C	0.096064	-0.321412	0.168474
C171	C	0.116779	-0.303599	0.129820
C172	C	0.155508	-0.266324	0.110432
C173	C	0.177972	-0.247009	0.068521
C174	C	0.173522	-0.246865	0.129696
C175	C	0.152807	-0.264680	0.168348
C176	C	0.114075	-0.301953	0.187735
C177	C	-0.075004	-0.487887	0.396265
C178	C	-0.044106	-0.454481	0.380871
C179	C	0.073715	-0.336660	0.263052
C180	C	0.091618	-0.321265	0.229646
C181	C	0.073714	-0.336661	0.381009
C182	C	0.091616	-0.321267	0.396513
C183	C	0.051046	-0.022794	-0.361634
C184	C	0.069679	-0.041778	-0.380530
C185	C	-0.005555	-0.079390	-0.305034
C186	C	0.013163	-0.098288	-0.324016
C187	C	0.051045	-0.079393	-0.361631
C188	C	0.013164	-0.041775	-0.324018
C189	C	0.095858	0.113693	-0.396200
C190	C	0.116571	0.152344	-0.414015
C191	C	0.155302	0.171732	-0.451290
C192	C	0.177767	0.213642	-0.470607
C193	C	0.173317	0.152465	-0.470750
C194	C	0.152600	0.113815	-0.452936
C195	C	0.113869	0.094429	-0.415659
C196	C	0.152973	-0.113959	-0.453306
C197	C	0.173810	-0.131775	-0.471245
C198	C	0.155926	-0.169048	-0.451906
C199	C	0.178519	-0.188366	-0.471350
C200	C	0.117198	-0.188507	-0.414626
C201	C	0.096358	-0.170694	-0.396690
C202	C	0.114251	-0.133416	-0.416035
C203	C	-0.131801	-0.113944	-0.168548
C204	C	-0.167554	-0.131755	-0.129895
C205	C	-0.185491	-0.169029	-0.110504
C206	C	-0.224255	-0.188343	-0.068593
C207	C	-0.167671	-0.188490	-0.129767
C208	C	-0.131918	-0.170677	-0.168418
C209	C	-0.113988	-0.133404	-0.187808
C210	C	0.091411	0.052521	-0.396344
C211	C	0.073508	0.019115	-0.380949
C212	C	-0.044320	-0.098701	-0.263125
C213	C	-0.075220	-0.114094	-0.229719
C214	C	0.073641	-0.098707	-0.381079
C215	C	0.091652	-0.114103	-0.396582
C216	C	-0.615853	-0.356193	0.361535
C217	C	-0.634487	-0.393808	0.380433
C218	C	-0.559253	-0.356195	0.304938
C219	C	-0.577972	-0.393810	0.323921
C220	C	-0.615854	-0.412792	0.361537
C221	C	-0.577972	-0.337297	0.323920
C222	C	-0.660661	-0.264512	0.396093
C223	C	-0.681373	-0.246571	0.413906
C224	C	-0.720104	-0.265909	0.451181
C225	C	-0.742568	-0.246461	0.470495
C226	C	-0.738120	-0.303189	0.470643
C227	C	-0.717405	-0.321125	0.452831
C228	C	-0.678674	-0.301785	0.415554
C229	C	-0.717784	-0.549275	0.453218
C230	C	-0.738622	-0.587926	0.471159
C231	C	-0.720740	-0.607319	0.451822
C232	C	-0.743333	-0.649227	0.471268
C233	C	-0.682012	-0.588055	0.414542
C234	C	-0.661170	-0.549403	0.396604
C235	C	-0.679063	-0.530016	0.415946
C236	C	-0.433006	-0.264522	0.168449
C237	C	-0.397253	-0.246585	0.129796
C238	C	-0.379317	-0.265926	0.110407
C239	C	-0.340553	-0.246480	0.068496
C240	C	-0.397138	-0.303204	0.129672
C241	C	-0.432891	-0.321139	0.168324
C242	C	-0.450820	-0.301793	0.187711
C243	C	-0.656216	-0.321238	0.396242
C244	C	-0.638314	-0.336743	0.380848
C245	C	-0.520488	-0.336748	0.263028
C246	C	-0.489588	-0.321245	0.229622
C247	C	-0.638451	-0.454700	0.380987
C248	C	-0.656463	-0.488106	0.396492
C249	C	0.440756	0.310302	-0.361620
C250	C	0.422038	0.310564	-0.380518
C251	C	0.384160	0.310312	-0.305026
C252	C	0.365528	0.310574	-0.324010
C253	C	0.384159	0.310303	-0.361624
C254	C	0.422038	0.310573	-0.324006
C255	C	0.566989	0.300046	-0.396172
C256	C	0.602741	0.297145	-0.413984
C257	C	0.620675	0.295684	-0.451257
C258	C	0.659436	0.292531	-0.470569
C259	C	0.602857	0.297127	-0.470719
C260	C	0.567111	0.300033	-0.452909
C261	C	0.549177	0.301493	-0.415634
C262	C	0.339351	0.300042	-0.453303
C263	C	0.318640	0.297142	-0.471244
C264	C	0.279912	0.295690	-0.451908
C265	C	0.257449	0.292541	-0.471354
C266	C	0.261899	0.297143	-0.414629
C267	C	0.282613	0.300049	-0.396692
C268	C	0.321341	0.301496	-0.416033
C269	C	0.339354	0.300088	-0.168540
C270	C	0.318640	0.297192	-0.129888
C271	C	0.279912	0.295742	-0.110501
C272	C	0.257450	0.292601	-0.068591
C273	C	0.261898	0.297184	-0.129766
C274	C	0.282612	0.300078	-0.168417
C275	C	0.321344	0.301533	-0.187802
C276	C	0.510413	0.304640	-0.396323
C277	C	0.479516	0.307151	-0.380931
C278	C	0.361701	0.307173	-0.263117
C279	C	0.343799	0.304671	-0.229712
C280	C	0.361700	0.307154	-0.381073
C281	C	0.343798	0.304644	-0.396578
O282	O	0.275503	0.336913	-0.548651
O283	O	0.211494	0.227461	-0.503201
O284	O	0.275490	0.291455	-0.503192
O285	O	0.211507	0.272919	-0.548659
O286	O	0.223502	0.291457	-0.451211
O287	O	0.159506	0.227463	-0.451219
O288	O	0.223515	0.336915	-0.496669
Zn289	Zn	0.183256	0.282189	-0.465691
Zn290	Zn	0.251753	0.282187	-0.534179
O291	O	0.159519	0.272921	-0.496677
C292	C	0.051032	0.254111	0.361530
C293	C	0.013154	0.253851	0.380425
C294	C	0.051031	0.254102	0.304932
C295	C	0.013153	0.253842	0.323913
C296	C	-0.005564	0.254113	0.361527
C297	C	0.069663	0.253840	0.323916
C298	C	0.152954	0.264360	0.396096
C299	C	0.173791	0.267260	0.413911
C300	C	0.155906	0.268721	0.451185
C301	C	0.178502	0.271871	0.470501
C302	C	0.117182	0.267279	0.470643
C303	C	0.096345	0.264374	0.452830
C304	C	0.114233	0.262915	0.415555
C305	C	-0.131796	0.264379	0.453195
C306	C	-0.167548	0.267281	0.471133
C307	C	-0.185483	0.268734	0.451793
C308	C	-0.224243	0.271886	0.471236
C309	C	-0.167664	0.267282	0.414515
C310	C	-0.131919	0.264374	0.396581
C311	C	-0.113984	0.262925	0.415925
C312	C	0.152952	0.264325	0.168451
C313	C	0.173792	0.267221	0.129798
C314	C	0.155907	0.268673	0.110407
C315	C	0.178502	0.271814	0.068498
C316	C	0.117186	0.267232	0.129669
C317	C	0.096350	0.264339	0.168320
C318	C	0.114234	0.262881	0.187709
C319	C	0.091638	0.259769	0.396240
C320	C	0.073627	0.257260	0.380845
C321	C	0.073626	0.257242	0.263024
C322	C	0.091636	0.259743	0.229619
C323	C	-0.044324	0.257264	0.380973
C324	C	-0.075221	0.259775	0.396474
H325	H	0.100131	-0.026521	0.028807
H326	H	0.100368	-0.306171	0.308703
C327	C	0.172619	-0.243276	0.189539
H328	H	0.154738	-0.259225	0.215334
H329	H	0.173665	-0.220563	0.189047
H330	H	0.201678	-0.236842	0.177311
H331	H	-0.002512	0.253428	0.411332
C332	C	0.215916	0.173788	-0.511749
H333	H	0.223675	0.156779	-0.520787
H334	H	0.239182	0.194735	-0.511739
H335	H	0.211170	0.183001	-0.528017
H336	H	0.205048	-0.216515	0.398819
C337	C	0.219031	-0.229760	-0.108679
H338	H	0.209181	-0.237671	-0.082882
H339	H	0.224823	-0.246591	-0.120906
H340	H	0.196809	-0.230313	-0.109171
H341	H	0.617485	0.168277	-0.501573
C342	C	0.262787	-0.192095	-0.189846
H343	H	0.236738	-0.216862	-0.172837
H344	H	0.283743	-0.194415	-0.210794
H345	H	0.255734	-0.178132	-0.199057
C346	C	0.097509	0.268828	0.108343
H347	H	0.071466	0.267558	0.125350
H348	H	0.090453	0.247814	0.099133
H349	H	0.118469	0.292104	0.087394
H350	H	0.230346	-0.318966	-0.013835
H351	H	0.552845	0.098385	-0.366316
H352	H	0.617463	0.295940	-0.501068
C353	C	-0.007788	-0.414175	0.303354
H354	H	-0.033075	-0.439343	0.320055
H355	H	0.012991	-0.415476	0.281114
H356	H	-0.016343	-0.400405	0.296199
C357	C	0.053746	0.092645	0.019446
H358	H	0.043896	0.066848	0.021385
H359	H	0.059537	0.104870	-0.003176
H360	H	0.031523	0.093138	0.041116
H361	H	0.552607	0.301210	-0.468757
C362	C	0.216123	-0.205863	0.108371
H363	H	0.225879	-0.198037	0.082594
H364	H	0.238392	-0.205264	0.108812
H365	H	0.210374	-0.188990	0.120550
H366	H	0.370892	0.301275	-0.184323
C367	C	0.172615	-0.243272	0.355623
H368	H	0.198648	-0.218523	0.346672
H369	H	0.151707	-0.240905	0.355589
H370	H	0.179722	-0.257181	0.339308
H371	H	0.332799	-0.116397	-0.501067
H372	H	0.552629	0.098160	-0.469035
C373	C	0.172413	0.092624	-0.474340
H374	H	0.198447	0.109706	-0.499090
H375	H	0.151505	0.071682	-0.476707
H376	H	0.179518	0.083417	-0.460430
H377	H	0.205307	-0.115910	0.013801
C378	C	0.381670	-0.073204	-0.189584
H379	H	0.389342	-0.064257	-0.172504
H380	H	0.376979	-0.056885	-0.198797
H381	H	0.404976	-0.073179	-0.210525
H382	H	-0.182070	-0.115902	0.013781
H383	H	0.102110	-0.319446	0.114137
H384	H	0.102618	0.168275	0.013770
H385	H	0.617482	-0.318952	-0.013867
C386	C	-0.112105	-0.527996	0.474258
H387	H	-0.127903	-0.545079	0.499007
H388	H	-0.114436	-0.507053	0.476628
H389	H	-0.081882	-0.518790	0.460346
H390	H	0.064816	0.263199	0.468675
H391	H	0.167518	0.263140	0.184235
C392	C	-0.112077	0.262774	0.474475
H393	H	-0.088233	0.260839	0.458455
H394	H	-0.134194	0.241105	0.497185
H395	H	-0.101630	0.285394	0.480906
H396	H	0.064523	-0.351759	0.184259
H397	H	0.332793	-0.116391	-0.113952
H398	H	-0.732353	-0.533492	0.468971
H399	H	-0.117214	-0.083584	0.019042
C400	C	0.216386	0.268852	0.392506
H401	H	0.224056	0.267571	0.367755
H402	H	0.211689	0.247842	0.406416
H403	H	0.239696	0.292132	0.390136
H404	H	0.335043	-0.409068	-0.028878
H405	H	0.267943	-0.533739	-0.019121
C406	C	-0.737223	-0.362129	0.474235
H407	H	-0.763259	-0.371080	0.498983
H408	H	-0.716320	-0.362169	0.476605
H409	H	-0.744328	-0.378439	0.460322
C410	C	0.338458	-0.609135	-0.013462
H411	H	0.364488	-0.592054	-0.014739
H412	H	0.345563	-0.618346	-0.034474
H413	H	0.317548	-0.630076	0.009817
C414	C	0.262801	0.301667	-0.189609
H415	H	0.280682	0.303596	-0.215403
H416	H	0.261758	0.323336	-0.189119
H417	H	0.233741	0.279045	-0.177380
C418	C	0.053459	-0.362414	0.474516
H419	H	0.045694	-0.371450	0.499287
H420	H	0.058203	-0.378682	0.460557
H421	H	0.030193	-0.362401	0.476836
C422	C	-0.008009	0.253266	0.303324
H423	H	0.008573	0.253144	0.278157
H424	H	-0.008165	0.275347	0.302020
H425	H	-0.037492	0.230944	0.317094
H426	H	-0.002298	-0.408829	0.411365
H427	H	0.370892	-0.533512	-0.019136
H428	H	0.102623	0.268466	0.500992
H429	H	-0.629638	-0.533721	0.366252
H430	H	-0.002524	-0.026519	0.028802
C431	C	-0.187143	0.268883	0.512133
H432	H	-0.211004	0.270818	0.520044
H433	H	-0.164980	0.290551	0.512681
H434	H	-0.197543	0.246261	0.528969
C435	C	0.338441	-0.205596	-0.013441
H436	H	0.320554	-0.197685	-0.011500
H437	H	0.367498	-0.188765	-0.036064
H438	H	0.339487	-0.205043	0.008227
C439	C	0.547268	0.301655	-0.355174
H440	H	0.563002	0.300384	-0.346136
H441	H	0.517041	0.280645	-0.338904
H442	H	0.549602	0.324935	-0.355190
H443	H	-0.181841	-0.603391	0.398082
C444	C	0.622334	0.295551	-0.392575
H445	H	0.606531	0.296832	-0.367824
H446	H	0.652557	0.316560	-0.406483
H447	H	0.619992	0.272270	-0.390203
C448	C	0.172627	0.262750	0.355098
H449	H	0.198669	0.264019	0.346064
H450	H	0.179684	0.283760	0.338826
H451	H	0.151665	0.239470	0.355115
C452	C	0.443200	0.311134	-0.422269
H453	H	0.468482	0.311245	-0.430852
H454	H	0.451753	0.333452	-0.437984
H455	H	0.422418	0.289049	-0.423724
H456	H	0.167506	-0.083593	0.019063
C457	C	-0.187409	-0.229485	0.013352
H458	H	-0.211248	-0.237305	0.011412
H459	H	-0.197855	-0.246362	0.035969
H460	H	-0.165291	-0.230077	-0.008322
C461	C	-0.781220	-0.609114	0.512161
H462	H	-0.788891	-0.592032	0.521108
H463	H	-0.776524	-0.618324	0.528477
H464	H	-0.804529	-0.630055	0.512191
C465	C	-0.112075	-0.072944	-0.189876
H466	H	-0.088233	-0.065125	-0.215655
H467	H	-0.101631	-0.056068	-0.177702
H468	H	-0.134189	-0.072348	-0.189435
H469	H	-0.182272	0.268459	0.398770
H470	H	0.230362	0.296001	-0.113978
H471	H	0.230365	-0.603862	-0.013858
C472	C	0.262768	-0.192082	-0.355155
H473	H	0.280713	-0.176055	-0.347326
H474	H	0.261710	-0.214800	-0.354529
H475	H	0.233721	-0.198496	-0.338300
H476	H	-0.116983	-0.533275	0.365765
H477	H	0.437709	-0.409066	-0.028885
C478	C	-0.008009	-0.140042	-0.303432
H479	H	-0.033299	-0.148628	-0.278265
H480	H	0.012762	-0.141512	-0.302127
H481	H	-0.016561	-0.155748	-0.317207
C482	C	-0.112339	-0.192079	0.019450
H483	H	-0.128137	-0.216829	0.018166
H484	H	-0.114671	-0.194446	0.042725
H485	H	-0.082116	-0.178169	-0.001567
C486	C	-0.187180	-0.609161	0.511664
H487	H	-0.211020	-0.634940	0.519485
H488	H	-0.197624	-0.596987	0.528541
H489	H	-0.165064	-0.608719	0.512258
H490	H	0.102103	-0.319447	0.501532
H491	H	0.167543	-0.083608	-0.469060
H492	H	-0.382532	-0.318952	0.113884
C493	C	0.443191	-0.295569	-0.029017
H494	H	0.468475	-0.286984	-0.029131
H495	H	0.422404	-0.294120	-0.006932
H496	H	0.451747	-0.279849	-0.051336
H497	H	0.064802	-0.186523	0.019045
H498	H	-0.117415	0.263190	0.366230
H499	H	0.100165	-0.026535	-0.411435
C500	C	0.053756	0.262750	0.189506
H501	H	0.046086	0.264025	0.172424
H502	H	0.058456	0.283764	0.198713
H503	H	0.030445	0.239474	0.210450
H504	H	0.370885	0.301223	-0.469054
C505	C	-0.007998	-0.021186	-0.303430
H506	H	0.008586	0.003983	-0.320131
H507	H	-0.008157	-0.019885	-0.281191
H508	H	-0.037480	-0.034952	-0.296271
C509	C	-0.556803	-0.295546	0.303331
H510	H	-0.573386	-0.286958	0.320032
H511	H	-0.556640	-0.294083	0.281091
H512	H	-0.527322	-0.279836	0.296176
C513	C	0.110840	0.253265	0.303328
H514	H	0.119309	0.253151	0.320029
H515	H	0.134378	0.275344	0.281089
H516	H	0.104231	0.230941	0.296172
C517	C	0.338450	0.295540	-0.512243
H518	H	0.364478	0.296815	-0.521190
H519	H	0.345556	0.316549	-0.528562
H520	H	0.317537	0.272259	-0.512270
C521	C	0.262805	0.301650	-0.355692
H522	H	0.280690	0.303590	-0.347780
H523	H	0.233745	0.279033	-0.338856
H524	H	0.261766	0.323323	-0.355146
H525	H	0.333309	0.296016	-0.114204
H526	H	0.335269	-0.128941	-0.308748
H527	H	0.335046	0.310999	-0.308768
C528	C	-0.187153	-0.110349	-0.108708
H529	H	-0.171355	-0.085601	-0.125793
H530	H	-0.184822	-0.107978	-0.087766
H531	H	-0.217377	-0.124260	-0.099501
C532	C	0.262793	-0.362152	-0.019526
H533	H	0.236765	-0.371100	-0.018250
H534	H	0.255689	-0.378471	0.001482
H535	H	0.283708	-0.362178	-0.042808
H536	H	0.102606	-0.218843	0.013783
H537	H	-0.117412	-0.186525	-0.184100
C538	C	-0.662337	-0.609382	0.393270
H539	H	-0.680296	-0.635160	0.409290
H540	H	-0.633288	-0.597208	0.386838
H541	H	-0.661299	-0.608940	0.370559
C542	C	0.172621	0.092383	0.019469
H543	H	0.198664	0.109389	0.018198
H544	H	0.179676	0.083167	-0.001542
H545	H	0.151659	0.071437	0.042749
C546	C	0.216381	0.173549	0.013372
H547	H	0.224051	0.156467	0.014651
H548	H	0.211684	0.182761	0.034384
H549	H	0.239692	0.194489	-0.009907
C550	C	0.443437	-0.020939	-0.303405
H551	H	0.426856	-0.037640	-0.278237
H552	H	0.443598	0.001301	-0.302102
H553	H	0.472919	-0.013783	-0.317177
C554	C	0.219302	0.295549	-0.393359
H555	H	0.209542	0.293608	-0.409378
H556	H	0.225046	0.318168	-0.386930
H557	H	0.197032	0.273878	-0.370646
C558	C	0.622824	0.174045	-0.393330
H559	H	0.646665	0.199824	-0.409349
H560	H	0.633268	0.161871	-0.386899
H561	H	0.600708	0.173603	-0.370619
H562	H	0.205322	0.268398	0.114116
C563	C	-0.452488	-0.362140	0.189514
H564	H	-0.436683	-0.371089	0.172433
H565	H	-0.482709	-0.378454	0.198724
H566	H	-0.450151	-0.362170	0.210456
C567	C	-0.008026	-0.140026	0.028956
H568	H	0.008556	-0.148613	0.029075
H569	H	-0.008184	-0.141487	0.006875
H570	H	-0.037508	-0.155737	0.051279
H571	H	0.370881	-0.248784	-0.019122
H572	H	0.064321	0.097912	-0.365848
H573	H	0.437935	-0.026287	-0.411409
H574	H	0.205343	-0.115928	-0.501596
C575	C	0.219030	-0.229760	-0.392575
H576	H	0.211359	-0.238707	-0.367823
H577	H	0.223724	-0.246076	-0.406482
H578	H	0.195721	-0.229788	-0.390206
H579	H	0.370607	-0.083853	-0.468752
C580	C	0.096760	0.173535	-0.392609
H581	H	0.070730	0.156456	-0.367857
H582	H	0.089656	0.182747	-0.406516
H583	H	0.117671	0.194476	-0.390241
H584	H	0.552400	-0.248780	-0.019131
H585	H	0.617258	-0.216240	-0.013873
H586	H	0.102633	-0.218858	-0.398880
C587	C	0.547526	-0.362149	-0.019539
H588	H	0.563325	-0.371100	-0.018255
H589	H	0.549856	-0.362187	-0.042813
H590	H	0.517303	-0.378461	0.001479
H591	H	0.437704	0.310998	-0.308766
H592	H	0.064825	-0.186540	-0.366338
H593	H	-0.182279	-0.218843	-0.113977
C594	C	-0.556832	-0.414412	0.303325
H595	H	-0.531550	-0.397715	0.278152
H596	H	-0.577629	-0.436642	0.302032
H597	H	-0.548273	-0.421584	0.317079
H598	H	-0.664969	-0.409045	0.411340
C599	C	-0.377651	-0.205581	0.108608
H600	H	-0.393448	-0.196629	0.125691
H601	H	-0.379981	-0.205543	0.087664
H602	H	-0.347428	-0.189272	0.099402
H603	H	-0.447603	-0.248768	0.184232
C604	C	-0.618057	-0.243236	0.355093
H605	H	-0.610292	-0.218465	0.346056
H606	H	-0.622799	-0.257194	0.338824
H607	H	-0.594792	-0.240918	0.355107
C608	C	-0.661561	-0.205570	0.392498
H609	H	-0.635531	-0.196624	0.367746
H610	H	-0.654457	-0.189254	0.406405
H611	H	-0.682471	-0.205541	0.390129
H612	H	-0.769653	-0.318930	0.500992
