data_functionalizedCrystal
_audit_creation_method	'MofGen! by Chris Wilmer'
_symmetry_space_group_name_H-M	'P1'
_symmetry_Int_Tables_number	1
_symmetry_cell_setting	triclinic
loop_
_symmetry_equiv_pos_as_xyz
  x,y,z
_cell_length_a	15.298563
_cell_length_b	15.298530
_cell_length_c	15.296720
_cell_angle_alpha	91.639580
_cell_angle_beta	107.324865
_cell_angle_gamma	69.203382
loop_
_atom_site_label
_atom_site_type_symbol
_atom_site_fract_x
_atom_site_fract_y
_atom_site_fract_z
Zn1	Zn	-1.304539	-0.177088	0.254105
Zn2	Zn	-1.313791	-0.296411	0.081021
Zn3	Zn	-1.175947	-0.177144	0.125472
Zn4	Zn	-1.122149	-0.359497	0.254016
O5	O	-1.229107	-0.252535	0.178654
O6	O	-1.439785	-0.166491	0.212580
O7	O	-1.321893	-0.254211	-0.039315
O8	O	-1.211648	-0.050884	0.161176
O9	O	-1.446583	-0.254157	0.085415
O10	O	-1.306123	-0.050843	0.255682
O11	O	-1.220620	-0.166586	-0.006656
O12	O	-1.034792	-0.227758	0.161090
O13	O	-1.119957	-0.361679	0.380260
O14	O	-0.995267	-0.361733	0.255530
O15	O	-1.253957	-0.227664	0.380325
O16	O	-1.269727	-0.431032	0.085329
O17	O	-1.128928	-0.477381	0.212427
C18	C	-0.980280	-0.301598	0.213124
C19	C	-0.873823	-0.322614	0.227889
C20	C	-0.803265	-0.402308	0.283889
C21	C	-0.703242	-0.422051	0.297771
C22	C	-0.673767	-0.362105	0.255647
C23	C	-0.744326	-0.282413	0.199640
C24	C	-0.844359	-0.262664	0.185763
C25	C	-0.714861	-0.222461	0.157521
C26	C	-0.785420	-0.142769	0.101514
C27	C	-0.885442	-0.123024	0.087639
C28	C	-0.914917	-0.182970	0.129763
C29	C	-0.614829	-0.242209	0.171398
C30	C	-0.655923	-0.102565	0.073272
C31	C	-0.755946	-0.082823	0.059391
C32	C	-1.194516	-0.486941	0.144061
C33	C	-1.179799	-0.587210	0.129279
C34	C	-1.263855	-0.017212	0.213398
C35	C	-1.278662	0.083068	0.228204
C36	C	-0.478908	-0.203273	0.144042
C37	C	-0.585365	-0.182260	0.129273
C38	C	-1.179924	-0.301702	0.413938
C39	C	-1.158965	-0.322654	0.514203
C40	C	-1.123655	0.365660	0.073116
C41	C	-1.109746	0.271443	0.059198
C42	C	-1.151974	0.224345	0.101449
C43	C	-1.208113	0.271473	0.157619
C44	C	-1.222029	0.365701	0.171532
C45	C	-1.250348	0.224385	0.199865
C46	C	-1.306487	0.271513	0.256034
C47	C	-1.320401	0.365732	0.269946
C48	C	-1.278173	0.412830	0.227695
C49	C	-1.236432	0.130157	0.185951
C50	C	-1.334806	0.130198	0.284367
C51	C	-1.348715	0.224415	0.298285
C52	C	-1.278163	-0.203483	-0.055714
C53	C	-1.299345	-0.182240	-0.155966
C54	C	-1.378961	-0.102622	0.796966
C55	C	-1.398659	-0.082937	0.702762
C56	C	-1.338737	-0.142864	0.655618
C57	C	-1.259114	-0.222481	0.702687
C58	C	-1.239419	-0.242172	0.796899
C59	C	-1.199195	-0.282414	0.655550
C60	C	-1.119572	-0.362031	0.702619
C61	C	-1.099881	-0.381718	0.796822
C62	C	-1.159803	-0.321790	0.843967
C63	C	-1.218890	-0.262723	0.561338
C64	C	-1.079348	-0.402273	0.561270
C65	C	-1.059651	-0.421958	0.655475
H66	H	-0.827273	-0.451104	0.318185
O67	O	-0.576574	-0.381310	0.269293
C68	C	-0.528500	-0.382915	0.363814
H69	H	-0.573014	-0.397880	0.405464
H70	H	-0.452242	-0.440177	0.383055
H71	H	-0.521368	-0.311987	0.379356
O72	O	-1.022501	-0.458969	0.842673
C73	C	-0.956825	-0.431196	0.913313
H74	H	-0.997742	-0.359109	0.932839
H75	H	-0.924732	-0.484318	0.975911
H76	H	-0.894894	-0.427703	0.888312
O77	O	-1.476009	-0.005540	0.657191
C78	C	-1.524688	0.043120	0.718994
H79	H	-1.471884	0.024477	0.792044
H80	H	-1.551094	0.121907	0.700855
H81	H	-1.590449	0.022326	0.714060
O82	O	-1.082760	0.411413	0.031931
C83	C	-1.119063	0.411284	-0.064273
H84	H	-1.192698	0.401418	-0.083253
H85	H	-1.129280	0.480937	-0.098545
H86	H	-1.064568	0.351398	-0.088814
H87	H	-1.354780	-0.126831	0.578912
O88	O	-1.291510	0.504321	0.241239
C89	C	-1.199528	0.512854	0.281789
H90	H	-1.139569	0.450897	0.266004
H91	H	-1.200315	0.581034	0.252765
H92	H	-1.184322	0.513533	0.359386
O93	O	-0.982247	-0.499317	0.701070
C94	C	-0.933592	-0.548008	0.639262
H95	H	-0.949767	-0.497677	0.578022
H96	H	-0.851025	-0.578197	0.675518
H97	H	-0.960638	-0.607521	0.614269
O98	O	-1.437042	-0.044496	0.842908
C99	C	-1.402602	-0.078967	0.936143
H100	H	-1.321638	-0.125770	0.954882
H101	H	-1.411598	-0.017595	0.981032
H102	H	-1.446719	-0.121408	0.947906
H103	H	-1.030556	-0.451072	0.522885
H104	H	-1.143769	-0.337814	0.920676
H105	H	-0.557389	-0.307095	0.217001
O106	O	-1.012124	-0.163675	0.116148
C107	C	-1.068082	-0.080467	0.057709
H108	H	-1.023312	-0.068116	0.014906
H109	H	-1.138147	-0.087268	0.010138
H110	H	-1.088038	-0.018733	0.100825
O111	O	-1.375073	0.411604	0.324366
C112	C	-1.455701	0.489048	0.272493
H113	H	-1.472279	0.476665	0.196435
H114	H	-1.522740	0.497833	0.295071
H115	H	-1.437283	0.555268	0.284028
O116	O	-1.375665	0.084369	0.325525
C117	C	-1.300909	0.006928	0.383274
H118	H	-1.228512	0.019291	0.403488
H119	H	-1.320876	-0.001823	0.447739
H120	H	-1.292892	-0.059303	0.345296
O121	O	-0.634836	-0.499526	0.352157
C122	C	-0.682295	-0.548193	0.386373
H123	H	-0.760863	-0.529455	0.339081
H124	H	-0.640931	-0.626981	0.389382
H125	H	-0.683468	-0.527497	0.458324
O126	O	-1.296118	-0.185343	0.515552
C127	C	-1.261584	-0.126420	0.477243
H128	H	-1.187261	-0.169601	0.468477
H129	H	-1.316230	-0.092781	0.407382
H130	H	-1.253335	-0.069231	0.524889
O131	O	-1.403114	0.270115	0.352981
C132	C	-1.359999	0.224163	0.442381
H133	H	-1.278716	0.182219	0.453705
H134	H	-1.368074	0.278443	0.494953
H135	H	-1.398344	0.174673	0.450779
O136	O	-0.953952	-0.045684	0.033105
C137	C	-0.945385	-0.051281	-0.056324
H138	H	-0.908241	-0.127798	-0.067824
H139	H	-1.021624	-0.021141	-0.108842
H140	H	-0.899365	-0.009429	-0.064620
O141	O	-0.824462	-0.005489	0.004852
C142	C	-0.815896	-0.011090	-0.084576
H143	H	-0.778739	-0.087607	-0.096068
H144	H	-0.892136	0.019036	-0.137094
H145	H	-0.769888	0.030772	-0.092880
O146	O	-0.627139	-0.044462	0.032366
C147	C	-0.523723	-0.078976	0.056629
H148	H	-0.493650	-0.157487	0.077688
H149	H	-0.500734	-0.066166	-0.004745
H150	H	-0.493159	-0.041185	0.116562
H151	H	-1.190722	0.091795	0.140218
H152	H	-1.140645	0.147629	0.090114
H153	H	-1.064040	0.233079	0.013463
