data_functionalizedCrystal
_audit_creation_method	'MofGen! by Chris Wilmer'
_symmetry_space_group_name_H-M	'P1'
_symmetry_Int_Tables_number	1
_symmetry_cell_setting	triclinic
loop_
_symmetry_equiv_pos_as_xyz
  x,y,z
_cell_length_a	16.625548
_cell_length_b	13.032721
_cell_length_c	13.032268
_cell_angle_alpha	103.289627
_cell_angle_beta	82.837807
_cell_angle_gamma	82.794397
loop_
_atom_site_label
_atom_site_type_symbol
_atom_site_fract_x
_atom_site_fract_y
_atom_site_fract_z
Zn1	Zn	1.119641	0.499057	0.654215
Zn2	Zn	1.119553	0.654142	0.499163
Zn3	Zn	1.004420	0.476555	0.476634
Zn4	Zn	0.965173	0.676619	0.676703
O5	O	1.052197	0.576593	0.576679
O6	O	1.232459	0.519640	0.633665
O7	O	1.120669	0.611760	0.347555
O8	O	1.036166	0.330909	0.481350
O9	O	1.232395	0.633580	0.519749
O10	O	1.120819	0.347442	0.611819
O11	O	1.036081	0.481288	0.331002
O12	O	0.886384	0.503083	0.503156
O13	O	0.969275	0.671889	0.822340
O14	O	0.857549	0.650069	0.650146
O15	O	1.082763	0.541436	0.805818
O16	O	1.082613	0.805754	0.541554
O17	O	0.969190	0.822268	0.671992
C18	C	1.021652	0.852553	0.611681
C19	C	1.008655	0.970614	0.626691
C20	C	0.842711	0.576574	0.576647
C21	C	0.753086	0.576595	0.576662
C22	C	1.021651	0.611680	0.853692
C23	C	1.008634	0.626632	0.971738
C24	C	0.424905	0.576608	0.576708
C25	C	0.516216	0.576601	0.576692
C26	C	0.588993	0.576602	0.576684
C27	C	0.680309	0.576594	0.576669
C28	C	1.262501	0.576613	0.576711
C29	C	1.352119	0.576622	0.576725
C30	C	1.082880	0.299559	0.541563
C31	C	1.095956	0.181504	0.526599
C32	C	1.059018	1.015050	0.568893
C33	C	1.045586	1.137072	0.584405
C34	C	1.082679	0.541567	0.300734
C35	C	1.095885	0.526316	0.182650
C36	C	1.058982	0.568752	1.016192
C37	C	1.045530	0.584204	1.138199
H38	H	0.992523	1.189362	0.645380
O39	O	1.159361	1.119194	0.453978
C40	C	1.234194	1.149093	0.480669
H41	H	1.225520	1.190367	0.569372
H42	H	1.283023	1.074900	0.462349
H43	H	1.254552	1.206186	0.431870
H44	H	1.112083	0.962760	0.507929
O45	O	0.945266	0.699412	1.033922
C46	C	0.901077	0.750249	0.968903
H47	H	0.911763	0.696800	0.884296
H48	H	0.832778	0.765616	1.002459
H49	H	0.922958	0.829440	0.967377
H50	H	0.955596	1.022907	0.687662
O51	O	1.122197	0.495922	0.953724
C52	C	1.090916	0.419232	0.880880
H53	H	1.027469	0.454606	0.869115
H54	H	1.133878	0.395193	0.801040
H55	H	1.086108	0.345885	0.913578
H56	H	0.992458	0.645194	1.190462
O57	O	1.159096	0.453461	1.120196
C58	C	1.127800	0.376773	1.047369
H59	H	1.064362	0.412164	1.035592
H60	H	1.170765	0.352699	0.967531
H61	H	1.122969	0.303444	1.080091
