data_functionalizedCrystal
_audit_creation_method	'MofGen! by Chris Wilmer'
_symmetry_space_group_name_H-M	'P1'
_symmetry_Int_Tables_number	1
_symmetry_cell_setting	triclinic
loop_
_symmetry_equiv_pos_as_xyz
  x,y,z
_cell_length_a	19.188930
_cell_length_b	10.654545
_cell_length_c	9.130313
_cell_angle_alpha	89.996934
_cell_angle_beta	89.990369
_cell_angle_gamma	83.813930
loop_
_atom_site_label
_atom_site_type_symbol
_atom_site_fract_x
_atom_site_fract_y
_atom_site_fract_z
O1	O	0.098047	1.665768	-0.121803
O2	O	0.107393	1.300091	-0.121811
O3	O	0.001133	1.493482	-0.121778
O4	O	0.204307	1.472377	-0.121836
O5	O	0.001130	1.493469	0.121821
O6	O	0.107390	1.300078	0.121788
O7	O	0.098044	1.665755	0.121796
Cu8	Cu	0.102716	1.482915	0.144034
Cu9	Cu	0.102720	1.482931	-0.144050
O10	O	0.204303	1.472364	0.121763
C11	C	0.106706	1.253301	-0.000012
C12	C	0.104655	1.113901	-0.000014
C13	C	0.103687	1.048410	0.132773
C14	C	0.101749	0.917431	0.132773
C15	C	0.101747	0.917446	-0.132811
C16	C	0.103681	1.048423	-0.132810
C17	C	-0.024884	1.492792	0.000025
C18	C	-0.102402	1.490741	0.000038
C19	C	-0.146585	1.604216	0.000047
C20	C	-0.219421	1.602289	0.000024
C21	C	-0.248071	1.486879	0.000020
C22	C	-0.203879	1.373389	0.000003
C23	C	-0.131044	1.375319	0.000011
N24	N	-0.356654	1.398658	0.082920
N25	N	-0.425844	1.396831	0.082914
C26	C	-0.467518	1.481055	-0.000009
N27	N	-0.437389	1.567193	-0.082910
N28	N	-0.368192	1.569023	-0.082898
C29	C	-0.327048	1.484773	0.000010
C30	C	-0.590679	1.592448	-0.000028
C31	C	-0.663516	1.590516	-0.000060
C32	C	-0.647972	1.361613	-0.000067
C33	C	-0.575137	1.363548	-0.000049
C34	C	-0.546494	1.478970	-0.000022
C35	C	0.230320	1.473054	-0.000044
C36	C	0.307838	1.475105	-0.000066
C37	C	0.098731	1.712545	-0.000006
C38	C	0.100782	1.851945	-0.000014
N39	N	0.102713	1.482913	0.346657
N40	N	0.102718	1.482943	-0.346672
C41	C	0.055682	1.568576	0.423323
C42	C	0.055682	1.568588	0.576660
C43	C	0.149752	1.397271	0.576651
C44	C	0.149748	1.397254	0.423317
H45	H	0.100955	0.864118	-0.240929
C46	C	-0.235077	1.248176	-0.000228
C47	C	-0.276442	1.240406	-0.125537
C48	C	-0.305199	1.125083	-0.125797
H49	H	-0.198402	1.180759	-0.000307
H50	H	-0.263214	1.242648	0.084675
H51	H	-0.248307	1.245922	-0.210418
H52	H	-0.313128	1.307797	-0.125484
H53	H	-0.333336	1.119554	-0.040894
H54	H	-0.268520	1.057674	-0.125873
H55	H	-0.333273	1.119801	-0.210810
H56	H	0.188047	1.327492	0.360891
C57	C	0.004589	1.661737	0.659633
C58	C	-0.036588	1.736765	0.559672
C59	C	-0.083659	1.822601	0.636052
H60	H	-0.024775	1.616886	0.719475
H61	H	0.029960	1.713942	0.719396
H62	H	-0.061957	1.684567	0.499934
H63	H	-0.007243	1.781644	0.499827
H64	H	-0.058288	1.874805	0.695815
H65	H	-0.113018	1.777739	0.695891
H66	H	-0.111598	1.873525	0.568241
H67	H	-0.255402	1.694697	0.000026
H68	H	0.188047	1.327531	0.639082
C69	C	-0.083152	1.252014	-0.000217
C70	C	-0.096177	1.182490	-0.125532
C71	C	-0.052078	1.068887	-0.125779
H72	H	-0.035649	1.269514	-0.000281
H73	H	-0.091917	1.204598	0.084683
H74	H	-0.087406	1.229897	-0.210409
H75	H	-0.143671	1.164957	-0.125495
H76	H	-0.060842	1.021471	-0.040879
H77	H	-0.004577	1.086400	-0.125838
H78	H	-0.060913	1.021697	-0.210796
C79	C	0.104696	1.119285	0.277100
C80	C	0.103414	1.033895	0.393388
C81	C	0.104330	1.099138	0.526366
H82	H	0.146081	1.160582	0.282823
H83	H	0.064791	1.180161	0.282709
H84	H	0.143315	0.973042	0.387781
H85	H	0.062032	0.992595	0.387713
H86	H	0.064425	1.160014	0.531975
H87	H	0.145715	1.140433	0.532074
H88	H	0.103453	1.041213	0.605283
H89	H	0.017383	1.638323	0.360910
H90	H	-0.567357	1.686431	-0.000013
C91	C	-0.711373	1.713862	0.000024
C92	C	-0.670696	1.815348	0.000090
C93	C	-0.714758	1.928994	0.000188
H94	H	-0.740114	1.718059	-0.084907
H95	H	-0.740109	1.717922	0.085001
H96	H	-0.641972	1.811290	-0.084879
H97	H	-0.641957	1.811192	0.085014
H98	H	-0.743494	1.933054	0.085165
H99	H	-0.743496	1.933179	-0.084744
H100	H	-0.687165	1.997866	0.000246
H101	H	0.104467	1.101748	-0.240948
C102	C	-0.679204	1.236436	-0.000005
C103	C	-0.752447	1.259029	0.000018
C104	C	-0.781244	1.143744	0.000085
H105	H	-0.664141	1.189640	-0.084932
H106	H	-0.664125	1.189708	0.084976
H107	H	-0.767520	1.305737	-0.084955
H108	H	-0.767529	1.305806	0.084938
H109	H	-0.766165	1.097016	0.085066
H110	H	-0.766176	1.096957	-0.084843
H111	H	-0.830942	1.159058	0.000114
C112	C	0.100804	0.846136	0.276834
C113	C	0.159640	0.756445	0.284557
C114	C	0.158785	0.690733	0.417239
H115	H	0.101693	0.903739	0.356043
H116	H	0.059425	0.804777	0.282376
H117	H	0.201009	0.797802	0.279029
H118	H	0.158764	0.698815	0.205379
H119	H	0.117406	0.649373	0.422782
H120	H	0.159672	0.748346	0.496438
H121	H	0.198701	0.629862	0.422491
C122	C	-0.527078	1.240440	0.000185
C123	C	-0.484810	1.234870	0.125497
C124	C	-0.440522	1.121484	0.125746
H125	H	-0.554482	1.171322	0.000255
H126	H	-0.498292	1.236433	-0.084716
H127	H	-0.513592	1.238864	0.210376
H128	H	-0.457391	1.303961	0.125454
H129	H	-0.411737	1.117478	0.040844
H130	H	-0.467932	1.052376	0.125811
H131	H	-0.411834	1.117696	0.210760
H132	H	-0.123269	1.698201	0.000064
