data_functionalizedCrystal
_audit_creation_method	'MofGen! by Chris Wilmer'
_symmetry_space_group_name_H-M	'P1'
_symmetry_Int_Tables_number	1
_symmetry_cell_setting	triclinic
loop_
_symmetry_equiv_pos_as_xyz
  x,y,z
_cell_length_a	18.050591
_cell_length_b	19.805405
_cell_length_c	19.805399
_cell_angle_alpha	90.030709
_cell_angle_beta	89.978048
_cell_angle_gamma	89.977584
loop_
_atom_site_label
_atom_site_type_symbol
_atom_site_fract_x
_atom_site_fract_y
_atom_site_fract_z
Zn1	Zn	1.135309	0.269542	-0.382803
Zn2	Zn	1.385309	0.519542	-0.132803
Zn3	Zn	1.635309	0.769542	0.117197
Zn4	Zn	1.885309	1.019542	0.367197
Zn5	Zn	1.135222	0.382733	-0.269611
Zn6	Zn	1.385222	0.632733	-0.019611
Zn7	Zn	1.635222	0.882733	0.230389
Zn8	Zn	1.885222	1.132733	0.480389
Zn9	Zn	1.011126	0.269555	-0.269618
Zn10	Zn	1.261126	0.519555	-0.019618
Zn11	Zn	1.511126	0.769555	0.230382
Zn12	Zn	1.761126	1.019555	0.480382
Zn13	Zn	1.011081	0.382686	-0.382748
Zn14	Zn	1.261081	0.632686	-0.132748
Zn15	Zn	1.511081	0.882686	0.117252
Zn16	Zn	1.761081	1.132686	0.367252
O17	O	1.073185	0.326129	-0.326195
O18	O	1.323185	0.576129	-0.076195
O19	O	1.573185	0.826129	0.173805
O20	O	1.823185	1.076129	0.423805
O21	O	1.239222	0.284570	-0.367808
O22	O	1.489222	0.534570	-0.117808
O23	O	1.739222	0.784570	0.132192
O24	O	1.989222	1.034570	0.382192
O25	O	1.118743	0.367745	-0.174896
O26	O	1.368743	0.617745	0.075104
O27	O	1.618743	0.867745	0.325104
O28	O	1.868743	1.117745	0.575104
O29	O	1.027655	0.174837	-0.284657
O30	O	1.277655	0.424837	-0.034657
O31	O	1.527655	0.674837	0.215343
O32	O	1.777655	0.924837	0.465343
O33	O	1.239158	0.367731	-0.284647
O34	O	1.489158	0.617731	-0.034647
O35	O	1.739158	0.867731	0.215353
O36	O	1.989158	1.117731	0.465353
O37	O	1.118892	0.174827	-0.367814
O38	O	1.368892	0.424827	-0.117814
O39	O	1.618892	0.674827	0.132186
O40	O	1.868892	0.924827	0.382186
O41	O	1.027570	0.284594	-0.174900
O42	O	1.277570	0.534594	0.075100
O43	O	1.527570	0.784594	0.325100
O44	O	1.777570	1.034594	0.575100
O45	O	0.907196	0.284548	-0.284604
O46	O	1.157196	0.534548	-0.034604
O47	O	1.407196	0.784548	0.215396
O48	O	1.657196	1.034548	0.465396
O49	O	1.027577	0.367652	-0.477472
O50	O	1.277577	0.617652	-0.227472
O51	O	1.527577	0.867652	0.022528
O52	O	1.777577	1.117652	0.272528
O53	O	0.907162	0.367665	-0.367721
O54	O	1.157162	0.617665	-0.117721
O55	O	1.407162	0.867665	0.132279
O56	O	1.657162	1.117665	0.382279
O57	O	1.118848	0.284525	-0.477512
O58	O	1.368848	0.534525	-0.227512
O59	O	1.618848	0.784525	0.022488
O60	O	1.868848	1.034525	0.272488
O61	O	1.118698	0.477443	-0.284594
O62	O	1.368698	0.727443	-0.034594
O63	O	1.618698	0.977443	0.215406
O64	O	1.868698	1.227443	0.465406
O65	O	1.027492	0.477409	-0.367715
O66	O	1.277492	0.727409	-0.117715
O67	O	1.527492	0.977409	0.132285
O68	O	1.777492	1.227409	0.382285
C69	C	1.073101	0.501985	-0.326162
C70	C	1.323101	0.751985	-0.076162
C71	C	1.573101	1.001985	0.173838
C72	C	1.823101	1.251985	0.423838
C73	C	1.073133	0.577217	-0.326171
C74	C	1.323133	0.827217	-0.076171
C75	C	1.573133	1.077217	0.173829
C76	C	1.823133	1.327217	0.423829
C77	C	0.880232	0.326104	-0.326158
C78	C	1.130232	0.576104	-0.076158
C79	C	1.380232	0.826104	0.173842
C80	C	1.630232	1.076104	0.423842
C81	C	0.797687	0.326109	-0.326158
C82	C	1.047687	0.576109	-0.076158
C83	C	1.297687	0.826109	0.173842
C84	C	1.547687	1.076109	0.423842
C85	C	1.073217	0.326082	-0.502738
C86	C	1.323217	0.576082	-0.252738
C87	C	1.573217	0.826082	-0.002738
C88	C	1.823217	1.076082	0.247262
C89	C	1.073231	0.326062	-0.577970
C90	C	1.323231	0.576062	-0.327970
C91	C	1.573231	0.826062	-0.077970
C92	C	1.823231	1.076062	0.172030
C93	C	0.598233	0.280858	-0.281063
C94	C	0.848233	0.530858	-0.031063
C95	C	1.098233	0.780858	0.218937
C96	C	1.348233	1.030858	0.468937
C97	C	0.548815	0.342594	-0.264403
C98	C	0.798815	0.592594	-0.014403
C99	C	1.048815	0.842594	0.235597
C100	C	1.298815	1.092594	0.485597
C101	C	0.646556	0.326130	-0.326188
C102	C	0.896556	0.576130	-0.076188
C103	C	1.146556	0.826130	0.173812
C104	C	1.396556	1.076130	0.423812
C105	C	0.548892	0.264415	-0.342846
C106	C	0.798892	0.514415	-0.092846
C107	C	1.048892	0.764415	0.157154
C108	C	1.298892	1.014415	0.407154
C109	C	0.500571	0.326144	-0.326216
C110	C	0.750571	0.576144	-0.076216
C111	C	1.000571	0.826144	0.173784
C112	C	1.250571	1.076144	0.423784
C113	C	0.598226	0.387898	-0.309496
C114	C	0.848226	0.637898	-0.059496
C115	C	1.098226	0.887898	0.190504
C116	C	1.348226	1.137898	0.440504
C117	C	0.598308	0.309678	-0.387968
C118	C	0.848308	0.559678	-0.137968
C119	C	1.098308	0.809678	0.112032
C120	C	1.348308	1.059678	0.362032
C121	C	0.548912	0.371456	-0.371332
C122	C	0.798912	0.621456	-0.121332
C123	C	1.048912	0.871456	0.128668
C124	C	1.298912	1.121456	0.378668
C125	C	0.730655	0.326121	-0.326170
C126	C	0.980655	0.576121	-0.076170
C127	C	1.230655	0.826121	0.173830
C128	C	1.480655	1.076121	0.423830
C129	C	0.416475	0.326160	-0.326235
C130	C	0.666475	0.576160	-0.076235
C131	C	0.916475	0.826160	0.173765
C132	C	1.166475	1.076160	0.423765
C133	C	1.266890	0.326155	-0.326233
C134	C	1.516890	0.576155	-0.076233
C135	C	1.766890	0.826155	0.173767
C136	C	2.016890	1.076155	0.423767
C137	C	1.349436	0.326166	-0.326249
C138	C	1.599436	0.576166	-0.076249
C139	C	1.849436	0.826166	0.173751
C140	C	2.099436	1.076166	0.423751
C141	C	1.073289	0.149586	-0.326243
C142	C	1.323289	0.399586	-0.076243
C143	C	1.573289	0.649586	0.173757
C144	C	1.823289	0.899586	0.423757
C145	C	1.073333	0.074354	-0.326263
C146	C	1.323333	0.324354	-0.076263
C147	C	1.573333	0.574354	0.173737
C148	C	1.823333	0.824354	0.423737
C149	C	1.120670	0.612556	-0.282935
C150	C	1.370670	0.862556	-0.032935
C151	C	1.620670	1.112556	0.217065
C152	C	1.870670	1.362556	0.467065
C153	C	1.120702	0.683245	-0.282950
C154	C	1.370702	0.933245	-0.032950
C155	C	1.620702	1.183245	0.217050
C156	C	1.870702	1.433245	0.467050
C157	C	1.073192	0.718592	-0.326198
C158	C	1.323192	0.968592	-0.076198
C159	C	1.573192	1.218592	0.173802
C160	C	1.823192	1.468592	0.423802
C161	C	1.025653	0.683248	-0.369438
C162	C	1.275653	0.933248	-0.119438
C163	C	1.525653	1.183248	0.130562
C164	C	1.775653	1.433248	0.380562
C165	C	1.025626	0.612561	-0.369426
C166	C	1.275626	0.862561	-0.119426
C167	C	1.525626	1.112561	0.130574
C168	C	1.775626	1.362561	0.380574
C169	C	1.025762	0.968321	-0.369489
C170	C	1.275762	1.218321	-0.119489
C171	C	1.525762	1.468321	0.130511
C172	C	1.775762	1.718321	0.380511
C173	C	1.025792	1.039013	-0.369496
C174	C	1.275792	1.289013	-0.119496
C175	C	1.525792	1.539013	0.130504
C176	C	1.775792	1.789013	0.380504
C177	C	1.120839	1.039005	-0.283012
C178	C	1.370839	1.289005	-0.033012
C179	C	1.620839	1.539005	0.216988
C180	C	1.870839	1.789005	0.466988
C181	C	1.120811	0.968318	-0.283000
C182	C	1.370811	1.218318	-0.033000
C183	C	1.620811	1.468318	0.217000
C184	C	1.870811	1.718318	0.467000
C185	C	1.073275	0.932980	-0.326243
C186	C	1.323275	1.182980	-0.076243
C187	C	1.573275	1.432980	0.173757
C188	C	1.823275	1.682980	0.423757
C189	C	1.073243	0.856331	-0.326227
C190	C	1.323243	1.106331	-0.076227
C191	C	1.573243	1.356331	0.173773
C192	C	1.823243	1.606331	0.423773
C193	C	1.073220	0.795240	-0.326211
C194	C	1.323220	1.045240	-0.076211
C195	C	1.573220	1.295240	0.173789
C196	C	1.823220	1.545240	0.423789
C197	C	1.025771	0.282761	-0.613316
C198	C	1.275771	0.532761	-0.363316
C199	C	1.525771	0.782761	-0.113316
C200	C	1.775771	1.032761	0.136684
C201	C	1.025781	0.282748	-0.684004
C202	C	1.275781	0.532748	-0.434004
C203	C	1.525781	0.782748	-0.184004
C204	C	1.775781	1.032748	0.065996
C205	C	1.073256	0.326033	-0.719345
C206	C	1.323256	0.576033	-0.469345
C207	C	1.573256	0.826033	-0.219345
C208	C	1.823256	1.076033	0.030655
C209	C	1.120718	0.369338	-0.683995
C210	C	1.370718	0.619338	-0.433995
C211	C	1.620718	0.869338	-0.183995
C212	C	1.870718	1.119338	0.066005
C213	C	1.120703	0.369354	-0.613307
C214	C	1.370703	0.619354	-0.363307
C215	C	1.620703	0.869354	-0.113307
C216	C	1.870703	1.119354	0.136693
C217	C	1.120777	0.369275	-0.969068
C218	C	1.370777	0.619275	-0.719068
C219	C	1.620777	0.869275	-0.469068
C220	C	1.870777	1.119275	-0.219068
C221	C	1.120789	0.369254	-1.039760
C222	C	1.370789	0.619254	-0.789760
C223	C	1.620789	0.869254	-0.539760
C224	C	1.870789	1.119254	-0.289760
C225	C	1.025855	0.282668	-1.039765
C226	C	1.275855	0.532668	-0.789765
C227	C	1.525855	0.782668	-0.539765
C228	C	1.775855	1.032668	-0.289765
C229	C	1.025840	0.282685	-0.969078
C230	C	1.275840	0.532685	-0.719078
C231	C	1.525840	0.782685	-0.469078
C232	C	1.775840	1.032685	-0.219078
C233	C	1.073299	0.325992	-0.933733
C234	C	1.323299	0.575992	-0.683733
C235	C	1.573299	0.825992	-0.433733
C236	C	1.823299	1.075992	-0.183733
C237	C	1.073286	0.326007	-0.857085
C238	C	1.323286	0.576007	-0.607085
C239	C	1.573286	0.826007	-0.357085
C240	C	1.823286	1.076007	-0.107085
C241	C	1.073273	0.326015	-0.795993
C242	C	1.323273	0.576015	-0.545993
C243	C	1.573273	0.826015	-0.295993
C244	C	1.823273	1.076015	-0.045993
C245	C	1.073195	0.326127	-0.150339
C246	C	1.323195	0.576127	0.099661
C247	C	1.573195	0.826127	0.349661
C248	C	1.823195	1.076127	0.599661
C249	C	1.073325	0.325956	-0.075107
C250	C	1.323325	0.575956	0.174893
C251	C	1.573325	0.825956	0.424893
C252	C	1.823325	1.075956	0.674893
H253	H	0.619888	0.242614	-0.242861
H254	H	0.869888	0.492614	0.007139
H255	H	1.119888	0.742614	0.257139
H256	H	1.369888	0.992614	0.507139
Cl257	Cl	0.965930	0.727685	-0.423812
Cl258	Cl	1.215930	0.977685	-0.173812
Cl259	Cl	1.465930	1.227685	0.076188
Cl260	Cl	1.715930	1.477685	0.326188
Cl261	Cl	0.515250	0.364095	-0.183760
Cl262	Cl	0.765250	0.614095	0.066240
Cl263	Cl	1.015250	0.864095	0.316240
Cl264	Cl	1.265250	1.114095	0.566240
Cl265	Cl	0.631539	0.468510	-0.287667
Cl266	Cl	0.881539	0.718510	-0.037667
Cl267	Cl	1.131539	0.968510	0.212333
Cl268	Cl	1.381539	1.218510	0.462333
H269	H	1.159355	0.583781	-0.247715
H270	H	1.409355	0.833781	0.002285
H271	H	1.659355	1.083781	0.252285
H272	H	1.909355	1.333781	0.502285
Cl273	Cl	0.515429	0.183829	-0.364580
Cl274	Cl	0.765429	0.433829	-0.114580
Cl275	Cl	1.015429	0.683829	0.135420
Cl276	Cl	1.265429	0.933829	0.385420
H277	H	1.159356	0.404609	-0.584529
H278	H	1.409356	0.654609	-0.334529
H279	H	1.659356	0.904609	-0.084529
H280	H	1.909356	1.154609	0.165471
H281	H	0.527393	0.409792	-0.409505
H282	H	0.777393	0.659792	-0.159505
H283	H	1.027393	0.909792	0.090495
H284	H	1.277393	1.159792	0.340495
H285	H	0.620064	0.295733	-0.440186
H286	H	0.870064	0.545733	-0.190186
H287	H	1.120064	0.795733	0.059814
H288	H	1.370064	1.045733	0.309814
H289	H	0.987104	1.067791	-0.404719
H290	H	1.237104	1.317791	-0.154719
H291	H	1.487104	1.567791	0.095281
H292	H	1.737104	1.817791	0.345281
Cl293	Cl	0.966188	0.228226	-1.084203
Cl294	Cl	1.216188	0.478226	-0.834203
Cl295	Cl	1.466188	0.728226	-0.584203
Cl296	Cl	1.716188	0.978226	-0.334203
Cl297	Cl	1.180468	0.727669	-0.228596
Cl298	Cl	1.430468	0.977669	0.021404
Cl299	Cl	1.680468	1.227669	0.271404
Cl300	Cl	1.930468	1.477669	0.521404
Cl301	Cl	1.180475	0.423675	-1.084188
Cl302	Cl	1.430475	0.673675	-0.834188
Cl303	Cl	1.680475	0.923675	-0.584188
Cl304	Cl	1.930475	1.173675	-0.334188
H305	H	1.159496	0.939540	-0.247781
H306	H	1.409496	1.189540	0.002219
H307	H	1.659496	1.439540	0.252219
H308	H	1.909496	1.689540	0.502219
H309	H	1.159548	1.067786	-0.247804
H310	H	1.409548	1.317786	0.002196
H311	H	1.659548	1.567786	0.252196
H312	H	1.909548	1.817786	0.502196
Cl313	Cl	0.966001	0.923905	-0.423850
Cl314	Cl	1.216001	1.173905	-0.173850
Cl315	Cl	1.466001	1.423905	0.076150
Cl316	Cl	1.716001	1.673905	0.326150
H317	H	0.987116	0.247510	-0.584546
H318	H	1.237116	0.497510	-0.334546
H319	H	1.487116	0.747510	-0.084546
H320	H	1.737116	0.997510	0.165454
Cl321	Cl	0.965864	0.568134	-0.423785
Cl322	Cl	1.215864	0.818134	-0.173785
Cl323	Cl	1.465864	1.068134	0.076215
Cl324	Cl	1.715864	1.318134	0.326215
H325	H	1.159368	0.404585	-0.712775
H326	H	1.409368	0.654585	-0.462775
H327	H	1.659368	0.904585	-0.212775
H328	H	1.909368	1.154585	0.037225
H329	H	1.159413	0.404546	-0.940299
H330	H	1.409413	0.654546	-0.690299
H331	H	1.659413	0.904546	-0.440299
H332	H	1.909413	1.154546	-0.190299
H333	H	0.987132	0.247491	-0.712780
H334	H	1.237132	0.497491	-0.462780
H335	H	1.487132	0.747491	-0.212780
H336	H	1.737132	0.997491	0.037220
H337	H	0.987184	0.247435	-0.940307
H338	H	1.237184	0.497435	-0.690307
H339	H	1.487184	0.747435	-0.440307
H340	H	1.737184	0.997435	-0.190307
