data_functionalizedCrystal
_audit_creation_method	'MofGen! by Chris Wilmer'
_symmetry_space_group_name_H-M	'P1'
_symmetry_Int_Tables_number	1
_symmetry_cell_setting	triclinic
loop_
_symmetry_equiv_pos_as_xyz
  x,y,z
_cell_length_a	18.101398
_cell_length_b	18.101395
_cell_length_c	18.101389
_cell_angle_alpha	90.016841
_cell_angle_beta	90.024327
_cell_angle_gamma	90.026371
loop_
_atom_site_label
_atom_site_type_symbol
_atom_site_fract_x
_atom_site_fract_y
_atom_site_fract_z
Zn1	Zn	1.132121	-0.295001	0.418847
Zn2	Zn	1.132017	-0.418826	0.295009
Zn3	Zn	1.008280	-0.294993	0.295008
Zn4	Zn	1.008231	-0.418795	0.418797
O5	O	1.070162	-0.356904	0.356915
O6	O	1.235740	-0.311443	0.402440
O7	O	1.115580	-0.402410	0.191376
O8	O	1.024772	-0.191361	0.311456
O9	O	1.235664	-0.402417	0.311457
O10	O	1.115757	-0.191367	0.402440
O11	O	1.024671	-0.311430	0.191375
O12	O	0.904641	-0.311399	0.311408
O13	O	1.024688	-0.402363	0.522437
O14	O	0.904604	-0.402356	0.402355
O15	O	1.115710	-0.311412	0.522473
O16	O	1.115532	-0.522455	0.311409
O17	O	1.024587	-0.522432	0.402356
C18	C	0.877752	-0.356874	0.356877
C19	C	0.795437	-0.356879	0.356878
C20	C	0.496347	-0.356925	0.356940
C21	C	0.527670	-0.299412	0.299997
C22	C	0.613288	-0.299566	0.299754
C23	C	0.644729	-0.356901	0.356909
C24	C	0.613611	-0.434909	0.335587
C25	C	0.527966	-0.434590	0.335191
C26	C	0.527961	-0.337109	0.435339
C27	C	0.613612	-0.335371	0.434911
C28	C	0.728589	-0.356893	0.356893
C29	C	0.412487	-0.356939	0.356954
C30	C	1.070063	-0.549314	0.356893
C31	C	1.070088	-0.631628	0.356909
C32	C	1.070251	-0.930719	0.356949
C33	C	1.013163	-0.899410	0.414312
C34	C	1.012892	-0.813792	0.414133
C35	C	1.070170	-0.782337	0.356930
C36	C	1.049041	-0.813472	0.278878
C37	C	1.048673	-0.899117	0.279221
C38	C	1.148593	-0.899073	0.376950
C39	C	1.148132	-0.813422	0.378661
C40	C	1.070126	-0.698477	0.356914
C41	C	1.070293	-1.014579	0.356959
C42	C	1.263324	-0.356934	0.356954
C43	C	1.345638	-0.356948	0.356971
C44	C	1.070205	-0.356885	0.550077
C45	C	1.070223	-0.356877	0.632391
C46	C	1.070282	-0.163742	0.356953
C47	C	1.070333	-0.081428	0.356970
C48	C	1.070162	-0.356869	0.164505
C49	C	1.070287	-0.356668	0.082191
C50	C	1.070266	-0.356738	0.931482
C51	C	1.012801	-0.413780	0.900134
C52	C	1.012956	-0.414045	0.814516
C53	C	1.070244	-0.356807	0.783100
C54	C	1.148270	-0.377998	0.814206
C55	C	1.147949	-0.378372	0.899851
C56	C	1.050385	-0.278379	0.899905
C57	C	1.048649	-0.278832	0.814254
C58	C	1.070237	-0.356845	0.699240
C59	C	1.070279	-0.356702	1.015342
H60	H	0.507954	-0.451397	0.277877
O61	O	0.640558	-0.259334	0.456219
H62	H	0.675970	-0.236964	0.411449
O63	O	0.641976	-0.457557	0.260488
H64	H	0.673925	-0.509628	0.265616
O65	O	1.100046	-0.219541	0.785939
H66	H	1.141976	-0.244838	0.749059
H67	H	1.192217	-0.338629	0.920590
O68	O	1.169249	-0.786466	0.454747
H69	H	1.221150	-0.753982	0.451232
O70	O	1.105824	-0.222083	0.926763
H71	H	1.133928	-0.196569	0.878619
O72	O	0.936706	-0.927978	0.396984
H73	H	0.939188	-0.964378	0.347692
O74	O	1.102382	-0.786482	0.220717
H75	H	1.129868	-0.834551	0.194398
H76	H	0.506120	-0.312363	0.242242
O77	O	0.500514	-0.493277	0.387725
H78	H	0.439196	-0.493485	0.387839
H79	H	1.088449	-0.919830	0.235023
H80	H	1.167856	-0.920633	0.432895
O81	O	0.641936	-0.386831	0.494124
H82	H	0.678797	-0.428744	0.468769
O83	O	0.935980	-0.786719	0.396564
H84	H	0.898836	-0.834799	0.388157
H85	H	0.994478	-0.259074	0.921490
H86	H	1.164804	-0.435654	0.919836
H87	H	0.634329	-0.241719	0.313119
H88	H	1.026082	-0.472127	0.794035
H89	H	1.192236	-0.337757	0.793859
H90	H	0.991406	-0.919153	0.262279
H91	H	1.192915	-0.792007	0.339927
O92	O	0.972591	-0.257661	0.787321
H93	H	0.957735	-0.202493	0.809581
H94	H	0.507705	-0.378999	0.477766
H95	H	0.954768	-0.400655	0.920720
H96	H	1.025796	-0.471508	0.921661
O97	O	0.973985	-0.785146	0.256028
H98	H	0.951611	-0.748903	0.300131
O99	O	1.170987	-0.453070	0.785818
H100	H	1.126836	-0.475409	0.749563
H101	H	0.955097	-0.400784	0.793483
H102	H	0.633741	-0.312665	0.241661
O103	O	0.500377	-0.222557	0.317460
H104	H	0.464196	-0.224526	0.366912
O105	O	1.204975	-0.926055	0.321733
H106	H	1.177378	-0.961810	0.280228
O107	O	0.640580	-0.493199	0.388800
H108	H	0.701845	-0.495297	0.387412
H109	H	1.026111	-0.792740	0.472007
O110	O	0.499400	-0.263068	0.461021
H111	H	0.438192	-0.264854	0.464233
H112	H	1.026252	-0.919970	0.472374
