data_functionalizedCrystal
_audit_creation_method	'MofGen! by Chris Wilmer'
_symmetry_space_group_name_H-M	'P1'
_symmetry_Int_Tables_number	1
_symmetry_cell_setting	triclinic
loop_
_symmetry_equiv_pos_as_xyz
  x,y,z
_cell_length_a	13.897449
_cell_length_b	25.639239
_cell_length_c	13.897441
_cell_angle_alpha	89.965695
_cell_angle_beta	89.979267
_cell_angle_gamma	90.039966
loop_
_atom_site_label
_atom_site_type_symbol
_atom_site_fract_x
_atom_site_fract_y
_atom_site_fract_z
Zn1	Zn	1.474562	-0.208116	-0.545356
Zn2	Zn	1.974562	0.291884	-0.045356
Zn3	Zn	1.474397	-0.295559	-0.384047
Zn4	Zn	1.974397	0.204441	0.115953
Zn5	Zn	1.313251	-0.208141	-0.384075
Zn6	Zn	1.813251	0.291859	0.115925
Zn7	Zn	1.313174	-0.295524	-0.545300
Zn8	Zn	1.813174	0.204476	-0.045300
O9	O	1.393846	-0.251835	-0.464695
O10	O	1.893846	0.248165	0.035305
O11	O	1.609522	-0.219720	-0.523970
O12	O	2.109522	0.280280	-0.023970
O13	O	1.452984	-0.283987	-0.249069
O14	O	1.952984	0.216013	0.250931
O15	O	1.334751	-0.134973	-0.405504
O16	O	1.834751	0.365027	0.094496
O17	O	1.609400	-0.283963	-0.405457
O18	O	2.109400	0.216037	0.094543
O19	O	1.453265	-0.134954	-0.523997
O20	O	1.953265	0.365046	-0.023997
O21	O	1.334591	-0.219762	-0.249089
O22	O	1.834591	0.280238	0.250911
O23	O	1.178259	-0.219729	-0.405449
O24	O	1.678259	0.280271	0.094551
O25	O	1.334619	-0.283905	-0.680289
O26	O	1.834619	0.216095	-0.180289
O27	O	1.178202	-0.283929	-0.523901
O28	O	1.678202	0.216071	-0.023901
O29	O	1.453190	-0.219686	-0.680331
O30	O	1.953190	0.280314	-0.180331
O31	O	1.452909	-0.368719	-0.405403
O32	O	1.952909	0.131281	0.094597
O33	O	1.334459	-0.368694	-0.523874
O34	O	1.834459	0.131306	-0.023874
C35	C	1.143232	-0.251828	-0.464673
C36	C	1.643232	0.248172	0.035327
C37	C	1.036018	-0.251838	-0.464686
C38	C	1.536018	0.248162	0.035314
C39	C	0.839722	-0.251840	-0.464711
C40	C	1.339722	0.248160	0.035289
C41	C	0.948955	-0.251837	-0.464695
C42	C	1.448955	0.248163	0.035305
C43	C	1.393684	-0.387678	-0.464650
C44	C	1.893684	0.112322	0.035350
C45	C	1.393702	-0.445792	-0.464664
C46	C	1.893702	0.054208	0.035336
C47	C	1.455684	-0.806155	-0.403111
C48	C	1.955684	-0.306155	0.096889
C49	C	1.455721	-0.860760	-0.403124
C50	C	1.955721	-0.360760	0.096876
O51	O	1.508251	-0.888997	-0.350742
O52	O	2.008251	-0.388997	0.149258
N53	N	1.394015	-0.888074	-0.464758
N54	N	1.894015	-0.388074	0.035242
C55	C	1.332275	-0.860782	-0.526391
C56	C	1.832275	-0.360782	-0.026391
O57	O	1.279794	-0.889029	-0.578817
O58	O	1.779794	-0.389029	-0.078817
C59	C	1.332243	-0.806178	-0.526382
C60	C	1.832243	-0.306178	-0.026382
C61	C	1.393946	-0.778867	-0.464737
C62	C	1.893946	-0.278867	0.035263
C63	C	1.517382	-0.778844	-0.341472
C64	C	2.017382	-0.278844	0.158528
C65	C	1.517343	-0.724243	-0.341458
C66	C	2.017343	-0.224243	0.158542
C67	C	1.455606	-0.696954	-0.403084
C68	C	1.955606	-0.196954	0.096916
C69	C	1.393907	-0.724266	-0.464723
C70	C	1.893907	-0.224266	0.035277
C71	C	1.270509	-0.778887	-0.588018
C72	C	1.770509	-0.278887	-0.088018
C73	C	1.270483	-0.724280	-0.588004
C74	C	1.770483	-0.224280	-0.088004
C75	C	1.332186	-0.696968	-0.526359
C76	C	1.832186	-0.196968	-0.026359
C77	C	1.332131	-0.642377	-0.526334
C78	C	1.832131	-0.142377	-0.026334
N79	N	1.393837	-0.615062	-0.464700
N80	N	1.893837	-0.115062	0.035300
C81	C	1.455574	-0.642351	-0.403075
C82	C	1.955574	-0.142351	0.096925
C83	C	1.332348	-0.975452	-0.526405
C84	C	1.832348	-0.475452	-0.026405
C85	C	1.332374	-1.030055	-0.526410
C86	C	1.832374	-0.530055	-0.026410
C87	C	1.455821	-1.030029	-0.403145
C88	C	1.955821	-0.530029	0.096855
C89	C	1.455790	-0.975426	-0.403136
C90	C	1.955790	-0.475426	0.096864
C91	C	1.394054	-0.948138	-0.464771
C92	C	1.894054	-0.448138	0.035229
C93	C	1.455487	-0.527686	-0.403050
C94	C	1.955487	-0.027686	0.096950
C95	C	1.455440	-0.473081	-0.403038
C96	C	1.955440	0.026919	0.096962
C97	C	1.331997	-0.473111	-0.526307
C98	C	1.831997	0.026889	-0.026307
C99	C	1.332040	-0.527712	-0.526315
C100	C	1.832040	-0.027712	-0.026315
C101	C	1.393793	-0.554998	-0.464683
C102	C	1.893793	-0.054998	0.035317
O103	O	1.279630	-0.614105	-0.578693
O104	O	1.779630	-0.114105	-0.078693
O105	O	1.508056	-0.614097	-0.350666
O106	O	2.008056	-0.114097	0.149334
C107	C	1.645439	-0.251843	-0.464717
C108	C	2.145439	0.248157	0.035283
C109	C	1.752653	-0.251846	-0.464727
C110	C	2.252653	0.248154	0.035273
C111	C	1.393914	-0.251789	-0.716288
C112	C	1.893914	0.248211	-0.216288
C113	C	1.393943	-0.251769	-0.823502
C114	C	1.893943	0.248231	-0.323502
C115	C	1.394035	-0.115462	-0.464760
C116	C	1.894035	0.384538	0.035240
C117	C	1.394116	-0.057348	-0.464788
C118	C	1.894116	0.442652	0.035212
C119	C	1.393970	-0.251734	-1.019797
C120	C	1.893970	0.248266	-0.519797
C121	C	1.393952	-0.251755	-0.910564
C122	C	1.893952	0.248245	-0.410564
C123	C	1.393833	-0.251843	-0.214080
C124	C	1.893833	0.248157	0.285920
C125	C	1.393991	-0.251716	-0.106867
C126	C	1.893991	0.248284	0.393133
H127	H	1.505686	-0.450845	-0.352836
H128	H	2.005686	0.049155	0.147164
H129	H	1.281799	-0.549950	-0.576514
H130	H	1.781799	-0.049950	-0.076514
C131	C	1.264497	-1.060094	-0.594211
C132	C	1.764497	-0.560094	-0.094211
H133	H	1.273350	-1.096523	-0.585396
H134	H	1.773350	-0.596523	-0.085396
H135	H	1.278573	-1.051108	-0.659030
H136	H	1.778573	-0.551108	-0.159030
H137	H	1.199686	-1.051187	-0.580026
H138	H	1.699686	-0.551187	-0.080026
H139	H	1.505774	-0.549896	-0.352865
H140	H	2.005774	-0.049896	0.147135
C141	C	1.585294	-0.808853	-0.273673
C142	C	2.085294	-0.308853	0.226327
H143	H	1.622023	-0.784759	-0.236962
H144	H	2.122023	-0.284759	0.263038
H145	H	1.627323	-0.830119	-0.310597
H146	H	2.127323	-0.330119	0.189403
H147	H	1.548423	-0.830186	-0.231607
H148	H	2.048423	-0.330186	0.268393
C149	C	1.585229	-0.694207	-0.273660
C150	C	2.085229	-0.194207	0.226340
H151	H	1.622005	-0.718286	-0.236973
H152	H	2.122005	-0.218286	0.263027
H153	H	1.548353	-0.672941	-0.231587
H154	H	2.048353	-0.172941	0.268413
H155	H	1.627230	-0.672872	-0.310601
H156	H	2.127230	-0.172872	0.189399
H157	H	1.220211	-0.702064	-0.638198
H158	H	1.720211	-0.202064	-0.138198
C159	C	1.202648	-0.808920	-0.655839
C160	C	1.702648	-0.308920	-0.155839
H161	H	1.211497	-0.845350	-0.647028
H162	H	1.711497	-0.345350	-0.147028
H163	H	1.216739	-0.799931	-0.720652
H164	H	1.716739	-0.299931	-0.220652
H165	H	1.137834	-0.800013	-0.641667
H166	H	1.637834	-0.300013	-0.141667
C167	C	1.264099	-0.443089	-0.594101
C168	C	1.764099	0.056911	-0.094101
H169	H	1.227351	-0.467172	-0.630816
H170	H	1.727351	0.032828	-0.130816
H171	H	1.300975	-0.421753	-0.636147
H172	H	1.800975	0.078247	-0.136147
H173	H	1.222071	-0.421824	-0.557162
H174	H	1.722071	0.078176	-0.057162
C175	C	1.523669	-0.945387	-0.335335
C176	C	2.023669	-0.445387	0.164665
H177	H	1.560443	-0.969465	-0.298642
H178	H	2.060443	-0.469465	0.201358
H179	H	1.486789	-0.924120	-0.293268
H180	H	1.986789	-0.424120	0.206732
H181	H	1.565673	-0.924053	-0.372274
H182	H	2.065673	-0.424053	0.127726
C183	C	1.523730	-1.060053	-0.335355
C184	C	2.023730	-0.560053	0.164645
H185	H	1.514911	-1.096484	-0.344198
H186	H	2.014911	-0.596484	0.155802
H187	H	1.509641	-1.051139	-0.270530
H188	H	2.009641	-0.551139	0.229470
H189	H	1.588533	-1.051067	-0.349529
H190	H	2.088533	-0.551067	0.150471
C191	C	1.264422	-0.945440	-0.594197
C192	C	1.764422	-0.445440	-0.094197
H193	H	1.227676	-0.969532	-0.630895
H194	H	1.727676	-0.469532	-0.130895
H195	H	1.301276	-0.924102	-0.636260
H196	H	1.801276	-0.424102	-0.136260
H197	H	1.222395	-0.924179	-0.557251
H198	H	1.722395	-0.424179	-0.057251
