data_functionalizedCrystal
_audit_creation_method	'MofGen! by Chris Wilmer'
_symmetry_space_group_name_H-M	'P1'
_symmetry_Int_Tables_number	1
_symmetry_cell_setting	triclinic
loop_
_symmetry_equiv_pos_as_xyz
  x,y,z
_cell_length_a	17.699083
_cell_length_b	15.944551
_cell_length_c	16.176319
_cell_angle_alpha	89.992246
_cell_angle_beta	89.998611
_cell_angle_gamma	83.390877
loop_
_atom_site_label
_atom_site_type_symbol
_atom_site_fract_x
_atom_site_fract_y
_atom_site_fract_z
O1	O	1.004260	0.106222	-0.068632
O2	O	1.504260	0.606222	0.431368
O3	O	0.783905	0.120042	-0.068660
O4	O	1.283905	0.620042	0.431340
O5	O	0.900100	-0.009156	-0.068638
O6	O	1.400100	0.490844	0.431362
O7	O	0.888065	0.235419	-0.068654
O8	O	1.388065	0.735419	0.431346
O9	O	0.900084	-0.009164	0.068855
O10	O	1.400084	0.490836	0.568855
O11	O	0.783889	0.120033	0.068833
O12	O	1.283889	0.620033	0.568833
O13	O	1.004244	0.106214	0.068861
O14	O	1.504244	0.606214	0.568861
Cu15	Cu	0.894065	0.113123	0.081401
Cu16	Cu	1.394065	0.613123	0.581401
Cu17	Cu	0.894084	0.113133	-0.081200
Cu18	Cu	1.394084	0.613133	0.418800
O19	O	0.888049	0.235411	0.068839
O20	O	1.388049	0.735411	0.568839
C21	C	0.755700	0.119542	0.000083
C22	C	1.255700	0.619542	0.500083
C23	C	0.671679	0.118057	0.000073
C24	C	1.171679	0.618057	0.500073
C25	C	0.623187	0.193893	0.000068
C26	C	1.123187	0.693893	0.500068
C27	C	0.544242	0.192492	0.000079
C28	C	1.044242	0.692492	0.500079
C29	C	0.513789	0.115254	0.000089
C30	C	1.013789	0.615254	0.500089
C31	C	0.562287	0.039412	0.000096
C32	C	1.062287	0.539412	0.500096
C33	C	0.641231	0.040814	0.000091
C34	C	1.141231	0.540814	0.500091
C35	C	0.243914	0.033758	0.000117
C36	C	0.743914	0.533758	0.500117
C37	C	0.164964	0.032362	0.000119
C38	C	0.664964	0.532362	0.500119
C39	C	0.146925	0.185436	0.000105
C40	C	0.646925	0.685436	0.500105
C41	C	0.225869	0.186837	0.000100
C42	C	0.725869	0.686837	0.500100
C43	C	0.274360	0.110996	0.000112
C44	C	0.774360	0.610996	0.500112
C45	C	0.359962	0.112516	0.000102
C46	C	0.859962	0.612516	0.500102
C47	C	0.428189	0.113733	0.000093
C48	C	0.928189	0.613733	0.500093
C49	C	0.899593	-0.040453	0.000109
C50	C	1.399593	0.459547	0.500109
C51	C	0.898095	-0.133696	0.000109
C52	C	1.398095	0.366304	0.500109
C53	C	0.822492	-0.348393	0.000088
C54	C	1.322492	0.151607	0.500088
C55	C	0.857591	-0.409488	0.067885
C56	C	1.357591	0.090512	0.567885
C57	C	0.895385	-0.304416	0.000102
C58	C	1.395385	0.195584	0.500102
C59	C	0.857624	-0.409464	-0.067672
C60	C	1.357624	0.090536	0.432328
C61	C	0.892762	-0.469323	0.000092
C62	C	1.392762	0.030677	0.500092
C63	C	0.930505	-0.364283	0.067955
C64	C	1.430505	0.135717	0.567955
C65	C	0.930527	-0.364252	-0.067663
C66	C	1.430527	0.135748	0.432337
C67	C	0.965680	-0.425329	0.000150
C68	C	1.465680	0.074671	0.500150
C69	C	0.896894	-0.209417	0.000109
C70	C	1.396894	0.290583	0.500109
C71	C	0.891259	-0.564321	0.000092
C72	C	1.391259	-0.064321	0.500092
C73	C	1.032450	0.106713	0.000116
C74	C	1.532450	0.606713	0.500116
C75	C	1.116471	0.108199	0.000121
C76	C	1.616471	0.608199	0.500121
C77	C	0.888557	0.266708	0.000090
C78	C	1.388557	0.766708	0.500090
C79	C	0.890055	0.359951	0.000085
C80	C	1.390055	0.859951	0.500085
N81	N	0.894058	0.113116	0.195767
N82	N	1.394058	0.613116	0.695767
N83	N	0.894098	0.113133	-0.195565
N84	N	1.394098	0.613133	0.304435
C85	C	0.945524	0.055930	0.239040
C86	C	1.445524	0.555930	0.739040
C87	C	0.945528	0.055929	0.325588
C88	C	1.445528	0.555929	0.825588
C89	C	0.894068	0.113118	0.368859
C90	C	1.394068	0.613118	0.868859
C91	C	0.842596	0.170306	0.325579
C92	C	1.342596	0.670306	0.825579
C93	C	0.842589	0.170303	0.239034
C94	C	1.342589	0.670303	0.739034
C95	C	0.842622	0.170322	0.674608
C96	C	1.342622	0.670322	1.174608
C97	C	0.842634	0.170323	0.761159
C98	C	1.342634	0.670323	1.261159
C99	C	0.945561	0.055949	0.761161
C100	C	1.445561	0.555949	1.261161
C101	C	0.945554	0.055945	0.674616
C102	C	1.445554	0.555945	1.174616
C103	C	0.894080	0.113130	0.631343
C104	C	1.394080	0.613130	1.131343
C105	C	0.894075	0.113129	0.537499
C106	C	1.394075	0.613129	1.037499
C107	C	0.894076	0.113124	0.462702
C108	C	1.394076	0.613124	0.962702
H109	H	0.283386	-0.027997	0.000127
H110	H	0.783386	0.472003	0.500127
C111	C	0.991051	0.004942	0.541949
C112	C	1.491051	0.504942	1.041949
C113	C	1.001985	-0.007067	0.627052
C114	C	1.501985	0.492933	1.127052
H115	H	1.025852	-0.034003	0.512588
H116	H	1.525852	0.465997	1.012588
H117	H	0.940489	-0.003958	0.527862
H118	H	1.440489	0.496042	1.027862
H119	H	0.999409	0.060929	0.527682
H120	H	1.499409	0.560929	1.027682
H121	H	0.993621	-0.063053	0.641320
H122	H	1.493621	0.436947	1.141320
H123	H	1.052559	0.001827	0.641144
H124	H	1.552559	0.501827	1.141144
H125	H	0.987472	0.009383	0.796403
H126	H	1.487472	0.509383	1.296403
C127	C	0.740482	-0.046408	-0.070585
C128	C	1.240482	0.453592	0.429415
C129	C	0.694539	-0.042545	0.000094
C130	C	1.194539	0.457455	0.500094
H131	H	0.773395	-0.097870	-0.070577
H132	H	1.273395	0.402130	0.429423
H133	H	0.709310	-0.043777	-0.118522
H134	H	1.209310	0.456223	0.381478
H135	H	0.769910	-0.000201	-0.070582
H136	H	1.269910	0.499799	0.429418
H137	H	0.665107	-0.088748	0.000087
H138	H	1.165107	0.411252	0.500087
H139	H	0.725715	-0.045184	0.048043
H140	H	1.225715	0.454816	0.548043
C141	C	1.047289	-0.057104	0.316897
C142	C	1.547289	0.442896	0.816897
C143	C	1.002114	-0.006918	0.373154
C144	C	1.502114	0.493082	0.873154
H145	H	1.082228	-0.095899	0.346264
H146	H	1.582228	0.404101	0.846264
H147	H	1.015789	-0.087287	0.283156
H148	H	1.515789	0.412713	0.783156
H149	H	1.074496	-0.022161	0.283126
H150	H	1.574496	0.477839	0.783126
H151	H	0.974902	-0.041861	0.406921
H152	H	1.474902	0.458139	0.906921
H153	H	1.033617	0.023267	0.406909
H154	H	1.533617	0.523267	0.906909
H155	H	0.961339	-0.344183	-0.124975
H156	H	1.461339	0.155817	0.375025
C157	C	0.190721	-0.118818	0.000153
C158	C	0.690721	0.381182	0.500153
C159	C	0.131489	-0.052545	0.000139
C160	C	0.631489	0.447455	0.500139
H161	H	0.170053	-0.171231	0.000170
H162	H	0.670053	0.328769	0.500170
H163	H	0.221136	-0.115095	-0.047792
H164	H	0.721136	0.384905	0.452208
H165	H	0.221138	-0.115081	0.048102
H166	H	0.721138	0.384919	0.548102
H167	H	0.101075	-0.056278	-0.047813
H168	H	0.601075	0.443722	0.452187
H169	H	0.101061	-0.056270	0.048089
H170	H	0.601061	0.443730	0.548089
H171	H	0.987432	0.009364	0.203814
H172	H	1.487432	0.509364	0.703814
H173	H	0.800693	0.216868	0.360816
H174	H	1.300693	0.716868	0.860816
H175	H	0.826790	-0.429472	-0.124993
H176	H	1.326790	0.070528	0.375007
C177	C	0.444995	0.279719	-0.070611
C178	C	0.944995	0.779719	0.429389
C179	C	0.490941	0.275855	0.000065
C180	C	0.990941	0.775855	0.500065
H181	H	0.412088	0.331185	-0.070617
H182	H	0.912088	0.831185	0.429383
H183	H	0.476167	0.277081	-0.118550
H184	H	0.976167	0.777081	0.381450
H185	H	0.415562	0.233518	-0.070590
H186	H	0.915562	0.733518	0.429410
H187	H	0.520379	0.322053	0.000041
H188	H	1.020379	0.822053	0.500041
H189	H	0.459766	0.278501	0.048016
H190	H	0.959766	0.778501	0.548016
C191	C	0.338875	0.256953	0.000062
C192	C	0.838875	0.756953	0.500062
C193	C	0.259343	0.271739	0.000075
C194	C	0.759343	0.771739	0.500075
H195	H	0.359538	0.309370	0.000039
H196	H	0.859538	0.809370	0.500039
H197	H	0.355519	0.225746	0.048012
H198	H	0.855519	0.725746	0.548012
H199	H	0.355506	0.225728	-0.047883
H200	H	0.855506	0.725728	0.452117
H201	H	0.242711	0.302959	0.048023
H202	H	0.742711	0.802959	0.548023
H203	H	0.242692	0.302959	-0.047880
H204	H	0.742692	0.802959	0.452120
C205	C	0.740871	0.283371	0.752468
C206	C	1.240871	0.783371	1.252468
C207	C	0.786058	0.233182	0.808725
C208	C	1.286058	0.733182	1.308725
H209	H	0.705944	0.322170	0.781836
H210	H	1.205944	0.822170	1.281836
H211	H	0.772365	0.313547	0.718705
H212	H	1.272365	0.813547	1.218705
H213	H	0.713651	0.248429	0.718721
H214	H	1.213651	0.748429	1.218721
H215	H	0.813283	0.268123	0.842469
H216	H	1.313283	0.768123	1.342469
H217	H	0.754561	0.203004	0.842503
H218	H	1.254561	0.703004	1.342503
H219	H	0.800711	0.216885	0.639382
H220	H	1.300711	0.716885	1.139382
H221	H	0.107434	0.247189	0.000100
H222	H	0.607434	0.747189	0.500100
H223	H	0.537486	-0.023476	0.000116
H224	H	1.037486	0.476524	0.500116
C225	C	0.701488	0.284285	-0.070633
C226	C	1.201488	0.784285	0.429367
C227	C	0.656655	0.278798	0.000053
C228	C	1.156655	0.778798	0.500053
H229	H	0.722142	0.336706	-0.070642
H230	H	1.222142	0.836706	0.429358
H231	H	0.741666	0.239328	-0.070625
H232	H	1.241666	0.739328	0.429375
H233	H	0.671055	0.280555	-0.118570
H234	H	1.171055	0.780555	0.381430
H235	H	0.687089	0.282522	0.047991
H236	H	1.187089	0.782522	0.547991
H237	H	0.616471	0.323767	0.000053
H238	H	1.116471	0.823767	0.500053
H239	H	0.826754	-0.429535	0.125194
H240	H	1.326754	0.070465	0.625194
H241	H	0.761987	-0.314958	0.000149
H242	H	1.261987	0.185042	0.500149
H243	H	0.961303	-0.344360	0.125335
H244	H	1.461303	0.155640	0.625335
C245	C	1.085395	-0.447487	0.071253
C246	C	1.585395	0.052513	0.571253
C247	C	1.047427	-0.470275	0.000210
C248	C	1.547427	0.029725	0.500210
H249	H	1.135859	-0.475241	0.071293
H250	H	1.635859	0.024759	0.571293
H251	H	1.086782	-0.388116	0.071702
H252	H	1.586782	0.111884	0.571702
H253	H	1.059298	-0.463664	0.118945
H254	H	1.559298	0.036336	0.618945
H255	H	1.073520	-0.454093	-0.047482
H256	H	1.573520	0.045907	0.452518
H257	H	1.046044	-0.529660	-0.000247
H258	H	1.546044	-0.029660	0.499753
C259	C	0.740855	0.283368	0.247719
C260	C	1.240855	0.783368	0.747719
C261	C	0.786019	0.233166	0.191464
C262	C	1.286019	0.733166	0.691464
H263	H	0.705932	0.322180	0.218350
H264	H	1.205932	0.822180	0.718350
H265	H	0.713635	0.248443	0.281483
H266	H	1.213635	0.748443	0.781483
H267	H	0.772369	0.313538	0.281467
H268	H	1.272369	0.813538	0.781467
H269	H	0.754505	0.202991	0.157720
H270	H	1.254505	0.702991	0.657720
H271	H	0.813241	0.268096	0.157686
H272	H	1.313241	0.768096	0.657686
