data_functionalizedCrystal
_audit_creation_method	'MofGen! by Chris Wilmer'
_symmetry_space_group_name_H-M	'P1'
_symmetry_Int_Tables_number	1
_symmetry_cell_setting	triclinic
loop_
_symmetry_equiv_pos_as_xyz
  x,y,z
_cell_length_a	17.077402
_cell_length_b	17.077404
_cell_length_c	17.077396
_cell_angle_alpha	89.979055
_cell_angle_beta	90.029784
_cell_angle_gamma	89.983638
loop_
_atom_site_label
_atom_site_type_symbol
_atom_site_fract_x
_atom_site_fract_y
_atom_site_fract_z
Zn1	Zn	-0.312645	-1.200055	0.443866
Zn2	Zn	-0.443920	-1.199962	0.312597
Zn3	Zn	-0.312657	-1.068786	0.312610
Zn4	Zn	-0.443858	-1.068754	0.443817
O5	O	-0.378270	-1.134389	0.378223
O6	O	-0.330079	-1.309889	0.426467
O7	O	-0.426538	-1.182536	0.202752
O8	O	-0.202808	-1.086252	0.330048
O9	O	-0.426527	-1.309821	0.330025
O10	O	-0.202799	-1.182694	0.426481
O11	O	-0.330100	-1.086162	0.202762
O12	O	-0.330040	-0.958935	0.330001
O13	O	-0.426421	-1.086197	0.553671
O14	O	-0.426433	-0.958912	0.426398
O15	O	-0.330019	-1.182663	0.553706
O16	O	-0.553758	-1.182504	0.329977
O17	O	-0.553713	-1.086107	0.426384
C18	C	-0.378231	-0.930441	0.378196
C19	C	-0.378234	-0.843192	0.378203
C20	C	-0.428551	-0.467386	0.428346
C21	C	-0.428544	-0.549366	0.428336
C22	C	-0.378272	-0.590343	0.378224
C23	C	-0.328011	-0.549335	0.328113
C24	C	-0.328023	-0.467356	0.328120
C25	C	-0.327988	-0.720205	0.328104
C26	C	-0.327974	-0.802189	0.328098
C27	C	-0.428509	-0.802215	0.428320
C28	C	-0.428521	-0.720236	0.428327
C29	C	-0.378258	-0.679234	0.378217
C30	C	-0.582218	-1.134314	0.378191
C31	C	-0.669467	-1.134353	0.378204
C32	C	-0.710455	-1.184598	0.328059
C33	C	-0.792436	-1.184637	0.328079
C34	C	-0.833427	-1.134425	0.378241
C35	C	-0.792433	-1.084178	0.428391
C36	C	-0.710454	-1.084144	0.428375
C37	C	-0.963303	-1.084250	0.428421
C38	C	-1.045288	-1.084283	0.428437
C39	C	-1.045285	-1.184743	0.328125
C40	C	-0.963306	-1.184709	0.328109
C41	C	-0.922318	-1.134461	0.378259
C42	C	-0.173525	-1.134487	0.378271
C43	C	-0.086276	-1.134528	0.378292
C44	C	-0.378212	-1.134437	0.582967
C45	C	-0.378187	-1.134457	0.670217
C46	C	-0.378300	-0.339134	0.378245
C47	C	-0.378292	-0.426383	0.378241
C48	C	-0.378271	-1.134387	0.174275
C49	C	-0.378074	-1.134519	0.087025
C50	C	-0.327987	-1.184689	0.711227
C51	C	-0.327961	-1.184698	0.793207
C52	C	-0.378139	-1.134479	0.834176
C53	C	-0.428342	-1.084242	0.793160
C54	C	-0.428364	-1.084229	0.711181
C55	C	-0.428295	-1.084274	0.964031
C56	C	-0.428275	-1.084288	1.046015
C57	C	-0.327892	-1.184742	1.046056
C58	C	-0.327913	-1.184730	0.964077
C59	C	-0.378117	-1.134493	0.923067
H60	H	-0.287031	-0.835551	0.287300
H61	H	-0.287128	-1.225585	0.677876
H62	H	-0.287084	-1.225603	0.826594
F63	F	-1.088907	-1.238216	0.274746
H64	H	-0.469196	-1.043350	0.826524
H65	H	-0.469484	-0.434028	0.469158
F66	F	-0.274496	-0.676569	0.274767
H67	H	-0.287013	-1.225645	1.079451
F68	F	-0.836054	-1.238117	0.274710
F69	F	-0.481726	-1.030805	0.920386
H70	H	-0.287082	-0.582705	0.287307
H71	H	-0.287058	-1.225626	0.930723
F72	F	-0.481792	-1.030764	0.667536
H73	H	-0.287094	-0.433973	0.287321
H74	H	-0.469472	-0.582746	0.469135
F75	F	-0.666837	-1.238037	0.274664
H76	H	-0.469433	-0.835603	0.469123
F77	F	-0.482021	-0.676627	0.481666
H78	H	-0.929931	-1.225591	0.287259
F79	F	-0.481674	-1.030833	1.089616
H80	H	-1.078661	-1.043411	0.469298
H81	H	-0.929933	-1.043335	0.469261
H82	H	-0.825815	-1.043298	0.469238
H83	H	-0.677083	-1.043230	0.469209
