data_functionalizedCrystal
_audit_creation_method	'MofGen! by Chris Wilmer'
_symmetry_space_group_name_H-M	'P1'
_symmetry_Int_Tables_number	1
_symmetry_cell_setting	triclinic
loop_
_symmetry_equiv_pos_as_xyz
  x,y,z
_cell_length_a	21.295417
_cell_length_b	16.120490
_cell_length_c	16.120297
_cell_angle_alpha	89.870317
_cell_angle_beta	87.132998
_cell_angle_gamma	87.122615
loop_
_atom_site_label
_atom_site_type_symbol
_atom_site_fract_x
_atom_site_fract_y
_atom_site_fract_z
Zn1	Zn	-0.318966	1.247397	0.534493
Zn2	Zn	-0.419176	1.254333	0.395422
Zn3	Zn	-0.308324	1.115389	0.388416
Zn4	Zn	-0.418591	1.108288	0.527395
O5	O	-0.366264	1.181352	0.461432
O6	O	-0.336958	1.364683	0.521948
O7	O	-0.400263	1.241775	0.278128
O8	O	-0.221650	1.132969	0.407831
O9	O	-0.410582	1.369779	0.419773
O10	O	-0.229469	1.229955	0.515154
O11	O	-0.318820	1.139694	0.272980
O12	O	-0.318252	0.998081	0.400949
O13	O	-0.409584	1.120867	0.644702
O14	O	-0.399264	0.992864	0.503057
O15	O	-0.336391	1.223070	0.649917
O16	O	-0.507184	1.234890	0.412891
O17	O	-0.506754	1.127592	0.509851
C18	C	-0.357540	0.965300	0.450473
C19	C	-0.353824	0.872871	0.445804
C20	C	-0.385537	0.659904	0.485650
C21	C	-0.347045	0.703647	0.437279
C22	C	-0.350818	0.797812	0.442024
C23	C	-0.381764	0.565731	0.480906
C24	C	-0.529810	1.181245	0.461380
C25	C	-0.599779	1.181274	0.461390
C26	C	-0.632853	1.237189	0.410960
C27	C	-0.698598	1.237227	0.410980
C28	C	-0.731265	1.181336	0.461422
C29	C	-0.698184	1.125417	0.511862
C30	C	-0.632441	1.125386	0.511846
N31	N	-0.831828	1.108270	0.464071
N32	N	-0.894281	1.108302	0.464081
C33	C	-0.929346	1.181426	0.461474
N34	N	-0.899597	1.254520	0.458840
N35	N	-0.837138	1.254488	0.458825
C36	C	-0.802553	1.181363	0.461445
C37	C	-1.033707	1.237387	0.411064
C38	C	-1.099454	1.237426	0.411090
C39	C	-1.099038	1.125609	0.511967
C40	C	-1.033294	1.125577	0.511945
C41	C	-1.000632	1.181465	0.461489
C42	C	-0.202082	1.181481	0.461503
C43	C	-0.132117	1.181535	0.461533
C44	C	-0.374109	1.170403	0.678325
C45	C	-0.377452	1.165738	0.770752
C46	C	-0.375023	1.398247	0.472434
C47	C	-0.378755	1.490675	0.477122
C48	C	-0.358406	1.192305	0.245385
C49	C	-0.354893	1.197132	0.152966
C50	C	-0.383540	1.157189	0.939976
C51	C	-0.348806	1.205678	0.983747
C52	C	-0.352194	1.200922	1.077909
C53	C	-0.380154	1.161944	0.845806
H54	H	-0.311257	0.670377	0.392305
Br55	Br	-0.587552	1.049497	0.580294
Br56	Br	-1.144342	1.313325	0.342652
Br57	Br	-0.437344	1.082050	0.995383
H58	H	-0.725532	1.282762	0.369914
Br59	Br	-0.295016	1.280844	0.928344
Br60	Br	-1.143366	1.049763	0.580434
H61	H	-0.421322	0.693172	0.530620
Br62	Br	-0.742517	1.049570	0.580326
Br63	Br	-0.989377	1.313230	0.342587
Br64	Br	-0.988404	1.049687	0.580388
Br65	Br	-0.588530	1.313047	0.342496
