data_functionalizedCrystal
_audit_creation_method	'MofGen! by Chris Wilmer'
_symmetry_space_group_name_H-M	'P1'
_symmetry_Int_Tables_number	1
_symmetry_cell_setting	triclinic
loop_
_symmetry_equiv_pos_as_xyz
  x,y,z
_cell_length_a	16.992701
_cell_length_b	10.967829
_cell_length_c	16.053802
_cell_angle_alpha	80.477515
_cell_angle_beta	87.243340
_cell_angle_gamma	87.621741
loop_
_atom_site_label
_atom_site_type_symbol
_atom_site_fract_x
_atom_site_fract_y
_atom_site_fract_z
O1	O	1.046848	0.257169	-0.106432
O2	O	1.546848	0.757169	0.393568
O3	O	0.818527	0.254297	-0.106020
O4	O	1.318527	0.754297	0.393980
O5	O	0.936733	0.076438	-0.080427
O6	O	1.436733	0.576438	0.419573
O7	O	0.928643	0.435028	-0.132025
O8	O	1.428643	0.935028	0.367975
O9	O	0.930226	0.086185	0.057030
O10	O	1.430226	0.586185	0.557030
O11	O	0.812021	0.264044	0.031437
O12	O	1.312021	0.764044	0.531437
O13	O	1.040341	0.266915	0.031024
O14	O	1.540341	0.766915	0.531024
Zn15	Zn	0.925148	0.267027	0.053055
Zn16	Zn	1.425148	0.767027	0.553055
Zn17	Zn	0.933721	0.254185	-0.128050
Zn18	Zn	1.433721	0.754185	0.371950
O19	O	0.922136	0.444774	0.005431
O20	O	1.422136	0.944774	0.505431
C21	C	0.786016	0.255472	-0.036759
C22	C	1.286016	0.755472	0.463241
C23	C	0.698837	0.244438	-0.035172
C24	C	1.198837	0.744438	0.464828
C25	C	0.208970	0.170300	-0.024507
C26	C	0.708970	0.670300	0.475493
C27	C	0.290883	0.180677	-0.025995
C28	C	0.790883	0.680677	0.474005
C29	C	0.323857	0.297529	-0.042813
C30	C	0.823857	0.797529	0.457187
C31	C	0.274913	0.404011	-0.058136
C32	C	0.774913	0.904011	0.441864
C33	C	0.193001	0.393633	-0.056641
C34	C	0.693001	0.893633	0.443359
C35	C	0.567981	0.340542	-0.049000
C36	C	1.067981	0.840542	0.451000
C37	C	0.649899	0.350912	-0.050496
C38	C	1.149899	0.850912	0.449504
C39	C	0.665864	0.127577	-0.018354
C40	C	1.165864	0.627577	0.481646
C41	C	0.583950	0.117208	-0.016866
C42	C	1.083950	0.617208	0.483134
C43	C	0.535012	0.223691	-0.032184
C44	C	1.035012	0.723691	0.467816
N45	N	0.407586	0.308139	-0.044337
N46	N	0.907586	0.808139	0.455663
N47	N	0.451285	0.213080	-0.030654
N48	N	0.951285	0.713080	0.469346
C49	C	0.932399	0.035215	-0.005067
C50	C	1.432399	0.535215	0.494933
C51	C	0.929171	-0.102136	0.014691
C52	C	1.429171	0.397864	0.514691
C53	C	0.931102	-0.168415	-0.047707
C54	C	1.431102	0.331585	0.452293
C55	C	0.927766	-0.310376	-0.027287
C56	C	1.427766	0.189624	0.472713
C57	C	1.072852	0.265740	-0.038238
C58	C	1.572852	0.765740	0.461762
C59	C	1.160032	0.276774	-0.039831
C60	C	1.660032	0.776774	0.460169
C61	C	0.926470	0.485997	-0.069930
C62	C	1.426470	0.985997	0.430070
C63	C	0.929698	0.623348	-0.089694
C64	C	1.429698	1.123348	0.410306
N65	N	0.919303	0.275791	0.176654
N66	N	1.419303	0.775791	0.676654
N67	N	0.939572	0.245412	-0.251648
N68	N	1.439572	0.745412	0.248352
C69	C	0.969618	0.200142	0.231233
C70	C	1.469618	0.700142	0.731233
C71	C	0.965537	0.206285	0.317756
C72	C	1.465537	0.706285	0.817756
C73	C	0.911143	0.288084	0.349697
C74	C	1.411143	0.788084	0.849697
C75	C	0.860822	0.363736	0.295111
C76	C	1.360822	0.863736	0.795111
C77	C	0.864900	0.357586	0.208591
C78	C	1.364900	0.857586	0.708591
C79	C	0.893329	0.314914	0.607246
C80	C	1.393329	0.814914	1.107246
C81	C	0.889256	0.321061	0.693773
C82	C	1.389256	0.821061	1.193773
C83	C	0.993971	0.163608	0.716412
C84	C	1.493971	0.663608	1.216412
C85	C	0.998047	0.157470	0.629888
C86	C	1.498047	0.657470	1.129888
C87	C	0.947723	0.233117	0.575311
C88	C	1.447723	0.733117	1.075311
N89	N	0.906972	0.294368	0.438136
N90	N	1.406972	0.794368	0.938136
N91	N	0.951891	0.226826	0.486874
N92	N	1.451891	0.726826	0.986874
H93	H	0.153156	0.480336	-0.069117
H94	H	0.653156	0.980336	0.430883
H95	H	1.006507	0.144685	0.362195
H96	H	1.506507	0.644685	0.862195
C97	C	1.057875	0.067484	0.594760
C98	C	1.557875	0.567484	1.094760
H99	H	1.087253	0.023300	0.639660
H100	H	1.587253	0.523300	1.139660
H101	H	1.092687	0.112793	0.554130
H102	H	1.592687	0.612793	1.054130
H103	H	1.030591	0.010823	0.568830
H104	H	1.530591	0.510823	1.068830
H105	H	0.182129	0.075146	-0.010817
H106	H	0.682129	0.575146	0.489183
C107	C	1.049316	0.080389	0.776446
C108	C	1.549316	0.580389	1.276446
H109	H	1.082296	0.030797	0.745030
H110	H	1.582296	0.530797	1.245030
H111	H	1.018856	0.028531	0.818015
H112	H	1.518856	0.528531	1.318015
H113	H	1.080952	0.130502	0.803320
H114	H	1.580952	0.630502	1.303320
H115	H	0.923637	-0.358724	0.041257
H116	H	1.423637	0.141276	0.541257
C117	C	0.547680	-0.011326	0.001626
C118	C	1.047680	0.488674	0.501626
H119	H	0.491888	-0.002258	0.000310
H120	H	0.991888	0.497742	0.500310
H121	H	0.562112	-0.052119	0.055916
H122	H	1.062112	0.447881	0.555916
H123	H	0.566657	-0.058896	-0.039961
H124	H	1.066657	0.441104	0.460039
H125	H	0.816530	0.430334	0.321123
H126	H	1.316530	0.930334	0.821123
H127	H	0.933813	-0.328304	-0.158238
H128	H	1.433813	0.171696	0.341762
C129	C	0.837997	0.398153	0.547213
C130	C	1.337997	0.898153	1.047213
H131	H	0.848211	0.382780	0.491109
H132	H	1.348211	0.882780	0.991109
H133	H	0.846877	0.482485	0.549404
H134	H	1.346877	0.982485	1.049404
H135	H	0.784766	0.380539	0.564081
H136	H	1.284766	0.880539	1.064081
C137	C	0.923599	-0.167446	0.107283
C138	C	1.423599	0.332554	0.607283
H139	H	0.922092	-0.254292	0.108861
H140	H	1.422092	0.245708	0.608861
H141	H	0.877002	-0.139260	0.134349
H142	H	1.377002	0.360740	0.634349
H143	H	0.968279	-0.149088	0.135761
H144	H	1.468279	0.350912	0.635761
C145	C	0.936675	-0.103106	-0.140299
C146	C	1.436675	0.396894	0.359701
H147	H	0.938192	-0.016261	-0.141876
H148	H	1.438192	0.483739	0.358124
H149	H	0.892004	-0.121468	-0.168780
H150	H	1.392004	0.378532	0.331220
H151	H	0.983280	-0.131290	-0.167361
H152	H	1.483280	0.368710	0.332639
C153	C	1.029451	0.110161	0.196106
C154	C	1.529451	0.610161	0.696106
H155	H	1.058826	0.065979	0.241008
H156	H	1.558826	0.565979	0.741008
H157	H	1.064264	0.155468	0.155477
H158	H	1.564264	0.655468	0.655477
H159	H	1.002167	0.053499	0.170176
H160	H	1.502167	0.553499	0.670176
C161	C	0.829378	0.410973	0.728916
C162	C	1.329378	0.910973	1.228916
H163	H	0.799974	0.455118	0.684024
H164	H	1.299974	0.955118	1.184024
H165	H	0.856614	0.467656	0.754867
H166	H	1.356614	0.967656	1.254867
H167	H	0.794586	0.365584	0.769534
H168	H	1.294586	0.865584	1.269534
C169	C	0.809557	0.440799	0.148549
C170	C	1.309557	0.940799	0.648549
H171	H	0.819770	0.425414	0.092448
H172	H	1.319770	0.925414	0.592448
H173	H	0.818418	0.525141	0.150727
H174	H	1.318418	1.025141	0.650727
H175	H	0.756330	0.423159	0.165427
H176	H	1.256330	0.923159	0.665427
H177	H	0.330725	0.093974	-0.013514
H178	H	0.830725	0.593974	0.486486
H179	H	0.676743	0.446073	-0.064180
H180	H	1.176743	0.946073	0.435820
C181	C	0.719692	0.010454	-0.001502
C182	C	1.219692	0.510454	0.498498
H183	H	0.688321	-0.060624	0.008722
H184	H	1.188321	0.439376	0.508722
H185	H	0.749711	0.013258	0.046516
H186	H	1.249711	0.513258	0.546516
H187	H	0.754243	0.006458	-0.049358
H188	H	1.254243	0.506458	0.450642
C189	C	0.514161	0.457668	-0.065857
C190	C	1.014161	0.957668	0.434143
H191	H	0.545533	0.528743	-0.076096
H192	H	1.045533	1.028743	0.423904
H193	H	0.479606	0.461671	-0.018009
H194	H	0.979606	0.961671	0.481991
H195	H	0.484144	0.454860	-0.113881
H196	H	0.984144	0.954860	0.386119
H197	H	0.301767	0.499155	-0.071824
H198	H	0.801767	0.999155	0.428176
