data_functionalizedCrystal
_audit_creation_method	'MofGen! by Chris Wilmer'
_symmetry_space_group_name_H-M	'P1'
_symmetry_Int_Tables_number	1
_symmetry_cell_setting	triclinic
loop_
_symmetry_equiv_pos_as_xyz
  x,y,z
_cell_length_a	16.109302
_cell_length_b	14.853567
_cell_length_c	14.586319
_cell_angle_alpha	90.000002
_cell_angle_beta	89.994552
_cell_angle_gamma	83.548356
loop_
_atom_site_label
_atom_site_type_symbol
_atom_site_fract_x
_atom_site_fract_y
_atom_site_fract_z
O1	O	1.103293	0.115884	-0.076274
O2	O	0.861252	0.130304	-0.076266
O3	O	0.988738	-0.008146	-0.076273
O4	O	0.975807	0.254334	-0.076267
O5	O	0.988729	-0.008148	0.076208
O6	O	0.861243	0.130302	0.076215
O7	O	1.103284	0.115882	0.076207
Cu8	Cu	0.982263	0.123092	0.090134
Cu9	Cu	0.982273	0.123094	-0.090192
O10	O	0.975798	0.254332	0.076214
C11	C	0.830271	0.129719	-0.000024
C12	C	0.737974	0.127967	-0.000021
C13	C	0.525622	0.123916	0.083087
C14	C	0.438900	0.122261	0.083083
C15	C	0.438920	0.122267	-0.083160
C16	C	0.525642	0.123916	-0.083155
C17	C	0.568990	0.124745	-0.000030
C18	C	0.395546	0.121441	-0.000037
C19	C	0.301518	0.119646	-0.000041
C20	C	0.663024	0.126539	-0.000025
C21	C	0.988147	-0.041735	-0.000035
C22	C	0.986392	-0.141816	-0.000043
C23	C	0.903240	-0.554213	-0.000022
C24	C	1.054697	-0.575743	-0.000028
C25	C	1.056348	-0.481712	-0.000033
C26	C	0.981444	-0.423927	-0.000032
C27	C	0.904889	-0.460173	-0.000025
C28	C	1.132901	-0.445459	-0.000031
C29	C	1.134555	-0.351423	-0.000035
C30	C	1.059650	-0.293636	-0.000040
C31	C	0.983092	-0.329887	-0.000035
C32	C	0.908188	-0.272102	-0.000033
C33	C	0.831630	-0.308351	-0.000034
C34	C	0.829984	-0.402385	-0.000031
C35	C	1.061296	-0.199601	-0.000044
C36	C	0.909837	-0.178062	-0.000036
C37	C	1.134264	0.116467	-0.000036
C38	C	1.226562	0.118219	-0.000045
C39	C	0.976389	0.287921	-0.000026
C40	C	0.978144	0.388002	-0.000024
N41	N	0.982261	0.123090	0.216966
N42	N	0.982281	0.123089	-0.217024
C43	C	1.038731	0.061804	0.451969
C44	C	1.038733	0.061802	0.547950
C45	C	0.925805	0.184378	0.547966
C46	C	0.925800	0.184375	0.451986
C47	C	0.982267	0.123089	0.403990
C48	C	0.982275	0.123090	0.595951
C49	C	0.982277	0.123088	0.700018
C50	C	0.982264	0.123090	0.299917
H51	H	0.848840	-0.131018	-0.000039
H52	H	0.403594	0.121586	0.150765
C53	C	0.391234	0.121362	-0.174594
C54	C	0.438940	0.122269	-0.266022
C55	C	0.391256	0.121366	-0.357459
C56	C	0.295866	0.119555	-0.357469
C57	C	0.248154	0.118647	-0.266038
C58	C	0.295838	0.119551	-0.174601
H59	H	0.509559	0.123610	-0.266017
H60	H	0.426576	0.122037	-0.425142
H61	H	0.260567	0.118886	-0.425156
H62	H	0.177535	0.117307	-0.266042
H63	H	0.260518	0.118880	-0.106918
C64	C	0.819027	-0.594078	-0.000023
C65	C	0.756787	-0.572259	-0.079202
C66	C	0.672572	-0.612123	-0.079203
C67	C	0.650598	-0.673806	-0.000025
C68	C	0.712840	-0.695628	0.079160
C69	C	0.797054	-0.655764	0.079161
H70	H	0.773052	-0.526595	-0.137820
H71	H	0.626497	-0.595969	-0.137821
H72	H	0.588258	-0.703316	-0.000025
H73	H	0.696575	-0.741292	0.137778
H74	H	0.843130	-0.671918	0.137779
H75	H	0.770643	-0.261290	-0.000027
C76	C	0.573351	0.124829	-0.174590
C77	C	0.570788	0.046368	-0.243169
C78	C	0.618498	0.047276	-0.334599
C79	C	0.668772	0.126646	-0.357451
C80	C	0.671338	0.205114	-0.288870
C81	C	0.623627	0.204205	-0.197440
H82	H	0.533570	-0.012392	-0.226255
H83	H	0.616598	-0.010811	-0.385367
H84	H	0.704090	0.127319	-0.425133
H85	H	0.708555	0.263873	-0.305785
H86	H	0.625527	0.262292	-0.146672
H87	H	0.767654	-0.431908	-0.000030
H88	H	0.879816	0.234281	0.412920
C89	C	1.137086	-0.639306	-0.000026
C90	C	1.199784	-0.635259	0.079150
C91	C	1.282177	-0.698827	0.079151
C92	C	1.301872	-0.766442	-0.000025
C93	C	1.239172	-0.770491	-0.079207
C94	C	1.156779	-0.706923	-0.079207
H95	H	1.185207	-0.585203	0.137766
H96	H	1.328592	-0.695828	0.137767
H97	H	1.362864	-0.813499	-0.000024
H98	H	1.253750	-0.820547	-0.137822
H99	H	1.110365	-0.709922	-0.137823
C100	C	0.573307	0.124824	0.174522
C101	C	0.525599	0.123911	0.265948
C102	C	0.573281	0.124819	0.357387
C103	C	0.668670	0.126640	0.357399
C104	C	0.716383	0.127553	0.265969
C105	C	0.668702	0.126645	0.174531
H106	H	0.454981	0.122563	0.265942
H107	H	0.537960	0.124143	0.425069
H108	H	0.703967	0.127312	0.425087
H109	H	0.787001	0.128901	0.265975
H110	H	0.704022	0.127322	0.106849
H111	H	1.193884	-0.492515	-0.000023
C112	C	1.218767	-0.311555	-0.000047
C113	C	1.281017	-0.333362	0.079125
C114	C	1.365229	-0.293494	0.079108
C115	C	1.387192	-0.231818	-0.000081
C116	C	1.324940	-0.210008	-0.079259
C117	C	1.240728	-0.249876	-0.079242
H118	H	1.264760	-0.379021	0.137751
H119	H	1.411312	-0.309640	0.137722
H120	H	1.449531	-0.202305	-0.000094
H121	H	1.341197	-0.164349	-0.137885
H122	H	1.194645	-0.233731	-0.137855
C123	C	1.145499	-0.159724	-0.000040
C124	C	1.207737	-0.181530	0.079144
C125	C	1.291945	-0.141653	0.079149
C126	C	1.313916	-0.079971	-0.000031
C127	C	1.251678	-0.058162	-0.079221
C128	C	1.167469	-0.098039	-0.079225
H129	H	1.191474	-0.227194	0.137763
H130	H	1.338018	-0.157798	0.137771
H131	H	1.376253	-0.050452	-0.000028
H132	H	1.267941	-0.012498	-0.137840
H133	H	1.121396	-0.081894	-0.137847
C134	C	1.100837	-0.005615	0.399173
C135	C	1.162942	-0.073031	0.451954
C136	C	1.225048	-0.140455	0.399161
C137	C	1.225049	-0.140463	0.293587
C138	C	1.162942	-0.073044	0.240800
C139	C	1.100836	-0.005621	0.293593
H140	H	1.162943	-0.073027	0.530111
H141	H	1.271024	-0.190362	0.438238
H142	H	1.271024	-0.190374	0.254507
H143	H	1.162940	-0.073048	0.162643
H144	H	1.054860	0.044287	0.254516
C145	C	0.863699	0.251797	0.600762
C146	C	0.863747	0.251857	0.706336
C147	C	0.801641	0.319281	0.759128
C148	C	0.739487	0.386645	0.706347
C149	C	0.739438	0.386587	0.600768
C150	C	0.801544	0.319163	0.547975
H151	H	0.909758	0.201989	0.745413
H152	H	0.801678	0.319323	0.837286
H153	H	0.693513	0.436556	0.745428
H154	H	0.693426	0.436456	0.561691
H155	H	0.801507	0.319121	0.469818
H156	H	1.084710	0.011897	0.587012
