data_functionalizedCrystal
_audit_creation_method	'MofGen! by Chris Wilmer'
_symmetry_space_group_name_H-M	'P1'
_symmetry_Int_Tables_number	1
_symmetry_cell_setting	triclinic
loop_
_symmetry_equiv_pos_as_xyz
  x,y,z
_cell_length_a	8.497374
_cell_length_b	17.077404
_cell_length_c	17.077402
_cell_angle_alpha	89.976892
_cell_angle_beta	89.987778
_cell_angle_gamma	90.003463
loop_
_atom_site_label
_atom_site_type_symbol
_atom_site_fract_x
_atom_site_fract_y
_atom_site_fract_z
Zn1	Zn	0.891988	1.199930	0.312640
Zn2	Zn	0.628173	1.199874	0.443874
Zn3	Zn	0.628207	1.068699	0.312627
Zn4	Zn	0.891897	1.068630	0.443868
O5	O	0.760066	1.134283	0.378252
O6	O	0.857016	1.309770	0.330056
O7	O	0.407415	1.182479	0.426461
O8	O	0.663251	1.086159	0.202782
O9	O	0.663193	1.309729	0.426474
O10	O	0.857049	1.182574	0.202791
O11	O	0.407440	1.086105	0.330034
O12	O	0.663162	0.958843	0.330028
O13	O	1.112671	1.086042	0.426463
O14	O	0.856894	0.958792	0.426450
O15	O	1.112738	1.182508	0.330050
O16	O	0.663104	1.182412	0.553720
O17	O	0.856861	1.085988	0.553716
C18	C	0.760023	0.930336	0.378238
C19	C	0.760042	0.843086	0.378251
C20	C	0.860756	0.802090	0.428533
C21	C	0.860781	0.720109	0.428535
C22	C	0.760083	0.679126	0.378257
C23	C	0.659364	0.720128	0.327969
C24	C	0.659348	0.802107	0.327964
C25	C	0.659402	0.549258	0.327985
C26	C	0.659416	0.467273	0.327991
C27	C	0.860835	0.467260	0.428556
C28	C	0.860819	0.549239	0.428551
C29	C	0.760098	0.590235	0.378263
C30	C	0.760003	1.134208	0.582200
C31	C	0.760029	1.134247	0.669450
C32	C	1.171547	1.134278	0.378253
C33	C	1.350191	1.134279	0.378262
C34	C	0.760111	1.339028	0.378267
C35	C	0.760130	1.426277	0.378273
C36	C	0.760164	1.134381	0.173508
C37	C	0.760206	1.134422	0.086258
C38	C	0.659248	1.184506	0.710416
C39	C	0.659289	1.184545	0.792397
C40	C	0.760103	1.134319	0.833409
C41	C	0.860895	1.084058	0.792437
C42	C	0.860861	1.084024	0.710458
C43	C	0.860955	1.084130	0.963307
C44	C	0.860986	1.084163	1.045291
C45	C	0.659382	1.184651	1.045246
C46	C	0.659349	1.184618	0.963267
C47	C	0.760139	1.134355	0.922300
H48	H	0.577381	0.686753	0.287029
O49	O	0.561199	1.233367	0.923513
C50	C	0.403939	1.216276	0.943574
H51	H	0.400630	1.186129	1.003122
H52	H	0.333307	1.272960	0.946343
H53	H	0.350714	1.175921	0.897479
O54	O	0.561562	1.233628	1.084906
C55	C	0.596290	1.311815	1.064751
H56	H	0.656973	1.313321	1.005228
H57	H	0.482532	1.347082	1.061880
H58	H	0.677443	1.338265	1.110846
O59	O	0.561470	1.233525	0.832046
C60	C	0.596229	1.311702	0.811870
H61	H	0.656935	1.313186	0.752352
H62	H	0.482483	1.346978	0.808977
H63	H	0.677373	1.338161	0.857964
O64	O	0.958925	1.035314	0.670623
C65	C	1.060850	1.079946	0.623133
H66	H	1.070714	1.141775	0.647790
H67	H	1.182207	1.051506	0.622199
H68	H	1.012051	1.082648	0.561011
H69	H	0.943108	1.043279	1.078682
O70	O	0.958921	1.035236	0.923632
C71	C	1.047940	0.990927	0.977408
H72	H	0.983338	0.988255	1.035859
H73	H	1.064657	0.929064	0.953766
H74	H	1.167805	1.019629	0.986081
H75	H	0.942807	0.582606	0.469495
H76	H	0.942986	1.043166	0.825836
H77	H	0.942791	0.686734	0.469481
O78	O	0.958803	0.841863	0.477290
C79	C	1.116096	0.821832	0.460269
H80	H	1.124286	0.799319	0.397567
H81	H	1.194003	0.875748	0.467088
H82	H	1.157192	0.774235	0.502388
O83	O	0.958635	0.427320	0.477328
C84	C	0.937041	0.346175	0.466565
H85	H	0.885600	0.334995	0.405945
H86	H	1.055198	0.315030	0.471986
H87	H	0.852865	0.322886	0.513059
O88	O	0.561558	0.427582	0.279074
C89	C	0.472638	0.481343	0.234696
H90	H	0.537249	0.539788	0.232024
H91	H	0.456053	0.457671	0.172838
H92	H	0.352711	0.490042	0.263339
H93	H	0.577398	0.582634	0.287028
H94	H	0.577147	1.225403	0.677029
O95	O	0.561356	0.841812	0.279099
C96	C	0.472503	0.788062	0.234711
H97	H	0.466940	0.729613	0.266862
H98	H	0.348231	0.811741	0.226242
H99	H	0.530485	0.779370	0.175139
