data_functionalizedCrystal
_audit_creation_method	'MofGen! by Chris Wilmer'
_symmetry_space_group_name_H-M	'P1'
_symmetry_Int_Tables_number	1
_symmetry_cell_setting	triclinic
loop_
_symmetry_equiv_pos_as_xyz
  x,y,z
_cell_length_a	11.169417
_cell_length_b	21.295416
_cell_length_c	11.169409
_cell_angle_alpha	90.038926
_cell_angle_beta	89.980176
_cell_angle_gamma	89.968790
loop_
_atom_site_label
_atom_site_type_symbol
_atom_site_fract_x
_atom_site_fract_y
_atom_site_fract_z
Zn1	Zn	1.834796	0.250543	-0.678488
Zn2	Zn	2.334796	0.750543	-0.178488
Zn3	Zn	1.834615	0.355832	-0.477782
Zn4	Zn	2.334615	0.855832	0.022218
Zn5	Zn	1.634081	0.250582	-0.477822
Zn6	Zn	2.134081	0.750582	0.022178
Zn7	Zn	1.634019	0.355780	-0.678426
Zn8	Zn	2.134019	0.855780	-0.178426
O9	O	1.734378	0.303184	-0.578129
O10	O	2.234378	0.803184	-0.078129
O11	O	2.002721	0.264516	-0.651872
O12	O	2.502721	0.764516	-0.151872
O13	O	1.807964	0.341908	-0.309837
O14	O	2.307964	0.841908	0.190163
O15	O	1.660808	0.162487	-0.504483
O16	O	2.160808	0.662487	-0.004483
O17	O	2.002589	0.341870	-0.504414
O18	O	2.502589	0.841870	-0.004414
O19	O	1.808272	0.162459	-0.651912
O20	O	2.308272	0.662459	-0.151912
O21	O	1.660633	0.264581	-0.309867
O22	O	2.160633	0.764581	0.190133
O23	O	1.466124	0.264531	-0.504424
O24	O	1.966124	0.764531	-0.004424
O25	O	1.660702	0.341783	-0.846384
O26	O	2.160702	0.841783	-0.346384
O27	O	1.466078	0.341820	-0.651807
O28	O	1.966078	0.841820	-0.151807
O29	O	1.808212	0.264466	-0.846429
O30	O	2.308212	0.764466	-0.346429
O31	O	1.807904	0.443914	-0.504355
O32	O	2.307904	0.943914	-0.004355
O33	O	1.660527	0.443877	-0.651768
O34	O	2.160527	0.943877	-0.151768
C35	C	1.422553	0.303175	-0.578114
C36	C	1.922553	0.803175	-0.078114
C37	C	1.289153	0.303186	-0.578136
C38	C	1.789153	0.803186	-0.078136
C39	C	1.734221	0.466736	-0.578076
C40	C	2.234221	0.966736	-0.078076
C41	C	1.734264	0.536704	-0.578094
C42	C	2.234264	1.036704	-0.078094
C43	C	1.811072	0.569569	-0.501417
C44	C	2.311072	1.069569	-0.001417
C45	C	1.811129	0.635312	-0.501450
C46	C	2.311129	1.135312	-0.001450
C47	C	1.734356	0.668187	-0.578146
C48	C	2.234356	1.168187	-0.078146
C49	C	1.657543	0.635313	-0.654838
C50	C	2.157543	1.135313	-0.154838
C51	C	1.657497	0.569572	-0.654812
C52	C	2.157497	1.069572	-0.154812
N53	N	1.629367	0.771452	-0.587299
N54	N	2.129367	1.271452	-0.087299
N55	N	1.629414	0.833904	-0.587317
N56	N	2.129414	1.333904	-0.087317
C57	C	1.734492	0.866261	-0.578231
C58	C	2.234492	1.366261	-0.078231
N59	N	1.839523	0.833808	-0.569104
N60	N	2.339523	1.333808	-0.069104
N61	N	1.839475	0.771351	-0.569080
N62	N	2.339475	1.271351	-0.069080
C63	C	1.734398	0.739472	-0.578184
C64	C	2.234398	1.239472	-0.078184
C65	C	1.811367	0.970412	-0.501586
C66	C	2.311367	1.470412	-0.001586
C67	C	1.811426	1.036156	-0.501627
C68	C	2.311426	1.536156	-0.001627
C69	C	1.657830	1.036156	-0.655008
C70	C	2.157830	1.536156	-0.155008
C71	C	1.657782	0.970413	-0.654974
C72	C	2.157782	1.470413	-0.154974
C73	C	1.734549	0.937546	-0.578256
C74	C	2.234549	1.437546	-0.078256
C75	C	2.047420	0.303194	-0.578146
C76	C	2.547420	0.803194	-0.078146
C77	C	2.180820	0.303199	-0.578153
C78	C	2.680820	0.803199	-0.078153
C79	C	1.734470	0.303114	-0.891172
C80	C	2.234470	0.803114	-0.391172
C81	C	1.734509	0.303085	-1.024572
C82	C	2.234509	0.803085	-0.524572
C83	C	1.734569	1.138994	-0.578230
C84	C	2.234569	1.638994	-0.078230
C85	C	1.734654	1.069026	-0.578325
C86	C	2.234654	1.569026	-0.078325
C87	C	1.734355	0.303209	-0.266305
C88	C	2.234355	0.803209	0.233695
C89	C	1.734548	0.303061	-0.132905
C90	C	2.234548	0.803061	0.367095
H91	H	1.873583	0.542810	-0.438952
H92	H	2.373583	1.042810	0.061048
H93	H	1.873880	0.943650	-0.439121
H94	H	2.373880	1.443650	0.060879
H95	H	1.873979	1.062914	-0.439190
H96	H	2.373979	1.562914	0.060810
H97	H	1.595233	0.943653	-0.717406
H98	H	2.095233	1.443653	-0.217406
H99	H	1.873679	0.662076	-0.439011
H100	H	2.373679	1.162076	0.060989
H101	H	1.595037	0.662084	-0.717286
H102	H	2.095037	1.162084	-0.217286
H103	H	1.594950	0.542812	-0.717252
H104	H	2.094950	1.042812	-0.217252
H105	H	1.595326	1.062922	-0.717461
H106	H	2.095326	1.562922	-0.217461
