data_functionalizedCrystal
_audit_creation_method	'MofGen! by Chris Wilmer'
_symmetry_space_group_name_H-M	'P1'
_symmetry_Int_Tables_number	1
_symmetry_cell_setting	triclinic
loop_
_symmetry_equiv_pos_as_xyz
  x,y,z
_cell_length_a	14.446369
_cell_length_b	23.196402
_cell_length_c	23.196402
_cell_angle_alpha	60.003509
_cell_angle_beta	89.998085
_cell_angle_gamma	59.998062
loop_
_atom_site_label
_atom_site_type_symbol
_atom_site_fract_x
_atom_site_fract_y
_atom_site_fract_z
Zr1	Zr	-0.121462	0.630979	0.555429
O2	O	-0.269261	0.751245	0.463389
O3	O	-0.076159	0.510716	0.583636
O4	O	-0.269273	0.630984	0.583646
O5	O	0.076190	0.630973	0.463380
O6	O	-0.269276	0.630984	0.678517
O7	O	-0.076148	0.630978	0.463379
O8	O	0.076169	0.415847	0.678499
O9	O	-0.269256	0.846110	0.463398
O10	O	-0.056834	0.560181	0.666477
O11	O	0.056856	0.560177	0.595678
O12	O	-0.170511	0.701777	0.595689
O13	O	-0.056821	0.701773	0.524890
Zr14	Zr	0.121492	0.630970	0.706740
Zr15	Zr	-0.121468	0.630979	0.706737
Zr16	Zr	0.121498	0.630971	0.555432
Zr17	Zr	-0.121453	0.782276	0.555444
Zr18	Zr	0.121483	0.479673	0.706725
O19	O	0.076189	0.751233	0.678533
O20	O	-0.269269	0.751245	0.678529
O21	O	0.076197	0.751234	0.463392
O22	O	0.269291	0.510704	0.798780
O23	O	-0.076167	0.510716	0.798777
O24	O	0.269299	0.510704	0.583640
O25	O	-0.076160	0.630977	0.798789
O26	O	0.269303	0.630965	0.678523
O27	O	0.269306	0.630966	0.583652
O28	O	0.076177	0.630972	0.798790
O29	O	-0.269260	0.846109	0.583668
O30	O	0.269290	0.415840	0.678501
O31	O	0.269285	0.415840	0.798771
O32	O	0.076164	0.415846	0.798769
O33	O	-0.076135	0.846103	0.463400
O34	O	-0.076139	0.846103	0.583670
O35	O	0.170540	0.560173	0.666480
O36	O	0.056850	0.560176	0.737279
O37	O	-0.056826	0.701773	0.666492
O38	O	0.056864	0.701769	0.595692
C39	C	0.000003	0.441725	0.631065
C40	C	-0.000000	0.377495	0.631059
C41	C	0.083914	0.295064	0.683326
C42	C	0.083924	0.234703	0.683330
C43	C	0.000003	0.256779	0.631074
C44	C	-0.083918	0.339225	0.578798
C45	C	-0.083920	0.399583	0.578791
C46	C	-0.102429	0.201196	0.614799
C47	C	-0.102427	0.140837	0.614811
C48	C	0.000008	0.070618	0.631093
C49	C	0.102449	0.060755	0.647377
C50	C	0.102447	0.121113	0.647370
C51	C	-0.000004	0.191337	0.631076
C52	C	0.083940	-0.077267	0.683368
C53	C	0.083951	-0.137627	0.683368
C54	C	-0.083901	-0.033102	0.578838
C55	C	-0.083903	0.027255	0.578835
C56	C	0.000017	0.005167	0.631104
C57	C	-0.303891	0.630985	0.631081
C58	C	-0.407034	0.630989	0.631080
C59	C	-0.625396	0.720284	0.586218
C60	C	-0.518164	0.720344	0.586408
C61	C	-0.410363	0.586630	0.708008
C62	C	-0.518132	0.587197	0.707767
C63	C	-0.516765	0.585358	0.599650
C64	C	-0.410795	0.587041	0.598088
C65	C	0.303921	0.630964	0.631088
C66	C	0.407064	0.630961	0.631089
C67	C	0.000022	0.630975	0.441821
C68	C	0.000024	0.630975	0.377587
C69	C	0.000026	0.820225	0.631104
C70	C	0.000030	0.884454	0.631110
C71	C	0.083921	0.630981	-0.085252
C72	C	0.083931	0.630975	-0.024894
C73	C	0.000006	0.630979	0.005287
C74	C	-0.083917	0.630968	-0.024885
C75	C	-0.083918	0.630965	-0.085237
C76	C	-0.102428	0.678487	0.077156
C77	C	-0.102428	0.678494	0.137504
C78	C	0.000006	0.630984	0.191435
C79	C	0.102448	0.583476	0.185005
C80	C	0.102447	0.583473	0.124652
C81	C	-0.000003	0.630982	0.070729
C82	C	0.083939	0.630983	0.287049
C83	C	0.083949	0.630973	0.347410
C84	C	-0.083908	0.630973	0.347414
C85	C	-0.083909	0.630976	0.287058
C86	C	0.000014	0.630985	0.256877
C87	C	0.000008	0.630974	0.820348
C88	C	0.000006	0.630974	0.884582
C89	C	-0.000003	0.441724	0.820329
C90	C	-0.000010	0.377495	0.884556
C91	C	0.303910	0.441714	0.631069
C92	C	0.407049	0.377481	0.631064
C93	C	0.303903	0.441714	0.820332
C94	C	0.407039	0.377481	0.884561
C95	C	-0.303873	0.820235	0.441837
C96	C	-0.407010	0.884469	0.377608
C97	C	0.000033	0.820225	0.441840
C98	C	0.000039	0.884455	0.377613
C99	C	-0.303880	0.820235	0.631100
C100	C	-0.407019	0.884468	0.631106
C101	C	-0.059365	0.347334	0.877760
C102	C	-0.059394	0.286991	0.938103
C103	C	-0.000059	0.256807	1.005242
C104	C	0.059298	0.286974	1.012036
C105	C	0.059319	0.347319	0.951694
C106	C	0.514836	0.347315	0.668019
C107	C	0.611756	0.286969	0.668011
C108	C	0.600885	0.256787	0.631052
C109	C	0.493086	0.286960	0.594092
C110	C	0.396169	0.347309	0.594096
C111	C	0.396128	0.347318	0.951686
C112	C	0.493027	0.286972	1.012042
C113	C	0.600835	0.256786	1.005271
C114	C	0.611744	0.286955	0.938138
C115	C	0.514847	0.347304	0.877784
C116	C	-0.396099	0.914639	0.310483
C117	C	-0.492997	0.975003	0.250127
C118	C	-0.600806	1.005192	0.256898
C119	C	-0.611715	0.975020	0.324031
C120	C	-0.514817	0.914661	0.384385
C121	C	0.059385	0.914622	0.384409
C122	C	0.059386	0.974981	0.324066
C123	C	0.000049	1.005168	0.256928
C124	C	-0.059304	0.974998	0.250133
C125	C	-0.059312	0.914644	0.310475
C126	C	-0.396112	0.914631	0.668072
C127	C	-0.493013	0.974977	0.668091
C128	C	-0.600820	1.005163	0.631139
C129	C	-0.611724	0.974994	0.594171
C130	C	-0.514825	0.914645	0.594156
H131	H	0.152249	0.277072	0.725886
Br132	Br	-0.529648	0.873724	0.543976
Br133	Br	-0.139825	1.015972	0.159011
H134	H	0.484251	0.262377	0.564000
H135	H	-0.679697	1.054340	0.207749
Br136	Br	0.249829	0.388276	0.960896
Br137	Br	0.529675	0.388228	0.786687
H138	H	-0.152240	0.094376	0.536278
H139	H	-0.519783	0.755155	0.529760
Br140	Br	0.139888	0.388240	0.960930
Br141	Br	0.139920	0.873670	0.475518
Br142	Br	-0.249799	0.873679	0.301273
H143	H	0.152260	0.167575	0.725893
Br144	Br	-0.139953	0.246062	0.928865
Br145	Br	0.529621	0.388258	0.718188
Br146	Br	-0.758035	1.015998	0.333209
Br147	Br	-0.529646	0.873719	0.475482
H148	H	-0.679712	1.054303	0.631156
H149	H	0.699521	0.262410	0.698111
Br150	Br	-0.758043	1.015977	0.544017
H151	H	-0.491483	0.521662	0.743016
Br152	Br	-0.411649	0.640944	0.503626
Br153	Br	0.732429	0.174885	0.631053
H154	H	0.308407	0.371862	0.564004
H155	H	0.484125	0.262415	1.066699
H156	H	-0.152249	0.630969	-0.000308
H157	H	0.000064	1.054312	0.207799
Br158	Br	0.758065	0.245980	0.928960
Br159	Br	0.139945	1.015911	0.333304
H160	H	-0.484093	0.999559	0.195471
Br161	Br	0.732330	0.174884	1.087188
Br162	Br	-0.000100	0.174908	1.087128
H163	H	0.107605	0.262389	1.066708
H164	H	-0.107634	0.890084	0.304932
H165	H	-0.484111	0.999534	0.698194
H166	H	0.185858	0.113081	0.660627
Br167	Br	0.241482	-0.034550	0.669498
Br168	Br	0.197817	0.630989	-0.126210
Br169	Br	0.197828	-0.107238	0.754301
Br170	Br	-0.249815	0.873677	0.718228
H171	H	-0.332101	0.520930	0.742890
Br172	Br	0.197856	-0.249506	0.754301
H173	H	-0.152230	-0.015126	0.536289
Br174	Br	-0.241452	0.154225	0.592713
H175	H	-0.185851	0.258374	0.601534
H176	H	-0.152247	0.357196	0.536250
Br177	Br	-0.197811	0.511463	0.507851
H178	H	-0.680375	0.755169	0.607823
Br179	Br	-0.715319	0.778719	0.491556
Br180	Br	0.241475	0.518989	0.258192
H181	H	-0.331643	0.521851	0.627373
Br182	Br	0.197852	0.630972	0.388359
Br183	Br	-0.139904	0.388287	0.786651
H184	H	-0.520616	0.755369	0.608215
H185	H	-0.568477	0.618722	0.732935
H186	H	-0.408221	0.617438	0.733354
H187	H	-0.566784	0.613940	0.543861
H188	H	-0.489321	0.519556	0.632177
H189	H	0.185858	0.544789	0.119420
Br190	Br	0.197828	0.630983	0.016054
H191	H	0.152277	0.630987	0.262476
H192	H	-0.152238	0.630972	0.371989
Br193	Br	-0.197803	0.630970	0.246111
H194	H	-0.185841	0.717179	0.142734
H195	H	-0.152253	0.630959	-0.109799
Br196	Br	-0.241462	0.742947	0.003979
