data_functionalizedCrystal
_audit_creation_method	'MofGen! by Chris Wilmer'
_symmetry_space_group_name_H-M	'P1'
_symmetry_Int_Tables_number	1
_symmetry_cell_setting	triclinic
loop_
_symmetry_equiv_pos_as_xyz
  x,y,z
_cell_length_a	12.759401
_cell_length_b	12.759400
_cell_length_c	12.759393
_cell_angle_alpha	89.974455
_cell_angle_beta	90.018894
_cell_angle_gamma	90.000875
loop_
_atom_site_label
_atom_site_type_symbol
_atom_site_fract_x
_atom_site_fract_y
_atom_site_fract_z
Zn1	Zn	-1.606329	-0.418312	-0.594069
Zn2	Zn	-1.606262	-0.594032	-0.418408
Zn3	Zn	-1.430634	-0.418355	-0.418404
Zn4	Zn	-1.430655	-0.593938	-0.594045
O5	O	-1.518470	-0.506159	-0.506232
O6	O	-1.753341	-0.441643	-0.570779
O7	O	-1.582928	-0.570785	-0.271387
O8	O	-1.453960	-0.271328	-0.441715
O9	O	-1.753292	-0.570743	-0.441722
O10	O	-1.583042	-0.271297	-0.570775
O11	O	-1.453895	-0.441716	-0.271383
O12	O	-1.283616	-0.441625	-0.441691
O13	O	-1.453995	-0.570583	-0.741070
O14	O	-1.283631	-0.570625	-0.570734
O15	O	-1.583062	-0.441552	-0.741087
O16	O	-1.582949	-0.741040	-0.441699
O17	O	-1.453931	-0.740971	-0.570739
C18	C	-1.245503	-0.506120	-0.506210
C19	C	-1.128726	-0.506129	-0.506226
C20	C	-1.073883	-0.439030	-0.573529
C21	C	-0.964159	-0.439045	-0.573533
C22	C	-0.964131	-0.573265	-0.438928
C23	C	-1.073853	-0.573245	-0.438920
C24	C	-1.128756	-0.371915	-0.640835
C25	C	-1.073912	-0.304811	-0.708144
C26	C	-0.964188	-0.304826	-0.708148
C27	C	-0.909307	-0.371943	-0.640843
C28	C	-1.518463	-0.779126	-0.506239
C29	C	-1.518557	-0.895903	-0.506278
C30	C	-1.518538	-0.506052	-0.780265
C31	C	-1.518567	-0.506007	-0.897042
C32	C	-0.792503	-0.506186	-0.506248
C33	C	-0.909280	-0.506164	-0.506238
C34	C	-1.518506	-0.232126	-0.506247
C35	C	-1.518521	-0.115349	-0.506253
C36	C	-1.451328	-0.060502	-0.439062
C37	C	-1.451343	0.049222	-0.439077
C38	C	-1.585753	0.049242	-0.573477
C39	C	-1.585732	-0.060480	-0.573467
C40	C	-1.384117	-0.115371	-0.371849
C41	C	-1.316919	-0.060524	-0.304651
C42	C	-1.316934	0.049200	-0.304666
C43	C	-1.384147	0.104077	-0.371878
C44	C	-1.451408	-0.438788	-0.951908
C45	C	-1.451440	-0.438757	-1.061632
C46	C	-1.585799	-0.573165	-1.061614
C47	C	-1.585761	-0.573201	-0.951892
C48	C	-1.384214	-0.371593	-0.897058
C49	C	-1.317051	-0.304369	-0.951925
C50	C	-1.317082	-0.304337	-1.061649
C51	C	-1.384278	-0.371531	-1.116506
C52	C	-1.518463	-0.506190	-0.233264
C53	C	-1.518637	-0.505939	-0.116488
H54	H	-1.118603	-0.250160	-0.762935
C55	C	-0.903765	-0.647098	-0.364910
H56	H	-0.830564	-0.637508	-0.374563
H57	H	-0.921711	-0.631642	-0.294341
H58	H	-0.921770	-0.717706	-0.380182
H59	H	-1.262388	-0.249607	-1.106318
H60	H	-1.118508	-0.627883	-0.384116
C61	C	-1.659675	0.109599	-0.647410
H62	H	-1.699682	0.061218	-0.687436
H63	H	-1.705453	0.152385	-0.607240
H64	H	-1.619485	0.152419	-0.693186
C65	C	-1.384094	-0.236063	-0.371834
H66	H	-1.334439	-0.260888	-0.322188
H67	H	-1.451886	-0.260904	-0.353677
H68	H	-1.365925	-0.260857	-0.439630
H69	H	-1.640462	-0.627922	-0.907219
C70	C	-1.242989	-0.120883	-0.230728
H71	H	-1.252608	-0.194085	-0.240334
H72	H	-1.172405	-0.102885	-0.246096
H73	H	-1.258360	-0.102925	-0.160137
H74	H	-1.384296	-0.371503	-1.205851
H75	H	-0.819963	-0.371927	-0.640829
H76	H	-0.919537	-0.250180	-0.762947
C77	C	-1.243020	0.109530	-0.230755
H78	H	-1.202997	0.061134	-0.190722
H79	H	-1.197256	0.152355	-0.270939
H80	H	-1.283216	0.152308	-0.184985
C81	C	-1.384158	0.224771	-0.371897
H82	H	-1.334515	0.249579	-0.322252
H83	H	-1.366012	0.249617	-0.439697
H84	H	-1.451959	0.249575	-0.353730
H85	H	-1.218098	-0.371895	-0.640839
H86	H	-1.640434	-0.105138	-0.628192
C87	C	-1.384172	-0.371630	-0.776366
H88	H	-1.334531	-0.321991	-0.751555
H89	H	-1.451966	-0.353488	-0.751546
H90	H	-1.365973	-0.439436	-0.751538
C91	C	-1.243140	-0.230464	-0.891586
H92	H	-1.252745	-0.240101	-0.818381
H93	H	-1.172552	-0.245820	-0.909563
H94	H	-1.258542	-0.159868	-0.909581
H95	H	-1.640509	-0.627869	-1.106288
