data_functionalizedCrystal
_audit_creation_method	'MofGen! by Chris Wilmer'
_symmetry_space_group_name_H-M	'P1'
_symmetry_Int_Tables_number	1
_symmetry_cell_setting	triclinic
loop_
_symmetry_equiv_pos_as_xyz
  x,y,z
_cell_length_a	14.519709
_cell_length_b	16.992694
_cell_length_c	15.455313
_cell_angle_alpha	92.857794
_cell_angle_beta	92.669068
_cell_angle_gamma	92.825816
loop_
_atom_site_label
_atom_site_type_symbol
_atom_site_fract_x
_atom_site_fract_y
_atom_site_fract_z
O1	O	0.191795	-1.044092	-0.072025
O2	O	0.189648	-0.815805	-0.072051
O3	O	0.056918	-0.936001	-0.072029
O4	O	0.324525	-0.923896	-0.072046
O5	O	0.064474	-0.929127	0.072232
O6	O	0.197205	-0.808932	0.072210
O7	O	0.199352	-1.037219	0.072236
Cu8	Cu	0.198968	-0.922447	0.085395
Cu9	Cu	0.190031	-0.930576	-0.085210
O10	O	0.332082	-0.917023	0.072215
C11	C	0.026296	-0.932000	0.000101
C12	C	-0.076207	-0.930309	0.000102
C13	C	0.190666	-0.783152	0.000077
C14	C	0.182430	-0.696097	0.000067
C15	C	0.198333	-1.069872	0.000107
C16	C	0.206569	-1.156927	0.000111
C17	C	-0.451550	-0.924087	0.000078
C18	C	-0.347118	-0.925815	0.000085
C19	C	-0.263882	-0.927198	0.000091
C20	C	-0.159443	-0.928926	0.000096
C21	C	0.362704	-0.921024	0.000082
C22	C	0.465206	-0.922715	0.000076
N23	N	0.205254	-0.916736	0.205390
C24	C	0.261890	-0.645968	0.000063
C25	C	0.254147	-0.564170	0.000075
C26	C	0.166943	-0.532502	0.000086
C27	C	0.087478	-0.582638	0.000093
C28	C	0.095222	-0.664434	0.000087
C29	C	0.134847	-0.288859	0.000111
C30	C	0.127109	-0.207056	0.000115
C31	C	0.293779	-0.188594	0.000099
C32	C	0.301515	-0.270393	0.000087
C33	C	0.222050	-0.320520	0.000099
N34	N	0.159027	-0.448892	0.000096
N35	N	0.229968	-0.404129	0.000095
N36	N	0.183739	-0.936294	-0.205204
C37	C	0.148889	-0.967817	0.250793
C38	C	0.153651	-0.963505	0.341600
C39	C	0.214784	-0.908115	0.387002
C40	C	0.271151	-0.857028	0.341593
C41	C	0.266383	-0.861337	0.250787
C42	C	0.235339	-0.889516	0.658581
C43	C	0.240104	-0.885212	0.749392
C44	C	0.122602	-0.991689	0.749393
C45	C	0.117844	-0.995996	0.658586
C46	C	0.174208	-0.944907	0.613185
N47	N	0.219655	-0.903708	0.479822
N48	N	0.169331	-0.949311	0.520367
H49	H	0.332900	-0.671744	0.000054
F50	F	0.050272	-0.342198	0.000123
F51	F	0.394329	-0.304089	0.000072
H52	H	0.068065	-1.041099	0.621621
F53	F	0.062618	-1.046056	0.797718
F54	F	0.034292	-0.173355	0.000141
F55	F	0.336210	-0.798073	0.389914
F56	F	0.010650	-0.717785	0.000094
F57	F	0.093660	-1.017870	0.389922
F58	F	0.326372	-0.806967	0.202467
H59	H	0.318852	-0.523358	0.000071
F60	F	-0.005331	-0.548932	0.000110
H61	H	0.099112	-1.012925	0.213832
H62	H	0.289889	-0.840105	0.786355
H63	H	0.281234	-0.847918	0.621622
H64	H	0.358475	-0.147771	0.000091
