data_functionalizedCrystal
_audit_creation_method	'MofGen! by Chris Wilmer'
_symmetry_space_group_name_H-M	'P1'
_symmetry_Int_Tables_number	1
_symmetry_cell_setting	triclinic
loop_
_symmetry_equiv_pos_as_xyz
  x,y,z
_cell_length_a	16.120530
_cell_length_b	13.897448
_cell_length_c	13.897441
_cell_angle_alpha	90.030599
_cell_angle_beta	92.919063
_cell_angle_gamma	87.113275
loop_
_atom_site_label
_atom_site_type_symbol
_atom_site_fract_x
_atom_site_fract_y
_atom_site_fract_z
Zn1	Zn	1.274607	-0.458859	0.620100
Zn2	Zn	1.274515	-0.620175	0.458796
Zn3	Zn	1.135184	-0.450711	0.450646
Zn4	Zn	1.135168	-0.611923	0.611880
O5	O	1.204869	-0.535417	0.535356
O6	O	1.391262	-0.487122	0.605554
O7	O	1.256001	-0.597739	0.322732
O8	O	1.153724	-0.316813	0.473153
O9	O	1.391194	-0.605640	0.487045
O10	O	1.256157	-0.322799	0.597651
O11	O	1.153635	-0.473235	0.316743
O12	O	1.018515	-0.465232	0.465182
O13	O	1.153697	-0.591574	0.747954
O14	O	1.018503	-0.583674	0.583641
O15	O	1.256142	-0.479119	0.753994
O16	O	1.255986	-0.754060	0.479074
O17	O	1.153608	-0.747996	0.591544
C18	C	1.204808	-0.786028	0.535324
C19	C	1.204858	-0.893245	0.535347
C20	C	0.988259	-0.522674	0.522636
C21	C	0.895592	-0.517246	0.517217
C22	C	1.204945	-1.089545	0.535413
C23	C	1.204894	-0.980309	0.535379
C24	C	0.725929	-0.507313	0.507332
C25	C	0.684648	-0.563592	0.563450
C26	C	0.590242	-0.558065	0.557950
C27	C	0.820344	-0.512838	0.512831
C28	C	1.422324	-0.548210	0.548126
C29	C	1.514991	-0.553662	0.553568
C30	C	1.204928	-0.535335	0.786952
C31	C	1.204953	-0.535300	0.894168
C32	C	1.204952	-0.283829	0.535410
C33	C	1.204988	-0.176617	0.535433
C34	C	1.204858	-0.535432	0.284741
C35	C	1.204994	-0.535204	0.177535
C36	C	1.204976	-0.535236	1.090464
C37	C	1.204960	-0.535275	0.981231
H38	H	0.720207	-0.615924	0.615626
Cl39	Cl	0.671032	-0.426521	0.426781
