data_functionalizedCrystal
_audit_creation_method	'MofGen! by Chris Wilmer'
_symmetry_space_group_name_H-M	'P1'
_symmetry_Int_Tables_number	1
_symmetry_cell_setting	triclinic
loop_
_symmetry_equiv_pos_as_xyz
  x,y,z
_cell_length_a	21.295419
_cell_length_b	29.839131
_cell_length_c	21.295411
_cell_angle_alpha	90.028018
_cell_angle_beta	90.024539
_cell_angle_gamma	90.050029
loop_
_atom_site_label
_atom_site_type_symbol
_atom_site_fract_x
_atom_site_fract_y
_atom_site_fract_z
Zn1	Zn	0.962335	-0.178727	0.355883
Zn2	Zn	1.462335	0.321273	0.855883
Zn3	Zn	0.962229	-0.253843	0.250597
Zn4	Zn	1.462229	0.246157	0.750597
Zn5	Zn	0.857058	-0.178747	0.250628
Zn6	Zn	1.357058	0.321253	0.750628
Zn7	Zn	0.857019	-0.253850	0.355829
Zn8	Zn	1.357019	0.246150	0.855829
O9	O	0.909660	-0.216292	0.303234
O10	O	1.409660	0.283708	0.803234
O11	O	1.050410	-0.188680	0.341927
O12	O	1.550410	0.311320	0.841927
O13	O	0.948249	-0.243886	0.162512
O14	O	1.448249	0.256114	0.662512
O15	O	0.871084	-0.115877	0.264627
O16	O	1.371084	0.384123	0.764627
O17	O	1.050332	-0.243867	0.264573
O18	O	1.550332	0.256133	0.764573
O19	O	0.948431	-0.115863	0.341957
O20	O	1.448431	0.384137	0.841957
O21	O	0.870981	-0.188714	0.162535
O22	O	1.370981	0.311286	0.662535
O23	O	0.768963	-0.188721	0.264574
O24	O	1.268963	0.311279	0.764574
O25	O	0.871017	-0.243880	0.443925
O26	O	1.371017	0.256120	0.943925
O27	O	0.768935	-0.243899	0.341864
O28	O	1.268935	0.256101	0.841864
O29	O	0.948392	-0.188687	0.443965
O30	O	1.448392	0.311313	0.943965
O31	O	0.948211	-0.316711	0.264520
O32	O	1.448211	0.183289	0.764520
O33	O	0.870914	-0.316716	0.341834
O34	O	1.370914	0.183284	0.841834
C35	C	0.746108	-0.216313	0.303217
C36	C	1.246108	0.283687	0.803217
C37	C	0.676140	-0.216333	0.303224
C38	C	1.176140	0.283667	0.803224
C39	C	0.643337	-0.187644	0.343564
C40	C	1.143337	0.312356	0.843564
C41	C	0.577594	-0.187632	0.343567
C42	C	1.077594	0.312368	0.843567
C43	C	0.544658	-0.216317	0.303235
C44	C	1.044658	0.283683	0.803235
C45	C	0.577469	-0.245008	0.262888
C46	C	1.077469	0.254992	0.762888
C47	C	0.643211	-0.245016	0.262882
C48	C	1.143211	0.254984	0.762882
N49	N	0.441378	-0.255624	0.298310
N50	N	0.941378	0.244376	0.798310
N51	N	0.378926	-0.255615	0.298319
N52	N	0.878926	0.244385	0.798319
C53	C	0.346583	-0.216294	0.303249
C54	C	0.846583	0.283706	0.803249
N55	N	0.379051	-0.176981	0.308183
N56	N	0.879051	0.323019	0.808183
N57	N	0.441508	-0.176990	0.308177
N58	N	0.941508	0.323010	0.808177
C59	C	0.473372	-0.216311	0.303237
C60	C	0.973372	0.283689	0.803237
C61	C	0.242494	-0.187590	0.343594
C62	C	0.742494	0.312410	0.843594
C63	C	0.176750	-0.187577	0.343592
C64	C	0.676750	0.312423	0.843592
C65	C	0.176627	-0.244956	0.262917
C66	C	0.676627	0.255044	0.762917
C67	C	0.242369	-0.244965	0.262915
C68	C	0.742369	0.255035	0.762915
C69	C	0.275299	-0.216282	0.303257
C70	C	0.775299	0.283718	0.803257
C71	C	0.909564	-0.333014	0.303181
C72	C	1.409564	0.166986	0.803181
C73	C	0.909581	-0.382949	0.303180
C74	C	1.409581	0.117051	0.803180
C75	C	0.949926	-0.692550	0.343558
C76	C	1.449926	-0.192550	0.843558
C77	C	0.949994	-0.880223	0.343595
C78	C	1.449994	-0.380223	0.843595
O79	O	0.984203	-0.904451	0.377887
O80	O	1.484203	-0.404451	0.877887
N81	N	0.909767	-0.903734	0.303304
N82	N	1.409767	-0.403734	0.803304
C83	C	0.869517	-0.880324	0.263003
C84	C	1.369517	-0.380324	0.763003
O85	O	0.835299	-0.904628	0.228739
O86	O	1.335299	-0.404628	0.728739
C87	C	0.869446	-0.692651	0.262969
C88	C	1.369446	-0.192651	0.762969
C89	C	0.909680	-0.669143	0.303259
C90	C	1.409680	-0.169143	0.803259
C91	C	0.990156	-0.669041	0.383844
C92	C	1.490156	-0.169041	0.883844
C93	C	0.990141	-0.622126	0.383832
C94	C	1.490141	-0.122126	0.883832
C95	C	0.949895	-0.598719	0.343533
C96	C	1.449895	-0.098719	0.843533
C97	C	0.909665	-0.622227	0.303246
C98	C	1.409665	-0.122227	0.803246
C99	C	0.829194	-0.669242	0.222672
C100	C	1.329194	-0.169242	0.722672
C101	C	0.829178	-0.622321	0.222668
C102	C	1.329178	-0.122321	0.722668
C103	C	0.869412	-0.598813	0.262958
C104	C	1.369412	-0.098813	0.762958
C105	C	0.869405	-0.551905	0.262935
C106	C	1.369405	-0.051905	0.762935
N107	N	0.909632	-0.528394	0.303227
N108	N	1.409632	-0.028394	0.803227
C109	C	0.949877	-0.551801	0.343525
C110	C	1.449877	-0.051801	0.843525
C111	C	0.869558	-0.978854	0.263023
C112	C	1.369558	-0.478854	0.763023
C113	C	0.869577	-1.025772	0.263031
C114	C	1.369577	-0.525772	0.763031
C115	C	0.950053	-1.025668	0.343624
C116	C	1.450053	-0.525668	0.843624
C117	C	0.950037	-0.978749	0.343613
C118	C	1.450037	-0.478749	0.843613
C119	C	0.909785	-0.955343	0.303315
C120	C	1.409785	-0.455343	0.803315
C121	C	0.949843	-0.453275	0.343496
C122	C	1.449843	0.046725	0.843496
C123	C	0.949826	-0.406356	0.343478
C124	C	1.449826	0.093644	0.843478
C125	C	0.869348	-0.406464	0.262888
C126	C	1.369348	0.093536	0.762888
C127	C	0.869367	-0.453379	0.262903
C128	C	1.369367	0.046621	0.762903
C129	C	0.909616	-0.476784	0.303212
C130	C	1.409616	0.023216	0.803212
O131	O	0.835209	-0.527648	0.228667
O132	O	1.335209	-0.027648	0.728667
O133	O	0.984081	-0.527489	0.377795
O134	O	1.484081	-0.027489	0.877795
C135	C	0.949941	-0.739465	0.343570
C136	C	1.449941	-0.239465	0.843570
C137	C	0.909710	-0.762974	0.303283
C138	C	1.409710	-0.262974	0.803283
C139	C	0.869465	-0.739567	0.262984
C140	C	1.369465	-0.239567	0.762984
C141	C	0.909729	-0.809892	0.303291
C142	C	1.409729	-0.309892	0.803291
C143	C	0.949974	-0.833298	0.343590
C144	C	1.449974	-0.333298	0.843590
C145	C	0.990201	-0.809787	0.383881
C146	C	1.490201	-0.309787	0.883881
C147	C	0.990186	-0.762872	0.383869
C148	C	1.490186	-0.262872	0.883869
C149	C	0.829238	-0.763078	0.222693
C150	C	1.329238	-0.263078	0.722693
C151	C	0.829257	-0.809994	0.222708
C152	C	1.329257	-0.309994	0.722708
C153	C	0.869502	-0.833400	0.263007
C154	C	1.369502	-0.333400	0.763007
C155	C	1.073850	-0.216270	0.303252
C156	C	1.573850	0.283730	0.803252
C157	C	1.143818	-0.216261	0.303260
C158	C	1.643818	0.283739	0.803260
C159	C	0.909712	-0.216282	0.467425
C160	C	1.409712	0.283718	0.967425
C161	C	0.909735	-0.216278	0.537393
C162	C	1.409735	0.283722	1.037393
C163	C	0.909774	-0.099113	0.303301
C164	C	1.409774	0.400887	0.803301
C165	C	0.909822	-0.049179	0.303330
C166	C	1.409822	0.450821	0.803330
C167	C	0.909644	-0.216269	0.139683
C168	C	1.409644	0.283731	0.639683
C169	C	0.909744	-0.216146	0.069715
C170	C	1.409744	0.283854	0.569715
C171	C	0.950022	-0.187538	0.570281
C172	C	1.450022	0.312462	1.070281
C173	C	0.950021	-0.187519	0.636024
C174	C	1.450021	0.312481	1.136024
C175	C	0.909739	-0.216247	0.668875
C176	C	1.409739	0.283753	1.168875
C177	C	0.869444	-0.244989	0.635979
C178	C	1.369444	0.255011	1.135979
C179	C	0.869442	-0.245005	0.570238
C180	C	1.369442	0.254995	1.070238
N181	N	0.904878	-0.255549	0.772085
N182	N	1.404878	0.244451	1.272085
N183	N	0.904884	-0.255533	0.834536
N184	N	1.404884	0.244467	1.334536
C185	C	0.909743	-0.216202	0.866950
C186	C	1.409743	0.283798	1.366950
N187	N	0.914609	-0.176886	0.834554
N188	N	1.414609	0.323114	1.334554
N189	N	0.914606	-0.176903	0.772096
N190	N	1.414606	0.323097	1.272096
C191	C	0.909737	-0.216233	0.740161
C192	C	1.409737	0.283767	1.240161
C193	C	0.950032	-0.187438	0.971124
C194	C	1.450032	0.312562	1.471124
C195	C	0.950027	-0.187418	1.036868
C196	C	1.450027	0.312582	1.536868
C197	C	0.869453	-0.244893	1.036822
C198	C	1.369453	0.255107	1.536822
C199	C	0.869455	-0.244909	0.971079
C200	C	1.369455	0.255091	1.471079
C201	C	0.909748	-0.216182	0.938235
C202	C	1.409748	0.283818	1.438235
H203	H	0.269078	-0.268329	0.230068
H204	H	0.769078	0.231671	0.730068
H205	H	1.022972	-0.828853	0.416692
H206	H	1.522972	-0.328853	0.916692
H207	H	0.550648	-0.268363	0.230049
H208	H	1.050648	0.231637	0.730049
O209	O	0.830546	-0.956071	0.223841
O210	O	1.330546	-0.456071	0.723841
C211	C	0.866394	-0.928929	0.183200
C212	C	1.366394	-0.428929	0.683200
H213	H	0.914083	-0.921846	0.205446
H214	H	1.414083	-0.421846	0.705446
H215	H	0.873346	-0.947029	0.136563
H216	H	1.373346	-0.447029	0.636563
C217	C	0.773170	-0.893098	0.144429
C218	C	1.273170	-0.393098	0.644429
C219	C	0.831740	-0.884396	0.171755
C220	C	1.331740	-0.384396	0.671755
H221	H	0.751793	-0.865629	0.137367
H222	H	1.251793	-0.365629	0.637367
H223	H	0.749017	-0.911385	0.171808
H224	H	1.249017	-0.411385	0.671808
H225	H	0.778971	-0.908183	0.105568
H226	H	1.278971	-0.408183	0.605568
H227	H	0.825937	-0.869317	0.210619
H228	H	1.325937	-0.369317	0.710619
H229	H	0.855891	-0.866105	0.144382
H230	H	1.355891	-0.366105	0.644382
O231	O	0.988976	-0.383500	0.382530
O232	O	1.488976	0.116500	0.882530
C233	C	1.029636	-0.356337	0.346726
C234	C	1.529636	0.143663	0.846726
H235	H	1.033554	-0.370495	0.297154
H236	H	1.533554	0.129505	0.797154
H237	H	1.010164	-0.320794	0.344533
H238	H	1.510164	0.179206	0.844533
C239	C	1.090246	-0.338165	0.438429
C240	C	1.590246	0.161835	0.938429
C241	C	1.095063	-0.355555	0.377545
C242	C	1.595063	0.144445	0.877545
H243	H	1.130604	-0.337680	0.457440
H244	H	1.630604	0.162320	0.957440
H245	H	1.062851	-0.356463	0.462551
H246	H	1.562851	0.143537	0.962551
H247	H	1.074017	-0.308547	0.436593
H248	H	1.574017	0.191453	0.936593
H249	H	1.111284	-0.385174	0.379382
H250	H	1.611284	0.114826	0.879382
H251	H	1.122461	-0.337262	0.353423
H252	H	1.622461	0.162738	0.853423
O253	O	0.989220	-0.159586	0.667884
O254	O	1.489220	0.340414	1.167884
C255	C	1.024769	-0.134226	0.624796
C256	C	1.524769	0.365774	1.124796
H257	H	1.026927	-0.152636	0.577928
H258	H	1.526927	0.347364	1.077928
H259	H	1.001756	-0.100109	0.617807
H260	H	1.501756	0.399891	1.117807
C261	C	1.089123	-0.105133	0.708048
C262	C	1.589123	0.394867	1.208048
C263	C	1.091778	-0.127745	0.650485
C264	C	1.591778	0.372255	1.150485
H265	H	1.130457	-0.101133	0.723894
H266	H	1.630457	0.398867	1.223894
H267	H	1.065172	-0.122217	0.737077
H268	H	1.565172	0.377783	1.237077
H269	H	1.069943	-0.076704	0.702215
H270	H	1.569943	0.423296	1.202215
H271	H	1.110951	-0.156176	0.656320
H272	H	1.610951	0.343824	1.156320
H273	H	1.115735	-0.110666	0.621457
H274	H	1.615735	0.389334	1.121457
O275	O	0.790125	-0.740414	0.183482
O276	O	1.290125	-0.240414	0.683482
C277	C	0.754616	-0.771231	0.147939
C278	C	1.254616	-0.271231	0.647939
H279	H	0.780416	-0.804656	0.145801
H280	H	1.280416	-0.304656	0.645801
H281	H	0.706796	-0.776248	0.170943
H282	H	1.206796	-0.276248	0.670943
C283	C	0.713889	-0.711915	0.083548
C284	C	1.213889	-0.211915	0.583548
C285	C	0.745579	-0.752966	0.080919
C286	C	1.245579	-0.252966	0.580919
H287	H	0.708312	-0.700648	0.042209
H288	H	1.208312	-0.200648	0.542209
H289	H	0.737810	-0.691152	0.107496
H290	H	1.237810	-0.191152	0.607496
H291	H	0.674042	-0.716101	0.102722
H292	H	1.174042	-0.216101	0.602722
H293	H	0.785428	-0.748779	0.061754
H294	H	1.285428	-0.248779	0.561754
H295	H	0.721665	-0.773728	0.056967
H296	H	1.221665	-0.273728	0.556967
O297	O	0.144667	-0.272773	0.223649
O298	O	0.644667	0.227227	0.723649
C299	C	0.160726	-0.262899	0.160936
C300	C	0.660726	0.237101	0.660936
H301	H	0.178852	-0.227008	0.157854
H302	H	0.678852	0.272992	0.657854
H303	H	0.198842	-0.286973	0.144412
H304	H	0.698842	0.213027	0.644412
C305	C	0.080036	-0.312155	0.122699
C306	C	0.580036	0.187845	0.622699
C307	C	0.102292	-0.268073	0.118914
C308	C	0.602292	0.231927	0.618914
H309	H	0.043992	-0.315349	0.096777
H310	H	0.543992	0.184651	0.596777
H311	H	0.069218	-0.318809	0.164950
H312	H	0.569218	0.181191	0.664950
H313	H	0.111804	-0.332212	0.108930
H314	H	0.611804	0.167788	0.608930
H315	H	0.070527	-0.248017	0.132690
H316	H	0.570527	0.251983	0.632690
H317	H	0.113104	-0.261416	0.076664
H318	H	0.613104	0.238584	0.576664
O319	O	0.988997	-0.475936	0.382674
O320	O	1.488997	0.024064	0.882674
C321	C	1.024485	-0.445118	0.418238
C322	C	1.524485	0.054882	0.918238
H323	H	1.026664	-0.411687	0.392441
H324	H	1.526664	0.088313	0.892441
H325	H	1.001403	-0.440120	0.466022
H326	H	1.501403	0.059880	0.966022
C327	C	1.088808	-0.504428	0.459071
C328	C	1.588808	-0.004428	0.959071
C329	C	1.091489	-0.463368	0.427383
C330	C	1.591489	0.036632	0.927383
H331	H	1.130139	-0.515685	0.464715
H332	H	1.630139	-0.015685	0.964715
H333	H	1.064899	-0.525191	0.435113
H334	H	1.564899	-0.025191	0.935113
H335	H	1.069571	-0.500257	0.498887
H336	H	1.569571	-0.000257	0.998887
H337	H	1.110718	-0.467540	0.387565
H338	H	1.610718	0.032460	0.887565
H339	H	1.115404	-0.442606	0.451335
H340	H	1.615404	0.057394	0.951335
H341	H	1.022901	-0.602988	0.416641
H342	H	1.522901	-0.102988	0.916641
H343	H	1.022928	-0.688094	0.416664
H344	H	1.522928	-0.188094	0.916664
O345	O	0.790164	-0.599537	0.183489
O346	O	1.290164	-0.099537	0.683489
C347	C	0.826009	-0.572397	0.142843
C348	C	1.326009	-0.072397	0.642843
H349	H	0.873702	-0.565316	0.165083
H350	H	1.373702	-0.065316	0.665083
H351	H	0.832954	-0.590497	0.096205
H352	H	1.332954	-0.090497	0.596205
C353	C	0.732783	-0.536562	0.104084
C354	C	1.232783	-0.036562	0.604084
C355	C	0.791358	-0.527862	0.131403
C356	C	1.291358	-0.027862	0.631403
H357	H	0.711408	-0.509092	0.097025
H358	H	1.211408	-0.009092	0.597025
H359	H	0.708633	-0.554848	0.131467
H360	H	1.208633	-0.054848	0.631467
H361	H	0.738578	-0.551647	0.065223
H362	H	1.238578	-0.051647	0.565223
H363	H	0.785561	-0.512783	0.170267
H364	H	1.285561	-0.012783	0.670267
H365	H	0.815506	-0.509573	0.104026
H366	H	1.315506	-0.009573	0.604026
O367	O	0.989135	-0.955984	0.382814
O368	O	1.489135	-0.455984	0.882814
C369	C	1.024670	-0.986710	0.418369
C370	C	1.524670	-0.486710	0.918369
H371	H	0.998896	-1.020175	0.420522
H372	H	1.498896	-0.520175	0.920522
H373	H	1.072493	-0.991670	0.395363
H374	H	1.572493	-0.491670	0.895363
C375	C	1.065355	-0.927268	0.482729
C376	C	1.565355	-0.427268	0.982729
C377	C	1.033697	-0.968369	0.485379
C378	C	1.533697	-0.468369	0.985379
H379	H	1.070927	-0.915953	0.524064
H380	H	1.570927	-0.415953	1.024064
H381	H	1.041417	-0.906566	0.458774
H382	H	1.541417	-0.406566	0.958774
H383	H	1.105204	-0.931406	0.463555
H384	H	1.605204	-0.431406	0.963555
H385	H	0.993846	-0.964229	0.504546
H386	H	1.493846	-0.464229	1.004546
H387	H	1.057629	-0.989069	0.509339
H388	H	1.557629	-0.489069	1.009339
H389	H	0.982833	-0.164012	1.063645
H390	H	1.482833	0.335988	1.563645
H391	H	0.982823	-1.044734	0.376436
H392	H	1.482823	-0.544734	0.876436
H393	H	0.150043	-0.164212	0.376441
H394	H	0.650043	0.335788	0.876441
H395	H	0.982831	-0.164146	0.543543
H396	H	1.482831	0.335854	1.043543
O397	O	0.830406	-0.272946	0.667915
O398	O	1.330406	0.227054	1.167915
C399	C	0.866219	-0.301942	0.705959
C400	C	1.366219	0.198058	1.205959
H401	H	0.915793	-0.304715	0.686165
H402	H	1.415793	0.195285	1.186165
H403	H	0.868404	-0.288041	0.755788
H404	H	1.368404	0.211959	1.255788
C405	C	0.774531	-0.345243	0.731257
C406	C	1.274531	0.154757	1.231257
C407	C	0.835418	-0.348652	0.706942
C408	C	1.335418	0.151348	1.206942
H409	H	0.755532	-0.374055	0.731866
H410	H	1.255532	0.125945	1.231866
H411	H	0.750403	-0.325707	0.705628
H412	H	1.250403	0.174293	1.205628
H413	H	0.776361	-0.333657	0.772779
H414	H	1.276361	0.166343	1.272779
H415	H	0.833588	-0.360232	0.665418
H416	H	1.333588	0.139768	1.165418
H417	H	0.859546	-0.368191	0.732564
H418	H	1.359546	0.131809	1.232564
O419	O	0.830289	-0.272970	0.538384
O420	O	1.330289	0.227030	1.038384
C421	C	0.794720	-0.298315	0.581473
C422	C	1.294720	0.201685	1.081473
H423	H	0.820500	-0.299853	0.628348
H424	H	1.320500	0.200147	1.128348
H425	H	0.746926	-0.281869	0.588444
H426	H	1.246926	0.218131	1.088444
C427	C	0.753942	-0.344247	0.498231
C428	C	1.253942	0.155753	0.998231
C429	C	0.785608	-0.346140	0.555802
C430	C	1.285608	0.153860	1.055802
H431	H	0.748318	-0.373747	0.482396
H432	H	1.248318	0.126253	0.982396
H433	H	0.777903	-0.327171	0.469200
H434	H	1.277903	0.172829	0.969200
H435	H	0.714117	-0.330540	0.504048
H436	H	1.214117	0.169460	1.004048
H437	H	0.825435	-0.359841	0.549983
H438	H	1.325435	0.140159	1.049983
H439	H	0.761653	-0.363220	0.584831
H440	H	1.261653	0.136780	1.084831
H441	H	0.982838	-0.164045	0.944381
H442	H	1.482838	0.335955	1.444381
H443	H	0.836652	-0.268315	0.944301
H444	H	1.336652	0.231685	1.444301
H445	H	0.836821	-1.044909	0.230217
H446	H	1.336821	-0.544909	0.730217
H447	H	0.550880	-0.164268	0.376415
H448	H	1.050880	0.335732	0.876415
O449	O	0.830274	-0.383652	0.223804
O450	O	1.330274	0.116348	0.723804
C451	C	0.838902	-0.337201	0.232429
C452	C	1.338902	0.162799	0.732429
H453	H	0.859499	-0.330760	0.281025
H454	H	1.359499	0.169240	0.781025
H455	H	0.872436	-0.323876	0.195117
H456	H	1.372436	0.176124	0.695117
C457	C	0.749910	-0.321075	0.166921
C458	C	1.249910	0.178925	0.666921
C459	C	0.775202	-0.313163	0.226610
C460	C	1.275202	0.186837	0.726610
H461	H	0.710617	-0.306246	0.163328
H462	H	1.210617	0.193754	0.663328
H463	H	0.744098	-0.352369	0.161108
H464	H	1.244098	0.147631	0.661108
H465	H	0.777860	-0.309970	0.135834
H466	H	1.277860	0.190030	0.635834
H467	H	0.747255	-0.324272	0.257695
H468	H	1.247255	0.175728	0.757695
H469	H	0.781007	-0.281869	0.232428
H470	H	1.281007	0.218131	0.732428
H471	H	0.796431	-0.688375	0.189864
H472	H	1.296431	-0.188375	0.689864
O473	O	1.029287	-0.740108	0.423069
O474	O	1.529287	-0.240108	0.923069
C475	C	1.064817	-0.770837	0.458624
C476	C	1.564817	-0.270837	0.958624
H477	H	1.039039	-0.804299	0.460780
H478	H	1.539039	-0.304299	0.960780
H479	H	1.112639	-0.775800	0.435618
H480	H	1.612639	-0.275800	0.935618
C481	C	1.105512	-0.711396	0.522982
C482	C	1.605512	-0.211396	1.022982
C483	C	1.073849	-0.752494	0.525634
C484	C	1.573849	-0.252494	1.025634
H485	H	1.111086	-0.700081	0.564316
H486	H	1.611086	-0.200081	1.064316
H487	H	1.081577	-0.690693	0.499027
H488	H	1.581577	-0.190693	0.999027
H489	H	1.145361	-0.715538	0.503808
H490	H	1.645361	-0.215538	1.003808
H491	H	1.033998	-0.748351	0.544801
H492	H	1.533998	-0.248351	1.044801
H493	H	1.097778	-0.773196	0.549595
H494	H	1.597778	-0.273196	1.049595
H495	H	0.670144	-0.164288	0.376414
H496	H	1.170144	0.335712	0.876414
H497	H	0.836648	-0.268279	1.063569
H498	H	1.336648	0.231721	1.563569
H499	H	0.269307	-0.164231	0.376439
H500	H	0.769307	0.335769	0.876439
H501	H	0.669919	-0.268379	0.230031
H502	H	1.169919	0.231621	0.730031
H503	H	0.836610	-0.472521	0.230091
H504	H	1.336610	0.027479	0.730091
H505	H	0.796494	-0.829130	0.189894
H506	H	1.296494	-0.329130	0.689894
