data_functionalizedCrystal
_audit_creation_method	'MofGen! by Chris Wilmer'
_symmetry_space_group_name_H-M	'P1'
_symmetry_Int_Tables_number	1
_symmetry_cell_setting	triclinic
loop_
_symmetry_equiv_pos_as_xyz
  x,y,z
_cell_length_a	12.827893
_cell_length_b	16.625546
_cell_length_c	16.625539
_cell_angle_alpha	90.030397
_cell_angle_beta	90.018604
_cell_angle_gamma	90.022439
loop_
_atom_site_label
_atom_site_type_symbol
_atom_site_fract_x
_atom_site_fract_y
_atom_site_fract_z
Zn1	Zn	1.597611	-0.321001	0.455855
Zn2	Zn	1.930945	0.012333	0.789189
Zn3	Zn	2.264278	0.345666	1.122522
Zn4	Zn	1.597486	-0.455844	0.321018
Zn5	Zn	1.930819	-0.122511	0.654351
Zn6	Zn	2.264153	0.210823	0.987684
Zn7	Zn	1.422855	-0.321029	0.321040
Zn8	Zn	1.756188	0.012304	0.654374
Zn9	Zn	2.089521	0.345638	0.987707
Zn10	Zn	1.422816	-0.455795	0.455812
Zn11	Zn	1.756150	-0.122462	0.789145
Zn12	Zn	2.089483	0.210872	1.122479
O13	O	1.510192	-0.388417	0.388431
O14	O	1.843525	-0.055084	0.721765
O15	O	2.176859	0.278249	1.055098
O16	O	1.743831	-0.338897	0.437977
O17	O	2.077164	-0.005563	0.771311
O18	O	2.410497	0.327770	1.104644
O19	O	1.574284	-0.437993	0.208188
O20	O	1.907618	-0.104659	0.541522
O21	O	2.240951	0.228674	0.874855
O22	O	1.446105	-0.208193	0.338952
O23	O	1.779438	0.125141	0.672285
O24	O	2.112772	0.458474	1.005618
O25	O	1.743739	-0.437965	0.338913
O26	O	2.077072	-0.104632	0.672246
O27	O	2.410405	0.228701	1.005579
O28	O	1.574498	-0.208172	0.438000
O29	O	1.907831	0.125161	0.771333
O30	O	2.241165	0.458495	1.104666
O31	O	1.445983	-0.338945	0.208205
O32	O	1.779317	-0.005611	0.541538
O33	O	2.112650	0.327722	0.874872
O34	O	1.276614	-0.338897	0.338910
O35	O	1.609947	-0.005564	0.672243
O36	O	1.943280	0.327769	1.005576
O37	O	1.446040	-0.437882	0.568650
O38	O	1.779373	-0.104549	0.901984
O39	O	2.112706	0.228785	1.235317
O40	O	1.276585	-0.437909	0.437926
O41	O	1.609919	-0.104576	0.771259
O42	O	1.943252	0.228757	1.104593
O43	O	1.574461	-0.338849	0.568682
O44	O	1.907794	-0.005516	0.902015
O45	O	2.241128	0.327817	1.235349
O46	O	1.574247	-0.568670	0.338871
O47	O	1.907580	-0.235337	0.672204
O48	O	2.240914	0.097997	1.005537
O49	O	1.445918	-0.568634	0.437904
O50	O	1.779251	-0.235301	0.771237
O51	O	2.112585	0.098033	1.104570
C52	C	1.238682	-0.388402	0.388416
C53	C	1.572016	-0.055068	0.721749
C54	C	1.905349	0.278265	1.055083
C55	C	1.122529	-0.388414	0.388429
C56	C	1.455862	-0.055081	0.721762
C57	C	1.789196	0.278252	1.055095
C58	C	1.070758	-0.437485	0.437349
C59	C	1.404091	-0.104152	0.770683
C60	C	1.737425	0.229181	1.104016
C61	C	0.950708	-0.437500	0.437363
C62	C	1.284041	-0.104166	0.770697
C63	C	1.617374	0.229167	1.104030
C64	C	1.510093	-0.597908	0.388398
C65	C	1.843427	-0.264575	0.721731
C66	C	2.176760	0.068759	1.055064
C67	C	1.510146	-0.687529	0.388410
C68	C	1.843480	-0.354196	0.721744
C69	C	2.176813	-0.020863	1.055077
C70	C	1.510329	-1.015705	0.388494
C71	C	1.843662	-0.682371	0.721827
C72	C	2.176995	-0.349038	1.055161
C73	C	1.510275	-0.924396	0.388473
C74	C	1.843608	-0.591063	0.721806
C75	C	2.176941	-0.257730	1.055140
C76	C	1.510237	-0.851620	0.388452
C77	C	1.843570	-0.518287	0.721785
C78	C	2.176903	-0.184953	1.055118
C79	C	1.510184	-0.760306	0.388431
C80	C	1.843518	-0.426972	0.721765
C81	C	2.176851	-0.093639	1.055098
C82	C	1.782762	-0.388433	0.388447
C83	C	2.116095	-0.055100	0.721781
C84	C	2.449429	0.278233	1.055114
C85	C	1.898915	-0.388440	0.388454
C86	C	2.232249	-0.055107	0.721787
C87	C	2.565582	0.278226	1.055121
C88	C	1.510260	-0.388357	0.598740
C89	C	1.843593	-0.055024	0.932074
C90	C	2.176927	0.278310	1.265407
C91	C	1.510289	-0.388332	0.688362
C92	C	1.843622	-0.054998	1.021695
C93	C	2.176956	0.278335	1.355028
C94	C	1.510320	-0.178108	0.388483
C95	C	1.843653	0.155225	0.721816
C96	C	2.176986	0.488558	1.055150
C97	C	1.510374	-0.088487	0.388505
C98	C	1.843708	0.244846	0.721838
C99	C	2.177041	0.578180	1.055172
C100	C	1.510185	-0.388419	0.178941
C101	C	1.843518	-0.055086	0.512274
C102	C	2.176851	0.278248	0.845607
C103	C	1.510358	-0.388217	0.089320
C104	C	1.843691	-0.054884	0.422653
C105	C	2.177025	0.278449	0.755987
C106	C	1.510337	-0.388241	1.016537
C107	C	1.843670	-0.054908	1.349871
C108	C	2.177004	0.278425	1.683204
C109	C	1.510321	-0.388269	0.925229
C110	C	1.843654	-0.054936	1.258562
C111	C	2.176988	0.278398	1.591896
C112	C	1.510314	-0.388287	0.852452
C113	C	1.843647	-0.054954	1.185786
C114	C	2.176980	0.278380	1.519119
C115	C	1.510296	-0.388313	0.761138
C116	C	1.843630	-0.054980	1.094471
C117	C	2.176963	0.278353	1.427805
H118	H	1.115312	-0.479483	0.479225
H119	H	1.448645	-0.146150	0.812558
H120	H	1.781978	0.187184	1.145891
O121	O	0.897441	-0.487546	0.487307
O122	O	1.230774	-0.154212	0.820640
O123	O	1.564108	0.179121	1.153973
C124	C	0.729218	-0.533250	0.532799
C125	C	1.062551	-0.199916	0.866132
C126	C	1.395885	0.133417	1.199466
C127	C	0.789414	-0.476517	0.476209
C128	C	1.122748	-0.143183	0.809543
C129	C	1.456081	0.190150	1.142876
H130	H	0.641868	-0.524364	0.523834
H131	H	0.975201	-0.191031	0.857168
H132	H	1.308535	0.142302	1.190501
H133	H	0.750581	-0.519183	0.597871
H134	H	1.083915	-0.185849	0.931204
H135	H	1.417248	0.147484	1.264537
H136	H	0.750652	-0.598251	0.518545
H137	H	1.083985	-0.264918	0.851879
H138	H	1.417319	0.068415	1.185212
H139	H	0.768013	-0.411496	0.490390
H140	H	1.101346	-0.078163	0.823724
H141	H	1.434679	0.255171	1.157057
H142	H	0.768046	-0.490653	0.411154
H143	H	1.101379	-0.157319	0.744488
H144	H	1.434712	0.176014	1.077821
H145	H	1.077975	-0.346410	0.346560
H146	H	1.411309	-0.013077	0.679893
H147	H	1.744642	0.320256	1.013226
O148	O	0.951968	-0.338403	0.338366
O149	O	1.285301	-0.005070	0.671700
O150	O	1.618635	0.328263	1.005033
C151	C	0.985446	-0.299080	0.201303
C152	C	1.318780	0.034253	0.534637
C153	C	1.652113	0.367586	0.867970
C154	C	0.925308	-0.355808	0.257935
C155	C	1.258641	-0.022474	0.591268
C156	C	1.591974	0.310859	0.924602
H157	H	0.963897	-0.313120	0.136264
H158	H	1.297230	0.020213	0.469597
H159	H	1.630564	0.353547	0.802930
H160	H	1.072816	-0.308004	0.210124
H161	H	1.406150	0.025330	0.543457
H162	H	1.739483	0.358663	0.876791
H163	H	0.964092	-0.234074	0.215608
H164	H	1.297426	0.099259	0.548941
H165	H	1.630759	0.432593	0.882274
H166	H	0.946574	-0.420836	0.243665
H167	H	1.279908	-0.087502	0.576999
H168	H	1.613241	0.245831	0.910332
H169	H	0.837952	-0.346815	0.249104
H170	H	1.171286	-0.013481	0.582437
H171	H	1.504619	0.319852	0.915770
