data_functionalizedCrystal
_audit_creation_method	'MofGen! by Chris Wilmer'
_symmetry_space_group_name_H-M	'P1'
_symmetry_Int_Tables_number	1
_symmetry_cell_setting	triclinic
loop_
_symmetry_equiv_pos_as_xyz
  x,y,z
_cell_length_a	19.288859
_cell_length_b	11.792241
_cell_length_c	18.366186
_cell_angle_alpha	89.993644
_cell_angle_beta	89.990083
_cell_angle_gamma	83.663571
loop_
_atom_site_label
_atom_site_type_symbol
_atom_site_fract_x
_atom_site_fract_y
_atom_site_fract_z
O1	O	0.922160	0.141549	-0.060564
O2	O	0.720007	0.160655	-0.060563
O3	O	0.825989	-0.014143	-0.060558
O4	O	0.816177	0.316347	-0.060569
O5	O	0.825971	-0.014152	0.060541
O6	O	0.719989	0.160647	0.060537
O7	O	0.922141	0.141540	0.060535
Zn8	Zn	0.821062	0.151092	0.079763
Zn9	Zn	0.821086	0.151103	-0.079791
O10	O	0.816159	0.316339	0.060531
C11	C	0.694118	0.160037	-0.000013
C12	C	0.617003	0.158195	-0.000012
C13	C	0.825363	-0.056429	-0.000009
C14	C	0.823519	-0.182415	-0.000010
C15	C	0.053475	0.248298	-0.000016
C16	C	0.125931	0.250039	-0.000020
C17	C	0.170055	0.147475	-0.000015
C18	C	0.141718	0.043163	-0.000025
C19	C	0.069262	0.041426	-0.000029
C20	C	0.290885	0.070981	0.042416
C21	C	0.363338	0.072723	0.042424
C22	C	0.393531	0.152831	-0.000008
C23	C	0.351261	0.231216	-0.042438
C24	C	0.278806	0.229478	-0.042442
C25	C	0.248621	0.149348	-0.000012
C26	C	0.500426	0.259024	-0.000007
C27	C	0.572884	0.260760	-0.000015
C28	C	0.588670	0.053881	-0.000014
C29	C	0.516213	0.052148	-0.000013
C30	C	0.472095	0.154722	-0.000006
C31	C	0.948030	0.142158	-0.000016
C32	C	1.025145	0.144000	-0.000022
C33	C	0.820127	-0.413075	-0.000022
C34	C	0.822011	-0.284719	-0.000015
C35	C	0.816785	0.358624	-0.000020
C36	C	0.818629	0.484610	-0.000024
N37	N	0.821051	0.151084	0.188654
N38	N	0.821103	0.151103	-0.188682
C39	C	0.867995	0.073721	0.226756
C40	C	0.868000	0.073716	0.302984
C41	C	0.821066	0.151093	0.341107
C42	C	0.774113	0.228462	0.302995
C43	C	0.774105	0.228457	0.226769
C44	C	0.812356	0.254504	0.461864
C45	C	0.812368	0.254511	0.538089
C46	C	0.821086	0.151107	0.576214
C47	C	0.829806	0.047693	0.538106
C48	C	0.829799	0.047689	0.461879
C49	C	0.821069	0.151106	0.423762
C50	C	0.868038	0.073733	0.696972
C51	C	0.868037	0.073726	0.773201
C52	C	0.774154	0.228482	0.773211
C53	C	0.774151	0.228479	0.696983
C54	C	0.821097	0.151105	0.658868
H55	H	0.017558	0.331823	-0.000014
Cl56	Cl	0.927054	-0.023545	0.821104
Cl57	Cl	0.715085	0.325722	0.178866
H58	H	0.177648	-0.040345	-0.000024
H59	H	0.735937	0.291479	0.804249
Cl60	Cl	0.033646	-0.089704	-0.000038
Cl61	Cl	0.715136	0.325745	0.649078
H62	H	0.906220	0.010716	0.195726
Cl63	Cl	0.715108	0.325732	0.350919
Cl64	Cl	0.927022	-0.023548	0.350892
H65	H	0.906262	0.010727	0.665937
H66	H	0.836897	-0.036515	0.430854
Cl67	Cl	0.840772	-0.082309	0.586026
Cl68	Cl	0.801460	0.384513	0.413943
Cl69	Cl	0.161555	0.381167	-0.000010
Cl70	Cl	0.389208	0.331941	-0.095777
Cl71	Cl	0.225669	0.328007	-0.095785
Cl72	Cl	0.801411	0.384515	0.585990
H73	H	0.624595	-0.029628	-0.000016
H74	H	0.595948	0.345696	-0.000016
Cl75	Cl	0.480596	-0.078978	-0.000023
Cl76	Cl	0.444961	0.387971	-0.000001
Cl77	Cl	0.252940	-0.029792	0.095722
Cl78	Cl	0.416470	-0.025808	0.095771
