data_functionalizedCrystal
_audit_creation_method	'MofGen! by Chris Wilmer'
_symmetry_space_group_name_H-M	'P1'
_symmetry_Int_Tables_number	1
_symmetry_cell_setting	triclinic
loop_
_symmetry_equiv_pos_as_xyz
  x,y,z
_cell_length_a	19.188933
_cell_length_b	19.188930
_cell_length_c	16.176319
_cell_angle_alpha	89.988074
_cell_angle_beta	89.993996
_cell_angle_gamma	83.145175
loop_
_atom_site_label
_atom_site_type_symbol
_atom_site_fract_x
_atom_site_fract_y
_atom_site_fract_z
O1	O	0.926147	0.087176	-0.068728
O2	O	0.722836	0.098909	-0.068737
O3	O	0.830358	-0.008613	-0.068716
O4	O	0.818624	0.194698	-0.068749
O5	O	0.830343	-0.008620	0.068777
O6	O	0.722821	0.098902	0.068756
O7	O	0.926132	0.087169	0.068765
Cu8	Cu	0.824475	0.093035	0.081315
Cu9	Cu	0.824492	0.093043	-0.081287
O10	O	0.818609	0.194691	0.068744
C11	C	0.696817	0.098525	0.000008
C12	C	0.619313	0.097384	0.000006
C13	C	0.066065	0.089242	-0.074932
C14	C	0.138890	0.090310	-0.074935
C15	C	0.175299	0.090844	0.000012
C16	C	0.138880	0.090291	0.074968
C17	C	0.066058	0.089216	0.074970
N18	N	0.284313	0.132260	0.055792
N19	N	0.353490	0.133283	0.055786
C20	C	0.394707	0.094082	0.000013
N21	N	0.364132	0.053828	-0.055766
N22	N	0.294948	0.052809	-0.055762
C23	C	0.254262	0.092009	0.000019
C24	C	0.510082	0.095788	-0.074942
C25	C	0.582909	0.096851	-0.074942
C26	C	0.582896	0.096840	0.074963
C27	C	0.510072	0.095769	0.074961
C28	C	0.473669	0.095246	0.000006
C29	C	0.829971	-0.034628	0.000033
C30	C	0.828830	-0.112132	0.000040
C31	C	0.891921	-0.157056	0.000046
C32	C	0.890849	-0.229880	0.000033
C33	C	0.826683	-0.257777	0.000030
C34	C	0.763584	-0.212843	0.000018
C35	C	0.764658	-0.140021	0.000023
N36	N	0.777631	-0.365784	0.046819
N37	N	0.776616	-0.434963	0.046816
C38	C	0.823445	-0.477185	0.000013
N39	N	0.871339	-0.447617	-0.046777
N40	N	0.872357	-0.378432	-0.046770
C41	C	0.825512	-0.336739	0.000024
C42	C	0.885378	-0.601073	0.000004
C43	C	0.884304	-0.673898	-0.000014
C44	C	0.757037	-0.656860	-0.000021
C45	C	0.758113	-0.584037	-0.000011
C46	C	0.822286	-0.556148	0.000006
C47	C	0.952150	0.087553	0.000017
C48	C	1.029655	0.088694	0.000015
C49	C	0.818997	0.220705	-0.000007
C50	C	0.820137	0.298210	-0.000019
N51	N	0.824468	0.093029	0.195680
N52	N	0.824505	0.093043	-0.195652
C53	C	0.872093	0.045437	0.238953
C54	C	0.872097	0.045437	0.325500
C55	C	0.824478	0.093031	0.368773
C56	C	0.776847	0.140625	0.325493
C57	C	0.776841	0.140622	0.238948
C58	C	0.776871	0.140638	0.674521
C59	C	0.776883	0.140639	0.761073
C60	C	0.872127	0.045453	0.761074
C61	C	0.872121	0.045450	0.674529
C62	C	0.824488	0.093040	0.631257
C63	C	0.824484	0.093040	0.537413
C64	C	0.824485	0.093036	0.462615
H65	H	0.168529	0.090725	0.135991
H66	H	0.937631	-0.578365	0.000014
O67	O	0.174314	0.090725	-0.147721
C68	C	0.224547	0.030905	-0.152202
H69	H	0.208259	-0.011685	-0.109674
H70	H	0.277905	0.045387	-0.132065
C71	C	0.249348	0.055839	-0.293983
C72	C	0.229340	0.003528	-0.241754
H73	H	0.252308	0.038953	-0.349222
H74	H	0.215508	0.096143	-0.290963
H75	H	0.293811	0.067903	-0.277191
H76	H	0.184874	-0.008529	-0.258539
H77	H	0.263173	-0.036779	-0.244778
O78	O	0.730580	0.186937	0.632622
C79	C	0.688545	0.228933	0.689377
H80	H	0.717175	0.229652	0.751060
H81	H	0.636753	0.206390	0.698605
C82	C	0.638751	0.303408	0.579824
C83	C	0.673918	0.304295	0.655582
H84	H	0.629726	0.349894	0.558977
H85	H	0.667069	0.275112	0.541586
H86	H	0.595595	0.284618	0.587524
H87	H	0.717077	0.323076	0.647879
H88	H	0.645607	0.332596	0.693818
O89	O	0.474828	0.095247	-0.147823
C90	C	0.522584	0.095973	-0.213976
H91	H	0.577449	0.074632	-0.192003
H92	H	0.522838	0.152091	-0.237024
C93	C	0.432903	0.076002	-0.311772
C94	C	0.500289	0.049784	-0.284786
H95	H	0.419150	0.047513	-0.355453
H96	H	0.400728	0.075515	-0.267204
H97	H	0.433124	0.122766	-0.330973
H98	H	0.500065	0.003024	-0.265576
H99	H	0.532464	0.050261	-0.329353
O100	O	0.954275	-0.130001	-0.000091
C101	C	0.992739	-0.152981	-0.071287
H102	H	0.955218	-0.168004	-0.121062
H103	H	1.031786	-0.200568	-0.055185
C104	C	1.078777	-0.075058	-0.042433
C105	C	1.032692	-0.093503	-0.103571
H106	H	1.103425	-0.038370	-0.062346
H107	H	1.052865	-0.059577	0.005535
H108	H	1.111309	-0.114719	-0.029021
H109	H	1.000155	-0.053845	-0.116975
H110	H	1.058600	-0.108975	-0.151542
O111	O	0.952119	-0.273558	-0.000101
C112	C	0.955311	-0.316193	-0.071298
H113	H	0.919540	-0.289403	-0.121078
H114	H	0.937393	-0.369095	-0.055203
C115	C	1.075259	-0.360394	-0.042428
C116	C	1.031328	-0.327487	-0.103571
H117	H	1.122149	-0.367364	-0.062335
H118	H	1.073108	-0.331672	0.005541
H119	H	1.060319	-0.404475	-0.029021
H120	H	1.046263	-0.283403	-0.116970
H121	H	1.033484	-0.356202	-0.151544
O122	O	0.030594	0.088777	0.147722
C123	C	-0.019610	0.148620	0.152212
H124	H	-0.033210	0.168624	0.087137
H125	H	0.002785	0.191361	0.189199
C126	C	-0.069627	0.104662	0.274986
C127	C	-0.086335	0.129227	0.195059
H128	H	-0.110785	0.092701	0.301419
H129	H	-0.035802	0.064346	0.271964
H130	H	-0.050964	0.140284	0.305798
H131	H	-0.104989	0.093603	0.164245
H132	H	-0.120165	0.169537	0.198077
H133	H	0.910910	0.006699	0.796315
H134	H	0.612554	0.097293	-0.135975
O135	O	0.730492	0.186787	0.367490
C136	C	0.661415	0.175613	0.346348
H137	H	0.661248	0.119712	0.322572
H138	H	0.640781	0.214363	0.296107
C139	C	0.614260	0.255236	0.452440
C140	C	0.614055	0.186575	0.423245
H141	H	0.585045	0.262001	0.499872
H142	H	0.660799	0.262766	0.466682
H143	H	0.597067	0.287519	0.410565
H144	H	0.631256	0.154294	0.465116
H145	H	0.567518	0.179040	0.409011
O146	O	0.701297	-0.240022	-0.000094
C147	C	0.696871	-0.281609	-0.071315
H148	H	0.751960	-0.299909	-0.095050
H149	H	0.665890	-0.249332	-0.121180
C150	C	0.591808	-0.323442	-0.020536
C151	C	0.659470	-0.345923	-0.049685
H152	H	0.568735	-0.363112	-0.007196
H153	H	0.594788	-0.295422	0.027445
H154	H	0.565999	-0.296543	-0.062095
H155	H	0.685280	-0.372812	-0.008122
H156	H	0.656494	-0.373948	-0.097659
H157	H	0.910899	0.006696	0.639299
H158	H	0.612540	0.097271	0.135987
O159	O	0.474802	0.095277	0.147839
C160	C	0.522552	0.095960	0.213991
H161	H	0.571506	0.118826	0.192015
H162	H	0.537792	0.040071	0.237044
C163	C	0.427872	0.113228	0.311787
C164	C	0.487996	0.141318	0.284798
H165	H	0.406556	0.141204	0.355466
H166	H	0.395701	0.112766	0.267220
H167	H	0.440580	0.066655	0.330992
H168	H	0.475286	0.187887	0.265584
H169	H	0.520164	0.141789	0.329364
O170	O	0.730649	0.186950	0.196946
C171	C	0.741771	0.256041	0.218083
H172	H	0.797669	0.256247	0.241861
H173	H	0.703014	0.276645	0.268322
C174	C	0.662114	0.303146	0.111985
C175	C	0.730770	0.303400	0.141183
H176	H	0.655325	0.332361	0.064551
H177	H	0.654618	0.256598	0.097746
H178	H	0.629824	0.320315	0.153858
H179	H	0.763059	0.286223	0.099314
H180	H	0.738271	0.349946	0.155413
O181	O	0.730590	0.186775	0.803200
C182	C	0.687636	0.149482	0.853270
H183	H	0.715621	0.094780	0.866241
H184	H	0.636048	0.144859	0.819935
C185	C	0.638228	0.256068	0.919544
C186	C	0.672602	0.188884	0.935480
H187	H	0.628951	0.280374	0.970254
H188	H	0.667165	0.281194	0.885809
H189	H	0.595242	0.252206	0.891762
H190	H	0.715591	0.192747	0.963252
H191	H	0.643672	0.163760	0.969222
H192	H	0.036431	0.088814	-0.135966
H193	H	0.713280	-0.103444	0.000018
O194	O	0.945658	-0.717440	0.000028
C195	C	1.002524	-0.677205	0.000024
H196	H	0.984630	-0.622804	0.026058
H197	H	1.022217	-0.672063	-0.065934
C198	C	1.084190	-0.780502	0.021976
C199	C	1.062213	-0.713688	0.053958
H200	H	1.121011	-0.803008	0.055241
H201	H	1.045879	-0.807611	0.021975
H202	H	1.100596	-0.776208	-0.032989
H203	H	1.045800	-0.717983	0.108917
H204	H	1.100523	-0.686581	0.053969
H205	H	0.910873	0.006683	0.203727
O206	O	0.696780	-0.540466	-0.000117
C207	C	0.657821	-0.553051	-0.071339
H208	H	0.675138	-0.608341	-0.095084
H209	H	0.667250	-0.513235	-0.121198
C210	C	0.557868	-0.477988	-0.020547
C211	C	0.579133	-0.545899	-0.049707
H212	H	0.509329	-0.473573	-0.007205
H213	H	0.584115	-0.469507	0.027436
H214	H	0.565731	-0.444816	-0.062101
H215	H	0.571277	-0.579069	-0.008149
H216	H	0.552882	-0.554385	-0.097682
H217	H	0.704792	-0.679573	-0.000028
H218	H	0.910876	0.006684	0.360733
