data_functionalizedCrystal
_audit_creation_method	'MofGen! by Chris Wilmer'
_symmetry_space_group_name_H-M	'P1'
_symmetry_Int_Tables_number	1
_symmetry_cell_setting	triclinic
loop_
_symmetry_equiv_pos_as_xyz
  x,y,z
_cell_length_a	6.817900
_cell_length_b	10.943574
_cell_length_c	19.453114
_cell_angle_alpha	94.441472
_cell_angle_beta	101.709288
_cell_angle_gamma	108.837846
loop_
_atom_site_label
_atom_site_type_symbol
_atom_site_fract_x
_atom_site_fract_y
_atom_site_fract_z
V1	V	-4.034378	-0.179974	-0.218984
O2	O	-3.993629	0.007265	-0.214831
O3	O	-4.012885	-0.355529	-0.217471
O4	O	-3.976962	-0.177813	-0.314497
O5	O	-4.029801	-0.171681	-0.117133
V6	V	-4.515688	-0.157507	-0.206804
O7	O	-4.300492	-0.229259	-0.245702
O8	O	-4.699772	-0.108222	-0.180085
O9	O	-4.313974	0.018048	-0.208316
O10	O	-4.673834	-0.344746	-0.210957
O11	O	-4.637662	-0.165800	-0.308654
O12	O	-4.349898	-0.159668	-0.111290
C13	C	-3.864724	-0.398306	-0.214013
C14	C	-3.928377	-0.541828	-0.213413
C15	C	-3.812822	-0.704804	-0.209057
C16	C	-3.903839	-0.639376	-0.269421
C17	C	-3.836480	-0.605356	-0.153083
C18	C	-4.132949	-0.732138	-0.272781
C19	C	-4.065536	-0.698109	-0.156391
C20	C	-4.156719	-0.632728	-0.216772
C21	C	-3.818899	-0.171610	-0.337778
C22	C	-3.853416	-0.171005	-0.415860
C23	C	-4.052408	-0.177201	-0.456117
C24	C	-4.084841	-0.176632	-0.529484
C25	C	-3.918284	-0.169893	-0.562593
C26	C	-3.719261	-0.163689	-0.522327
C27	C	-3.686827	-0.164245	-0.448960
N28	N	-3.868991	-0.238075	-0.681377
N29	N	-3.899816	-0.237550	-0.751072
C30	C	-4.015993	-0.168215	-0.783642
N31	N	-4.100220	-0.099441	-0.743885
N32	N	-4.069401	-0.099972	-0.674183
C33	C	-3.953432	-0.169288	-0.642146
C34	C	-4.250164	-0.173792	-0.903451
C35	C	-4.282587	-0.173215	-0.976818
C36	C	-3.917006	-0.160285	-0.969661
C37	C	-3.884584	-0.160849	-0.896294
C38	C	-4.051173	-0.167609	-0.863194
C39	C	-4.125479	0.060818	-0.211773
C40	C	-4.041063	0.204339	-0.212377
C41	C	-4.171304	-0.165875	-0.088006
C42	C	-4.116024	-0.166474	-0.009923
H43	H	-3.834892	-0.613139	-0.317218
O44	O	-3.621120	-0.747011	-0.204783
H45	H	-3.670105	-0.853833	-0.203864
H46	H	-4.258775	-0.787003	-0.323419
H47	H	-3.524777	-0.159189	-0.416182
O48	O	-3.539611	-0.156430	-0.558032
H49	H	-3.595601	-0.157100	-0.615813
O50	O	-4.348719	-0.590805	-0.221121
H51	H	-4.470842	-0.642351	-0.270831
H52	H	-4.246893	-0.181684	-0.562268
O53	O	-4.429811	-0.181057	-0.867739
H54	H	-4.573626	-0.185245	-0.908060
H55	H	-4.444628	-0.178251	-1.009594
H56	H	-3.781386	-0.154786	-0.996617
H57	H	-3.722551	-0.155817	-0.863517
H58	H	-4.134431	-0.724379	-0.108592
H59	H	-3.710480	-0.550327	-0.102512
O60	O	-4.232057	-0.184454	-0.420411
H61	H	-4.375872	-0.188648	-0.460733
