data_functionalizedCrystal
_audit_creation_method	'MofGen! by Chris Wilmer'
_symmetry_space_group_name_H-M	'P1'
_symmetry_Int_Tables_number	1
_symmetry_cell_setting	triclinic
loop_
_symmetry_equiv_pos_as_xyz
  x,y,z
_cell_length_a	10.654550
_cell_length_b	16.109301
_cell_length_c	15.186229
_cell_angle_alpha	90.000638
_cell_angle_beta	89.997420
_cell_angle_gamma	96.026808
loop_
_atom_site_label
_atom_site_type_symbol
_atom_site_fract_x
_atom_site_fract_y
_atom_site_fract_z
O1	O	0.161419	-1.104090	-0.073171
O2	O	0.661419	-0.604090	0.426829
O3	O	0.181507	-0.862148	-0.073184
O4	O	0.681507	-0.362148	0.426816
O5	O	-0.011352	-0.988682	-0.073174
O6	O	0.488648	-0.488682	0.426826
O7	O	0.354278	-0.977556	-0.073181
O8	O	0.854278	-0.477556	0.426819
O9	O	-0.011354	-0.988673	0.073283
O10	O	0.488646	-0.488673	0.573283
O11	O	0.181505	-0.862139	0.073273
O12	O	0.681505	-0.362139	0.573273
O13	O	0.161416	-1.104082	0.073287
O14	O	0.661416	-0.604082	0.573287
Zn15	Zn	0.171460	-0.983109	0.096533
Zn16	Zn	0.671460	-0.483109	0.596533
Zn17	Zn	0.171463	-0.983120	-0.096431
Zn18	Zn	0.671463	-0.483120	0.403569
O19	O	0.354275	-0.977548	0.073276
O20	O	0.854275	-0.477548	0.573276
C21	C	0.180692	-0.831164	0.000043
C22	C	0.680692	-0.331164	0.500043
C23	C	0.178253	-0.738854	0.000037
C24	C	0.678253	-0.238854	0.500037
C25	C	-0.058140	-0.987861	0.000054
C26	C	0.441860	-0.487861	0.500054
C27	C	-0.197550	-0.985417	0.000050
C28	C	0.302450	-0.485417	0.500050
N29	N	0.171457	-0.983108	0.228226
N30	N	0.671457	-0.483108	0.728226
C31	C	-0.278046	-1.059918	0.000057
C32	C	0.221954	-0.559918	0.500057
C33	C	-0.409036	-1.057616	0.000051
C34	C	0.090964	-0.557616	0.500051
C35	C	-0.379020	-0.906306	0.000035
C36	C	0.120980	-0.406306	0.500035
C37	C	-0.248033	-0.908608	0.000035
C38	C	0.251967	-0.408608	0.500035
C39	C	-0.227564	-1.136726	0.000073
C40	C	0.272436	-0.636726	0.500073
C41	C	-0.308061	-1.211233	0.000081
C42	C	0.191939	-0.711233	0.500081
C43	C	-0.439051	-1.208932	0.000075
C44	C	0.060949	-0.708932	0.500075
C45	C	-0.489543	-1.132123	0.000061
C46	C	0.010457	-0.632123	0.500061
C47	C	0.401063	-0.978369	0.000047
C48	C	0.901063	-0.478369	0.500047
C49	C	0.540473	-0.980813	0.000044
C50	C	1.040473	-0.480813	0.500044
C51	C	0.162231	-1.135066	0.000058
C52	C	0.662231	-0.635066	0.500058
C53	C	0.164671	-1.227376	0.000057
C54	C	0.664671	-0.727376	0.500057
C55	C	0.287019	-0.517228	0.000045
C56	C	0.787019	-0.017228	0.500045
C57	C	0.284717	-0.430494	0.000051
C58	C	0.784717	0.069506	0.500051
C59	C	0.055896	-0.449008	0.000052
C60	C	0.555896	0.050992	0.500052
C61	C	0.058199	-0.535741	0.000052
C62	C	0.558199	-0.035741	0.500052
C63	C	0.173764	-0.569848	0.000045
C64	C	0.673764	-0.069848	0.500045
C65	C	0.169159	-0.396382	0.000050
C66	C	0.669159	0.103618	0.500050
C67	C	0.166662	-0.302341	0.000056
C68	C	0.666662	0.197659	0.500056
C69	C	0.176262	-0.663895	0.000040
C70	C	0.676262	-0.163895	0.500040
N71	N	0.171457	-0.983129	-0.228123
N72	N	0.671457	-0.483129	0.271877
C73	C	0.086088	-1.039156	0.453953
C74	C	0.586088	-0.539156	0.953953
C75	C	0.086085	-1.039159	0.546143
C76	C	0.586085	-0.539159	1.046143
C77	C	0.256830	-0.927074	0.546143
C78	C	0.756830	-0.427074	1.046143
C79	C	0.256826	-0.927068	0.453955
C80	C	0.756826	-0.427068	0.953955
C81	C	0.171456	-0.983114	0.407862
C82	C	0.671456	-0.483114	0.907862
C83	C	0.171457	-0.983122	0.592240
C84	C	0.671457	-0.483122	1.092240
C85	C	0.171455	-0.983125	0.692196
C86	C	0.671455	-0.483125	1.192196
C87	C	0.171457	-0.983111	0.307900
C88	C	0.671457	-0.483111	0.807900
H89	H	-0.120907	-1.138609	0.000081
H90	H	0.379093	-0.638609	0.500081
Cl91	Cl	0.427100	-0.364347	0.000053
Cl92	Cl	0.927100	0.135653	0.500053
Cl93	Cl	-0.084189	-0.601896	0.000059
Cl94	Cl	0.415811	-0.101896	0.500059
H95	H	0.326344	-0.881427	0.416425
H96	H	0.826344	-0.381427	0.916425
H97	H	-0.266942	-1.273768	0.000070
H98	H	0.233058	-0.773768	0.500070
H99	H	0.016573	-1.084791	0.416427
H100	H	0.516573	-0.584791	0.916427
H101	H	-0.038193	-0.421227	0.000063
H102	H	0.461807	0.078773	0.500063
Cl103	Cl	-0.021243	-1.109613	0.604083
Cl104	Cl	0.478757	-0.609613	1.104083
H105	H	-0.504589	-1.269599	0.000072
H106	H	-0.004589	-0.769599	0.500072
Cl107	Cl	-0.654218	-1.129233	0.000092
Cl108	Cl	-0.154218	-0.629233	0.500092
H109	H	-0.420141	-0.843772	0.000024
H110	H	0.079859	-0.343772	0.500024
H111	H	-0.182490	-0.847943	0.000030
H112	H	0.317510	-0.347943	0.500030
H113	H	0.381119	-0.544995	0.000046
H114	H	0.881119	-0.044995	0.500046
H115	H	0.326338	-0.881444	0.583680
H116	H	0.826338	-0.381444	1.083680
