data_functionalizedCrystal
_audit_creation_method	'MofGen! by Chris Wilmer'
_symmetry_space_group_name_H-M	'P1'
_symmetry_Int_Tables_number	1
_symmetry_cell_setting	triclinic
loop_
_symmetry_equiv_pos_as_xyz
  x,y,z
_cell_length_a	19.077236
_cell_length_b	12.827892
_cell_length_c	19.077174
_cell_angle_alpha	92.275857
_cell_angle_beta	85.294282
_cell_angle_gamma	92.308321
loop_
_atom_site_label
_atom_site_type_symbol
_atom_site_fract_x
_atom_site_fract_y
_atom_site_fract_z
Zn1	Zn	1.093780	-0.377307	-0.441990
Zn2	Zn	1.088983	-0.545319	-0.324109
Zn3	Zn	0.971161	-0.377323	-0.319373
Zn4	Zn	0.975875	-0.558740	-0.437214
O5	O	1.032450	-0.464672	-0.380671
O6	O	1.191796	-0.393971	-0.430333
O7	O	1.069373	-0.517424	-0.224830
O8	O	0.987461	-0.231084	-0.335655
O9	O	1.188272	-0.517408	-0.343727
O10	O	1.077549	-0.231072	-0.425741
O11	O	0.982810	-0.393998	-0.221350
O12	O	0.873134	-0.407012	-0.331024
O13	O	0.995495	-0.540283	-0.536498
O14	O	0.876597	-0.540298	-0.417601
O15	O	1.082119	-0.406985	-0.540007
O16	O	1.073944	-0.693336	-0.339096
O17	O	0.990844	-0.703197	-0.422193
C18	C	0.849286	-0.475114	-0.373281
C19	C	0.770929	-0.479607	-0.370136
C20	C	0.735954	-0.417561	-0.413818
C21	C	0.662329	-0.421778	-0.410857
C22	C	0.623679	-0.488046	-0.364216
C23	C	0.658658	-0.550095	-0.320529
C24	C	0.732282	-0.545873	-0.323487
C25	C	0.403290	-0.507550	-0.350524
C26	C	0.329661	-0.511770	-0.347570
C27	C	0.333336	-0.383451	-0.437898
C28	C	0.406962	-0.379238	-0.440855
C29	C	0.441934	-0.441283	-0.397165
N30	N	0.548422	-0.492360	-0.361190
N31	N	0.517190	-0.436963	-0.400188
C32	C	1.032405	-0.736184	-0.380656
C33	C	1.032451	-0.852336	-0.380676
C34	C	1.077012	-0.904034	-0.425291
C35	C	1.077061	-1.024083	-0.425313
C36	C	1.216328	-0.454191	-0.388091
C37	C	1.294686	-0.449724	-0.391253
C38	C	1.039868	-0.475129	-0.564546
C39	C	1.043030	-0.479585	-0.642903
C40	C	1.032514	-0.192100	-0.380702
C41	C	1.032542	-0.075946	-0.380716
C42	C	0.999448	-0.417419	-0.677903
C43	C	1.002416	-0.421615	-0.751527
C44	C	1.048969	-0.487972	-0.790150
C45	C	1.092553	-0.550146	-0.755145
C46	C	1.089581	-0.545955	-0.681522
C47	C	1.062687	-0.507403	-1.010534
C48	C	1.065657	-0.511587	-1.084162
C49	C	0.975519	-0.383057	-1.080539
C50	C	0.972554	-0.378867	-1.006915
C51	C	1.016135	-0.441044	-0.971916
N52	N	1.052006	-0.492260	-0.865406
N53	N	1.013094	-0.436761	-0.896661
C54	C	1.025100	-0.454178	-0.197513
C55	C	1.022075	-0.449420	-0.119162
H56	H	0.767418	-0.363601	-0.451800
H57	H	0.438426	-0.325279	-0.478837
Br58	Br	0.968955	-1.001857	-0.317040
Br59	Br	0.936271	-0.327350	-0.625493
H60	H	1.115213	-1.068543	-0.463507
Br61	Br	0.943228	-0.337301	-0.799023
Br62	Br	1.140532	-0.829687	-0.488942
H63	H	0.940037	-0.332436	-1.109043
H64	H	0.994334	-0.896950	-0.342499
H65	H	0.760757	-0.596397	-0.287915
Br66	Br	0.285870	-0.299252	-0.497188
H67	H	0.934643	-0.324834	-0.975473
H68	H	1.103570	-0.565624	-1.115608
H69	H	0.627184	-0.604048	-0.282550
Br70	Br	0.614866	-0.337569	-0.470144
Br71	Br	1.121837	-0.591780	-0.963045
Br72	Br	1.155727	-0.640214	-0.807561
H73	H	1.125075	-0.596569	-0.653026
H74	H	0.298194	-0.565739	-0.309589
H75	H	0.431755	-0.558072	-0.314949
