data_functionalizedCrystal
_audit_creation_method	'MofGen! by Chris Wilmer'
_symmetry_space_group_name_H-M	'P1'
_symmetry_Int_Tables_number	1
_symmetry_cell_setting	triclinic
loop_
_symmetry_equiv_pos_as_xyz
  x,y,z
_cell_length_a	14.519709
_cell_length_b	14.971486
_cell_length_c	14.048226
_cell_angle_alpha	90.006640
_cell_angle_beta	90.000842
_cell_angle_gamma	83.647137
loop_
_atom_site_label
_atom_site_type_symbol
_atom_site_fract_x
_atom_site_fract_y
_atom_site_fract_z
O1	O	-1.223800	-0.117253	-0.079037
O2	O	-0.723800	0.382747	0.420963
O3	O	-0.955315	-0.131060	-0.079066
O4	O	-0.455315	0.368940	0.420934
O5	O	-1.096753	0.006039	-0.079044
O6	O	-0.596753	0.506039	0.420956
O7	O	-1.082361	-0.254353	-0.079059
O8	O	-0.582361	0.245647	0.420941
O9	O	-1.096736	0.006048	0.079277
O10	O	-0.596736	0.506048	0.579277
O11	O	-0.955298	-0.131052	0.079255
O12	O	-0.455298	0.368948	0.579255
O13	O	-1.223783	-0.117245	0.079284
O14	O	-0.723783	0.382755	0.579284
Zn15	Zn	-1.089538	-0.124147	0.104407
Zn16	Zn	-0.589538	0.375853	0.604407
Zn17	Zn	-1.089560	-0.124158	-0.104189
Zn18	Zn	-0.589560	0.375842	0.395811
O19	O	-1.082344	-0.254344	0.079262
O20	O	-0.582344	0.245656	0.579262
C21	C	-1.096101	0.039369	0.000116
C22	C	-0.596101	0.539369	0.500116
C23	C	-1.094172	0.138667	0.000115
C24	C	-0.594172	0.638667	0.500115
C25	C	-0.920947	-0.130413	0.000091
C26	C	-0.420947	0.369587	0.500091
C27	C	-0.818567	-0.128485	0.000080
C28	C	-0.318567	0.371515	0.500080
C29	C	-1.258151	-0.117892	0.000125
C30	C	-0.758151	0.382108	0.500125
C31	C	-1.360531	-0.119820	0.000130
C32	C	-0.860531	0.380180	0.500130
C33	C	-0.443675	-0.121386	0.000123
C34	C	0.056325	0.378614	0.500123
C35	C	-0.547982	-0.123357	0.000111
C36	C	-0.047982	0.376643	0.500111
C37	C	-0.631118	-0.124935	0.000101
C38	C	-0.131118	0.375065	0.500101
C39	C	-0.735431	-0.126907	0.000090
C40	C	-0.235431	0.373093	0.500090
C41	C	-1.082996	-0.287674	0.000100
C42	C	-0.582996	0.212326	0.500100
C43	C	-1.084925	-0.386972	0.000094
C44	C	-0.584925	0.113028	0.500094
N45	N	-1.089529	-0.124139	0.246767
N46	N	-0.589529	0.375861	0.746767
C47	C	-1.177264	0.195845	0.000125
C48	C	-0.677264	0.695845	0.500125
C49	C	-1.175446	0.289146	0.000115
C50	C	-0.675446	0.789146	0.500115
C51	C	-1.090536	0.325266	0.000102
C52	C	-0.590536	0.825266	0.500102
C53	C	-1.007438	0.268080	0.000090
C54	C	-0.507438	0.768080	0.500090
C55	C	-1.009257	0.174781	0.000093
C56	C	-0.509257	0.674781	0.500093
C57	C	-1.003653	0.462545	0.000086
C58	C	-0.503653	0.962545	0.500086
C59	C	-1.001834	0.555850	0.000085
C60	C	-0.501834	1.055850	0.500085
C61	C	-1.169842	0.576909	0.000108
C62	C	-0.669842	1.076909	0.500108
C63	C	-1.171661	0.483610	0.000111
C64	C	-0.671661	0.983610	0.500111
C65	C	-1.088563	0.426431	0.000100
C66	C	-0.588563	0.926431	0.500100
N67	N	-1.089576	-0.124159	-0.246549
N68	N	-0.589576	0.375841	0.253451
C69	C	-1.152178	-0.063457	0.296595
C70	C	-0.652178	0.436543	0.796595
C71	C	-1.152184	-0.063456	0.396253
C72	C	-0.652184	0.436544	0.896253
C73	C	-1.089545	-0.124143	0.446081
C74	C	-0.589545	0.375857	0.946081
C75	C	-1.026890	-0.184829	0.396246
C76	C	-0.526890	0.315171	0.896246
C77	C	-1.026880	-0.184824	0.296590
C78	C	-0.526880	0.315176	0.796590
C79	C	-1.026916	-0.184835	0.603960
C80	C	-0.526916	0.315165	1.103960
C81	C	-1.026927	-0.184841	0.703623
C82	C	-0.526927	0.315159	1.203623
C83	C	-1.152220	-0.063467	0.703623
C84	C	-0.652220	0.436533	1.203623
C85	C	-1.152211	-0.063463	0.603967
C86	C	-0.652211	0.436537	1.103967
C87	C	-1.089556	-0.124150	0.554139
C88	C	-0.589556	0.375850	1.054139
H89	H	-1.243107	0.335698	0.000125
H90	H	-0.743107	0.835698	0.500125
H91	H	-0.975919	-0.234258	0.744188
H92	H	-0.475919	0.265742	1.244188
H93	H	-0.975883	-0.234239	0.436822
H94	H	-0.475883	0.265761	0.936822
N95	N	-0.959303	-0.250274	0.242849
N96	N	-0.459303	0.249726	0.742849
H97	H	-0.969988	-0.313783	0.260176
H98	H	-0.469988	0.186217	0.760176
H99	H	-0.968830	-0.240984	0.172174
H100	H	-0.468830	0.259016	0.672174
H101	H	-1.203197	-0.014043	0.436822
H102	H	-0.703197	0.485957	0.936822
N103	N	-1.219773	0.001993	0.550228
N104	N	-0.719773	0.501993	1.050228
H105	H	-1.184486	0.041674	0.508891
H106	H	-0.684486	0.541674	1.008891
H107	H	-1.260617	-0.032341	0.508925
H108	H	-0.760617	0.467659	1.008925
H109	H	-0.941595	0.128227	0.000085
H110	H	-0.441595	0.628227	0.500085
N111	N	-0.914034	0.400860	0.000097
N112	N	-0.414034	0.900860	0.500097
H113	H	-0.911043	0.361666	-0.058586
H114	H	-0.411043	0.861666	0.441414
H115	H	-0.860012	0.437951	0.000135
H116	H	-0.360012	0.937951	0.500135
H117	H	-1.203235	-0.014054	0.744199
H118	H	-0.703235	0.485946	1.244199
H119	H	-0.932692	0.585255	0.000090
H120	H	-0.432692	1.085255	0.500090
N121	N	-1.219744	0.001994	0.242855
N122	N	-0.719744	0.501994	0.742855
H123	H	-1.259431	0.040437	0.289547
H124	H	-0.759431	0.540437	0.789547
H125	H	-1.184396	0.041617	0.201518
H126	H	-0.684396	0.541617	0.701518
N127	N	-1.268846	0.156891	0.000148
N128	N	-0.768846	0.656891	0.500148
H129	H	-1.321208	0.207274	0.000151
H130	H	-0.821208	0.707274	0.500151
H131	H	-1.273269	0.118631	-0.058541
H132	H	-0.773269	0.618631	0.441459
N133	N	-1.263240	0.444649	0.000136
N134	N	-0.763240	0.944649	0.500136
H135	H	-1.315606	0.495027	0.000142
H136	H	-0.815606	0.995027	0.500142
H137	H	-1.267660	0.406388	-0.058553
H138	H	-0.767660	0.906388	0.441447
N139	N	-1.259470	0.638578	0.000113
N140	N	-0.759470	1.138578	0.500113
H141	H	-1.313535	0.601539	0.000128
H142	H	-0.813535	1.101539	0.500128
H143	H	-1.262363	0.677754	0.058803
H144	H	-0.762363	1.177754	0.558803
N145	N	-0.959336	-0.250285	0.550214
N146	N	-0.459336	0.249715	1.050214
H147	H	-0.919658	-0.288734	0.596900
H148	H	-0.419658	0.211266	1.096900
H149	H	-0.994679	-0.289903	0.508854
H150	H	-0.494679	0.210097	1.008854
N151	N	-0.915859	0.307041	0.000079
N152	N	-0.415859	0.807041	0.500079
H153	H	-0.879445	0.286204	0.058765
H154	H	-0.379445	0.786204	0.558765
H155	H	-0.879530	0.286186	-0.058653
H156	H	-0.379530	0.786186	0.441347
