data_functionalizedCrystal
_audit_creation_method	'MofGen! by Chris Wilmer'
_symmetry_space_group_name_H-M	'P1'
_symmetry_Int_Tables_number	1
_symmetry_cell_setting	triclinic
loop_
_symmetry_equiv_pos_as_xyz
  x,y,z
_cell_length_a	19.288840
_cell_length_b	19.288864
_cell_length_c	18.366186
_cell_angle_alpha	89.971967
_cell_angle_beta	90.016271
_cell_angle_gamma	96.868870
loop_
_atom_site_label
_atom_site_type_symbol
_atom_site_fract_x
_atom_site_fract_y
_atom_site_fract_z
O1	O	-0.921364	0.086566	-0.060706
O2	O	-0.588031	0.419899	0.272628
O3	O	-0.254697	0.753232	0.605961
O4	O	-0.719101	0.098273	-0.060685
O5	O	-0.385767	0.431606	0.272648
O6	O	-0.052434	0.764939	0.605981
O7	O	-0.826077	-0.008712	-0.060651
O8	O	-0.492743	0.324622	0.272682
O9	O	-0.159410	0.657955	0.606016
O10	O	-0.814388	0.193550	-0.060740
O11	O	-0.481055	0.526883	0.272593
O12	O	-0.147721	0.860217	0.605927
O13	O	-0.826059	-0.008717	0.060448
O14	O	-0.492725	0.324617	0.393782
O15	O	-0.159392	0.657950	0.727115
O16	O	-0.719083	0.098268	0.060414
O17	O	-0.385749	0.431601	0.393747
O18	O	-0.052416	0.764934	0.727081
O19	O	-0.921346	0.086561	0.060394
O20	O	-0.588012	0.419894	0.393727
O21	O	-0.254679	0.753227	0.727060
Zn22	Zn	-0.820211	0.092413	0.079631
Zn23	Zn	-0.486878	0.425747	0.412964
Zn24	Zn	-0.153545	0.759080	0.746298
Zn25	Zn	-0.820235	0.092420	-0.079923
Zn26	Zn	-0.486902	0.425753	0.253411
Zn27	Zn	-0.153569	0.759087	0.586744
O28	O	-0.814370	0.193545	0.060359
O29	O	-0.481036	0.526878	0.393693
O30	O	-0.147703	0.860212	0.727026
C31	C	-0.693215	0.097896	-0.000132
C32	C	-0.359882	0.431230	0.333201
C33	C	-0.026548	0.764563	0.666535
C34	C	-0.616110	0.096774	-0.000122
C35	C	-0.282777	0.430108	0.333211
C36	C	0.050556	0.763441	0.666545
N37	N	-0.820200	0.092408	0.188522
N38	N	-0.486867	0.425741	0.521855
N39	N	-0.153533	0.759075	0.855189
C40	C	-0.825692	-0.034591	-0.000091
C41	C	-0.492358	0.298743	0.333242
C42	C	-0.159025	0.632076	0.666575
C43	C	-0.824563	-0.111694	-0.000061
C44	C	-0.491229	0.221639	0.333272
C45	C	-0.157896	0.554973	0.666605
C46	C	-0.947232	0.086937	-0.000161
C47	C	-0.613898	0.420270	0.333172
C48	C	-0.280565	0.753604	0.666506
C49	C	-1.024336	0.088059	-0.000176
C50	C	-0.691003	0.421392	0.333157
C51	C	-0.357669	0.754726	0.666491
C52	C	-0.579917	0.096238	-0.066135
C53	C	-0.246583	0.429571	0.267198
C54	C	0.086750	0.762905	0.600532
C55	C	-0.507470	0.095176	-0.066143
C56	C	-0.174137	0.428509	0.267190
C57	C	0.159197	0.761843	0.600523
C58	C	-0.471221	0.094636	-0.000135
C59	C	-0.137888	0.427970	0.333198
C60	C	0.195445	0.761303	0.666532
C61	C	-0.507423	0.095176	0.065886
C62	C	-0.174090	0.428510	0.399220
C63	C	0.159244	0.761843	0.732553
C64	C	-0.579868	0.096245	0.065893
C65	C	-0.246534	0.429579	0.399226
C66	C	0.086799	0.762912	0.732560
C67	C	-0.361886	0.052256	0.050445
C68	C	-0.028553	0.385590	0.383778
C69	C	0.304781	0.718923	0.717111
C70	C	-0.289443	0.051183	0.050435
C71	C	0.043890	0.384516	0.383769
C72	C	0.377223	0.717850	0.717102
C73	C	-0.247778	0.091342	-0.000153
C74	C	0.085556	0.424675	0.333181
C75	C	0.418889	0.758009	0.666514
C76	C	-0.278565	0.132566	-0.050744
C77	C	0.054769	0.465899	0.282590
C78	C	0.388102	0.799232	0.615923
C79	C	-0.351009	0.133635	-0.050737
C80	C	-0.017676	0.466968	0.282596
C81	C	0.315657	0.800301	0.615930
C82	C	-0.392667	0.093477	-0.000135
C83	C	-0.059334	0.426811	0.333198
C84	C	0.273999	0.760144	0.666532
C85	C	-0.133029	0.089655	-0.066179
C86	C	0.200305	0.422989	0.267154
C87	C	0.533638	0.756322	0.600487
C88	C	-0.060580	0.088598	-0.066185
C89	C	0.272754	0.421931	0.267148
C90	C	0.606087	0.755264	0.600482
C91	C	-0.060535	0.088591	0.065847
C92	C	0.272798	0.421924	0.399180
C93	C	0.606131	0.755258	0.732513
C94	C	-0.132982	0.089656	0.065851
C95	C	0.200351	0.422989	0.399184
C96	C	0.533685	0.756322	0.732517
C97	C	-0.169225	0.090185	-0.000164
C98	C	0.164109	0.423518	0.333169
C99	C	0.497442	0.756851	0.666502
C100	C	-0.814755	0.219424	-0.000202
C101	C	-0.481422	0.552757	0.333131
C102	C	-0.148088	0.886091	0.666465
C103	C	-0.815884	0.296527	-0.000237
C104	C	-0.482551	0.629861	0.333097
C105	C	-0.149217	0.963194	0.666430
C106	C	-0.753115	0.341229	-0.000216
C107	C	-0.419782	0.674563	0.333118
C108	C	-0.086449	1.007896	0.666451
C109	C	-0.754176	0.413676	-0.000199
C110	C	-0.420843	0.747010	0.333134
C111	C	-0.087509	1.080343	0.666467
C112	C	-0.818009	0.441418	-0.000189
C113	C	-0.484676	0.774751	0.333144
C114	C	-0.151342	1.108085	0.666477
C115	C	-0.880786	0.396706	-0.000215
C116	C	-0.547452	0.730040	0.333119
C117	C	-0.214119	1.063373	0.666452
C118	C	-0.879723	0.324261	-0.000238
C119	C	-0.546390	0.657594	0.333095
C120	C	-0.213057	0.990928	0.666428
C121	C	-0.868182	0.549662	0.042271
C122	C	-0.534849	0.882995	0.375604
C123	C	-0.201515	1.216328	0.708937
C124	C	-0.869242	0.622106	0.042299
C125	C	-0.535909	0.955439	0.375632
C126	C	-0.202575	1.288773	0.708965
C127	C	-0.821289	0.664863	-0.000120
C128	C	-0.487955	0.998197	0.333214
C129	C	-0.154622	1.331530	0.666547
C130	C	-0.772263	0.635169	-0.042557
C131	C	-0.438930	0.968502	0.290777
C132	C	-0.105597	1.301836	0.624110
C133	C	-0.771201	0.562724	-0.042580
C134	C	-0.437868	0.896057	0.290753
C135	C	-0.104534	1.229390	0.624086
C136	C	-0.819168	0.519972	-0.000164
C137	C	-0.485835	0.853305	0.333169
C138	C	-0.152501	1.186639	0.666502
C139	C	-0.759666	0.788121	-0.000082
C140	C	-0.426332	1.121455	0.333251
C141	C	-0.092999	1.454788	0.666585
C142	C	-0.760729	0.860569	-0.000070
C143	C	-0.427396	1.193903	0.333263
C144	C	-0.094062	1.527236	0.666597
C145	C	-0.887341	0.843598	-0.000078
C146	C	-0.554007	1.176931	0.333255
C147	C	-0.220674	1.510264	0.666589
C148	C	-0.886276	0.771151	-0.000097
C149	C	-0.552942	1.104485	0.333236
C150	C	-0.219609	1.437818	0.666569
C151	C	-0.822436	0.743418	-0.000096
C152	C	-0.489103	1.076751	0.333238
C153	C	-0.155769	1.410084	0.666571
N154	N	-0.820252	0.092420	-0.188814
N155	N	-0.486919	0.425753	0.144520
N156	N	-0.153585	0.759086	0.477853
C157	C	-0.867584	0.045059	0.226638
C158	C	-0.534251	0.378392	0.559971
C159	C	-0.200918	0.711725	0.893304
C160	C	-0.867589	0.045055	0.302865
C161	C	-0.534256	0.378389	0.636199
C162	C	-0.200922	0.711722	0.969532
C163	C	-0.820215	0.092414	0.340975
C164	C	-0.486882	0.425747	0.674308
C165	C	-0.153549	0.759080	1.007642
C166	C	-0.772822	0.139767	0.302850
C167	C	-0.439489	0.473100	0.636184
C168	C	-0.106156	0.806434	0.969517
C169	C	-0.772815	0.139764	0.226624
C170	C	-0.439481	0.473097	0.559957
C171	C	-0.106148	0.806431	0.893290
C172	C	-0.810917	0.155703	0.461708
C173	C	-0.477584	0.489036	0.795041
C174	C	-0.144251	0.822369	1.128375
C175	C	-0.810930	0.155706	0.537933
C176	C	-0.477596	0.489040	0.871266
C177	C	-0.144263	0.822373	1.204600
C178	C	-0.820235	0.092423	0.576082
C179	C	-0.486902	0.425756	0.909416
C180	C	-0.153569	0.759089	1.242749
C181	C	-0.829543	0.029132	0.537997
C182	C	-0.496210	0.362466	0.871331
C183	C	-0.162876	0.695799	1.204664
C184	C	-0.829535	0.029129	0.461771
C185	C	-0.496202	0.362463	0.795104
C186	C	-0.162869	0.695796	1.128438
C187	C	-0.820218	0.092422	0.423630
C188	C	-0.486885	0.425755	0.756963
C189	C	-0.153552	0.759089	1.090296
C190	C	-0.867627	0.045066	0.696853
C191	C	-0.534294	0.378399	1.030186
C192	C	-0.200960	0.711732	1.363519
C193	C	-0.867627	0.045062	0.773082
C194	C	-0.534293	0.378395	1.106415
C195	C	-0.200960	0.711728	1.439749
C196	C	-0.772863	0.139779	0.773065
C197	C	-0.439530	0.473112	1.106399
C198	C	-0.106197	0.806446	1.439732
C199	C	-0.772860	0.139777	0.696838
C200	C	-0.439527	0.473110	1.030171
C201	C	-0.106194	0.806444	1.363504
C202	C	-0.820246	0.092421	0.658736
C203	C	-0.486913	0.425755	0.992069
C204	C	-0.153579	0.759088	1.325403
H205	H	-0.609421	0.096669	-0.119890
H206	H	-0.276088	0.430002	0.213444
H207	H	0.057246	0.763335	0.546777
H208	H	-0.477995	0.094741	-0.119901
H209	H	-0.144662	0.428074	0.213433
H210	H	0.188672	0.761407	0.546766
H211	H	-0.734288	0.178336	0.804093
H212	H	-0.400955	0.511670	1.137427
H213	H	-0.067622	0.845003	1.470760
H214	H	-0.803355	0.207241	0.568936
H215	H	-0.470022	0.540574	0.902269
H216	H	-0.136689	0.873908	1.235603
H217	H	-0.244641	0.165270	-0.091935
H218	H	0.088692	0.498603	0.241398
H219	H	0.422025	0.831937	0.574732
H220	H	-0.709613	0.896966	-0.000058
H221	H	-0.376280	1.230299	0.333275
H222	H	-0.042946	1.563632	0.666609
H223	H	-0.906209	0.006503	0.665829
H224	H	-0.572876	0.339837	0.999163
H225	H	-0.239543	0.673170	1.332496
H226	H	-0.477905	0.094739	0.119631
H227	H	-0.144571	0.428072	0.452964
H228	H	0.188762	0.761405	0.786297
H229	H	-0.376073	0.167202	-0.091928
H230	H	-0.042739	0.500535	0.241405
H231	H	0.290594	0.833869	0.574738
H232	H	-0.162452	0.090088	0.119605
H233	H	0.170882	0.423421	0.452939
H234	H	0.504215	0.756754	0.786272
H235	H	-0.906176	0.006496	0.333905
H236	H	-0.572843	0.339830	0.667238
H237	H	-0.239509	0.673163	1.000571
H238	H	-0.939315	0.866184	-0.000123
H239	H	-0.605981	1.199517	0.333210
H240	H	-0.272648	1.532851	0.666544
H241	H	-0.162538	0.090093	-0.119933
H242	H	0.170795	0.423427	0.213401
H243	H	0.504129	0.756760	0.546734
H244	H	-0.907237	0.514853	0.076812
H245	H	-0.573904	0.848187	0.410145
H246	H	-0.240571	1.181520	0.743478
H247	H	-0.837120	-0.022400	0.569057
H248	H	-0.503787	0.310934	0.902390
H249	H	-0.170453	0.644267	1.235724
H250	H	-0.733211	0.669981	-0.077093
H251	H	-0.399878	1.003315	0.256240
H252	H	-0.066545	1.336648	0.589573
H253	H	-0.909158	0.646278	0.076856
H254	H	-0.575825	0.979611	0.410190
H255	H	-0.242492	1.312944	0.743523
H256	H	-0.803327	0.207239	0.430653
H257	H	-0.469994	0.540572	0.763987
H258	H	-0.136661	0.873906	1.097320
H259	H	-0.734228	0.178322	0.195589
H260	H	-0.400894	0.511656	0.528923
H261	H	-0.067561	0.844989	0.862256
H262	H	-0.031022	0.088156	0.119592
H263	H	0.302311	0.421489	0.452925
H264	H	0.635645	0.754822	0.786259
H265	H	-0.932759	0.419298	-0.000220
H266	H	-0.599426	0.752632	0.333113
H267	H	-0.266092	1.085965	0.666447
H268	H	-0.906211	0.006500	0.804116
H269	H	-0.572877	0.339834	1.137450
H270	H	-0.239544	0.673167	1.470783
H271	H	-0.734249	0.178326	0.333883
H272	H	-0.400916	0.511659	0.667216
H273	H	-0.067582	0.844992	1.000549
H274	H	-0.031112	0.088165	-0.119943
H275	H	0.302222	0.421499	0.213391
H276	H	0.635555	0.754832	0.546724
H277	H	-0.734278	0.178336	0.665802
H278	H	-0.400945	0.511670	0.999135
H279	H	-0.067612	0.845003	1.332468
H280	H	-0.701132	0.318654	-0.000221
H281	H	-0.367799	0.651987	0.333113
H282	H	-0.034466	0.985320	0.666446
H283	H	-0.837112	-0.022404	0.430765
H284	H	-0.503779	0.310930	0.764099
H285	H	-0.170445	0.644263	1.097432
H286	H	-0.930839	0.287864	-0.000256
H287	H	-0.597505	0.621197	0.333077
H288	H	-0.264172	0.954531	0.666411
H289	H	-0.707684	0.765539	-0.000076
H290	H	-0.374351	1.098873	0.333257
H291	H	-0.041017	1.432206	0.666590
H292	H	-0.395805	0.019552	0.091643
H293	H	-0.062472	0.352885	0.424976
H294	H	0.270862	0.686219	0.758310
H295	H	-0.609336	0.096683	0.119650
H296	H	-0.276003	0.430016	0.452984
H297	H	0.057331	0.763349	0.786317
H298	H	-0.264383	0.017613	0.091626
H299	H	0.068950	0.350946	0.424960
H300	H	0.402284	0.684279	0.758293
H301	H	-0.703061	0.450080	-0.000180
H302	H	-0.369727	0.783413	0.333153
H303	H	-0.036394	1.116746	0.666486
H304	H	-0.906167	0.006497	0.195617
H305	H	-0.572834	0.339830	0.528951
H306	H	-0.239500	0.673164	0.862284
H307	H	-0.731284	0.538549	-0.077135
H308	H	-0.397951	0.871883	0.256198
H309	H	-0.064617	1.205216	0.589531
H310	H	-0.937389	0.734754	-0.000110
H311	H	-0.604055	1.068087	0.333224
H312	H	-0.270722	1.401420	0.666557
