data_functionalizedCrystal
_audit_creation_method	'MofGen! by Chris Wilmer'
_symmetry_space_group_name_H-M	'P1'
_symmetry_Int_Tables_number	1
_symmetry_cell_setting	triclinic
loop_
_symmetry_equiv_pos_as_xyz
  x,y,z
_cell_length_a	11.792241
_cell_length_b	10.868271
_cell_length_c	11.792254
_cell_angle_alpha	90.001586
_cell_angle_beta	84.196007
_cell_angle_gamma	90.000156
loop_
_atom_site_label
_atom_site_type_symbol
_atom_site_fract_x
_atom_site_fract_y
_atom_site_fract_z
O1	O	1.506916	0.102203	0.155561
O2	O	2.006916	0.602203	0.655561
O3	O	1.176576	0.102232	0.171594
O4	O	1.676576	0.602232	0.671594
O5	O	1.349755	0.102208	-0.001592
O6	O	1.849755	0.602208	0.498408
O7	O	1.333737	0.102227	0.328747
O8	O	1.833737	0.602227	0.828747
O9	O	1.349739	-0.102436	-0.001586
O10	O	1.849739	0.397564	0.498414
O11	O	1.176560	-0.102413	0.171600
O12	O	1.676560	0.397587	0.671600
O13	O	1.506900	-0.102441	0.155567
O14	O	2.006900	0.397559	0.655567
Zn15	Zn	1.341728	-0.134919	0.163584
Zn16	Zn	1.841728	0.365081	0.663584
Zn17	Zn	1.341748	0.134709	0.163577
Zn18	Zn	1.841748	0.634709	0.663577
O19	O	1.333721	-0.102418	0.328753
O20	O	1.833721	0.397582	0.828753
C21	C	1.134277	-0.000087	0.170590
C22	C	1.634277	0.499913	0.670590
C23	C	1.008263	-0.000076	0.167576
C24	C	1.508263	0.499924	0.667576
N25	N	1.341722	-0.318933	0.163589
N26	N	1.841722	0.181067	0.663589
C27	C	0.777551	-0.000112	0.162033
C28	C	1.277551	0.499888	0.662033
C29	C	0.905936	-0.000092	0.165112
C30	C	1.405936	0.499908	0.665112
C31	C	1.341731	-0.430270	0.163589
C32	C	1.841731	0.069730	0.663589
C33	C	1.341745	-0.569948	0.163579
C34	C	1.841745	-0.069948	0.663579
C35	C	1.549199	-0.000120	0.156571
C36	C	2.049199	0.499880	0.656571
C37	C	1.675213	-0.000123	0.159586
C38	C	2.175213	0.499877	0.659586
C39	C	1.348738	-0.000114	-0.043880
C40	C	1.848738	0.499886	0.456120
C41	C	1.345718	-0.000112	-0.169893
C42	C	1.845718	0.499888	0.330107
N43	N	1.341763	0.318724	0.163564
N44	N	1.841763	0.818724	0.663564
C45	C	1.343264	-0.000108	-0.272229
C46	C	1.843264	0.499892	0.227771
C47	C	1.340196	-0.000096	-0.400616
C48	C	1.840196	0.499904	0.099384
C49	C	1.334738	-0.000093	0.371041
C50	C	1.834738	0.499907	0.871041
C51	C	1.337758	-0.000086	0.497054
C52	C	1.837758	0.499914	0.997054
