data_functionalizedCrystal
_audit_creation_method	'MofGen! by Chris Wilmer'
_symmetry_space_group_name_H-M	'P1'
_symmetry_Int_Tables_number	1
_symmetry_cell_setting	triclinic
loop_
_symmetry_equiv_pos_as_xyz
  x,y,z
_cell_length_a	13.635800
_cell_length_b	13.167930
_cell_length_c	17.982968
_cell_angle_alpha	79.894202
_cell_angle_beta	102.451960
_cell_angle_gamma	74.245432
loop_
_atom_site_label
_atom_site_type_symbol
_atom_site_fract_x
_atom_site_fract_y
_atom_site_fract_z
V1	V	2.017029	-0.149947	0.248149
O2	O	2.001021	0.006168	0.232590
O3	O	2.002088	-0.296322	0.256873
O4	O	1.990166	-0.148096	0.351621
O5	O	2.013025	-0.143084	0.137186
V6	V	2.257989	-0.131220	0.233611
O7	O	2.149418	-0.191026	0.280040
O8	O	2.350699	-0.090141	0.201721
O9	O	2.161327	0.015155	0.224888
O10	O	2.332696	-0.287335	0.249170
O11	O	2.320691	-0.138083	0.344575
O12	O	2.173249	-0.133071	0.130139
V13	V	2.517029	-0.149947	0.248149
O14	O	2.501021	0.006168	0.232590
O15	O	2.502088	-0.296322	0.256873
O16	O	2.490166	-0.148096	0.351621
O17	O	2.513025	-0.143084	0.137186
V18	V	2.757989	-0.131220	0.233611
O19	O	2.649418	-0.191026	0.280040
O20	O	2.850699	-0.090141	0.201721
O21	O	2.661327	0.015155	0.224888
O22	O	2.832696	-0.287335	0.249170
O23	O	2.820691	-0.138083	0.344575
O24	O	2.673249	-0.133071	0.130139
C25	C	1.926927	-0.331991	0.255647
C26	C	1.955336	-0.451657	0.263469
C27	C	1.969936	-0.645186	0.136396
C28	C	1.996628	-0.757622	0.143742
C29	C	2.035420	-0.788969	0.285507
C30	C	2.008728	-0.676532	0.278161
C31	C	1.975985	-0.604644	0.203603
C32	C	1.949285	-0.492205	0.196257
C33	C	1.988085	-0.523554	0.338022
C34	C	2.014777	-0.635991	0.345368
C35	C	1.911719	-0.142912	0.376507
C36	C	1.930458	-0.142367	0.461165
C37	C	2.068159	0.050818	0.226112
C38	C	2.029369	0.170483	0.218295
C39	C	2.083368	-0.138258	0.105249
C40	C	2.054247	-0.138798	0.020591
C41	C	2.426927	-0.331991	0.255647
C42	C	2.455336	-0.451657	0.263469
C43	C	2.411719	-0.142912	0.376507
C44	C	2.430458	-0.142367	0.461165
C45	C	2.030563	-0.147506	0.505200
C46	C	2.048164	-0.146993	0.584744
C47	C	1.965661	-0.141349	0.620253
C48	C	1.865547	-0.136208	0.576212
C49	C	1.847945	-0.136713	0.496668
C50	C	1.936532	-0.134169	0.897005
C51	C	1.954143	-0.133668	0.976556
C52	C	2.136751	-0.144449	0.985081
C53	C	2.119149	-0.144954	0.905537
C54	C	2.019035	-0.139807	0.861501
C55	C	1.999951	-0.140361	0.775250
C56	C	1.984747	-0.140803	0.706505
C57	C	2.568159	0.050818	0.226112
C58	C	2.529369	0.170483	0.218295
C59	C	2.583368	-0.138258	0.105249
C60	C	2.554247	-0.138798	0.020591
C61	C	2.559999	-0.513359	0.271338
C62	C	2.586710	-0.625802	0.278700
C63	C	2.508755	-0.676539	0.278187
C64	C	2.404085	-0.614830	0.270319
C65	C	2.377377	-0.502390	0.262963
C66	C	2.530567	-0.147495	0.505185
C67	C	2.548185	-0.146969	0.584728
C68	C	2.465694	-0.141323	0.620250
C69	C	2.365576	-0.136191	0.576223
C70	C	2.347957	-0.136710	0.496681
C71	C	2.597200	0.232184	0.210427
C72	C	2.560761	0.344626	0.203069
C73	C	2.456493	0.395363	0.203584
C74	C	2.388656	0.333655	0.211450
C75	C	2.425093	0.221216	0.218802
C76	C	2.454507	-0.144432	-0.014913
C77	C	2.427127	-0.144926	-0.094461
C78	C	2.499492	-0.139794	-0.138502
C79	C	2.599240	-0.134156	-0.102993
C80	C	2.626616	-0.133655	-0.023448
H81	H	1.943261	-0.586652	0.075687
C82	C	2.678835	-0.128521	-0.151446
C83	C	2.649579	-0.033442	-0.224315
C84	C	2.729174	-0.027815	-0.272770
C85	C	2.838027	-0.117267	-0.248356
C86	C	2.867288	-0.212353	-0.175483
C87	C	2.787693	-0.217980	-0.127028
H88	H	2.568995	0.032782	-0.242392
H89	H	2.707512	0.042574	-0.326716
H90	H	2.896948	-0.113102	-0.284225
H91	H	2.947872	-0.278577	-0.157406
H92	H	2.809355	-0.288369	-0.073082
H93	H	2.218269	-0.148636	1.020944
H94	H	2.298417	-0.131595	0.605158
H95	H	1.922618	-0.433674	0.135548
H96	H	2.477192	-0.140217	-0.203269
C97	C	2.635397	0.412487	0.194427
C98	C	2.739136	0.386617	0.259514
C99	C	2.813773	0.454472	0.250874
C100	C	2.784671	0.548198	0.177147
C101	C	2.680927	0.574073	0.112056
C102	C	2.606290	0.506217	0.120696
H103	H	2.760683	0.317231	0.314095
H104	H	2.890571	0.435318	0.299059
H105	H	2.839922	0.598429	0.170751
H106	H	2.659380	0.643458	0.057474
H107	H	2.529492	0.525371	0.072510
H108	H	2.426836	0.486919	0.197597
H109	H	1.991701	-0.790625	0.089015
H110	H	2.062099	-0.847519	0.346209
H111	H	2.530517	-0.768095	0.284177
H112	H	2.041444	-0.694537	0.406071
H113	H	2.303757	0.374982	0.211867
H114	H	2.266437	-0.132536	0.460846
H115	H	2.129676	-0.151171	0.620593
C116	C	1.994738	-0.478962	0.411957
C117	C	1.894731	-0.400743	0.422404
C118	C	1.901377	-0.356151	0.496337
C119	C	2.008030	-0.389777	0.559825
C120	C	2.108044	-0.468000	0.549380
C121	C	2.101398	-0.512592	0.475447
H122	H	1.815774	-0.375847	0.375405
H123	H	1.827339	-0.298245	0.504068
H124	H	2.012950	-0.356767	0.614555
H125	H	2.187002	-0.492896	0.596379
H126	H	2.175436	-0.570498	0.467716
H127	H	2.097751	-0.152108	0.476296
H128	H	2.186335	-0.149555	0.876631
H129	H	2.369852	0.170986	0.225214
H130	H	2.395569	-0.148611	0.020935
H131	H	1.886952	-0.129069	1.005464
H132	H	1.855026	-0.130016	0.861167
H133	H	2.682105	0.190889	0.210007
H134	H	1.798371	-0.131606	0.605129
H135	H	1.766423	-0.132502	0.460810
H136	H	2.623486	-0.472063	0.271753
H137	H	2.671941	-0.676030	0.285103
H138	H	2.340621	-0.656158	0.269903
H139	H	2.345903	-0.149517	-0.123360
H140	H	2.292148	-0.452160	0.256552
H141	H	2.597748	-0.152096	0.476274
H142	H	2.629713	-0.151152	0.620564
H143	H	2.480055	-0.140902	0.685020
H144	H	2.707837	-0.129073	0.005453
