data_functionalizedCrystal
_audit_creation_method	'MofGen! by Chris Wilmer'
_symmetry_space_group_name_H-M	'P1'
_symmetry_Int_Tables_number	1
_symmetry_cell_setting	triclinic
loop_
_symmetry_equiv_pos_as_xyz
  x,y,z
_cell_length_a	15.995350
_cell_length_b	15.995350
_cell_length_c	14.472310
_cell_angle_alpha	89.998838
_cell_angle_beta	89.990621
_cell_angle_gamma	96.507625
loop_
_atom_site_label
_atom_site_type_symbol
_atom_site_fract_x
_atom_site_fract_y
_atom_site_fract_z
O1	O	1.110997	-0.107921	-0.076758
O2	O	0.867221	-0.121248	-0.076776
O3	O	0.995773	0.007303	-0.076766
O4	O	0.982445	-0.236472	-0.076769
O5	O	0.995740	0.007296	0.076916
O6	O	0.867188	-0.121256	0.076906
O7	O	1.110963	-0.107928	0.076924
Cu8	Cu	0.989073	-0.114593	0.090947
Cu9	Cu	0.989112	-0.114584	-0.090800
O10	O	0.982412	-0.236480	0.076913
C11	C	0.836010	-0.120701	0.000062
C12	C	0.743060	-0.119049	0.000055
C13	C	0.405312	-0.113117	0.000074
C14	C	0.452746	-0.021565	0.000418
C15	C	0.549436	-0.023217	0.000065
C16	C	0.572873	-0.116060	0.000065
C17	C	0.531804	-0.161212	-0.087692
C18	C	0.435169	-0.158912	-0.087759
C19	C	0.434792	-0.160812	0.087007
C20	C	0.531737	-0.160790	0.088160
C21	C	0.667570	-0.117727	0.000057
C22	C	0.310614	-0.111452	0.000076
C23	C	0.995205	0.038494	0.000073
C24	C	0.993553	0.131444	0.000068
C25	C	1.142175	-0.108476	0.000083
C26	C	1.235125	-0.110127	0.000084
C27	C	0.982980	-0.267671	0.000072
C28	C	0.984631	-0.360621	0.000071
N29	N	0.989051	-0.114598	0.218778
C30	C	0.987621	0.469192	0.000071
C31	C	0.896069	0.421758	-0.000281
C32	C	0.897721	0.325068	0.000066
C33	C	0.990564	0.301631	0.000069
C34	C	1.035701	0.342705	0.087831
C35	C	1.033401	0.439340	0.087904
C36	C	1.035330	0.439707	-0.086861
C37	C	1.035309	0.342762	-0.088021
C38	C	0.992231	0.206934	0.000071
C39	C	0.985956	0.563890	0.000075
N40	N	0.989140	-0.114572	-0.218631
C41	C	0.989111	-0.114581	0.592869
C42	C	0.920095	-0.183135	0.553698
C43	C	0.920254	-0.183385	0.446610
C44	C	0.989081	-0.114590	0.407278
C45	C	1.076445	-0.133671	0.446122
C46	C	1.076057	-0.134159	0.553243
C47	C	0.971542	-0.026741	0.553398
C48	C	0.969538	-0.027327	0.446270
C49	C	0.989069	-0.114593	0.302390
C50	C	0.989128	-0.114579	0.697757
H51	H	0.434210	0.015027	0.063352
N52	N	1.096545	-0.219019	0.586333
H53	H	1.096494	-0.220186	0.656110
H54	H	1.153925	-0.229288	0.562740
N55	N	0.834228	-0.168355	0.411818
H56	H	0.834166	-0.168497	0.342030
H57	H	0.819972	-0.112119	0.434987
N58	N	1.146099	-0.070509	0.587575
H59	H	1.177095	-0.042265	0.533119
H60	H	1.186444	-0.099913	0.626260
H61	H	0.414242	-0.130885	0.153524
H62	H	1.002307	0.315516	-0.152945
N63	N	0.392468	-0.247950	-0.093040
H64	H	0.356594	-0.254736	-0.150562
H65	H	0.355802	-0.260213	-0.036743
H66	H	1.005412	0.460250	-0.153379
H67	H	0.859490	0.440293	-0.063217
H68	H	0.931159	-0.247952	0.580608
N69	N	1.124997	0.322426	-0.095040
H70	H	1.132580	0.291225	-0.154585
H71	H	1.137894	0.286129	-0.040932
H72	H	0.861973	0.297200	0.063079
N73	N	0.847795	0.447695	0.082617
H74	H	0.789058	0.416937	0.081866
H75	H	0.844566	0.510357	0.080409
N76	N	0.934891	-0.269788	0.412643
H77	H	0.941294	-0.307854	0.467258
H78	H	0.987744	-0.265495	0.373931
H79	H	0.559040	-0.127830	0.153082
N80	N	0.586370	0.024106	-0.083411
H81	H	0.627809	0.072830	-0.062641
H82	H	0.539782	0.046067	-0.120095
H83	H	1.102831	0.471468	-0.087449
H84	H	1.000459	0.457639	0.153505
N85	N	0.552081	-0.250474	0.095188
H86	H	0.588410	-0.263438	0.041123
H87	H	0.498144	-0.289971	0.094440
N88	N	0.833792	-0.168334	0.587848
H89	H	0.838591	-0.117048	0.629046
H90	H	0.808541	-0.219054	0.623955
N91	N	0.569401	-0.119670	-0.174208
H92	H	0.613026	-0.071611	-0.156757
H93	H	0.523535	-0.097445	-0.211811
N94	N	1.146105	-0.069292	0.412384
H95	H	1.121641	-0.027038	0.371495
H96	H	1.188257	-0.098463	0.376050
N97	N	0.888971	-0.002446	0.589204
H98	H	0.899344	0.052116	0.624684
H99	H	0.862156	-0.048189	0.631346
H100	H	0.416874	-0.125979	-0.153359
N101	N	0.550521	-0.251559	-0.092032
H102	H	0.585886	-0.264119	-0.037021
H103	H	0.582181	-0.260835	-0.150852
H104	H	0.403031	-0.228313	0.087600
H105	H	1.016541	0.026079	0.419500
H106	H	1.021872	0.024275	0.578728
N107	N	1.097446	-0.217558	0.410575
H108	H	1.052646	-0.263390	0.431107
H109	H	1.153790	-0.229197	0.435963
N110	N	0.587084	0.023790	0.083394
H111	H	0.540873	0.045775	0.120686
H112	H	0.628445	0.072481	0.062366
N113	N	0.426789	0.026693	-0.082471
H114	H	0.441302	-0.003000	-0.140927
H115	H	0.457547	0.085427	-0.081648
H116	H	0.862239	0.296649	-0.062846
N117	N	0.884382	-0.008168	0.412709
H118	H	0.858567	-0.055805	0.372406
H119	H	0.891055	0.045771	0.375811
H120	H	1.100617	0.471588	0.091888
H121	H	1.103909	0.328579	0.091097
H122	H	1.004324	0.314320	0.153137
