data_functionalizedCrystal
_audit_creation_method	'MofGen! by Chris Wilmer'
_symmetry_space_group_name_H-M	'P1'
_symmetry_Int_Tables_number	1
_symmetry_cell_setting	triclinic
loop_
_symmetry_equiv_pos_as_xyz
  x,y,z
_cell_length_a	18.101395
_cell_length_b	12.645331
_cell_length_c	12.645323
_cell_angle_alpha	90.026382
_cell_angle_beta	89.971733
_cell_angle_gamma	89.974642
loop_
_atom_site_label
_atom_site_type_symbol
_atom_site_fract_x
_atom_site_fract_y
_atom_site_fract_z
Zn1	Zn	-0.294937	-1.620632	-0.599526
Zn2	Zn	-0.418788	-1.620473	-0.422256
Zn3	Zn	-0.294952	-1.443347	-0.422259
Zn4	Zn	-0.418729	-1.443287	-0.599459
O5	O	-0.356852	-1.531935	-0.510875
O6	O	-0.311385	-1.768958	-0.576037
O7	O	-0.402391	-1.596935	-0.273909
O8	O	-0.191317	-1.466956	-0.445803
O9	O	-0.402377	-1.768841	-0.445797
O10	O	-0.191306	-1.597207	-0.576040
O11	O	-0.311410	-1.466801	-0.273911
O12	O	-0.311353	-1.294992	-0.445739
O13	O	-0.402277	-1.466854	-0.747816
O14	O	-0.402291	-1.294948	-0.575927
O15	O	-0.311328	-1.597149	-0.747865
O16	O	-0.522413	-1.596877	-0.445733
O17	O	-0.522370	-1.466699	-0.575924
C18	C	-0.356818	-1.256505	-0.510827
C19	C	-0.356822	-1.138675	-0.510831
C20	C	-0.299339	-0.971103	-0.429370
C21	C	-0.299495	-1.093663	-0.429019
C22	C	-0.434833	-1.094129	-0.480307
C23	C	-0.434512	-0.971530	-0.479743
C24	C	-0.337013	-0.971532	-0.623106
C25	C	-0.335278	-1.094139	-0.622490
C26	C	-0.549262	-1.531793	-0.510844
C27	C	-0.631576	-1.531829	-0.510866
C28	C	-0.930667	-1.532062	-0.510923
C29	C	-0.899346	-1.450348	-0.593039
C30	C	-0.813728	-1.449960	-0.592782
C31	C	-0.782285	-1.531946	-0.510896
C32	C	-0.813435	-1.501694	-0.399168
C33	C	-0.899080	-1.501167	-0.399659
C34	C	-0.899018	-1.644207	-0.539551
C35	C	-0.813367	-1.643548	-0.542001
C36	C	-0.698425	-1.531883	-0.510873
C37	C	-1.014527	-1.532123	-0.510938
C38	C	-0.163690	-1.532106	-0.510929
C39	C	-0.081375	-1.532179	-0.510953
C40	C	-0.356794	-1.532013	-0.787380
C41	C	-0.356770	-1.532046	-0.905211
C42	C	-0.356871	-0.808440	-0.510908
C43	C	-0.356843	-0.926270	-0.510881
C44	C	-0.413716	-1.449825	-1.072744
C45	C	-0.413998	-1.450040	-0.950184
C46	C	-0.377958	-1.643739	-0.949736
C47	C	-0.378315	-1.643288	-1.072334
C48	C	-0.278317	-1.503631	-1.072413
C49	C	-0.278787	-1.501139	-0.949807
C50	C	-0.356855	-1.531918	-0.235445
C51	C	-0.356671	-1.532090	-0.117616
H52	H	-0.312605	-1.122937	-0.345860
H53	H	-0.793299	-1.366835	-0.573818
H54	H	-0.259005	-1.423605	-1.103314
Cl55	Cl	-0.246652	-1.139121	-0.658042
H56	H	-0.792664	-1.468888	-0.675627
Cl57	Cl	-0.932680	-1.322792	-0.564153
H58	H	-0.919802	-1.558102	-0.336390
H59	H	-0.478807	-0.941871	-0.536522
H60	H	-0.241647	-1.123783	-0.448153
H61	H	-0.374109	-1.124783	-0.686474
Cl62	Cl	-0.401675	-0.926769	-0.716873
Cl63	Cl	-0.393524	-1.322166	-0.903697
H64	H	-0.434636	-1.668278	-0.919044
H65	H	-0.281117	-0.940654	-0.650860
H66	H	-0.262808	-1.418943	-0.920703
Cl67	Cl	-0.931073	-1.479273	-0.721363
H68	H	-0.919118	-1.419189	-0.375410
Cl69	Cl	-0.460472	-0.927290	-0.353076
Cl70	Cl	-0.781995	-1.590688	-0.302125
H71	H	-0.400584	-1.366755	-1.102213
H72	H	-0.792045	-1.420584	-0.374484
H73	H	-0.478825	-1.123283	-0.537815
H74	H	-0.920567	-1.671788	-0.619635
Cl75	Cl	-0.781930	-1.678776	-0.668951
Cl76	Cl	-0.780312	-1.742524	-0.456399
H77	H	-0.451941	-1.124778	-0.399149
H78	H	-0.919273	-1.705087	-0.479743
Cl79	Cl	-0.502828	-1.478481	-1.120396
Cl80	Cl	-0.503671	-1.479104	-0.904912
H81	H	-0.435593	-1.667414	-1.100941
H82	H	-0.338570	-1.706659	-1.102020
H83	H	-0.337723	-1.706675	-0.920608
Cl84	Cl	-0.209695	-1.586904	-0.902559
H85	H	-0.235816	-1.563549	-1.101434
H86	H	-0.241314	-0.941659	-0.448294
H87	H	-0.312300	-0.940251	-0.346696
