data_functionalizedCrystal
_audit_creation_method	'MofGen! by Chris Wilmer'
_symmetry_space_group_name_H-M	'P1'
_symmetry_Int_Tables_number	1
_symmetry_cell_setting	triclinic
loop_
_symmetry_equiv_pos_as_xyz
  x,y,z
_cell_length_a	17.077404
_cell_length_b	18.050589
_cell_length_c	17.077395
_cell_angle_alpha	89.976617
_cell_angle_beta	89.984359
_cell_angle_gamma	90.028446
loop_
_atom_site_label
_atom_site_type_symbol
_atom_site_fract_x
_atom_site_fract_y
_atom_site_fract_z
Zn1	Zn	1.199996	-0.295664	-0.443864
Zn2	Zn	1.199899	-0.419859	-0.312606
Zn3	Zn	1.068736	-0.295688	-0.312612
Zn4	Zn	1.068683	-0.419817	-0.443830
O5	O	1.134329	-0.357757	-0.378228
O6	O	1.309830	-0.312146	-0.426464
O7	O	1.182482	-0.403414	-0.202760
O8	O	1.086211	-0.191760	-0.330039
O9	O	1.309759	-0.403392	-0.330030
O10	O	1.182646	-0.191743	-0.426469
O11	O	1.086117	-0.312186	-0.202764
O12	O	0.958882	-0.312146	-0.330006
O13	O	1.086120	-0.403321	-0.553681
O14	O	0.958843	-0.403344	-0.426412
O15	O	1.182595	-0.312106	-0.553706
O16	O	1.182431	-0.523778	-0.329997
O17	O	1.086027	-0.523748	-0.426407
C18	C	0.930381	-0.357744	-0.378206
C19	C	0.843131	-0.357756	-0.378216
C20	C	0.802141	-0.405314	-0.428333
C21	C	0.720161	-0.405316	-0.428346
C22	C	0.679172	-0.357762	-0.378236
C23	C	0.720167	-0.310199	-0.328116
C24	C	0.802146	-0.310194	-0.328108
C25	C	0.549297	-0.310213	-0.328135
C26	C	0.467313	-0.310219	-0.328142
C27	C	0.467312	-0.405335	-0.428373
C28	C	0.549291	-0.405330	-0.428365
C29	C	0.590281	-0.357767	-0.378244
C30	C	1.134234	-0.550709	-0.378215
C31	C	1.134265	-0.633255	-0.378236
C32	C	1.081892	-0.832716	-0.430645
C33	C	1.062762	-0.882156	-0.359016
C34	C	1.134342	-0.784385	-0.378246
C35	C	1.153511	-0.882027	-0.449883
C36	C	1.134415	-0.930370	-0.378262
C37	C	1.115174	-0.832738	-0.306579
C38	C	1.205957	-0.832604	-0.397495
C39	C	1.186854	-0.882022	-0.325816
C40	C	1.134298	-0.700287	-0.378238
C41	C	1.134459	-1.014467	-0.378262
C42	C	1.339073	-0.357771	-0.378250
C43	C	1.426323	-0.357777	-0.378260
C44	C	1.134362	-0.357707	-0.582972
C45	C	1.134377	-0.357685	-0.670222
C46	C	1.134445	-0.164051	-0.378258
C47	C	1.134495	-0.081506	-0.378271
C48	C	1.184698	-0.310089	-1.046051
C49	C	1.184682	-0.310115	-0.964070
C50	C	1.134441	-0.357615	-0.923071
C51	C	1.084219	-0.405097	-0.964057
C52	C	1.084240	-0.405074	-1.046036
C53	C	1.084178	-0.405140	-0.793187
C54	C	1.084157	-0.405162	-0.711202
C55	C	1.184621	-0.310181	-0.711221
C56	C	1.184641	-0.310158	-0.793200
C57	C	1.134418	-0.357639	-0.834180
C58	C	1.134340	-0.357754	-0.174280
C59	C	1.134478	-0.357566	-0.087031
H60	H	0.686790	-0.444043	-0.469156
H61	H	0.835519	-0.271463	-0.287301
C62	C	1.021888	-0.803459	-0.490422
C63	C	1.029756	-0.824001	-0.577581
C64	C	0.969751	-0.794742	-0.637352
C65	C	0.901877	-0.744942	-0.609966
C66	C	0.894006	-0.724398	-0.522803
C67	C	0.954012	-0.753657	-0.463031
H68	H	1.080003	-0.860868	-0.597858
H69	H	0.975578	-0.809951	-0.701876
H70	H	0.857458	-0.723284	-0.654212
H71	H	0.843760	-0.687531	-0.502526
H72	H	0.948185	-0.738448	-0.398507
C73	C	0.594391	-0.257893	-0.273006
C74	C	0.583162	-0.173476	-0.279566
C75	C	0.628258	-0.121159	-0.224438
C76	C	0.684584	-0.153259	-0.162750
C77	C	0.695816	-0.237681	-0.156188
C78	C	0.650720	-0.289997	-0.211316
H79	H	0.541463	-0.149709	-0.325233
H80	H	0.619943	-0.058664	-0.229296
H81	H	0.717967	-0.114531	-0.121941
H82	H	0.737515	-0.261447	-0.110521
H83	H	0.659035	-0.352492	-0.206457
H84	H	1.002234	-0.903938	-0.342749
H85	H	1.043346	-0.443736	-1.079401
H86	H	1.098920	-0.811177	-0.245986
C87	C	1.239921	-0.257881	-0.918996
C88	C	1.205925	-0.199589	-0.862645
C89	C	1.261166	-0.147352	-0.817573
C90	C	1.350402	-0.153406	-0.828852
C91	C	1.384402	-0.211700	-0.885207
C92	C	1.329161	-0.263938	-0.930278
H93	H	1.139864	-0.195105	-0.854293
H94	H	1.235997	-0.104199	-0.775856
H95	H	1.391294	-0.114737	-0.795488
H96	H	1.450463	-0.216184	-0.893559
H97	H	1.354330	-0.307091	-0.971996
H98	H	0.433941	-0.271488	-0.287347
H99	H	0.835508	-0.444040	-0.469136
H100	H	1.266471	-0.810825	-0.413795
H101	H	1.231240	-0.903536	-0.281460
C102	C	0.594379	-0.457641	-0.483484
C103	C	0.650697	-0.515900	-0.449356
C104	C	0.695785	-0.568211	-0.504477
C105	C	0.684554	-0.562262	-0.593726
C106	C	0.628233	-0.504001	-0.627859
C107	C	0.583146	-0.451690	-0.572738
H108	H	0.659013	-0.520306	-0.383284
H109	H	0.737477	-0.611340	-0.479209
H110	H	0.717931	-0.600986	-0.634530
H111	H	0.619918	-0.499595	-0.693931
H112	H	0.541453	-0.408561	-0.598006
C113	C	0.422227	-0.457655	-0.483508
C114	C	0.332053	-0.457663	-0.483524
C115	C	0.286964	-0.509985	-0.538653
C116	C	0.332049	-0.562299	-0.593765
C117	C	0.422228	-0.562294	-0.593751
C118	C	0.467317	-0.509971	-0.538623
H119	H	0.298674	-0.418934	-0.442725
H120	H	0.220208	-0.509989	-0.538662
H121	H	0.298672	-0.601031	-0.634574
H122	H	0.455607	-0.601022	-0.634551
H123	H	0.534073	-0.509968	-0.538613
C124	C	1.175381	-0.911277	-0.531715
C125	C	1.117825	-0.961206	-0.576805
C126	C	1.139688	-0.990454	-0.658637
C127	C	1.219107	-0.969773	-0.695380
C128	C	1.276668	-0.919841	-0.650289
C129	C	1.254805	-0.890594	-0.568457
H130	H	1.059030	-0.976518	-0.549606
H131	H	1.097077	-1.027417	-0.692016
H132	H	1.235291	-0.991424	-0.755957
H133	H	1.335464	-0.904530	-0.677488
H134	H	1.297417	-0.853631	-0.535078
C135	C	1.239966	-0.257838	-1.091146
C136	C	1.295211	-0.205617	-1.046065
C137	C	1.350482	-0.153367	-1.091158
C138	C	1.350509	-0.153336	-1.181332
C139	C	1.295261	-0.205559	-1.226418
C140	C	1.239990	-0.257809	-1.181325
H141	H	1.295193	-0.205638	-0.979309
H142	H	1.391380	-0.114709	-1.057782
H143	H	1.391424	-0.114658	-1.214712
H144	H	1.295279	-0.205538	-1.293174
H145	H	1.199092	-0.296467	-1.214701
H146	H	0.686787	-0.271477	-0.287319
H147	H	1.225549	-0.271476	-0.826580
H148	H	1.225513	-0.271518	-0.677851
H149	H	1.043228	-0.443824	-0.677823
H150	H	1.043283	-0.443807	-0.826550
H151	H	1.043316	-0.443776	-0.930669
