data_functionalizedCrystal
_audit_creation_method	'MofGen! by Chris Wilmer'
_symmetry_space_group_name_H-M	'P1'
_symmetry_Int_Tables_number	1
_symmetry_cell_setting	triclinic
loop_
_symmetry_equiv_pos_as_xyz
  x,y,z
_cell_length_a	6.817900
_cell_length_b	15.300912
_cell_length_c	17.982968
_cell_angle_alpha	95.458167
_cell_angle_beta	102.451960
_cell_angle_gamma	104.173621
loop_
_atom_site_label
_atom_site_type_symbol
_atom_site_fract_x
_atom_site_fract_y
_atom_site_fract_z
V1	V	-4.018552	-0.125604	-0.237781
V2	V	-3.518552	0.374396	0.262219
O3	O	-4.002679	0.005167	-0.233017
O4	O	-3.502679	0.505167	0.266983
O5	O	-3.973532	-0.248215	-0.236384
O6	O	-3.473532	0.251785	0.263616
O7	O	-3.965016	-0.124053	-0.341381
O8	O	-3.465016	0.375947	0.158619
O9	O	-4.011253	-0.119855	-0.127292
O10	O	-3.511253	0.380145	0.372708
V11	V	-4.502407	-0.109917	-0.224538
V12	V	-4.002407	0.390083	0.275462
O13	O	-4.279081	-0.160014	-0.266831
O14	O	-3.779081	0.339986	0.233169
O15	O	-4.692075	-0.075507	-0.195488
O16	O	-4.192075	0.424493	0.304512
O17	O	-4.324221	0.012694	-0.225936
O18	O	-3.824221	0.512694	0.274064
O19	O	-4.635676	-0.240687	-0.229302
O20	O	-4.135676	0.259313	0.270698
O21	O	-4.627102	-0.115666	-0.335027
O22	O	-4.127102	0.384334	0.164973
O23	O	-4.332736	-0.111468	-0.120938
O24	O	-3.832736	0.388532	0.379062
C25	C	-3.819521	-0.278093	-0.232691
C26	C	-3.319521	0.221907	0.267309
C27	C	-3.863964	-0.378332	-0.232239
C28	C	-3.363964	0.121668	0.267761
C29	C	-4.237533	-0.814704	-0.234104
C30	C	-3.737533	-0.314704	0.265896
C31	C	-4.195755	-0.720517	-0.234523
C32	C	-3.695755	-0.220517	0.265477
C33	C	-3.992815	-0.668824	-0.230927
C34	C	-3.492815	-0.168824	0.269073
C35	C	-3.831639	-0.711321	-0.226904
C36	C	-3.331639	-0.211321	0.273096
C37	C	-3.873415	-0.805504	-0.226479
C38	C	-3.373415	-0.305504	0.273521
C39	C	-3.744578	-0.515013	-0.227792
C40	C	-3.244578	-0.015013	0.272208
C41	C	-3.702800	-0.420823	-0.228218
C42	C	-3.202800	0.079177	0.271782
C43	C	-4.066919	-0.430026	-0.235836
C44	C	-3.566919	0.069974	0.264164
C45	C	-4.108695	-0.524209	-0.235411
C46	C	-3.608695	-0.024209	0.264589
C47	C	-3.947516	-0.566700	-0.231389
C48	C	-3.447516	-0.066700	0.268611
C49	C	-3.808658	-0.119711	-0.366626
C50	C	-3.308658	0.380289	0.133374
C51	C	-3.846192	-0.119254	-0.451321
C52	C	-3.346192	0.380746	0.048679
C53	C	-4.045871	-0.123559	-0.495000
C54	C	-3.545871	0.376441	0.005000
C55	C	-4.081127	-0.123129	-0.574580
C56	C	-3.581127	0.376871	-0.074580
C57	C	-3.916705	-0.118402	-0.610480
C58	C	-3.416705	0.381598	-0.110480
C59	C	-3.717008	-0.114095	-0.566794
C60	C	-3.217008	0.385905	-0.066794
C61	C	-3.681752	-0.114518	-0.487215
C62	C	-3.181752	0.385482	0.012785
C63	C	-3.859188	-0.112387	-0.887728
C64	C	-3.359188	0.387613	-0.387728
C65	C	-3.894463	-0.111967	-0.967313
C66	C	-3.394463	0.388033	-0.467313
C67	C	-4.258564	-0.120998	-0.975093
C68	C	-3.758564	0.379002	-0.475093
C69	C	-4.223307	-0.121421	-0.895514
C70	C	-3.723307	0.378579	-0.395514
C71	C	-4.023613	-0.117109	-0.851835
C72	C	-3.523613	0.382891	-0.351835
C73	C	-3.985386	-0.117574	-0.765545
C74	C	-3.485386	0.382426	-0.265545
C75	C	-3.954932	-0.117944	-0.696769
C76	C	-3.454932	0.382056	-0.196769
C77	C	-4.141574	0.042568	-0.229626
C78	C	-3.641574	0.542568	0.270374
C79	C	-4.076369	0.142806	-0.230083
C80	C	-3.576369	0.642806	0.269917
C81	C	-4.152437	-0.115813	-0.095690
C82	C	-3.652437	0.384187	0.404310
C83	C	-4.094141	-0.116265	-0.010994
C84	C	-3.594141	0.383735	0.489006
H85	H	-4.326997	-0.685926	-0.237801
H86	H	-3.826997	-0.185926	0.262199
H87	H	-4.179771	-0.127414	-0.465778
H88	H	-3.679771	0.372586	0.034222
H89	H	-4.273947	-0.566297	-0.238345
H90	H	-3.773947	-0.066297	0.261655
Br91	Br	-4.446466	-0.127845	-0.846798
Br92	Br	-3.946466	0.372155	-0.346798
Br93	Br	-3.654680	-0.863171	-0.221017
Br94	Br	-3.154680	-0.363171	0.278983
H95	H	-3.519144	-0.110991	-0.451648
H96	H	-3.019144	0.389009	0.048352
H97	H	-4.402788	-0.856787	-0.237036
H98	H	-3.902788	-0.356787	0.262964
Br99	Br	-3.493858	-0.107677	-0.615514
Br100	Br	-2.993858	0.392323	-0.115514
H101	H	-4.421166	-0.124505	-1.010666
H102	H	-3.921166	0.375495	-0.510666
H103	H	-3.666396	-0.669224	-0.223971
H104	H	-3.166396	-0.169224	0.276029
Br105	Br	-4.352135	-0.128981	-0.633859
Br106	Br	-3.852135	0.371019	-0.133859
Br107	Br	-4.285668	-0.372363	-0.241301
Br108	Br	-3.785668	0.127637	0.258699
H109	H	-3.537553	-0.378737	-0.225294
H110	H	-3.037553	0.121263	0.274706
H111	H	-3.696606	-0.108908	-0.852178
H112	H	-3.196606	0.391092	-0.352178
H113	H	-3.613329	-0.549606	-0.224524
H114	H	-3.113329	-0.049606	0.275476
H115	H	-3.760557	-0.108115	-0.996540
H116	H	-3.260557	0.391885	-0.496540
