data_functionalizedCrystal
_audit_creation_method	'MofGen! by Chris Wilmer'
_symmetry_space_group_name_H-M	'P1'
_symmetry_Int_Tables_number	1
_symmetry_cell_setting	triclinic
loop_
_symmetry_equiv_pos_as_xyz
  x,y,z
_cell_length_a	10.489741
_cell_length_b	27.732048
_cell_length_c	9.565339
_cell_angle_alpha	89.995294
_cell_angle_beta	89.999100
_cell_angle_gamma	83.590915
loop_
_atom_site_label
_atom_site_type_symbol
_atom_site_fract_x
_atom_site_fract_y
_atom_site_fract_z
O1	O	1.691056	0.068187	-0.116191
O2	O	1.319579	0.074588	-0.116214
O3	O	1.516855	0.001064	-0.116175
O4	O	1.493780	0.141712	-0.116230
O5	O	1.516839	0.001068	0.116345
O6	O	1.319563	0.074593	0.116306
O7	O	1.691040	0.068192	0.116329
Zn8	Zn	1.505299	0.071393	0.153235
Zn9	Zn	1.505320	0.071387	-0.153120
O10	O	1.493765	0.141716	0.116290
C11	C	1.272061	0.074107	0.000043
C12	C	1.130495	0.072661	0.000036
C13	C	1.064411	0.025879	0.000067
C14	C	0.971320	0.047976	-0.114583
C15	C	0.971339	0.047992	0.114663
C16	C	1.039269	0.094777	-0.114709
C17	C	1.039297	0.094786	0.114640
C18	C	0.946232	0.116916	-0.000038
C19	C	1.516363	-0.016944	0.000089
C20	C	1.514904	-0.070608	0.000100
C21	C	1.622299	-0.408745	0.000035
C22	C	1.616888	-0.610439	0.000015
O23	O	1.715093	-0.641075	-0.000040
N24	N	1.499911	-0.630301	0.000009
C25	C	1.384279	-0.599736	-0.000001
O26	O	1.284660	-0.621258	-0.000021
C27	C	1.389692	-0.398044	0.000009
C28	C	1.506676	-0.378184	0.000029
C29	C	1.739274	-0.388886	0.000054
C30	C	1.740625	-0.338465	0.000066
C31	C	1.625002	-0.307904	0.000060
C32	C	1.508028	-0.327764	0.000042
C33	C	1.274062	-0.367480	-0.000011
C34	C	1.275425	-0.317054	-0.000012
C35	C	1.392409	-0.297195	0.000008
C36	C	1.393757	-0.246783	0.000048
N37	N	1.510733	-0.226920	0.000054
C38	C	1.626356	-0.257481	0.000060
C39	C	1.381446	-0.705628	-0.000003
C40	C	1.380092	-0.756051	-0.000003
C41	C	1.612701	-0.766751	0.000010
C42	C	1.614053	-0.716327	0.000020
C43	C	1.498422	-0.685766	0.000003
C44	C	1.629186	-0.151594	0.000088
C45	C	1.630527	-0.101169	0.000106
C46	C	1.397919	-0.090474	0.000085
C47	C	1.396577	-0.140895	0.000074
C48	C	1.512221	-0.171454	0.000071
O49	O	1.295604	-0.216118	0.000088
O50	O	1.725961	-0.235950	0.000049
C51	C	1.620947	-0.459166	0.000023
C52	C	1.503973	-0.479025	0.000004
C53	C	1.388350	-0.448464	-0.000002
C54	C	1.502619	-0.529448	0.000004
C55	C	1.618242	-0.560009	0.000010
C56	C	1.735219	-0.540147	0.000016
C57	C	1.736570	-0.489727	0.000029
C58	C	1.271374	-0.468327	-0.000008
C59	C	1.270032	-0.518748	-0.000019
C60	C	1.385654	-0.549308	-0.000013
C61	C	1.738559	0.068673	0.000069
C62	C	1.880124	0.070119	0.000067
C63	C	1.494257	0.159724	0.000023
C64	C	1.495715	0.213388	0.000003
N65	N	1.505295	0.071397	0.362315
N66	N	1.505335	0.071379	-0.362199
C67	C	1.414034	0.105388	0.453500
C68	C	1.529101	0.115168	0.546682
C69	C	1.390277	0.061621	0.546688
C70	C	1.620419	0.081198	0.453445
C71	C	1.481520	0.027633	0.453443
C72	C	1.596671	0.037394	0.546583
H73	H	1.723354	-0.176470	0.000080
H74	H	1.336927	0.134160	0.412630
N75	N	1.863990	-0.421845	0.000080
H76	H	1.868643	-0.443004	-0.086110
H77	H	1.938215	-0.401572	0.000147
H78	H	0.895116	0.155414	-0.000115
H79	H	1.549238	0.152170	0.587636
H80	H	1.115791	-0.012578	-0.000061
N81	N	1.756711	-0.079753	0.000134
H82	H	1.807327	-0.090863	-0.086060
H83	H	1.739927	-0.043176	0.000198
H84	H	1.829363	-0.565039	0.000027
N85	N	0.931462	0.021765	0.243062
H86	H	0.957413	0.039090	0.329642
H87	H	0.835343	0.021256	0.242476
N88	N	1.078963	0.120966	-0.243256
H89	H	1.053668	0.103425	-0.329729
H90	H	1.034820	0.155249	-0.243544
N91	N	1.749317	0.092197	0.399437
H92	H	1.748495	0.092150	0.293852
H93	H	1.767428	0.125129	0.434278
N94	N	1.699021	-0.000695	0.600395
H95	H	1.785828	0.006747	0.566292
H96	H	1.697872	-0.000666	0.705973
N97	N	1.261412	0.050677	0.600932
H98	H	1.242727	0.017878	0.565559
H99	H	1.262717	0.050466	0.706507
H100	H	1.069467	0.114566	0.211560
H101	H	1.461348	-0.009359	0.412456
H102	H	1.835885	-0.322301	0.000077
N103	N	1.740226	-0.694909	0.000043
H104	H	1.813261	-0.721925	0.000051
H105	H	1.745869	-0.674220	-0.086156
H106	H	1.706846	-0.791642	0.000016
N107	N	0.931383	0.021760	-0.242959
H108	H	1.009672	0.010554	-0.300795
H109	H	0.887591	-0.007258	-0.213588
N110	N	1.253918	-0.777468	0.000013
H111	H	1.180883	-0.750452	0.000010
H112	H	1.248283	-0.798154	-0.086183
H113	H	1.287280	-0.680750	-0.000017
N114	N	1.862744	-0.468309	0.000035
H115	H	1.868495	-0.447632	0.086233
H116	H	1.935702	-0.495352	-0.000018
H117	H	1.178801	-0.383640	-0.000036
H118	H	1.181262	-0.292173	-0.000029
H119	H	1.303782	-0.065582	0.000085
N120	N	1.270406	-0.162318	0.000072
H121	H	1.197366	-0.135305	0.000075
H122	H	1.264785	-0.182999	-0.086138
H123	H	1.174762	-0.534912	-0.000023
H124	H	1.177217	-0.443448	-0.000016
