data_functionalizedCrystal
_audit_creation_method	'MofGen! by Chris Wilmer'
_symmetry_space_group_name_H-M	'P1'
_symmetry_Int_Tables_number	1
_symmetry_cell_setting	triclinic
loop_
_symmetry_equiv_pos_as_xyz
  x,y,z
_cell_length_a	8.597340
_cell_length_b	10.489741
_cell_length_c	7.681481
_cell_angle_alpha	84.199479
_cell_angle_beta	103.474906
_cell_angle_gamma	84.937299
loop_
_atom_site_label
_atom_site_type_symbol
_atom_site_fract_x
_atom_site_fract_y
_atom_site_fract_z
O1	O	2.101871	0.176391	0.172464
O2	O	1.638043	0.196714	0.102089
O3	O	1.880513	0.000876	0.138888
O4	O	1.859402	0.372229	0.135664
O5	O	1.910356	-0.023283	0.436275
O6	O	1.667887	0.172555	0.399476
O7	O	2.131714	0.152232	0.469851
Zn8	Zn	1.904539	0.158558	0.481880
Zn9	Zn	1.865219	0.190388	0.090060
O10	O	1.889245	0.348070	0.433051
C11	C	1.593572	0.183798	0.241771
C12	C	1.416599	0.181290	0.214920
C13	C	1.893840	-0.058723	0.287339
C14	C	1.889070	-0.200317	0.286612
C15	C	1.734793	-0.267315	0.263191
C16	C	1.822386	-0.371889	0.420876
C17	C	1.792999	-0.348045	0.127681
C18	C	1.976738	-0.303035	0.444427
C19	C	1.947317	-0.279171	0.151098
C20	C	2.035025	-0.383720	0.308835
C21	C	2.176185	0.165149	0.330165
C22	C	2.353157	0.167658	0.357004
C23	C	1.875918	0.407670	0.284597
C24	C	1.880686	0.549265	0.285312
N25	N	1.931385	0.136834	0.749289
N26	N	1.838385	0.212103	-0.177347
H27	H	1.434234	0.157897	0.499197
H28	H	1.335515	0.191042	0.072718
H29	H	1.607964	-0.216738	0.244094
C30	C	1.751003	-0.426743	0.574959
N31	N	1.697228	-0.468055	0.691006
H32	H	2.026337	0.060011	0.838905
H33	H	2.054412	-0.282767	0.578424
C34	C	2.206545	-0.451781	0.334972
N35	N	2.335732	-0.503050	0.354668
H36	H	2.000098	-0.238538	0.037024
C37	C	1.710122	0.315888	0.701599
N38	N	1.613510	0.394059	0.610409
C39	C	1.687974	-0.375637	-0.053171
N40	N	1.608859	-0.396413	-0.189384
