data_functionalizedCrystal
_audit_creation_method	'MofGen! by Chris Wilmer'
_symmetry_space_group_name_H-M	'P1'
_symmetry_Int_Tables_number	1
_symmetry_cell_setting	triclinic
loop_
_symmetry_equiv_pos_as_xyz
  x,y,z
_cell_length_a	11.026607
_cell_length_b	10.868271
_cell_length_c	11.792241
_cell_angle_alpha	90.005281
_cell_angle_beta	96.389716
_cell_angle_gamma	90.003487
loop_
_atom_site_label
_atom_site_type_symbol
_atom_site_fract_x
_atom_site_fract_y
_atom_site_fract_z
O1	O	1.613294	0.102332	0.475910
O2	O	2.113294	0.602332	0.975910
O3	O	1.259631	0.102332	0.421719
O4	O	1.759631	0.602332	0.921719
O5	O	1.445045	0.102323	0.285348
O6	O	1.945045	0.602323	0.785348
O7	O	1.427880	0.102341	0.612281
O8	O	1.927880	0.602341	1.112281
O9	O	1.445030	-0.102321	0.285338
O10	O	1.945030	0.397679	0.785338
O11	O	1.259616	-0.102312	0.421709
O12	O	1.759616	0.397688	0.921709
O13	O	1.613279	-0.102313	0.475901
O14	O	2.113279	0.397687	0.975901
Zn15	Zn	1.436445	-0.134804	0.448803
Zn16	Zn	1.936445	0.365196	0.948803
Zn17	Zn	1.436465	0.134824	0.448816
Zn18	Zn	1.936465	0.634824	0.948816
O19	O	1.427865	-0.102304	0.612271
O20	O	1.927865	0.397696	1.112271
C21	C	1.214347	0.000010	0.411716
C22	C	1.714347	0.500010	0.911716
C23	C	1.079437	0.000010	0.381914
C24	C	1.579437	0.500010	0.881914
N25	N	1.436440	-0.318818	0.448795
N26	N	1.936440	0.181182	0.948795
C27	C	1.006173	0.000015	0.464204
C28	C	1.506173	0.500015	0.964204
C29	C	0.866736	0.000015	0.433403
C30	C	1.366736	0.500015	0.933403
C31	C	1.436459	-0.569824	0.448813
C32	C	1.936459	-0.069824	0.948813
C33	C	1.436444	-0.430147	0.448806
C34	C	1.936444	0.069853	0.948806
C35	C	1.658563	0.000012	0.485903
C36	C	2.158563	0.500012	0.985903
C37	C	1.793473	0.000020	0.515706
C38	C	2.293473	0.500020	1.015706
C39	C	1.443959	0.000002	0.242838
C40	C	1.943959	0.500002	0.742838
C41	C	1.440732	0.000003	0.116184
C42	C	1.940732	0.500003	0.616184
N43	N	1.436480	0.318838	0.448817
N44	N	1.936480	0.818838	0.948817
C45	C	1.434798	0.000023	-0.115707
C46	C	1.934798	0.500023	0.384293
C47	C	1.438095	0.000012	0.013333
C48	C	1.938095	0.500012	0.513333
C49	C	1.428951	0.000021	0.654781
C50	C	1.928951	0.500021	1.154781
C51	C	1.432178	0.000028	0.781436
C52	C	1.932178	0.500028	1.281436
H53	H	1.046678	0.000013	0.557458
H54	H	1.546678	0.500013	1.057458
C55	C	0.848171	0.000034	0.641693
C56	C	1.348171	0.500034	1.141693
H57	H	0.934712	0.000043	0.645870
H58	H	1.434712	0.500043	1.145870
H59	H	0.821775	-0.071324	0.678468
H60	H	1.321775	0.428676	1.178468
H61	H	0.821785	0.071413	0.678460
H62	H	1.321785	0.571413	1.178460
C63	C	0.812035	0.000015	0.307417
C64	C	1.312035	0.500015	0.807417
H65	H	0.725494	0.000026	0.303243
H66	H	1.225494	0.500026	0.803243
H67	H	0.838420	-0.071347	0.270635
H68	H	1.338420	0.428653	0.770635
H69	H	0.838431	0.071390	0.270655
H70	H	1.338431	0.571390	0.770655
H71	H	1.038932	0.000037	0.288660
H72	H	1.538932	0.500037	0.788660
