data_functionalizedCrystal
_audit_creation_method	'MofGen! by Chris Wilmer'
_symmetry_space_group_name_H-M	'P1'
_symmetry_Int_Tables_number	1
_symmetry_cell_setting	triclinic
loop_
_symmetry_equiv_pos_as_xyz
  x,y,z
_cell_length_a	14.971486
_cell_length_b	12.503572
_cell_length_c	14.971494
_cell_angle_alpha	86.470656
_cell_angle_beta	83.615843
_cell_angle_gamma	93.517589
loop_
_atom_site_label
_atom_site_type_symbol
_atom_site_fract_x
_atom_site_fract_y
_atom_site_fract_z
O1	O	1.192093	0.089193	0.111401
O2	O	0.931695	0.089221	0.125358
O3	O	1.068869	0.089204	-0.011820
O4	O	1.054919	0.089210	0.248579
O5	O	1.058553	-0.089437	-0.001487
O6	O	0.921379	-0.089419	0.135691
O7	O	1.181777	-0.089448	0.121734
Cu8	Cu	1.050636	-0.105745	0.129656
Cu9	Cu	1.062836	0.105518	0.117436
O10	O	1.044602	-0.089431	0.258912
C11	C	0.893212	-0.000095	0.129900
C12	C	0.793916	-0.000084	0.128029
N13	N	1.042061	-0.254336	0.138251
C14	C	0.736693	-0.000084	0.208618
C15	C	0.643393	-0.000100	0.206855
C16	C	0.607317	-0.000109	0.124503
C17	C	0.664547	-0.000112	0.043908
C18	C	0.757845	-0.000104	0.045672
C19	C	0.470084	-0.000127	0.040238
C20	C	0.376779	-0.000134	0.038474
C21	C	0.355631	-0.000123	0.201422
C22	C	0.448929	-0.000115	0.203185
C23	C	0.506153	-0.000116	0.122590
C24	C	1.029448	-0.473450	0.150902
C25	C	1.084028	-0.526784	0.096186
C26	C	1.077010	-0.648706	0.103225
C27	C	1.036465	-0.351516	0.143864
C28	C	1.220260	-0.000129	0.117192
C29	C	1.319556	-0.000133	0.119063
C30	C	1.063086	-0.000115	-0.039978
C31	C	1.061213	-0.000110	-0.139275
N32	N	1.071418	0.254109	0.108834
C33	C	1.065958	0.097269	-0.191553
C34	C	1.064192	0.097270	-0.284852
C35	C	1.057686	-0.000108	-0.325872
C36	C	1.052938	-0.097494	-0.273587
C37	C	1.054698	-0.097494	-0.180289
C38	C	1.049273	-0.097486	-0.468051
C39	C	1.047514	-0.097486	-0.561356
C40	C	1.058766	0.097278	-0.572614
C41	C	1.060526	0.097278	-0.479315
C42	C	1.055779	-0.000108	-0.427037
C43	C	1.050386	-0.000110	0.287070
C44	C	1.052260	-0.000108	0.386367
H45	H	0.596805	-0.000098	0.272479
N46	N	0.964211	-0.531014	0.216298
N47	N	0.882225	-0.518565	0.214375
H48	H	0.836152	-0.559230	0.260561
H49	H	1.071260	0.176565	-0.158162
H50	H	1.047636	-0.176780	-0.306993
N51	N	1.049840	-0.196973	-0.126898
N52	N	1.044028	-0.283912	-0.163531
H53	H	1.040592	-0.354174	-0.125824
H54	H	1.042210	-0.176780	-0.594751
H55	H	1.045388	-0.176788	-0.425486
N56	N	1.149306	-0.469221	0.030820
N57	N	1.200650	-0.519297	-0.020603
H58	H	1.246764	-0.478641	-0.066753
N59	N	0.485767	-0.000090	0.287311
N60	N	0.434668	-0.000086	0.359264
H61	H	0.460684	-0.000068	0.418680
H62	H	1.068060	0.176565	-0.327413
N63	N	1.067192	0.196746	-0.437416
N64	N	1.133765	0.261938	-0.459780
H65	H	1.138473	0.332189	-0.430188
N66	N	0.773524	-0.000065	0.292747
N67	N	0.722417	-0.000067	0.364695
H68	H	0.748426	-0.000056	0.424116
N69	N	0.297170	-0.000137	0.283742
N70	N	0.213869	-0.000160	0.282161
H71	H	0.172576	-0.000172	0.340297
H72	H	0.804436	-0.000104	-0.019952
N73	N	1.063637	0.196748	-0.626026
N74	N	1.062075	0.196739	-0.709328
H75	H	1.065526	0.266987	-0.747056
N76	N	0.339937	-0.000165	-0.045650
N77	N	0.353094	-0.075479	-0.095639
H78	H	0.327074	-0.075503	-0.155053
H79	H	0.635167	-0.000135	-0.023144
N80	N	0.528524	-0.000143	-0.042095
N81	N	0.496306	-0.000152	-0.115619
H82	H	0.537578	-0.000162	-0.173766
