data_functionalizedCrystal
_audit_creation_method	'MofGen! by Chris Wilmer'
_symmetry_space_group_name_H-M	'P1'
_symmetry_Int_Tables_number	1
_symmetry_cell_setting	triclinic
loop_
_symmetry_equiv_pos_as_xyz
  x,y,z
_cell_length_a	12.827892
_cell_length_b	19.805407
_cell_length_c	19.805399
_cell_angle_alpha	90.016510
_cell_angle_beta	89.976064
_cell_angle_gamma	89.988458
loop_
_atom_site_label
_atom_site_type_symbol
_atom_site_fract_x
_atom_site_fract_y
_atom_site_fract_z
Zn1	Zn	-0.416150	-1.034770	-0.382737
Zn2	Zn	0.083850	-0.534770	0.117263
Zn3	Zn	-0.590910	-1.034711	-0.269558
Zn4	Zn	-0.090910	-0.534711	0.230442
Zn5	Zn	-0.416171	-0.921589	-0.269562
Zn6	Zn	0.083829	-0.421589	0.230438
Zn7	Zn	-0.590838	-0.921569	-0.382706
Zn8	Zn	-0.090838	-0.421569	0.117294
O9	O	-0.503517	-0.978160	-0.326141
O10	O	-0.003517	-0.478160	0.173859
O11	O	-0.439353	-1.129478	-0.367735
O12	O	0.060647	-0.629478	0.132265
O13	O	-0.567769	-1.019690	-0.174842
O14	O	-0.067769	-0.519690	0.325158
O15	O	-0.269933	-0.936636	-0.284589
O16	O	0.230067	-0.436636	0.215411
O17	O	-0.567748	-1.129436	-0.284583
O18	O	-0.067748	-0.629436	0.215417
O19	O	-0.269917	-1.019789	-0.367738
O20	O	0.230083	-0.519789	0.132262
O21	O	-0.439390	-0.936579	-0.174845
O22	O	0.060610	-0.436579	0.325155
O23	O	-0.439320	-0.826870	-0.284559
O24	O	0.060680	-0.326870	0.215441
O25	O	-0.567626	-0.936602	-0.477427
O26	O	-0.067626	-0.436602	0.022573
O27	O	-0.567647	-0.826856	-0.367686
O28	O	-0.067647	-0.326856	0.132314
O29	O	-0.439284	-1.019769	-0.477449
O30	O	0.060716	-0.519769	0.022551
O31	O	-0.737136	-1.019670	-0.284553
O32	O	-0.237136	-0.519670	0.215447
O33	O	-0.737084	-0.936545	-0.367682
O34	O	-0.237084	-0.436545	0.132318
C35	C	-0.503479	-0.802304	-0.326120
C36	C	-0.003479	-0.302304	0.173880
C37	C	-0.503488	-0.727072	-0.326127
C38	C	-0.003488	-0.227072	0.173873
C39	C	-0.436750	-0.691751	-0.369489
C40	C	0.063250	-0.191751	0.130511
C41	C	-0.436753	-0.621062	-0.369490
C42	C	0.063247	-0.121062	0.130510
C43	C	-0.503500	-0.585696	-0.326132
C44	C	-0.003500	-0.085696	0.173868
C45	C	-0.570242	-0.621023	-0.282765
C46	C	-0.070242	-0.121023	0.217235
C47	C	-0.570232	-0.691710	-0.282761
C48	C	-0.070232	-0.191710	0.217239
C49	C	-0.570280	-0.335949	-0.282779
C50	C	-0.070280	0.164051	0.217221
C51	C	-0.570286	-0.265257	-0.282787
C52	C	-0.070286	0.234743	0.217213
C53	C	-0.436800	-0.265302	-0.369508
C54	C	0.063200	0.234698	0.130492
C55	C	-0.436791	-0.335989	-0.369504
C56	C	0.063209	0.164011	0.130496
C57	C	-0.503528	-0.371309	-0.326135
C58	C	-0.003528	0.128691	0.173865
C59	C	-0.503522	-0.447957	-0.326134
C60	C	-0.003522	0.052043	0.173866
C61	C	-0.503512	-0.509049	-0.326136
C62	C	-0.003512	-0.009049	0.173864
C63	C	-0.775027	-0.978118	-0.326129
C64	C	-0.275027	-0.478118	0.173871
C65	C	-0.891180	-0.978161	-0.326146
C66	C	-0.391180	-0.478161	0.173854
C67	C	-0.942956	-1.019343	-0.285057
C68	C	-0.442956	-0.519343	0.214943
C69	C	-1.063007	-1.019389	-0.285074
C70	C	-0.563007	-0.519389	0.214926
C71	C	-0.230947	-0.978221	-0.326167
C72	C	0.269053	-0.478221	0.173833
C73	C	-0.114794	-0.978247	-0.326179
C74	C	0.385206	-0.478247	0.173821
C75	C	-0.503445	-0.978190	-0.502683
C76	C	-0.003445	-0.478190	-0.002683
C77	C	-0.503414	-0.978202	-0.577915
C78	C	-0.003414	-0.478202	-0.077915
C79	C	-0.503549	-0.154703	-0.326156
C80	C	-0.003549	0.345297	0.173844
C81	C	-0.503542	-0.229935	-0.326147
C82	C	-0.003542	0.270065	0.173853
C83	C	-0.436560	-0.934939	-0.613261
C84	C	0.063440	-0.434939	-0.113261
C85	C	-0.436540	-0.934948	-0.683949
C86	C	0.063460	-0.434948	-0.183949
C87	C	-0.503369	-0.978225	-0.719291
C88	C	-0.003369	-0.478225	-0.219291
C89	C	-0.570230	-1.021490	-0.683941
C90	C	-0.070230	-0.521490	-0.183941
C91	C	-0.570254	-1.021477	-0.613254
C92	C	-0.070254	-0.521477	-0.113254
C93	C	-0.570132	-1.021544	-0.969015
C94	C	-0.070132	-0.521544	-0.469015
C95	C	-0.570100	-1.021555	-1.039707
C96	C	-0.070100	-0.521555	-0.539707
C97	C	-0.436418	-0.935015	-1.039710
C98	C	0.063582	-0.435015	-0.539710
C99	C	-0.436442	-0.935002	-0.969022
C100	C	0.063558	-0.435002	-0.469022
C101	C	-0.503307	-0.978264	-0.933679
C102	C	-0.003307	-0.478264	-0.433679
C103	C	-0.503329	-0.978253	-0.857030
C104	C	-0.003329	-0.478253	-0.357030
C105	C	-0.503342	-0.978240	-0.795938
C106	C	-0.003342	-0.478240	-0.295938
C107	C	-0.503514	-0.978169	-0.150285
C108	C	-0.003514	-0.478169	0.349715
C109	C	-0.503251	-0.978288	-0.075053
C110	C	-0.003251	-0.478288	0.424947
H111	H	-0.382442	-0.364780	-0.404813
H112	H	0.117558	0.135220	0.095187
C113	C	-0.363343	-0.582216	-0.417198
C114	C	0.136657	-0.082216	0.082802
C115	C	-0.372044	-0.591969	-0.494131
C116	C	0.127956	-0.091969	0.005869
C117	C	-0.298630	-0.553127	-0.541843
C118	C	0.201370	-0.053127	-0.041843
C119	C	-0.216516	-0.504531	-0.512622
C120	C	0.283484	-0.004531	-0.012622
C121	C	-0.207812	-0.494776	-0.435685
C122	C	0.292188	0.005224	0.064315
C123	C	-0.281226	-0.533618	-0.387973
C124	C	0.218774	-0.033618	0.112027
H125	H	-0.432832	-0.627944	-0.515766
H126	H	0.067168	-0.127944	-0.015766
H127	H	-0.305073	-0.560348	-0.598797
H128	H	0.194927	-0.060348	-0.098797
H129	H	-0.162171	-0.475778	-0.547941
H130	H	0.337829	0.024222	-0.047941
H131	H	-0.147024	-0.458801	-0.414050
H132	H	0.352976	0.041199	0.085950
H133	H	-0.274783	-0.526397	-0.331018
H134	H	0.225217	-0.026397	0.168982
H135	H	-0.624648	-1.056723	-0.712722
H136	H	-0.124648	-0.556723	-0.212722
H137	H	-1.070275	-0.942985	-0.361356
H138	H	-0.570275	-0.442985	0.138644
C139	C	-0.643792	-1.069068	-0.574372
C140	C	-0.143792	-0.569068	-0.074372
C141	C	-0.717301	-1.116674	-0.613243
C142	C	-0.217301	-0.616674	-0.113243
C143	C	-0.790846	-1.164264	-0.574362
C144	C	-0.290846	-0.664264	-0.074362
C145	C	-0.790880	-1.164249	-0.496609
C146	C	-0.290880	-0.664249	0.003391
C147	C	-0.717368	-1.116642	-0.457733
C148	C	-0.217368	-0.616642	0.042267
C149	C	-0.643824	-1.069052	-0.496614
C150	C	-0.143824	-0.569052	0.003386
H151	H	-0.717278	-1.116686	-0.670805
H152	H	-0.217278	-0.616686	-0.170805
H153	H	-0.845264	-1.199506	-0.603141
H154	H	-0.345264	-0.699506	-0.103141
H155	H	-0.845322	-1.199479	-0.467826
H156	H	-0.345322	-0.699479	0.032174
H157	H	-0.717391	-1.116630	-0.400171
H158	H	-0.217391	-0.616630	0.099829
H159	H	-0.589406	-1.033810	-0.467835
H160	H	-0.089406	-0.533810	0.032165
H161	H	-0.624524	-1.056797	-1.068480
H162	H	-0.124524	-0.556797	-0.568480
C163	C	-0.363376	-0.226449	-0.417210
C164	C	0.136624	0.273551	0.082790
C165	C	-0.244567	-0.236183	-0.411821
C166	C	0.255433	0.263817	0.088179
C167	C	-0.171148	-0.197333	-0.459524
C168	C	0.328852	0.302667	0.040476
C169	C	-0.216538	-0.148750	-0.512615
C170	C	0.283462	0.351250	-0.012615
C171	C	-0.335354	-0.139014	-0.518006
C172	C	0.164646	0.360986	-0.018006
C173	C	-0.408773	-0.177864	-0.470303
C174	C	0.091227	0.322136	0.029697
H175	H	-0.210961	-0.272149	-0.372518
H176	H	0.289039	0.227851	0.127482
H177	H	-0.083192	-0.204540	-0.455533
H178	H	0.416808	0.295460	0.044467
H179	H	-0.162189	-0.119991	-0.547927
H180	H	0.337811	0.380009	-0.047927
H181	H	-0.368960	-0.103048	-0.557309
H182	H	0.131040	0.396952	-0.057309
H183	H	-0.496728	-0.170657	-0.474294
H184	H	0.003272	0.329343	0.025706
H185	H	-0.624642	-0.236464	-0.247477
H186	H	-0.124642	0.263536	0.252523
H187	H	-0.624588	-1.056763	-0.940246
H188	H	-0.124588	-0.556763	-0.440246
H189	H	-1.107533	-1.054645	-0.249894
H190	H	-0.607533	-0.554645	0.250106
C191	C	-0.362989	-0.887362	-0.722825
C192	C	0.137011	-0.387362	-0.222825
C193	C	-0.371484	-0.810413	-0.713092
C194	C	0.128516	-0.310413	-0.213092
C195	C	-0.297928	-0.762825	-0.751966
C196	C	0.202072	-0.262825	-0.251966
C197	C	-0.215876	-0.792186	-0.800574
C198	C	0.284124	-0.292186	-0.300574
C199	C	-0.207378	-0.869139	-0.810310
C200	C	0.292622	-0.369139	-0.310310
C201	C	-0.280934	-0.916727	-0.771436
C202	C	0.219066	-0.416727	-0.271436
H203	H	-0.432227	-0.788675	-0.677107
H204	H	0.067773	-0.288675	-0.177107
H205	H	-0.304220	-0.705859	-0.744759
H206	H	0.195780	-0.205859	-0.244759
H207	H	-0.161426	-0.756958	-0.829351
H208	H	0.338574	-0.256958	-0.329351
H209	H	-0.146635	-0.890877	-0.846295
H210	H	0.353365	-0.390877	-0.346295
H211	H	-0.274643	-0.973693	-0.778643
H212	H	0.225357	-0.473693	-0.278643
C213	C	-0.363325	-0.730650	-0.417185
C214	C	0.136675	-0.230650	0.082815
C215	C	-0.289909	-0.691794	-0.464879
C216	C	0.210091	-0.191794	0.035121
C217	C	-0.216480	-0.730691	-0.512574
C218	C	0.283520	-0.230691	-0.012574
C219	C	-0.216465	-0.808444	-0.512575
C220	C	0.283535	-0.308444	-0.012575
C221	C	-0.289883	-0.847304	-0.464879
C222	C	0.210117	-0.347304	0.035121
C223	C	-0.363313	-0.808407	-0.417184
C224	C	0.136687	-0.308407	0.082816
H225	H	-0.289918	-0.634232	-0.464880
H226	H	0.210082	-0.134232	0.035120
H227	H	-0.162131	-0.701923	-0.547882
H228	H	0.337869	-0.201923	-0.047882
H229	H	-0.162108	-0.837238	-0.547882
H230	H	0.337892	-0.337238	-0.047882
H231	H	-0.289875	-0.904866	-0.464879
H232	H	0.210125	-0.404866	0.035121
H233	H	-0.417662	-0.837175	-0.381876
H234	H	0.082338	-0.337175	0.118124
H235	H	-0.935730	-0.942941	-0.361340
H236	H	-0.435730	-0.442941	0.138660
C237	C	-0.362873	-0.887419	-1.078590
C238	C	0.137127	-0.387419	-0.578590
C239	C	-0.408121	-0.834273	-1.127170
C240	C	0.091879	-0.334273	-0.627170
C241	C	-0.334576	-0.786680	-1.166048
C242	C	0.165424	-0.286680	-0.666048
C243	C	-0.215783	-0.792234	-1.156346
C244	C	0.284217	-0.292234	-0.656346
C245	C	-0.170528	-0.845382	-1.107763
C246	C	0.329472	-0.345382	-0.607763
C247	C	-0.244073	-0.892975	-1.068885
C248	C	0.255927	-0.392975	-0.568885
H249	H	-0.496064	-0.830160	-1.134355
H250	H	0.003936	-0.330160	-0.634355
H251	H	-0.368077	-0.747337	-1.202013
H252	H	0.131923	-0.247337	-0.702013
H253	H	-0.161340	-0.757003	-1.185125
H254	H	0.338660	-0.257003	-0.685125
H255	H	-0.082585	-0.849495	-1.100578
H256	H	0.417415	-0.349495	-0.600578
H257	H	-0.210572	-0.932318	-1.032920
H258	H	0.289428	-0.432318	-0.532920
H259	H	-0.624622	-0.364698	-0.247466
H260	H	-0.124622	0.135302	0.252534
C261	C	-0.643666	-0.582121	-0.235071
C262	C	-0.143666	-0.082121	0.264929
C263	C	-0.598287	-0.533507	-0.181987
C264	C	-0.098287	-0.033507	0.318013
C265	C	-0.671715	-0.494607	-0.134293
C266	C	-0.171715	0.005393	0.365707
C267	C	-0.790523	-0.504321	-0.139684
C268	C	-0.290523	-0.004321	0.360316
C269	C	-0.835908	-0.552937	-0.192770
C270	C	-0.335908	-0.052937	0.307230
C271	C	-0.762479	-0.591838	-0.240464
C272	C	-0.262479	-0.091838	0.259536
H273	H	-0.510333	-0.526314	-0.177994
H274	H	-0.010333	-0.026314	0.322006
H275	H	-0.638117	-0.458617	-0.094995
H276	H	-0.138117	0.041383	0.405005
H277	H	-0.844879	-0.475524	-0.104378
H278	H	-0.344879	0.024476	0.395622
H279	H	-0.923862	-0.560130	-0.196763
H280	H	-0.423862	-0.060130	0.303237
H281	H	-0.796077	-0.627827	-0.279761
H282	H	-0.296077	-0.127827	0.220239
C283	C	-0.643646	-0.730566	-0.235063
C284	C	-0.143646	-0.230566	0.264937
C285	C	-0.717070	-0.691668	-0.187370
C286	C	-0.217070	-0.191668	0.312630
C287	C	-0.790482	-0.730524	-0.139667
C288	C	-0.290482	-0.230524	0.360333
C289	C	-0.790470	-0.808277	-0.139657
C290	C	-0.290470	-0.308277	0.360343
C291	C	-0.717044	-0.847179	-0.187352
C292	C	-0.217044	-0.347179	0.312648
C293	C	-0.643632	-0.808324	-0.235055
C294	C	-0.143632	-0.308324	0.264945
H295	H	-0.717081	-0.634107	-0.187375
H296	H	-0.217081	-0.134107	0.312625
H297	H	-0.844837	-0.701726	-0.104360
H298	H	-0.344837	-0.201726	0.395640
H299	H	-0.844814	-0.837040	-0.104345
H300	H	-0.344814	-0.337040	0.395655
H301	H	-0.717033	-0.904740	-0.187347
H302	H	-0.217033	-0.404740	0.312653
H303	H	-0.589277	-0.837122	-0.270362
H304	H	-0.089277	-0.337122	0.229638
H305	H	-0.898410	-1.054569	-0.249868
H306	H	-0.398410	-0.554569	0.250132
H307	H	-0.382135	-0.899702	-0.584490
H308	H	0.117865	-0.399702	-0.084490
H309	H	-0.382020	-0.899764	-0.940250
H310	H	0.117980	-0.399764	-0.440250
