data_functionalizedCrystal
_audit_creation_method	'MofGen! by Chris Wilmer'
_symmetry_space_group_name_H-M	'P1'
_symmetry_Int_Tables_number	1
_symmetry_cell_setting	triclinic
loop_
_symmetry_equiv_pos_as_xyz
  x,y,z
_cell_length_a	15.944551
_cell_length_b	11.792241
_cell_length_c	10.268362
_cell_angle_alpha	90.000374
_cell_angle_beta	89.993764
_cell_angle_gamma	96.153923
loop_
_atom_site_label
_atom_site_type_symbol
_atom_site_fract_x
_atom_site_fract_y
_atom_site_fract_z
O1	O	0.115128	-1.505960	-0.108177
O2	O	0.126993	-1.175521	-0.108207
O3	O	-0.001173	-1.349764	-0.108180
O4	O	0.243295	-1.331717	-0.108205
O5	O	-0.001179	-1.349749	0.108421
O6	O	0.126988	-1.175506	0.108393
O7	O	0.115123	-1.505945	0.108424
Cu8	Cu	0.121055	-1.340724	0.128186
Cu9	Cu	0.121061	-1.340742	-0.127970
O10	O	0.243290	-1.331702	0.108396
C11	C	0.126245	-1.133229	0.000089
C12	C	0.124015	-1.007234	0.000078
C13	C	-0.032473	-1.349008	0.000121
C14	C	-0.125729	-1.346761	0.000121
C15	C	0.115871	-1.548237	0.000124
C16	C	0.118102	-1.674233	0.000127
C17	C	-0.341098	-1.233389	0.000093
C18	C	-0.401880	-1.286028	0.106895
C19	C	-0.296474	-1.342698	0.000111
C20	C	-0.401858	-1.286069	-0.106656
C21	C	-0.461404	-1.338765	0.000095
C22	C	-0.356028	-1.395367	0.107001
C23	C	-0.355999	-1.395392	-0.106646
C24	C	-0.416764	-1.448111	0.000182
C25	C	-0.201461	-1.344961	0.000121
C26	C	-0.556415	-1.336511	0.000095
C27	C	0.274590	-1.332459	0.000093
C28	C	0.367846	-1.334705	0.000084
N29	N	0.121050	-1.340720	0.308352
C30	C	0.119913	-0.776555	0.000116
C31	C	0.122192	-0.904922	0.000095
N32	N	0.121060	-1.340756	-0.308135
C33	C	0.121060	-1.340736	0.574022
C34	C	0.121057	-1.340724	0.426184
H35	H	-0.422199	-1.239788	0.197179
O36	O	-0.301882	-1.125131	0.000433
C37	C	-0.325141	-1.067904	0.113226
H38	H	-0.346840	-1.133052	0.191543
H39	H	-0.268620	-1.009521	0.150490
H40	H	-0.378769	-1.014864	0.088854
O41	O	-0.425954	-1.230752	-0.214337
C42	C	-0.387070	-1.117584	-0.213921
H43	H	-0.327698	-1.112140	-0.151398
H44	H	-0.369480	-1.090386	-0.317784
H45	H	-0.432588	-1.058717	-0.172245
O46	O	-0.331584	-1.450522	-0.214255
C47	C	-0.243358	-1.452734	-0.212113
H48	H	-0.219637	-1.442571	-0.107597
H49	H	-0.226974	-1.537538	-0.252888
H50	H	-0.212121	-1.379882	-0.274121
H51	H	-0.335831	-1.441555	0.197393
H52	H	-0.449513	-1.538922	0.000251
