data_functionalizedCrystal
_audit_creation_method	'MofGen! by Chris Wilmer'
_symmetry_space_group_name_H-M	'P1'
_symmetry_Int_Tables_number	1
_symmetry_cell_setting	triclinic
loop_
_symmetry_equiv_pos_as_xyz
  x,y,z
_cell_length_a	14.908979
_cell_length_b	14.908178
_cell_length_c	14.908308
_cell_angle_alpha	90.221621
_cell_angle_beta	83.628929
_cell_angle_gamma	96.795332
loop_
_atom_site_label
_atom_site_type_symbol
_atom_site_fract_x
_atom_site_fract_y
_atom_site_fract_z
Zn1	Zn	1.337569	-0.305881	0.415333
Zn2	Zn	1.338485	-0.447535	0.256244
Zn3	Zn	1.194939	-0.305925	0.272710
Zn4	Zn	1.177452	-0.465956	0.415270
O5	O	1.262111	-0.381324	0.339889
O6	O	1.464774	-0.316945	0.387365
O7	O	1.327146	-0.421059	0.132187
O8	O	1.220795	-0.179663	0.298546
O9	O	1.465447	-0.421018	0.270483
O10	O	1.325584	-0.179631	0.403331
O11	O	1.221683	-0.317019	0.144285
O12	O	1.065536	-0.334880	0.298485
O13	O	1.190989	-0.452412	0.541519
O14	O	1.052688	-0.452454	0.403224
O15	O	1.308627	-0.334806	0.541566
O16	O	1.310189	-0.576235	0.270422
O17	O	1.191878	-0.589768	0.387258
C18	C	1.026160	-0.395671	0.352635
C19	C	0.925217	-0.401832	0.358108
C20	C	1.249259	-0.615738	0.327064
C21	C	1.243842	-0.716018	0.321604
C22	C	0.776278	-0.471811	0.420244
C23	C	0.871123	-0.466024	0.415110
C24	C	0.884460	-0.343426	0.306234
C25	C	0.789616	-0.349214	0.311369
C26	C	0.735527	-0.413408	0.368377
C27	C	0.640681	-0.419191	0.373515
C28	C	0.654020	-0.296598	0.264635
C29	C	0.748865	-0.290810	0.259501
C30	C	1.342683	-0.904285	0.420583
C31	C	1.337596	-0.998507	0.415455
C32	C	1.228576	-0.998687	0.306225
C33	C	1.233663	-0.904465	0.311353
C34	C	1.290720	-0.857267	0.368533
C35	C	1.295811	-0.763043	0.373656
C36	C	1.186787	-0.763225	0.264431
C37	C	1.181700	-0.857447	0.259303
C38	C	1.498983	-0.366922	0.327094
C39	C	1.599924	-0.360784	0.321642
C40	C	1.247755	-0.395659	0.575191
C41	C	1.241637	-0.401768	0.675462
C42	C	1.275038	-0.145995	0.352782
C43	C	1.280546	-0.045711	0.358277
C44	C	1.276467	-0.366977	0.105504
C45	C	1.282775	-0.360603	0.005237
C46	C	1.352636	-0.290763	0.863934
C47	C	1.346890	-0.296500	0.958148
C48	C	1.224398	-0.418972	0.958106
C49	C	1.230143	-0.413236	0.863892
C50	C	1.294265	-0.349130	0.816809
C51	C	1.300014	-0.343399	0.722593
C52	C	1.177518	-0.465867	0.722554
C53	C	1.171773	-0.471603	0.816768
H54	H	0.596644	-0.471457	0.419938
H55	H	0.732239	-0.524073	0.466671
H56	H	1.394420	-0.248969	0.996514
C57	C	0.848409	-0.587780	0.523251
C58	C	0.915917	-0.530218	0.472130
H59	H	0.876064	-0.627408	0.558457
H60	H	0.811931	-0.622090	0.484007
H61	H	0.811456	-0.552877	0.561969
H62	H	0.952865	-0.565121	0.433407
H63	H	0.952410	-0.495904	0.511378
C64	C	1.473142	-0.170284	0.873434
C65	C	1.423117	-0.220303	0.812174
H66	H	1.516650	-0.126782	0.841479
H67	H	1.503479	-0.209719	0.906148
H68	H	1.433220	-0.140418	0.914212
H69	H	1.463038	-0.250175	0.771400
H70	H	1.392778	-0.180863	0.779445
H71	H	1.172193	-0.471164	0.996458
C72	C	1.449932	-0.913568	0.528040
C73	C	1.405394	-0.852400	0.483435
H74	H	1.488641	-0.881535	0.566848
H75	H	1.485119	-0.945788	0.484888
H76	H	1.406237	-0.954855	0.562647
H77	H	1.449089	-0.811117	0.448823
H78	H	1.370204	-0.820164	0.526593
H79	H	1.119565	-0.523794	0.855116
C80	C	1.131932	-0.511460	0.578114
C81	C	1.113350	-0.530029	0.670752
H82	H	1.092316	-0.551069	0.546136
H83	H	1.193160	-0.520012	0.558661
H84	H	1.122906	-0.450707	0.566718
H85	H	1.122383	-0.590780	0.682149
H86	H	1.052107	-0.521484	0.690211
H87	H	1.352226	-0.291201	0.684260
C88	C	0.635805	-0.142880	0.230872
C89	C	0.609205	-0.232410	0.207618
H90	H	0.608126	-0.103260	0.195678
H91	H	0.700022	-0.130238	0.219640
H92	H	0.617291	-0.134420	0.293068
H93	H	0.627725	-0.240872	0.145423
H94	H	0.544974	-0.245056	0.218843
H95	H	1.342272	-0.724615	0.420212
C96	C	1.035777	-0.280130	0.250023
C97	C	0.943924	-0.272870	0.243574
H98	H	1.072486	-0.236566	0.211342
H99	H	1.048803	-0.338966	0.232563
H100	H	1.048337	-0.269765	0.310536
H101	H	0.931362	-0.283241	0.183061
H102	H	0.930893	-0.214020	0.261028
H103	H	1.379906	-1.036786	0.457844
C104	C	1.172384	-1.143207	0.249866
C105	C	1.165870	-1.050577	0.243372
H106	H	1.133677	-1.175239	0.211055
H107	H	1.154502	-1.163130	0.310341
H108	H	1.233390	-1.154071	0.232588
H109	H	1.104864	-1.039711	0.260655
H110	H	1.183747	-1.030646	0.182883
C111	C	1.029074	-0.893290	0.221939
C112	C	1.118987	-0.909334	0.196453
H113	H	0.990360	-0.925326	0.183138
H114	H	1.024674	-0.830452	0.217536
H115	H	1.011208	-0.913224	0.282423
H116	H	1.136856	-0.889393	0.135971
H117	H	1.123391	-0.972184	0.200847
C118	C	0.789786	-0.235550	0.107649
C119	C	0.808328	-0.220256	0.196837
H120	H	0.826500	-0.191995	0.068964
H121	H	0.727476	-0.230629	0.103290
H122	H	0.802821	-0.294395	0.090204
H123	H	0.795286	-0.161413	0.214285
H124	H	0.870652	-0.225169	0.201200
H125	H	1.144477	-0.724931	0.222045
