data_functionalizedCrystal
_audit_creation_method	'MofGen! by Chris Wilmer'
_symmetry_space_group_name_H-M	'P1'
_symmetry_Int_Tables_number	1
_symmetry_cell_setting	triclinic
loop_
_symmetry_equiv_pos_as_xyz
  x,y,z
_cell_length_a	27.731988
_cell_length_b	14.586319
_cell_length_c	27.731996
_cell_angle_alpha	90.006159
_cell_angle_beta	97.380124
_cell_angle_gamma	90.006065
loop_
_atom_site_label
_atom_site_type_symbol
_atom_site_fract_x
_atom_site_fract_y
_atom_site_fract_z
O1	O	-0.640937	0.075998	0.057378
O2	O	-0.500137	0.076057	0.066154
O3	O	-0.574923	0.076006	-0.008633
O4	O	-0.566151	0.076049	0.132165
O5	O	-0.574914	-0.076475	-0.008629
O6	O	-0.500128	-0.076423	0.066158
O7	O	-0.640928	-0.076483	0.057383
Cu8	Cu	-0.570527	-0.090376	0.061771
Cu9	Cu	-0.570538	0.089950	0.061766
O10	O	-0.566142	-0.076431	0.132170
C11	C	-0.482125	-0.000176	0.065976
C12	C	-0.428469	-0.000154	0.065435
C13	C	-0.045314	0.082922	0.061509
C14	C	-0.246971	0.082945	0.063572
O15	O	-0.273049	0.153635	0.063818
N16	N	-0.272187	-0.000171	0.063833
C17	C	-0.246985	-0.083298	0.063574
O18	O	-0.273060	-0.153992	0.063838
C19	C	-0.045329	-0.083320	0.061507
C20	C	-0.020115	-0.000199	0.061252
C21	C	-0.020100	0.166036	0.061253
C22	C	0.030311	0.166030	0.060739
C23	C	0.055510	0.082909	0.060482
C24	C	0.030296	-0.000206	0.060739
C25	C	-0.020128	-0.166446	0.061245
C26	C	0.030289	-0.166445	0.060727
C27	C	0.055502	-0.083324	0.060472
C28	C	0.105906	-0.083333	0.059968
N29	N	0.131122	-0.000218	0.059708
C30	C	0.105923	0.082903	0.059965
C31	C	-0.352857	-0.083280	0.064661
C32	C	-0.403271	-0.083275	0.065178
C33	C	-0.403254	0.082968	0.065175
C34	C	-0.352839	0.082962	0.064661
C35	C	-0.327642	-0.000165	0.064400
C36	C	0.211792	0.082883	0.058887
C37	C	0.262208	0.082869	0.058376
C38	C	0.262186	-0.083374	0.058377
C39	C	0.211775	-0.083360	0.058891
C40	C	0.186578	-0.000224	0.059144
O41	O	0.132014	-0.153986	0.059717
O42	O	0.132006	0.153587	0.059690
C43	C	-0.095725	0.082929	0.062022
C44	C	-0.120939	-0.000186	0.062278
C45	C	-0.095740	-0.083307	0.062021
C46	C	-0.171352	-0.000180	0.062796
C47	C	-0.196551	0.082940	0.063053
C48	C	-0.171335	0.166056	0.062792
C49	C	-0.120924	0.166049	0.062279
C50	C	-0.120956	-0.166422	0.062282
C51	C	-0.171367	-0.166409	0.062796
C52	C	-0.196566	-0.083288	0.063053
N53	N	-0.570523	-0.217208	0.061774
C54	C	0.341061	-0.000245	0.057565
C55	C	0.287407	-0.000252	0.058119
C56	C	-0.599624	-0.452217	0.090878
C57	C	-0.599629	-0.548199	0.090874
C58	C	-0.541444	-0.548201	0.032652
C59	C	-0.541442	-0.452222	0.032653
C60	C	-0.570531	-0.404232	0.061769
C61	C	-0.570538	-0.596193	0.061764
C62	C	-0.570543	-0.700260	0.061760
C63	C	-0.570526	-0.300159	0.061772
N64	N	-0.570546	0.216782	0.061758
C65	C	-0.574738	-0.000237	-0.026639
C66	C	-0.574196	-0.000247	-0.080295
C67	C	-0.570786	0.082917	-0.413013
C68	C	-0.568725	0.082934	-0.614671
O69	O	-0.568442	0.153623	-0.640743
N70	N	-0.568464	-0.000182	-0.639885
C71	C	-0.568715	-0.083309	-0.614682
O72	O	-0.568441	-0.154004	-0.640755
C73	C	-0.570772	-0.083325	-0.413024
C74	C	-0.571038	-0.000203	-0.387813
C75	C	-0.571051	0.166032	-0.387801
C76	C	-0.571569	0.166027	-0.337390
C77	C	-0.571821	0.082907	-0.312191
C78	C	-0.571556	-0.000208	-0.337402
C79	C	-0.571020	-0.166451	-0.387822
C80	C	-0.571533	-0.166447	-0.337404
C81	C	-0.571799	-0.083325	-0.312193
C82	C	-0.572327	-0.083333	-0.261791
N83	N	-0.572588	-0.000217	-0.236577
C84	C	-0.572335	0.082903	-0.261776
C85	C	-0.567636	-0.083295	-0.720555
C86	C	-0.567122	-0.083291	-0.770969
C87	C	-0.567131	0.082952	-0.770954
C88	C	-0.567648	0.082948	-0.720540
C89	C	-0.567896	-0.000178	-0.695340
C90	C	-0.573423	0.082886	-0.155910
C91	C	-0.573943	0.082874	-0.105494
C92	C	-0.573931	-0.083369	-0.105513
C93	C	-0.573414	-0.083357	-0.155924
C94	C	-0.573158	-0.000222	-0.181121
O95	O	-0.572605	-0.153985	-0.235687
O96	O	-0.572599	0.153588	-0.235693
C97	C	-0.570268	0.082922	-0.463424
C98	C	-0.570003	-0.000193	-0.488635
C99	C	-0.570255	-0.083313	-0.463436
C100	C	-0.569489	-0.000189	-0.539049
C101	C	-0.569236	0.082931	-0.564249
C102	C	-0.569497	0.166047	-0.539034
C103	C	-0.570015	0.166042	-0.488623
C104	C	-0.569994	-0.166429	-0.488650
C105	C	-0.569477	-0.166418	-0.539061
C106	C	-0.569224	-0.083297	-0.564261
C107	C	-0.566327	-0.000186	0.150175
C108	C	-0.566869	-0.000171	0.203831
H109	H	-0.040612	0.233727	0.061460
H110	H	-0.566926	0.150632	-0.791480
C111	C	-0.680457	-0.577741	0.109284
C112	C	-0.631608	-0.600941	0.122874
H113	H	-0.700200	-0.610298	0.129042
H114	H	-0.689691	-0.593482	0.076149
H115	H	-0.684610	-0.513709	0.113452
H116	H	-0.627455	-0.664973	0.118702
H117	H	-0.622372	-0.585206	0.156017
C118	C	-0.515577	-0.695331	0.006827
C119	C	-0.509464	-0.600952	0.000653
H120	H	-0.495830	-0.727892	-0.012925
H121	H	-0.548713	-0.711100	-0.002377
H122	H	-0.506326	-0.711008	0.039971
H123	H	-0.518719	-0.585273	-0.032490
H124	H	-0.476321	-0.585176	0.009854
C125	C	-0.532925	-0.179759	-0.043062
C126	C	-0.574203	-0.174728	-0.077803
H127	H	-0.533088	-0.236162	-0.025955
H128	H	-0.533163	-0.130253	-0.020841
H129	H	-0.504529	-0.176288	-0.058832
H130	H	-0.602599	-0.178192	-0.062032
H131	H	-0.573970	-0.224247	-0.100026
H132	H	-0.100399	0.233735	0.062071
C133	C	-0.166268	0.330389	0.062743
C134	C	-0.199039	0.257426	0.063077
H135	H	-0.183373	0.386791	0.062920
H136	H	-0.150511	0.326928	0.034343
H137	H	-0.142698	0.326936	0.090744
H138	H	-0.222607	0.260875	0.035073
H139	H	-0.214804	0.260888	0.091479
C140	C	-0.483922	-0.461857	-0.024896
C141	C	-0.509459	-0.399469	0.000655
H142	H	-0.464177	-0.429288	-0.044648
H143	H	-0.506319	-0.499297	-0.044864
H144	H	-0.463944	-0.499288	-0.002504
H145	H	-0.529439	-0.362043	-0.021737
H146	H	-0.487059	-0.362013	0.020624
H147	H	-0.574161	0.150564	-0.084970
H148	H	-0.573212	0.150583	-0.176418
H149	H	-0.423779	0.150649	0.065386
H150	H	-0.191891	-0.234101	0.063008
C151	C	-0.571518	0.330346	-0.342454
C152	C	-0.571853	0.257398	-0.309681
H153	H	-0.571688	0.386757	-0.325348
H154	H	-0.599516	0.326878	-0.366019
H155	H	-0.543116	0.326883	-0.358214
H156	H	-0.600256	0.260858	-0.293923
H157	H	-0.543851	0.260868	-0.286107
C158	C	-0.528911	0.262528	-0.438726
C159	C	-0.570775	0.257409	-0.415495
H160	H	-0.528743	0.318948	-0.455818
H161	H	-0.528684	0.213044	-0.460961
H162	H	-0.500913	0.259080	-0.415151
H163	H	-0.598773	0.260851	-0.439070
H164	H	-0.571007	0.306907	-0.393257
H165	H	-0.100445	-0.234111	0.062070
H166	H	0.050835	0.233715	0.060529
C167	C	-0.527344	0.262485	-0.589967
C168	C	-0.569215	0.257412	-0.566743
H169	H	-0.527167	0.318888	-0.607073
H170	H	-0.527119	0.212979	-0.612190
H171	H	-0.499351	0.259043	-0.566387
H172	H	-0.597208	0.260847	-0.590323
H173	H	-0.569444	0.306932	-0.544519
C174	C	-0.357897	0.247283	0.064712
C175	C	-0.325127	0.174330	0.064376
H176	H	-0.340790	0.303691	0.064532
H177	H	-0.373652	0.243830	0.093113
H178	H	-0.381469	0.243809	0.036712
H179	H	-0.301557	0.177800	0.092377
H180	H	-0.309365	0.177785	0.035972
H181	H	-0.623310	-0.413147	0.114585
C182	C	-0.567604	0.247268	-0.725600
C183	C	-0.567934	0.174317	-0.692829
H184	H	-0.567777	0.303677	-0.708493
H185	H	-0.595603	0.243797	-0.749165
H186	H	-0.539203	0.243812	-0.741362
H187	H	-0.596338	0.177769	-0.677070
H188	H	-0.539932	0.177790	-0.669255
C189	C	-0.567161	-0.247613	-0.765907
C190	C	-0.566834	-0.174661	-0.798679
H191	H	-0.566978	-0.304021	-0.783013
H192	H	-0.595561	-0.244168	-0.750150
H193	H	-0.539161	-0.244130	-0.742337
H194	H	-0.594837	-0.178140	-0.822247
H195	H	-0.538431	-0.178108	-0.814443
H196	H	-0.567840	-0.150990	-0.700043
C197	C	-0.398212	-0.247597	0.065125
C198	C	-0.430981	-0.174644	0.065463
H199	H	-0.415320	-0.304005	0.065296
H200	H	-0.374644	-0.244133	0.093122
H201	H	-0.382453	-0.244135	0.036722
H202	H	-0.446737	-0.178103	0.093868
H203	H	-0.454557	-0.178110	0.037463
C204	C	-0.571047	-0.330768	-0.382748
C205	C	-0.570722	-0.257823	-0.415524
H206	H	-0.570859	-0.387180	-0.399851
H207	H	-0.599448	-0.327327	-0.366994
H208	H	-0.543048	-0.327275	-0.359177
H209	H	-0.598723	-0.261312	-0.439094
H210	H	-0.542318	-0.261266	-0.431286
C211	C	-0.530530	-0.262877	-0.274960
C212	C	-0.571806	-0.257822	-0.309703
H213	H	-0.530698	-0.319289	-0.257862
H214	H	-0.530767	-0.213383	-0.252732
H215	H	-0.502133	-0.259401	-0.290727
H216	H	-0.600203	-0.261291	-0.293936
H217	H	-0.571573	-0.307330	-0.331935
H218	H	-0.573202	-0.151042	-0.176453
H219	H	-0.570201	-0.234117	-0.468138
H220	H	-0.569264	-0.234111	-0.559585
H221	H	-0.570231	0.233729	-0.468101
H222	H	0.282735	0.150559	0.058169
H223	H	0.282712	-0.151049	0.058170
H224	H	0.191283	0.150580	0.059095
C225	C	-0.290413	-0.179732	0.105645
C226	C	-0.325161	-0.174658	0.064374
H227	H	-0.273314	-0.236142	0.105465
H228	H	-0.306173	-0.176270	0.134042
H229	H	-0.268182	-0.130232	0.105410
H230	H	-0.347394	-0.224155	0.064610
H231	H	-0.309401	-0.178129	0.035969
C232	C	-0.015062	-0.330764	0.061181
C233	C	-0.047835	-0.257818	0.061522
H234	H	-0.032167	-0.387176	0.061348
H235	H	0.008504	-0.327302	0.089180
H236	H	0.000698	-0.327294	0.032780
H237	H	-0.063592	-0.261285	0.089926
H238	H	-0.071409	-0.261282	0.033520
H239	H	0.050802	-0.234138	0.060519
H240	H	0.191246	-0.151044	0.059108
