data_functionalizedCrystal
_audit_creation_method	'MofGen! by Chris Wilmer'
_symmetry_space_group_name_H-M	'P1'
_symmetry_Int_Tables_number	1
_symmetry_cell_setting	triclinic
loop_
_symmetry_equiv_pos_as_xyz
  x,y,z
_cell_length_a	6.817900
_cell_length_b	17.110477
_cell_length_c	19.453114
_cell_angle_alpha	96.689185
_cell_angle_beta	101.709288
_cell_angle_gamma	99.060298
loop_
_atom_site_label
_atom_site_type_symbol
_atom_site_fract_x
_atom_site_fract_y
_atom_site_fract_z
V1	V	-3.984650	-0.110306	-0.218908
O2	O	-3.995637	0.004453	-0.214834
O3	O	-3.914651	-0.217903	-0.217321
O4	O	-3.927831	-0.108981	-0.314422
O5	O	-3.982365	-0.105223	-0.117061
V6	V	-4.472168	-0.096536	-0.206737
O7	O	-4.237146	-0.140513	-0.245605
O8	O	-4.669869	-0.066329	-0.180039
O9	O	-4.318961	0.011061	-0.208324
O10	O	-4.578579	-0.211295	-0.210811
O11	O	-4.591850	-0.101619	-0.308584
O12	O	-4.305780	-0.097860	-0.111223
C13	C	-3.754669	-0.244121	-0.213844
C14	C	-3.778667	-0.332086	-0.213184
C15	C	-3.970917	-0.377455	-0.216373
C16	C	-3.993456	-0.460108	-0.215757
C17	C	-3.823740	-0.497388	-0.211945
C18	C	-3.631476	-0.452013	-0.208757
C19	C	-3.608942	-0.369363	-0.209379
C20	C	-3.882726	-0.746736	-0.209897
C21	C	-3.905274	-0.829392	-0.209274
C22	C	-4.267253	-0.837481	-0.216275
C23	C	-4.244700	-0.754828	-0.216892
C24	C	-4.052441	-0.709461	-0.213708
C25	C	-3.846773	-0.581872	-0.211313
C26	C	-4.029414	-0.624980	-0.214345
C27	C	-3.771482	-0.105180	-0.337705
C28	C	-3.806167	-0.104809	-0.415788
C29	C	-4.003446	-0.108606	-0.456042
C30	C	-4.036037	-0.108258	-0.529409
C31	C	-3.871342	-0.104127	-0.562521
C32	C	-3.674032	-0.100325	-0.522257
C33	C	-3.641445	-0.100665	-0.448891
N34	N	-3.803209	-0.145916	-0.681276
N35	N	-3.834179	-0.145594	-0.750972
C36	C	-3.969514	-0.103099	-0.783571
N37	N	-4.072744	-0.060947	-0.743843
N38	N	-4.041778	-0.061273	-0.674141
C39	C	-3.906657	-0.103757	-0.642075
C40	C	-4.202144	-0.106517	-0.903378
C41	C	-4.234726	-0.106163	-0.976745
C42	C	-3.872719	-0.098239	-0.969593
C43	C	-3.840140	-0.098584	-0.896226
C44	C	-4.004862	-0.102728	-0.863123
C45	C	-4.142284	0.037275	-0.211798
C46	C	-4.097523	0.125239	-0.212464
C47	C	-4.125472	-0.101665	-0.087936
C48	C	-4.070026	-0.102032	-0.009852
H49	H	-3.708593	-0.612234	-0.208207
C50	C	-3.397453	-0.319457	-0.205868
N51	N	-3.238153	-0.281868	-0.203224
H52	H	-4.336270	-0.109888	-0.876424
C53	C	-3.492851	-0.095731	-0.558675
N54	N	-3.356371	-0.092251	-0.586103
C55	C	-3.424417	-0.096497	-0.404611
N56	N	-3.260949	-0.093361	-0.371259
C57	C	-4.451756	-0.110333	-1.021024
N58	N	-4.615227	-0.113472	-1.054375
C59	C	-3.718565	-0.870399	-0.205086
N60	N	-3.577945	-0.901286	-0.201933
H61	H	-4.382907	-0.724481	-0.220000
C62	C	-3.623120	-0.094423	-0.851947
N63	N	-3.459651	-0.091289	-0.818596
H64	H	-3.493295	-0.482374	-0.205658
H65	H	-3.738618	-0.094868	-0.996551
C66	C	-4.204942	-0.510010	-0.219263
N67	N	-4.364243	-0.547596	-0.221905
C68	C	-3.671233	-0.696841	-0.206385
N69	N	-3.511925	-0.659256	-0.203735
H70	H	-4.423784	-0.874427	-0.218867
H71	H	-4.109119	-0.347106	-0.219470
H72	H	-4.167595	-0.594623	-0.217452
H73	H	-4.137578	-0.111977	-0.429094
H74	H	-4.196692	-0.111354	-0.562191
