data_functionalizedCrystal
_audit_creation_method	'MofGen! by Chris Wilmer'
_symmetry_space_group_name_H-M	'P1'
_symmetry_Int_Tables_number	1
_symmetry_cell_setting	triclinic
loop_
_symmetry_equiv_pos_as_xyz
  x,y,z
_cell_length_a	12.827893
_cell_length_b	12.827892
_cell_length_c	12.827885
_cell_angle_alpha	90.029976
_cell_angle_beta	90.019272
_cell_angle_gamma	90.015362
loop_
_atom_site_label
_atom_site_type_symbol
_atom_site_fract_x
_atom_site_fract_y
_atom_site_fract_z
Zn1	Zn	1.597670	-0.415983	0.590847
Zn2	Zn	2.097670	0.084017	1.090847
Zn3	Zn	1.597564	-0.590761	0.416107
Zn4	Zn	2.097564	-0.090761	0.916107
Zn5	Zn	1.422911	-0.416034	0.416121
Zn6	Zn	1.922911	0.083966	0.916121
Zn7	Zn	1.422896	-0.590683	0.590807
Zn8	Zn	1.922896	-0.090683	1.090807
O9	O	1.510260	-0.503365	0.503471
O10	O	2.010260	-0.003365	1.003471
O11	O	1.743892	-0.439179	0.567679
O12	O	2.243892	0.060821	1.067679
O13	O	1.574357	-0.567637	0.269873
O14	O	2.074357	-0.067637	0.769873
O15	O	1.446144	-0.269791	0.439321
O16	O	1.946144	0.230209	0.939321
O17	O	1.743814	-0.567587	0.439298
O18	O	2.243814	-0.067587	0.939298
O19	O	1.574538	-0.269754	0.567692
O20	O	2.074538	0.230246	1.067692
O21	O	1.446041	-0.439266	0.269883
O22	O	1.946041	0.060734	0.769883
O23	O	1.276673	-0.439190	0.439282
O24	O	1.776673	0.060810	0.939282
O25	O	1.446118	-0.567455	0.737048
O26	O	1.946118	-0.067455	1.237048
O27	O	1.276662	-0.567504	0.567623
O28	O	1.776662	-0.067504	1.067623
O29	O	1.574524	-0.439104	0.737078
O30	O	2.074524	0.060896	1.237078
O31	O	1.574343	-0.736986	0.439259
O32	O	2.074343	-0.236986	0.939259
O33	O	1.446016	-0.736929	0.567610
O34	O	1.946016	-0.236929	1.067610
C35	C	1.238750	-0.503345	0.503451
C36	C	1.738750	-0.003345	1.003451
C37	C	1.122597	-0.503362	0.503467
C38	C	1.622597	-0.003362	1.003467
C39	C	1.070835	-0.566954	0.566876
C40	C	1.570835	-0.066954	1.066876
C41	C	0.950784	-0.566973	0.566895
C42	C	1.450784	-0.066973	1.066895
C43	C	1.510195	-0.774875	0.503451
C44	C	2.010195	-0.274875	1.003451
C45	C	1.510262	-0.891028	0.503478
C46	C	2.010262	-0.391028	1.003478
C47	C	1.573768	-0.942711	0.567057
C48	C	2.073768	-0.442711	1.067057
C49	C	1.573839	-1.062761	0.567086
C50	C	2.073839	-0.562761	1.067086
C51	C	1.782830	-0.503386	0.503491
C52	C	2.282830	-0.003386	1.003491
C53	C	1.898983	-0.503395	0.503500
C54	C	2.398983	-0.003395	1.003500
C55	C	1.510331	-0.503265	0.776041
C56	C	2.010331	-0.003265	1.276041
C57	C	1.510362	-0.503222	0.892194
C58	C	2.010362	-0.003222	1.392194
C59	C	1.510354	-0.230795	0.503513
C60	C	2.010354	0.269205	1.003513
C61	C	1.510394	-0.114642	0.503531
C62	C	2.010394	0.385358	1.003531
C63	C	1.510249	-0.503390	0.231961
C64	C	2.010249	-0.003390	0.731961
C65	C	1.510422	-0.503138	0.115808
C66	C	2.010422	-0.003138	0.615808
C67	C	1.573907	-0.439697	0.943993
C68	C	2.073907	0.060303	1.443993
C69	C	1.573940	-0.439652	1.064044
C70	C	2.073940	0.060348	1.564044
H71	H	1.078036	-0.448927	0.449198
H72	H	1.578036	0.051073	0.949198
H73	H	0.943491	-0.448952	0.449206
H74	H	1.443491	0.051048	0.949206
H75	H	0.906270	-0.621420	0.621179
H76	H	1.406270	-0.121420	1.121179
O77	O	1.638553	-1.115826	0.632139
O78	O	2.138553	-0.615826	1.132139
C79	C	1.578997	-1.178982	0.699517
C80	C	2.078997	-0.678982	1.199517
H81	H	1.496700	-1.146089	0.705919
H82	H	1.996700	-0.646089	1.205919
H83	H	1.616745	-1.180238	0.779973
H84	H	2.116745	-0.680238	1.279973
H85	H	1.575389	-1.261689	0.667145
H86	H	2.075389	-0.761689	1.167145
O87	O	1.638454	-0.889523	0.632124
O88	O	2.138454	-0.389523	1.132124
C89	C	1.615611	-0.916079	0.736285
C90	C	2.115611	-0.416079	1.236285
H91	H	1.532172	-0.946226	0.741517
H92	H	2.032172	-0.446226	1.241517
H93	H	1.624468	-0.844204	0.787839
H94	H	2.124468	-0.344204	1.287839
H95	H	1.671722	-0.979279	0.763726
H96	H	2.171722	-0.479279	1.263726
H97	H	1.456026	-1.070203	0.449091
H98	H	1.956026	-0.570203	0.949091
H99	H	1.455941	-0.935657	0.449072
H100	H	1.955941	-0.435657	0.949072
H101	H	1.455975	-0.557567	0.936724
H102	H	1.955975	-0.057567	1.436724
O103	O	1.445484	-0.568131	1.062842
O104	O	1.945484	-0.068131	1.562842
C105	C	1.386415	-0.627134	1.134290
C106	C	1.886415	-0.127134	1.634290
H107	H	1.429163	-0.630788	1.212126
H108	H	1.929163	-0.130788	1.712126
H109	H	1.375269	-0.709455	1.102664
H110	H	1.875269	-0.209455	1.602664
H111	H	1.307050	-0.588873	1.145853
H112	H	1.807050	-0.088873	1.645853
O113	O	1.123940	-0.631780	0.631778
O114	O	1.623940	-0.131780	1.131778
C115	C	1.097378	-0.609111	0.735997
C116	C	1.597378	-0.109111	1.235997
H117	H	1.067315	-0.525667	0.741447
H118	H	1.567315	-0.025667	1.241447
H119	H	1.169230	-0.618095	0.787534
H120	H	1.669230	-0.118095	1.287534
H121	H	1.034114	-0.665240	0.763284
H122	H	1.534114	-0.165240	1.263284
O123	O	1.638642	-0.374805	0.890763
O124	O	2.138642	0.125195	1.390763
C125	C	1.579097	-0.307367	0.827652
C126	C	2.079097	0.192633	1.327652
H127	H	1.499868	-0.344234	0.811400
H128	H	1.999868	0.155766	1.311400
H129	H	1.621577	-0.293470	0.750859
H130	H	2.121577	0.206530	1.250859
H131	H	1.567698	-0.229867	0.869660
H132	H	2.067698	0.270133	1.369660
H133	H	1.628348	-0.385270	1.108590
H134	H	2.128348	0.114730	1.608590
