data_functionalizedCrystal
_audit_creation_method	'MofGen! by Chris Wilmer'
_symmetry_space_group_name_H-M	'P1'
_symmetry_Int_Tables_number	1
_symmetry_cell_setting	triclinic
loop_
_symmetry_equiv_pos_as_xyz
  x,y,z
_cell_length_a	12.594516
_cell_length_b	12.759401
_cell_length_c	12.594510
_cell_angle_alpha	89.980715
_cell_angle_beta	90.031906
_cell_angle_gamma	89.983786
loop_
_atom_site_label
_atom_site_type_symbol
_atom_site_fract_x
_atom_site_fract_y
_atom_site_fract_z
Zn1	Zn	-0.423646	-1.606254	0.601776
Zn2	Zn	-0.601674	-1.606141	0.423803
Zn3	Zn	-0.423710	-1.430553	0.423815
Zn4	Zn	-0.601583	-1.430540	0.601744
O5	O	-0.512653	-1.518372	0.512785
O6	O	-0.447272	-1.753260	0.578175
O7	O	-0.578131	-1.582808	0.274859
O8	O	-0.274756	-1.453913	0.447440
O9	O	-0.578069	-1.753177	0.447420
O10	O	-0.274708	-1.582999	0.578187
O11	O	-0.447382	-1.453804	0.274868
O12	O	-0.447294	-1.283531	0.447410
O13	O	-0.577914	-1.453890	0.750694
O14	O	-0.577977	-1.283521	0.578134
O15	O	-0.447184	-1.582986	0.750717
O16	O	-0.750607	-1.582795	0.447390
O17	O	-0.750541	-1.453782	0.578122
C18	C	-0.512633	-1.245405	0.512770
C19	C	-0.512651	-1.128628	0.512789
C20	C	-0.789194	-1.518303	0.512774
C21	C	-0.907499	-1.518370	0.512805
C22	C	-0.512532	-1.518449	0.790406
C23	C	-0.512481	-1.518482	0.908711
C24	C	-0.976755	-1.448193	0.583861
C25	C	-1.047630	-1.422592	0.486739
C26	C	-1.047423	-1.544066	0.609944
C27	C	-0.976816	-1.492719	0.415632
C28	C	-0.976603	-1.614238	0.538902
C29	C	-1.047446	-1.588673	0.441714
C30	C	-0.235032	-1.518470	0.512818
C31	C	-0.116727	-1.518512	0.512833
C32	C	-0.512673	-1.792405	0.512800
C33	C	-0.512682	-1.909182	0.512806
C34	C	-0.580806	-1.073789	0.580744
C35	C	-0.580819	-0.964065	0.580756
C36	C	-0.444519	-0.964029	0.444848
C37	C	-0.444501	-1.073751	0.444843
C38	C	-0.659501	-1.073808	0.659207
C39	C	-0.659515	-0.964084	0.659218
C40	C	-0.512697	-1.518356	0.236244
C41	C	-0.512448	-1.518526	0.117939
C42	C	-0.441355	-1.588723	1.048741
C43	C	-0.538476	-1.614374	0.977922
C44	C	-0.415371	-1.492877	0.977959
C45	C	-0.609620	-1.544228	1.048678
C46	C	-0.486449	-1.422686	1.048721
C47	C	-0.583637	-1.448301	0.977934
H48	H	-0.945715	-1.388740	0.643863
H49	H	-0.388996	-1.118398	0.389514
F50	F	-0.567249	-1.720287	0.937272
F51	F	-0.662325	-1.370682	0.937555
H52	H	-0.691748	-1.566020	1.079613
H53	H	-0.637514	-1.103618	0.741678
H54	H	-0.464409	-1.341679	1.079845
F55	F	-0.936449	-1.464265	0.308241
H56	H	-0.630087	-0.930088	0.737582
F57	F	-0.308048	-1.464545	0.937351
H58	H	-1.078290	-1.648081	0.381567
H59	H	-1.078852	-1.341584	0.464689
F60	F	-0.935795	-1.720097	0.567784
H61	H	-1.078439	-1.565743	0.692081
F62	F	-0.767227	-0.925131	0.630153
F63	F	-0.761827	-1.118270	0.620513
F64	F	-0.371993	-0.905616	0.372540
F65	F	-0.362853	-1.666395	1.089379
