data_functionalizedCrystal
_audit_creation_method	'MofGen! by Chris Wilmer'
_symmetry_space_group_name_H-M	'P1'
_symmetry_Int_Tables_number	1
_symmetry_cell_setting	triclinic
loop_
_symmetry_equiv_pos_as_xyz
  x,y,z
_cell_length_a	18.215407
_cell_length_b	25.639239
_cell_length_c	18.215399
_cell_angle_alpha	89.969965
_cell_angle_beta	89.982187
_cell_angle_gamma	90.033199
loop_
_atom_site_label
_atom_site_type_symbol
_atom_site_fract_x
_atom_site_fract_y
_atom_site_fract_z
Zn1	Zn	1.125001	-0.208233	-0.416065
Zn2	Zn	1.124880	-0.295669	-0.292995
Zn3	Zn	1.001934	-0.208241	-0.293017
Zn4	Zn	1.001870	-0.295631	-0.416024
O5	O	1.063421	-0.251943	-0.354525
O6	O	1.227969	-0.219844	-0.399748
O7	O	1.108547	-0.284091	-0.190013
O8	O	1.018336	-0.135074	-0.309367
O9	O	1.227880	-0.284083	-0.309328
O10	O	1.108754	-0.135069	-0.399770
O11	O	1.018219	-0.219858	-0.190030
O12	O	0.898941	-0.219821	-0.309326
O13	O	1.018228	-0.284018	-0.519014
O14	O	0.898894	-0.284026	-0.399699
O15	O	1.108692	-0.219807	-0.519044
O16	O	1.108485	-0.368829	-0.309288
O17	O	1.018110	-0.368801	-0.399677
C18	C	0.872215	-0.251920	-0.354511
C19	C	0.790416	-0.251923	-0.354522
C20	C	0.525399	-0.218558	-0.401682
C21	C	0.602258	-0.218550	-0.401679
C22	C	0.602185	-0.285345	-0.307385
C23	C	0.525327	-0.285356	-0.307391
C24	C	0.486937	-0.251959	-0.354539
C25	C	0.640653	-0.251940	-0.354530
C26	C	0.723986	-0.251931	-0.354527
C27	C	0.403598	-0.251969	-0.354543
C28	C	1.063298	-0.387786	-0.354492
C29	C	1.063312	-0.445900	-0.354502
C30	C	1.110602	-0.806265	-0.307540
C31	C	1.110631	-0.860869	-0.307550
O32	O	1.150710	-0.889108	-0.267584
N33	N	1.063551	-0.888182	-0.354574
C34	C	1.016444	-0.860888	-0.401597
O35	O	0.976402	-0.889134	-0.441596
C36	C	1.016420	-0.806285	-0.401590
C37	C	1.063498	-0.778975	-0.354558
C38	C	1.157677	-0.778955	-0.260512
C39	C	1.157647	-0.724354	-0.260501
C40	C	1.110543	-0.697064	-0.307519
C41	C	1.063468	-0.724374	-0.354547
C42	C	0.969318	-0.778992	-0.448616
C43	C	0.969298	-0.724385	-0.448606
C44	C	1.016376	-0.697075	-0.401573
C45	C	1.016334	-0.642483	-0.401554
N46	N	1.063414	-0.615170	-0.354530
C47	C	1.110519	-0.642460	-0.307512
C48	C	1.016500	-0.975559	-0.401608
C49	C	1.016520	-1.030161	-0.401612
C50	C	1.110707	-1.030138	-0.307565
C51	C	1.110683	-0.975535	-0.307559
C52	C	1.063580	-0.948246	-0.354584
C53	C	1.110452	-0.527795	-0.307493
C54	C	1.110416	-0.473190	-0.307484
C55	C	1.016232	-0.473218	-0.401533
C56	C	1.016265	-0.527818	-0.401539
C57	C	1.063381	-0.555106	-0.354517
O58	O	0.976277	-0.614210	-0.441501
O59	O	1.150561	-0.614208	-0.267526
C60	C	1.255374	-0.251967	-0.354540
C61	C	1.337173	-0.251977	-0.354546
C62	C	1.063466	-0.251907	-0.546478
C63	C	1.063485	-0.251892	-0.628277
C64	C	1.063566	-0.115570	-0.354575
C65	C	1.063627	-0.057456	-0.354597
C66	C	1.110607	-0.218426	-0.816488
C67	C	1.110616	-0.218411	-0.893347
C68	C	1.016416	-0.285277	-0.893304
C69	C	1.016404	-0.285289	-0.816447
C70	C	1.063504	-0.251864	-0.778041
C71	C	1.063524	-0.251837	-0.931757
C72	C	1.063533	-0.251821	-1.015091
C73	C	1.063494	-0.251880	-0.694702
C74	C	1.063419	-0.251941	-0.163319
C75	C	1.063543	-0.251809	-0.081521
H76	H	1.148821	-0.550007	-0.269204
O77	O	0.970696	-0.948995	-0.447182
C78	C	0.923158	-0.917470	-0.405238
H79	H	0.949144	-0.909291	-0.349491
H80	H	0.868639	-0.938557	-0.397100
C81	C	0.877858	-0.875643	-0.514186
C82	C	0.909777	-0.865594	-0.445720
H83	H	0.869601	-0.843644	-0.539158
H84	H	0.909883	-0.896883	-0.542446
H85	H	0.832429	-0.893216	-0.507395
H86	H	0.955209	-0.848027	-0.452512
H87	H	0.877759	-0.844350	-0.417462
O88	O	0.487878	-0.317731	-0.261559
C89	C	0.443429	-0.287929	-0.214093
H90	H	0.431950	-0.248329	-0.240145
H91	H	0.473026	-0.282136	-0.159564
C92	C	0.384497	-0.365331	-0.168715
C93	C	0.370394	-0.316695	-0.200715
H94	H	0.339447	-0.383076	-0.160459
H95	H	0.414445	-0.385410	-0.200691
H96	H	0.409163	-0.360496	-0.123277
H97	H	0.345736	-0.321531	-0.246155
H98	H	0.340440	-0.296618	-0.168746
O99	O	0.970565	-0.317692	-0.930579
C100	C	0.897226	-0.306271	-0.911780
H101	H	0.893547	-0.264505	-0.890671
H102	H	0.877955	-0.334307	-0.867151
C103	C	0.852635	-0.363642	-1.005969
C104	C	0.848115	-0.312342	-0.980050
H105	H	0.822340	-0.367388	-1.048080
H106	H	0.902045	-0.371338	-1.018634
H107	H	0.836577	-0.386999	-0.968772
H108	H	0.864181	-0.288986	-1.017243
H109	H	0.798707	-0.304642	-0.967393
H110	H	1.148971	-0.191181	-0.924648
O111	O	1.156116	-0.446719	-0.261694
C112	C	1.140070	-0.460100	-0.188334
H113	H	1.111799	-0.499764	-0.186793
H114	H	1.102234	-0.429405	-0.163504
C115	C	1.246565	-0.413882	-0.145713
C116	C	1.211847	-0.462601	-0.143821
H117	H	1.290840	-0.415423	-0.118254
H118	H	1.257374	-0.404866	-0.195136
H119	H	1.215028	-0.388309	-0.125023
H120	H	1.243381	-0.488172	-0.164519
H121	H	1.201045	-0.471622	-0.094400
H122	H	0.930978	-0.801218	-0.486912
O123	O	0.970748	-0.317800	-0.779013
C124	C	1.012608	-0.351587	-0.734560
H125	H	1.068397	-0.333154	-0.723066
H126	H	1.020658	-0.390331	-0.764162
C127	C	0.903578	-0.383698	-0.675657
C128	C	0.972097	-0.361056	-0.661535
H129	H	0.878588	-0.389541	-0.630613
H130	H	0.875375	-0.360936	-0.705608
H131	H	0.910296	-0.415982	-0.700327
H132	H	0.965378	-0.328770	-0.636874
H133	H	1.000298	-0.383812	-0.631579
O134	O	0.488220	-0.186106	-0.447554
C135	C	0.538653	-0.156616	-0.489151
H136	H	0.593429	-0.178027	-0.491638
H137	H	0.546838	-0.116882	-0.462301
C138	C	0.441418	-0.122859	-0.564443
C139	C	0.508693	-0.149158	-0.567504
H140	H	0.422937	-0.118256	-0.612774
H141	H	0.407439	-0.142726	-0.536417
H142	H	0.448248	-0.089750	-0.542065
H143	H	0.501861	-0.182269	-0.589873
H144	H	0.542670	-0.129297	-0.595535
H145	H	1.148956	-0.191208	-0.785221
H146	H	1.195984	-0.702121	-0.222205
H147	H	0.633571	-0.191352	-0.440069
O148	O	1.203460	-0.805378	-0.214764
C149	C	1.245011	-0.769554	-0.173275
H150	H	1.214845	-0.730653	-0.170709
H151	H	1.300887	-0.763698	-0.200270
C152	C	1.292720	-0.838658	-0.098106
C153	C	1.255666	-0.790881	-0.094949
H154	H	1.299296	-0.851814	-0.049792
H155	H	1.264729	-0.862794	-0.126060
H156	H	1.339279	-0.833772	-0.120605
H157	H	1.209104	-0.795769	-0.072459
H158	H	1.283650	-0.766746	-0.066991
H159	H	0.633452	-0.312534	-0.268998
O160	O	1.156597	-1.056658	-0.262027
C161	C	1.204099	-1.088175	-0.304023
H162	H	1.208526	-1.071686	-0.361990
H163	H	1.181405	-1.129584	-0.306525
C164	C	1.275225	-1.109192	-0.197021
C165	C	1.280667	-1.088937	-0.268215
H166	H	1.322455	-1.109665	-0.174931
H167	H	1.243220	-1.087960	-0.168726
H168	H	1.256310	-1.143698	-0.199115
H169	H	1.299572	-1.054430	-0.266119
H170	H	1.312677	-1.110164	-0.296508
O171	O	0.970759	-1.056606	-0.447363
C172	C	0.929167	-1.020803	-0.488841
H173	H	0.959293	-0.981860	-0.491404
H174	H	0.873287	-1.015045	-0.461840
C175	C	0.881521	-1.089909	-0.564016
C176	C	0.918525	-1.042080	-0.567169
H177	H	0.874953	-1.103034	-0.612332
H178	H	0.909540	-1.114031	-0.536070
H179	H	0.834959	-1.085104	-0.541511
H180	H	0.965090	-1.046886	-0.589665
H181	H	0.890514	-1.017959	-0.595121
O182	O	1.156381	-0.949065	-0.261773
C183	C	1.140331	-0.962442	-0.188413
H184	H	1.112053	-1.002104	-0.186870
H185	H	1.102499	-0.931743	-0.163586
C186	C	1.246831	-0.916231	-0.145792
C187	C	1.212106	-0.964947	-0.143897
H188	H	1.291105	-0.917774	-0.118331
H189	H	1.257644	-0.907217	-0.195216
H190	H	1.215297	-0.890654	-0.125105
H191	H	1.243636	-0.990521	-0.164592
H192	H	1.201301	-0.973965	-0.094475
O193	O	0.923472	-0.697958	-0.494313
C194	C	0.881946	-0.733776	-0.535837
H195	H	0.879433	-0.772713	-0.505694
H196	H	0.908875	-0.739542	-0.591751
C197	C	0.806692	-0.664692	-0.583406
C198	C	0.803600	-0.712514	-0.546381
H199	H	0.758365	-0.651577	-0.589913
H200	H	0.834670	-0.640560	-0.555433
H201	H	0.829135	-0.669504	-0.629996
H202	H	0.781165	-0.707701	-0.499788
H203	H	0.775616	-0.736645	-0.574346
O204	O	0.970610	-0.554329	-0.447327
C205	C	0.986634	-0.540926	-0.520683
H206	H	1.045414	-0.525870	-0.524444
H207	H	0.947147	-0.509250	-0.539878
C208	C	0.905881	-0.607904	-0.565187
C209	C	0.978078	-0.589416	-0.569807
H210	H	0.900600	-0.637815	-0.595489
H211	H	0.895083	-0.616933	-0.515765
H212	H	0.872983	-0.581504	-0.581180
H213	H	1.010973	-0.615815	-0.553804
H214	H	0.988881	-0.580393	-0.619227
O215	O	0.970376	-0.446728	-0.447132
C216	C	0.897039	-0.460130	-0.431015
H217	H	0.893348	-0.475168	-0.372222
H218	H	0.877799	-0.491819	-0.470462
C219	C	0.852437	-0.393179	-0.511751
C220	C	0.847903	-0.411645	-0.439539
H221	H	0.822127	-0.363272	-0.517012
H222	H	0.901846	-0.384151	-0.522612
H223	H	0.836405	-0.419591	-0.544616
H224	H	0.863944	-0.385236	-0.406676
H225	H	0.798496	-0.420668	-0.428672
