data_functionalizedCrystal
_audit_creation_method	'MofGen! by Chris Wilmer'
_symmetry_space_group_name_H-M	'P1'
_symmetry_Int_Tables_number	1
_symmetry_cell_setting	triclinic
loop_
_symmetry_equiv_pos_as_xyz
  x,y,z
_cell_length_a	15.944551
_cell_length_b	15.944551
_cell_length_c	14.421503
_cell_angle_alpha	89.990248
_cell_angle_beta	89.999260
_cell_angle_gamma	83.498738
loop_
_atom_site_label
_atom_site_type_symbol
_atom_site_fract_x
_atom_site_fract_y
_atom_site_fract_z
O1	O	1.114524	0.108337	-0.077017
O2	O	1.614524	0.608337	0.422983
O3	O	0.869975	0.121693	-0.077040
O4	O	1.369975	0.621693	0.422960
O5	O	0.998928	-0.007260	-0.077020
O6	O	1.498928	0.492740	0.422980
O7	O	0.985572	0.237290	-0.077038
O8	O	1.485572	0.737290	0.422962
O9	O	0.998916	-0.007274	0.077204
O10	O	1.498916	0.492726	0.577204
O11	O	0.869963	0.121679	0.077183
O12	O	1.369963	0.621679	0.577183
O13	O	1.114513	0.108323	0.077206
O14	O	1.614513	0.608323	0.577206
Cu15	Cu	0.992237	0.115000	0.091277
Cu16	Cu	1.492237	0.615000	0.591277
Cu17	Cu	0.992251	0.115016	-0.091110
Cu18	Cu	1.492251	0.615016	0.408890
O19	O	0.985560	0.237276	0.077186
O20	O	1.485560	0.737276	0.577186
C21	C	0.838675	0.121132	0.000069
C22	C	1.338675	0.621132	0.500069
C23	C	0.745429	0.119470	0.000060
C24	C	1.245429	0.619470	0.500060
C25	C	0.998367	-0.038561	0.000092
C26	C	1.498367	0.461439	0.500092
C27	C	0.996705	-0.131807	0.000093
C28	C	1.496705	0.368193	0.500093
C29	C	0.530572	0.035565	0.000084
C30	C	1.030572	0.535565	0.500084
C31	C	0.469558	0.074534	-0.075959
C32	C	0.969558	0.574534	0.424041
C33	C	0.574703	0.116462	0.000071
C34	C	1.074703	0.616462	0.500071
C35	C	0.469569	0.074540	0.076093
C36	C	0.969569	0.574540	0.576093
C37	C	0.409790	0.113551	0.000086
C38	C	0.909790	0.613551	0.500086
C39	C	0.514917	0.155454	-0.076035
C40	C	1.014917	0.655454	0.423965
C41	C	0.514934	0.155448	0.076086
C42	C	1.014934	0.655448	0.576086
C43	C	0.453937	0.194476	0.000024
C44	C	0.953937	0.694476	0.500024
C45	C	0.669705	0.118137	0.000062
C46	C	1.169705	0.618137	0.500062
C47	C	0.314789	0.111883	0.000089
C48	C	0.814789	0.611883	0.500089
C49	C	0.912801	-0.346663	0.000072
C50	C	1.412801	0.153337	0.500072
C51	C	0.951757	-0.407687	0.076117
C52	C	1.451757	0.092313	0.576117
C53	C	0.993698	-0.302533	0.000085
C54	C	1.493698	0.197467	0.500085
C55	C	0.951788	-0.407657	-0.075935
C56	C	1.451788	0.092343	0.424065
C57	C	0.990787	-0.467445	0.000074
C58	C	1.490787	0.032555	0.500074
C59	C	1.032677	-0.362328	0.076193
C60	C	1.532677	0.137672	0.576193
C61	C	1.032696	-0.362292	-0.075927
C62	C	1.532696	0.137708	0.424073
C63	C	1.071711	-0.423298	0.000136
C64	C	1.571711	0.076702	0.500136
C65	C	0.995372	-0.207530	0.000092
C66	C	1.495372	0.292470	0.500092
C67	C	0.989119	-0.562446	0.000073
C68	C	1.489119	-0.062446	0.500073
C69	C	1.145813	0.108885	0.000096
C70	C	1.645813	0.608885	0.500096
C71	C	1.239059	0.110547	0.000098
C72	C	1.739059	0.610547	0.500098
C73	C	0.986120	0.268577	0.000072
C74	C	1.486120	0.768577	0.500072
C75	C	0.987782	0.361823	0.000066
C76	C	1.487782	0.861823	0.500066
N77	N	0.992233	0.114988	0.219558
N78	N	1.492233	0.614988	0.719558
N79	N	0.992261	0.115022	-0.219392
N80	N	1.492261	0.615022	0.280608
C81	C	1.051414	0.054886	0.530996
C82	C	1.551414	0.554886	1.030996
C83	C	1.068401	0.130556	0.469156
C84	C	1.568401	0.630556	0.969156
C85	C	0.992252	0.115012	0.591447
C86	C	1.492252	0.615012	1.091447
C87	C	0.975295	0.039332	0.469193
C88	C	1.475295	0.539332	0.969193
C89	C	0.992245	0.114996	0.408725
C90	C	1.492245	0.614996	0.908725
C91	C	1.009277	0.190721	0.530968
C92	C	1.509277	0.690721	1.030968
C93	C	0.916138	0.099447	0.531010
C94	C	1.416138	0.599447	1.031010
C95	C	0.933093	0.175172	0.469198
C96	C	1.433093	0.675172	0.969198
C97	C	0.992258	0.115020	0.696708
C98	C	1.492258	0.615020	1.196708
C99	C	0.992238	0.114997	0.303467
C100	C	1.492238	0.614997	0.803467
H101	H	0.563905	-0.031573	-0.000005
H102	H	1.063905	0.468427	0.499995
N103	N	1.149143	0.147082	0.435079
N104	N	1.649143	0.647082	0.935079
N105	N	1.206984	0.158259	0.490675
N106	N	1.706984	0.658259	0.990675
H107	H	1.264011	0.169927	0.466613
H108	H	1.764011	0.669927	0.966613
H109	H	1.023686	0.254731	0.557990
H110	H	1.523686	0.754731	1.057990
N111	N	0.412316	0.278776	-0.000011
N112	N	0.912316	0.778776	0.499989
N113	N	0.424870	0.328033	0.064655
N114	N	0.924870	0.828033	0.564655
H115	H	0.395468	0.387567	0.064628
H116	H	0.895468	0.887567	0.564628
H117	H	0.449453	0.040324	-0.140243
H118	H	0.949453	0.540324	0.359757
H119	H	0.534910	0.189650	-0.140394
H120	H	1.034910	0.689650	0.359606
N121	N	0.908821	-0.432916	0.156757
N122	N	1.408821	0.067084	0.656757
N123	N	0.833325	-0.405154	0.170298
N124	N	1.333325	0.094846	0.670298
H125	H	0.802995	-0.422969	0.227246
H126	H	1.302995	0.077031	0.727246
H127	H	0.917566	-0.427728	-0.140230
H128	H	1.417566	0.072272	0.359770
N129	N	1.114227	-0.008819	0.565030
N130	N	1.614227	0.491181	1.065030
N131	N	1.190181	-0.006077	0.545186
N132	N	1.690181	0.493923	1.045186
H133	H	1.234545	-0.051065	0.569222
H134	H	1.734545	0.448935	1.069222
N135	N	0.870326	0.239024	0.435378
N136	N	1.370326	0.739024	0.935378
N137	N	0.874419	0.314732	0.455362
N138	N	1.374419	0.814732	0.955362
H139	H	0.830092	0.359830	0.431475
H140	H	1.330092	0.859830	0.931475
H141	H	1.066888	-0.342156	-0.140214
H142	H	1.566888	0.157844	0.359786
H143	H	0.535060	0.189630	0.140373
H144	H	1.035060	0.689630	0.640373
N145	N	1.156017	-0.464905	0.000173
N146	N	1.656017	0.035095	0.500173
N147	N	1.205279	-0.452329	-0.064493
N148	N	1.705279	0.047671	0.435507
H149	H	1.264819	-0.481716	-0.064466
H150	H	1.764819	0.018284	0.435534
N151	N	0.835418	0.082895	0.565113
N152	N	1.335418	0.582895	1.065113
N153	N	0.807288	0.015051	0.545363
N154	N	1.307288	0.515051	1.045363
H155	H	0.750279	0.003352	0.569448
H156	H	1.250279	0.503352	1.069448
H157	H	0.960955	-0.024663	0.442056
H158	H	1.460955	0.475337	0.942056
H159	H	1.066859	-0.342344	0.140554
H160	H	1.566859	0.157656	0.640554
N161	N	0.444366	0.031582	0.156734
N162	N	0.944366	0.531582	0.656734
N163	N	0.472139	-0.043914	0.170266
N164	N	0.972139	0.456086	0.670266
H165	H	0.454342	-0.074260	0.227214
H166	H	0.954342	0.425740	0.727214
H167	H	0.845652	-0.313356	0.000141
H168	H	1.345652	0.186644	0.500141
