data_functionalizedCrystal
_audit_creation_method	'MofGen! by Chris Wilmer'
_symmetry_space_group_name_H-M	'P1'
_symmetry_Int_Tables_number	1
_symmetry_cell_setting	triclinic
loop_
_symmetry_equiv_pos_as_xyz
  x,y,z
_cell_length_a	11.792241
_cell_length_b	11.026607
_cell_length_c	10.065875
_cell_angle_alpha	100.697662
_cell_angle_beta	98.849501
_cell_angle_gamma	83.610284
loop_
_atom_site_label
_atom_site_type_symbol
_atom_site_fract_x
_atom_site_fract_y
_atom_site_fract_z
O1	O	0.462836	-1.630965	-0.113504
O2	O	0.408644	-1.277303	-0.113505
O3	O	0.272275	-1.462715	-0.113495
O4	O	0.599205	-1.445553	-0.113514
O5	O	0.298412	-1.427360	0.113492
O6	O	0.434781	-1.241948	0.113482
O7	O	0.488973	-1.595611	0.113483
Zn8	Zn	0.466027	-1.413166	0.149522
Zn9	Zn	0.431590	-1.459747	-0.149543
O10	O	0.625342	-1.410198	0.113473
C11	C	0.242838	-1.443960	-0.000002
C12	C	0.116183	-1.440732	-0.000003
C13	C	0.411715	-1.214349	-0.000011
C14	C	0.381912	-1.079439	-0.000011
C15	C	0.485901	-1.658565	-0.000014
C16	C	0.515703	-1.793477	-0.000023
C17	C	-0.115710	-1.434802	-0.000026
C18	C	0.013332	-1.438097	-0.000013
C19	C	0.654778	-1.428954	-0.000023
C20	C	0.781432	-1.432183	-0.000031
N21	N	0.489530	-1.381384	0.353626
C22	C	0.464202	-1.006175	-0.000017
C23	C	0.433401	-0.866738	-0.000017
N24	N	0.408079	-1.491539	-0.353647
C25	C	0.439759	-1.448682	0.421408
C26	C	0.457858	-1.424231	0.578574
H27	H	0.557456	-1.046680	-0.000015
H28	H	0.513868	-1.348504	0.636891
Br29	Br	0.671148	-0.860961	-0.000006
Br30	Br	0.346052	-1.574578	0.324213
Br31	Br	0.315041	-1.618037	0.549167
Br32	Br	0.582878	-1.255169	0.450821
Br33	Br	0.277963	-0.799243	0.000008
Br34	Br	0.226480	-1.011938	0.000013
