data_functionalizedCrystal
_audit_creation_method	'MofGen! by Chris Wilmer'
_symmetry_space_group_name_H-M	'P1'
_symmetry_Int_Tables_number	1
_symmetry_cell_setting	triclinic
loop_
_symmetry_equiv_pos_as_xyz
  x,y,z
_cell_length_a	13.339070
_cell_length_b	10.654550
_cell_length_c	9.730223
_cell_angle_alpha	90.002824
_cell_angle_beta	90.004184
_cell_angle_gamma	100.057112
loop_
_atom_site_label
_atom_site_type_symbol
_atom_site_fract_x
_atom_site_fract_y
_atom_site_fract_z
O1	O	1.346709	0.631118	0.114339
O2	O	1.051601	0.548280	0.114331
O3	O	1.205940	0.409251	0.114326
O4	O	1.192370	0.770147	0.114343
O5	O	1.205929	0.409247	-0.114254
O6	O	1.051590	0.548276	-0.114249
O7	O	1.346698	0.631115	-0.114241
Zn8	Zn	1.199143	0.589695	-0.150537
Zn9	Zn	1.199157	0.589700	0.150627
O10	O	1.192359	0.770144	-0.114237
C11	C	1.204938	0.362115	0.000037
C12	C	1.201957	0.221665	0.000039
C13	C	1.013808	0.534285	0.000039
C14	C	0.901214	0.492575	0.000036
C15	C	1.292830	0.172863	0.000042
C16	C	1.290023	0.040894	0.000059
C17	C	1.105463	0.006540	0.000063
C18	C	1.108271	0.138506	0.000057
C19	C	0.538696	0.816889	0.000073
C20	C	0.644484	0.856082	0.000081
C21	C	0.708672	0.765208	0.000069
C22	C	0.667061	0.635136	0.000051
C23	C	0.561263	0.595939	0.000054
C24	C	0.731238	0.544259	0.000050
C25	C	0.689628	0.414186	0.000032
C26	C	0.583840	0.374996	0.000035
C27	C	0.519653	0.465870	0.000046
C28	C	0.837036	0.583455	0.000047
C29	C	0.859603	0.362505	0.000028
C30	C	0.753816	0.323313	0.000021
C31	C	1.384491	0.645110	0.000053
C32	C	1.497086	0.686819	0.000065
C33	C	1.193361	0.817280	0.000055
C34	C	1.196342	0.957730	0.000062
N35	N	1.199140	0.589693	-0.356074
C36	C	1.261178	0.687523	-0.427989
C37	C	1.261195	0.687521	-0.571872
C38	C	1.137127	0.491855	-0.571912
C39	C	1.137116	0.491853	-0.428031
N40	N	1.199167	0.589694	0.356163
H41	H	1.369115	0.240568	0.000030
H42	H	0.549965	0.269083	0.000035
F43	F	0.881309	0.721883	0.000066
H44	H	1.086596	0.412181	-0.369476
H45	H	1.311682	0.767191	-0.369406
H46	H	0.486426	0.890864	0.000094
H47	H	1.364021	0.001167	0.000064
F48	F	1.005760	-0.081974	0.000083
H49	H	0.794808	0.797127	0.000078
H50	H	0.719921	0.217405	0.000017
F51	F	0.927911	0.265783	0.000025
F52	F	1.011547	0.190447	0.000063
F53	F	0.688761	0.994508	0.000105
H54	H	0.433511	0.433965	0.000040
F55	F	1.071115	0.387737	-0.648506
F56	F	1.327226	0.791644	-0.648404
