data_functionalizedCrystal
_audit_creation_method	'MofGen! by Chris Wilmer'
_symmetry_space_group_name_H-M	'P1'
_symmetry_Int_Tables_number	1
_symmetry_cell_setting	triclinic
loop_
_symmetry_equiv_pos_as_xyz
  x,y,z
_cell_length_a	16.704494
_cell_length_b	23.196402
_cell_length_c	23.196401
_cell_angle_alpha	60.008822
_cell_angle_beta	90.013666
_cell_angle_gamma	56.632774
loop_
_atom_site_label
_atom_site_type_symbol
_atom_site_fract_x
_atom_site_fract_y
_atom_site_fract_z
Zr1	Zr	0.815205	0.570728	-0.045488
O2	O	0.680059	0.700986	-0.142531
O3	O	0.856632	0.447399	-0.015743
O4	O	0.856594	0.567669	-0.136010
O5	O	0.680130	0.580713	0.072608
O6	O	0.995852	0.557373	-0.130861
O7	O	0.680096	0.580717	-0.022265
O8	O	0.995919	0.342233	0.084274
O9	O	0.680063	0.795853	-0.142527
O10	O	0.978230	0.487876	0.000789
O11	O	0.874329	0.495557	0.067750
O12	O	0.874285	0.637159	-0.073849
O13	O	0.770383	0.644840	-0.006889
Zr14	Zr	1.037359	0.554301	0.114034
Zr15	Zr	1.037306	0.554307	-0.037277
Zr16	Zr	0.815259	0.570722	0.105822
Zr17	Zr	0.815212	0.722030	-0.045482
Zr18	Zr	1.037353	0.402999	0.114027
O19	O	0.995933	0.677629	0.084289
O20	O	0.995857	0.677638	-0.130856
O21	O	0.680135	0.700977	0.072613
O22	O	1.172506	0.424042	0.211077
O23	O	1.172430	0.424051	-0.004068
O24	O	0.856707	0.447390	0.199401
O25	O	1.172435	0.544316	-0.004063
O26	O	0.995970	0.557360	0.204555
O27	O	0.856712	0.567655	0.199407
O28	O	1.172468	0.544312	0.090810
O29	O	0.856603	0.782801	-0.136000
O30	O	0.995962	0.342228	0.204546
O31	O	1.172502	0.329175	0.211073
O32	O	1.172460	0.329180	0.090801
O33	O	0.680105	0.795848	-0.022255
O34	O	0.856645	0.782796	-0.015728
O35	O	0.978280	0.487870	0.142394
O36	O	1.082182	0.480189	0.075434
O37	O	0.978236	0.629472	0.000796
O38	O	0.874334	0.637153	0.067756
C39	C	0.926275	0.373259	0.034264
C40	C	0.926272	0.309027	0.034261
C41	C	0.648468	0.583054	0.024002
C42	C	0.554181	0.590025	0.020516
C43	C	0.980501	0.274848	-0.000694
C44	C	0.980511	0.214486	-0.000688
C45	C	0.926272	0.188319	0.034263
C46	C	0.872041	0.222502	0.069227
C47	C	0.872041	0.282856	0.069226
C48	C	0.835402	0.133008	0.025629
C49	C	0.835399	0.072659	0.025625
C50	C	0.926273	0.002164	0.034270
C51	C	1.017149	-0.007967	0.042906
C52	C	1.017150	0.052387	0.042905
C53	C	0.926266	0.122875	0.034269
C54	C	0.980517	-0.097467	-0.000680
C55	C	0.980530	-0.157834	-0.000669
C56	C	0.872051	-0.149810	0.069241
C57	C	0.872048	-0.089451	0.069235
C58	C	0.926279	-0.063281	0.034270
C59	C	0.485532	0.447259	0.091905
C60	C	0.396944	0.453805	0.088632
C61	C	0.288414	0.609662	0.010700
C62	C	0.377003	0.603116	0.013973
C63	C	0.475561	0.521912	0.054576
C64	C	0.564151	0.515367	0.057845
C65	C	0.455620	0.671223	-0.020082
C66	C	0.367031	0.677769	-0.023355
C67	C	1.204096	0.541975	0.044544
C68	C	1.298384	0.535004	0.048030
C69	C	0.926216	0.562522	-0.154994
C70	C	0.926193	0.562525	-0.219230
C71	C	0.926290	0.751770	0.034281
C72	C	0.926293	0.816002	0.034284
C73	C	0.871940	0.640446	-0.288363
C74	C	0.871966	0.640446	-0.348717
C75	C	0.926232	0.562520	-0.339934
C76	C	0.980497	0.484588	-0.270789
C77	C	0.980478	0.484590	-0.210436
C78	C	0.918524	0.506462	-0.407539
C79	C	0.918535	0.506463	-0.467892
C80	C	0.926297	0.562509	-0.526080
C81	C	0.934027	0.618569	-0.523914
C82	C	0.934007	0.618571	-0.463562
C83	C	0.926259	0.562509	-0.405372
C84	C	0.872070	0.640435	-0.660659
C85	C	0.872103	0.640430	-0.721012
C86	C	0.980628	0.484571	-0.643082
C87	C	0.980601	0.484577	-0.582730
C88	C	0.926316	0.562512	-0.591524
C89	C	0.926349	0.562507	0.223540
C90	C	0.926371	0.562504	0.287775
C91	C	1.204088	0.352719	0.044535
C92	C	1.298373	0.281516	0.048018
C93	C	0.926341	0.373251	0.223531
C94	C	0.926361	0.309017	0.287764
C95	C	1.204155	0.352711	0.233802
C96	C	1.298462	0.281506	0.301521
C97	C	0.648410	0.772318	-0.165257
C98	C	0.554102	0.843523	-0.232975
C99	C	0.648476	0.772310	0.024010
C100	C	0.554191	0.843513	0.020527
C101	C	0.926223	0.751778	-0.154986
C102	C	0.926203	0.816012	-0.219218
C103	C	1.288389	0.252091	0.010684
C104	C	1.376971	0.185198	0.013942
C105	C	1.475537	0.147726	0.054539
C106	C	1.485519	0.177158	0.091875
C107	C	1.396938	0.244054	0.088612
C108	C	0.980632	0.274839	0.356898
C109	C	0.980647	0.214493	0.417257
C110	C	0.926396	0.188321	0.408480
C111	C	0.872118	0.222505	0.339339
C112	C	0.872098	0.282854	0.278981
C113	C	1.396995	0.244057	0.298370
C114	C	1.485615	0.177160	0.361993
C115	C	1.475701	0.147709	0.428766
C116	C	1.377158	0.185164	0.431915
C117	C	1.288540	0.252064	0.368293
C118	C	0.455569	0.880979	-0.229824
C119	C	0.366949	0.947895	-0.293448
C120	C	0.376864	0.977350	-0.360221
C121	C	0.475407	0.939890	-0.363370
C122	C	0.564025	0.872980	-0.299748
C123	C	0.564176	0.872944	0.057855
C124	C	0.475594	0.939854	0.054580
C125	C	0.377028	0.977328	0.013981
C126	C	0.367045	0.947893	-0.023352
C127	C	0.455627	0.880989	-0.020081
C128	C	0.980465	0.842165	-0.210419
C129	C	0.980466	0.902510	-0.270765
C130	C	0.926200	0.936707	-0.339912
C131	C	0.871937	0.910549	-0.348710
C132	C	0.871942	0.850200	-0.288364
H133	H	1.024662	0.296152	-0.029162
N134	N	0.486386	0.971592	0.094844
H135	H	0.452060	1.034709	0.059678
H136	H	0.562292	0.937630	0.121056
H137	H	0.447483	0.857028	-0.050476
H138	H	0.827908	0.310674	0.222691
H139	H	0.286720	0.978384	-0.290870
H140	H	0.447477	0.857002	-0.175460
N141	N	1.366472	0.153394	0.503937
H142	H	1.437568	0.105328	0.543758
H143	H	1.327308	0.131285	0.508083
N144	N	0.260732	0.988305	-0.067129
H145	H	0.252440	0.942870	-0.048043
H146	H	0.252460	1.013971	-0.119130
N147	N	0.281491	1.049489	0.010456
H148	H	0.302782	1.062441	0.040268
H149	H	0.238895	1.031590	0.029900
N150	N	0.942346	0.679045	-0.586692
H151	H	0.882019	0.740559	-0.606950
H152	H	0.941201	0.670455	-0.625199
N153	N	0.813527	0.724487	-0.670134
H154	H	0.779166	0.773851	-0.723092
H155	H	0.863327	0.724025	-0.644844
H156	H	0.565781	0.381139	0.124970
N157	N	0.813407	0.822004	-0.297867
H158	H	0.737513	0.873673	-0.327338
H159	H	0.821715	0.778567	-0.249125
N160	N	0.407696	0.373288	0.128895
H161	H	0.483575	0.320855	0.155112
H162	H	0.373295	0.372606	0.093690
H163	H	1.024655	0.814330	-0.154122
N164	N	0.281278	1.049517	-0.428840
H165	H	0.217357	1.068769	-0.416705
H166	H	0.281309	1.028468	-0.457864
N167	N	0.182110	0.697240	-0.033076
H168	H	0.127506	0.690054	-0.029479
H169	H	0.173871	0.730134	-0.085067
H170	H	0.644398	0.449246	0.090911
H171	H	0.483467	0.963881	-0.417745
H172	H	1.208140	0.282599	-0.022383
H173	H	0.286775	0.743883	-0.056410
H174	H	0.447506	0.732011	-0.050480
N175	N	0.670299	0.832580	-0.303151
H176	H	0.663122	0.861396	-0.355108
H177	H	0.709419	0.769106	-0.278285
H178	H	0.644425	0.842438	0.090920
H179	H	1.547657	0.093255	0.057191
H180	H	1.565846	0.146670	0.359416
N181	N	1.038997	0.930713	-0.261266
H182	H	1.073365	0.899895	-0.208305
H183	H	0.989189	0.994981	-0.286538
N184	N	1.407704	0.275807	0.226356
H185	H	1.483577	0.241925	0.234025
H186	H	1.373299	0.338936	0.198430
H187	H	0.926421	0.139180	0.457633
N188	N	0.926210	1.001788	-0.404996
H189	H	0.968823	1.013161	-0.388922
H190	H	0.852706	1.057268	-0.436741
H191	H	0.827741	0.703907	-0.295529
H192	H	1.565783	0.146639	0.124928
N193	N	0.813409	0.947436	-0.423291
H194	H	0.821642	0.989637	-0.460179
H195	H	0.737539	0.978049	-0.431690
N196	N	0.813447	0.724492	-0.423294
H197	H	0.779057	0.773863	-0.419706
H198	H	0.758921	0.731734	-0.451970
H199	H	1.024672	0.186652	-0.029153
N200	N	1.039022	-0.194705	-0.038371
H201	H	1.114918	-0.225349	-0.016187
H202	H	1.010457	-0.146512	-0.091119
H203	H	1.024776	0.421125	-0.526437
N204	N	1.182266	0.292449	0.371697
H205	H	1.189442	0.263633	0.423653
H206	H	1.143141	0.284829	0.346826
N207	N	0.942349	0.679026	-0.461221
H208	H	0.947269	0.714534	-0.507237
H209	H	1.006367	0.644445	-0.418877
N210	N	1.407713	0.275788	0.128883
H211	H	1.446870	0.226840	0.182028
H212	H	1.336609	0.323867	0.120601
H213	H	0.827928	0.703886	-0.777305
N214	N	1.366191	0.153463	-0.026330
H215	H	1.290307	0.187350	-0.052535
H216	H	1.400597	0.090334	0.008869
N217	N	0.737383	0.209040	0.016307
H218	H	0.679814	0.206304	0.010830
H219	H	0.717159	0.264266	-0.028056
N220	N	1.039169	0.400519	-0.633598
H221	H	1.030952	0.412340	-0.682322
H222	H	1.010687	0.370346	-0.607980
N223	N	0.910221	0.445990	-0.470221
H224	H	0.905324	0.410472	-0.424196
H225	H	0.973590	0.406540	-0.475521
N226	N	1.039152	0.303058	0.366375
H227	H	1.073527	0.272245	0.419334
H228	H	0.989334	0.367326	0.341101
H229	H	0.827949	0.201186	0.332203
H230	H	0.912195	0.460824	-0.360165
N231	N	1.039195	0.177628	0.491825
H232	H	1.073566	0.203361	0.488221
H233	H	1.093739	0.113010	0.520494
H234	H	1.091145	0.044134	0.049938
H235	H	1.024659	0.421135	-0.154143
N236	N	1.115172	-0.083993	0.052229
H237	H	1.101389	-0.120694	0.050924
H238	H	1.171124	-0.119473	0.099987
H239	H	1.547868	0.093233	0.480566
H240	H	1.024680	-0.076161	-0.029147
H241	H	0.827889	-0.171115	0.097699
H242	H	0.761401	0.080916	0.018590
N243	N	0.813551	-0.052585	0.106936
H244	H	0.737655	-0.021936	0.084747
H245	H	0.821861	-0.010419	0.101627
N246	N	0.813547	0.194278	0.106930
H247	H	0.821773	0.150859	0.101625
H248	H	0.737675	0.245979	0.084723
N249	N	0.813548	0.319720	0.106932
H250	H	0.737651	0.350367	0.084744
H251	H	0.821856	0.361888	0.101619
N252	N	1.039034	0.400538	-0.261311
H253	H	1.030813	0.412359	-0.310034
H254	H	1.010555	0.370363	-0.235689
