data_functionalizedCrystal
_audit_creation_method	'MofGen! by Chris Wilmer'
_symmetry_space_group_name_H-M	'P1'
_symmetry_Int_Tables_number	1
_symmetry_cell_setting	triclinic
loop_
_symmetry_equiv_pos_as_xyz
  x,y,z
_cell_length_a	14.519731
_cell_length_b	14.971486
_cell_length_c	14.048226
_cell_angle_alpha	89.997111
_cell_angle_beta	90.004788
_cell_angle_gamma	96.348509
loop_
_atom_site_label
_atom_site_type_symbol
_atom_site_fract_x
_atom_site_fract_y
_atom_site_fract_z
O1	O	1.223786	-0.117339	0.079163
O2	O	0.955303	-0.131127	0.079165
O3	O	1.096741	0.005963	0.079157
O4	O	1.082349	-0.254428	0.079171
O5	O	1.096727	0.005962	-0.079164
O6	O	0.955290	-0.131128	-0.079157
O7	O	1.223772	-0.117340	-0.079158
Zn8	Zn	1.089529	-0.124234	-0.104294
Zn9	Zn	1.089547	-0.124232	0.104301
O10	O	1.082335	-0.254429	-0.079151
C11	C	0.920938	-0.130481	0.000004
C12	C	0.818559	-0.128545	0.000005
C13	C	0.735415	-0.126972	0.000008
C14	C	0.631108	-0.125007	0.000009
C15	C	0.547970	-0.123447	0.000008
C16	C	0.443655	-0.121481	0.000010
C17	C	1.096090	0.039287	-0.000003
C18	C	1.094162	0.138586	-0.000002
C19	C	1.258138	-0.117985	0.000004
C20	C	1.360517	-0.119921	0.000010
C21	C	1.082985	-0.287754	0.000012
C22	C	1.084914	-0.387052	0.000017
N23	N	1.089524	-0.124235	-0.246655
C24	C	1.177252	0.195758	-0.000004
C25	C	1.175434	0.289059	0.000006
C26	C	1.090525	0.325185	0.000010
C27	C	1.007428	0.268005	0.000014
C28	C	1.009247	0.174706	0.000011
C29	C	1.003643	0.462470	0.000017
C30	C	1.001824	0.555775	0.000018
C31	C	1.169830	0.576822	0.000012
C32	C	1.171649	0.483524	0.000009
C33	C	1.088552	0.426350	0.000012
C34	C	1.033571	-0.069849	-0.703525
C35	C	1.033568	-0.069846	-0.603867
C36	C	1.089548	-0.124225	-0.554025
C37	C	1.145542	-0.178603	-0.603845
C38	C	1.145550	-0.178600	-0.703501
C39	C	1.145520	-0.178607	-0.396131
C40	C	1.145512	-0.178611	-0.296468
C41	C	1.033538	-0.069852	-0.296497
C42	C	1.033546	-0.069849	-0.396153
C43	C	1.089539	-0.124229	-0.445967
N44	N	1.089559	-0.124225	0.246661
H45	H	1.243095	0.335605	0.000003
H46	H	0.987945	-0.025576	-0.255934
O47	O	0.922863	0.407020	0.000147
C48	C	0.779858	0.360431	0.082195
C49	C	0.871291	0.423294	0.082161
H50	H	0.738145	0.373553	0.148507
H51	H	0.738006	0.373597	0.015983
H52	H	0.795767	0.287551	0.082148
H53	H	0.855467	0.496196	0.082242
H54	H	0.913116	0.410051	0.148368
O55	O	1.199784	-0.231529	-0.555388
C56	C	1.205223	-0.352286	-0.442826
C57	C	1.143686	-0.292420	-0.497659
H58	H	1.159895	-0.401518	-0.396124
H59	H	1.245223	-0.391216	-0.495507
H60	H	1.256125	-0.308391	-0.396203
H61	H	1.092732	-0.336248	-0.544283
H62	H	1.103752	-0.253484	-0.444927
O63	O	1.254152	0.448473	0.000172
C64	C	1.398334	0.437951	0.082158
C65	C	1.304922	0.477687	0.082102
H66	H	1.439416	0.461570	0.148381
H67	H	1.385413	0.361443	0.082216
H68	H	1.439356	0.461473	0.015870
H69	H	1.263853	0.454234	0.148379
H70	H	1.317909	0.554190	0.081994
O71	O	1.250576	0.632321	-0.000152
C72	C	1.393627	0.678836	-0.082151
C73	C	1.302214	0.615942	-0.082089
H74	H	1.435411	0.665603	-0.148379
H75	H	1.377796	0.751742	-0.082204
H76	H	1.435379	0.665682	-0.015868
H77	H	1.260417	0.629016	-0.148360
H78	H	1.318110	0.543058	-0.081986
H79	H	0.932683	0.585186	0.000006
O80	O	1.200043	-0.231379	-0.444418
C81	C	1.355285	-0.266635	-0.474931
C82	C	1.293653	-0.206821	-0.420170
H83	H	1.430983	-0.246789	-0.455363
H84	H	1.334870	-0.340047	-0.455320
H85	H	1.345626	-0.257308	-0.554714
H86	H	1.303280	-0.216069	-0.340375
H87	H	1.314083	-0.133432	-0.439860
O88	O	1.200067	-0.231371	-0.751789
C89	C	1.355315	-0.266614	-0.782297
C90	C	1.293675	-0.206807	-0.727537
H91	H	1.431011	-0.246764	-0.762725
H92	H	1.334904	-0.340028	-0.762688
H93	H	1.345658	-0.257287	-0.862079
H94	H	1.303300	-0.216056	-0.647742
H95	H	1.314100	-0.133416	-0.747225
O96	O	1.259815	0.160818	0.000037
C97	C	1.426261	0.191551	-0.000012
C98	C	1.332822	0.231237	-0.000041
H99	H	1.485313	0.248466	-0.000095
H100	H	1.431380	0.148427	0.066261
H101	H	1.431262	0.148371	-0.066254
H102	H	1.327759	0.274458	0.066156
H103	H	1.327744	0.274310	-0.066358
H104	H	0.941586	0.128157	0.000012
O105	O	0.979298	-0.016979	-0.444678
C106	C	0.973872	0.103842	-0.557165
C107	C	1.035411	0.044012	-0.502286
H108	H	1.019216	0.153179	-0.603739
H109	H	0.923009	0.060013	-0.603893
H110	H	0.933827	0.142667	-0.504430
H111	H	1.075515	0.005176	-0.554953
H112	H	1.086216	0.087889	-0.455544
H113	H	0.938293	0.297427	0.000023
H114	H	0.987981	-0.025572	-0.744100
O115	O	0.979029	-0.017132	-0.555535
C116	C	0.823777	0.018166	-0.525156
C117	C	0.885441	-0.041610	-0.579926
H118	H	0.748101	-0.001589	-0.544871
H119	H	0.833292	0.008832	-0.445353
H120	H	0.844304	0.091564	-0.544748
H121	H	0.864954	-0.115030	-0.560414
H122	H	0.875918	-0.032198	-0.659715
H123	H	1.191092	-0.222894	-0.255889
