data_functionalizedCrystal
_audit_creation_method	'MofGen! by Chris Wilmer'
_symmetry_space_group_name_H-M	'P1'
_symmetry_Int_Tables_number	1
_symmetry_cell_setting	triclinic
loop_
_symmetry_equiv_pos_as_xyz
  x,y,z
_cell_length_a	17.699104
_cell_length_b	17.699083
_cell_length_c	18.366186
_cell_angle_alpha	89.992864
_cell_angle_beta	89.990066
_cell_angle_gamma	83.287266
loop_
_atom_site_label
_atom_site_type_symbol
_atom_site_fract_x
_atom_site_fract_y
_atom_site_fract_z
O1	O	1.004071	0.095787	-0.060566
O2	O	1.504071	0.595787	0.439434
O3	O	0.783695	0.108223	-0.060564
O4	O	1.283695	0.608223	0.439436
O5	O	0.900109	-0.008183	-0.060559
O6	O	1.400109	0.491817	0.439441
O7	O	0.887656	0.212194	-0.060571
O8	O	1.387656	0.712194	0.439429
O9	O	0.900089	-0.008189	0.060541
O10	O	1.400089	0.491811	0.560541
O11	O	0.783675	0.108218	0.060535
O12	O	1.283675	0.608218	0.560535
O13	O	1.004051	0.095782	0.060534
O14	O	1.504051	0.595782	0.560534
Zn15	Zn	0.893860	0.101999	0.079762
Zn16	Zn	1.393860	0.601999	0.579762
Zn17	Zn	0.893886	0.102006	-0.079792
Zn18	Zn	1.393886	0.602006	0.420208
O19	O	0.887637	0.212188	0.060528
O20	O	1.387637	0.712188	0.560528
C21	C	0.755488	0.107772	-0.000014
C22	C	1.255488	0.607772	0.499986
C23	C	0.671471	0.106427	-0.000013
C24	C	1.171471	0.606427	0.499987
C25	C	0.146600	0.167171	-0.000025
C26	C	0.646600	0.667171	0.499975
C27	C	0.225543	0.168430	-0.000027
C28	C	0.725543	0.668430	0.499973
C29	C	0.274161	0.100095	-0.000023
C30	C	0.774161	0.600095	0.499977
C31	C	0.243831	0.030496	-0.000024
C32	C	0.743831	0.530496	0.499976
C33	C	0.164889	0.029238	-0.000027
C34	C	0.664889	0.529238	0.499973
C35	C	0.562197	0.035569	-0.000012
C36	C	1.062197	0.535569	0.499988
C37	C	0.641144	0.036833	-0.000007
C38	C	1.141144	0.536833	0.499993
C39	C	0.622852	0.174762	-0.000012
C40	C	1.122852	0.674762	0.499988
C41	C	0.543909	0.173503	-0.000015
C42	C	1.043909	0.673503	0.499985
C43	C	0.513587	0.103905	-0.000020
C44	C	1.013587	0.603905	0.499980
C45	C	0.427987	0.102541	-0.000019
C46	C	0.927987	0.602541	0.499981
C47	C	0.359759	0.101459	-0.000018
C48	C	0.859759	0.601459	0.499982
C49	C	0.899653	-0.036383	-0.000009
C50	C	1.399653	0.463617	0.499991
C51	C	0.898314	-0.120402	-0.000009
C52	C	1.398314	0.379598	0.499991
C53	C	0.966647	-0.169017	-0.000008
C54	C	1.466647	0.330983	0.499992
C55	C	0.965385	-0.247961	-0.000014
C56	C	1.465385	0.252039	0.499986
C57	C	0.895789	-0.278287	-0.000016
C58	C	1.395789	0.221713	0.499984
C59	C	0.827451	-0.229665	-0.000019
C60	C	1.327451	0.270335	0.499981
C61	C	0.828714	-0.150723	-0.000018
C62	C	1.328714	0.349277	0.499982
C63	C	0.822356	-0.548028	-0.000025
C64	C	1.322356	-0.048028	0.499975
C65	C	0.821098	-0.626976	-0.000024
C66	C	1.321098	-0.126976	0.499976
C67	C	0.959026	-0.645266	-0.000022
C68	C	1.459026	-0.145266	0.499978
C69	C	0.960289	-0.566324	-0.000020
C70	C	1.460289	-0.066324	0.499980
C71	C	0.891952	-0.517709	-0.000027
C72	C	1.391952	-0.017709	0.499973
C73	C	0.893321	-0.432110	-0.000021
C74	C	1.393321	0.067890	0.499979
C75	C	0.894419	-0.363885	-0.000017
C76	C	1.394419	0.136115	0.499983
C77	C	1.032258	0.096233	-0.000018
C78	C	1.532258	0.596233	0.499982
C79	C	1.116275	0.097578	-0.000024
C80	C	1.616275	0.597578	0.499976
C81	C	0.888093	0.240388	-0.000023
C82	C	1.388093	0.740388	0.499977
C83	C	0.889431	0.324406	-0.000028
C84	C	1.389431	0.824406	0.499972
N85	N	0.893847	0.101993	0.188653
N86	N	1.393847	0.601993	0.688653
N87	N	0.893904	0.102006	-0.188683
N88	N	1.393904	0.602006	0.311317
C89	C	0.945413	0.050473	0.226755
C90	C	1.445413	0.550473	0.726755
C91	C	0.945417	0.050470	0.302983
C92	C	1.445417	0.550470	0.802983
C93	C	0.893864	0.101999	0.341105
C94	C	1.393864	0.601999	0.841105
C95	C	0.842290	0.153523	0.302993
C96	C	1.342290	0.653523	0.802993
C97	C	0.842281	0.153520	0.226767
C98	C	1.342281	0.653520	0.726767
C99	C	0.883822	0.170948	0.461862
C100	C	1.383822	0.670948	0.961862
C101	C	0.883835	0.170952	0.538087
C102	C	1.383835	0.670952	1.038087
C103	C	0.893886	0.102009	0.576213
C104	C	1.393886	0.602009	1.076213
C105	C	0.903939	0.033059	0.538105
C106	C	1.403939	0.533059	1.038105
C107	C	0.903930	0.033056	0.461878
C108	C	1.403930	0.533056	0.961878
C109	C	0.893867	0.102008	0.423760
C110	C	1.393867	0.602008	0.923760
C111	C	0.945459	0.050481	0.696971
C112	C	1.445459	0.550481	1.196971
C113	C	0.945458	0.050477	0.773200
C114	C	1.445458	0.550477	1.273200
C115	C	0.842334	0.153536	0.773208
C116	C	1.342334	0.653536	1.273208
C117	C	0.842331	0.153534	0.696981
C118	C	1.342331	0.653534	1.196981
C119	C	0.893897	0.102007	0.658866
C120	C	1.393897	0.602007	1.158866
H121	H	0.283422	-0.025143	-0.000025
H122	H	0.783422	0.474857	0.499975
F123	F	1.000337	-0.004361	0.656406
F124	F	1.500337	0.495639	1.156406
F125	F	1.034362	-0.534054	-0.000019
F126	F	1.534362	-0.034054	0.499981
H127	H	0.800356	0.195489	0.804247
H128	H	1.300356	0.695489	1.304247
H129	H	0.680728	-0.018817	-0.000006
H130	H	1.180728	0.481183	0.499994
F131	F	0.873179	0.244333	0.421292
F132	F	1.373179	0.744333	0.921292
F133	F	0.914641	-0.040321	0.578675
F134	F	1.414641	0.459679	1.078675
H135	H	0.537518	-0.021102	-0.000014
H136	H	1.037518	0.478898	0.499986
F137	F	0.755985	-0.098982	-0.000020
F138	F	1.255985	0.401018	0.499980
H139	H	0.987409	0.008515	0.334012
H140	H	1.487409	0.508515	0.834012
H141	H	0.140200	-0.027432	-0.000027
H142	H	0.640200	0.472568	0.499973
F143	F	1.000339	-0.004364	0.813753
F144	F	1.500339	0.495636	1.313753
F145	F	0.094864	0.239904	-0.000023
F146	F	0.594864	0.739904	0.499977
H147	H	0.766711	-0.508455	-0.000030
H148	H	1.266711	-0.008455	0.499970
H149	H	1.021028	-0.287541	-0.000012
H150	H	1.521028	0.212459	0.499988
H151	H	1.023320	-0.144333	-0.000002
H152	H	1.523320	0.355667	0.499998
H153	H	0.250230	0.225100	-0.000034
H154	H	0.750230	0.725100	0.499966
F155	F	1.031758	-0.697012	-0.000017
F156	F	1.531758	-0.197012	0.499983
F157	F	0.492171	0.246235	-0.000017
F158	F	0.992171	0.746235	0.499983
F159	F	0.787452	0.208372	0.656426
F160	F	1.287452	0.708372	1.156426
H161	H	0.912114	-0.023086	0.430854
H162	H	1.412114	0.476914	0.930854
F163	F	0.747021	-0.659249	-0.000027
F164	F	1.247021	-0.159249	0.499973
F165	F	0.873141	0.244333	0.578637
F166	F	1.373141	0.744333	1.078637
F167	F	0.787420	0.208362	0.343566
F168	F	1.287420	0.708362	0.843566
F169	F	0.753381	-0.261942	-0.000029
F170	F	1.253381	0.238058	0.499971
F171	F	0.787396	0.208356	0.186213
F172	F	1.287396	0.708356	0.686213
F173	F	1.000290	-0.004368	0.186193
F174	F	1.500290	0.495632	0.686193
F175	F	0.655130	0.248835	-0.000012
F176	F	1.155130	0.748835	0.499988
