data_functionalizedCrystal
_audit_creation_method	'MofGen! by Chris Wilmer'
_symmetry_space_group_name_H-M	'P1'
_symmetry_Int_Tables_number	1
_symmetry_cell_setting	triclinic
loop_
_symmetry_equiv_pos_as_xyz
  x,y,z
_cell_length_a	11.169417
_cell_length_b	11.169409
_cell_length_c	11.169416
_cell_angle_alpha	89.969126
_cell_angle_beta	89.991438
_cell_angle_gamma	90.021649
loop_
_atom_site_label
_atom_site_type_symbol
_atom_site_fract_x
_atom_site_fract_y
_atom_site_fract_z
Zn1	Zn	-1.834962	-0.678613	-0.477767
Zn2	Zn	-1.584962	-0.428613	-0.227767
Zn3	Zn	-1.334962	-0.178613	0.022233
Zn4	Zn	-1.084962	0.071387	0.272233
Zn5	Zn	-1.834852	-0.477935	-0.678507
Zn6	Zn	-1.584852	-0.227935	-0.428507
Zn7	Zn	-1.334852	0.022065	-0.178507
Zn8	Zn	-1.084852	0.272065	0.071493
Zn9	Zn	-1.634248	-0.477941	-0.477831
Zn10	Zn	-1.384248	-0.227941	-0.227831
Zn11	Zn	-1.134248	0.022059	0.022169
Zn12	Zn	-0.884248	0.272059	0.272169
Zn13	Zn	-1.634256	-0.678574	-0.678400
Zn14	Zn	-1.384256	-0.428574	-0.428400
Zn15	Zn	-1.134256	-0.178574	-0.178400
Zn16	Zn	-0.884256	0.071426	0.071600
O17	O	-1.734579	-0.578266	-0.578126
O18	O	-1.484579	-0.328266	-0.328126
O19	O	-1.234579	-0.078266	-0.078126
O20	O	-0.984579	0.171734	0.171874
O21	O	-2.002897	-0.652007	-0.504414
O22	O	-1.752897	-0.402007	-0.254414
O23	O	-1.502897	-0.152007	-0.004414
O24	O	-1.252897	0.097993	0.245586
O25	O	-1.808192	-0.309986	-0.651959
O26	O	-1.558192	-0.059986	-0.401959
O27	O	-1.308192	0.190014	-0.151959
O28	O	-1.058192	0.440014	0.098041
O29	O	-1.660917	-0.504580	-0.309873
O30	O	-1.410917	-0.254580	-0.059873
O31	O	-1.160917	-0.004580	0.190127
O32	O	-0.910917	0.245420	0.440127
O33	O	-2.002816	-0.504570	-0.651897
O34	O	-1.752816	-0.254570	-0.401897
O35	O	-1.502816	-0.004570	-0.151897
O36	O	-1.252816	0.245430	0.098103
O37	O	-1.808380	-0.652013	-0.309826
O38	O	-1.558380	-0.402013	-0.059826
O39	O	-1.308380	-0.152013	0.190174
O40	O	-1.058380	0.097987	0.440174
O41	O	-1.660809	-0.309991	-0.504522
O42	O	-1.410809	-0.059991	-0.254522
O43	O	-1.160809	0.190009	-0.004522
O44	O	-0.910809	0.440009	0.245478
O45	O	-1.466300	-0.504542	-0.504419
O46	O	-1.216300	-0.254542	-0.254419
O47	O	-0.966300	-0.004542	-0.004419
O48	O	-0.716300	0.245458	0.245581
O49	O	-1.660929	-0.846529	-0.651714
O50	O	-1.410929	-0.596529	-0.401714
O51	O	-1.160929	-0.346529	-0.151714
O52	O	-0.910929	-0.096529	0.098286
O53	O	-1.466305	-0.651945	-0.651776
O54	O	-1.216305	-0.401945	-0.401776
O55	O	-0.966305	-0.151945	-0.151776
O56	O	-0.716305	0.098055	0.098224
O57	O	-1.808388	-0.846558	-0.504310
O58	O	-1.558388	-0.596558	-0.254310
O59	O	-1.308388	-0.346558	-0.004310
O60	O	-1.058388	-0.096558	0.245690
O61	O	-1.808199	-0.504531	-0.846443
O62	O	-1.558199	-0.254531	-0.596443
O63	O	-1.308199	-0.004531	-0.346443
O64	O	-1.058199	0.245469	-0.096443
O65	O	-1.660822	-0.651940	-0.846364
O66	O	-1.410822	-0.401940	-0.596364
O67	O	-1.160822	-0.151940	-0.346364
O68	O	-0.910822	0.098060	-0.096364
C69	C	-1.422755	-0.578241	-0.578094
C70	C	-1.172755	-0.328241	-0.328094
C71	C	-0.922755	-0.078241	-0.078094
C72	C	-0.672755	0.171759	0.171906
C73	C	-1.289355	-0.578258	-0.578109
C74	C	-1.039355	-0.328258	-0.328109
C75	C	-0.789355	-0.078258	-0.078109
C76	C	-0.539355	0.171742	0.171891
C77	C	-1.734532	-0.578257	-0.889951
C78	C	-1.484532	-0.328257	-0.639951
C79	C	-1.234532	-0.078257	-0.389951
C80	C	-0.984532	0.171743	-0.139951
C81	C	-1.734621	-0.578293	-1.023351
C82	C	-1.484621	-0.328293	-0.773351
C83	C	-1.234621	-0.078293	-0.523351
C84	C	-0.984621	0.171707	-0.273351
C85	C	-1.734672	-0.891309	-0.577993
C86	C	-1.484672	-0.641309	-0.327993
C87	C	-1.234672	-0.391309	-0.077993
C88	C	-0.984672	-0.141309	0.172007
C89	C	-1.734711	-1.024709	-0.577936
C90	C	-1.484711	-0.774709	-0.327936
C91	C	-1.234711	-0.524709	-0.077936
C92	C	-0.984711	-0.274709	0.172064
C93	C	-1.047622	-0.578284	-0.578148
C94	C	-0.797622	-0.328284	-0.328148
C95	C	-0.547622	-0.078284	-0.078148
C96	C	-0.297622	0.171716	0.171852
C97	C	-1.181022	-0.578271	-0.578128
C98	C	-0.931022	-0.328271	-0.328128
C99	C	-0.681022	-0.078271	-0.078128
C100	C	-0.431022	0.171729	0.171872
C101	C	-1.734557	-0.266441	-0.578172
C102	C	-1.484557	-0.016441	-0.328172
C103	C	-1.234557	0.233559	-0.078172
C104	C	-0.984557	0.483559	0.171828
C105	C	-1.734750	-0.133042	-0.577891
C106	C	-1.484750	0.116958	-0.327891
C107	C	-1.234750	0.366958	-0.077891
C108	C	-0.984750	0.616958	0.172109
C109	C	-1.734660	-0.578301	-0.265084
C110	C	-1.484660	-0.328301	-0.015084
C111	C	-1.234660	-0.078301	0.234916
C112	C	-0.984660	0.171699	0.484916
C113	C	-1.734694	-0.578316	-0.131684
C114	C	-1.484694	-0.328316	0.118316
C115	C	-1.234694	-0.078316	0.368316
C116	C	-0.984694	0.171684	0.618316
