data_functionalizedCrystal
_audit_creation_method	'MofGen! by Chris Wilmer'
_symmetry_space_group_name_H-M	'P1'
_symmetry_Int_Tables_number	1
_symmetry_cell_setting	triclinic
loop_
_symmetry_equiv_pos_as_xyz
  x,y,z
_cell_length_a	16.992694
_cell_length_b	15.995350
_cell_length_c	15.455313
_cell_angle_alpha	92.667328
_cell_angle_beta	87.142206
_cell_angle_gamma	87.080299
loop_
_atom_site_label
_atom_site_type_symbol
_atom_site_fract_x
_atom_site_fract_y
_atom_site_fract_z
O1	O	1.043823	0.174116	-0.072015
O2	O	0.815539	0.172167	-0.072041
O3	O	0.935921	0.051671	-0.072026
O4	O	0.923440	0.294611	-0.072029
O5	O	0.929037	0.058531	0.072235
O6	O	0.808655	0.179027	0.072221
O7	O	1.036939	0.180976	0.072246
Cu8	Cu	0.922168	0.180628	0.085406
Cu9	Cu	0.930309	0.172515	-0.085200
O10	O	0.916556	0.301471	0.072232
C11	C	0.782884	0.173091	0.000087
C12	C	0.695840	0.165614	0.000077
C13	C	0.645600	0.237750	0.000077
C14	C	0.563813	0.230720	0.000089
C15	C	0.532268	0.151555	0.000095
C16	C	0.582515	0.079414	0.000098
C17	C	0.664300	0.086445	0.000092
C18	C	0.288669	0.122418	0.000118
C19	C	0.206878	0.115393	0.000122
C20	C	0.188181	0.266700	0.000114
C21	C	0.269969	0.273723	0.000103
C22	C	0.320208	0.201582	0.000111
N23	N	0.448669	0.144368	0.000104
N24	N	0.403806	0.208770	0.000107
C25	C	0.931963	0.023872	0.000103
C26	C	0.930416	-0.069182	0.000098
C27	C	0.924861	-0.407301	0.000100
C28	C	0.839142	-0.365620	-0.000233
C29	C	0.840674	-0.268811	0.000092
C30	C	0.927617	-0.239556	0.000098
C31	C	0.965973	-0.273887	0.082482
C32	C	0.963816	-0.370663	0.082550
C33	C	0.973415	-0.378704	-0.081501
C34	C	0.973447	-0.281812	-0.082590
C35	C	0.929178	-0.144754	0.000100
C36	C	0.923301	-0.502103	0.000104
C37	C	1.069593	0.180052	0.000117
C38	C	1.156637	0.187528	0.000121
C39	C	0.920514	0.329271	0.000101
C40	C	0.922061	0.422324	0.000101
N41	N	0.916448	0.186334	0.205401
N42	N	0.936036	0.166802	-0.205195
C43	C	0.967608	0.135164	0.250801
C44	C	0.963289	0.139488	0.341608
C45	C	0.907813	0.194986	0.387014
C46	C	0.856647	0.246157	0.341607
C47	C	0.860963	0.241829	0.250801
C48	C	0.889185	0.213646	0.658593
C49	C	0.884875	0.217972	0.749405
C50	C	0.991517	0.111301	0.749400
C51	C	0.995831	0.106981	0.658592
C52	C	0.944662	0.158150	0.613194
N53	N	0.903399	0.199408	0.479833
N54	N	0.949073	0.153722	0.520376
H55	H	0.147268	0.325432	0.000110
H56	H	0.948364	-0.404089	-0.143943
C57	C	0.991615	-0.211621	-0.215541
C58	C	0.935699	-0.251656	-0.164870
H59	H	0.968310	-0.193004	-0.266337
H60	H	1.009324	-0.164900	-0.183191
H61	H	1.035128	-0.249815	-0.231470
H62	H	0.892188	-0.213460	-0.148935
H63	H	0.917978	-0.298383	-0.197226
C64	C	0.553548	0.380983	0.000069
C65	C	0.508589	0.310014	0.000084
H66	H	0.519453	0.429937	0.000062
H67	H	0.583443	0.382974	0.050369
H68	H	0.588230	0.378175	-0.050245
H69	H	0.473910	0.312820	0.050402
H70	H	0.478680	0.308024	-0.050221
C71	C	0.713100	-0.353860	0.078026
C72	C	0.789297	-0.391377	0.079064
H73	H	0.682329	-0.369769	0.126978
H74	H	0.715896	-0.294652	0.079970
H75	H	0.689395	-0.371729	0.026430
H76	H	0.813004	-0.373503	0.130657
H77	H	0.786504	-0.450598	0.077128
C78	C	0.730245	0.329909	-0.074101
C79	C	0.680268	0.324773	0.000065
H80	H	0.751640	0.383638	-0.074107
H81	H	0.771870	0.287963	-0.074095
H82	H	0.701111	0.321625	-0.124398
H83	H	0.709403	0.333051	0.050363
H84	H	0.638636	0.366732	0.000068
H85	H	0.295647	0.338187	0.000088
C86	C	0.233569	-0.033469	0.000138
C87	C	0.172202	0.028367	0.000130
H88	H	0.212159	-0.087190	0.000145
H89	H	0.267475	-0.029977	-0.050166
H90	H	0.262683	-0.025182	0.050449
H91	H	0.143091	0.020084	-0.050185
H92	H	0.138283	0.024873	0.050439
H93	H	1.041003	0.061791	0.621625
H94	H	0.804387	-0.240372	0.059241
C95	C	1.110855	-0.350859	-0.079575
C96	C	1.058783	-0.415907	-0.082248
H97	H	1.163554	-0.373831	-0.080026
H98	H	1.104769	-0.318059	-0.128716
H99	H	1.099564	-0.316579	-0.028162
H100	H	1.070071	-0.450183	-0.133665
H101	H	1.064873	-0.448721	-0.033102
H102	H	0.847523	0.255311	0.621636
C103	C	0.609216	-0.069438	0.000106
C104	C	0.547844	-0.007607	0.000103
H105	H	0.587811	-0.123162	0.000112
H106	H	0.643119	-0.065941	-0.050199
H107	H	0.638332	-0.061151	0.050416
H108	H	0.518731	-0.015891	-0.050210
H109	H	0.513927	-0.011107	0.050413
C110	C	0.770658	0.003050	-0.074070
C111	C	0.719531	0.007154	0.000089
H112	H	0.804758	-0.045900	-0.074065
H113	H	0.740758	0.001053	-0.124367
H114	H	0.801142	0.051210	-0.074064
H115	H	0.689043	-0.041004	0.000080
H116	H	0.749434	0.009143	0.050398
H117	H	0.930041	-0.388100	0.144129
H118	H	1.037086	-0.262444	-0.087560
H119	H	0.807694	-0.389254	-0.059312
H120	H	1.033175	0.069641	0.786372
H121	H	0.933677	-0.244555	0.143784
H122	H	0.819302	0.283495	0.213837
H123	H	1.026582	-0.398522	0.086293
C124	C	0.395010	0.039014	-0.074046
C125	C	0.343885	0.043120	0.000114
H126	H	0.429102	-0.009942	-0.074046
H127	H	0.365108	0.037027	-0.124342
H128	H	0.425502	0.087168	-0.074037
H129	H	0.313388	-0.005031	0.000102
H130	H	0.373790	0.045099	0.050423
C131	C	0.773381	-0.305544	-0.128107
C132	C	0.799595	-0.237228	-0.079623
H133	H	0.748012	-0.286046	-0.177316
H134	H	0.817174	-0.342426	-0.146641
H135	H	0.737167	-0.334482	-0.093245
H136	H	0.835813	-0.208293	-0.114482
H137	H	0.755796	-0.200332	-0.061089
H138	H	1.029701	-0.255341	0.085550
H139	H	1.012786	0.089976	0.213838
H140	H	1.004948	0.097821	0.378573
H141	H	0.839698	0.263168	0.786370
C142	C	0.802687	0.300163	0.480806
C143	C	0.795668	0.307164	0.391515
H144	H	0.765044	0.337833	0.511614
H145	H	0.793464	0.244423	0.495694
H146	H	0.854311	0.313501	0.495668
H147	H	0.744046	0.293821	0.376652
H148	H	0.804885	0.362917	0.376621
