data_functionalizedCrystal
_audit_creation_method	'MofGen! by Chris Wilmer'
_symmetry_space_group_name_H-M	'P1'
_symmetry_Int_Tables_number	1
_symmetry_cell_setting	triclinic
loop_
_symmetry_equiv_pos_as_xyz
  x,y,z
_cell_length_a	15.944499
_cell_length_b	15.995350
_cell_length_c	14.472311
_cell_angle_alpha	90.000483
_cell_angle_beta	90.006413
_cell_angle_gamma	83.484992
loop_
_atom_site_label
_atom_site_type_symbol
_atom_site_fract_x
_atom_site_fract_y
_atom_site_fract_z
O1	O	0.108278	1.110970	0.076756
O2	O	0.121649	0.867193	0.076774
O3	O	-0.007315	0.995761	0.076766
O4	O	0.237242	0.982402	0.076764
O5	O	-0.007331	0.995753	-0.076916
O6	O	0.121633	0.867185	-0.076908
O7	O	0.108262	1.110962	-0.076926
Cu8	Cu	0.114946	0.989072	-0.090949
Cu9	Cu	0.114965	0.989083	0.090797
O10	O	0.237226	0.982394	-0.076918
C11	C	0.121088	0.835994	-0.000064
C12	C	0.119431	0.743044	-0.000057
C13	C	0.113480	0.405297	-0.000076
C14	C	0.021634	0.452743	-0.000418
C15	C	0.023292	0.549433	-0.000066
C16	C	0.116431	0.572858	-0.000067
C17	C	0.161742	0.531770	0.087688
C18	C	0.159435	0.435134	0.087756
C19	C	0.161314	0.434785	-0.087010
C20	C	0.161292	0.531730	-0.088163
C21	C	0.118105	0.667555	-0.000059
C22	C	0.111809	0.310600	-0.000078
C23	C	-0.038617	0.995210	-0.000073
C24	C	-0.131866	0.993570	-0.000065
C25	C	-0.423406	1.068265	-0.000076
C26	C	-0.362386	1.029432	-0.075850
C27	C	-0.467502	0.987613	-0.000076
C28	C	-0.362377	1.029420	0.075669
C29	C	-0.302593	0.990544	-0.000069
C30	C	-0.407710	0.948758	-0.075912
C31	C	-0.407707	0.948757	0.075675
C32	C	-0.346705	0.909865	-0.000118
C33	C	-0.562502	0.985927	-0.000080
C34	C	-0.207594	0.992225	-0.000071
C35	C	0.268528	0.982945	-0.000077
C36	C	0.361777	0.984585	-0.000078
C37	C	0.108823	1.142161	-0.000085
C38	C	0.110480	1.235111	-0.000087
N39	N	0.114932	0.989071	-0.218780
C40	C	0.114959	0.989084	-0.592872
C41	C	0.046184	1.058101	-0.553681
C42	C	0.045930	1.057921	-0.446593
C43	C	0.114945	0.989078	-0.407280
C44	C	0.095804	0.901723	-0.446164
C45	C	0.095317	0.902132	-0.553286
C46	C	0.203079	1.006634	-0.553379
C47	C	0.202489	1.008617	-0.446250
C48	C	0.114940	0.989069	-0.302392
C49	C	0.114963	0.989086	-0.697760
N50	N	0.114972	0.989091	0.218628
H51	H	-0.012551	0.577299	0.062952
H52	H	-0.014903	0.433158	0.062168
H53	H	-0.427697	0.914669	-0.140040
H54	H	-0.015085	0.434222	-0.063352
H55	H	-0.456739	1.135198	-0.000154
H56	H	0.254260	0.956305	-0.578727
H57	H	0.230170	0.545886	0.090950
H58	H	0.130285	0.560152	0.152999
H59	H	0.126406	0.416834	0.153356
H60	H	-0.313519	0.842874	-0.000157
H61	H	-0.342304	1.063543	-0.139914
H62	H	0.226866	0.402877	0.091737
H63	H	-0.012324	0.577863	-0.062973
H64	H	0.131281	0.414250	-0.153527
H65	H	0.057329	1.122856	-0.420303
H66	H	-0.427811	0.914675	0.139742
H67	H	0.057398	1.123254	-0.579441
H68	H	0.128215	0.559047	-0.153085
H69	H	0.217014	1.072878	-0.420837
H70	H	0.229212	0.547086	-0.093465
H71	H	-0.018840	1.047053	-0.580610
H72	H	0.143505	0.849232	-0.579211
H73	H	-0.019464	1.046709	-0.420974
H74	H	-0.342291	1.063550	0.139723
H75	H	0.229031	0.403015	-0.087604
H76	H	0.031052	0.886662	-0.578279
H77	H	0.144562	0.849128	-0.420701
H78	H	0.032270	0.885874	-0.419343
H79	H	0.221477	1.068970	-0.580393
H80	H	0.256065	0.961605	-0.419488
