data_functionalizedCrystal
_audit_creation_method	'MofGen! by Chris Wilmer'
_symmetry_space_group_name_H-M	'P1'
_symmetry_Int_Tables_number	1
_symmetry_cell_setting	triclinic
loop_
_symmetry_equiv_pos_as_xyz
  x,y,z
_cell_length_a	10.723024
_cell_length_b	9.065218
_cell_length_c	8.140239
_cell_angle_alpha	90.000461
_cell_angle_beta	90.004184
_cell_angle_gamma	84.741877
loop_
_atom_site_label
_atom_site_type_symbol
_atom_site_fract_x
_atom_site_fract_y
_atom_site_fract_z
O1	O	0.182988	1.959353	0.136613
O2	O	0.682988	2.459353	0.636613
O3	O	0.197997	1.529983	0.136615
O4	O	0.697997	2.029983	0.636615
O5	O	0.008956	1.754573	0.136608
O6	O	0.508956	2.254573	0.636608
O7	O	0.372028	1.734764	0.136620
O8	O	0.872028	2.234764	0.636620
O9	O	0.008947	1.754571	-0.136619
O10	O	0.508947	2.254571	0.363381
O11	O	0.197987	1.529982	-0.136612
O12	O	0.697987	2.029982	0.363388
O13	O	0.182978	1.959352	-0.136614
O14	O	0.682978	2.459352	0.363386
Zn15	Zn	0.190481	1.744667	-0.179994
Zn16	Zn	0.690481	2.244667	0.320006
Zn17	Zn	0.190494	1.744669	0.179995
Zn18	Zn	0.690494	2.244669	0.679995
O19	O	0.372019	1.734763	-0.136607
O20	O	0.872019	2.234763	0.363393
C21	C	0.196550	1.475004	0.000002
C22	C	0.696550	1.975004	0.500002
C23	C	0.192237	1.311186	0.000003
C24	C	0.692237	1.811186	0.500003
C25	C	-0.037554	1.753130	-0.000004
C26	C	0.462446	2.253130	0.499996
C27	C	-0.176126	1.748817	0.000002
C28	C	0.323874	2.248817	0.500002
C29	C	-0.250598	1.874486	0.000004
C30	C	0.249402	2.374486	0.500004
C31	C	-0.393819	1.870031	0.000010
C32	C	0.106181	2.370031	0.500010
C33	C	0.418529	1.736205	0.000008
C34	C	0.918529	2.236205	0.500008
C35	C	0.557101	1.740518	0.000013
C36	C	1.057101	2.240518	0.500013
C37	C	0.184425	2.014331	0.000003
C38	C	0.684425	2.514331	0.500003
C39	C	0.188738	2.178150	0.000013
C40	C	0.688738	2.678150	0.500013
N41	N	0.190494	1.744671	0.425677
N42	N	0.690494	2.244671	0.925677
N43	N	0.190472	1.744676	-0.425676
N44	N	0.690472	2.244676	0.074324
H45	H	-0.208325	1.985373	-0.000007
H46	H	0.291675	2.485373	0.499993
N47	N	-0.232108	1.601928	-0.000017
N48	N	0.267892	2.101928	0.499983
H49	H	-0.162732	1.518675	-0.000023
H50	H	0.337268	2.018675	0.499977
H51	H	-0.285555	1.594474	0.101272
H52	H	0.214445	2.094474	0.601272
H53	H	-0.457815	1.977613	0.000004
H54	H	0.042185	2.477613	0.500004
H55	H	-0.378911	1.632930	0.000001
H56	H	0.121089	2.132930	0.500001
