data_functionalizedCrystal
_audit_creation_method	'MofGen! by Chris Wilmer'
_symmetry_space_group_name_H-M	'P1'
_symmetry_Int_Tables_number	1
_symmetry_cell_setting	triclinic
loop_
_symmetry_equiv_pos_as_xyz
  x,y,z
_cell_length_a	25.639239
_cell_length_b	21.295418
_cell_length_c	21.295411
_cell_angle_alpha	90.043738
_cell_angle_beta	89.980474
_cell_angle_gamma	89.945501
loop_
_atom_site_label
_atom_site_type_symbol
_atom_site_fract_x
_atom_site_fract_y
_atom_site_fract_z
Zn1	Zn	-0.207990	-0.962320	-0.356243
Zn2	Zn	-0.295410	-0.962207	-0.250972
Zn3	Zn	-0.208014	-0.857043	-0.250953
Zn4	Zn	-0.295420	-0.856998	-0.356169
O5	O	-0.251708	-0.909642	-0.303584
O6	O	-0.219572	-1.050395	-0.342318
O7	O	-0.283822	-0.948229	-0.162880
O8	O	-0.134846	-0.871075	-0.264943
O9	O	-0.283799	-1.050312	-0.264976
O10	O	-0.134828	-0.948421	-0.342299
O11	O	-0.219613	-0.870965	-0.162866
O12	O	-0.219623	-0.768948	-0.264871
O13	O	-0.283816	-0.870997	-0.444268
O14	O	-0.283840	-0.768914	-0.342172
O15	O	-0.219582	-0.948377	-0.444322
O16	O	-0.368576	-0.948185	-0.264904
O17	O	-0.368584	-0.870888	-0.342191
C18	C	-0.387551	-0.909536	-0.303555
C19	C	-0.445665	-0.909548	-0.303564
C20	C	-0.251736	-0.746090	-0.303512
C21	C	-0.251760	-0.676122	-0.303496
C22	C	-0.251697	-0.909694	-0.467774
C23	C	-0.251693	-0.909717	-0.537743
C24	C	-0.806011	-0.949996	-0.263409
C25	C	-0.860616	-0.950020	-0.263418
O26	O	-0.888838	-0.984300	-0.229245
N27	N	-0.887947	-0.909753	-0.303626
C28	C	-0.860672	-0.869463	-0.343833
O29	O	-0.888934	-0.835215	-0.378034
C30	C	-0.806069	-0.869442	-0.343827
C31	C	-0.778740	-0.909708	-0.303612
C32	C	-0.778683	-0.990259	-0.223198
C33	C	-0.724082	-0.990233	-0.223188
C34	C	-0.696810	-0.949945	-0.263391
C35	C	-0.724139	-0.909682	-0.303603
C36	C	-0.778794	-0.829156	-0.384037
C37	C	-0.724187	-0.829139	-0.384028
C38	C	-0.696858	-0.869404	-0.343812
C39	C	-0.642267	-0.869369	-0.343796
N40	N	-0.614935	-0.909636	-0.303588
C41	C	-0.642207	-0.949924	-0.263385
C42	C	-0.975343	-0.869510	-0.343842
C43	C	-1.029945	-0.869527	-0.343845
C44	C	-1.029885	-0.950086	-0.263431
C45	C	-0.975282	-0.950065	-0.263425
C46	C	-0.948011	-0.909778	-0.303634
C47	C	-0.527542	-0.949868	-0.263369
C48	C	-0.472937	-0.949837	-0.263361
C49	C	-0.473001	-0.869281	-0.343778
C50	C	-0.527602	-0.869309	-0.343783
C51	C	-0.554871	-0.909607	-0.303577
O52	O	-0.614010	-0.835108	-0.377953
O53	O	-0.613939	-0.984172	-0.229195
C54	C	-0.115335	-0.909766	-0.303627
C55	C	-0.057221	-0.909818	-0.303645
C56	C	-0.251681	-1.073832	-0.303657
C57	C	-0.251670	-1.143801	-0.303688
C58	C	-0.285242	-0.643255	-0.343686
C59	C	-0.285229	-0.577512	-0.343715
C60	C	-0.251740	-0.544640	-0.303541
C61	C	-0.218252	-0.577515	-0.263347
C62	C	-0.218262	-0.643257	-0.263325
N63	N	-0.247648	-0.441365	-0.248483
N64	N	-0.247641	-0.378913	-0.248506
C65	C	-0.251707	-0.346565	-0.303608
N66	N	-0.255789	-0.379028	-0.358686
N67	N	-0.255799	-0.441485	-0.358662
C68	C	-0.251725	-0.473354	-0.303561
C69	C	-0.285176	-0.242412	-0.343832
C70	C	-0.285160	-0.176668	-0.343862
C71	C	-0.218185	-0.176673	-0.263489
C72	C	-0.218199	-0.242415	-0.263465
C73	C	-0.251697	-0.275281	-0.303636
C74	C	-0.218244	-0.950007	-0.570639
C75	C	-0.218221	-0.950006	-0.636381
C76	C	-0.251657	-0.909721	-0.669225
C77	C	-0.285108	-0.869424	-0.636321
C78	C	-0.285126	-0.869421	-0.570580
N79	N	-0.297396	-0.904857	-0.772441
N80	N	-0.297377	-0.904863	-0.834892
C81	C	-0.251604	-0.909725	-0.867300
N82	N	-0.205848	-0.914594	-0.834897
N83	N	-0.205867	-0.914591	-0.772440
C84	C	-0.251641	-0.909719	-0.740511
C85	C	-0.218128	-0.950017	-0.971482
C86	C	-0.218104	-0.950011	-1.037225
C87	C	-0.284995	-0.869433	-1.037164
C88	C	-0.285014	-0.869435	-0.971422
C89	C	-0.251581	-0.909730	-0.938584
C90	C	-0.251682	-0.909626	-0.140032
C91	C	-0.251539	-0.909726	-0.070065
H92	H	-0.549738	-0.982684	-0.230630
H93	H	-0.312450	-0.269173	-0.376545
O94	O	-0.321206	-0.825963	-0.535098
H95	H	-0.315600	-0.832728	-0.483867
H96	H	-0.190981	-0.982813	-0.663170
H97	H	-0.312494	-0.550746	-0.376445
O98	O	-0.557085	-0.825871	-0.387144
H99	H	-0.581922	-0.854038	-0.419210
O100	O	-0.182065	-0.993468	-0.936057
H101	H	-0.158794	-1.021477	-0.969979
O102	O	-0.321343	-0.141213	-0.387129
H103	H	-0.344665	-0.175114	-0.415021
O104	O	-0.182027	-0.993470	-1.072711
H105	H	-0.158788	-1.021492	-1.038830
O106	O	-0.182129	-0.542070	-0.220013
H107	H	-0.191037	-0.554632	-0.170586
H108	H	-0.190915	-0.149909	-0.230781
O109	O	-0.182100	-0.277872	-0.220100
H110	H	-0.158815	-0.243971	-0.192161
O111	O	-0.443464	-0.993274	-0.219988
H112	H	-0.418540	-1.025273	-0.248202
O113	O	-0.321076	-0.825962	-0.935934
H114	H	-0.344319	-0.797944	-0.969815
H115	H	-0.190995	-0.670017	-0.230596
O116	O	-0.182184	-0.993463	-0.535220
H117	H	-0.158919	-1.021477	-0.569144
H118	H	-0.312213	-0.836626	-1.063905
H119	H	-0.701834	-1.023023	-0.190444
H120	H	-0.800881	-1.023070	-0.190460
H121	H	-1.052191	-0.836733	-0.376587
O122	O	-0.945806	-0.993500	-0.220058
H123	H	-0.973949	-1.021519	-0.192109
H124	H	-0.312329	-0.836622	-0.663067
H125	H	-1.052099	-0.982893	-0.230698
H126	H	-0.953141	-0.836698	-0.376584
O127	O	-0.808263	-0.785730	-0.427416
H128	H	-0.780117	-0.757723	-0.455372
H129	H	-0.701986	-0.796333	-0.416773
O130	O	-0.443583	-0.825831	-0.387142
H131	H	-0.401023	-0.832588	-0.380381
H132	H	-0.312519	-0.670010	-0.376398
