data_functionalizedCrystal
_audit_creation_method	'MofGen! by Chris Wilmer'
_symmetry_space_group_name_H-M	'P1'
_symmetry_Int_Tables_number	1
_symmetry_cell_setting	triclinic
loop_
_symmetry_equiv_pos_as_xyz
  x,y,z
_cell_length_a	10.654554
_cell_length_b	17.019294
_cell_length_c	9.130313
_cell_angle_alpha	86.119786
_cell_angle_beta	89.999615
_cell_angle_gamma	83.939215
loop_
_atom_site_label
_atom_site_type_symbol
_atom_site_fract_x
_atom_site_fract_y
_atom_site_fract_z
O1	O	1.666095	0.110807	-0.135777
O2	O	1.300452	0.121360	-0.137110
O3	O	1.493474	0.001307	-0.121961
O4	O	1.473072	0.230860	-0.150927
O5	O	1.493472	0.001310	0.121638
O6	O	1.300450	0.121363	0.106489
O7	O	1.666093	0.110811	0.107821
Cu8	Cu	1.483271	0.116087	0.129397
Cu9	Cu	1.483274	0.116083	-0.158686
O10	O	1.473070	0.230863	0.092672
C11	C	1.253665	0.120586	-0.015213
C12	C	1.114258	0.118265	-0.014921
C13	C	0.902677	0.186773	-0.023569
C14	C	1.033664	0.188954	-0.023844
C15	C	1.063860	0.045392	-0.005737
C16	C	0.932875	0.043212	-0.005472
C17	C	0.885245	0.269657	-0.034017
C18	C	1.016232	0.271838	-0.034292
C19	C	1.492700	-0.028085	0.003544
C20	C	1.490380	-0.115668	0.014587
C21	C	1.489294	-0.156811	-0.113010
C22	C	1.487106	-0.239104	-0.102630
C23	C	1.486013	-0.280252	0.035348
C24	C	1.487095	-0.239102	0.162954
C25	C	1.489274	-0.156810	0.152573
C26	C	1.479426	-0.528720	0.073336
C27	C	1.477250	-0.611018	0.083708
C28	C	1.477259	-0.611014	-0.181878
C29	C	1.479446	-0.528721	-0.192247
C30	C	1.480521	-0.487578	-0.064641
C31	C	1.483780	-0.364369	0.045961
C32	C	1.482744	-0.403462	-0.075255
C33	C	1.712880	0.111585	-0.014079
C34	C	1.852286	0.113905	-0.014381
C35	C	1.473845	0.260255	-0.032837
C36	C	1.476165	0.347838	-0.043889
N37	N	1.483278	0.116089	0.332020
N38	N	1.483276	0.116075	-0.361308
C39	C	1.568770	0.062948	0.415377
C40	C	1.568767	0.062939	0.568715
C41	C	1.397775	0.169218	0.555323
C42	C	1.397774	0.169223	0.401989
C43	C	1.667494	0.001591	0.423110
C44	C	1.667491	0.001581	0.576448
H45	H	0.891853	-0.016124	0.001991
Br46	Br	1.480859	-0.472891	0.246517
Br47	Br	1.633341	-0.099462	0.366477
Br48	Br	1.485591	-0.294944	0.350213
Br49	Br	1.475780	-0.666863	0.270977
Br50	Br	1.475801	-0.666855	-0.355048
Br51	Br	0.814840	0.321713	-0.210488
H52	H	1.328149	0.212488	0.334121
Br53	Br	1.818958	0.033628	0.339785
H54	H	1.763791	0.015098	0.616359
Br55	Br	1.173237	-0.050544	0.006351
H56	H	1.637876	-0.055715	0.631225
H57	H	1.483626	-0.369955	-0.187597
Br58	Br	0.808489	0.311397	0.136012
Br59	Br	1.480938	-0.472884	-0.379510
Br60	Br	1.074951	0.315827	-0.215147
H61	H	1.328159	0.212478	0.612309
Br62	Br	1.490740	-0.100970	0.325747
H63	H	1.490191	-0.123315	-0.225367
H64	H	1.486227	-0.272600	-0.206533
Br65	Br	1.064331	0.325862	0.128802
H66	H	1.482895	-0.397881	0.158304
