data_functionalizedCrystal
_audit_creation_method	'MofGen! by Chris Wilmer'
_symmetry_space_group_name_H-M	'P1'
_symmetry_Int_Tables_number	1
_symmetry_cell_setting	triclinic
loop_
_symmetry_equiv_pos_as_xyz
  x,y,z
_cell_length_a	16.959454
_cell_length_b	10.685912
_cell_length_c	10.685880
_cell_angle_alpha	99.083823
_cell_angle_beta	94.340455
_cell_angle_gamma	85.615033
loop_
_atom_site_label
_atom_site_type_symbol
_atom_site_fract_x
_atom_site_fract_y
_atom_site_fract_z
Zn1	Zn	-0.260488	-1.995724	-0.866777
Zn2	Zn	-0.383288	-1.979296	-0.654521
Zn3	Zn	-0.260525	-1.767162	-0.638238
Zn4	Zn	-0.402030	-1.783404	-0.850415
O5	O	-0.326583	-1.881396	-0.752488
O6	O	-0.268919	-2.171181	-0.852283
O7	O	-0.359175	-1.937484	-0.474735
O8	O	-0.149907	-1.797559	-0.668586
O9	O	-0.359140	-2.159111	-0.696340
O10	O	-0.149880	-1.965483	-0.836493
O11	O	-0.268981	-1.781629	-0.462771
O12	O	-0.287154	-1.591680	-0.652721
O13	O	-0.391083	-1.825241	-1.030212
O14	O	-0.391118	-1.603613	-0.808608
O15	O	-0.287092	-1.981232	-1.042233
O16	O	-0.496388	-1.953233	-0.680475
O17	O	-0.510157	-1.809311	-0.824397
C18	C	-0.341175	-1.551588	-0.727123
C19	C	-0.347437	-1.410497	-0.716302
C20	C	-0.531953	-1.881288	-0.752458
C21	C	-0.619808	-1.881362	-0.752497
C22	C	-0.998475	-1.806574	-0.827429
C23	C	-0.984077	-1.956583	-0.677703
C24	C	-0.901533	-1.956537	-0.677688
C25	C	-0.867456	-1.881508	-0.752543
C26	C	-0.915924	-1.806523	-0.827413
C27	C	-0.853059	-2.031511	-0.602810
C28	C	-0.770509	-2.031467	-0.602791
C29	C	-0.736431	-1.956444	-0.677654
C30	C	-0.784904	-1.881457	-0.752527
C31	C	-0.750827	-1.806428	-0.827382
C32	C	-0.799299	-1.731447	-0.902264
C33	C	-0.881845	-1.731500	-0.902275
C34	C	-0.653885	-1.956391	-0.677642
C35	C	-0.668275	-1.806377	-0.827366
C36	C	-0.120410	-1.881542	-0.752548
C37	C	-0.032552	-1.881603	-0.752574
C38	C	-0.341174	-1.906881	-1.083567
C39	C	-0.347392	-1.917741	-1.224653
C40	C	-0.311928	-1.212492	-0.777941
C41	C	-0.305667	-1.353583	-0.788758
C42	C	-0.311988	-1.856084	-0.422702
C43	C	-0.305537	-1.845471	-0.281636
H44	H	-0.640536	-1.745284	-0.888328
H45	H	-0.771544	-1.670351	-0.963205
N46	N	-0.251955	-1.432014	-0.881909
H47	H	-0.195605	-1.407525	-0.860614
H48	H	-0.255015	-1.525042	-0.876655
H49	H	-0.921318	-1.670453	-0.963239
N50	N	-0.401146	-1.332064	-0.623160
H51	H	-0.442507	-1.281018	-0.670473
H52	H	-0.428076	-1.390162	-0.576365
H53	H	-1.037944	-1.745530	-0.888399
H54	H	-1.011828	-2.017660	-0.616752
H55	H	-0.880811	-2.092586	-0.541857
H56	H	-0.731048	-2.092521	-0.541820
H57	H	-0.387986	-1.987932	-1.283811
N58	N	-0.601605	-2.037242	-0.596879
H59	H	-0.635718	-2.084775	-0.549456
H60	H	-0.567001	-2.099911	-0.653100
N61	N	-0.251772	-1.752486	-1.203295
H62	H	-0.254802	-1.757639	-1.110232
H63	H	-0.195451	-1.774042	-1.227935
