data_functionalizedCrystal
_audit_creation_method	'MofGen! by Chris Wilmer'
_symmetry_space_group_name_H-M	'P1'
_symmetry_Int_Tables_number	1
_symmetry_cell_setting	triclinic
loop_
_symmetry_equiv_pos_as_xyz
  x,y,z
_cell_length_a	12.645331
_cell_length_b	12.594516
_cell_length_c	12.645323
_cell_angle_alpha	89.976054
_cell_angle_beta	89.977324
_cell_angle_gamma	90.015032
loop_
_atom_site_label
_atom_site_type_symbol
_atom_site_fract_x
_atom_site_fract_y
_atom_site_fract_z
Zn1	Zn	1.620743	-0.423763	-0.599453
Zn2	Zn	1.620630	-0.601766	-0.422196
Zn3	Zn	1.443458	-0.423799	-0.422197
Zn4	Zn	1.443445	-0.601696	-0.599411
O5	O	1.532069	-0.512756	-0.510814
O6	O	1.769076	-0.447389	-0.575956
O7	O	1.597086	-0.578202	-0.273849
O8	O	1.467028	-0.274848	-0.445729
O9	O	1.768992	-0.578167	-0.445726
O10	O	1.597279	-0.274822	-0.575958
O11	O	1.466918	-0.447451	-0.273850
O12	O	1.295109	-0.447383	-0.445688
O13	O	1.467006	-0.578049	-0.747764
O14	O	1.295099	-0.578084	-0.575887
O15	O	1.597266	-0.447322	-0.747795
O16	O	1.597073	-0.750702	-0.445686
O17	O	1.466896	-0.750651	-0.575885
C18	C	1.256639	-0.512731	-0.510784
C19	C	1.138809	-0.512745	-0.510796
C20	C	0.971216	-0.430143	-0.429340
C21	C	1.093776	-0.430357	-0.428981
C22	C	1.094292	-0.624870	-0.480283
C23	C	0.971694	-0.624419	-0.479727
C24	C	0.971659	-0.484290	-0.623079
C25	C	1.094265	-0.481785	-0.622456
C26	C	1.532000	-0.789297	-0.510804
C27	C	1.532067	-0.907602	-0.510835
C28	C	1.461256	-0.976866	-0.581601
C29	C	1.435425	-1.047727	-0.484868
C30	C	1.557995	-1.047540	-0.607584
C31	C	1.506184	-0.976905	-0.414051
C32	C	1.628799	-0.976712	-0.536833
C33	C	1.603004	-1.047541	-0.440033
C34	C	1.808574	-0.512782	-0.510846
C35	C	1.926404	-0.512793	-0.510859
C36	C	1.532147	-0.512674	-0.787320
C37	C	1.532180	-0.512639	-0.905150
C38	C	1.532168	-0.235135	-0.510848
C39	C	1.532210	-0.116830	-0.510862
C40	C	1.449981	-0.594491	-1.072695
C41	C	1.450196	-0.594897	-0.950135
C42	C	1.643881	-0.543081	-0.949670
C43	C	1.643430	-0.543595	-1.072269
C44	C	1.503736	-0.399885	-1.072346
C45	C	1.501244	-0.400561	-0.949740
C46	C	1.532052	-0.512761	-0.235385
C47	C	1.532224	-0.512496	-0.117555
H48	H	1.123463	-0.688096	-0.537794
C49	C	0.929924	-0.375766	-0.660569
H50	H	0.884506	-0.346822	-0.608124
H51	H	0.891777	-0.384536	-0.724674
H52	H	0.987750	-0.328976	-0.672010
H53	H	1.668442	-0.624540	-0.918983
C54	C	1.338307	-0.569149	-0.909463
H55	H	1.292309	-0.558352	-0.967869
H56	H	1.340563	-0.506596	-0.867578
H57	H	1.313008	-0.626628	-0.867868
C58	C	1.576310	-0.313676	-0.908460
H59	H	1.555777	-0.246870	-0.936674
H60	H	1.646630	-0.329332	-0.929802
H61	H	1.572841	-0.311217	-0.833453
H62	H	1.710519	-0.945498	-0.558846
C63	C	1.729030	-0.466441	-1.112367
H64	H	1.763932	-0.434930	-1.053727
H65	H	1.697019	-0.412587	-1.154096
H66	H	1.778968	-0.504226	-1.154000
C67	C	1.325003	-1.089872	-0.455169
H68	H	1.274720	-1.065681	-0.505507
H69	H	1.306146	-1.064648	-0.386936
H70	H	1.326016	-1.165294	-0.454767
H71	H	1.484217	-0.946006	-0.332220
C72	C	0.932515	-0.565603	-0.705139
H73	H	0.960128	-0.547968	-0.772787
H74	H	0.857446	-0.564436	-0.707631
H75	H	0.955841	-0.634575	-0.685625
C76	C	1.134442	-0.318033	-0.454793
H77	H	1.076034	-0.271859	-0.465589
H78	H	1.176362	-0.320335	-0.517103
H79	H	1.176002	-0.292596	-0.397588
H80	H	1.123366	-0.399274	-0.645464
C81	C	1.587549	-1.089454	-0.718097
H82	H	1.537117	-1.065242	-0.768276
H83	H	1.588024	-1.164871	-0.717163
H84	H	1.655733	-1.064083	-0.737040
H85	H	1.124924	-0.537592	-0.686442
C86	C	1.380223	-0.934932	-0.662324
H87	H	1.311575	-0.959252	-0.643684
H88	H	1.397916	-0.960155	-0.730868
H89	H	1.381173	-0.859508	-0.662200
C90	C	1.395620	-0.362394	-1.114093
H91	H	1.366841	-0.415077	-1.159487
H92	H	1.404308	-0.298004	-1.152269
H93	H	1.349002	-0.350996	-1.056273
C94	C	1.584642	-0.317353	-1.111553
H95	H	1.635538	-0.351300	-1.155262
H96	H	1.619097	-0.285927	-1.052615
H97	H	1.549199	-0.263927	-1.150999
H98	H	1.706802	-0.485249	-0.920534
C99	C	0.932991	-0.657061	-0.368901
H100	H	0.992195	-0.670466	-0.324640
H101	H	0.891150	-0.719485	-0.374175
H102	H	0.891767	-0.601350	-0.339504
H103	H	1.662947	-1.078377	-0.380132
H104	H	1.366905	-0.575624	-1.102168
H105	H	1.419042	-0.377603	-0.920640
H106	H	0.941749	-0.346749	-0.448260
C107	C	1.135690	-0.658085	-0.370642
H108	H	1.180090	-0.603780	-0.343315
H109	H	1.174850	-0.722136	-0.376849
H110	H	1.077658	-0.668806	-0.324110
H111	H	1.468604	-0.677453	-1.103515
H112	H	0.940369	-0.448774	-0.346669
H113	H	0.942051	-0.688084	-0.536513
C114	C	1.475592	-0.707675	-0.910528
H115	H	1.485835	-0.753417	-0.969366
H116	H	1.418471	-0.733165	-0.868822
H117	H	1.538142	-0.706026	-0.868973
H118	H	1.123054	-0.449196	-0.345821
C119	C	1.676040	-0.654802	-1.110927
H120	H	1.689432	-0.699242	-1.051705
H121	H	1.738208	-0.649393	-1.152780
H122	H	1.620579	-0.684391	-1.152130
