data_functionalizedCrystal
_audit_creation_method	'MofGen! by Chris Wilmer'
_symmetry_space_group_name_H-M	'P1'
_symmetry_Int_Tables_number	1
_symmetry_cell_setting	triclinic
loop_
_symmetry_equiv_pos_as_xyz
  x,y,z
_cell_length_a	11.169417
_cell_length_b	18.050589
_cell_length_c	11.169409
_cell_angle_alpha	89.967150
_cell_angle_beta	89.980487
_cell_angle_gamma	90.029470
loop_
_atom_site_label
_atom_site_type_symbol
_atom_site_fract_x
_atom_site_fract_y
_atom_site_fract_z
Zn1	Zn	1.834813	-0.295575	-0.678528
Zn2	Zn	1.834640	-0.419790	-0.477844
Zn3	Zn	1.634099	-0.295621	-0.477864
Zn4	Zn	1.634044	-0.419730	-0.678490
O5	O	1.734399	-0.357679	-0.578181
O6	O	2.002740	-0.312058	-0.651915
O7	O	1.807988	-0.403363	-0.309896
O8	O	1.660820	-0.191690	-0.504507
O9	O	2.002613	-0.403318	-0.504473
O10	O	1.808284	-0.191656	-0.651935
O11	O	1.660652	-0.312136	-0.309911
O12	O	1.466142	-0.312078	-0.504470
O13	O	1.660726	-0.403216	-0.846445
O14	O	1.466102	-0.403261	-0.651868
O15	O	1.808230	-0.312000	-0.846473
O16	O	1.807935	-0.523706	-0.504435
O17	O	1.660558	-0.523662	-0.651849
C18	C	1.422574	-0.357669	-0.578168
C19	C	1.289174	-0.357682	-0.578190
C20	C	1.734254	-0.550631	-0.578161
C21	C	1.734302	-0.633177	-0.578193
C22	C	1.654237	-0.832630	-0.658329
C23	C	1.624974	-0.882082	-0.548814
C24	C	1.734420	-0.784307	-0.578209
C25	C	1.763742	-0.881937	-0.687736
C26	C	1.734532	-0.930292	-0.578233
C27	C	1.705099	-0.832671	-0.468636
C28	C	1.843918	-0.832522	-0.607632
C29	C	1.814697	-0.881951	-0.498042
C30	C	1.734353	-0.700209	-0.578196
C31	C	1.734599	-1.014389	-0.578234
C32	C	2.047441	-0.357689	-0.578196
C33	C	2.180841	-0.357694	-0.578202
C34	C	1.734491	-0.357596	-0.891224
C35	C	1.734531	-0.357561	-1.024624
C36	C	1.734577	-0.163973	-0.578228
C37	C	1.734653	-0.081427	-0.578247
C38	C	1.734376	-0.357707	-0.266357
C39	C	1.734570	-0.357533	-0.132957
H40	H	1.586330	-0.810974	-0.725987
H41	H	1.936444	-0.810739	-0.632549
C42	C	1.499941	-0.911491	-0.515197
N43	N	1.405764	-0.933640	-0.489885
C44	C	1.797189	-0.911173	-0.812856
N45	N	1.822372	-0.933190	-0.907099
H46	H	1.680236	-0.811120	-0.375994
C47	C	1.906363	-0.911030	-0.406418
N48	N	1.975400	-0.932934	-0.337404
