data_functionalizedCrystal
_audit_creation_method	'MofGen! by Chris Wilmer'
_symmetry_space_group_name_H-M	'P1'
_symmetry_Int_Tables_number	1
_symmetry_cell_setting	triclinic
loop_
_symmetry_equiv_pos_as_xyz
  x,y,z
_cell_length_a	16.959455
_cell_length_b	16.959453
_cell_length_c	17.077396
_cell_angle_alpha	89.970430
_cell_angle_beta	89.981150
_cell_angle_gamma	90.022154
loop_
_atom_site_label
_atom_site_type_symbol
_atom_site_fract_x
_atom_site_fract_y
_atom_site_fract_z
Zn1	Zn	1.208402	-0.314694	-0.443823
Zn2	Zn	1.708402	0.185306	0.056177
Zn3	Zn	1.208308	-0.446881	-0.312555
Zn4	Zn	1.708308	0.053119	0.187445
Zn5	Zn	1.076220	-0.314720	-0.312573
Zn6	Zn	1.576220	0.185280	0.187427
Zn7	Zn	1.076189	-0.446833	-0.443780
Zn8	Zn	1.576189	0.053167	0.056220
O9	O	1.142280	-0.380782	-0.378183
O10	O	1.642280	0.119218	0.121817
O11	O	1.319000	-0.332238	-0.426421
O12	O	1.819000	0.167762	0.073579
O13	O	1.190761	-0.429381	-0.202710
O14	O	1.690761	0.070619	0.297290
O15	O	1.093807	-0.204105	-0.330009
O16	O	1.593807	0.295895	0.169991
O17	O	1.318932	-0.429356	-0.329978
O18	O	1.818932	0.070644	0.170022
O19	O	1.190920	-0.204086	-0.426438
O20	O	1.690920	0.295914	0.073562
O21	O	1.093717	-0.332282	-0.202723
O22	O	1.593717	0.167718	0.297277
O23	O	0.965605	-0.332235	-0.329967
O24	O	1.465605	0.167765	0.170033
O25	O	1.093753	-0.429273	-0.553632
O26	O	1.593753	0.070727	-0.053632
O27	O	0.965582	-0.429298	-0.426364
O28	O	1.465582	0.070702	0.073636
O29	O	1.190889	-0.332191	-0.553664
O30	O	1.690889	0.167809	-0.053664
O31	O	1.190730	-0.557486	-0.329936
O32	O	1.690730	-0.057486	0.170064
O33	O	1.093662	-0.557450	-0.426347
O34	O	1.593662	-0.057450	0.073653
C35	C	0.936913	-0.380765	-0.378163
C36	C	1.436913	0.119235	0.121837
C37	C	0.849057	-0.380776	-0.378174
C38	C	1.349057	0.119224	0.121826
C39	C	0.807745	-0.431269	-0.327889
C40	C	1.307745	0.068731	0.172111
C41	C	0.807815	-0.330290	-0.428464
C42	C	1.307815	0.169710	0.071536
C43	C	0.725269	-0.330296	-0.428474
C44	C	1.225269	0.169704	0.071526
C45	C	0.683957	-0.380789	-0.378189
C46	C	1.183957	0.119211	0.121811
C47	C	0.725192	-0.431275	-0.327895
C48	C	1.225192	0.068725	0.172105
C49	C	0.684028	-0.279805	-0.478761
C50	C	1.184028	0.220195	0.021239
C51	C	0.601477	-0.279808	-0.478772
C52	C	1.101477	0.220192	0.021228
C53	C	0.560164	-0.330306	-0.428491
C54	C	1.060164	0.169694	0.071509
C55	C	0.601404	-0.380795	-0.378195
C56	C	1.101404	0.119205	0.121805
C57	C	0.560092	-0.431288	-0.327911
C58	C	1.060092	0.068712	0.172089
C59	C	0.601330	-0.481781	-0.277619
C60	C	1.101330	0.018219	0.222381
C61	C	0.683879	-0.481773	-0.277614
C62	C	1.183879	0.018227	0.222386
C63	C	0.477616	-0.330315	-0.428495
C64	C	0.977616	0.169685	0.071505
C65	C	0.477539	-0.431294	-0.327917
C66	C	0.977539	0.068706	0.172083
C67	C	1.142204	-0.586148	-0.378152
C68	C	1.642204	-0.086148	0.121848
C69	C	1.142244	-0.674005	-0.378165
C70	C	1.642244	-0.174005	0.121835
C71	C	1.091743	-0.715357	-0.327923
C72	C	1.591743	-0.215357	0.172077
C73	C	1.192778	-0.715206	-0.428424
C74	C	1.692778	-0.215206	0.071576
C75	C	1.192815	-0.797752	-0.428441
C76	C	1.692815	-0.297752	0.071559
C77	C	1.142315	-0.839104	-0.378199
C78	C	1.642315	-0.339104	0.121801
C79	C	1.091777	-0.797910	-0.327940
C80	C	1.591777	-0.297910	0.172060
C81	C	1.243347	-0.838952	-0.478705
C82	C	1.743347	-0.338952	0.021295
C83	C	1.243385	-0.921503	-0.478725
C84	C	1.743385	-0.421503	0.021275
C85	C	1.192887	-0.962856	-0.428478
C86	C	1.692887	-0.462856	0.071522
C87	C	1.142348	-0.921658	-0.378217
C88	C	1.642348	-0.421658	0.121783
C89	C	1.091847	-0.963010	-0.327975
C90	C	1.591847	-0.463010	0.172025
C91	C	1.041312	-0.921812	-0.277708
C92	C	1.541312	-0.421812	0.222292
C93	C	1.041279	-0.839264	-0.277694
C94	C	1.541279	-0.339264	0.222306
C95	C	1.192920	-1.045405	-0.428493
C96	C	1.692920	-0.545405	0.071507
C97	C	1.091881	-1.045563	-0.327992
C98	C	1.591881	-0.545563	0.172008
C99	C	1.348448	-0.380800	-0.378202
C100	C	1.848448	0.119200	0.121798
C101	C	1.436305	-0.380807	-0.378211
C102	C	1.936305	0.119193	0.121789
C103	C	1.142328	-0.380724	-0.582927
C104	C	1.642328	0.119276	-0.082927
C105	C	1.142348	-0.380699	-0.670177
C106	C	1.642348	0.119301	-0.170177
C107	C	1.142377	-0.174614	-0.378230
C108	C	1.642377	0.325386	0.121770
C109	C	1.142419	-0.086757	-0.378251
C110	C	1.642419	0.413243	0.121749
C111	C	1.192929	-0.330144	-0.711185
C112	C	1.692929	0.169856	-0.211185
C113	C	1.192938	-0.330118	-0.793165
C114	C	1.692938	0.169882	-0.293165
C115	C	1.142370	-0.380651	-0.834136
C116	C	1.642370	0.119349	-0.334136
C117	C	1.091784	-0.431208	-0.793122
C118	C	1.591784	0.068792	-0.293122
C119	C	1.091771	-0.431230	-0.711143
C120	C	1.591771	0.068770	-0.211143
C121	C	1.091816	-0.431160	-0.963993
C122	C	1.591816	0.068840	-0.463993
C123	C	1.091830	-0.431140	-1.045977
C124	C	1.591830	0.068860	-0.545977
C125	C	1.192983	-0.330048	-1.046014
C126	C	1.692983	0.169952	-0.546014
C127	C	1.192970	-0.330070	-0.964035
C128	C	1.692970	0.169930	-0.464035
C129	C	1.142385	-0.380628	-0.923027
C130	C	1.642385	0.119372	-0.423027
C131	C	1.142278	-0.380783	-0.174235
C132	C	1.642278	0.119217	0.325765
C133	C	1.142410	-0.380585	-0.086985
C134	C	1.642410	0.119415	0.413015
H135	H	0.444044	-0.289198	-0.469437
H136	H	0.944044	0.210802	0.030563
H137	H	1.050608	-0.472350	-0.826488
H138	H	1.550608	0.027650	-0.326488
H139	H	1.050600	-0.681812	-0.286995
H140	H	1.550600	-0.181812	0.213005
H141	H	1.000134	-0.805716	-0.236770
H142	H	1.500134	-0.305716	0.263230
H143	H	0.567908	-0.238694	-0.519724
H144	H	1.067908	0.261306	-0.019724
H145	H	0.841456	-0.289177	-0.469400
H146	H	1.341456	0.210823	0.030600
H147	H	1.234151	-0.288926	-0.930679
H148	H	1.734151	0.211074	-0.430679
H149	H	0.717670	-0.238693	-0.519697
H150	H	1.217670	0.261307	-0.019697
H151	H	1.050651	-0.472287	-1.079334
H152	H	1.550651	0.027713	-0.579334
H153	H	1.050575	-0.472388	-0.677756
H154	H	1.550575	0.027612	-0.177756
H155	H	0.717462	-0.522880	-0.236667
H156	H	1.217462	-0.022880	0.263333
H157	H	1.050611	-0.472318	-0.930606
H158	H	1.550611	0.027682	-0.430606
H159	H	0.443909	-0.472415	-0.286972
H160	H	0.943909	0.027585	0.213028
H161	H	0.567684	-0.522890	-0.236674
H162	H	1.067684	-0.022890	0.263326
H163	H	1.234109	-0.288996	-0.677832
H164	H	1.734109	0.211004	-0.177832
H165	H	0.841325	-0.472382	-0.286945
H166	H	1.341325	0.027618	0.213055
H167	H	1.050759	-1.079226	-0.287076
H168	H	1.550759	-0.579226	0.212924
H169	H	1.000190	-0.955492	-0.236805
H170	H	1.500190	-0.455492	0.263195
H171	H	1.233891	-0.681535	-0.469334
H172	H	1.733891	-0.181535	0.030666
H173	H	1.234128	-0.288953	-0.826550
H174	H	1.734128	0.211047	-0.326550
H175	H	1.284459	-0.805280	-0.519614
H176	H	1.784459	-0.305280	-0.019614
H177	H	1.234055	-1.078944	-0.469429
H178	H	1.734055	-0.578944	0.030571
H179	H	1.284536	-0.955039	-0.519652
H180	H	1.784536	-0.455039	-0.019652
H181	H	1.234170	-0.288881	-1.079407
H182	H	1.734170	0.211119	-0.579407
