data_functionalizedCrystal
_audit_creation_method	'MofGen! by Chris Wilmer'
_symmetry_space_group_name_H-M	'P1'
_symmetry_Int_Tables_number	1
_symmetry_cell_setting	triclinic
loop_
_symmetry_equiv_pos_as_xyz
  x,y,z
_cell_length_a	20.919287
_cell_length_b	14.560438
_cell_length_c	14.560438
_cell_angle_alpha	60.000905
_cell_angle_beta	86.845423
_cell_angle_gamma	58.212806
loop_
_atom_site_label
_atom_site_type_symbol
_atom_site_fract_x
_atom_site_fract_y
_atom_site_fract_z
Zr1	Zr	0.616751	1.005281	-0.169286
O2	O	0.514523	1.196884	-0.307846
O3	O	0.648089	0.813680	-0.126813
O4	O	0.648086	1.005284	-0.318413
O5	O	0.514529	1.005277	0.034895
O6	O	0.753443	1.005285	-0.326746
O7	O	0.514527	1.005280	-0.116246
O8	O	0.753449	0.662540	0.015992
O9	O	0.514524	1.348022	-0.307843
O10	O	0.740082	0.892488	-0.114914
O11	O	0.661457	0.892486	0.004099
O12	O	0.661453	1.118075	-0.221486
O13	O	0.582829	1.118072	-0.102473
Zr14	Zr	0.784788	1.005278	0.058476
Zr15	Zr	0.784783	1.005282	-0.182576
Zr16	Zr	0.616756	1.005277	0.071765
Zr17	Zr	0.616752	1.246329	-0.169282
Zr18	Zr	0.784787	0.764231	0.058471
O19	O	0.753450	1.196880	0.016002
O20	O	0.753444	1.196885	-0.326743
O21	O	0.514530	1.196878	0.034898
O22	O	0.887016	0.813676	0.197035
O23	O	0.887010	0.813682	-0.145709
O24	O	0.648096	0.813674	0.215932
O25	O	0.887010	1.005282	-0.145706
O26	O	0.753453	1.005276	0.207603
O27	O	0.648096	1.005275	0.215935
O28	O	0.887012	1.005280	0.005435
O29	O	0.648087	1.348023	-0.318407
O30	O	0.753452	0.662537	0.207596
O31	O	0.887015	0.662538	0.197033
O32	O	0.887012	0.662541	0.005429
O33	O	0.514527	1.348018	-0.116239
O34	O	0.648090	1.348019	-0.126803
O35	O	0.740086	0.892485	0.110675
O36	O	0.818710	0.892487	-0.008338
O37	O	0.740082	1.118074	-0.114910
O38	O	0.661457	1.118071	0.004103
C39	C	0.700769	0.703766	-0.055411
C40	C	0.700769	0.601435	-0.055413
C41	C	0.741809	0.553360	-0.117537
C42	C	0.741812	0.457201	-0.117526
C43	C	0.659729	0.457203	0.006733
C44	C	0.659731	0.553354	0.006728
C45	C	0.490587	1.005278	-0.038782
C46	C	0.419253	1.005278	-0.033140
C47	C	0.385738	1.005283	-0.113756
C48	C	0.318715	1.005276	-0.108450
C49	C	0.285204	1.005273	-0.022531
C50	C	0.318724	1.005264	0.058093
C51	C	0.385750	1.005262	0.052791
C52	C	0.082833	1.005271	-0.002349
C53	C	0.015801	1.005277	0.002946
C54	C	0.015797	1.005286	-0.163597
C55	C	0.082821	1.005292	-0.168896
C56	C	0.116338	1.005276	-0.088269
C57	C	0.216693	1.005270	-0.017107
C58	C	0.184850	1.005270	-0.093690
C59	C	0.910952	1.005281	-0.072029
C60	C	0.982286	1.005282	-0.077671
C61	C	0.700764	1.005285	-0.356924
C62	C	0.700762	1.005287	-0.459257
C63	C	0.700770	1.306794	-0.055400
C64	C	0.700770	1.409125	-0.055398
C65	C	0.659720	1.123038	-0.562963
C66	C	0.659729	1.123032	-0.659112
C67	C	0.741824	0.887512	-0.547837
C68	C	0.741819	0.887520	-0.451690
C69	C	0.700775	1.005275	0.246114
C70	C	0.700777	1.005273	0.348446
C71	C	0.910952	0.703767	-0.072035
C72	C	0.982286	0.601437	-0.077678
C73	C	0.700774	0.703761	0.246108
C74	C	0.700776	0.601428	0.348439
C75	C	0.910957	0.703762	0.229485
C76	C	0.982293	0.601430	0.326174
C77	C	0.490582	1.306797	-0.340295
C78	C	0.419246	1.409129	-0.436984
C79	C	0.490587	1.306792	-0.038776
C80	C	0.419253	1.409123	-0.033133
C81	C	0.700765	1.306799	-0.356919
C82	C	0.700763	1.409131	-0.459250
C83	C	0.974741	0.553382	-0.135970
C84	C	1.041761	0.457245	-0.141295
C85	C	1.116324	0.409158	-0.088321
C86	C	1.123866	0.457222	-0.030027
C87	C	1.056848	0.553364	-0.024709
C88	C	1.056841	0.553375	0.309456
C89	C	1.123875	0.457236	0.400295
C90	C	1.116359	0.409148	0.507852
C91	C	1.041803	0.457213	0.524569
C92	C	0.974771	0.553356	0.433730
C93	C	0.344698	1.457196	-0.420266
C94	C	0.277664	1.553365	-0.511106
C95	C	0.285180	1.601458	-0.618663
C96	C	0.359736	1.553387	-0.635380
C97	C	0.426769	1.457227	-0.544541
C98	C	0.426798	1.457187	0.025149
C99	C	0.359778	1.553351	0.030448
C100	C	0.285215	1.601442	-0.022530
C101	C	0.277673	1.553373	-0.080819
C102	C	0.344691	1.457217	-0.086124
C103	C	0.741820	0.553349	0.452146
C104	C	0.741812	0.457206	0.548293
C105	C	0.659717	0.457225	0.437014
C106	C	0.659720	0.553373	0.340869
H107	H	0.775225	0.592503	-0.168134
C108	C	0.786968	0.404317	0.662371
N109	N	0.820982	0.364481	0.748296
C110	C	0.786976	0.606216	0.460478
N111	N	0.820986	0.646036	0.466759
C112	C	0.614583	0.404316	0.075075
N113	N	0.580574	0.364487	0.126548
C114	C	0.614594	0.606222	0.075089
N115	N	0.580604	0.646034	0.126584
H116	H	0.365935	1.592473	0.077917
C117	C	0.211500	1.707210	-0.016679
N118	N	0.155980	1.786871	-0.012264
C119	C	1.190105	0.303377	0.607767
N120	N	1.245653	0.223706	0.683019
C121	C	0.786970	0.757977	-0.337603
N122	N	0.820978	0.660409	-0.251675
H123	H	0.338538	1.418086	-0.133580
C124	C	1.033446	0.404381	-0.205412
N125	N	1.027181	0.364563	-0.253702
C126	C	1.205879	0.404371	0.381883
N127	N	1.267643	0.364553	0.368011
C128	C	0.422616	1.005257	0.141475
N129	N	0.450383	1.005250	0.208276
C130	C	0.195660	1.606222	-0.492694
N131	N	0.133896	1.646032	-0.478822
C132	C	0.336411	1.404320	-0.301961
N133	N	0.330163	1.364506	-0.212855
C134	C	0.195646	1.606269	-0.139072
N135	N	0.133861	1.646102	-0.182936
C136	C	1.190039	0.303390	-0.094172
N137	N	1.245559	0.223720	-0.098579
C138	C	0.221719	1.005259	-0.188192
N139	N	0.249494	1.005253	-0.259372
C140	C	0.422594	1.005285	-0.208275
N141	N	0.450355	1.005280	-0.279466
C142	C	0.614563	0.404347	0.428698
N143	N	0.580555	0.364517	0.422433
C144	C	1.205893	0.404303	0.028249
N145	N	1.267678	0.364433	0.072150
H146	H	1.063001	0.592478	0.022765
C147	C	1.065128	0.606261	0.191150
N148	N	1.071376	0.646096	0.102044
H149	H	0.626294	0.592522	0.256420
C150	C	0.211434	1.707227	-0.718578
N151	N	0.155886	1.786887	-0.793830
H152	H	1.035695	0.418045	0.612154
H153	H	0.110116	1.005262	0.063299
H154	H	0.775231	0.418059	-0.168111
C155	C	-0.021072	1.005287	-0.252274
N156	N	-0.048840	1.005281	-0.319065
C157	C	0.119681	1.005284	-0.263409
N158	N	0.147444	1.005280	-0.334599
C159	C	0.367991	1.606293	-0.753702
N160	N	0.374206	1.646135	-0.842826
C161	C	-0.021057	1.005267	0.097471
N162	N	-0.048819	1.005261	0.168663
H163	H	0.914072	0.592470	0.447358
H164	H	0.487467	1.418092	-0.558166
H165	H	0.291428	1.005278	-0.174093
C166	C	0.281879	1.005206	0.152632
N167	N	0.254133	1.005148	0.223847
H168	H	0.189402	1.005271	0.052849
H169	H	0.626309	1.218917	-0.743551
H170	H	0.775250	0.791631	-0.541690
H171	H	0.626289	1.218932	-0.569130
H172	H	0.914035	0.592534	-0.179123
H173	H	0.487504	1.418039	0.068299
