data_functionalizedCrystal
_audit_creation_method	'MofGen! by Chris Wilmer'
_symmetry_space_group_name_H-M	'P1'
_symmetry_Int_Tables_number	1
_symmetry_cell_setting	triclinic
loop_
_symmetry_equiv_pos_as_xyz
  x,y,z
_cell_length_a	6.817900
_cell_length_b	9.582889
_cell_length_c	12.908943
_cell_angle_alpha	93.753880
_cell_angle_beta	100.860631
_cell_angle_gamma	111.207298
loop_
_atom_site_label
_atom_site_type_symbol
_atom_site_fract_x
_atom_site_fract_y
_atom_site_fract_z
V1	V	-4.035816	-0.205189	-0.328491
O2	O	-3.982036	0.011782	-0.322436
O3	O	-4.026820	-0.408704	-0.326053
O4	O	-3.973321	-0.201189	-0.471844
O5	O	-4.035905	-0.197169	-0.175636
V6	V	-4.516164	-0.179336	-0.310231
O7	O	-4.304038	-0.261899	-0.368544
O8	O	-4.698140	-0.122626	-0.270178
O9	O	-4.301954	0.024179	-0.312669
O10	O	-4.687341	-0.396307	-0.316286
O11	O	-4.633472	-0.187356	-0.463086
O12	O	-4.355453	-0.183336	-0.166878
C13	C	-3.881862	-0.458343	-0.320822
C14	C	-3.955700	-0.624713	-0.319784
C15	C	-3.813618	-0.193635	-0.506791
C16	C	-3.844066	-0.191712	-0.623982
C17	C	-4.267406	-0.202948	-0.854918
C18	C	-4.296024	-0.201142	-0.965029
C19	C	-3.929917	-0.186281	-0.954317
C20	C	-3.901299	-0.188088	-0.844206
C21	C	-4.070053	-0.196424	-0.794510
C22	C	-4.041437	-0.198241	-0.684398
C23	C	-3.675328	-0.183370	-0.673687
C24	C	-3.703946	-0.181563	-0.783798
C25	C	-4.110255	0.073810	-0.317897
C26	C	-4.015656	0.240179	-0.318942
C27	C	-4.178499	-0.190895	-0.131925
C28	C	-4.127289	-0.192811	-0.014733
H29	H	-4.178850	-0.205035	-0.643939
H30	H	-4.404820	-0.209752	-0.814457
H31	H	-4.456726	-0.206455	-1.014210
H32	H	-3.792531	-0.179484	-0.994798
O33	O	-3.483816	-0.177335	-0.614959
C34	C	-3.301189	-0.301211	-0.498810
C35	C	-3.518202	-0.308148	-0.565224
H36	H	-3.328909	-0.406974	-0.458599
H37	H	-3.228357	-0.196645	-0.435426
H38	H	-3.185605	-0.294917	-0.553307
H39	H	-3.633947	-0.314498	-0.510812
H40	H	-3.590859	-0.412697	-0.628618
H41	H	-3.566556	-0.174771	-0.824275
