data_functionalizedCrystal
_audit_creation_method	'MofGen! by Chris Wilmer'
_symmetry_space_group_name_H-M	'P1'
_symmetry_Int_Tables_number	1
_symmetry_cell_setting	triclinic
loop_
_symmetry_equiv_pos_as_xyz
  x,y,z
_cell_length_a	18.627243
_cell_length_b	18.627245
_cell_length_c	18.627297
_cell_angle_alpha	90.002039
_cell_angle_beta	59.997824
_cell_angle_gamma	119.999685
loop_
_atom_site_label
_atom_site_type_symbol
_atom_site_fract_x
_atom_site_fract_y
_atom_site_fract_z
O1	O	0.633240	-0.492484	-0.021356
O2	O	0.486232	-0.388088	0.021256
O3	O	0.633235	-0.388087	-0.125751
O4	O	0.486237	-0.492485	0.125650
O5	O	0.513833	-0.507489	-0.125750
O6	O	0.366830	-0.507489	0.021256
O7	O	0.513838	-0.611886	-0.021356
Zn8	Zn	0.421376	-0.578645	-0.000050
Zn9	Zn	0.578694	-0.421328	-0.000051
O10	O	0.366835	-0.611886	0.125650
C11	C	0.356044	-0.256979	0.030935
C12	C	0.406443	-0.162282	0.024836
C13	C	0.269040	-0.300580	0.031539
C14	C	0.356039	-0.386983	0.030943
C15	C	0.406432	-0.431286	0.024852
C16	C	0.269035	-0.430386	0.031548
C17	C	0.226044	-0.386979	0.030935
C18	C	0.137446	-0.431279	0.024835
C19	C	0.398838	-0.300583	0.031548
O20	O	-0.104350	-0.611881	-0.021369
O21	O	0.104442	-0.507482	0.021239
O22	O	0.104453	-0.507489	-0.125766
O23	O	-0.104360	-0.611875	0.125635
O24	O	0.104457	-0.388084	-0.125773
O25	O	0.104446	-0.388078	0.021231
O26	O	-0.104345	-0.492477	-0.021377
Zn27	Zn	0.000051	-0.421319	-0.000074
Zn28	Zn	0.000046	-0.578640	-0.000064
O29	O	-0.104356	-0.492470	0.125628
C30	C	0.644032	-0.386986	-0.387050
C31	C	0.593636	-0.431285	-0.431350
C32	C	0.731038	-0.300587	-0.430453
C33	C	0.644032	-0.386986	-0.257049
C34	C	0.593635	-0.431287	-0.162352
C35	C	0.731037	-0.300588	-0.300650
C36	C	0.774032	-0.256986	-0.387049
C37	C	0.862632	-0.162290	-0.431348
C38	C	0.601235	-0.430390	-0.300651
C39	C	0.774046	-0.612982	-0.031065
C40	C	0.862649	-0.568681	-0.024971
C41	C	0.731054	-0.699380	-0.031674
C42	C	0.644041	-0.612985	-0.031058
C43	C	0.593641	-0.568686	-0.024957
C44	C	0.601246	-0.699383	-0.031667
C45	C	0.644046	-0.742983	-0.031064
C46	C	0.593651	-0.837679	-0.024969
C47	C	0.731049	-0.569580	-0.031668
O48	O	0.513853	0.125721	-0.021375
O49	O	0.366846	-0.125678	0.021232
O50	O	0.513856	0.021315	-0.125772
O51	O	0.366843	-0.021272	0.125629
O52	O	0.633253	0.021311	-0.125765
O53	O	0.486243	-0.125682	0.021240
O54	O	0.633250	0.125717	-0.021368
Zn55	Zn	0.578703	0.000017	-0.000063
Zn56	Zn	0.421393	0.000022	-0.000073
O57	O	0.486240	-0.021275	0.125637
O58	O	1.104430	0.125707	-0.492538
O59	O	0.895633	-0.125690	-0.388147
O60	O	0.895628	0.021307	-0.388137
O61	O	1.104435	-0.021290	-0.492548
O62	O	0.895631	0.021311	-0.507540
O63	O	0.895636	-0.125686	-0.507550
O64	O	1.104433	0.125711	-0.611941
Zn65	Zn	1.000035	0.000013	-0.578704
Zn66	Zn	1.000031	0.000008	-0.421384
O67	O	1.104438	-0.021286	-0.611951
O68	O	0.486231	-0.492490	-0.611948
O69	O	0.633235	-0.388087	-0.507553
O70	O	0.486230	-0.388090	-0.507544
O71	O	0.633237	-0.492487	-0.611956
O72	O	0.366830	-0.507490	-0.388142
O73	O	0.513836	-0.507487	-0.388151
O74	O	0.366832	-0.611890	-0.492545
Zn75	Zn	0.421376	-0.578646	-0.421390
Zn76	Zn	0.578691	-0.421331	-0.578708
O77	O	0.513837	-0.611887	-0.492554
C78	C	0.226037	-0.742989	0.386948
C79	C	0.137437	-0.837686	0.431246
C80	C	0.269030	-0.699389	0.430353
C81	C	0.356038	-0.612988	0.256949
C82	C	0.406435	-0.568687	0.162252
C83	C	0.398834	-0.569585	0.300552
C84	C	0.356036	-0.612990	0.386950
C85	C	0.406432	-0.568691	0.431252
C86	C	0.269032	-0.699387	0.300549
C87	C	0.356073	-0.256995	-0.387073
C88	C	0.406473	-0.162299	-0.431376
C89	C	0.398871	-0.300599	-0.430474
C90	C	0.226065	-0.386990	-0.257069
C91	C	0.137460	-0.431286	-0.162372
C92	C	0.269060	-0.430398	-0.300668
C93	C	0.356070	-0.386997	-0.387067
C94	C	0.406468	-0.431300	-0.431364
C95	C	0.269063	-0.300593	-0.300674
C96	C	-0.355975	-0.612964	0.386929
C97	C	-0.406373	-0.568662	0.431227
C98	C	-0.398774	-0.699362	0.430336
C99	C	-0.225968	-0.612970	0.256931
C100	C	-0.137363	-0.568673	0.162234
C101	C	-0.268966	-0.699367	0.300535
C102	C	-0.355976	-0.742966	0.386934
C103	C	-0.406376	-0.837662	0.431237
C104	C	-0.268964	-0.569563	0.300530
C105	C	0.774043	0.030962	-0.387056
C106	C	0.862639	0.024856	-0.431349
C107	C	0.731051	0.031564	-0.430463
C108	C	0.644049	0.030986	-0.257064
C109	C	0.593654	0.024905	-0.162369
C110	C	0.601253	0.031588	-0.300669
C111	C	0.644048	0.030966	-0.387064
C112	C	0.593653	0.024863	-0.431366
C113	C	0.731051	0.031584	-0.300660
O114	O	0.633303	0.125701	-0.611972
O115	O	0.486281	-0.125700	-0.507577
O116	O	0.633272	0.021288	-0.507558
O117	O	0.486311	-0.021287	-0.611991
O118	O	0.513861	0.021292	-0.388162
O119	O	0.366869	-0.125696	-0.388181
O120	O	0.513891	0.125706	-0.492576
Zn121	Zn	0.421421	0.000006	-0.421421
Zn122	Zn	0.578751	0.000000	-0.578731
O123	O	0.366900	-0.021282	-0.492594
C124	C	0.356047	-0.030927	0.386929
C125	C	0.406443	-0.024826	0.431231
C126	C	0.269046	-0.031525	0.430327
C127	C	0.356047	-0.030947	0.256928
C128	C	0.406442	-0.024866	0.162234
C129	C	0.269045	-0.031545	0.300525
C130	C	0.226053	-0.030923	0.386920
C131	C	0.137458	-0.024816	0.431213
C132	C	0.398842	-0.031549	0.300533
H133	H	0.233059	-0.265571	0.032519
C134	C	0.779644	-0.253297	-0.253358
C135	C	0.789595	-0.168076	-0.239741
C136	C	0.838198	-0.120786	-0.192450
C137	C	0.876851	-0.158717	-0.158777
C138	C	0.866902	-0.243942	-0.172394
C139	C	0.818298	-0.291232	-0.219685
H140	H	0.760981	-0.139993	-0.264668
H141	H	0.845564	-0.057696	-0.182370
H142	H	0.912830	-0.123710	-0.123770
H143	H	0.895516	-0.272025	-0.147467
H144	H	0.810933	-0.354322	-0.229765
C145	C	0.493414	-0.253306	0.032874
C146	C	0.592272	-0.168100	-0.042401
C147	C	0.686843	-0.120830	-0.041074
C148	C	0.682556	-0.158764	0.035528
C149	C	0.583694	-0.243974	0.110808
C150	C	0.489123	-0.291245	0.109482
H151	H	0.595449	-0.140015	-0.099112
H152	H	0.760027	-0.057751	-0.096803
H153	H	0.752564	-0.123772	0.036510
H154	H	0.580517	-0.272060	0.167519
H155	H	0.415939	-0.354323	0.165210
C156	C	0.220425	-0.526274	0.032832
C157	C	0.110161	-0.598611	0.109399
C158	C	0.061554	-0.694489	0.110664
C159	C	0.123212	-0.718031	0.035362
C160	C	0.233483	-0.645693	-0.041210
C161	C	0.282089	-0.549815	-0.042476
H162	H	0.064512	-0.581185	0.165147
H163	H	-0.020076	-0.748038	0.167349
H164	H	0.087230	-0.789006	0.036299
H165	H	0.279132	-0.663119	-0.096958
H166	H	0.363720	-0.496266	-0.099160
H167	H	0.767042	-0.734382	-0.032654
C168	C	0.220437	-0.032870	0.253232
C169	C	0.210490	0.042400	0.239604
C170	C	0.161884	0.041075	0.192313
C171	C	0.123225	-0.035518	0.158651
C172	C	0.133172	-0.110793	0.172278
C173	C	0.181778	-0.109468	0.219569
H174	H	0.239108	0.099104	0.264524
H175	H	0.154521	0.096799	0.182226
H176	H	0.087245	-0.036498	0.123643
H177	H	0.104553	-0.167497	0.147358
H178	H	0.189140	-0.165192	0.229656
C179	C	-0.493365	-0.746650	0.526234
C180	C	-0.592199	-0.831870	0.549795
C181	C	-0.686788	-0.879157	0.645688
C182	C	-0.682543	-0.841225	0.718018
C183	C	-0.583705	-0.756001	0.694459
C184	C	-0.489116	-0.708713	0.598567
H185	H	-0.595344	-0.859954	0.496250
H186	H	-0.759954	-0.942246	0.663128
H187	H	-0.752564	-0.876230	0.789004
H188	H	-0.580560	-0.727917	0.748004
H189	H	-0.415950	-0.645625	0.581127
C190	C	0.220422	-0.032817	0.526221
C191	C	0.210478	0.042466	0.549747
C192	C	0.161850	0.041180	0.645634
C193	C	0.123165	-0.035389	0.717995
C194	C	0.133108	-0.110679	0.694471
C195	C	0.181737	-0.109392	0.598584
H196	H	0.239116	0.099152	0.496179
H197	H	0.154489	0.096914	0.663047
H198	H	0.087167	-0.036341	0.788976
H199	H	0.104471	-0.167365	0.748039
H200	H	0.189097	-0.165127	0.581170
H201	H	0.233044	-0.734394	0.265547
C202	C	0.493417	-0.032880	0.253240
C203	C	0.489155	-0.109464	0.291176
C204	C	0.583726	-0.110793	0.243880
C205	C	0.682561	-0.035539	0.158646
C206	C	0.686828	0.041051	0.120705
C207	C	0.592256	0.042380	0.168002
H208	H	0.415988	-0.165177	0.354275
H209	H	0.580567	-0.167490	0.271967
H210	H	0.752569	-0.036523	0.123635
H211	H	0.759995	0.096764	0.057606
H212	H	0.595415	0.099077	0.139914
H213	H	0.767019	-0.265586	-0.501443
H214	H	0.767034	0.032562	-0.265654
H215	H	0.531206	-0.501370	-0.265641
H216	H	0.531229	-0.734388	-0.032637
H217	H	0.767030	-0.498593	-0.032637
H218	H	0.468846	-0.498597	0.265543
H219	H	0.233032	-0.734393	0.501347
H220	H	0.233062	-0.501390	-0.265660
H221	H	0.468895	-0.265589	-0.501459
C222	C	-0.220350	-0.746658	0.253250
C223	C	-0.181683	-0.780308	0.291184
C224	C	-0.133068	-0.827595	0.243902
C225	C	-0.123119	-0.841233	0.158686
C226	C	-0.161787	-0.807582	0.120748
C227	C	-0.210402	-0.760294	0.168030
H228	H	-0.189047	-0.770213	0.354270
H229	H	-0.104444	-0.852506	0.271987
H230	H	-0.087131	-0.876238	0.123685
H231	H	-0.154423	-0.817677	0.057662
H232	H	-0.239026	-0.735384	0.139945
C233	C	0.220454	-0.253310	-0.253350
C234	C	0.282109	-0.168116	-0.239702
C235	C	0.233503	-0.120841	-0.192363
C236	C	0.123243	-0.158758	-0.158672
C237	C	0.061582	-0.243957	-0.172320
C238	C	0.110187	-0.291233	-0.219659
H239	H	0.363736	-0.140043	-0.264643
H240	H	0.279150	-0.057771	-0.182260
H241	H	0.087262	-0.123762	-0.123629
H242	H	-0.020046	-0.272030	-0.147379
H243	H	0.064541	-0.354302	-0.229762
H244	H	-0.233028	-0.498597	0.265502
H245	H	0.531240	0.032565	-0.265661
H246	H	0.767042	0.032539	-0.501453
