data_functionalizedCrystal
_audit_creation_method	'MofGen! by Chris Wilmer'
_symmetry_space_group_name_H-M	'P1'
_symmetry_Int_Tables_number	1
_symmetry_cell_setting	triclinic
loop_
_symmetry_equiv_pos_as_xyz
  x,y,z
_cell_length_a	19.188930
_cell_length_b	23.532407
_cell_length_c	18.266242
_cell_angle_alpha	89.988983
_cell_angle_beta	89.977082
_cell_angle_gamma	82.996728
loop_
_atom_site_label
_atom_site_type_symbol
_atom_site_fract_x
_atom_site_fract_y
_atom_site_fract_z
O1	O	0.925922	0.071102	-0.061124
O2	O	1.425922	0.571102	0.438876
O3	O	0.722581	0.080673	-0.061074
O4	O	1.222581	0.580673	0.438926
O5	O	0.830383	-0.007031	-0.061087
O6	O	1.330383	0.492969	0.438913
O7	O	0.818120	0.158806	-0.061111
O8	O	1.318120	0.658806	0.438889
O9	O	0.830365	-0.007035	0.060675
O10	O	1.330365	0.492965	0.560675
O11	O	0.722562	0.080669	0.060688
O12	O	1.222562	0.580669	0.560688
O13	O	0.925904	0.071097	0.060638
O14	O	1.425904	0.571097	0.560638
Zn15	Zn	0.824230	0.075882	0.079995
Zn16	Zn	1.324230	0.575882	0.579995
Zn17	Zn	0.824254	0.075888	-0.080431
Zn18	Zn	1.324254	0.575888	0.419569
O19	O	0.818102	0.158802	0.060651
O20	O	1.318102	0.658802	0.560651
C21	C	0.696561	0.080361	-0.000187
C22	C	1.196561	0.580361	0.499813
C23	C	0.619060	0.079431	-0.000168
C24	C	1.119060	0.579431	0.499832
C25	C	0.573972	0.130893	-0.000187
C26	C	1.073972	0.630893	0.499813
C27	C	0.501151	0.130019	-0.000194
C28	C	1.001151	0.630019	0.499806
C29	C	0.473421	0.077680	-0.000198
C30	C	0.973421	0.577680	0.499802
C31	C	0.518519	0.026211	-0.000175
C32	C	1.018519	0.526211	0.499825
C33	C	0.591339	0.027086	-0.000160
C34	C	1.091339	0.527086	0.499840
N35	N	0.365575	0.037674	-0.041663
N36	N	0.865575	0.537674	0.458337
N37	N	0.296399	0.036846	-0.041679
N38	N	0.796399	0.536846	0.458321
C39	C	0.254021	0.075038	-0.000243
C40	C	0.754021	0.575038	0.499757
N41	N	0.283431	0.114099	0.041201
N42	N	0.783431	0.614099	0.541201
N43	N	0.352613	0.114929	0.041214
N44	N	0.852613	0.614929	0.541214
C45	C	0.394462	0.076724	-0.000214
C46	C	0.894462	0.576724	0.499786
C47	C	0.129971	0.125556	-0.000269
C48	C	0.629971	0.625556	0.499731
C49	C	0.057149	0.124680	-0.000272
C50	C	0.557149	0.624680	0.499728
C51	C	0.074520	0.020870	-0.000260
C52	C	0.574520	0.520870	0.499740
C53	C	0.147340	0.021748	-0.000250
C54	C	0.647340	0.521748	0.499750
C55	C	0.175061	0.074092	-0.000257
C56	C	0.675061	0.574092	0.499743
C57	C	0.830062	-0.028250	-0.000204
C58	C	1.330062	0.471750	0.499796
C59	C	0.829123	-0.091469	-0.000198
C60	C	1.329123	0.408531	0.499802
C61	C	0.887029	-0.490449	-0.000252
C62	C	1.387029	0.009551	0.499748
C63	C	0.886157	-0.549851	-0.000258
C64	C	1.386157	-0.049851	0.499742
O65	O	0.939837	-0.586482	-0.000298
O66	O	1.439837	-0.086482	0.499702
N67	N	0.822068	-0.572613	-0.000242
N68	N	1.322068	-0.072613	0.499758
C69	C	0.758848	-0.535970	-0.000228
C70	C	1.258848	-0.035970	0.499772
O71	O	0.704255	-0.560786	-0.000215
O72	O	1.204255	-0.060786	0.499785
C73	C	0.759721	-0.476569	-0.000228
C74	C	1.259721	0.023431	0.499772
C75	C	0.823814	-0.453810	-0.000236
C76	C	1.323814	0.046190	0.499764
C77	C	0.951117	-0.467690	-0.000262
C78	C	1.451117	0.032310	0.499738
C79	C	0.951989	-0.408292	-0.000255
C80	C	1.451989	0.091708	0.499745
C81	C	0.888773	-0.371653	-0.000239
C82	C	1.388773	0.128347	0.499761
C83	C	0.824685	-0.394412	-0.000230
C84	C	1.324685	0.105588	0.499770
C85	C	0.696501	-0.439927	-0.000219
C86	C	1.196501	0.060073	0.499781
C87	C	0.697379	-0.380523	-0.000219
C88	C	1.197379	0.119477	0.499781
C89	C	0.761472	-0.357764	-0.000228
C90	C	1.261472	0.142236	0.499772
C91	C	0.762342	-0.298376	-0.000207
C92	C	1.262342	0.201624	0.499793
N93	N	0.826430	-0.275614	-0.000223
N94	N	1.326430	0.224386	0.499777
C95	C	0.889646	-0.312252	-0.000239
C96	C	1.389646	0.187748	0.499761
C97	C	0.757019	-0.660717	-0.000229
C98	C	1.257019	-0.160717	0.499771
C99	C	0.756146	-0.720116	-0.000224
C100	C	1.256146	-0.220116	0.499776
C101	C	0.883455	-0.733993	-0.000256
C102	C	1.383455	-0.233993	0.499744
C103	C	0.884328	-0.674592	-0.000255
C104	C	1.384328	-0.174592	0.499745
C105	C	0.821108	-0.637954	-0.000245
C106	C	1.321108	-0.137954	0.499755
C107	C	0.891472	-0.187512	-0.000224
C108	C	1.391472	0.312488	0.499776
C109	C	0.892339	-0.128108	-0.000214
C110	C	1.392339	0.371892	0.499786
C111	C	0.765029	-0.114236	-0.000187
C112	C	1.265029	0.385764	0.499813
C113	C	0.764163	-0.173634	-0.000193
C114	C	1.264163	0.326366	0.499807
C115	C	0.827390	-0.210272	-0.000214
C116	C	1.327390	0.289728	0.499786
O117	O	0.708690	-0.261710	-0.000170
O118	O	1.208690	0.238290	0.499830
O119	O	0.944230	-0.287428	-0.000261
O120	O	1.444230	0.212572	0.499739
C121	C	0.951923	0.071410	-0.000251
C122	C	1.451923	0.571410	0.499749
C123	C	1.029425	0.072340	-0.000275
C124	C	1.529425	0.572340	0.499725
C125	C	0.818423	0.180021	-0.000234
C126	C	1.318423	0.680021	0.499766
C127	C	0.819362	0.243240	-0.000244
C128	C	1.319362	0.743240	0.499756
N129	N	0.824219	0.075878	0.189482
N130	N	1.324219	0.575878	0.689482
N131	N	0.824271	0.075888	-0.189918
N132	N	1.324271	0.575888	0.310082
C133	C	0.871970	0.037062	0.227785
C134	C	1.371970	0.537062	0.727785
C135	C	0.871974	0.037059	0.304430
C136	C	1.371974	0.537059	0.804430
C137	C	0.824235	0.075883	0.342769
C138	C	1.324235	0.575883	0.842769
C139	C	0.776475	0.114702	0.304457
C140	C	1.276475	0.614702	0.804457
C141	C	0.776468	0.114700	0.227813
C142	C	1.276468	0.614700	0.727813
N143	N	0.814998	0.126298	0.463096
N144	N	1.314998	0.626298	0.963096
N145	N	0.815010	0.126298	0.535904
N146	N	1.315010	0.626298	1.035904
C147	C	0.824254	0.075891	0.573691
C148	C	1.324254	0.575891	1.073691
N149	N	0.833500	0.025481	0.535921
N150	N	1.333500	0.525481	1.035921
N151	N	0.833492	0.025482	0.463106
N152	N	1.333492	0.525482	0.963106
C153	C	0.824238	0.075889	0.425876
C154	C	1.324238	0.575889	0.925876
C155	C	0.872012	0.037068	0.695102
C156	C	1.372012	0.537068	1.195102
C157	C	0.872012	0.037065	0.771748
C158	C	1.372012	0.537065	1.271748
C159	C	0.776516	0.114713	0.771773
C160	C	1.276516	0.614713	1.271773
C161	C	0.776513	0.114711	0.695128
C162	C	1.276513	0.614711	1.195128
C163	C	0.824265	0.075890	0.656797
C164	C	1.324265	0.575890	1.156797
H165	H	0.020438	0.166588	-0.000284
H166	H	0.520438	0.666588	0.499716
C167	C	0.689338	-0.232374	-0.062775
C168	C	1.189338	0.267626	0.437225
C169	C	0.693715	-0.198659	-0.000177
C170	C	1.193715	0.301341	0.499823
H171	H	0.645848	-0.247823	-0.062766
H172	H	1.145848	0.252177	0.437234
H173	H	0.692327	-0.209477	-0.105223
H174	H	1.192327	0.290523	0.394777
H175	H	0.726867	-0.262694	-0.062781
H176	H	1.226867	0.237306	0.437219
H177	H	0.656189	-0.168336	-0.000173
H178	H	1.156189	0.331664	0.499827
H179	H	0.690719	-0.221557	0.042283
H180	H	1.190719	0.278443	0.542283
H181	H	0.737582	0.146309	0.196626
H182	H	1.237582	0.646309	0.696626
C183	C	0.628597	-0.061120	-0.062741
C184	C	1.128597	0.438880	0.437259
C185	C	0.640906	-0.029484	-0.000147
C186	C	1.140906	0.470516	0.499853
H187	H	0.659202	-0.096042	-0.062735
H188	H	1.159202	0.403958	0.437265
H189	H	0.581267	-0.069132	-0.062740
H190	H	1.081267	0.430868	0.437260
H191	H	0.636986	-0.039641	-0.105197
H192	H	1.136986	0.460359	0.394803
H193	H	0.632512	-0.050961	0.042309
H194	H	1.132512	0.449039	0.542309
H195	H	0.688247	-0.021473	-0.000141
H196	H	1.188247	0.478527	0.499859
C197	C	0.966399	-0.039688	0.702773
C198	C	1.466399	0.460312	1.202773
C199	C	0.924491	-0.005609	0.652963
C200	C	1.424491	0.494391	1.152963
H201	H	0.998794	-0.066037	0.676758
H202	H	1.498794	0.433963	1.176758
H203	H	0.991350	-0.016033	0.732646
H204	H	1.491350	0.483967	1.232646
H205	H	0.937474	-0.060112	0.732688
H206	H	1.437474	0.439888	1.232688
H207	H	0.953416	0.014818	0.623051
H208	H	1.453416	0.514818	1.123051
H209	H	0.899539	-0.029267	0.623077
H210	H	1.399539	0.470733	1.123077
H211	H	0.737643	0.146322	0.802988
H212	H	1.237643	0.646322	1.302988
C213	C	0.105490	0.228078	-0.000274
C214	C	0.605490	0.728078	0.499726
C215	C	0.160449	0.183091	-0.000266
C216	C	0.660449	0.683091	0.499734
H217	H	0.124306	0.263597	-0.000267
H218	H	0.624306	0.763597	0.499733
H219	H	0.077473	0.225582	-0.042737
H220	H	0.577473	0.725582	0.457263
H221	H	0.077427	0.225570	0.042186
H222	H	0.577427	0.725570	0.542186
H223	H	0.188509	0.185597	-0.042729
H224	H	0.688509	0.685597	0.457271
H225	H	0.188478	0.185589	0.042201
H226	H	0.688478	0.685589	0.542201
C227	C	0.682078	0.191446	0.296785
C228	C	1.182078	0.691446	0.796785
C229	C	0.723996	0.157376	0.346595
C230	C	1.223996	0.657376	0.846595
H231	H	0.649674	0.217788	0.322800
H232	H	1.149674	0.717788	0.822800
H233	H	0.710990	0.211875	0.266871
H234	H	1.210990	0.711875	0.766871
H235	H	0.657132	0.167781	0.266910
H236	H	1.157132	0.667781	0.766910
H237	H	0.748946	0.181042	0.376466
H238	H	1.248946	0.681042	0.876466
H239	H	0.695080	0.136946	0.376521
H240	H	1.195080	0.636946	0.876521
C241	C	0.638614	-0.524810	-0.000225
C242	C	1.138614	-0.024810	0.499775
C243	C	0.626047	-0.464933	-0.000218
C244	C	1.126047	0.035067	0.499782
H245	H	0.595115	-0.540245	-0.000223
H246	H	1.095115	-0.040245	0.499777
H247	H	0.664632	-0.537387	-0.042686
H248	H	1.164632	-0.037387	0.457314
H249	H	0.664608	-0.537403	0.042237
H250	H	1.164608	-0.037403	0.542237
H251	H	0.600057	-0.452339	-0.042683
H252	H	1.100057	0.047661	0.457317
H253	H	0.600018	-0.452350	0.042246
H254	H	1.100018	0.047650	0.542246
C255	C	0.887724	-0.040479	0.857945
C256	C	1.387724	0.459521	1.357945
C257	C	0.924503	-0.005608	0.813852
C258	C	1.424503	0.494392	1.313852
H259	H	0.920132	-0.066825	0.883934
H260	H	1.420132	0.433175	1.383934
H261	H	0.859296	-0.017361	0.891743
H262	H	1.359296	0.482639	1.391743
H263	H	0.858808	-0.060906	0.828057
H264	H	1.358808	0.439094	1.328057
H265	H	0.953415	0.014823	0.843741
H266	H	1.453415	0.514823	1.343741
H267	H	0.952943	-0.028729	0.780050
H268	H	1.452943	0.471271	1.280050
H269	H	0.596537	0.173516	-0.000194
H270	H	1.096537	0.673516	0.499806
C271	C	0.692182	-0.039371	-0.062768
C272	C	1.192182	0.460629	0.437232
C273	C	0.695545	-0.073955	-0.000174
C274	C	1.195545	0.426045	0.499826
H275	H	0.649283	-0.014505	-0.062765
H276	H	1.149283	0.485495	0.437235
H277	H	0.730476	-0.017321	-0.062766
H278	H	1.230476	0.482679	0.437234
H279	H	0.694496	-0.062833	-0.105224
H280	H	1.194496	0.437167	0.394776
H281	H	0.693237	-0.050493	0.042282
H282	H	1.193237	0.449507	0.542282
H283	H	0.657240	-0.096006	-0.000170
H284	H	1.157240	0.403994	0.499830
H285	H	0.184052	-0.020158	-0.000238
H286	H	0.684052	0.479842	0.499762
H287	H	0.645897	-0.350694	-0.000212
H288	H	1.145897	0.149306	0.499788
H289	H	0.910850	0.005449	0.196579
H290	H	1.410850	0.505449	0.696579
H291	H	0.737633	0.146322	0.663940
H292	H	1.237633	0.646322	1.163940
H293	H	0.495937	-0.016404	-0.000188
H294	H	0.995937	0.483596	0.499812
C295	C	-0.029391	-0.026565	-0.000287
C296	C	0.470609	0.473435	0.499713
C297	C	0.044048	-0.036663	-0.000268
C298	C	0.544048	0.463337	0.499732
H299	H	-0.048203	-0.062086	-0.000295
H300	H	0.451797	0.437914	0.499705
H301	H	-0.044912	-0.005391	0.042168
H302	H	0.455088	0.494609	0.542168
H303	H	-0.044862	-0.005379	-0.042754
H304	H	0.455138	0.494621	0.457246
H305	H	0.059519	-0.057846	0.042202
H306	H	0.559519	0.442154	0.542202
H307	H	0.059575	-0.057846	-0.042728
H308	H	0.559575	0.442154	0.457272
H309	H	0.464433	0.171927	-0.000208
H310	H	0.964433	0.671927	0.499792
H311	H	0.942958	-0.217335	-0.000244
H312	H	1.442958	0.282665	0.499756
C313	C	0.913673	-0.061615	0.328049
C314	C	1.413673	0.438385	0.828049
C315	C	0.924462	-0.005611	0.346548
C316	C	1.424462	0.494389	0.846548
H317	H	0.946079	-0.087956	0.354048
H318	H	1.446079	0.412044	0.854048
H319	H	0.867127	-0.067702	0.340636
H320	H	1.367127	0.432298	0.840636
H321	H	0.920508	-0.067168	0.276916
H322	H	1.420508	0.432832	0.776916
H323	H	0.917622	-0.000056	0.397680
H324	H	1.417622	0.499944	0.897680
H325	H	0.971020	0.000478	0.333966
H326	H	1.471020	0.500478	0.833966
C327	C	1.077737	-0.427993	-0.000294
C328	C	1.577737	0.072007	0.499706
C329	C	1.022442	-0.383281	-0.000274
C330	C	1.522442	0.116719	0.499726
H331	H	1.121233	-0.412554	-0.000312
H332	H	1.621233	0.087446	0.499688
H333	H	1.074740	-0.450877	0.042165
H334	H	1.574740	0.049123	0.542165
H335	H	1.074741	-0.450867	-0.042757
H336	H	1.574741	0.049133	0.457243
H337	H	1.025435	-0.360410	0.042192
H338	H	1.525435	0.139590	0.542192
H339	H	1.025440	-0.360388	-0.042738
H340	H	1.525440	0.139612	0.457262
H341	H	0.944533	-0.109581	-0.000220
H342	H	1.444533	0.390419	0.499780
H343	H	1.002598	-0.497516	-0.000278
H344	H	1.502598	0.002484	0.499722
H345	H	0.936518	-0.656067	-0.000263
H346	H	1.436518	-0.156067	0.499737
C347	C	0.956332	-0.808835	-0.062885
C348	C	1.456332	-0.308835	0.437115
C349	C	0.952947	-0.774273	-0.000285
C350	C	1.452947	-0.274273	0.499715
H351	H	0.999233	-0.833699	-0.062904
H352	H	1.499233	-0.333699	0.437096
H353	H	0.918040	-0.830886	-0.062869
H354	H	1.418040	-0.330886	0.437131
H355	H	0.954030	-0.785358	-0.105337
H356	H	1.454030	-0.285358	0.394663
H357	H	0.955243	-0.797750	0.042167
H358	H	1.455243	-0.297750	0.542167
H359	H	0.991249	-0.752219	-0.000294
H360	H	1.491249	-0.252219	0.499706
H361	H	0.703955	-0.738641	-0.000205
H362	H	1.203955	-0.238641	0.499795
C363	C	0.631091	-0.652976	-0.000186
C364	C	1.131091	-0.152976	0.499814
C365	C	0.687521	-0.620446	-0.000204
C366	C	1.187521	-0.120446	0.499796
H367	H	0.588187	-0.628115	-0.000167
H368	H	1.088187	-0.128115	0.499833
H369	H	0.633405	-0.676424	-0.042647
H370	H	1.133405	-0.176424	0.457353
H371	H	0.633405	-0.676442	0.042276
H372	H	1.133405	-0.176442	0.542276
H373	H	0.685210	-0.596982	-0.042669
H374	H	1.185210	-0.096982	0.457331
H375	H	0.685205	-0.596988	0.042261
H376	H	1.185205	-0.096988	0.542261
