data_functionalizedCrystal
_audit_creation_method	'MofGen! by Chris Wilmer'
_symmetry_space_group_name_H-M	'P1'
_symmetry_Int_Tables_number	1
_symmetry_cell_setting	triclinic
loop_
_symmetry_equiv_pos_as_xyz
  x,y,z
_cell_length_a	19.121063
_cell_length_b	12.594517
_cell_length_c	12.594509
_cell_angle_alpha	89.988522
_cell_angle_beta	92.405810
_cell_angle_gamma	92.464477
loop_
_atom_site_label
_atom_site_type_symbol
_atom_site_fract_x
_atom_site_fract_y
_atom_site_fract_z
Zn1	Zn	-0.279668	1.609101	-0.619609
Zn2	Zn	-0.397131	1.601362	-0.449202
Zn3	Zn	-0.279690	1.431104	-0.441670
Zn4	Zn	-0.397074	1.423461	-0.627159
O5	O	-0.338391	1.516257	-0.534410
O6	O	-0.295265	1.757020	-0.596996
O7	O	-0.381585	1.578737	-0.299259
O8	O	-0.181403	1.461153	-0.458961
O9	O	-0.381564	1.751334	-0.471800
O10	O	-0.181387	1.591927	-0.589692
O11	O	-0.295302	1.453649	-0.293725
O12	O	-0.295247	1.281145	-0.466283
O13	O	-0.381467	1.448127	-0.775101
O14	O	-0.381488	1.275530	-0.602561
O15	O	-0.295210	1.584516	-0.769554
O16	O	-0.495408	1.571326	-0.479121
O17	O	-0.495366	1.440623	-0.609865
C18	C	-0.338364	1.239718	-0.534424
C19	C	-0.338370	1.121412	-0.534457
C20	C	-0.385368	1.049130	-0.608447
C21	C	-0.321331	0.982481	-0.630497
C22	C	-0.402460	0.977259	-0.512387
C23	C	-0.274299	1.056324	-0.556556
C24	C	-0.355471	1.051105	-0.438402
C25	C	-0.291389	0.984491	-0.460413
C26	C	-0.520871	1.504335	-0.546153
C27	C	-0.598936	1.499332	-0.551212
C28	C	-0.635610	1.565084	-0.485574
C29	C	-0.708961	1.560385	-0.490338
C30	C	-0.745637	1.489927	-0.560737
C31	C	-0.708958	1.424172	-0.626382
C32	C	-0.635608	1.428877	-0.621622
C33	C	-0.967105	1.472318	-0.578516
C34	C	-1.040459	1.467616	-0.583269
C35	C	-1.040458	1.603831	-0.447226
C36	C	-0.967107	1.608525	-0.442468
C37	C	-0.930434	1.542774	-0.508117
C38	C	-0.820613	1.485120	-0.565606
C39	C	-0.855459	1.547587	-0.503252
C40	C	-0.155199	1.528255	-0.522644
C41	C	-0.077133	1.533368	-0.517630
C42	C	-0.338330	1.516332	-0.812027
C43	C	-0.338303	1.516365	-0.930331
C44	C	-0.338418	1.793876	-0.534396
C45	C	-0.338430	1.912181	-0.534390
C46	C	-0.385192	1.442207	-1.002599
C47	C	-0.402357	1.538212	-1.074480
C48	C	-0.321096	1.420437	-1.069247
C49	C	-0.355502	1.612419	-1.000655
C50	C	-0.274211	1.494580	-0.995414
C51	C	-0.291352	1.590655	-1.067261
C52	C	-0.338402	1.516247	-0.257870
C53	C	-0.338230	1.516434	-0.139554
H54	H	-0.306889	0.952302	-0.711700
H55	H	-0.251668	1.653466	-1.095555
C56	C	-0.927383	1.684967	-0.365874
C57	C	-0.945304	1.660723	-0.261709
C58	C	-0.908734	1.731127	-0.191121
H59	H	-0.878435	1.678425	-0.372290
H60	H	-0.939379	1.755719	-0.382225
H61	H	-0.933304	1.589988	-0.245362
H62	H	-0.994246	1.667272	-0.255258
H63	H	-0.920729	1.801880	-0.207472
H64	H	-0.859787	1.724580	-0.197547
H65	H	-0.920893	1.714693	-0.120438
C66	C	-0.374936	1.720742	-0.960827
C67	C	-0.386937	1.788029	-1.047596
C68	C	-0.404833	1.887824	-1.010946
H69	H	-0.416183	1.713267	-0.921525
H70	H	-0.337677	1.750281	-0.916420
H71	H	-0.424192	1.758496	-1.091986
H72	H	-0.345698	1.795536	-1.086907
H73	H	-0.367574	1.917363	-0.966538
H74	H	-0.446079	1.880337	-0.971644
H75	H	-0.412972	1.933493	-1.069812
H76	H	-0.220108	1.090787	-0.575287
C77	C	-0.438090	1.358493	-0.964747
C78	C	-0.420620	1.258363	-1.001059
C79	C	-0.469338	1.181229	-0.966221
H80	H	-0.437493	1.358475	-0.889293
H81	H	-0.483589	1.374101	-0.991957
H82	H	-0.375133	1.242759	-0.973844
H83	H	-0.421221	1.258346	-1.076508
H84	H	-0.514837	1.196837	-0.993430
H85	H	-0.468738	1.181221	-0.890768
H86	H	-0.457495	1.113284	-0.990861
C87	C	-0.474635	1.562624	-1.120560
C88	C	-0.523554	1.484699	-1.087917
C89	C	-0.590142	1.507136	-1.130353
H90	H	-0.487251	1.630243	-1.096112
H91	H	-0.474006	1.563066	-1.195948
H92	H	-0.524185	1.484268	-1.012546
H93	H	-0.510960	1.417073	-1.112364
H94	H	-0.589513	1.507578	-1.205740
H95	H	-0.602751	1.574757	-1.105901
H96	H	-0.623340	1.454263	-1.108218
H97	H	-0.738817	1.613927	-0.436888
H98	H	-0.251624	0.956207	-0.397810
C99	C	-0.202028	1.469706	-0.949303
C100	C	-0.184320	1.369093	-0.983954
C101	C	-0.117835	1.346123	-0.941483
H102	H	-0.168503	1.521613	-0.972379
H103	H	-0.202469	1.470449	-0.873904
H104	H	-0.183873	1.368358	-1.059337
H105	H	-0.217827	1.317164	-0.960879
H106	H	-0.118277	1.346866	-0.866084
H107	H	-0.084316	1.398036	-0.964562
H108	H	-0.105815	1.277852	-0.964979
C109	C	-0.374893	1.091316	-0.330206
C110	C	-0.441511	1.049613	-0.306678
C111	C	-0.459438	1.086646	-0.207025
H112	H	-0.341561	1.069329	-0.277552
H113	H	-0.375208	1.166722	-0.331229
H114	H	-0.441191	0.974224	-0.305648
H115	H	-0.474858	1.071596	-0.359306
H116	H	-0.459753	1.162052	-0.208047
H117	H	-0.426101	1.064657	-0.154379
H118	H	-0.504642	1.058364	-0.191053
C119	C	-0.301769	1.312291	-1.109684
C120	C	-0.301387	1.314040	-1.220814
C121	C	-0.283601	1.214429	-1.258099
H122	H	-0.256579	1.296182	-1.081601
H123	H	-0.335166	1.259640	-1.087687
H124	H	-0.267991	1.366674	-1.242800
H125	H	-0.346570	1.330130	-1.248925
H126	H	-0.316998	1.161779	-1.236103
H127	H	-0.238412	1.198329	-1.230009
H128	H	-0.283346	1.215600	-1.333505
H129	H	-0.825596	1.604958	-0.445938
C130	C	-0.474715	0.931059	-0.487741
C131	C	-0.500570	0.866716	-0.572428
C132	C	-0.567132	0.824150	-0.549779
H133	H	-0.471589	0.889706	-0.424773
H134	H	-0.505461	0.987192	-0.477917
H135	H	-0.469832	0.810591	-0.582240
H136	H	-0.503712	0.908045	-0.635406
H137	H	-0.597878	0.880283	-0.539954
H138	H	-0.563999	0.782802	-0.486809
H139	H	-0.584685	0.780497	-0.607239
C140	C	-0.595921	1.641689	-0.409105
C141	C	-0.643741	1.698285	-0.352662
C142	C	-0.607208	1.768876	-0.282219
H143	H	-0.567349	1.602950	-0.360749
H144	H	-0.567278	1.689938	-0.447972
H145	H	-0.672372	1.650043	-0.313797
H146	H	-0.672315	1.737046	-0.400990
H147	H	-0.578565	1.817125	-0.321086
H148	H	-0.578637	1.730128	-0.233871
H149	H	-0.639648	1.807291	-0.243922
C150	C	-0.438355	1.087179	-0.691803
C151	C	-0.488797	1.145031	-0.642337
C152	C	-0.537620	1.180088	-0.719089
H153	H	-0.415092	1.131282	-0.741631
H154	H	-0.460532	1.027602	-0.727583
H155	H	-0.466623	1.204599	-0.606574
H156	H	-0.512078	1.100949	-0.592515
H157	H	-0.559796	1.120512	-0.754869
H158	H	-0.514350	1.224188	-0.768913
H159	H	-0.571854	1.219337	-0.685537
H160	H	-0.738825	1.366808	-0.683706
C161	C	-1.080401	1.675182	-0.376094
C162	C	-1.152487	1.656009	-0.395349
C163	C	-1.189304	1.721738	-0.329856
H164	H	-1.068512	1.660486	-0.303749
H165	H	-1.068373	1.747478	-0.390967
H166	H	-1.164510	1.583729	-0.380468
H167	H	-1.164397	1.670712	-0.467681
H168	H	-1.177276	1.794034	-0.344729
H169	H	-1.177409	1.707036	-0.257515
H170	H	-1.238218	1.708745	-0.342918
H171	H	-0.850482	1.427751	-0.622922
C172	C	-1.080407	1.391147	-0.659599
C173	C	-1.152493	1.401078	-0.649687
C174	C	-1.189314	1.330644	-0.719967
H175	H	-1.068433	1.407386	-0.730394
H176	H	-1.068469	1.320383	-0.643186
H177	H	-1.164426	1.471826	-0.666107
H178	H	-1.164488	1.384830	-0.578908
H179	H	-1.177376	1.259880	-0.703553
H180	H	-1.177334	1.346890	-0.790757
H181	H	-1.238228	1.337366	-0.713244
H182	H	-0.937252	1.418779	-0.631968
H183	H	-0.605749	1.375336	-0.675073
