data_functionalizedCrystal
_audit_creation_method	'MofGen! by Chris Wilmer'
_symmetry_space_group_name_H-M	'P1'
_symmetry_Int_Tables_number	1
_symmetry_cell_setting	triclinic
loop_
_symmetry_equiv_pos_as_xyz
  x,y,z
_cell_length_a	23.532407
_cell_length_b	14.519709
_cell_length_c	13.596369
_cell_angle_alpha	89.993066
_cell_angle_beta	90.000007
_cell_angle_gamma	83.264411
loop_
_atom_site_label
_atom_site_type_symbol
_atom_site_fract_x
_atom_site_fract_y
_atom_site_fract_z
O1	O	0.755765	0.111951	-0.081671
O2	O	0.589975	0.128149	-0.081700
O3	O	0.677266	-0.014241	-0.081676
O4	O	0.668474	0.254340	-0.081695
O5	O	0.677257	-0.014248	0.081907
O6	O	0.589966	0.128142	0.081883
O7	O	0.755756	0.111943	0.081912
Zn8	Zn	0.672860	0.120041	0.107870
Zn9	Zn	0.672871	0.120051	-0.107658
O10	O	0.668466	0.254333	0.081888
C11	C	0.676852	-0.048599	0.000116
C12	C	0.675624	-0.150966	0.000116
C13	C	0.568753	0.127733	0.000088
C14	C	0.505530	0.126493	0.000077
C15	C	0.671104	-0.525808	0.000090
C16	C	0.672359	-0.421515	0.000097
C17	C	0.673364	-0.338390	0.000104
C18	C	0.674619	-0.234091	0.000110
C19	C	0.106772	0.202977	0.000116
C20	C	0.047367	0.201825	0.000122
O21	O	0.010942	0.272727	0.000153
N22	N	0.024358	0.117175	0.000127
C23	C	0.060759	0.033671	0.000135
O24	O	0.035734	-0.038437	0.000140
C25	C	0.120164	0.034824	0.000136
C26	C	0.143168	0.119480	0.000121
C27	C	0.129777	0.287626	0.000103
C28	C	0.189179	0.288778	0.000095
C29	C	0.225575	0.205281	0.000100
C30	C	0.202570	0.120631	0.000114
C31	C	0.156563	-0.048679	0.000151
C32	C	0.215971	-0.047519	0.000153
C33	C	0.238976	0.037137	0.000139
C34	C	0.298367	0.038286	0.000111
N35	N	0.321375	0.122936	0.000107
C36	C	0.284979	0.206434	0.000101
C37	C	-0.063994	0.031256	0.000135
C38	C	-0.123397	0.030102	0.000127
C39	C	-0.136786	0.198257	0.000116
C40	C	-0.077382	0.199410	0.000117
C41	C	-0.040986	0.115906	0.000130
C42	C	0.409727	0.208846	0.000084
C43	C	0.469134	0.209990	0.000072
C44	C	0.482517	0.041836	0.000088
C45	C	0.423115	0.040691	0.000095
C46	C	0.386721	0.124204	0.000096
O47	O	0.334827	-0.032579	0.000084
O48	O	0.310012	0.278529	0.000109
C49	C	0.776979	0.112360	0.000122
C50	C	0.840201	0.113600	0.000127
C51	C	0.668880	0.288692	0.000094
C52	C	0.670107	0.391058	0.000087
N53	N	0.672856	0.120034	0.254962
N54	N	0.672880	0.120051	-0.254750
C55	C	0.672871	0.120052	0.656253
C56	C	0.672865	0.120050	0.544601
C57	C	0.672864	0.120044	0.455611
C58	C	0.672858	0.120040	0.343952
H59	H	0.487861	0.278930	0.000059
H60	H	-0.034363	-0.036747	0.000137
H61	H	0.137844	-0.117615	0.000164
C62	C	0.364085	-0.058164	0.084203
C63	C	0.397825	-0.052363	0.000103
H64	H	0.348474	-0.115610	0.084210
H65	H	0.386987	-0.054222	0.141230
H66	H	0.333906	-0.008598	0.084194
H67	H	0.428007	-0.101924	0.000115
H68	H	0.374922	-0.056313	-0.056939
H69	H	0.100149	0.355624	0.000102
H70	H	0.512162	-0.026146	0.000088
C71	C	-0.018355	0.298274	-0.083989
C72	C	-0.052100	0.292467	0.000103
H73	H	-0.002753	0.355730	-0.083998
H74	H	0.011826	0.248724	-0.083974
H75	H	-0.041255	0.294322	-0.141028
H76	H	-0.029198	0.296412	0.057142
H77	H	-0.082285	0.342030	0.000097
H78	H	0.245602	-0.115519	0.000165
H79	H	0.380101	0.276850	0.000088
C80	C	-0.233798	0.271142	0.000127
C81	C	-0.176801	0.290041	0.000118
H82	H	-0.258501	0.327803	0.000133
H83	H	-0.240778	0.236418	-0.056913
H84	H	-0.240771	0.236400	0.057177
H85	H	-0.169827	0.324777	-0.056937
H86	H	-0.169818	0.324780	0.057163
H87	H	-0.142122	-0.038834	0.000123
C88	C	0.169959	0.454870	0.000101
C89	C	0.214460	0.381836	0.000097
H90	H	0.185565	0.512322	0.000112
H91	H	0.147071	0.450926	-0.056942
H92	H	0.147068	0.450900	0.057148
H93	H	0.237349	0.385802	-0.056955
H94	H	0.237358	0.385781	0.057146
