data_functionalizedCrystal
_audit_creation_method	'MofGen! by Chris Wilmer'
_symmetry_space_group_name_H-M	'P1'
_symmetry_Int_Tables_number	1
_symmetry_cell_setting	triclinic
loop_
_symmetry_equiv_pos_as_xyz
  x,y,z
_cell_length_a	12.759401
_cell_length_b	16.959454
_cell_length_c	12.759393
_cell_angle_alpha	89.969286
_cell_angle_beta	89.981504
_cell_angle_gamma	90.020236
loop_
_atom_site_label
_atom_site_type_symbol
_atom_site_fract_x
_atom_site_fract_y
_atom_site_fract_z
Zn1	Zn	1.606216	-0.314632	-0.593988
Zn2	Zn	1.606094	-0.446833	-0.418310
Zn3	Zn	1.430518	-0.314673	-0.418327
Zn4	Zn	1.430490	-0.446772	-0.593952
O5	O	1.518330	-0.380727	-0.506144
O6	O	1.753221	-0.332177	-0.570692
O7	O	1.582764	-0.429345	-0.271291
O8	O	1.453888	-0.204057	-0.441651
O9	O	1.753131	-0.429304	-0.441622
O10	O	1.582972	-0.204026	-0.570708
O11	O	1.453769	-0.332247	-0.271304
O12	O	1.283493	-0.332188	-0.441616
O13	O	1.453840	-0.429201	-0.740978
O14	O	1.283473	-0.429241	-0.570647
O15	O	1.582945	-0.332118	-0.741004
O16	O	1.582737	-0.557436	-0.441588
O17	O	1.453722	-0.557391	-0.570631
C18	C	1.245362	-0.380713	-0.506130
C19	C	1.128586	-0.380726	-0.506149
C20	C	1.518242	-0.586094	-0.506126
C21	C	1.518300	-0.673950	-0.506154
C22	C	1.073740	-0.431342	-0.573224
C23	C	0.964016	-0.431352	-0.573235
C24	C	0.963992	-0.330127	-0.439087
C25	C	1.073714	-0.330114	-0.439082
C26	C	1.073753	-0.489786	-0.650670
C27	C	0.964029	-0.489796	-0.650681
C28	C	1.451249	-1.045433	-0.573330
C29	C	1.585703	-1.045419	-0.439066
C30	C	1.585666	-0.962873	-0.439056
C31	C	1.518419	-0.921603	-0.506183
C32	C	1.451208	-0.962879	-0.573320
C33	C	1.652869	-0.921591	-0.371913
C34	C	1.652834	-0.839040	-0.371900
C35	C	1.585591	-0.797769	-0.439033
C36	C	1.518378	-0.839050	-0.506173
C37	C	1.451130	-0.797780	-0.573300
C38	C	1.383922	-0.839059	-0.640447
C39	C	1.383965	-0.921607	-0.640453
C40	C	1.585548	-0.715220	-0.439027
C41	C	1.451089	-0.715226	-0.573291
C42	C	1.792363	-0.380743	-0.506159
C43	C	1.909140	-0.380749	-0.506165
C44	C	1.518403	-0.380648	-0.780178
C45	C	1.518435	-0.380614	-0.896954
C46	C	1.518447	-0.174559	-0.506185
C47	C	1.518496	-0.086703	-0.506203
C48	C	1.585669	-0.330058	-0.951832
C49	C	1.585694	-0.330029	-1.061556
C50	C	1.451247	-0.431119	-1.061516
C51	C	1.451218	-0.431143	-0.951793
C52	C	1.663294	-0.271696	-0.951856
C53	C	1.663319	-0.271668	-1.061580
C54	C	1.518317	-0.380750	-0.233177
C55	C	1.518489	-0.380561	-0.116401
H56	H	1.118365	-0.288892	-0.384470
H57	H	1.740563	-0.293641	-0.917820
H58	H	1.634212	-0.213504	-1.095627
H59	H	1.744687	-0.288063	-1.091359
H60	H	1.396520	-0.472257	-1.106179
H61	H	1.707610	-0.955199	-0.317254
H62	H	0.934226	-0.550999	-0.628750
H63	H	1.641533	-0.210482	-0.922099
H64	H	0.919303	-0.288920	-0.384485
H65	H	1.640263	-0.681615	-0.384352
H66	H	1.103564	-0.473461	-0.732076
H67	H	1.329164	-0.805447	-0.695097
H68	H	1.396466	-0.472308	-0.907116
H69	H	1.329246	-0.955225	-0.695119
H70	H	1.707559	-0.805436	-0.317227
H71	H	1.640447	-1.079026	-0.384408
H72	H	0.930034	-0.467945	-0.728033
H73	H	1.107760	-0.547906	-0.621387
H74	H	1.396533	-1.079046	-0.628001
H75	H	1.396332	-0.681629	-0.627958
