data_functionalizedCrystal
_audit_creation_method	'MofGen! by Chris Wilmer'
_symmetry_space_group_name_H-M	'P1'
_symmetry_Int_Tables_number	1
_symmetry_cell_setting	triclinic
loop_
_symmetry_equiv_pos_as_xyz
  x,y,z
_cell_length_a	19.077312
_cell_length_b	10.686285
_cell_length_c	19.076919
_cell_angle_alpha	88.081200
_cell_angle_beta	94.668947
_cell_angle_gamma	83.523981
loop_
_atom_site_label
_atom_site_type_symbol
_atom_site_fract_x
_atom_site_fract_y
_atom_site_fract_z
Zn1	Zn	1.088691	-0.604311	-0.328396
Zn2	Zn	1.102423	-0.807170	-0.201494
Zn3	Zn	0.974822	-0.588062	-0.215986
Zn4	Zn	0.979852	-0.807118	-0.324079
O5	O	1.036447	-0.701665	-0.267489
O6	O	1.189464	-0.638043	-0.307304
O7	O	1.089138	-0.771326	-0.105070
O8	O	0.982075	-0.413645	-0.238769
O9	O	1.199553	-0.787082	-0.214070
O10	O	1.065734	-0.425583	-0.321356
O11	O	0.995390	-0.610348	-0.115718
O12	O	0.876538	-0.610298	-0.234583
O13	O	0.990649	-0.786993	-0.422998
O14	O	0.880234	-0.771237	-0.313999
O15	O	1.070612	-0.637992	-0.426170
O16	O	1.094016	-0.983735	-0.209884
O17	O	1.003964	-0.983697	-0.299946
C18	C	0.852729	-0.689000	-0.275396
C19	C	0.774134	-0.683613	-0.278794
C20	C	1.051045	-1.029502	-0.252889
C21	C	1.057353	-1.169758	-0.246663
C22	C	0.331161	-0.644877	-0.303176
C23	C	0.405010	-0.649962	-0.299978
C24	C	0.447175	-0.729963	-0.249770
C25	C	0.415488	-0.804894	-0.202762
C26	C	0.341640	-0.799815	-0.205963
C27	C	0.668599	-0.753465	-0.234986
C28	C	0.742452	-0.758535	-0.231787
C29	C	0.731969	-0.603604	-0.329005
C30	C	0.658120	-0.598527	-0.332199
C31	C	0.626439	-0.673463	-0.285193
N32	N	0.522661	-0.735159	-0.246499
N33	N	0.550955	-0.668272	-0.288468
C34	C	1.220883	-0.714381	-0.259552
C35	C	1.299478	-0.719800	-0.256169
C36	C	1.029660	-0.714300	-0.450797
C37	C	1.026767	-0.719684	-0.528912
C38	C	1.021812	-0.372551	-0.282161
C39	C	1.015575	-0.232302	-0.288413
C40	C	1.067039	-0.644640	-0.567263
C41	C	1.064312	-0.649693	-0.640661
C42	C	1.021318	-0.729798	-0.675706
C43	C	0.981041	-0.804845	-0.637350
C44	C	0.983764	-0.799784	-0.563954
C45	C	1.008705	-0.753247	-0.895040
C46	C	1.005987	-0.758305	-0.968441
C47	C	1.089257	-0.603151	-0.971747
C48	C	1.091980	-0.598103	-0.898349
C49	C	1.051701	-0.673144	-0.859999
N50	N	1.018531	-0.734969	-0.750730
N51	N	1.054484	-0.667967	-0.784977
C52	C	1.043245	-0.688991	-0.084896
C53	C	1.046258	-0.683261	-0.006792
H54	H	0.296835	-0.579723	-0.344057
N55	N	0.934665	-0.891252	-0.675135
H56	H	0.883746	-0.867282	-0.665403
H57	H	0.939104	-0.883050	-0.727439
N58	N	1.111124	-1.240967	-0.193001
H59	H	1.160213	-1.222251	-0.202790
H60	H	1.100967	-1.213896	-0.144273
H61	H	1.102052	-0.579414	-0.538734
H62	H	0.757772	-0.542597	-0.367275
H63	H	0.974980	-1.178549	-0.328921
H64	H	0.315845	-0.860827	-0.167687
N65	N	1.107733	-0.568728	-0.682027
H66	H	1.135382	-0.517213	-0.648689
H67	H	1.141612	-0.624425	-0.708794
H68	H	0.449825	-0.870038	-0.161884
H69	H	1.126993	-0.532876	-0.869820
N70	N	0.959611	-0.844688	-1.006257
H71	H	0.975064	-0.934728	-0.989001
H72	H	0.908703	-0.820610	-0.996528
N73	N	0.612643	-0.512211	-0.386337
H74	H	0.643920	-0.465509	-0.415627
H75	H	0.583091	-0.563772	-0.417855
H76	H	1.122049	-0.542055	-1.002979
N77	N	0.965239	-0.834166	-0.853703
H78	H	0.979743	-0.925964	-0.861983
H79	H	0.973482	-0.818712	-0.801902
N80	N	0.439183	-0.569157	-0.350680
H81	H	0.401266	-0.517702	-0.382969
H82	H	0.468271	-0.510824	-0.323404
N83	N	0.787933	-0.844824	-0.177631
H84	H	0.756658	-0.891527	-0.148339
H85	H	0.820130	-0.907367	-0.202253
H86	H	0.950963	-0.860880	-0.532730
N87	N	0.634434	-0.834276	-0.184285
H88	H	0.672353	-0.885717	-0.151991
H89	H	0.602696	-0.778470	-0.155431
