data_functionalizedCrystal
_audit_creation_method	'MofGen! by Chris Wilmer'
_symmetry_space_group_name_H-M	'P1'
_symmetry_Int_Tables_number	1
_symmetry_cell_setting	triclinic
loop_
_symmetry_equiv_pos_as_xyz
  x,y,z
_cell_length_a	14.044220
_cell_length_b	15.021413
_cell_length_c	14.044220
_cell_angle_alpha	90.003392
_cell_angle_beta	86.811122
_cell_angle_gamma	90.003106
loop_
_atom_site_label
_atom_site_type_symbol
_atom_site_fract_x
_atom_site_fract_y
_atom_site_fract_z
O1	O	1.277172	0.073941	-0.230155
O2	O	1.000501	0.073963	-0.221850
O3	O	1.134684	0.073944	-0.087667
O4	O	1.142989	0.073961	-0.364338
O5	O	1.134662	-0.074121	-0.087686
O6	O	1.000479	-0.074101	-0.221869
O7	O	1.277151	-0.074123	-0.230174
Zn8	Zn	1.138811	-0.097620	-0.226024
Zn9	Zn	1.138840	0.097460	-0.225999
O10	O	1.142968	-0.074104	-0.364357
C11	C	0.964868	-0.000066	-0.218223
C12	C	0.858725	-0.000058	-0.207379
C13	C	0.664388	-0.000077	-0.187553
C14	C	0.613258	-0.000076	-0.264467
C15	C	0.505122	-0.000086	-0.253435
C16	C	0.772534	-0.000066	-0.198583
N17	N	1.138799	-0.230758	-0.226041
C18	C	1.076740	-0.470432	-0.288055
C19	C	1.164574	-0.529772	-0.313879
C20	C	1.138821	-0.412365	-0.226020
C21	C	1.051012	-0.529767	-0.200219
C22	C	1.138836	-0.587789	-0.226000
C23	C	1.226703	-0.470399	-0.251890
C24	C	1.113081	-0.470388	-0.138188
C25	C	1.200975	-0.529701	-0.163981
C26	C	1.138812	-0.311308	-0.226033
C27	C	1.138855	-0.688844	-0.225987
C28	C	1.312783	-0.000092	-0.233800
C29	C	1.418926	-0.000094	-0.244645
C30	C	1.131037	-0.000089	-0.052054
C31	C	1.120193	-0.000089	0.054088
N32	N	1.138859	0.230598	-0.225975
C33	C	1.146614	-0.000069	-0.399969
C34	C	1.157459	-0.000063	-0.506112
C35	C	1.100366	-0.000074	0.248426
C36	C	1.177281	-0.000078	0.299556
C37	C	1.166249	-0.000070	0.407692
C38	C	1.111397	-0.000082	0.140280
H39	H	0.626951	-0.000086	-0.113425
O40	O	1.014294	-0.439417	-0.350830
C41	C	0.970892	-0.434534	-0.514348
C42	C	1.041687	-0.469702	-0.443361
H43	H	0.993001	-0.459020	-0.589171
H44	H	0.970978	-0.358645	-0.513356
H45	H	0.896236	-0.459952	-0.493048
H46	H	1.116376	-0.444350	-0.464611
H47	H	1.041517	-0.545590	-0.444364
O48	O	0.962488	-0.560982	-0.174075
C49	C	0.866355	-0.647801	-0.061011
C50	C	0.966663	-0.612530	-0.090513
H51	H	0.869693	-0.689469	0.006562
H52	H	0.839270	-0.690694	-0.120773
H53	H	0.815823	-0.589288	-0.046951
H54	H	1.017266	-0.670988	-0.104560
H55	H	0.993669	-0.569611	-0.030735
O56	O	0.657763	-0.000097	-0.352980
C57	C	0.639517	-0.000012	-0.522573
C58	C	0.588989	-0.000014	-0.422395
H59	H	0.583936	0.000074	-0.578722
H60	H	0.685994	-0.061983	-0.531653
H61	H	0.686040	0.061946	-0.531504
H62	H	0.542418	-0.061930	-0.413395
H63	H	0.542570	0.061999	-0.413361
O64	O	1.190583	-0.561051	-0.402410
C65	C	1.220441	-0.690207	-0.501375
C66	C	1.191008	-0.654907	-0.401062
H67	H	1.220775	-0.766093	-0.500323
H68	H	1.294819	-0.664838	-0.523906
H69	H	1.167447	-0.665814	-0.554181
H70	H	1.243936	-0.679286	-0.348188
H71	H	1.116609	-0.680268	-0.378611
H72	H	1.091273	-0.444283	-0.063940
H73	H	1.300991	-0.444430	-0.273792
H74	H	1.253544	-0.555561	-0.111513
H75	H	1.026239	-0.000066	0.285863
H76	H	1.251414	-0.000024	0.262117
