data_functionalizedCrystal
_audit_creation_method	'MofGen! by Chris Wilmer'
_symmetry_space_group_name_H-M	'P1'
_symmetry_Int_Tables_number	1
_symmetry_cell_setting	triclinic
loop_
_symmetry_equiv_pos_as_xyz
  x,y,z
_cell_length_a	10.654562
_cell_length_b	27.732048
_cell_length_c	9.130313
_cell_angle_alpha	89.993840
_cell_angle_beta	89.996930
_cell_angle_gamma	83.566379
loop_
_atom_site_label
_atom_site_type_symbol
_atom_site_fract_x
_atom_site_fract_y
_atom_site_fract_z
O1	O	1.664970	0.067913	-0.121913
O2	O	1.299222	0.074374	-0.121897
O3	O	1.493455	0.000818	-0.121878
O4	O	1.470736	0.141469	-0.121932
O5	O	1.493453	0.000820	0.121721
O6	O	1.299219	0.074376	0.121702
O7	O	1.664967	0.067915	0.121686
Cu8	Cu	1.482093	0.071146	0.143936
Cu9	Cu	1.482096	0.071143	-0.144148
O10	O	1.470734	0.141471	0.121666
C11	C	1.252443	0.073900	-0.000095
C12	C	1.113060	0.072476	-0.000087
C13	C	1.047556	0.071813	0.132687
C14	C	0.916590	0.070480	0.132663
C15	C	0.916643	0.070474	-0.132922
C16	C	1.047608	0.071804	-0.132896
C17	C	1.113008	0.072486	0.265496
C18	C	1.047504	0.071823	0.398281
C19	C	0.916538	0.070490	0.398257
C20	C	0.851076	0.069819	0.265448
C21	C	1.492977	-0.017191	-0.000074
C22	C	1.491541	-0.070855	-0.000062
C23	C	1.597280	-0.409010	-0.000142
C24	C	1.591952	-0.610703	-0.000162
O25	O	1.688642	-0.641354	-0.000231
N26	N	1.476779	-0.630546	-0.000156
C27	C	1.362931	-0.599962	-0.000154
O28	O	1.264848	-0.621468	-0.000164
C29	C	1.368260	-0.398270	-0.000144
C30	C	1.483440	-0.378430	-0.000136
C31	C	1.712450	-0.389169	-0.000135
C32	C	1.713781	-0.338749	-0.000122
C33	C	1.599941	-0.308169	-0.000116
C34	C	1.484771	-0.328010	-0.000123
C35	C	1.254413	-0.367687	-0.000152
C36	C	1.255756	-0.317262	-0.000154
C37	C	1.370936	-0.297422	-0.000145
C38	C	1.372262	-0.247010	-0.000103
N39	N	1.487434	-0.227167	-0.000110
C40	C	1.601274	-0.257746	-0.000116
C41	C	1.360141	-0.705853	-0.000156
C42	C	1.358808	-0.756276	-0.000156
C43	C	1.587830	-0.767013	-0.000167
C44	C	1.589161	-0.716590	-0.000157
C45	C	1.475313	-0.686010	-0.000162
C46	C	1.604060	-0.151860	-0.000088
C47	C	1.605381	-0.101435	-0.000068
C48	C	1.376360	-0.090702	-0.000065
C49	C	1.375039	-0.141123	-0.000076
C50	C	1.488899	-0.171701	-0.000093
O51	O	1.275623	-0.216329	-0.000051
O52	O	1.699343	-0.236231	-0.000139
C53	C	1.595949	-0.459430	-0.000155
C54	C	1.480779	-0.479271	-0.000162
C55	C	1.366939	-0.448691	-0.000155
C56	C	1.479446	-0.529693	-0.000162
C57	C	1.593286	-0.560273	-0.000168
C58	C	1.708458	-0.540430	-0.000175
C59	C	1.709789	-0.490010	-0.000161
C60	C	1.251767	-0.468534	-0.000149
C61	C	1.250445	-0.518955	-0.000160
C62	C	1.364285	-0.549534	-0.000167
C63	C	1.711746	0.068390	-0.000120
C64	C	1.851129	0.069813	-0.000137
C65	C	1.471212	0.159480	-0.000140
C66	C	1.472648	0.213144	-0.000162
N67	N	1.482100	0.071147	0.346559
N68	N	1.482099	0.071138	-0.346770
C69	C	1.568128	0.038587	0.423219
C70	C	1.568125	0.038582	0.576556
C71	C	1.396062	0.103699	0.576559
C72	C	1.396060	0.103702	0.423225
C73	C	1.654169	0.006032	0.346554
C74	C	1.740205	-0.026530	0.423214
C75	C	1.740201	-0.026536	0.576551
C76	C	1.654162	0.006021	0.653227
H77	H	0.863209	0.069947	0.506377
C78	C	1.130511	-0.283627	-0.000155
N79	N	1.036176	-0.258295	-0.000150
H80	H	0.744435	0.068732	0.265439
C81	C	1.833682	-0.574077	-0.000184
N82	N	1.927995	-0.599423	-0.000200
C83	C	0.844628	0.069740	-0.279001
N84	N	0.790386	0.069189	-0.389031
H85	H	1.810247	-0.053052	0.638967
H86	H	1.654181	0.006035	0.221699
H87	H	1.100942	0.072346	-0.241013
C88	C	1.732093	-0.079614	-0.000064
N89	N	1.827530	-0.063181	-0.000064
C90	C	1.654164	0.006012	0.821903
N91	N	1.654172	0.006008	0.948948
C92	C	1.729312	-0.185489	-0.000092
N93	N	1.823653	-0.210818	-0.000083
H94	H	1.160622	-0.383832	-0.000168
C95	C	1.301427	0.139509	0.660909
N96	N	1.230148	0.166482	0.724441
H97	H	1.807572	-0.322600	-0.000122
H98	H	1.810248	-0.053039	0.360777
C99	C	1.301397	0.139509	0.338893
N100	N	1.230082	0.166475	0.275375
H101	H	1.805158	-0.414063	-0.000146
C102	C	1.251143	-0.057055	-0.000068
N103	N	1.156828	-0.031710	-0.000085
C104	C	1.257074	0.073951	0.265534
N105	N	1.365585	0.075054	0.265562
C106	C	1.715866	-0.694771	-0.000160
N107	N	1.811306	-0.678339	-0.000169
C108	C	1.119511	0.072572	0.544363
N109	N	1.173743	0.073140	0.654395
H110	H	1.680522	-0.791920	-0.000171
C111	C	1.232102	-0.778094	-0.000147
N112	N	1.136662	-0.794526	-0.000149
H113	H	1.267427	-0.680960	-0.000160
H114	H	1.281250	-0.157277	-0.000042
H115	H	1.803580	-0.473861	-0.000155
H116	H	1.156645	-0.535103	-0.000154
H117	H	1.159062	-0.443640	-0.000147
