data_functionalizedCrystal
_audit_creation_method	'MofGen! by Chris Wilmer'
_symmetry_space_group_name_H-M	'P1'
_symmetry_Int_Tables_number	1
_symmetry_cell_setting	triclinic
loop_
_symmetry_equiv_pos_as_xyz
  x,y,z
_cell_length_a	13.635800
_cell_length_b	23.752959
_cell_length_c	17.982968
_cell_angle_alpha	83.436948
_cell_angle_beta	77.548040
_cell_angle_gamma	100.066424
loop_
_atom_site_label
_atom_site_type_symbol
_atom_site_fract_x
_atom_site_fract_y
_atom_site_fract_z
V1	V	-1.999088	-0.079697	0.237982
O2	O	-2.001759	0.003278	0.233009
O3	O	-1.966632	-0.157496	0.236780
O4	O	-1.972446	-0.078713	0.341580
O5	O	-1.995905	-0.076050	0.127484
V6	V	-2.242288	-0.069744	0.224714
O7	O	-2.126561	-0.101531	0.267087
O8	O	-2.339913	-0.047910	0.195609
O9	O	-2.163140	0.008055	0.225915
O10	O	-2.298315	-0.152719	0.229687
O11	O	-2.304169	-0.073391	0.335212
O12	O	-2.157326	-0.070728	0.121116
C13	C	-1.887203	-0.176454	0.233136
C14	C	-1.901294	-0.240056	0.232844
V15	V	-1.499088	-0.079697	0.237982
O16	O	-1.501759	0.003278	0.233009
O17	O	-1.466632	-0.157496	0.236780
O18	O	-1.472446	-0.078713	0.341580
O19	O	-1.495905	-0.076050	0.127484
V20	V	-1.742288	-0.069744	0.224714
O21	O	-1.626561	-0.101531	0.267087
O22	O	-1.839913	-0.047910	0.195609
O23	O	-1.663140	0.008055	0.225915
O24	O	-1.798315	-0.152719	0.229687
O25	O	-1.804169	-0.073391	0.335212
O26	O	-1.657326	-0.070728	0.121116
C27	C	-1.871618	-0.512054	0.227811
C28	C	-1.858363	-0.452291	0.228079
O29	O	-1.774420	-0.418900	0.224998
N30	N	-1.942386	-0.425323	0.232027
C31	C	-2.039674	-0.458122	0.235714
O32	O	-2.109926	-0.429696	0.239097
C33	C	-2.052930	-0.517884	0.235451
C34	C	-1.968897	-0.544848	0.231496
C35	C	-1.787593	-0.539018	0.223857
C36	C	-1.800848	-0.598776	0.223587
C37	C	-1.898127	-0.631571	0.227272
C38	C	-1.982152	-0.604607	0.231226
C39	C	-2.150218	-0.550683	0.239144
C40	C	-2.163467	-0.610449	0.238881
C41	C	-2.079434	-0.637413	0.234926
C42	C	-2.092686	-0.697159	0.234641
N43	N	-2.008662	-0.724127	0.230694
C44	C	-1.911383	-0.691333	0.227009
C45	C	-2.011830	-0.332617	0.236267
C46	C	-1.998574	-0.272856	0.236524
C47	C	-1.817264	-0.267029	0.228891
C48	C	-1.830519	-0.326791	0.228628
C49	C	-1.927806	-0.359585	0.232320
C50	C	-1.939225	-0.816830	0.226442
C51	C	-1.952488	-0.876594	0.226170
C52	C	-2.133798	-0.882416	0.233807
C53	C	-2.120536	-0.822657	0.234076
C54	C	-2.023242	-0.789866	0.230395
O55	O	-2.176599	-0.730588	0.237724
O56	O	-1.841148	-0.719768	0.223637
C57	C	-1.894619	-0.075958	0.366817
C58	C	-1.913423	-0.075668	0.451511
C59	C	-2.074240	0.027010	0.229558
C60	C	-2.049768	0.090612	0.229854
C61	C	-2.066825	-0.073485	0.095875
C62	C	-2.037640	-0.073771	0.011179
C63	C	-1.387203	-0.176454	0.233136
C64	C	-1.401294	-0.240056	0.232844
C65	C	-1.394619	-0.075958	0.366817
C66	C	-1.413423	-0.075668	0.451511
C67	C	-2.012913	-0.078399	0.495198
C68	C	-2.030576	-0.078127	0.574777
C69	C	-1.948748	-0.075127	0.610669
C70	C	-1.849249	-0.072395	0.566976
C71	C	-1.831587	-0.072663	0.487398
C72	C	-1.920478	-0.071311	0.887907
C73	C	-1.938149	-0.071044	0.967492
C74	C	-2.119467	-0.076775	0.975287
C75	C	-2.101805	-0.077043	0.895708
C76	C	-2.002307	-0.074307	0.852022
C77	C	-1.983156	-0.074602	0.765733
C78	C	-1.967899	-0.074837	0.696957
C79	C	-1.574240	0.027010	0.229558
C80	C	-1.549768	0.090612	0.229854
C81	C	-1.566825	-0.073485	0.095875
C82	C	-1.537640	-0.073771	0.011179
C83	C	-1.498574	-0.272851	0.236529
C84	C	-1.511830	-0.332614	0.236267
C85	C	-1.427805	-0.359581	0.232313
C86	C	-1.330518	-0.326783	0.228630
C87	C	-1.317264	-0.267021	0.228898
C88	C	-1.512919	-0.078394	0.495184
C89	C	-1.530600	-0.078114	0.574762
C90	C	-1.448784	-0.075113	0.610667
C91	C	-1.349280	-0.072386	0.566989
C92	C	-1.331599	-0.072661	0.487411
C93	C	-1.624982	0.123406	0.226171
C94	C	-1.601997	0.183169	0.226437
C95	C	-1.503799	0.210136	0.230393
C96	C	-1.428579	0.177338	0.234074
C97	C	-1.451563	0.117577	0.233802
C98	C	-1.437225	-0.076766	-0.024706
C99	C	-1.409786	-0.077029	-0.104288
C100	C	-1.482765	-0.074301	-0.147981
C101	C	-1.583188	-0.071304	-0.112090
C102	C	-1.610623	-0.071038	-0.032511
H103	H	-1.860003	-0.790138	0.223448
H104	H	-2.079550	-0.080846	0.465982
N105	N	-1.212330	-0.231653	0.224905
H106	H	-1.216670	-0.189700	0.225672
H107	H	-1.186971	-0.246487	0.270668
H108	H	-1.611627	-0.080337	0.610315
N109	N	-1.589210	-0.243772	0.240805
H110	H	-1.575853	-0.213446	0.193610
H111	H	-1.652802	-0.273660	0.243131
N112	N	-1.224287	-0.069733	0.440310
H113	H	-1.203189	-0.034072	0.399520
H114	H	-1.175219	-0.067816	0.475190
H115	H	-1.579550	-0.080839	0.465961
N116	N	-1.739883	-0.355869	0.224363
H117	H	-1.753249	-0.386193	0.271561
H118	H	-1.729469	-0.374839	0.176574
N119	N	-1.616744	-0.367997	0.240220
H120	H	-1.666013	-0.364540	0.289407
H121	H	-1.642046	-0.353194	0.194412
N122	N	-1.322675	0.206431	0.238350
H123	H	-1.307308	0.189093	0.287454
H124	H	-1.270288	0.200420	0.192461
N125	N	-1.453157	-0.074594	-0.233810
H126	H	-1.496902	-0.109186	-0.246921
H127	H	-1.464254	-0.037864	-0.262054
H128	H	-1.438612	-0.408244	0.232095
H129	H	-1.485098	0.258798	0.230613
N130	N	-1.813165	-0.068361	0.840803
H131	H	-1.786311	-0.102712	0.860541
H132	H	-1.814455	-0.068964	0.784954
H133	H	-2.111588	-0.080347	0.610343
N134	N	-1.731055	0.094398	0.222158
H135	H	-1.762881	0.064142	0.269447
H136	H	-1.775001	0.124357	0.219928
H137	H	-1.262110	-0.348749	0.225411
N138	N	-2.089211	-0.243779	0.240789
H139	H	-2.066064	-0.200943	0.240401
H140	H	-2.119197	-0.249838	0.194929
N141	N	-1.712334	-0.231657	0.224923
H142	H	-1.690874	-0.201070	0.177386
H143	H	-1.714793	-0.212432	0.272379
H144	H	-1.463195	-0.074889	0.675465
H145	H	-1.663258	0.209865	0.223441
N146	N	-1.370434	0.082208	0.237778
H147	H	-1.304744	0.108364	0.240327
H148	H	-1.394724	0.051625	0.285314
N149	N	-1.718935	-0.067809	0.006182
H150	H	-1.768373	-0.102255	-0.001789
H151	H	-1.725167	-0.068034	0.063211
H152	H	-1.282672	-0.069943	0.596235
H153	H	-1.377788	-0.078987	0.010859
H154	H	-1.328012	-0.079468	-0.133498
N155	N	-1.661886	-0.068361	-0.159229
H156	H	-1.670673	-0.103996	-0.184827
H157	H	-1.729623	-0.066403	-0.124385
H158	H	-1.884055	-0.898544	0.222949
H159	H	-1.732418	-0.620724	0.220364
H160	H	-1.708376	-0.512323	0.220859
H161	H	-2.091054	-0.359315	0.239267
N162	N	-1.760984	-0.069158	0.605679
H163	H	-1.754566	-0.033271	0.630933
H164	H	-1.774028	-0.104595	0.646075
N165	N	-2.240861	-0.521613	0.243432
H166	H	-2.304494	-0.551466	0.245738
H167	H	-2.251214	-0.502613	0.291198
H168	H	-2.188958	-0.800700	0.237279
N169	N	-2.268364	-0.645851	0.242831
H170	H	-2.317650	-0.642413	0.292020
H171	H	-2.293674	-0.631054	0.197024
N172	N	-2.238666	-0.917840	0.237740
H173	H	-2.287976	-0.914420	0.286926
H174	H	-2.263981	-0.903056	0.191930
N175	N	-2.190061	-0.080281	0.856996
H176	H	-2.255770	-0.081968	0.896747
H177	H	-2.176973	-0.044866	0.816558
N178	N	-2.226788	-0.079720	1.022399
H179	H	-2.247864	-0.115384	1.063184
H180	H	-2.228384	-0.044060	1.047945
N181	N	-1.849878	-0.067821	1.006194
H182	H	-1.797457	-0.030968	0.983056
H183	H	-1.876240	-0.068098	1.063234
N184	N	-1.724278	-0.069713	0.440274
H185	H	-1.675120	-0.067773	0.475085
H186	H	-1.722701	-0.105349	0.414674
