data_functionalizedCrystal
_audit_creation_method	'MofGen! by Chris Wilmer'
_symmetry_space_group_name_H-M	'P1'
_symmetry_Int_Tables_number	1
_symmetry_cell_setting	triclinic
loop_
_symmetry_equiv_pos_as_xyz
  x,y,z
_cell_length_a	14.044220
_cell_length_b	14.044220
_cell_length_c	13.101039
_cell_angle_alpha	93.667477
_cell_angle_beta	86.340132
_cell_angle_gamma	93.188878
loop_
_atom_site_label
_atom_site_type_symbol
_atom_site_fract_x
_atom_site_fract_y
_atom_site_fract_z
O1	O	1.281968	0.225348	-0.085109
O2	O	1.615302	0.558682	0.248224
O3	O	1.948635	0.892015	0.581558
O4	O	1.005298	0.217041	-0.085135
O5	O	1.338632	0.550374	0.248198
O6	O	1.671965	0.883708	0.581532
O7	O	1.139480	0.082860	-0.085112
O8	O	1.472813	0.416193	0.248221
O9	O	1.806147	0.749526	0.581554
O10	O	1.147787	0.359530	-0.085132
O11	O	1.481120	0.692863	0.248202
O12	O	1.814454	1.026197	0.581535
O13	O	1.129854	0.092504	0.085316
O14	O	1.463188	0.425838	0.418649
O15	O	1.796521	0.759171	0.751983
O16	O	0.995673	0.226686	0.085293
O17	O	1.329006	0.560019	0.418627
O18	O	1.662339	0.893353	0.751960
O19	O	1.272343	0.234993	0.085319
O20	O	1.605676	0.568326	0.418652
O21	O	1.939009	0.901660	0.751986
Zn22	Zn	1.132479	0.232371	0.112365
Zn23	Zn	1.465813	0.565704	0.445699
Zn24	Zn	1.799146	0.899037	0.779032
Zn25	Zn	1.145162	0.219663	-0.112181
Zn26	Zn	1.478495	0.552997	0.221152
Zn27	Zn	1.811828	0.886330	0.554485
O28	O	1.138161	0.369175	0.085296
O29	O	1.471494	0.702508	0.418630
O30	O	1.804828	1.035841	0.751963
C31	C	0.964864	0.218228	0.000076
C32	C	1.298197	0.551561	0.333409
C33	C	1.631531	0.884894	0.666743
C34	C	0.858722	0.207383	0.000066
C35	C	1.192055	0.540716	0.333400
C36	C	1.525388	0.874049	0.666733
C37	C	0.664383	0.187558	0.000088
C38	C	0.997716	0.520891	0.333421
C39	C	1.331049	0.854224	0.666755
C40	C	0.613253	0.264472	0.000087
C41	C	0.946586	0.597805	0.333420
C42	C	1.279920	0.931139	0.666754
C43	C	0.505116	0.253441	0.000099
C44	C	0.838449	0.586774	0.333432
C45	C	1.171783	0.920108	0.666766
C46	C	0.772529	0.198587	0.000076
C47	C	1.105863	0.531920	0.333409
C48	C	1.439196	0.865254	0.666743
C49	C	1.131031	0.052060	0.000102
C50	C	1.464365	0.385393	0.333435
C51	C	1.797698	0.718727	0.666769
C52	C	1.120187	-0.054083	0.000102
C53	C	1.453520	0.279251	0.333435
C54	C	1.786854	0.612584	0.666769
C55	C	1.100362	-0.248421	0.000086
C56	C	1.433695	0.084912	0.333419
C57	C	1.767028	0.418245	0.666752
C58	C	1.177276	-0.299551	0.000090
C59	C	1.510609	0.033782	0.333423
C60	C	1.843942	0.367116	0.666756
C61	C	1.166245	-0.407688	0.000080
C62	C	1.499578	-0.074354	0.333414
C63	C	1.832911	0.258979	0.666747
C64	C	1.111391	-0.140275	0.000095
C65	C	1.444725	0.193059	0.333428
C66	C	1.778058	0.526392	0.666761
C67	C	1.312777	0.233806	0.000106
C68	C	1.646111	0.567140	0.333439
C69	C	1.979444	0.900473	0.666773
C70	C	1.418920	0.244651	0.000109
C71	C	1.752253	0.577984	0.333442
C72	C	2.085587	0.911318	0.666775
C73	C	1.146610	0.399974	0.000080
C74	C	1.479943	0.733307	0.333413
C75	C	1.813276	1.066641	0.666747
C76	C	1.157455	0.506116	0.000073
C77	C	1.490788	0.839450	0.333406
C78	C	1.824121	1.172783	0.666740
N79	N	1.123831	0.241043	0.265612
N80	N	1.457164	0.574377	0.598946
N81	N	1.790497	0.907710	0.932279
N82	N	1.153817	0.210984	-0.265428
N83	N	1.487151	0.544317	0.067905
N84	N	1.820484	0.877651	0.401238
C85	C	1.112065	0.252851	0.474653
C86	C	1.445398	0.586185	0.807986
C87	C	1.778731	0.919518	1.141320
C88	C	1.165580	0.199179	0.525538
C89	C	1.498914	0.532512	0.858871
C90	C	1.832247	0.865846	1.192204
C91	C	1.159034	0.205749	0.641855
C92	C	1.492367	0.539082	0.975188
C93	C	1.825700	0.872416	1.308522
C94	C	1.118610	0.246282	0.358325
C95	C	1.451944	0.579616	0.691658
C96	C	1.785277	0.912949	1.024992
H97	H	0.650693	0.338605	0.000077
H98	H	0.984026	0.671938	0.333410
H99	H	1.317359	1.005271	0.666744
H100	H	0.626945	0.113431	0.000099
H101	H	0.960278	0.446764	0.333432
H102	H	1.293612	0.780097	0.666766
H103	H	1.251413	-0.262115	0.000028
H104	H	1.584746	0.071218	0.333361
H105	H	1.918079	0.404551	0.666694
C106	C	1.000217	-0.298998	0.000090
C107	C	1.333550	0.034336	0.333423
C108	C	1.666883	0.367669	0.666756
N109	N	0.924788	-0.337102	0.000101
N110	N	1.258121	-0.003769	0.333434
N111	N	1.591454	0.329564	0.666768
C112	C	1.234131	0.130447	0.466377
C113	C	1.567464	0.463780	0.799710
C114	C	1.900798	0.797114	1.133044
N115	N	1.285767	0.078686	0.421813
N116	N	1.619100	0.412019	0.755146
N117	N	1.952433	0.745353	1.088479
C118	C	1.043529	0.321588	0.533813
C119	C	1.376863	0.654922	0.867147
C120	C	1.710196	0.988255	1.200480
N121	N	0.991910	0.373361	0.578385
N122	N	1.325243	0.706694	0.911718
N123	N	1.658576	1.040028	1.245051
