data_functionalizedCrystal
_audit_creation_method	'MofGen! by Chris Wilmer'
_symmetry_space_group_name_H-M	'P1'
_symmetry_Int_Tables_number	1
_symmetry_cell_setting	triclinic
loop_
_symmetry_equiv_pos_as_xyz
  x,y,z
_cell_length_a	10.654545
_cell_length_b	17.699092
_cell_length_c	9.130313
_cell_angle_alpha	89.997169
_cell_angle_beta	89.996934
_cell_angle_gamma	83.884723
loop_
_atom_site_label
_atom_site_type_symbol
_atom_site_fract_x
_atom_site_fract_y
_atom_site_fract_z
O1	O	1.665987	0.106286	-0.121779
O2	O	1.300331	0.116417	-0.121784
O3	O	1.493485	0.001228	-0.121778
O4	O	1.472834	0.221475	-0.121785
O5	O	1.493472	0.001225	0.121821
O6	O	1.300318	0.116414	0.121815
O7	O	1.665974	0.106283	0.121820
Cu8	Cu	1.483145	0.111348	0.144060
Cu9	Cu	1.483161	0.111352	-0.144024
O10	O	1.472821	0.221471	0.121814
C11	C	1.253540	0.115672	0.000014
C12	C	1.114135	0.113449	0.000012
C13	C	1.048642	0.112400	0.132799
C14	C	0.917659	0.110299	0.132799
C15	C	0.917674	0.110297	-0.132786
C16	C	1.048655	0.112394	-0.132785
C17	C	1.492736	-0.026975	0.000019
C18	C	1.490511	-0.111007	0.000012
C19	C	1.489476	-0.150479	-0.132775
C20	C	1.487377	-0.229435	-0.132777
C21	C	1.486323	-0.268919	0.000010
C22	C	1.487354	-0.229441	0.132808
C23	C	1.489444	-0.150485	0.132808
C24	C	1.478925	-0.547859	0.132810
C25	C	1.476839	-0.626820	0.132800
C26	C	1.476858	-0.626809	-0.132775
C27	C	1.478948	-0.547854	-0.132775
C28	C	1.479973	-0.508382	0.000022
C29	C	1.482246	-0.422769	0.000022
C30	C	1.484058	-0.354531	0.000012
C31	C	1.712766	0.107027	0.000018
C32	C	1.852171	0.109251	0.000011
C33	C	1.473569	0.249675	0.000013
C34	C	1.475794	0.333707	0.000011
N35	N	1.483143	0.111345	0.346682
N36	N	1.483172	0.111349	-0.346647
C37	C	1.568700	0.060361	0.423337
C38	C	1.568712	0.060361	0.576674
C39	C	1.397606	0.162336	0.576688
C40	C	1.397589	0.162331	0.423354
H41	H	1.101951	0.113260	0.240930
O42	O	0.853974	0.109414	-0.261738
C43	C	0.691614	0.172482	-0.415829
C44	C	0.763673	0.173582	-0.269753
H45	H	0.618572	0.224347	-0.422343
H46	H	0.760857	0.173638	-0.510797
H47	H	0.642007	0.118606	-0.422445
H48	H	0.813284	0.227448	-0.262993
H49	H	0.694372	0.172384	-0.174854
O50	O	1.112083	0.113444	-0.261913
C51	C	1.098296	0.113175	-0.525338
C52	C	1.026305	0.112005	-0.379217
H53	H	1.028980	0.111996	-0.620216
H54	H	1.147926	0.167040	-0.532079
H55	H	1.171308	0.061296	-0.531885
H56	H	0.953233	0.163847	-0.372571
H57	H	0.976762	0.058106	-0.372537
O58	O	1.651946	0.010809	0.650909
C59	C	1.821610	-0.090365	0.634703
C60	C	1.727434	-0.034273	0.550451
H61	H	1.882649	-0.126839	0.553520
H62	H	1.884332	-0.057374	0.706433
H63	H	1.767498	-0.128447	0.706545
H64	H	1.781443	0.003822	0.478529
H65	H	1.664713	-0.067311	0.478814
H66	H	1.479785	-0.515733	0.240941
O67	O	1.314386	0.211891	0.650943
C68	C	1.144715	0.313062	0.634771
C69	C	1.238876	0.256968	0.550501
H70	H	1.083658	0.349533	0.553601
H71	H	1.082009	0.280072	0.706538
H72	H	1.198839	0.351146	0.706579
H73	H	1.184854	0.218871	0.478614
H74	H	1.301580	0.290006	0.478826
H75	H	0.864340	0.109445	0.240927
O76	O	1.490442	-0.112241	-0.261898
C77	C	1.490309	-0.120578	-0.525321
C78	C	1.489188	-0.163971	-0.379192
H79	H	1.489321	-0.162384	-0.620192
H80	H	1.403416	-0.077166	-0.532064
H81	H	1.579118	-0.090056	-0.531882
H82	H	1.400437	-0.194538	-0.372533
H83	H	1.576139	-0.207339	-0.372512
H84	H	1.486539	-0.261570	-0.240906
O85	O	1.479912	-0.509613	-0.261895
C86	C	1.479775	-0.517942	-0.525319
C87	C	1.478657	-0.561340	-0.379195
H88	H	1.478788	-0.559746	-0.620194
H89	H	1.392881	-0.474532	-0.532056
H90	H	1.568583	-0.487419	-0.531878
H91	H	1.389908	-0.591908	-0.372538
H92	H	1.565611	-0.604707	-0.372520
O93	O	1.486164	-0.267865	0.261704
C94	C	1.375022	-0.348977	0.415877
C95	C	1.376218	-0.305513	0.269833
H96	H	1.286127	-0.379414	0.422510
H97	H	1.461837	-0.392452	0.422532
H98	H	1.376183	-0.307192	0.510762
H99	H	1.375014	-0.347241	0.174864
H100	H	1.289411	-0.262028	0.263305
H101	H	1.476017	-0.658956	-0.240905
H102	H	1.475977	-0.658965	0.240937
H103	H	1.327913	0.203849	0.360938
H104	H	1.490270	-0.118347	0.240937
H105	H	1.638362	0.018843	0.360915
