data_functionalizedCrystal
_audit_creation_method	'MofGen! by Chris Wilmer'
_symmetry_space_group_name_H-M	'P1'
_symmetry_Int_Tables_number	1
_symmetry_cell_setting	triclinic
loop_
_symmetry_equiv_pos_as_xyz
  x,y,z
_cell_length_a	13.635800
_cell_length_b	19.453114
_cell_length_c	10.943632
_cell_angle_alpha	85.559783
_cell_angle_beta	108.838880
_cell_angle_gamma	78.290712
loop_
_atom_site_label
_atom_site_type_symbol
_atom_site_fract_x
_atom_site_fract_y
_atom_site_fract_z
V1	V	2.017191	-0.218982	0.179974
O2	O	1.996815	-0.214831	-0.007265
O3	O	2.006447	-0.217468	0.355528
O4	O	1.988483	-0.314495	0.177813
O5	O	2.014903	-0.117132	0.171680
V6	V	2.257846	-0.206802	0.157506
O7	O	2.150249	-0.245700	0.229259
O8	O	2.349887	-0.180084	0.108222
O9	O	2.156987	-0.208316	-0.018048
O10	O	2.336921	-0.210953	0.344746
O11	O	2.318833	-0.308652	0.165800
O12	O	2.174951	-0.111289	0.159668
V13	V	2.517191	-0.218982	0.179974
O14	O	2.496815	-0.214831	-0.007265
O15	O	2.506447	-0.217468	0.355528
O16	O	2.488483	-0.314495	0.177813
O17	O	2.514903	-0.117132	0.171680
V18	V	2.757846	-0.206802	0.157506
O19	O	2.650249	-0.245700	0.229259
O20	O	2.849887	-0.180084	0.108222
O21	O	2.656987	-0.208316	-0.018048
O22	O	2.836921	-0.210953	0.344746
O23	O	2.818833	-0.308652	0.165800
O24	O	2.674951	-0.111289	0.159668
C25	C	1.909451	-0.337776	0.171610
C26	C	1.926710	-0.415859	0.171004
C27	C	2.026206	-0.456115	0.177200
C28	C	2.042423	-0.529482	0.176631
C29	C	1.959144	-0.562592	0.169892
C30	C	1.859632	-0.522325	0.163688
C31	C	1.843415	-0.448959	0.164244
N32	N	1.934498	-0.681374	0.238075
N33	N	1.949911	-0.751070	0.237550
C34	C	2.007998	-0.783640	0.168214
N35	N	2.050111	-0.743884	0.099441
N36	N	2.034702	-0.674182	0.099972
C37	C	1.976718	-0.642145	0.169288
C38	C	2.125084	-0.903449	0.173792
C39	C	2.141295	-0.976817	0.173215
C40	C	1.958505	-0.969659	0.160285
C41	C	1.942294	-0.896292	0.160849
C42	C	2.025588	-0.863192	0.167609
C43	C	1.932366	-0.214009	0.398305
C44	C	1.964195	-0.213407	0.541827
C45	C	2.062739	-0.211773	-0.060818
C46	C	2.020529	-0.212379	-0.204338
C47	C	2.085654	-0.088004	0.165875
C48	C	2.058014	-0.009921	0.166474
C49	C	2.432366	-0.214009	0.398305
C50	C	2.464195	-0.213407	0.541827
C51	C	2.409451	-0.337776	0.171610
C52	C	2.426710	-0.415859	0.171004
C53	C	1.887359	-0.209407	0.618955
C54	C	1.937278	-0.152706	0.691253
C55	C	1.971001	-0.269044	0.725260
C56	C	2.013681	-0.156666	0.612221
C57	C	2.047404	-0.273056	0.646234
C58	C	2.097380	-0.216343	0.718495
C59	C	2.562739	-0.211773	-0.060818
C60	C	2.520529	-0.212379	-0.204338
C61	C	2.585654	-0.088004	0.165875
C62	C	2.558014	-0.009921	0.166474
C63	C	2.526210	-0.456107	0.177179
C64	C	2.542437	-0.529472	0.176593
C65	C	2.459164	-0.562590	0.169842
C66	C	2.359654	-0.522336	0.163663
C67	C	2.343427	-0.448971	0.164239
C68	C	2.459055	0.023178	0.173210
C69	C	2.433065	0.096546	0.173758
C70	C	2.506040	0.136813	0.167578
C71	C	2.605006	0.103710	0.160837
C72	C	2.630991	0.030344	0.160280
C73	C	2.387359	-0.209407	0.618955
C74	C	2.437278	-0.152706	0.691253
C75	C	2.471001	-0.269044	0.725260
C76	C	2.513681	-0.156666	0.612221
C77	C	2.547404	-0.273056	0.646234
C78	C	2.597380	-0.216343	0.718495
H79	H	2.094032	-0.429170	0.182700
C80	C	1.766988	-0.205355	0.560173
N81	N	1.676325	-0.202299	0.515895
C82	C	2.324203	0.132944	0.181196
N83	N	2.242211	0.160357	0.186804
H84	H	2.031403	-0.109125	0.563161
C85	C	2.151884	-0.573774	0.183462
N86	N	2.234332	-0.607133	0.188613
C87	C	2.717734	-0.220278	0.776922
N88	N	2.808384	-0.223238	0.820931
H89	H	2.531403	-0.109125	0.563161
C90	C	1.733961	-0.404676	0.157443
N91	N	1.651521	-0.371322	0.152327
C92	C	2.378761	-0.021101	0.179999
N93	N	2.318273	-0.054448	0.185104
C94	C	1.874828	-0.083960	0.718889
N95	N	1.827784	-0.032182	0.739702
C96	C	2.447022	-0.333193	0.791720
N97	N	2.428953	-0.381507	0.841772
C98	C	2.477442	0.217517	0.168202
N99	N	2.455899	0.278303	0.168678
C100	C	2.739860	-0.006058	0.152880
N101	N	2.821864	-0.033472	0.147306
C102	C	2.217734	-0.220278	0.776922
N103	N	2.308384	-0.223238	0.820931
H104	H	2.594028	-0.429153	0.182680
C105	C	2.266988	-0.205355	0.560173
N106	N	2.176325	-0.202299	0.515895
C107	C	2.685270	0.148014	0.154044
N108	N	2.745726	0.181386	0.148936
C109	C	2.233971	-0.404708	0.157471
N110	N	2.151525	-0.371372	0.152377
H111	H	2.093592	-0.323946	0.625756
C112	C	2.609793	-0.341807	0.618554
N113	N	2.656776	-0.393595	0.597701
H114	H	2.391050	-0.101816	0.711699
C115	C	1.947022	-0.333193	0.791720
N116	N	1.928953	-0.381507	0.841772
C117	C	2.651907	-0.573739	0.183399
N118	N	2.734360	-0.607078	0.188526
H119	H	1.791826	-0.549287	0.158197
H120	H	1.861277	-0.863516	0.155817
H121	H	2.192907	-0.876498	0.179292
H122	H	2.222316	-1.009592	0.178251
H123	H	2.472391	-0.622329	0.169374
H124	H	2.291859	-0.549311	0.158167
H125	H	1.890695	-0.996615	0.154786
