data_functionalizedCrystal
_audit_creation_method	'MofGen! by Chris Wilmer'
_symmetry_space_group_name_H-M	'P1'
_symmetry_Int_Tables_number	1
_symmetry_cell_setting	triclinic
loop_
_symmetry_equiv_pos_as_xyz
  x,y,z
_cell_length_a	14.044220
_cell_length_b	8.559649
_cell_length_c	7.088929
_cell_angle_alpha	95.344185
_cell_angle_beta	83.222077
_cell_angle_gamma	81.483771
loop_
_atom_site_label
_atom_site_type_symbol
_atom_site_fract_x
_atom_site_fract_y
_atom_site_fract_z
O1	O	-1.219153	-0.396130	-0.158774
O2	O	-0.719153	0.103870	0.341226
O3	O	-0.944182	-0.382376	-0.158823
O4	O	-0.444182	0.117624	0.341177
O5	O	-1.105893	-0.160103	-0.158792
O6	O	-0.605893	0.339897	0.341208
O7	O	-1.057442	-0.618403	-0.158805
O8	O	-0.557442	-0.118403	0.341195
O9	O	-1.127509	-0.130326	0.159187
O10	O	-0.627509	0.369674	0.659187
O11	O	-0.965798	-0.352598	0.159156
O12	O	-0.465798	0.147402	0.659156
O13	O	-1.240769	-0.366352	0.159205
O14	O	-0.740769	0.133648	0.659205
Cu15	Cu	-1.105257	-0.356756	0.188215
Cu16	Cu	-0.605257	0.143244	0.688215
Cu17	Cu	-1.079694	-0.391972	-0.187832
Cu18	Cu	-0.579694	0.108028	0.312168
O19	O	-1.079058	-0.588625	0.159175
O20	O	-0.579058	-0.088625	0.659175
C21	C	-0.920113	-0.361466	0.000161
C22	C	-0.420113	0.138534	0.500161
C23	C	-0.816194	-0.343504	0.000142
C24	C	-0.316194	0.156496	0.500142
C25	C	-1.120372	-0.086208	0.000195
C26	C	-0.620372	0.413792	0.500195
C27	C	-1.131301	0.089613	0.000186
C28	C	-0.631301	0.589613	0.500186
C29	C	-1.264837	-0.387263	0.000218
C30	C	-0.764837	0.112737	0.500218
C31	C	-1.368756	-0.405226	0.000224
C32	C	-0.868756	0.094774	0.500224
C33	C	-0.625926	-0.310658	0.000181
C34	C	-0.125926	0.189342	0.500181
C35	C	-0.559019	-0.438064	0.000185
C36	C	-0.059019	0.061936	0.500185
C37	C	-0.453147	-0.419789	0.000207
C38	C	0.046853	0.080211	0.500207
C39	C	-0.731808	-0.328932	0.000159
C40	C	-0.231808	0.171068	0.500159
C41	C	-1.064578	-0.662521	0.000184
C42	C	-0.564578	-0.162521	0.500184
C43	C	-1.053649	-0.838343	0.000180
C44	C	-0.553649	-0.338343	0.500180
N45	N	-1.123245	-0.331987	0.452706
N46	N	-0.623245	0.168013	0.952706
N47	N	-1.061715	-0.416730	-0.452324
N48	N	-0.561715	0.083270	0.047676
H49	H	-0.581249	-0.560866	0.000173
H50	H	-0.081249	-0.060866	0.500173
Br51	Br	-1.229549	-0.185632	0.588812
Br52	Br	-0.729549	0.314368	1.088812
Br53	Br	-0.928901	0.040274	0.000169
Br54	Br	-0.428901	0.540274	0.500169
Br55	Br	-0.588875	-0.105993	0.000196
Br56	Br	-0.088875	0.394007	0.500196
Br57	Br	-1.256057	0.211006	0.000242
Br58	Br	-0.756057	0.711006	0.500242
Br59	Br	-0.955428	-0.563105	0.411578
Br60	Br	-0.455428	-0.063105	0.911578
