data_functionalizedCrystal
_audit_creation_method	'MofGen! by Chris Wilmer'
_symmetry_space_group_name_H-M	'P1'
_symmetry_Int_Tables_number	1
_symmetry_cell_setting	triclinic
loop_
_symmetry_equiv_pos_as_xyz
  x,y,z
_cell_length_a	14.519709
_cell_length_b	19.188930
_cell_length_c	13.596369
_cell_angle_alpha	89.988893
_cell_angle_beta	90.000291
_cell_angle_gamma	83.412464
loop_
_atom_site_label
_atom_site_type_symbol
_atom_site_fract_x
_atom_site_fract_y
_atom_site_fract_z
O1	O	1.223300	0.091524	-0.081675
O2	O	0.954756	0.102302	-0.081706
O3	O	1.096778	-0.004715	-0.081670
O4	O	1.081278	0.198542	-0.081711
O5	O	1.096763	-0.004720	0.081912
O6	O	0.954742	0.102297	0.081877
O7	O	1.223286	0.091519	0.081908
Zn8	Zn	1.089012	0.096907	0.107865
Zn9	Zn	1.089030	0.096914	-0.107663
O10	O	1.081264	0.198536	0.081872
C11	C	0.920392	0.101797	0.000081
C12	C	0.818020	0.100292	0.000070
C13	C	0.443159	0.094751	0.000116
C14	C	0.547457	0.096290	0.000103
C15	C	0.630586	0.097521	0.000092
C16	C	0.734891	0.099060	0.000081
C17	C	1.096269	-0.030730	0.000124
C18	C	1.094762	-0.108240	0.000132
C19	C	1.178095	-0.152867	0.000146
C20	C	1.176680	-0.225696	0.000131
C21	C	1.091926	-0.253895	0.000120
C22	C	1.008582	-0.209257	0.000100
C23	C	1.009999	-0.136430	0.000106
N24	N	1.027137	-0.362132	0.055783
N25	N	1.025796	-0.431316	0.055779
C26	C	1.087649	-0.473318	0.000100
N27	N	1.150908	-0.443526	-0.055564
N28	N	1.152252	-0.374336	-0.055556
C29	C	1.090379	-0.332863	0.000113
C30	C	1.169454	-0.596916	0.000095
C31	C	1.168035	-0.669745	0.000073
C32	C	0.999934	-0.653305	0.000053
C33	C	1.001355	-0.580477	0.000065
C34	C	1.086118	-0.552287	0.000091
C35	C	1.257649	0.092024	0.000118
C36	C	1.360021	0.093529	0.000123
C37	C	1.081773	0.224551	0.000076
C38	C	1.083280	0.302061	0.000061
N39	N	1.089006	0.096901	0.254956
N40	N	1.089043	0.096914	-0.254755
C41	C	1.089029	0.096915	0.656247
C42	C	1.089020	0.096914	0.544596
C43	C	1.089018	0.096909	0.455605
C44	C	1.089008	0.096906	0.343947
H45	H	1.247116	-0.129920	0.000164
O46	O	1.257719	-0.268958	0.000191
C47	C	1.332834	-0.228459	0.000187
H48	H	1.309205	-0.174140	0.031153
H49	H	1.391196	-0.255259	0.047692
H50	H	1.358843	-0.223231	-0.078286
H51	H	0.939574	-0.232221	0.000089
O52	O	0.928985	-0.093147	-0.000033
C53	C	0.877526	-0.105912	-0.084777
H54	H	0.900396	-0.161120	-0.113028
H55	H	0.800587	-0.100887	-0.065734
H56	H	0.889982	-0.066051	-0.144093
H57	H	0.930926	-0.676263	0.000039
O58	O	1.251868	-0.569642	0.000059
C59	C	1.325120	-0.624653	0.000079
H60	H	1.299469	-0.674152	-0.030895
H61	H	1.384310	-0.609350	-0.047411
H62	H	1.350814	-0.634940	0.078558
O63	O	0.920319	-0.537222	0.000107
C64	C	0.845207	-0.577724	0.000070
H65	H	0.868833	-0.632053	0.031036
H66	H	0.786831	-0.550942	0.047558
H67	H	0.819219	-0.582927	-0.078413
O68	O	1.248966	-0.713126	-0.000091
C69	C	1.253180	-0.755738	-0.084807
H70	H	1.205921	-0.729115	-0.144027
H71	H	1.327504	-0.763825	-0.113231
H72	H	1.229525	-0.808729	-0.065668
