data_functionalizedCrystal
_audit_creation_method	'MofGen! by Chris Wilmer'
_symmetry_space_group_name_H-M	'P1'
_symmetry_Int_Tables_number	1
_symmetry_cell_setting	triclinic
loop_
_symmetry_equiv_pos_as_xyz
  x,y,z
_cell_length_a	12.759401
_cell_length_b	12.759400
_cell_length_c	12.759393
_cell_angle_alpha	90.031564
_cell_angle_beta	90.019465
_cell_angle_gamma	90.014356
loop_
_atom_site_label
_atom_site_type_symbol
_atom_site_fract_x
_atom_site_fract_y
_atom_site_fract_z
Zn1	Zn	1.606256	-0.418214	0.594009
Zn2	Zn	1.606150	-0.593932	0.418329
Zn3	Zn	1.430557	-0.418267	0.418345
Zn4	Zn	1.430546	-0.593850	0.593967
O5	O	1.518377	-0.506066	0.506162
O6	O	1.753263	-0.441535	0.570715
O7	O	1.582818	-0.570687	0.271310
O8	O	1.453913	-0.271239	0.441671
O9	O	1.753185	-0.570635	0.441643
O10	O	1.582998	-0.271200	0.570730
O11	O	1.453811	-0.441626	0.271322
O12	O	1.283535	-0.441546	0.441631
O13	O	1.453894	-0.570495	0.740994
O14	O	1.283527	-0.570546	0.570660
O15	O	1.582987	-0.441455	0.741024
O16	O	1.582807	-0.740942	0.441603
O17	O	1.453791	-0.740882	0.570644
C18	C	1.245410	-0.506044	0.506143
C19	C	1.128633	-0.506060	0.506160
C20	C	0.964008	-0.573201	0.438881
C21	C	1.073732	-0.573180	0.438863
C22	C	1.073805	-0.438949	0.573472
C23	C	0.964083	-0.438966	0.573484
C24	C	0.909112	-0.640333	0.371587
C25	C	0.963932	-0.707442	0.304274
C26	C	1.073656	-0.707421	0.304256
C27	C	1.128560	-0.640291	0.371551
C28	C	1.518315	-0.779033	0.506140
C29	C	1.518384	-0.895810	0.506166
C30	C	1.585637	-0.950668	0.439049
C31	C	1.585702	-1.060392	0.439081
C32	C	1.451252	-1.060389	0.573351
C33	C	1.451193	-0.950667	0.573323
C34	C	1.652828	-0.895811	0.371892
C35	C	1.720086	-0.950669	0.304768
C36	C	1.720150	-1.060393	0.304801
C37	C	1.652957	-1.115259	0.371957
C38	C	1.792411	-0.506088	0.506182
C39	C	1.909187	-0.506098	0.506190
C40	C	1.518451	-0.505960	0.780196
C41	C	1.518482	-0.505915	0.896973
C42	C	1.518468	-0.232032	0.506207
C43	C	1.518507	-0.115256	0.506226
C44	C	1.518364	-0.506096	0.233195
C45	C	1.518537	-0.505845	0.116419
C46	C	1.585710	-0.438717	0.951852
C47	C	1.585735	-0.438679	1.061576
C48	C	1.451301	-0.573045	1.061532
C49	C	1.451272	-0.573077	0.951809
C50	C	1.652920	-0.371555	0.897015
C51	C	1.720155	-0.304353	0.951895
C52	C	1.720180	-0.304315	1.061619
C53	C	1.652970	-0.371479	1.116463
H54	H	0.819769	-0.640360	0.371596
H55	H	1.774917	-0.249589	1.106299
C56	C	1.377384	-0.646927	1.121853
H57	H	1.337334	-0.686947	1.073453
H58	H	1.417570	-0.692693	1.164647
H59	H	1.331629	-0.606714	1.164662
H60	H	1.217904	-0.640271	0.371523
C61	C	1.133961	-0.781231	0.230214
H62	H	1.207171	-0.771602	0.239834
H63	H	1.115981	-0.851841	0.245474
H64	H	1.115945	-0.765772	0.159648
C65	C	1.793998	-0.890328	0.230906
H66	H	1.834069	-0.938717	0.190946
H67	H	1.753810	-0.847595	0.185081
H68	H	1.839733	-0.847456	0.271130
C69	C	0.903772	-0.365157	0.647521
H70	H	0.830564	-0.374774	0.637880
H71	H	0.921779	-0.380605	0.718085
H72	H	0.921753	-0.294542	0.632253
H73	H	1.652984	-0.371431	1.205808
C74	C	1.377364	-0.647033	0.891438
H75	H	1.337362	-0.687049	0.939809
H76	H	1.331579	-0.606885	0.848622
H77	H	1.417569	-0.692816	0.848647
H78	H	1.396431	-0.906001	0.627977
C79	C	0.903543	-0.781279	0.230255
H80	H	0.830345	-0.771690	0.239911
H81	H	0.921490	-0.765823	0.159687
H82	H	0.921531	-0.851887	0.245518
H83	H	1.653024	-1.204603	0.371986
C84	C	1.134196	-0.365124	0.647500
H85	H	1.207394	-0.374733	0.637860
H86	H	1.116219	-0.294516	0.632254
H87	H	1.116243	-0.380596	0.718069
C88	C	1.377339	-1.120739	0.647207
H89	H	1.386999	-1.193942	0.637603
H90	H	1.392663	-1.102691	0.717808
H91	H	1.306744	-1.102824	0.631755
H92	H	1.774922	-1.105056	0.250153
C93	C	1.794072	-0.230469	0.891576
H94	H	1.834105	-0.190435	0.939978
H95	H	1.839826	-0.270672	0.848766
H96	H	1.753878	-0.184700	0.848783
H97	H	1.652910	-0.371581	0.807672
C98	C	1.652764	-0.775119	0.371857
H99	H	1.702416	-0.750302	0.322255
H100	H	1.584960	-0.750366	0.353631
H101	H	1.670895	-0.750229	0.439667
