data_functionalizedCrystal
_audit_creation_method	'MofGen! by Chris Wilmer'
_symmetry_space_group_name_H-M	'P1'
_symmetry_Int_Tables_number	1
_symmetry_cell_setting	triclinic
loop_
_symmetry_equiv_pos_as_xyz
  x,y,z
_cell_length_a	30.711293
_cell_length_b	30.700791
_cell_length_c	30.700862
_cell_angle_alpha	89.998029
_cell_angle_beta	59.999649
_cell_angle_gamma	60.000191
loop_
_atom_site_label
_atom_site_type_symbol
_atom_site_fract_x
_atom_site_fract_y
_atom_site_fract_z
O1	O	-0.311648	-0.371257	0.012946
O2	O	-0.222486	-0.307915	-0.012905
O3	O	-0.311647	-0.307914	0.076286
O4	O	-0.222487	-0.371258	-0.076244
O5	O	-0.384064	-0.235471	0.076281
O6	O	-0.294903	-0.235472	-0.012909
O7	O	-0.384065	-0.298814	0.012941
Cu8	Cu	-0.346097	-0.260528	0.000016
Cu9	Cu	-0.260455	-0.346201	0.000021
O10	O	-0.294905	-0.298815	-0.076249
C11	C	-0.215946	-0.155921	-0.018773
C12	C	-0.246517	-0.098464	-0.015067
C13	C	-0.241901	-0.182377	-0.019145
C14	C	-0.137093	-0.234800	-0.018780
C15	C	-0.083353	-0.261680	-0.015083
C16	C	-0.163168	-0.261136	-0.019153
C17	C	-0.215940	-0.234800	-0.018783
C18	C	-0.246504	-0.261681	-0.015089
C19	C	-0.163173	-0.182377	-0.019143
C20	C	-0.535506	-0.574966	0.039266
C21	C	-0.588276	-0.548513	0.039633
C22	C	-0.535503	-0.496092	0.039261
C23	C	-0.588273	-0.469758	0.039628
C24	C	-0.614351	-0.496093	0.039261
C25	C	-0.509547	-0.548512	0.039633
C26	C	-0.393517	-0.765171	0.024998
C27	C	-0.364490	-0.819035	0.020964
C28	C	-0.389408	-0.846056	0.018939
C29	C	-0.357931	-0.904462	0.014555
C30	C	-0.443357	-0.819209	0.020953
C31	C	-0.472384	-0.765347	0.024994
C32	C	-0.447462	-0.738328	0.027016
C33	C	-0.790217	-0.447931	0.024977
C34	C	-0.840027	-0.423106	0.020938
C35	C	-0.865011	-0.371162	0.018906
C36	C	-0.919010	-0.344244	0.014518
C37	C	-0.840185	-0.344042	0.020919
C38	C	-0.790385	-0.368863	0.024968
C39	C	-0.765401	-0.420813	0.026993
C40	C	-0.393506	-0.447926	0.024978
C41	C	-0.364472	-0.423102	0.020932
C42	C	-0.389387	-0.371157	0.018902
C43	C	-0.357907	-0.344239	0.014513
C44	C	-0.443332	-0.344040	0.020913
C45	C	-0.472361	-0.368866	0.024957
C46	C	-0.447446	-0.420809	0.026994
C47	C	-0.478939	-0.679924	0.031393
C48	C	-0.504029	-0.633370	0.034884
C49	C	-0.504023	-0.469176	0.034874
C50	C	-0.478931	-0.447722	0.031379
C51	C	-0.668351	-0.469178	0.034874
C52	C	-0.711396	-0.447725	0.031378
C53	C	-0.071062	-0.496430	-0.503877
C54	C	-0.018292	-0.548850	-0.530210
C55	C	-0.071062	-0.496430	-0.425001
C56	C	-0.018292	-0.548851	-0.451454
C57	C	0.007785	-0.575305	-0.503874
C58	C	-0.097019	-0.470095	-0.451457
C59	C	-0.213054	-0.368667	-0.552046
C60	C	-0.242083	-0.343666	-0.576874
C61	C	-0.217167	-0.370617	-0.628819
C62	C	-0.248645	-0.343515	-0.655738
C63	C	-0.163218	-0.422570	-0.655937
C64	C	-0.134190	-0.447564	-0.631112
C65	C	-0.159110	-0.420611	-0.579165
C66	C	0.183647	-0.765510	-0.631630
C67	C	0.233456	-0.819374	-0.656629
C68	C	0.258441	-0.846398	-0.629678
C69	C	0.312440	-0.904802	-0.656775
C70	C	0.233618	-0.819550	-0.577726
C71	C	0.183818	-0.765686	-0.552731
C72	C	0.158832	-0.738669	-0.579689
C73	C	-0.213052	-0.368669	-0.234798
C74	C	-0.242085	-0.343671	-0.180932
C75	C	-0.217169	-0.370623	-0.153909
C76	C	-0.248646	-0.343521	-0.095503
C77	C	-0.163224	-0.422573	-0.180754
C78	C	-0.134196	-0.447569	-0.234618
C79	C	-0.159113	-0.420610	-0.261638
C80	C	-0.127632	-0.447719	-0.552248
C81	C	-0.102540	-0.469326	-0.530793
C82	C	-0.102539	-0.469327	-0.366598
C83	C	-0.127630	-0.447721	-0.320044
C84	C	0.061784	-0.633709	-0.530976
C85	C	0.104829	-0.680263	-0.552580
O86	O	0.063309	-0.298819	0.012947
O87	O	-0.063337	-0.235469	-0.012895
O88	O	-0.063332	-0.235483	0.076292
O89	O	0.063304	-0.298804	-0.076240
O90	O	-0.063327	-0.307931	0.076282
O91	O	-0.063332	-0.307917	-0.012905
O92	O	0.063314	-0.371267	0.012938
Cu93	Cu	-0.000009	-0.346207	0.000016
Cu94	Cu	-0.000014	-0.260529	0.000027
O95	O	0.063309	-0.371252	-0.076249
O96	O	-0.384087	0.076278	0.012980
O97	O	-0.294919	-0.076256	-0.012883
O98	O	-0.384078	0.012923	0.076312
O99	O	-0.294928	-0.012900	-0.076216
O100	O	-0.311659	0.012923	0.076315
O101	O	-0.222500	-0.076255	-0.012880
O102	O	-0.311668	0.076279	0.012982
Cu103	Cu	-0.260471	0.000012	0.000051
Cu104	Cu	-0.346115	0.000011	0.000048
O105	O	-0.222509	-0.012900	-0.076213
O106	O	0.456756	-1.076592	-0.692373
O107	O	0.330119	-0.924062	-0.629035
O108	O	0.330115	-1.013250	-0.629031
O109	O	0.456760	-0.987404	-0.692377
O110	O	0.330114	-1.013248	-0.701476
O111	O	0.330117	-0.924060	-0.701479
O112	O	0.456755	-1.076591	-0.764818
Cu113	Cu	0.393436	-1.000325	-0.739763
Cu114	Cu	0.393438	-1.000327	-0.654089
O115	O	0.456758	-0.987402	-0.764821
O116	O	-0.311647	-0.307914	-0.764507
O117	O	-0.222491	-0.371255	-0.701160
O118	O	-0.311650	-0.371255	-0.701160
O119	O	-0.222488	-0.307914	-0.764507
O120	O	-0.384068	-0.298811	-0.628718
O121	O	-0.294909	-0.298811	-0.628719
O122	O	-0.384066	-0.235470	-0.692065
Cu123	Cu	-0.346100	-0.260525	-0.653777
Cu124	Cu	-0.260456	-0.346199	-0.739448
O125	O	-0.294906	-0.235469	-0.692065
C126	C	-0.469459	-0.155927	0.234817
C127	C	-0.523196	-0.098472	0.261693
C128	C	-0.443383	-0.182382	0.261154
C129	C	-0.390613	-0.234802	0.155945
C130	C	-0.360047	-0.261680	0.098491
C131	C	-0.364656	-0.261137	0.182401
C132	C	-0.390613	-0.234802	0.234821
C133	C	-0.360047	-0.261680	0.261701
C134	C	-0.443383	-0.182382	0.182398
C135	C	-0.215937	-0.234835	0.234815
C136	C	-0.246501	-0.261718	0.261687
C137	C	-0.241898	-0.182415	0.261154
C138	C	-0.137088	-0.234825	0.155948
C139	C	-0.083347	-0.261698	0.098494
C140	C	-0.163169	-0.182405	0.182407
C141	C	-0.215942	-0.155956	0.234826
C142	C	-0.246513	-0.098501	0.261708
C143	C	-0.163163	-0.261164	0.182396
C144	C	-0.390614	0.018780	0.234847
C145	C	-0.360045	0.015077	0.261724
C146	C	-0.443383	0.019144	0.261180
C147	C	-0.390620	0.018793	0.155974
C148	C	-0.360058	0.015103	0.098520
C149	C	-0.443389	0.019157	0.182427
C150	C	-0.469462	0.018780	0.234845
C151	C	-0.523197	0.015076	0.261721
C152	C	-0.364661	0.019157	0.182428
C153	C	0.464517	-0.574918	-0.503872
C154	C	0.490473	-0.548459	-0.530201
C155	C	0.385663	-0.496049	-0.424994
C156	C	0.411739	-0.469710	-0.451443
C157	C	0.464512	-0.496040	-0.503862
C158	C	0.411744	-0.548469	-0.451453
C159	C	0.526952	-0.765127	-0.552055
C160	C	0.555809	-0.818991	-0.576885
C161	C	0.609766	-0.846007	-0.628829
C162	C	0.641064	-0.904413	-0.655751
C163	C	0.634860	-0.819155	-0.655943
C164	C	0.605999	-0.765293	-0.631116
C165	C	0.552042	-0.738279	-0.579169
C166	C	0.606502	-0.447857	-0.631603
C167	C	0.635529	-0.423027	-0.656598
C168	C	0.610613	-0.371084	-0.629644
C169	C	0.642085	-0.344159	-0.656737
C170	C	0.556661	-0.343969	-0.577693
C171	C	0.527630	-0.368794	-0.552703
C172	C	0.552560	-0.420744	-0.579664
C173	C	0.209790	-0.447905	-0.234797
C174	C	0.159982	-0.423087	-0.180932
C175	C	0.134993	-0.371141	-0.153906
C176	C	0.080990	-0.344230	-0.095501
C177	C	0.159816	-0.344019	-0.180746
C178	C	0.209624	-0.368840	-0.234610
C179	C	0.234604	-0.420783	-0.261633
C180	C	0.520753	-0.679876	-0.552249
C181	C	0.495810	-0.633322	-0.530792
C182	C	0.331660	-0.469140	-0.366591
C183	C	0.288612	-0.447690	-0.320038
C184	C	0.495988	-0.469120	-0.530959
C185	C	0.521078	-0.447662	-0.552560
O186	O	-0.311682	0.076246	0.298846
O187	O	-0.222503	-0.076287	0.235498
O188	O	-0.311678	0.012896	0.235508
O189	O	-0.222507	-0.012937	0.298837
O190	O	-0.384084	0.012882	0.307954
O191	O	-0.294908	-0.076301	0.307945
O192	O	-0.384088	0.076231	0.371293
Cu193	Cu	-0.346109	-0.000036	0.346234
Cu194	Cu	-0.260481	-0.000019	0.260557
O195	O	-0.294913	-0.012952	0.371283
C196	C	0.007393	-0.039139	-0.503833
C197	C	-0.018687	-0.039504	-0.530167
C198	C	-0.071449	-0.039152	-0.424962
C199	C	-0.097408	-0.039517	-0.451416
C200	C	-0.071456	-0.039140	-0.503834
C201	C	-0.018680	-0.039516	-0.451415
C202	C	0.183255	-0.024850	-0.551992
C203	C	0.233063	-0.020808	-0.576817
C204	C	0.258044	-0.018773	-0.628760
C205	C	0.312042	-0.014380	-0.655676
C206	C	0.233217	-0.020784	-0.655880
C207	C	0.183418	-0.024833	-0.631058
C208	C	0.158437	-0.026866	-0.579112
C209	C	-0.133891	-0.024840	-0.631591
C210	C	-0.162748	-0.020798	-0.656591
C211	C	-0.216700	-0.018774	-0.629643
C212	C	-0.247997	-0.014384	-0.656741
C213	C	-0.241792	-0.020797	-0.577692
C214	C	-0.212931	-0.024848	-0.552697
C215	C	-0.158978	-0.026866	-0.579652
C216	C	-0.133856	-0.024902	-0.234761
C217	C	-0.162710	-0.020866	-0.180895
C218	C	-0.216662	-0.018844	-0.153875
C219	C	-0.247951	-0.014466	-0.095471
C220	C	-0.241761	-0.020853	-0.180721
C221	C	-0.212907	-0.024887	-0.234584
C222	C	-0.158950	-0.026916	-0.261601
C223	C	0.104434	-0.031251	-0.552199
C224	C	0.061391	-0.034749	-0.530746
C225	C	-0.102733	-0.034776	-0.366559
C226	C	-0.127669	-0.031290	-0.320006
C227	C	-0.102748	-0.034750	-0.530937
C228	C	-0.127690	-0.031253	-0.552542
H229	H	-0.610092	-0.426688	0.040215
C230	C	-0.307294	-0.319322	0.153717
C231	C	-0.309878	-0.363206	0.133292
C232	C	-0.252517	-0.421389	0.104612
C233	C	-0.192573	-0.435688	0.096357
C234	C	-0.189987	-0.391803	0.116783
C235	C	-0.247347	-0.333620	0.145463
H236	H	-0.354254	-0.352621	0.139402
H237	H	-0.254432	-0.453875	0.089491
H238	H	-0.150111	-0.478759	0.075126
H239	H	-0.145610	-0.402388	0.110673
H240	H	-0.245432	-0.301134	0.160584
C241	C	-0.299262	-0.153730	0.319339
C242	C	-0.296673	-0.133315	0.363224
C243	C	-0.354034	-0.104632	0.421407
C244	C	-0.413984	-0.096362	0.435705
C245	C	-0.416576	-0.116777	0.391819
C246	C	-0.359215	-0.145461	0.333636
H247	H	-0.252292	-0.139436	0.352641
H248	H	-0.352115	-0.089520	0.453894
H249	H	-0.456447	-0.075129	0.478776
H250	H	-0.460958	-0.110656	0.402403
H251	H	-0.361135	-0.160573	0.301149
C252	C	0.547862	-0.577154	-0.588374
C253	C	0.576571	-0.634947	-0.617465
C254	C	0.633968	-0.663644	-0.675631
C255	C	0.662655	-0.634548	-0.704706
C256	C	0.633946	-0.576752	-0.675616
C257	C	0.576549	-0.548055	-0.617450
H258	H	0.555335	-0.656488	-0.595942
H259	H	0.655220	-0.706428	-0.697166
H260	H	0.705143	-0.655792	-0.747764
H261	H	0.655182	-0.555211	-0.697139
H262	H	0.555296	-0.505270	-0.595915
H263	H	0.230128	-0.490201	-0.256797
H264	H	0.162921	-0.026506	-0.509696
H265	H	-0.465211	-0.161141	0.304225
C266	C	-0.301426	-0.286526	-0.547042
C267	C	-0.361276	-0.275389	-0.536352
C268	C	-0.420622	-0.218249	-0.506518
C269	C	-0.420117	-0.172246	-0.487375
C270	C	-0.360266	-0.183380	-0.498066
C271	C	-0.300920	-0.240520	-0.527899
H272	H	-0.361651	-0.309445	-0.550522
H273	H	-0.464928	-0.210007	-0.498605
H274	H	-0.464049	-0.129947	-0.465291
H275	H	-0.359890	-0.149325	-0.483895
H276	H	-0.256614	-0.248763	-0.535813
C277	C	-0.133689	-0.153688	-0.019937
C278	C	-0.171073	-0.101994	0.025741
C279	C	-0.141588	-0.073308	0.024947
C280	C	-0.074718	-0.096316	-0.021523
C281	C	-0.037330	-0.148012	-0.067204
C282	C	-0.066815	-0.176698	-0.066411
H283	H	-0.220578	-0.084960	0.060144
H284	H	-0.169266	-0.035039	0.058764
H285	H	-0.052892	-0.075080	-0.022111
H286	H	0.012174	-0.165046	-0.101608
H287	H	-0.039138	-0.214967	-0.100228
H288	H	-0.860233	-0.445191	0.019296
C289	C	-0.617764	-0.577202	0.040437
C290	C	-0.589084	-0.634987	0.040836
C291	C	-0.618572	-0.663673	0.041640
C292	C	-0.676740	-0.634575	0.042046
C293	C	-0.705423	-0.576787	0.041647
C294	C	-0.675935	-0.548101	0.040842
H295	H	-0.546022	-0.656530	0.040536
H296	H	-0.597339	-0.706452	0.041936
H297	H	-0.698569	-0.655811	0.042641
H298	H	-0.748486	-0.555244	0.041947
H299	H	-0.697169	-0.505322	0.040547
C300	C	-0.133691	-0.153707	0.153719
C301	C	-0.171087	-0.101999	0.145459
C302	C	-0.141612	-0.073302	0.116772
C303	C	-0.074739	-0.096311	0.096343
C304	C	-0.037339	-0.148022	0.104602
C305	C	-0.066814	-0.176719	0.133289
H306	H	-0.220594	-0.084963	0.160582
H307	H	-0.169299	-0.035022	0.110658
H308	H	-0.052920	-0.075068	0.075106
H309	H	0.012168	-0.165057	0.089479
H310	H	-0.039127	-0.214999	0.139403
C311	C	-0.472881	0.019964	0.153740
C312	C	-0.496333	0.066437	0.133319
C313	C	-0.525827	0.067244	0.104636
C314	C	-0.531867	0.021579	0.096376
C315	C	-0.508413	-0.024898	0.116798
C316	C	-0.478920	-0.025705	0.145480
H317	H	-0.491863	0.100244	0.139433
H318	H	-0.543188	0.101649	0.089519
H319	H	-0.553699	0.022176	0.075143
H320	H	-0.512884	-0.058705	0.110683
H321	H	-0.461558	-0.060111	0.160598
C322	C	-0.452187	-0.577198	0.040442
C323	C	-0.423502	-0.634982	0.040844
C324	C	-0.366146	-0.663665	0.041655
C325	C	-0.337475	-0.634565	0.042064
C326	C	-0.366160	-0.576778	0.041662
C327	C	-0.423516	-0.548095	0.040851
H328	H	-0.444727	-0.656527	0.040541
H329	H	-0.344912	-0.706443	0.041953
H330	H	-0.295016	-0.655798	0.042664
H331	H	-0.344935	-0.555234	0.041965
H332	H	-0.444750	-0.505317	0.040553
C333	C	-0.135154	-0.018565	-0.713730
C334	C	-0.069525	-0.065067	-0.759737
C335	C	-0.041931	-0.062833	-0.816875
C336	C	-0.079966	-0.014096	-0.828006
C337	C	-0.145598	0.032409	-0.781998
C338	C	-0.173192	0.030175	-0.724859
H339	H	-0.041366	-0.101148	-0.751498
H340	H	0.006654	-0.097259	-0.850933
H341	H	-0.059539	-0.012442	-0.870303
H342	H	-0.173757	0.068490	-0.790237
H343	H	-0.221778	0.064602	-0.690801
C344	C	-0.133669	-0.319348	0.153690
C345	C	-0.127624	-0.333636	0.101977
C346	C	-0.098128	-0.391817	0.073267
C347	C	-0.074677	-0.435709	0.096270
C348	C	-0.080722	-0.421422	0.147987
C349	C	-0.110218	-0.363241	0.176697
H350	H	-0.144985	-0.301144	0.084945
H351	H	-0.093654	-0.402393	0.034983
H352	H	-0.052843	-0.478778	0.075018
H353	H	-0.063361	-0.453915	0.165018
H354	H	-0.114692	-0.352665	0.214981
H355	H	-0.465198	-0.161135	0.161154
H356	H	-0.139870	-0.040113	-0.430176
C357	C	-0.240529	-0.027073	-0.495555
C358	C	-0.299874	-0.024848	-0.465907
C359	C	-0.327474	-0.027071	-0.408765
C360	C	-0.295729	-0.031520	-0.381270
C361	C	-0.236381	-0.033746	-0.410919
C362	C	-0.208781	-0.031522	-0.468061
H363	H	-0.323376	-0.021554	-0.486260
H364	H	-0.371407	-0.025423	-0.386817
H365	H	-0.316160	-0.033165	-0.338970
H366	H	-0.212879	-0.037039	-0.390566
H367	H	-0.164847	-0.033170	-0.490009
C368	C	0.010817	-0.040334	-0.422731
C369	C	0.034281	-0.086821	-0.402327
C370	C	0.063782	-0.087644	-0.373648
C371	C	0.069819	-0.041980	-0.365372
C372	C	0.046355	0.004510	-0.385775
C373	C	0.016854	0.005333	-0.414455
H374	H	0.029812	-0.120627	-0.408454
H375	H	0.081151	-0.122060	-0.358544
H376	H	0.091658	-0.042590	-0.344141
H377	H	0.050824	0.038316	-0.379649
H378	H	-0.000515	0.039749	-0.429559
C379	C	-0.135811	-0.452227	-0.151034
C380	C	-0.173974	-0.462784	-0.101805
C381	C	-0.146561	-0.492438	-0.072088
C382	C	-0.080985	-0.511536	-0.091599
C383	C	-0.042817	-0.500979	-0.140830
C384	C	-0.070230	-0.471324	-0.170547
H385	H	-0.222521	-0.448647	-0.087360
H386	H	-0.174816	-0.500253	-0.035644
H387	H	-0.060692	-0.533488	-0.069600
H388	H	0.005730	-0.515116	-0.155275
H389	H	-0.041976	-0.463510	-0.206992
C390	C	-0.472867	0.019936	0.319363
C391	C	-0.496316	0.066397	0.363252
C392	C	-0.525802	0.067188	0.421432
C393	C	-0.531838	0.021517	0.435724
C394	C	-0.508389	-0.024948	0.391833
C395	C	-0.478903	-0.025738	0.333653
H396	H	-0.491848	0.100208	0.352674
H397	H	-0.543161	0.101585	0.453923
H398	H	-0.553665	0.022103	0.478792
H399	H	-0.512857	-0.058759	0.402411
H400	H	-0.461544	-0.060135	0.301162
C401	C	-0.133682	-0.319326	-0.019967
C402	C	-0.171071	-0.333640	0.025690
C403	C	-0.141588	-0.391829	0.024874
C404	C	-0.074716	-0.435703	-0.021600
C405	C	-0.037324	-0.421390	-0.067260
C406	C	-0.066807	-0.363202	-0.066443
H407	H	-0.220576	-0.301161	0.060096
H408	H	-0.169268	-0.402424	0.058675
H409	H	-0.052891	-0.478778	-0.022204
H410	H	0.012182	-0.453870	-0.101665
H411	H	-0.039126	-0.352607	-0.100244
C412	C	0.010790	-0.040298	-0.588351
C413	C	0.068949	-0.040688	-0.617443
C414	C	0.098423	-0.041483	-0.675625
C415	C	0.069739	-0.041886	-0.704714
C416	C	0.011577	-0.041495	-0.675622
C417	C	-0.017897	-0.040701	-0.617440
H418	H	0.090185	-0.040390	-0.595910
H419	H	0.141479	-0.041772	-0.697161
H420	H	0.091558	-0.042474	-0.747784
H421	H	-0.009659	-0.041794	-0.697155
H422	H	-0.060953	-0.040412	-0.595904
C423	C	-0.135102	-0.018657	-0.151365
C424	C	-0.127576	0.026731	-0.146664
C425	C	-0.099966	0.028936	-0.117135
C426	C	-0.079882	-0.014246	-0.092307
C427	C	-0.087408	-0.059637	-0.097008
C428	C	-0.115018	-0.061843	-0.126537
H429	H	-0.142444	0.058700	-0.165044
H430	H	-0.094395	0.062538	-0.113656
H431	H	-0.059444	-0.012613	-0.070448
H432	H	-0.072540	-0.091606	-0.078628
H433	H	-0.120588	-0.095445	-0.130016
H434	H	-0.284361	-0.161138	-0.019745
C435	C	0.528211	-0.848528	-0.547058
C436	C	0.566239	-0.897709	-0.536368
C437	C	0.538640	-0.927246	-0.506540
C438	C	0.473014	-0.907601	-0.487402
C439	C	0.434982	-0.858417	-0.498093
C440	C	0.462580	-0.828881	-0.527921
H441	H	0.614823	-0.912254	-0.550535
H442	H	0.566795	-0.963655	-0.498627
H443	H	0.452584	-0.929466	-0.465322
H444	H	0.386397	-0.843872	-0.483926
H445	H	0.434426	-0.792471	-0.535834
C446	C	-0.305147	-0.848566	0.018743
C447	C	-0.305650	-0.828918	0.065250
C448	C	-0.246305	-0.858449	0.063027
C449	C	-0.186457	-0.907629	0.014296
C450	C	-0.185951	-0.927280	-0.032214
C451	C	-0.245296	-0.897748	-0.029991
H452	H	-0.349956	-0.792510	0.101326
H453	H	-0.246680	-0.843902	0.097457
H454	H	-0.142526	-0.929490	0.012651
H455	H	-0.141645	-0.963688	-0.068291
H456	H	-0.244921	-0.912295	-0.064422
H457	H	-0.320546	-0.445187	0.019291
H458	H	-0.142934	-0.444508	-0.698232
H459	H	-0.322198	0.019752	0.161192
H460	H	-0.373212	-0.490223	0.026632
C461	C	-0.240461	-0.339017	-0.264520
C462	C	-0.299799	-0.281877	-0.234995
C463	C	-0.327205	-0.252228	-0.264719
C464	C	-0.295272	-0.279720	-0.323969
C465	C	-0.235930	-0.336863	-0.353497
C466	C	-0.208525	-0.366512	-0.323773
H467	H	-0.323441	-0.261523	-0.191132
H468	H	-0.371133	-0.209927	-0.242860
H469	H	-0.315559	-0.257772	-0.345972
H470	H	-0.212289	-0.357217	-0.397360
H471	H	-0.164596	-0.408813	-0.345632
C472	C	-0.470765	-0.848931	0.018727
C473	C	-0.536338	-0.829425	0.065232
C474	C	-0.563749	-0.859146	0.063007
C475	C	-0.525587	-0.908374	0.014276
C476	C	-0.460010	-0.927883	-0.032232
C477	C	-0.432599	-0.898161	-0.030007
H478	H	-0.564591	-0.792981	0.101308
H479	H	-0.612293	-0.844704	0.097436
H480	H	-0.545878	-0.930376	0.012629
H481	H	-0.431757	-0.964327	-0.068308
H482	H	-0.384055	-0.912603	-0.064436
H483	H	0.389910	-0.426640	-0.430197
H484	H	-0.089923	-0.026552	-0.256755
C485	C	0.382258	-0.577163	-0.422766
C486	C	0.410944	-0.634947	-0.451857
C487	C	0.381458	-0.663638	-0.423170
C488	C	0.323287	-0.634544	-0.365391
C489	C	0.294598	-0.576757	-0.336296
C490	C	0.324084	-0.548066	-0.364983
H491	H	0.454009	-0.656487	-0.494632
H492	H	0.402696	-0.706416	-0.444708
H493	H	0.301459	-0.655783	-0.344155
H494	H	0.251533	-0.555217	-0.293521
H495	H	0.302846	-0.505288	-0.343445
C496	C	0.132678	-0.452920	-0.151408
C497	C	0.105825	-0.472051	-0.171066
C498	C	0.078518	-0.501884	-0.141544
C499	C	0.078064	-0.512587	-0.092363
C500	C	0.104918	-0.493456	-0.072703
C501	C	0.132225	-0.463623	-0.102225
H502	H	0.106160	-0.464129	-0.207475
H503	H	0.058639	-0.516046	-0.156098
H504	H	0.057850	-0.534671	-0.070509
H505	H	0.104583	-0.501378	-0.036294
H506	H	0.152104	-0.449461	-0.087671
C507	C	-0.867667	-0.286903	0.018690
C508	C	-0.868160	-0.275853	-0.030045
C509	C	-0.895641	-0.218714	-0.032277
C510	C	-0.922630	-0.172624	0.014225
C511	C	-0.922139	-0.183673	0.062964
C512	C	-0.894657	-0.240812	0.065196
H513	H	-0.848180	-0.309972	-0.064472
H514	H	-0.896005	-0.210535	-0.068357
H515	H	-0.942973	-0.130326	0.012573
H516	H	-0.942118	-0.149553	0.097391
H517	H	-0.894294	-0.248990	0.101276
H518	H	0.483018	-0.743137	-0.509759
H519	H	0.678789	-0.841154	-0.698237
C520	C	0.468289	-0.338971	-0.495561
C521	C	0.410694	-0.286056	-0.483338
C522	C	0.351354	-0.256234	-0.426195
C523	C	0.349608	-0.279326	-0.381274
C524	C	0.407204	-0.332243	-0.393495
C525	C	0.466544	-0.362066	-0.450639
H526	H	0.411985	-0.268960	-0.516592
H527	H	0.308717	-0.217060	-0.417148
H528	H	0.305680	-0.257249	-0.338973
H529	H	0.405913	-0.349340	-0.360241
H530	H	0.509181	-0.401239	-0.459686
H531	H	-0.373220	-0.743176	0.026647
C532	C	0.694876	-0.452853	-0.713737
C533	C	0.752465	-0.505765	-0.725947
C534	C	0.811814	-0.535593	-0.783085
C535	C	0.813574	-0.512510	-0.828014
C536	C	0.755983	-0.459596	-0.815805
C537	C	0.696634	-0.429767	-0.758666
H538	H	0.751164	-0.522855	-0.692687
H539	H	0.854447	-0.574764	-0.792123
H540	H	0.857508	-0.534590	-0.870311
H541	H	0.757284	-0.442505	-0.849064
H542	H	0.654002	-0.390597	-0.749629
H543	H	-0.089960	-0.026487	-0.653543
H544	H	0.229830	-0.346752	-0.256460
H545	H	-0.233350	-0.346714	-0.509750
C546	C	0.529246	-0.286830	-0.548041
C547	C	0.509309	-0.241999	-0.571265
C548	C	0.481896	-0.184860	-0.541612
C549	C	0.474420	-0.172553	-0.488735
C550	C	0.494358	-0.217385	-0.465508
C551	C	0.521771	-0.274524	-0.495161
H552	H	0.514842	-0.251108	-0.610410
H553	H	0.467137	-0.151672	-0.558806
H554	H	0.454128	-0.130256	-0.466784
H555	H	0.488825	-0.208276	-0.426363
H556	H	0.536530	-0.307712	-0.477967
H557	H	0.626432	-0.743433	-0.653196
C558	C	0.260364	-0.018588	-0.546985
C559	C	0.219678	0.026803	-0.494069
C560	C	0.246978	0.029024	-0.464236
C561	C	0.314964	-0.014145	-0.487318
C562	C	0.355653	-0.059539	-0.540236
C563	C	0.328354	-0.061761	-0.570069
H564	H	0.169348	0.058762	-0.476980
H565	H	0.216857	0.062629	-0.425062
H566	H	0.335173	-0.012500	-0.465233
H567	H	0.405984	-0.091498	-0.557325
H568	H	0.358475	-0.095365	-0.609243
H569	H	-0.516310	-0.743491	0.026635
C570	C	0.156173	-0.735791	-0.661286
C571	C	0.155681	-0.686563	-0.671841
C572	C	0.128206	-0.656843	-0.701495
C573	C	0.101224	-0.676350	-0.720594
C574	C	0.101715	-0.725581	-0.710040
C575	C	0.129190	-0.755301	-0.680385
H576	H	0.175656	-0.672120	-0.657702
H577	H	0.127842	-0.620399	-0.709308
H578	H	0.080885	-0.654349	-0.742546
H579	H	0.081740	-0.740024	-0.724178
H580	H	0.129553	-0.791745	-0.672572
C581	C	-0.301419	-0.286525	-0.151403
C582	C	-0.300892	-0.240530	-0.171058
C583	C	-0.360223	-0.183381	-0.141530
C584	C	-0.420081	-0.172228	-0.092348
C585	C	-0.420611	-0.218225	-0.072691
C586	C	-0.361280	-0.275373	-0.102219
H587	H	-0.256579	-0.248785	-0.207467
H588	H	-0.359830	-0.149332	-0.156082
H589	H	-0.464002	-0.129924	-0.070490
H590	H	-0.464924	-0.209970	-0.036282
H591	H	-0.361672	-0.309423	-0.087667
C592	C	0.260754	-0.848906	-0.713769
C593	C	0.220066	-0.853602	-0.725980
C594	C	0.247363	-0.883134	-0.783120
C595	C	0.315347	-0.907970	-0.828049
C596	C	0.356039	-0.903274	-0.815839
C597	C	0.328742	-0.873742	-0.758699
H598	H	0.169737	-0.835217	-0.692721
H599	H	0.217240	-0.886610	-0.792159
H600	H	0.335554	-0.929831	-0.870347
H601	H	0.406368	-0.921660	-0.849098
H602	H	0.358865	-0.870266	-0.749660
H603	H	0.253562	-0.019130	-0.698173
H604	H	0.626803	-0.490155	-0.653559
C605	C	-0.301107	-0.018632	-0.151005
C606	C	-0.358803	0.026769	-0.146161
C607	C	-0.418147	0.028989	-0.116447
C608	C	-0.419795	-0.014192	-0.091577
C609	C	-0.362096	-0.059597	-0.096420
C610	C	-0.302753	-0.061817	-0.126134
H611	H	-0.357586	0.058738	-0.164572
H612	H	-0.460859	0.062601	-0.112862
H613	H	-0.463724	-0.012548	-0.069581
H614	H	-0.363314	-0.091565	-0.078009
H615	H	-0.260041	-0.095428	-0.129719
H616	H	-0.769881	-0.490228	0.026630
H617	H	-0.770177	-0.346778	0.026608
H618	H	-0.516285	-0.346783	0.026595
H619	H	0.139467	-0.301722	-0.158739
H620	H	-0.463617	-0.301742	0.019258
C621	C	0.011189	-0.577548	-0.422761
C622	C	-0.017496	-0.548464	-0.364974
C623	C	0.011982	-0.577163	-0.336282
C624	C	0.070145	-0.634946	-0.365376
C625	C	0.098834	-0.664033	-0.423166
C626	C	0.069356	-0.635334	-0.451859
H627	H	-0.060555	-0.505687	-0.343433
H628	H	-0.009255	-0.555630	-0.293502
H629	H	0.091967	-0.656191	-0.344137
H630	H	0.141893	-0.706811	-0.444707
H631	H	0.090593	-0.656867	-0.494639
H632	H	0.163613	-0.743829	-0.510434
H633	H	0.003536	-0.570083	-0.573284
H634	H	-0.139480	-0.427024	-0.430222
H635	H	0.163208	-0.026470	-0.653142
H636	H	-0.233346	-0.026524	-0.256439
C637	C	0.261101	-0.849270	-0.548077
C638	C	0.261591	-0.898496	-0.537518
C639	C	0.289073	-0.928218	-0.507868
C640	C	0.316064	-0.908713	-0.488778
C641	C	0.315574	-0.859484	-0.499337
C642	C	0.288092	-0.829762	-0.528987
H643	H	0.241610	-0.912937	-0.551650
H644	H	0.289435	-0.964660	-0.500052
H645	H	0.336407	-0.930715	-0.466830
H646	H	0.335555	-0.845043	-0.485206
H647	H	0.287730	-0.793320	-0.536803
H648	H	-0.090264	-0.489862	-0.653196
H649	H	-0.090272	-0.489868	-0.256471
H650	H	-0.285717	-0.019156	-0.555752
