data_functionalizedCrystal
_audit_creation_method	'MofGen! by Chris Wilmer'
_symmetry_space_group_name_H-M	'P1'
_symmetry_Int_Tables_number	1
_symmetry_cell_setting	triclinic
loop_
_symmetry_equiv_pos_as_xyz
  x,y,z
_cell_length_a	11.026660
_cell_length_b	12.811415
_cell_length_c	10.065875
_cell_angle_alpha	93.481155
_cell_angle_beta	79.302288
_cell_angle_gamma	96.258766
loop_
_atom_site_label
_atom_site_type_symbol
_atom_site_fract_x
_atom_site_fract_y
_atom_site_fract_z
O1	O	1.638220	0.422277	-0.165762
O2	O	1.283709	0.372836	-0.159644
O3	O	1.466980	0.248410	-0.144237
O4	O	1.454949	0.546702	-0.181168
O5	O	1.432035	0.272258	0.079798
O6	O	1.248764	0.396684	0.064392
O7	O	1.603275	0.446125	0.058274
Zn8	Zn	1.420472	0.425191	0.096904
Zn9	Zn	1.466512	0.393770	-0.198273
O10	O	1.420005	0.570550	0.042868
C11	C	1.220803	0.375638	-0.046497
C12	C	1.085426	0.348448	-0.043132
C13	C	0.873535	0.395433	-0.048953
C14	C	1.013453	0.423538	-0.052430
C15	C	1.447762	0.221553	-0.027421
C16	C	1.442548	0.105993	-0.013123
C17	C	1.470827	-0.137151	-0.230526
C18	C	1.465928	-0.245731	-0.217098
C19	C	1.427843	-0.219748	0.027161
C20	C	1.432741	-0.111169	0.013733
C21	C	1.454236	-0.069875	-0.115115
C22	C	1.459143	0.038708	-0.128542
C23	C	1.421049	0.064687	0.115715
C24	C	1.416150	-0.043892	0.129143
C25	C	1.666181	0.443322	-0.054876
C26	C	1.801560	0.470512	-0.058250
C27	C	1.439222	0.597408	-0.073952
C28	C	1.444439	0.712967	-0.088259
N29	N	1.389059	0.446636	0.298354
N30	N	1.497935	0.372319	-0.399723
C31	C	1.455575	0.401223	0.371756
C32	C	1.431409	0.417738	0.526878
H33	H	0.843524	0.555598	-0.068775
C34	C	1.483527	0.193612	-0.257587
C35	C	1.482737	0.084101	-0.270167
H36	H	1.498089	0.221631	-0.345024
H37	H	1.405668	0.211440	-0.208932
H38	H	1.547376	0.222035	-0.210293
H39	H	1.418882	0.055678	-0.317453
H40	H	1.560607	0.066265	-0.318842
C41	C	1.285668	0.112459	0.320773
C42	C	1.402819	0.138635	0.242593
H43	H	1.274427	0.158107	0.399104
H44	H	1.223453	0.119641	0.269064
H45	H	1.279683	0.041878	0.347191
H46	H	1.408801	0.209214	0.216167
H47	H	1.465051	0.131463	0.294313
H48	H	1.488340	-0.103528	-0.335439
H49	H	0.831566	0.310350	-0.038399
C50	C	1.197736	0.544015	-0.067365
C51	C	1.070089	0.538408	-0.066665
H52	H	1.232700	0.614929	-0.076165
H53	H	1.211357	0.518795	0.014914
H54	H	1.235722	0.502137	-0.141336
H55	H	1.032102	0.580280	0.007312
H56	H	1.056459	0.563642	-0.148954
C57	C	0.901152	0.227962	-0.028235
C58	C	1.028798	0.233574	-0.028922
H59	H	0.866197	0.157043	-0.019473
H60	H	0.863158	0.269816	0.045738
H61	H	0.887538	0.253204	-0.110518
H62	H	1.042412	0.208339	0.053366
H63	H	1.066804	0.191704	-0.102900
H64	H	1.314217	0.497736	0.350353
H65	H	1.530409	0.350113	0.319760
H66	H	1.479434	-0.300505	-0.311078
H67	H	1.410333	-0.253391	0.132062
H68	H	1.398645	-0.077530	0.234047
C69	C	1.655849	0.264487	0.627638
C70	C	1.598970	0.303320	0.530105
H71	H	1.718217	0.221886	0.584314
H72	H	1.692379	0.321554	0.676292
H73	H	1.595525	0.223670	0.688442
H74	H	1.659294	0.344144	0.469306
H75	H	1.562441	0.246244	0.481429
C76	C	1.215231	0.444450	0.567882
C77	C	1.330368	0.486729	0.597059
H78	H	1.152855	0.487039	0.611218
H79	H	1.218223	0.442413	0.472855
H80	H	1.196522	0.375229	0.599808
H81	H	1.349082	0.555948	0.565124
H82	H	1.327378	0.488778	0.692106
