data_functionalizedCrystal
_audit_creation_method	'MofGen! by Chris Wilmer'
_symmetry_space_group_name_H-M	'P1'
_symmetry_Int_Tables_number	1
_symmetry_cell_setting	triclinic
loop_
_symmetry_equiv_pos_as_xyz
  x,y,z
_cell_length_a	13.033409
_cell_length_b	12.645330
_cell_length_c	13.032268
_cell_angle_alpha	82.850170
_cell_angle_beta	74.837427
_cell_angle_gamma	82.843316
loop_
_atom_site_label
_atom_site_type_symbol
_atom_site_fract_x
_atom_site_fract_y
_atom_site_fract_z
Zn1	Zn	1.547502	-0.671910	0.393924
Zn2	Zn	2.047502	-0.171910	0.893924
Zn3	Zn	1.569969	-0.829219	0.216328
Zn4	Zn	2.069969	-0.329219	0.716328
Zn5	Zn	1.392451	-0.632036	0.238931
Zn6	Zn	1.892451	-0.132036	0.738931
Zn7	Zn	1.369886	-0.829179	0.416479
Zn8	Zn	1.869886	-0.329179	0.916479
O9	O	1.469952	-0.740586	0.316415
O10	O	1.969952	-0.240586	0.816415
O11	O	1.699107	-0.709482	0.351466
O12	O	2.199107	-0.209482	0.851466
O13	O	1.565266	-0.786391	0.070697
O14	O	2.065266	-0.286391	0.570697
O15	O	1.413060	-0.488986	0.259512
O16	O	1.913060	0.011014	0.759512
O17	O	1.715613	-0.825056	0.220987
O18	O	2.215613	-0.325056	0.720987
O19	O	1.526975	-0.518282	0.373384
O20	O	2.026975	-0.018282	0.873384
O21	O	1.434845	-0.641521	0.087304
O22	O	1.934845	-0.141521	0.587304
O23	O	1.240833	-0.641483	0.281382
O24	O	1.740833	-0.141483	0.781382
O25	O	1.374601	-0.824988	0.562116
O26	O	1.874601	-0.324988	1.062116
O27	O	1.224255	-0.786323	0.411826
O28	O	1.724255	-0.286323	0.911826
O29	O	1.505095	-0.709443	0.545545
O30	O	2.005095	-0.209443	1.045545
O31	O	1.543386	-0.977553	0.242858
O32	O	2.043386	-0.477553	0.742858
O33	O	1.396387	-0.977524	0.389908
O34	O	1.896387	-0.477524	0.889908
C35	C	1.194007	-0.709573	0.351505
C36	C	1.694007	-0.209573	0.851505
C37	C	1.075953	-0.696334	0.366542
C38	C	1.575953	-0.196334	0.866542
C39	C	0.909483	-0.733822	0.324129
C40	C	1.409483	-0.233822	0.824129
C41	C	1.031498	-0.747508	0.308583
C42	C	1.531498	-0.247508	0.808583
C43	C	1.469902	-1.016007	0.316397
C44	C	1.969902	-0.516007	0.816397
C45	C	1.469973	-1.133848	0.316412
C46	C	1.969973	-0.633848	0.816412
C47	C	1.562340	-1.301353	0.223753
C48	C	2.062340	-0.801353	0.723753
C49	C	1.562581	-1.178845	0.223921
C50	C	2.062581	-0.678845	0.723921
C51	C	1.486103	-1.194227	0.424510
C52	C	1.986103	-0.694227	0.924510
C53	C	1.486808	-1.316849	0.423991
C54	C	1.986808	-0.816849	0.923991
C55	C	1.361304	-1.285345	0.302082
C56	C	1.861304	-0.785345	0.802082
C57	C	1.362161	-1.162519	0.299502
C58	C	1.862161	-0.662519	0.799502
C59	C	1.746974	-0.771721	0.281189
C60	C	2.246974	-0.271721	0.781189
C61	C	1.865024	-0.784989	0.266178
C62	C	2.365024	-0.284989	0.766178
C63	C	1.434825	-0.771659	0.593445
C64	C	1.934825	-0.271659	1.093445
C65	C	1.419856	-0.784901	0.711499
C66	C	1.919856	-0.284901	1.211499
C67	C	1.470028	-0.464095	0.316453
C68	C	1.970028	0.035905	0.816453
C69	C	1.470061	-0.346272	0.316470
C70	C	1.970061	0.153728	0.816470
C71	C	1.505003	-0.709564	0.040455
C72	C	2.005003	-0.209564	0.540455
C73	C	1.520178	-0.696047	-0.077624
C74	C	2.020178	-0.196047	0.422376
C75	C	1.477748	-0.733635	0.755932
C76	C	1.977748	-0.233635	1.255932
C77	C	1.462278	-0.747320	0.877947
C78	C	1.962278	-0.247320	1.377947
H79	H	0.917292	-0.838934	0.205061
H80	H	1.417292	-0.338934	0.705061
H81	H	1.538760	-0.679610	0.703643
H82	H	2.038760	-0.179610	1.203643
Cl83	Cl	1.368060	-0.830725	0.958667
Cl84	Cl	1.868060	-0.330725	1.458667
Cl85	Cl	1.614405	-0.612651	0.841657
Cl86	Cl	2.114405	-0.112651	1.341657
H87	H	1.358833	-0.838915	0.763790
H88	H	1.858833	-0.338915	1.263790
H89	H	1.083763	-0.801457	0.247461
H90	H	1.583763	-0.301457	0.747461
Cl91	Cl	0.995269	-0.613052	0.460923
Cl92	Cl	1.495269	-0.113052	0.960923
Cl93	Cl	1.549474	-1.114809	0.099505
Cl94	Cl	2.049474	-0.614809	0.599505
Cl95	Cl	0.828792	-0.650551	0.418511
Cl96	Cl	1.328792	-0.150551	0.918511
Cl97	Cl	1.334421	-1.314509	0.183653
Cl98	Cl	1.834421	-0.814509	0.683653
Cl99	Cl	1.549728	-1.329282	0.098886
Cl100	Cl	2.049728	-0.829282	0.598886
H101	H	1.349742	-1.121689	0.220021
H102	H	1.849742	-0.621689	0.720021
H103	H	1.642761	-1.343492	0.231981
H104	H	2.142761	-0.843492	0.731981
H105	H	1.643422	-1.160920	0.232304
H106	H	2.143422	-0.660920	0.732304
H107	H	1.421763	-1.347248	0.494678
H108	H	1.921763	-0.847248	0.994678
Cl109	Cl	1.608890	-1.379339	0.445368
Cl110	Cl	2.108890	-0.879339	0.945368
H111	H	1.420321	-1.165671	0.494828
H112	H	1.920321	-0.665671	0.994828
Cl113	Cl	1.606673	-1.165072	0.446702
Cl114	Cl	2.106673	-0.665072	0.946702
H115	H	1.290851	-1.130934	0.363229
H116	H	1.790851	-0.630934	0.863229
H117	H	1.292723	-1.314246	0.369785
H118	H	1.792723	-0.814246	0.869785
