data_functionalizedCrystal
_audit_creation_method	'MofGen! by Chris Wilmer'
_symmetry_space_group_name_H-M	'P1'
_symmetry_Int_Tables_number	1
_symmetry_cell_setting	triclinic
loop_
_symmetry_equiv_pos_as_xyz
  x,y,z
_cell_length_a	12.594517
_cell_length_b	12.594516
_cell_length_c	17.077396
_cell_angle_alpha	89.975179
_cell_angle_beta	89.980091
_cell_angle_gamma	90.011616
loop_
_atom_site_label
_atom_site_type_symbol
_atom_site_fract_x
_atom_site_fract_y
_atom_site_fract_z
Zn1	Zn	1.627283	-0.423748	-0.443871
Zn2	Zn	1.627192	-0.601749	-0.312614
Zn3	Zn	1.449292	-0.423784	-0.312618
Zn4	Zn	1.449283	-0.601684	-0.443836
O5	O	1.538262	-0.512741	-0.378235
O6	O	1.776217	-0.447372	-0.426472
O7	O	1.603558	-0.578183	-0.202767
O8	O	1.472945	-0.274833	-0.330046
O9	O	1.776150	-0.578148	-0.330038
O10	O	1.603715	-0.274807	-0.426477
O11	O	1.472856	-0.447433	-0.202771
O12	O	1.300345	-0.447371	-0.330012
O13	O	1.472929	-0.578038	-0.553688
O14	O	1.300338	-0.578073	-0.426417
O15	O	1.603706	-0.447309	-0.553714
O16	O	1.603550	-0.750686	-0.330004
O17	O	1.472841	-0.750638	-0.426413
C18	C	1.261721	-0.512720	-0.378212
C19	C	1.143416	-0.512736	-0.378220
C20	C	1.074136	-0.441550	-0.325886
C21	C	1.003332	-0.538637	-0.306578
C22	C	1.003420	-0.415696	-0.397541
C23	C	1.074171	-0.609874	-0.358876
C24	C	1.074265	-0.486868	-0.449872
C25	C	1.003494	-0.584023	-0.430592
C26	C	1.538213	-0.789282	-0.378221
C27	C	1.538289	-0.907587	-0.378242
C28	C	1.609465	-0.976828	-0.325861
C29	C	1.635473	-1.047529	-0.397508
C30	C	1.512414	-1.047685	-0.306640
C31	C	1.564347	-0.976731	-0.449927
C32	C	1.441244	-0.976880	-0.359010
C33	C	1.467215	-1.047550	-0.430707
C34	C	1.815883	-0.512763	-0.378259
C35	C	1.934189	-0.512773	-0.378269
C36	C	1.538327	-0.512663	-0.582979
C37	C	1.538354	-0.512629	-0.670229
C38	C	1.538341	-0.235120	-0.378266
C39	C	1.538374	-0.116815	-0.378279
C40	C	1.606452	-0.444553	-0.711234
C41	C	1.606465	-0.444518	-0.793214
C42	C	1.538384	-0.512564	-0.834189
C43	C	1.470279	-0.580644	-0.793178
C44	C	1.470262	-0.580673	-0.711199
C45	C	1.470322	-0.580580	-0.964048
C46	C	1.470340	-0.580552	-1.046033
C47	C	1.606525	-0.444424	-1.046064
C48	C	1.606508	-0.444453	-0.964085
C49	C	1.538403	-0.512534	-0.923080
C50	C	1.538259	-0.512742	-0.174287
C51	C	1.538438	-0.512476	-0.087038
H52	H	1.105153	-0.381409	-0.281573
H53	H	1.669665	-0.945774	-0.281604
C54	C	1.284662	-1.051965	-0.471060
C55	C	1.386008	-1.089216	-0.490591
H56	H	1.234535	-1.077687	-0.508035
H57	H	1.266097	-1.076399	-0.420241
H58	H	1.284620	-0.976544	-0.471673
H59	H	1.386052	-1.164638	-0.489973
H60	H	1.404578	-1.064789	-0.541424
H61	H	1.414901	-0.635960	-1.079392
H62	H	1.661951	-0.389050	-0.930726
C63	C	1.030094	-0.788961	-0.323179
C64	C	1.115938	-0.720714	-0.336744
H65	H	1.055883	-0.857387	-0.309520
H66	H	0.988034	-0.761844	-0.281571
H67	H	0.988155	-0.793948	-0.369255
H68	H	1.157873	-0.715720	-0.290666
H69	H	1.158015	-0.747837	-0.378356
C70	C	1.749614	-0.429801	-0.619064
C71	C	1.681287	-0.369750	-0.666198
H72	H	1.795815	-0.383615	-0.591267
H73	H	1.709057	-0.470341	-0.582912
H74	H	1.790321	-0.476162	-0.651053
H75	H	1.640573	-0.323395	-0.634209
H76	H	1.721848	-0.329193	-0.702354
C77	C	1.047805	-0.715992	-0.526614
C78	C	0.961874	-0.665401	-0.490364
H79	H	1.022106	-0.766238	-0.563508
H80	H	1.090288	-0.664696	-0.552739
H81	H	1.089288	-0.751369	-0.488178
H82	H	0.920395	-0.630018	-0.528800
H83	H	0.919373	-0.716706	-0.464239
C84	C	1.327106	-0.595420	-0.871843
C85	C	1.395462	-0.655426	-0.918983
H86	H	1.280892	-0.641633	-0.844029
H87	H	1.367642	-0.554911	-0.835707
H88	H	1.286414	-0.549033	-0.903830
H89	H	1.436160	-0.701807	-0.886995
H90	H	1.354922	-0.695953	-0.955124
C91	C	1.820678	-1.053749	-0.364550
C92	C	1.746308	-1.089439	-0.419496
H93	H	1.889101	-1.079626	-0.378119
H94	H	1.821610	-0.978341	-0.364232
H95	H	1.801766	-1.079093	-0.314035
H96	H	1.765215	-1.064089	-0.470011
H97	H	1.745378	-1.164863	-0.419822
C98	C	1.227538	-0.458516	-0.530867
C99	C	1.116372	-0.457262	-0.531617
H100	H	1.253534	-0.440234	-0.581335
H101	H	1.252765	-0.408643	-0.493544
H102	H	1.251706	-0.527530	-0.517227
H103	H	1.092205	-0.388245	-0.545251
H104	H	1.091135	-0.507137	-0.568952
H105	H	1.586186	-0.945697	-0.510547
H106	H	0.972287	-0.333627	-0.413835
C107	C	1.621366	-0.301189	-1.138251
C108	C	1.681376	-0.369569	-1.091126
H109	H	1.667577	-0.254974	-1.166067
H110	H	1.580837	-0.341706	-1.174387
H111	H	1.574997	-0.260498	-1.106254
H112	H	1.727740	-0.410265	-1.123123
H113	H	1.721923	-0.329047	-1.054986
H114	H	1.359161	-0.945821	-0.342701
C115	C	1.741089	-0.309982	-0.785010
C116	C	1.681328	-0.369693	-0.838287
H117	H	1.787312	-0.263792	-0.812838
H118	H	1.694724	-0.269274	-0.753036
H119	H	1.781774	-0.356389	-0.753035
H120	H	1.640636	-0.323286	-0.870259
H121	H	1.727698	-0.410404	-0.870275
H122	H	1.414843	-0.636045	-0.826546
H123	H	1.414799	-0.636097	-0.677814
H124	H	0.972177	-0.560540	-0.246005
C125	C	1.557416	-1.054045	-0.170109
C126	C	1.482811	-1.089752	-0.224877
H127	H	1.539141	-1.080010	-0.119632
H128	H	1.625887	-1.079280	-0.184144
H129	H	1.557800	-0.978627	-0.169402
H130	H	1.482432	-1.165171	-0.225588
H131	H	1.414322	-1.064523	-0.210838
