data_functionalizedCrystal
_audit_creation_method	'MofGen! by Chris Wilmer'
_symmetry_space_group_name_H-M	'P1'
_symmetry_Int_Tables_number	1
_symmetry_cell_setting	triclinic
loop_
_symmetry_equiv_pos_as_xyz
  x,y,z
_cell_length_a	12.645331
_cell_length_b	18.101395
_cell_length_c	18.101389
_cell_angle_alpha	89.983159
_cell_angle_beta	89.980806
_cell_angle_gamma	90.030083
loop_
_atom_site_label
_atom_site_type_symbol
_atom_site_fract_x
_atom_site_fract_y
_atom_site_fract_z
Zn1	Zn	1.620596	-0.294927	-0.418745
Zn2	Zn	2.120596	0.205073	0.081255
Zn3	Zn	1.620447	-0.418753	-0.294907
Zn4	Zn	2.120447	0.081247	0.205093
Zn5	Zn	1.443321	-0.294928	-0.294918
Zn6	Zn	1.943321	0.205072	0.205082
Zn7	Zn	1.443251	-0.418729	-0.418707
Zn8	Zn	1.943251	0.081271	0.081293
O9	O	1.531904	-0.356834	-0.356819
O10	O	2.031904	0.143166	0.143181
O11	O	1.768923	-0.311363	-0.402330
O12	O	2.268923	0.188637	0.097670
O13	O	1.596918	-0.402337	-0.191276
O14	O	2.096918	0.097663	0.308724
O15	O	1.466929	-0.191295	-0.311364
O16	O	1.966929	0.308705	0.188636
O17	O	1.768814	-0.402337	-0.311346
O18	O	2.268814	0.097663	0.188654
O19	O	1.597172	-0.191295	-0.402340
O20	O	2.097172	0.308705	0.097660
O21	O	1.466785	-0.311364	-0.191283
O22	O	1.966785	0.188636	0.308717
O23	O	1.294965	-0.311341	-0.311327
O24	O	1.794965	0.188659	0.188673
O25	O	1.466809	-0.402297	-0.522345
O26	O	1.966809	0.097703	-0.022345
O27	O	1.294913	-0.402297	-0.402274
O28	O	1.794913	0.097703	0.097726
O29	O	1.597104	-0.311340	-0.522373
O30	O	2.097104	0.188660	-0.022373
O31	O	1.596850	-0.522383	-0.311309
O32	O	2.096850	-0.022383	0.188691
O33	O	1.466664	-0.522366	-0.402264
O34	O	1.966664	-0.022366	0.097736
C35	C	1.256474	-0.356817	-0.356798
C36	C	1.756474	0.143183	0.143202
C37	C	1.138644	-0.356827	-0.356806
C38	C	1.638644	0.143173	0.143194
C39	C	1.531762	-0.549245	-0.356798
C40	C	2.031762	-0.049245	0.143202
C41	C	1.531798	-0.631559	-0.356813
C42	C	2.031798	-0.131559	0.143187
C43	C	0.971077	-0.299343	-0.299907
C44	C	1.471077	0.200657	0.200093
C45	C	1.093637	-0.299492	-0.299656
C46	C	1.593637	0.200508	0.200344
C47	C	1.094099	-0.434837	-0.335485
C48	C	1.594099	0.065163	0.164515
C49	C	0.971501	-0.434522	-0.335096
C50	C	1.471501	0.065478	0.164904
C51	C	0.971494	-0.337044	-0.435247
C52	C	1.471494	0.162956	0.064753
C53	C	1.094101	-0.335301	-0.434812
C54	C	1.594101	0.164699	0.065188
C55	C	1.532031	-0.930650	-0.356853
C56	C	2.032031	-0.430650	0.143147
C57	C	1.450312	-0.899345	-0.414221
C58	C	1.950312	-0.399345	0.085779
C59	C	1.449923	-0.813727	-0.414042
C60	C	1.949923	-0.313727	0.085958
C61	C	1.531915	-0.782268	-0.356834
C62	C	2.031915	-0.282268	0.143166
C63	C	1.501670	-0.813404	-0.278784
C64	C	2.001670	-0.313404	0.221216
C65	C	1.501143	-0.899049	-0.279127
C66	C	2.001143	-0.399049	0.220873
C67	C	1.644175	-0.898999	-0.376847
C68	C	2.144175	-0.398999	0.123153
C69	C	1.643515	-0.813348	-0.378559
C70	C	2.143515	-0.313348	0.121441
C71	C	1.531852	-0.698408	-0.356818
C72	C	2.031852	-0.198408	0.143182
C73	C	1.532092	-1.014509	-0.356863
C74	C	2.032092	-0.514509	0.143137
C75	C	1.808409	-0.356853	-0.356841
C76	C	2.308409	0.143147	0.143159
C77	C	1.926239	-0.356860	-0.356851
C78	C	2.426239	0.143140	0.143149
C79	C	1.531965	-0.356816	-0.549981
C80	C	2.031965	0.143184	-0.049981
C81	C	1.531991	-0.356808	-0.632295
C82	C	2.031991	0.143192	-0.132295
C83	C	1.532075	-0.163673	-0.356857
C84	C	2.032075	0.336327	0.143143
C85	C	1.532148	-0.081358	-0.356874
C86	C	2.032148	0.418642	0.143126
C87	C	1.532053	-0.356669	-0.931387
C88	C	2.032053	0.143331	-0.431387
C89	C	1.449793	-0.413714	-0.900044
C90	C	1.949793	0.086286	-0.400044
C91	C	1.450015	-0.413979	-0.814425
C92	C	1.950015	0.086021	-0.314425
C93	C	1.532021	-0.356738	-0.783004
C94	C	2.032021	0.143262	-0.283004
C95	C	1.643712	-0.377923	-0.814103
C96	C	2.143712	0.122077	-0.314103
C97	C	1.643254	-0.378298	-0.899748
C98	C	2.143254	0.121702	-0.399748
C99	C	1.503593	-0.278311	-0.899810
C100	C	2.003593	0.221689	-0.399810
C101	C	1.501108	-0.278764	-0.814160
C102	C	2.001108	0.221236	-0.314160
C103	C	1.532010	-0.356775	-0.699144
C104	C	2.032010	0.143225	-0.199144
C105	C	1.532071	-0.356633	-1.015246
C106	C	2.032071	0.143367	-0.515246
C107	C	1.531904	-0.356800	-0.164409
C108	C	2.031904	0.143200	0.335591
C109	C	1.532083	-0.356599	-0.082095
C110	C	2.032083	0.143401	0.417905
H111	H	1.123756	-0.241644	-0.313021
H112	H	1.623756	0.258356	0.186979
H113	H	1.367694	-0.920928	-0.401144
H114	H	1.867694	-0.420928	0.098856
Br115	Br	1.750371	-0.777643	-0.313998
Br116	Br	2.250371	-0.277643	0.186002
H117	H	0.941631	-0.241322	-0.313128
H118	H	1.441631	0.258678	0.186872
H119	H	0.942498	-0.378937	-0.477675
H120	H	1.442498	0.121063	0.022325
Br121	Br	1.366482	-0.777760	-0.250046
Br122	Br	1.866482	-0.277760	0.249954
Br123	Br	1.681536	-0.779430	-0.474298
Br124	Br	2.181536	-0.279430	0.025702
Br125	Br	1.481461	-0.778632	-0.510501
Br126	Br	1.981461	-0.278632	-0.010501
H127	H	1.671750	-0.920557	-0.432791
H128	H	2.171750	-0.420557	0.067209
H129	H	1.124754	-0.451932	-0.278788
H130	H	1.624754	0.048068	0.221212
H131	H	1.366800	-0.793300	-0.400798
H132	H	1.866800	-0.293300	0.099202
H133	H	1.705058	-0.919242	-0.335063
H134	H	2.205058	-0.419242	0.164937
H135	H	1.366720	-0.400593	-0.920634
H136	H	1.866720	0.099407	-0.420634
H137	H	1.367192	-0.400722	-0.793398
H138	H	1.867192	0.099278	-0.293398
H139	H	1.556651	-0.234005	-0.792771
H140	H	2.056651	0.265995	-0.292771
H141	H	0.940230	-0.312294	-0.242154
H142	H	1.440230	0.187706	0.257846
Br143	Br	1.481531	-0.933611	-0.510997
Br144	Br	1.981531	-0.433611	-0.010997
Br145	Br	1.364511	-0.932453	-0.250897
Br146	Br	1.864511	-0.432453	0.249103
H147	H	1.468395	-0.471441	-0.921570
H148	H	1.968395	0.028559	-0.421570
H149	H	1.558082	-0.919759	-0.234926
H150	H	2.058082	-0.419759	0.265074
Br151	Br	1.597751	-0.779445	-0.205594
Br152	Br	2.097751	-0.279445	0.294406
H153	H	1.468804	-0.472060	-0.793943
H154	H	1.968804	0.027940	-0.293943
H155	H	1.706621	-0.338552	-0.920484
H156	H	2.206621	0.161448	-0.420484
Br157	Br	1.142447	-0.321313	-0.202825
Br158	Br	1.642447	0.178687	0.297175
Br159	Br	0.923749	-0.462533	-0.239573
Br160	Br	1.423749	0.037467	0.260427
H161	H	1.123223	-0.277895	-0.450889
H162	H	1.623223	0.222105	0.049111
H163	H	1.667380	-0.435578	-0.919732
H164	H	2.167380	0.064422	-0.419732
H165	H	1.706648	-0.337679	-0.793752
H166	H	2.206648	0.162321	-0.293752
H167	H	0.941838	-0.478827	-0.374763
H168	H	1.441838	0.021173	0.125237
Br169	Br	1.603455	-0.207472	-0.933593
Br170	Br	2.103455	0.292528	-0.433593
H171	H	1.668256	-0.434595	-0.792661
H172	H	2.168256	0.065405	-0.292661
Br173	Br	0.920031	-0.243888	-0.467565
Br174	Br	1.420031	0.256112	0.032435
Br175	Br	1.370204	-0.246141	-0.935793
Br176	Br	1.870204	0.253859	-0.435793
H177	H	1.418914	-0.262787	-0.793833
H178	H	1.918914	0.237213	-0.293833
H179	H	1.123251	-0.478836	-0.375658
H180	H	1.623251	0.021164	0.124342
Br181	Br	1.145162	-0.400036	-0.509313
Br182	Br	1.645162	0.099964	-0.009313
