data_functionalizedCrystal
_audit_creation_method	'MofGen! by Chris Wilmer'
_symmetry_space_group_name_H-M	'P1'
_symmetry_Int_Tables_number	1
_symmetry_cell_setting	triclinic
loop_
_symmetry_equiv_pos_as_xyz
  x,y,z
_cell_length_a	18.050590
_cell_length_b	25.639240
_cell_length_c	18.050583
_cell_angle_alpha	89.958294
_cell_angle_beta	89.997453
_cell_angle_gamma	90.021926
loop_
_atom_site_label
_atom_site_type_symbol
_atom_site_fract_x
_atom_site_fract_y
_atom_site_fract_z
Zn1	Zn	1.135293	-0.208284	-0.419554
Zn2	Zn	1.385293	0.041716	-0.169554
Zn3	Zn	1.635293	0.291716	0.080446
Zn4	Zn	1.885293	0.541716	0.330446
Zn5	Zn	1.135187	-0.295727	-0.295344
Zn6	Zn	1.385187	-0.045727	-0.045344
Zn7	Zn	1.635187	0.204273	0.204656
Zn8	Zn	1.885187	0.454273	0.454656
Zn9	Zn	1.011105	-0.208291	-0.295412
Zn10	Zn	1.261105	0.041709	-0.045412
Zn11	Zn	1.511105	0.291709	0.204588
Zn12	Zn	1.761105	0.541709	0.454588
Zn13	Zn	1.011051	-0.295674	-0.419526
Zn14	Zn	1.261051	-0.045674	-0.169526
Zn15	Zn	1.511051	0.204326	0.080474
Zn16	Zn	1.761051	0.454326	0.330474
O17	O	1.073159	-0.251994	-0.357459
O18	O	1.323159	-0.001994	-0.107459
O19	O	1.573159	0.248006	0.142541
O20	O	1.823159	0.498006	0.392541
O21	O	1.239204	-0.219903	-0.403060
O22	O	1.489204	0.030097	-0.153060
O23	O	1.739204	0.280097	0.096940
O24	O	1.989204	0.530097	0.346940
O25	O	1.118706	-0.284154	-0.191428
O26	O	1.368706	-0.034154	0.058572
O27	O	1.618706	0.215846	0.308572
O28	O	1.868706	0.465846	0.558572
O29	O	1.027646	-0.135125	-0.311920
O30	O	1.277646	0.114875	-0.061920
O31	O	1.527646	0.364875	0.188080
O32	O	1.777646	0.614875	0.438080
O33	O	1.239126	-0.284147	-0.311804
O34	O	1.489126	-0.034147	-0.061804
O35	O	1.739126	0.215853	0.188196
O36	O	1.989126	0.465853	0.438196
O37	O	1.118887	-0.135120	-0.403126
O38	O	1.368887	0.114880	-0.153126
O39	O	1.618887	0.364880	0.096874
O40	O	1.868887	0.614880	0.346874
O41	O	1.027543	-0.219915	-0.191478
O42	O	1.277543	0.030085	0.058522
O43	O	1.527543	0.280085	0.308522
O44	O	1.777543	0.530085	0.558522
O45	O	0.907173	-0.219863	-0.311893
O46	O	1.157173	0.030137	-0.061893
O47	O	1.407173	0.280137	0.188107
O48	O	1.657173	0.530137	0.438107
O49	O	1.027553	-0.284056	-0.523455
O50	O	1.277553	-0.034056	-0.273455
O51	O	1.527553	0.215944	-0.023455
O52	O	1.777553	0.465944	0.226545
O53	O	0.907133	-0.284063	-0.403079
O54	O	1.157133	-0.034063	-0.153079
O55	O	1.407133	0.215937	0.096921
O56	O	1.657133	0.465937	0.346921
O57	O	1.118834	-0.219852	-0.523475
O58	O	1.368834	0.030148	-0.273475
O59	O	1.618834	0.280148	-0.023475
O60	O	1.868834	0.530148	0.226525
O61	O	1.118653	-0.368885	-0.311777
O62	O	1.368653	-0.118885	-0.061777
O63	O	1.618653	0.131115	0.188223
O64	O	1.868653	0.381115	0.438223
O65	O	1.027450	-0.368846	-0.403013
O66	O	1.277450	-0.118846	-0.153013
O67	O	1.527450	0.131154	0.096987
O68	O	1.777450	0.381154	0.346987
C69	C	0.880207	-0.251958	-0.357491
C70	C	1.130207	-0.001958	-0.107491
C71	C	1.380207	0.248042	0.142509
C72	C	1.630207	0.498042	0.392509
C73	C	0.797661	-0.251956	-0.357522
C74	C	1.047661	-0.001956	-0.107522
C75	C	1.297661	0.248044	0.142478
C76	C	1.547661	0.498044	0.392478
C77	C	0.598210	-0.286968	-0.406992
C78	C	0.848210	-0.036968	-0.156992
C79	C	1.098210	0.213032	0.093008
C80	C	1.348210	0.463032	0.343008
C81	C	0.548823	-0.239293	-0.425278
C82	C	0.798823	0.010707	-0.175278
C83	C	1.048823	0.260707	0.074722
C84	C	1.298823	0.510707	0.324722
C85	C	0.646531	-0.251985	-0.357486
C86	C	0.896531	-0.001985	-0.107486
C87	C	1.146531	0.248015	0.142514
C88	C	1.396531	0.498015	0.392514
C89	C	0.548836	-0.299687	-0.339199
C90	C	0.798836	-0.049687	-0.089199
C91	C	1.048836	0.200313	0.160801
C92	C	1.298836	0.450313	0.410801
C93	C	0.500546	-0.252017	-0.357452
C94	C	0.750546	-0.002017	-0.107452
C95	C	1.000546	0.247983	0.142548
C96	C	1.250546	0.497983	0.392548
C97	C	0.598231	-0.204284	-0.375808
C98	C	0.848231	0.045716	-0.125808
C99	C	1.098231	0.295716	0.124192
C100	C	1.348231	0.545716	0.374192
C101	C	0.598248	-0.264711	-0.289697
C102	C	0.848248	-0.014711	-0.039697
C103	C	1.098248	0.235289	0.210303
C104	C	1.348248	0.485289	0.460303
C105	C	0.548884	-0.217003	-0.307958
C106	C	0.798884	0.032997	-0.057958
C107	C	1.048884	0.282997	0.192042
C108	C	1.298884	0.532997	0.442042
C109	C	0.730629	-0.251967	-0.357507
C110	C	0.980629	-0.001967	-0.107507
C111	C	1.230629	0.248033	0.142493
C112	C	1.480629	0.498033	0.392493
C113	C	0.416449	-0.252030	-0.357431
C114	C	0.666449	-0.002030	-0.107431
C115	C	0.916449	0.247970	0.142569
C116	C	1.166449	0.497970	0.392569
C117	C	1.073054	-0.387837	-0.357401
C118	C	1.323054	-0.137837	-0.107401
C119	C	1.573054	0.112163	0.142599
C120	C	1.823054	0.362163	0.392599
C121	C	1.073077	-0.445951	-0.357401
C122	C	1.323077	-0.195951	-0.107401
C123	C	1.573077	0.054049	0.142599
C124	C	1.823077	0.304049	0.392599
C125	C	1.120691	-0.806273	-0.405036
C126	C	1.370691	-0.556273	-0.155036
C127	C	1.620691	-0.306273	0.094964
C128	C	1.870691	-0.056273	0.344964
C129	C	1.120713	-0.860877	-0.405051
C130	C	1.370713	-0.610877	-0.155051
C131	C	1.620713	-0.360877	0.094949
C132	C	1.870713	-0.110877	0.344949
O133	O	1.161072	-0.889079	-0.445492
O134	O	1.411072	-0.639079	-0.195492
O135	O	1.661072	-0.389079	0.054508
O136	O	1.911072	-0.139079	0.304508
N137	N	1.073262	-0.888233	-0.357531
N138	N	1.323262	-0.638233	-0.107531
N139	N	1.573262	-0.388233	0.142469
N140	N	1.823262	-0.138233	0.392469
C141	C	1.025780	-0.860982	-0.309998
C142	C	1.275780	-0.610982	-0.059998
C143	C	1.525780	-0.360982	0.190002
C144	C	1.775780	-0.110982	0.440002
O145	O	0.985421	-0.889265	-0.269580
O146	O	1.235421	-0.639265	-0.019580
O147	O	1.485421	-0.389265	0.230420
O148	O	1.735421	-0.139265	0.480420
C149	C	1.025755	-0.806379	-0.309987
C150	C	1.275755	-0.556379	-0.059987
C151	C	1.525755	-0.306379	0.190013
C152	C	1.775755	-0.056379	0.440013
C153	C	1.073215	-0.779025	-0.357505
C154	C	1.323215	-0.529025	-0.107505
C155	C	1.573215	-0.279025	0.142495
C156	C	1.823215	-0.029025	0.392495
C157	C	1.168147	-0.778919	-0.452551
C158	C	1.418147	-0.528919	-0.202551
C159	C	1.668147	-0.278919	0.047449
C160	C	1.918147	-0.028919	0.297449
C161	C	1.168126	-0.724319	-0.452534
C162	C	1.418126	-0.474319	-0.202534
C163	C	1.668126	-0.224319	0.047466
C164	C	1.918126	0.025681	0.297466
C165	C	1.120649	-0.697072	-0.405003
C166	C	1.370649	-0.447072	-0.155003
C167	C	1.620649	-0.197072	0.094997
C168	C	1.870649	0.052928	0.344997
C169	C	1.073194	-0.724425	-0.357489
C170	C	1.323194	-0.474425	-0.107489
C171	C	1.573194	-0.224425	0.142511
C172	C	1.823194	0.025575	0.392511
C173	C	0.978271	-0.779129	-0.262458
C174	C	1.228271	-0.529129	-0.012458
C175	C	1.478271	-0.279129	0.237542
C176	C	1.728271	-0.029129	0.487542
C177	C	0.978249	-0.724522	-0.262452
C178	C	1.228249	-0.474522	-0.012452
C179	C	1.478249	-0.224522	0.237548
C180	C	1.728249	0.025478	0.487548
C181	C	1.025709	-0.697168	-0.309970
C182	C	1.275709	-0.447168	-0.059970
C183	C	1.525709	-0.197168	0.190030
C184	C	1.775709	0.052832	0.440030
C185	C	1.025696	-0.642577	-0.309941
C186	C	1.275696	-0.392577	-0.059941
C187	C	1.525696	-0.142577	0.190059
C188	C	1.775696	0.107423	0.440059
N189	N	1.073148	-0.615221	-0.357462
N190	N	1.323148	-0.365221	-0.107462
N191	N	1.573148	-0.115221	0.142538
N192	N	1.823148	0.134779	0.392538
C193	C	1.120624	-0.642468	-0.404993
C194	C	1.370624	-0.392468	-0.154993
C195	C	1.620624	-0.142468	0.095007
C196	C	1.870624	0.107532	0.345007
C197	C	1.025836	-0.975653	-0.310025
C198	C	1.275836	-0.725653	-0.060025
C199	C	1.525836	-0.475653	0.189975
C200	C	1.775836	-0.225653	0.439975
C201	C	1.025864	-1.030255	-0.310031
C202	C	1.275864	-0.780255	-0.060031
C203	C	1.525864	-0.530255	0.189969
C204	C	1.775864	-0.280255	0.439969
C205	C	1.120796	-1.030146	-0.405086
C206	C	1.370796	-0.780146	-0.155086
C207	C	1.620796	-0.530146	0.094914
C208	C	1.870796	-0.280146	0.344914
C209	C	1.120771	-0.975543	-0.405075
C210	C	1.370771	-0.725543	-0.155075
C211	C	1.620771	-0.475543	0.094925
C212	C	1.870771	-0.225543	0.344925
C213	C	1.073287	-0.948297	-0.357545
C214	C	1.323287	-0.698297	-0.107545
C215	C	1.573287	-0.448297	0.142455
C216	C	1.823287	-0.198297	0.392455
C217	C	1.120577	-0.527803	-0.404954
C218	C	1.370577	-0.277803	-0.154954
C219	C	1.620577	-0.027803	0.095046
C220	C	1.870577	0.222197	0.345046
C221	C	1.120554	-0.473198	-0.404932
C222	C	1.370554	-0.223198	-0.154932
C223	C	1.620554	0.026802	0.095068
C224	C	1.870554	0.276802	0.345068
C225	C	1.025619	-0.473312	-0.309880
C226	C	1.275619	-0.223312	-0.059880
C227	C	1.525619	0.026688	0.190120
C228	C	1.775619	0.276688	0.440120
C229	C	1.025645	-0.527912	-0.309900
C230	C	1.275645	-0.277912	-0.059900
C231	C	1.525645	-0.027912	0.190100
C232	C	1.775645	0.222088	0.440100
C233	C	1.073126	-0.555157	-0.357443
C234	C	1.323126	-0.305157	-0.107443
C235	C	1.573126	-0.055157	0.142557
C236	C	1.823126	0.194843	0.392557
O237	O	0.985356	-0.614341	-0.269523
O238	O	1.235356	-0.364341	-0.019523
O239	O	1.485356	-0.114341	0.230477
O240	O	1.735356	0.135659	0.480477
O241	O	1.160970	-0.614179	-0.445411
O242	O	1.410970	-0.364179	-0.195411
O243	O	1.660970	-0.114179	0.054589
O244	O	1.910970	0.135821	0.304589
C245	C	1.266865	-0.252030	-0.357427
C246	C	1.516865	-0.002030	-0.107427
C247	C	1.766865	0.247970	0.142573
C248	C	2.016865	0.497970	0.392573
C249	C	1.349410	-0.252046	-0.357414
C250	C	1.599410	-0.002046	-0.107414
C251	C	1.849410	0.247954	0.142586
C252	C	2.099410	0.497954	0.392586
C253	C	1.073199	-0.251947	-0.551165
C254	C	1.323199	-0.001947	-0.301165
C255	C	1.573199	0.248053	-0.051165
C256	C	1.823199	0.498053	0.198835
C257	C	1.073217	-0.251927	-0.633711
C258	C	1.323217	-0.001927	-0.383711
C259	C	1.573217	0.248073	-0.133711
C260	C	1.823217	0.498073	0.116289
C261	C	1.073285	-0.115621	-0.357534
C262	C	1.323285	0.134379	-0.107534
C263	C	1.573285	0.384379	0.142466
C264	C	1.823285	0.634379	0.392466
C265	C	1.073338	-0.057507	-0.357565
C266	C	1.323338	0.192493	-0.107565
C267	C	1.573338	0.442493	0.142435
C268	C	1.823338	0.692493	0.392435
C269	C	1.122901	-0.216978	-0.882547
C270	C	1.372901	0.033022	-0.632547
C271	C	1.622901	0.283022	-0.382547
C272	C	1.872901	0.533022	-0.132547
C273	C	1.141018	-0.264687	-0.833117
C274	C	1.391018	-0.014687	-0.583117
C275	C	1.641018	0.235313	-0.333117
C276	C	1.891018	0.485313	-0.083117
C277	C	1.073264	-0.251894	-0.930831
C278	C	1.323264	-0.001894	-0.680831
C279	C	1.573264	0.248106	-0.430831
C280	C	1.823264	0.498106	-0.180831
C281	C	1.055159	-0.204204	-0.833179
C282	C	1.305159	0.045796	-0.583179
C283	C	1.555159	0.295796	-0.333179
C284	C	1.805159	0.545796	-0.083179
C285	C	1.073243	-0.251908	-0.784846
C286	C	1.323243	-0.001908	-0.534846
C287	C	1.573243	0.248092	-0.284846
C288	C	1.823243	0.498092	-0.034846
C289	C	1.091416	-0.299629	-0.882488
C290	C	1.341416	-0.049629	-0.632488
C291	C	1.591416	0.200371	-0.382488
C292	C	1.841416	0.450371	-0.132488
C293	C	1.005526	-0.239114	-0.882555
C294	C	1.255526	0.010886	-0.632555
C295	C	1.505526	0.260886	-0.382555
C296	C	1.755526	0.510886	-0.132555
C297	C	1.023617	-0.286856	-0.833147
C298	C	1.273617	-0.036856	-0.583147
C299	C	1.523617	0.213144	-0.333147
C300	C	1.773617	0.463144	-0.083147
C301	C	1.073279	-0.251886	-1.014929
C302	C	1.323279	-0.001886	-0.764929
C303	C	1.573279	0.248114	-0.514929
C304	C	1.823279	0.498114	-0.264929
C305	C	1.073228	-0.251922	-0.700749
C306	C	1.323228	-0.001922	-0.450749
C307	C	1.573228	0.248078	-0.200749
C308	C	1.823228	0.498078	0.049251
C309	C	1.073162	-0.252003	-0.164507
C310	C	1.323162	-0.002003	0.085493
C311	C	1.573162	0.247997	0.335493
C312	C	1.823162	0.497997	0.585493
C313	C	1.073288	-0.251876	-0.081962
C314	C	1.323288	-0.001876	0.168038
C315	C	1.573288	0.248124	0.418038
C316	C	1.823288	0.498124	0.668038
H317	H	0.527361	-0.187399	-0.266078
H318	H	0.777361	0.062601	-0.016078
H319	H	1.027361	0.312601	0.233922
H320	H	1.277361	0.562601	0.483922
H321	H	1.198293	-0.275505	-0.811400
H322	H	1.448293	-0.025505	-0.561400
H323	H	1.698293	0.224495	-0.311400
H324	H	1.948293	0.474495	-0.061400
N325	N	0.520055	-0.225046	-0.501189
N326	N	0.770055	0.024954	-0.251189
N327	N	1.020055	0.274954	-0.001189
N328	N	1.270055	0.524954	0.248811
H329	H	0.563156	-0.218899	-0.535799
H330	H	0.813156	0.031101	-0.285799
H331	H	1.063156	0.281101	-0.035799
H332	H	1.313156	0.531101	0.214201
H333	H	0.488456	-0.254460	-0.520842
H334	H	0.738456	-0.004460	-0.270842
H335	H	0.988456	0.245540	-0.020842
H336	H	1.238456	0.495540	0.229158
N337	N	0.974627	-0.946272	-0.258743
N338	N	1.224627	-0.696272	-0.008743
N339	N	1.474627	-0.446272	0.241257
N340	N	1.724627	-0.196272	0.491257
H341	H	1.004819	-0.923625	-0.224341
H342	H	1.254819	-0.673625	0.025659
H343	H	1.504819	-0.423625	0.275659
H344	H	1.754819	-0.173625	0.525659
H345	H	0.940185	-0.923645	-0.288940
H346	H	1.190185	-0.673645	-0.038940
H347	H	1.440185	-0.423645	0.211060
H348	H	1.690185	-0.173645	0.461060
N349	N	1.111786	-0.353075	-0.911047
N350	N	1.361786	-0.103075	-0.661047
N351	N	1.611786	0.146925	-0.411047
N352	N	1.861786	0.396925	-0.161047
H353	H	1.074537	-0.379485	-0.892656
H354	H	1.324537	-0.129485	-0.642656
H355	H	1.574537	0.120515	-0.392656
H356	H	1.824537	0.370515	-0.142656
H357	H	1.111702	-0.352690	-0.966997
H358	H	1.361702	-0.102690	-0.716997
H359	H	1.611702	0.147310	-0.466997
H360	H	1.861702	0.397310	-0.216997
H361	H	0.987226	-1.052522	-0.271329
H362	H	1.237226	-0.802522	-0.021329
H363	H	1.487226	-0.552522	0.228671
H364	H	1.737226	-0.302522	0.478671
N365	N	1.172003	-1.059529	-0.456368
N366	N	1.422003	-0.809529	-0.206368
N367	N	1.672003	-0.559529	0.043632
N368	N	1.922003	-0.309529	0.293632
H369	H	1.206451	-1.082190	-0.426225
H370	H	1.456451	-0.832190	-0.176225
H371	H	1.706451	-0.582190	0.073775
H372	H	1.956451	-0.332190	0.323775
H373	H	1.141753	-1.082144	-0.490760
H374	H	1.391753	-0.832144	-0.240760
H375	H	1.641753	-0.582144	0.009240
H376	H	1.891753	-0.332144	0.259240
N377	N	0.927083	-0.808623	-0.211204
N378	N	1.177083	-0.558623	0.038796
N379	N	1.427083	-0.308623	0.288796
N380	N	1.677083	-0.058623	0.538796
H381	H	0.897005	-0.783068	-0.181100
H382	H	1.147005	-0.533068	0.068900
H383	H	1.397005	-0.283068	0.318900
H384	H	1.647005	-0.033068	0.568900
H385	H	0.892703	-0.831274	-0.241417
H386	H	1.142703	-0.581274	0.008583
H387	H	1.392703	-0.331274	0.258583
H388	H	1.642703	-0.081274	0.508583
H389	H	0.619838	-0.163945	-0.391325
H390	H	0.869838	0.086055	-0.141325
H391	H	1.119838	0.336055	0.108675
H392	H	1.369838	0.586055	0.358675
N393	N	1.034875	-0.150777	-0.804488
N394	N	1.284875	0.099223	-0.554488
N395	N	1.534875	0.349223	-0.304488
N396	N	1.784875	0.599223	-0.054488
H397	H	1.034546	-0.151260	-0.748539
H398	H	1.284546	0.098740	-0.498539
H399	H	1.534546	0.348740	-0.248539
H400	H	1.784546	0.598740	0.001461
H401	H	1.072428	-0.124456	-0.822510
H402	H	1.322428	0.125544	-0.572510
H403	H	1.572428	0.375544	-0.322510
H404	H	1.822428	0.625544	-0.072510
N405	N	0.627022	-0.278967	-0.213797
N406	N	0.877022	-0.028967	0.036203
N407	N	1.127022	0.221033	0.286203
N408	N	1.377022	0.471033	0.536203
H409	H	0.609083	-0.315013	-0.200038
H410	H	0.859083	-0.065013	0.049962
H411	H	1.109083	0.184987	0.299962
H412	H	1.359083	0.434987	0.549962
H413	H	0.682967	-0.278481	-0.214305
H414	H	0.932967	-0.028481	0.035695
H415	H	1.182967	0.221519	0.285695
H416	H	1.432967	0.471519	0.535695
N417	N	0.927031	-0.695135	-0.211188
N418	N	1.177031	-0.445135	0.038812
N419	N	1.427031	-0.195135	0.288812
N420	N	1.677031	0.054865	0.538812
H421	H	0.896973	-0.720752	-0.181091
H422	H	1.146973	-0.470752	0.068909
H423	H	1.396973	-0.220752	0.318909
H424	H	1.646973	0.029248	0.568909
H425	H	0.957270	-0.672488	-0.176830
H426	H	1.207270	-0.422488	0.073170
H427	H	1.457270	-0.172488	0.323170
H428	H	1.707270	0.077512	0.573170
N429	N	0.968004	-0.326017	-0.804584
N430	N	1.218004	-0.076017	-0.554584
N431	N	1.468004	0.173983	-0.304584
N432	N	1.718004	0.423983	-0.054584
H433	H	0.943175	-0.343934	-0.847774
H434	H	1.193175	-0.093934	-0.597774
H435	H	1.443175	0.156066	-0.347774
H436	H	1.693175	0.406066	-0.097774
H437	H	0.994229	-0.352811	-0.773035
H438	H	1.244229	-0.102811	-0.523035
H439	H	1.494229	0.147189	-0.273035
H440	H	1.744229	0.397189	-0.023035
N441	N	0.520095	-0.353104	-0.318721
N442	N	0.770095	-0.103104	-0.068721
N443	N	1.020095	0.146896	0.181279
N444	N	1.270095	0.396896	0.431279
H445	H	0.538040	-0.379486	-0.356165
H446	H	0.788040	-0.129486	-0.106165
H447	H	1.038040	0.120514	0.143835
H448	H	1.288040	0.370514	0.393835
H449	H	0.538856	-0.362927	-0.267882
H450	H	0.788856	-0.112927	-0.017882
H451	H	1.038856	0.137073	0.232118
H452	H	1.288856	0.387073	0.482118
H453	H	1.159204	-0.450928	-0.443627
H454	H	1.409204	-0.200928	-0.193627
H455	H	1.659204	0.049072	0.056373
H456	H	1.909204	0.299072	0.306373
N457	N	1.171779	-0.557184	-0.456239
N458	N	1.421779	-0.307184	-0.206239
N459	N	1.671779	-0.057184	0.043761
N460	N	1.921779	0.192816	0.293761
H461	H	1.201833	-0.531563	-0.486335
H462	H	1.451833	-0.281563	-0.236335
H463	H	1.701833	-0.031563	0.013665
H464	H	1.951833	0.218437	0.263665
H465	H	1.206180	-0.579845	-0.426047
H466	H	1.456180	-0.329845	-0.176047
H467	H	1.706180	-0.079845	0.073953
H468	H	1.956180	0.170155	0.323953
N469	N	0.929679	-0.224769	-0.911343
N470	N	1.179679	0.025231	-0.661343
N471	N	1.429679	0.275231	-0.411343
N472	N	1.679679	0.525231	-0.161343
H473	H	0.916054	-0.188713	-0.893439
H474	H	1.166054	0.061287	-0.643439
H475	H	1.416054	0.311287	-0.393439
H476	H	1.666054	0.561287	-0.143439
H477	H	0.930188	-0.225238	-0.967288
H478	H	1.180188	0.024762	-0.717288
H479	H	1.430188	0.274762	-0.467288
H480	H	1.680188	0.524762	-0.217288
H481	H	1.206769	-0.702051	-0.491230
H482	H	1.456769	-0.452051	-0.241230
H483	H	1.706769	-0.202051	0.008770
H484	H	1.956769	0.047949	0.258770
H485	H	1.206808	-0.801098	-0.491261
H486	H	1.456808	-0.551098	-0.241261
H487	H	1.706808	-0.301098	0.008739
H488	H	1.956808	-0.051098	0.258739
H489	H	0.987005	-0.550184	-0.271201
H490	H	1.237005	-0.300184	-0.021201
H491	H	1.487005	-0.050184	0.228799
H492	H	1.737005	0.199816	0.478799
N493	N	0.626901	-0.326091	-0.462500
N494	N	0.876901	-0.076091	-0.212500
N495	N	1.126901	0.173909	0.037500
N496	N	1.376901	0.423909	0.287500
H497	H	0.608920	-0.316419	-0.513682
H498	H	0.858920	-0.066419	-0.263682
H499	H	1.108920	0.183581	-0.013682
H500	H	1.358920	0.433581	0.236318
H501	H	0.682847	-0.326023	-0.461725
H502	H	0.932847	-0.076023	-0.211725
H503	H	1.182847	0.173977	0.038275
H504	H	1.432847	0.423977	0.288275
H505	H	0.986966	-0.451118	-0.271179
H506	H	1.236966	-0.201118	-0.021179
H507	H	1.486966	0.048882	0.228821
H508	H	1.736966	0.298882	0.478821
N509	N	1.171958	-0.946042	-0.456327
N510	N	1.421958	-0.696042	-0.206327
N511	N	1.671958	-0.446042	0.043673
N512	N	1.921958	-0.196042	0.293673
H513	H	1.202036	-0.971594	-0.486435
H514	H	1.452036	-0.721594	-0.236435
H515	H	1.702036	-0.471594	0.013565
H516	H	1.952036	-0.221594	0.263565
H517	H	1.141699	-0.923382	-0.490674
H518	H	1.391699	-0.673382	-0.240674
H519	H	1.641699	-0.423382	0.009326
H520	H	1.891699	-0.173382	0.259326
H521	H	1.164919	-0.187481	-0.904237
H522	H	1.414919	0.062519	-0.654237
H523	H	1.664919	0.312519	-0.404237
H524	H	1.914919	0.562519	-0.154237
