data_functionalizedCrystal
_audit_creation_method	'MofGen! by Chris Wilmer'
_symmetry_space_group_name_H-M	'P1'
_symmetry_Int_Tables_number	1
_symmetry_cell_setting	triclinic
loop_
_symmetry_equiv_pos_as_xyz
  x,y,z
_cell_length_a	33.428889
_cell_length_b	33.428139
_cell_length_c	33.424847
_cell_angle_alpha	60.004234
_cell_angle_beta	60.008465
_cell_angle_gamma	59.994972
loop_
_atom_site_label
_atom_site_type_symbol
_atom_site_fract_x
_atom_site_fract_y
_atom_site_fract_z
O1	O	0.055565	-0.584504	0.488714
O2	O	0.020982	-0.455083	0.393778
O3	O	0.102943	-0.536959	0.393689
O4	O	-0.026396	-0.502628	0.488803
O5	O	0.130140	-0.509767	0.420792
O6	O	0.048179	-0.427891	0.420881
O7	O	0.082762	-0.557312	0.515817
Cu8	Cu	0.067954	-0.490119	0.470823
Cu9	Cu	0.035790	-0.522276	0.438771
O10	O	0.000801	-0.475436	0.515906
N11	N	0.090577	-0.467504	0.493370
N12	N	0.013171	-0.544895	0.416225
C13	C	0.143377	-0.280390	0.546067
C14	C	0.143515	-0.414755	0.680369
C15	C	0.143392	-0.414735	0.546069
C16	C	0.277766	-0.414702	0.545966
C17	C	0.158177	-0.324719	0.560828
C18	C	0.158255	-0.399967	0.636038
C19	C	0.233434	-0.399936	0.560773
C20	C	0.158186	-0.399955	0.560829
C21	C	0.124540	-0.223964	0.527278
C22	C	0.124565	-0.433545	0.527281
C23	C	0.177014	-0.381145	0.579617
C24	C	0.359814	-0.400540	0.502735
C25	C	0.411105	-0.417624	0.485606
C26	C	0.411136	-0.500620	0.517255
C27	C	0.359845	-0.483534	0.534385
C28	C	0.136887	-0.198305	0.476855
C29	C	0.119761	-0.147011	0.459777
C30	C	0.077945	-0.147038	0.543547
C31	C	0.095072	-0.198332	0.560625
C32	C	0.074134	-0.421169	0.539710
C33	C	0.057023	-0.438269	0.522625
C34	C	0.140770	-0.480120	0.480694
C35	C	0.157883	-0.463020	0.497773
C36	C	0.074339	-0.421208	0.762475
C37	C	0.057288	-0.438323	0.813768
C38	C	0.141075	-0.480183	0.813699
C39	C	0.158125	-0.463069	0.762404
C40	C	0.124756	-0.433580	0.736794
C41	C	0.334186	-0.433494	0.527123
C42	C	-0.173769	-0.597444	0.363037
C43	C	-0.039302	-0.597595	0.228856
C44	C	-0.039496	-0.597587	0.363300
C45	C	-0.039512	-0.731889	0.363237
C46	C	-0.129442	-0.612265	0.348329
C47	C	-0.054138	-0.612351	0.273187
C48	C	-0.054257	-0.687554	0.348440
C49	C	-0.054247	-0.612346	0.348477
C50	C	-0.230191	-0.578579	0.381758
C51	C	-0.020722	-0.578803	0.382168
C52	C	-0.073020	-0.631130	0.329609
C53	C	-0.053713	-0.813916	0.406386
C54	C	-0.036654	-0.865210	0.423504
C55	C	0.046338	-0.865293	0.391984
C56	C	0.029278	-0.813999	0.374865
C57	C	-0.255900	-0.590938	0.432169
C58	C	-0.307191	-0.573786	0.449185
C59	C	-0.307060	-0.531922	0.365377
C60	C	-0.255769	-0.549074	0.348360
C61	C	-0.033081	-0.528377	0.369764
C62	C	-0.016014	-0.511306	0.386922
C63	C	0.025770	-0.595083	0.428877
C64	C	0.008703	-0.612156	0.411725
C65	C	-0.032755	-0.528393	0.146761
C66	C	-0.015585	-0.511324	0.095468
C67	C	0.026262	-0.595106	0.095516
C68	C	0.009094	-0.612174	0.146811
C69	C	-0.020417	-0.578816	0.172432
C70	C	-0.020748	-0.788312	0.382068
N71	N	0.436037	-0.467415	0.493101
O72	O	0.592642	-0.471896	0.376066
O73	O	0.592838	-0.567146	0.505347
O74	O	0.592754	-0.566928	0.423360
O75	O	0.592727	-0.472113	0.458053
O76	O	0.511269	-0.539835	0.450606
O77	O	0.511353	-0.540052	0.532594
O78	O	0.511157	-0.444802	0.403312
Cu79	Cu	0.503815	-0.489954	0.470441
Cu80	Cu	0.600180	-0.521995	0.438219
O81	O	0.511242	-0.445020	0.485300
N82	N	0.667959	-0.544533	0.415554
N83	N	0.090544	-0.122107	0.493359
O84	O	-0.026406	0.034587	0.488773
O85	O	0.102877	0.034627	0.393499
O86	O	0.020848	0.034591	0.393771
O87	O	0.055623	0.034623	0.488500
O88	O	0.048051	-0.046899	0.420925
O89	O	0.130080	-0.046864	0.420653
O90	O	0.000796	-0.046903	0.515927
Cu91	Cu	0.067922	-0.054324	0.470769
Cu92	Cu	0.035752	0.042048	0.438656
O93	O	0.082825	-0.046867	0.515655
N94	N	0.013123	0.109830	0.416068
N95	N	0.090892	-0.467554	0.838649
O96	O	0.086330	-0.584488	0.995334
O97	O	-0.008902	-0.455160	0.995379
O98	O	-0.008679	-0.537172	0.995355
O99	O	0.086107	-0.502475	0.995358
O100	O	0.018452	-0.509990	0.913868
O101	O	0.018230	-0.427978	0.913891
O102	O	0.113461	-0.557306	0.913847
Cu103	Cu	0.068323	-0.490160	0.906429
Cu104	Cu	0.036237	-0.522306	1.002797
O105	O	0.113239	-0.475293	0.913870
N106	N	0.013667	-0.544916	1.070577
C107	C	0.031339	-0.425179	0.394250
C108	C	0.132837	-0.526572	0.394139
C109	C	0.072405	-0.587216	0.515344
C110	C	-0.029093	-0.485823	0.515455
C111	C	0.552119	-0.566716	0.535258
C112	C	0.552016	-0.566447	0.433726
C113	C	0.551873	-0.445232	0.373402
C114	C	0.551980	-0.445502	0.474933
C115	C	0.132731	-0.006013	0.393923
C116	C	0.031182	-0.006158	0.394293
C117	C	-0.029092	-0.006163	0.515469
C118	C	0.072491	-0.006119	0.515133
C119	C	-0.008451	-0.425276	0.954641
C120	C	-0.008170	-0.526833	0.954596
C121	C	0.113010	-0.587190	0.954585
C122	C	0.112735	-0.485627	0.954611
H123	H	0.047163	-0.397193	0.741627
H124	H	0.142514	-0.478200	0.954606
H125	H	-0.026079	-0.470245	0.376824
N126	N	0.057507	-0.631059	0.460758
H127	H	0.062744	-0.665594	0.466012
H128	H	0.040802	-0.625769	0.493424
H129	H	0.169783	-0.005775	0.363939
H130	H	0.018765	-0.653217	0.421828
H131	H	0.056124	-0.793157	0.355062
N132	N	0.551798	-0.405617	0.324222
H133	H	0.521573	-0.376021	0.328797
H134	H	0.551803	-0.418222	0.302348
H135	H	0.015959	-0.428182	0.532734
H136	H	0.551974	-0.415718	0.482355
N137	N	0.552194	-0.606326	0.584441
H138	H	0.582419	-0.635922	0.579868
H139	H	0.521986	-0.615793	0.600042
H140	H	-0.066242	-0.478508	0.545321
H141	H	0.142910	-0.624330	0.954565
H142	H	0.552029	-0.596233	0.426301
H143	H	-0.066220	-0.006175	0.545378
N144	N	0.082346	-0.006112	0.554563
H145	H	0.058319	0.024094	0.564068
H146	H	0.116843	-0.006117	0.541811
N147	N	0.021347	-0.006242	0.354892
H148	H	-0.013132	-0.006280	0.367629
H149	H	0.045419	-0.036474	0.345454
N150	N	-0.048056	-0.376077	0.954654
H151	H	-0.035496	-0.354172	0.954658
H152	H	-0.077647	-0.380665	0.984865
N153	N	0.082192	-0.636463	0.554841
H154	H	0.058148	-0.652125	0.564360
H155	H	0.078321	-0.631928	0.584428
N156	N	0.002908	-0.424972	0.841463
H157	H	-0.015640	-0.403693	0.817453
H158	H	-0.005992	-0.406496	0.862747
N159	N	0.177066	-0.511978	0.841323
H160	H	0.211592	-0.517217	0.817271
H161	H	0.171821	-0.544658	0.862603
H162	H	0.169984	-0.533889	0.364272
N163	N	0.021557	-0.375933	0.354751
H164	H	-0.012923	-0.354105	0.367420
H165	H	0.025464	-0.380468	0.325150
N166	N	-0.047601	-0.536647	0.954553
H167	H	-0.034886	-0.571133	0.954532
H168	H	-0.057078	-0.512582	0.924339
H169	H	0.047002	-0.397168	0.563734
N170	N	0.212505	-0.476411	0.734702
H171	H	0.227859	-0.513205	0.743613
H172	H	0.227808	-0.463839	0.743624
N173	N	0.176709	-0.511919	0.448874
H174	H	0.211251	-0.516962	0.443395
H175	H	0.171248	-0.495369	0.416304
H176	H	0.085016	-0.219221	0.601683
N177	N	0.212276	-0.476363	0.484368
H178	H	0.230786	-0.497630	0.463083
H179	H	0.221227	-0.494851	0.515200
H180	H	0.432025	-0.541365	0.523165
N181	N	0.332204	-0.519078	0.560691
H182	H	0.341163	-0.544061	0.590988
H183	H	0.341125	-0.536290	0.538232
N184	N	0.438752	-0.382083	0.459304
H185	H	0.414715	-0.347789	0.457302
H186	H	0.460009	-0.383499	0.425146
H187	H	0.160882	-0.219171	0.449698
N188	N	0.332136	-0.346566	0.494901
H189	H	0.356157	-0.328284	0.476853
H190	H	0.310876	-0.341535	0.527680
H191	H	0.053957	-0.126168	0.570702
N192	N	0.133072	-0.119326	0.405391
H193	H	0.120523	-0.128254	0.390069
H194	H	0.169863	-0.128247	0.390071
N195	N	-0.028902	-0.456936	0.067788
H196	H	-0.065690	-0.441571	0.076656
H197	H	-0.013517	-0.451221	0.031415
N198	N	-0.064586	-0.492415	0.174396
H199	H	-0.095398	-0.471105	0.165410
H200	H	-0.046055	-0.471189	0.165496
N201	N	0.058078	-0.631084	0.067881
H202	H	0.063288	-0.665618	0.091927
H203	H	0.090768	-0.625856	0.046649
H204	H	-0.057039	-0.501216	0.345698
N205	N	0.022405	-0.666562	0.174498
H206	H	0.043702	-0.685102	0.150483
H207	H	-0.008460	-0.675443	0.195733
H208	H	-0.063498	-0.886058	0.443304
N209	N	0.100294	-0.892996	0.384220
H210	H	0.119367	-0.884094	0.347970
H211	H	0.106057	-0.929367	0.398783
N212	N	-0.107671	-0.786208	0.414154
H213	H	-0.125964	-0.810214	0.432156
H214	H	-0.112659	-0.764928	0.381356
H215	H	-0.328125	-0.583847	0.490235
N216	N	-0.228312	-0.622762	0.468189
H217	H	-0.252383	-0.627984	0.502708
H218	H	-0.207028	-0.606132	0.462963
H219	H	-0.327887	-0.507903	0.338181
H220	H	-0.234840	-0.539009	0.307312
