data_functionalizedCrystal
_audit_creation_method	'MofGen! by Chris Wilmer'
_symmetry_space_group_name_H-M	'P1'
_symmetry_Int_Tables_number	1
_symmetry_cell_setting	triclinic
loop_
_symmetry_equiv_pos_as_xyz
  x,y,z
_cell_length_a	16.109318
_cell_length_b	17.038272
_cell_length_c	15.186229
_cell_angle_alpha	89.995962
_cell_angle_beta	90.000224
_cell_angle_gamma	87.290060
loop_
_atom_site_label
_atom_site_type_symbol
_atom_site_fract_x
_atom_site_fract_y
_atom_site_fract_z
O1	O	1.110263	0.100560	-0.073156
O2	O	0.869090	0.113052	-0.073174
O3	O	0.988243	-0.007009	-0.073158
O4	O	0.991110	0.220621	-0.073172
O5	O	0.988235	-0.007011	0.073299
O6	O	0.869082	0.113050	0.073284
O7	O	1.110255	0.100558	0.073301
Zn8	Zn	0.989667	0.106804	0.096546
Zn9	Zn	0.989678	0.106806	-0.096418
O10	O	0.991102	0.220620	0.073286
C11	C	0.838075	0.112543	0.000053
C12	C	0.745673	0.111019	0.000046
C13	C	0.985632	-0.036139	0.000070
C14	C	0.977853	-0.122932	0.000070
C15	C	0.446254	0.106097	-0.079772
C16	C	0.533077	0.107524	-0.079778
C17	C	0.533085	0.107511	0.079898
C18	C	0.446264	0.106079	0.079903
C19	C	0.402851	0.105375	0.000065
C20	C	0.576494	0.108235	0.000055
C21	C	0.670631	0.109782	0.000050
C22	C	0.308708	0.103827	0.000070
C23	C	1.049273	-0.173043	0.000076
C24	C	1.041959	-0.254593	0.000067
C25	C	0.963224	-0.286032	0.000058
C26	C	0.891798	-0.235915	0.000049
C27	C	0.899113	-0.154366	0.000052
C28	C	0.937381	-0.531791	0.000044
C29	C	0.930072	-0.613347	0.000044
C30	C	1.080234	-0.632020	0.000060
C31	C	1.087542	-0.550468	0.000068
C32	C	1.016116	-0.500358	0.000055
C33	C	0.955746	-0.369390	0.000052
C34	C	1.023595	-0.417002	0.000055
C35	C	1.141270	0.101067	0.000073
C36	C	1.233672	0.102592	0.000074
C37	C	0.993713	0.249749	0.000055
C38	C	1.001492	0.336542	0.000050
N39	N	0.989665	0.106802	0.228238
N40	N	0.989686	0.106802	-0.228111
C41	C	1.042447	0.053657	0.453968
C42	C	1.042449	0.053655	0.546158
C43	C	0.936899	0.159950	0.546153
C44	C	0.936893	0.159948	0.453965
C45	C	0.989671	0.106802	0.407875
C46	C	0.989680	0.106802	0.592253
C47	C	0.989682	0.106801	0.692209
C48	C	0.989668	0.106802	0.307913
H49	H	0.410909	0.105523	-0.144781
H50	H	0.568412	0.108110	-0.144789
H51	H	0.568443	0.108085	0.144899
H52	H	0.410925	0.105490	0.144920
H53	H	0.893929	0.203221	0.583689
H54	H	0.893913	0.203225	0.416433
H55	H	1.151656	-0.524877	0.000075
H56	H	1.113388	-0.147452	0.000088
H57	H	1.100117	-0.295391	0.000074
H58	H	1.138384	-0.672828	0.000070
H59	H	0.865953	-0.638941	0.000051
H60	H	0.827690	-0.261519	0.000037
H61	H	0.879221	-0.491001	0.000033
H62	H	0.840955	-0.113566	0.000047
H63	H	1.087701	-0.391401	0.000042
H64	H	0.891639	-0.394997	0.000047
H65	H	1.085421	0.010381	0.416444
H66	H	1.085422	0.010378	0.583685
