data_functionalizedCrystal
_audit_creation_method	'MofGen! by Chris Wilmer'
_symmetry_space_group_name_H-M	'P1'
_symmetry_Int_Tables_number	1
_symmetry_cell_setting	triclinic
loop_
_symmetry_equiv_pos_as_xyz
  x,y,z
_cell_length_a	19.805407
_cell_length_b	19.076808
_cell_length_c	19.805399
_cell_angle_alpha	87.672943
_cell_angle_beta	89.980427
_cell_angle_gamma	92.323385
loop_
_atom_site_label
_atom_site_type_symbol
_atom_site_fract_x
_atom_site_fract_y
_atom_site_fract_z
Zn1	Zn	1.023914	-0.280233	-0.371886
Zn2	Zn	1.523914	0.219767	0.128114
Zn3	Zn	1.019283	-0.397938	-0.254147
Zn4	Zn	1.519283	0.102062	0.245853
Zn5	Zn	0.910727	-0.280252	-0.258710
Zn6	Zn	1.410727	0.219748	0.241290
Zn7	Zn	0.906148	-0.397901	-0.367295
Zn8	Zn	1.406148	0.102099	0.132705
O9	O	0.965018	-0.339081	-0.313009
O10	O	1.465018	0.160919	0.186991
O11	O	1.118016	-0.295854	-0.356279
O12	O	1.618016	0.204146	0.143721
O13	O	1.004861	-0.382351	-0.160035
O14	O	1.504861	0.117649	0.339965
O15	O	0.929597	-0.181753	-0.277553
O16	O	1.429597	0.318247	0.222447
O17	O	1.114613	-0.382332	-0.269777
O18	O	1.614613	0.117668	0.230223
O19	O	1.012754	-0.181739	-0.360703
O20	O	1.512754	0.318261	0.139297
O21	O	0.925106	-0.295887	-0.163387
O22	O	1.425106	0.204113	0.336613
O23	O	0.815404	-0.295851	-0.273102
O24	O	1.315404	0.204149	0.226898
O25	O	0.921791	-0.382268	-0.462622
O26	O	1.421791	0.117732	0.037378
O27	O	0.812039	-0.382287	-0.352879
O28	O	1.312039	0.117713	0.147121
O29	O	1.008313	-0.295818	-0.465994
O30	O	1.508313	0.204182	0.034006
O31	O	1.000421	-0.496429	-0.265326
O32	O	1.500421	0.003571	0.234674
O33	O	0.917301	-0.496402	-0.348455
O34	O	1.417301	0.003598	0.151545
C35	C	0.789162	-0.339067	-0.312988
C36	C	1.289162	0.160933	0.187012
C37	C	0.713930	-0.339079	-0.312994
C38	C	1.213930	0.160921	0.187006
C39	C	0.676849	-0.384154	-0.354462
C40	C	1.176849	0.115846	0.145538
C41	C	0.606160	-0.384155	-0.354471
C42	C	1.106160	0.115845	0.145529
C43	C	0.572554	-0.339084	-0.313009
C44	C	1.072554	0.160916	0.186991
C45	C	0.609640	-0.294004	-0.271540
C46	C	1.109640	0.205996	0.228460
C47	C	0.680328	-0.294000	-0.271535
C48	C	1.180328	0.206000	0.228465
C49	C	0.324567	-0.294020	-0.271562
C50	C	0.824567	0.205980	0.228438
C51	C	0.253874	-0.294029	-0.271569
C52	C	0.753874	0.205971	0.228431
C53	C	0.250399	-0.384175	-0.354498
C54	C	0.750399	0.115825	0.145502
C55	C	0.321086	-0.384170	-0.354493
C56	C	0.821086	0.115830	0.145507
C57	C	0.358167	-0.339088	-0.313027
C58	C	0.858167	0.160912	0.186973
C59	C	0.434815	-0.339086	-0.313018
C60	C	0.934815	0.160914	0.186982
C61	C	0.495907	-0.339089	-0.313014
C62	C	0.995907	0.160911	0.186986
C63	C	0.957879	-0.521955	-0.305912
C64	C	1.457879	-0.021955	0.194088
C65	C	0.954888	-0.600189	-0.302898
C66	C	1.454888	-0.100189	0.197102
C67	C	0.996745	-0.636876	-0.344809
C68	C	1.496745	-0.136876	0.155191
C69	C	0.993931	-0.710385	-0.341979
C70	C	1.493931	-0.210385	0.158021
C71	C	0.949263	-0.747206	-0.297233
C72	C	1.449263	-0.247206	0.202767
C73	C	0.907400	-0.710515	-0.255321
C74	C	1.407400	-0.210515	0.244679
C75	C	0.910211	-0.637007	-0.258155
C76	C	1.410211	-0.137007	0.241845
C77	C	0.936213	-0.967059	-0.284114
C78	C	1.436213	-0.467059	0.215886
C79	C	0.933407	-1.040572	-0.281281
C80	C	1.433407	-0.540572	0.218719
C81	C	1.019937	-1.040437	-0.367940
C82	C	1.519937	-0.540437	0.132060
C83	C	1.022747	-0.966928	-0.370768
C84	C	1.522747	-0.466928	0.129232
C85	C	0.980882	-0.930243	-0.328858
C86	C	1.480882	-0.430243	0.171142
N87	N	0.946387	-0.822345	-0.294338
N88	N	1.446387	-0.322345	0.205662
N89	N	0.983755	-0.855106	-0.331757
N90	N	1.483755	-0.355106	0.168243
C91	C	1.141560	-0.339095	-0.313031
C92	C	1.641560	0.160905	0.186969
C93	C	1.216792	-0.339101	-0.313041
C94	C	1.716792	0.160899	0.186959
C95	C	0.965058	-0.339037	-0.489554
C96	C	1.465058	0.160963	0.010446
C97	C	0.965074	-0.339018	-0.564787
C98	C	1.465074	0.160982	-0.064787
C99	C	0.972203	-0.155493	-0.320149
C100	C	1.472203	0.344507	0.179851
C101	C	0.975264	-0.077259	-0.323192
C102	C	1.475264	0.422741	0.176808
C103	C	1.010128	-0.294001	-0.601888
C104	C	1.510128	0.205999	-0.101888
C105	C	1.010135	-0.293980	-0.672577
C106	C	1.510135	0.206020	-0.172577
C107	C	0.965093	-0.338981	-0.706164
C108	C	1.465093	0.161019	-0.206164
C109	C	0.920035	-0.384000	-0.669057
C110	C	1.420035	0.116000	-0.169057
C111	C	0.920024	-0.384016	-0.598369
C112	C	1.420024	0.115984	-0.098369
C113	C	0.920075	-0.383934	-0.954133
C114	C	1.420075	0.116066	-0.454133
C115	C	0.920091	-0.383916	-1.024826
C116	C	1.420091	0.116084	-0.524826
C117	C	1.010187	-0.293899	-1.028341
C118	C	1.510187	0.206101	-0.528341
C119	C	1.010176	-0.293915	-0.957653
C120	C	1.510176	0.206085	-0.457653
C121	C	0.965116	-0.338931	-0.920553
C122	C	1.465116	0.161069	-0.420553
C123	C	0.965107	-0.338951	-0.843904
C124	C	1.465107	0.161049	-0.343904
C125	C	0.965104	-0.338964	-0.782812
C126	C	1.465104	0.161036	-0.282812
C127	C	0.965019	-0.339074	-0.137154
C128	C	1.465019	0.160926	0.362846
C129	C	0.965141	-0.338895	-0.061929
C130	C	1.465141	0.161105	0.438071
H131	H	0.220200	-0.420880	-0.388265
H132	H	0.720200	0.079120	0.111735
C133	C	0.817938	-1.063348	-0.247333
C134	C	1.317938	-0.563348	0.252667
C135	C	0.884302	-1.081053	-0.232098
C136	C	1.384302	-0.581053	0.267902
H137	H	0.787627	-1.088344	-0.216973
H138	H	1.287627	-0.588344	0.283027
H139	H	0.813618	-1.014326	-0.243017
H140	H	1.313618	-0.514326	0.256983
H141	H	0.807559	-1.075377	-0.292341
H142	H	1.307559	-0.575377	0.207659
H143	H	0.894682	-1.069018	-0.187092
H144	H	1.394682	-0.569018	0.312908
H145	H	0.888624	-1.130085	-0.236409
H146	H	1.388624	-0.630085	0.263591
H147	H	0.883331	-0.420666	-0.568162
H148	H	1.383331	0.079334	-0.068162
C149	C	0.822148	-0.703259	-0.169952
C150	C	1.322148	-0.203259	0.330048
C151	C	0.858297	-0.750986	-0.206137
C152	C	1.358297	-0.250986	0.293863
H153	H	0.791831	-0.728245	-0.139590
H154	H	1.291831	-0.228245	0.360410
H155	H	0.852749	-0.674579	-0.145195
H156	H	1.352749	-0.174579	0.354805
H157	H	0.797338	-0.674592	-0.200531
H158	H	1.297338	-0.174592	0.299469
H159	H	0.883111	-0.779650	-0.175557
H160	H	1.383111	-0.279650	0.324443
H161	H	0.827692	-0.779678	-0.230895
H162	H	1.327692	-0.279678	0.269105
H163	H	0.575972	-0.420860	-0.388237
H164	H	1.075972	0.079140	0.111763
C165	C	0.830972	-0.472980	-0.658477
C166	C	1.330972	0.027020	-0.158477
C167	C	0.870521	-0.433465	-0.705973
C168	C	1.370521	0.066535	-0.205973
H169	H	0.800403	-0.503516	-0.681268
H170	H	1.300403	-0.003516	-0.181268
H171	H	0.859403	-0.499910	-0.629865
H172	H	1.359403	0.000090	-0.129865
H173	H	0.806279	-0.442308	-0.632095
H174	H	1.306279	0.057692	-0.132095
H175	H	0.895218	-0.464137	-0.732352
H176	H	1.395218	0.035863	-0.232352
H177	H	0.842086	-0.406533	-0.734596
H178	H	1.342086	0.093467	-0.234596
C179	C	0.822329	-0.554431	-0.251855
C180	C	1.322329	-0.054431	0.248145
C181	C	0.864200	-0.596677	-0.212086
C182	C	1.364200	-0.096677	0.287914
H183	H	0.793919	-0.529538	-0.223414
H184	H	1.293919	-0.029538	0.276586
H185	H	0.849335	-0.521987	-0.278903
H186	H	1.349335	-0.021987	0.221097
H187	H	0.795328	-0.583122	-0.280212
H188	H	1.295328	-0.083122	0.219788
H189	H	0.891205	-0.567985	-0.183732
H190	H	1.391205	-0.067985	0.316268
H191	H	0.837191	-0.629125	-0.185027
H192	H	1.337191	-0.129125	0.314973
H193	H	0.704206	-0.420858	-0.388223
H194	H	1.204206	0.079142	0.111777
H195	H	0.354749	-0.257317	-0.237792
H196	H	0.854749	0.242683	0.262208
H197	H	0.883394	-0.420599	-0.923934
H198	H	1.383394	0.079401	-0.423934
H199	H	0.348445	-0.420874	-0.388253
H200	H	0.848445	0.079126	0.111747
C201	C	0.264406	-0.204903	-0.189602
C202	C	0.764406	0.295097	0.310398
C203	C	0.216933	-0.244478	-0.225996
C204	C	0.716933	0.255522	0.274004
H205	H	0.241598	-0.174312	-0.161472
H206	H	0.741598	0.325688	0.338528
H207	H	0.290771	-0.235527	-0.162469
H208	H	0.790771	0.264473	0.337531
H209	H	0.293038	-0.178021	-0.220185
H210	H	0.793038	0.321979	0.279815
H211	H	0.188304	-0.271364	-0.195413
H212	H	0.688304	0.228636	0.304587
H213	H	0.190557	-0.213850	-0.253132
H214	H	0.690557	0.286150	0.246868
H215	H	0.582273	-0.257304	-0.237784
H216	H	1.082273	0.242696	0.262216
C217	C	0.763505	-0.199301	-0.265947
C218	C	1.263505	0.300699	0.234053
C219	C	0.721088	-0.244453	-0.225950
C220	C	1.221088	0.255547	0.274050
H221	H	0.788664	-0.168708	-0.237804
H222	H	1.288664	0.331292	0.262196
H223	H	0.793634	-0.226141	-0.290632
H224	H	1.293634	0.273859	0.209368
H225	H	0.736982	-0.172423	-0.296523
H226	H	1.236982	0.327577	0.203477
H227	H	0.747611	-0.271334	-0.195377
H228	H	1.247611	0.228666	0.304623
H229	H	0.690956	-0.217609	-0.201254
H230	H	1.190956	0.282391	0.298746
H231	H	1.033122	-0.606900	-0.381243
H232	H	1.533122	-0.106900	0.118757
C233	C	0.848319	-0.884499	-0.277800
C234	C	1.348319	-0.384499	0.222200
C235	C	0.890199	-0.926745	-0.238040
C236	C	1.390199	-0.426745	0.261960
H237	H	0.819908	-0.859614	-0.249352
H238	H	1.319908	-0.359614	0.250648
H239	H	0.875319	-0.852047	-0.304845
H240	H	1.375319	-0.352047	0.195155
H241	H	0.821319	-0.913189	-0.306159
H242	H	1.321319	-0.413189	0.193841
H243	H	0.917202	-0.898055	-0.209685
H244	H	1.417202	-0.398055	0.290315
H245	H	0.863195	-0.959200	-0.210983
H246	H	1.363195	-0.459200	0.289017
H247	H	1.028021	-0.740252	-0.376102
H248	H	1.528021	-0.240252	0.123898
H249	H	1.059120	-0.936950	-0.407203
H250	H	1.559120	-0.436950	0.092797
C251	C	1.054046	-1.153060	-0.402081
C252	C	1.554046	-0.653060	0.097919
C253	C	1.065946	-1.080764	-0.414012
C254	C	1.565946	-0.580764	0.085988
H255	H	1.082448	-1.177954	-0.430530
H256	H	1.582448	-0.677954	0.069470
H257	H	1.063523	-1.165123	-0.356154
H258	H	1.563523	-0.665123	0.143846
H259	H	1.008099	-1.165134	-0.411477
H260	H	1.508099	-0.665134	0.088523
H261	H	1.111892	-1.068689	-0.404611
H262	H	1.611892	-0.568689	0.095389
H263	H	1.056475	-1.068695	-0.459949
H264	H	1.556475	-0.568695	0.040051
C265	C	1.099182	-0.205013	-0.612471
C266	C	1.599182	0.294987	-0.112471
C267	C	1.059639	-0.244532	-0.564974
C268	C	1.559639	0.255468	-0.064974
H269	H	1.129745	-0.174468	-0.589681
H270	H	1.629745	0.325532	-0.089681
H271	H	1.123876	-0.235675	-0.638851
H272	H	1.623876	0.264325	-0.138851
H273	H	1.070741	-0.178084	-0.641085
H274	H	1.570741	0.321916	-0.141085
H275	H	1.088080	-0.271465	-0.536362
H276	H	1.588080	0.228535	-0.036362
H277	H	1.034944	-0.213867	-0.538582
H278	H	1.534944	0.286133	-0.038582
C279	C	1.023251	-0.199270	-0.755738
C280	C	1.523251	0.300730	-0.255738
C281	C	1.059656	-0.244487	-0.713353
C282	C	1.559656	0.255513	-0.213353
H283	H	1.053824	-0.168708	-0.780905
H284	H	1.553824	0.331292	-0.280905
H285	H	0.996438	-0.226064	-0.785859
H286	H	1.496438	0.273936	-0.285859
H287	H	0.994810	-0.172362	-0.729190
H288	H	1.494810	0.327638	-0.229190
H289	H	1.088094	-0.271399	-0.739901
H290	H	1.588094	0.228601	-0.239901
H291	H	1.086481	-0.217690	-0.683228
H292	H	1.586481	0.282310	-0.183228
H293	H	1.046857	-0.257273	-0.930311
H294	H	1.546857	0.242727	-0.430311
H295	H	1.046874	-0.257242	-1.058557
H296	H	1.546874	0.242758	-0.558557
C297	C	0.831014	-0.472891	-1.014255
C298	C	1.331014	0.027109	-0.514255
C299	C	0.870571	-0.433379	-1.061746
C300	C	1.370571	0.066621	-0.561746
H301	H	0.800443	-0.503422	-1.037050
H302	H	1.300443	-0.003422	-0.537050
H303	H	0.859441	-0.499827	-0.985643
H304	H	1.359441	0.000173	-0.485643
H305	H	0.806324	-0.442219	-0.987872
H306	H	1.306324	0.057781	-0.487872
H307	H	0.895266	-0.464051	-1.088126
H308	H	1.395266	0.035949	-0.588126
H309	H	0.842141	-0.406440	-1.090370
H310	H	1.342141	0.093560	-0.590370
