data_functionalizedCrystal
_audit_creation_method	'MofGen! by Chris Wilmer'
_symmetry_space_group_name_H-M	'P1'
_symmetry_Int_Tables_number	1
_symmetry_cell_setting	triclinic
loop_
_symmetry_equiv_pos_as_xyz
  x,y,z
_cell_length_a	10.723023
_cell_length_b	27.732048
_cell_length_c	9.798715
_cell_angle_alpha	89.992463
_cell_angle_beta	89.996215
_cell_angle_gamma	83.555101
loop_
_atom_site_label
_atom_site_type_symbol
_atom_site_fract_x
_atom_site_fract_y
_atom_site_fract_z
O1	O	1.654384	0.067787	-0.113494
O2	O	1.290963	0.074276	-0.113501
O3	O	1.483960	0.000705	-0.113471
O4	O	1.461386	0.141358	-0.113523
O5	O	1.483944	0.000705	0.113511
O6	O	1.290946	0.074277	0.113481
O7	O	1.654367	0.067788	0.113489
Zn8	Zn	1.472654	0.071032	0.149523
Zn9	Zn	1.472676	0.071031	-0.149536
O10	O	1.461370	0.141359	0.113459
C11	C	1.244474	0.073804	-0.000010
C12	C	1.105978	0.072392	-0.000012
C13	C	1.044224	0.071762	0.117571
C14	C	0.901081	0.070302	0.117572
C15	C	1.483478	-0.017305	0.000024
C16	C	1.482051	-0.070968	0.000035
C17	C	1.587117	-0.409131	-0.000033
C18	C	1.581823	-0.610824	-0.000052
O19	O	1.677899	-0.641483	-0.000110
N20	N	1.467384	-0.630658	-0.000053
C21	C	1.354259	-0.600066	-0.000058
O22	O	1.256800	-0.621564	-0.000074
C23	C	1.359555	-0.398374	-0.000049
C24	C	1.474002	-0.378543	-0.000034
C25	C	1.701555	-0.389299	-0.000020
C26	C	1.702877	-0.338879	-0.000007
C27	C	1.589762	-0.308291	-0.000009
C28	C	1.475324	-0.328123	-0.000022
C29	C	1.246432	-0.367783	-0.000064
C30	C	1.247766	-0.317357	-0.000065
C31	C	1.362213	-0.297526	-0.000050
C32	C	1.363531	-0.247114	-0.000011
N33	N	1.477971	-0.227280	-0.000010
C34	C	1.591086	-0.257868	-0.000009
C35	C	1.351487	-0.705957	-0.000061
C36	C	1.350163	-0.756380	-0.000060
C37	C	1.577727	-0.767134	-0.000057
C38	C	1.579050	-0.716711	-0.000047
C39	C	1.465927	-0.686123	-0.000060
C40	C	1.593854	-0.151982	0.000018
C41	C	1.595167	-0.101557	0.000036
C42	C	1.367603	-0.090807	0.000025
C43	C	1.366290	-0.141227	0.000015
C44	C	1.479426	-0.171814	0.000006
O45	O	1.267507	-0.216426	0.000032
O46	O	1.688531	-0.236361	-0.000024
C47	C	1.585795	-0.459551	-0.000045
C48	C	1.471357	-0.479383	-0.000059
C49	C	1.358242	-0.448795	-0.000060
C50	C	1.470033	-0.529806	-0.000058
C51	C	1.583149	-0.560394	-0.000057
C52	C	1.697588	-0.540560	-0.000056
C53	C	1.698910	-0.490140	-0.000044
C54	C	1.243802	-0.468629	-0.000061
C55	C	1.242489	-0.519050	-0.000071
C56	C	1.355605	-0.549638	-0.000070
C57	C	1.700856	0.068259	-0.000005
C58	C	1.839351	0.069672	-0.000012
C59	C	1.461852	0.159368	-0.000039
C60	C	1.463279	0.213032	-0.000059
N61	N	1.472648	0.071033	0.353623
C62	C	1.553688	0.040006	0.421412
C63	C	1.553706	0.040005	0.578575
N64	N	1.472682	0.071031	0.646365
H65	H	1.052877	0.071848	-0.100678
C66	C	1.115948	0.072495	0.253567
H67	H	1.202746	0.073384	0.235725
H68	H	1.104735	0.044144	0.304452
H69	H	1.084619	0.100419	0.304420
C70	C	0.829353	0.069572	0.253573
H71	H	0.886650	0.070160	0.327343
H72	H	0.788636	0.040919	0.258659
H73	H	0.768529	0.097195	0.258632
C74	C	1.647398	0.004121	0.342647
H75	H	1.635097	0.008831	0.247349
H76	H	1.634262	-0.028169	0.366014
H77	H	1.730660	0.009568	0.365975
C78	C	0.911071	0.070405	-0.136019
H79	H	0.853771	0.069824	-0.209789
H80	H	0.971902	0.042788	-0.141085
H81	H	0.951775	0.099063	-0.141099
H82	H	1.688367	-0.085413	0.000052
H83	H	1.685981	-0.176880	0.000006
C84	C	1.828770	-0.317071	-0.000017
H85	H	1.895938	-0.342516	-0.000034
H86	H	1.834032	-0.297628	0.079132
H87	H	1.834019	-0.297624	-0.079185
H88	H	1.623092	0.013444	0.636871
C89	C	1.825993	-0.422940	-0.000007
H90	H	1.894326	-0.403900	0.000011
H91	H	1.830235	-0.442833	-0.079155
H92	H	1.830202	-0.442833	0.079162
H93	H	1.672243	-0.700568	-0.000036
C94	C	1.702151	-0.800787	-0.000077
H95	H	1.684961	-0.833656	-0.000093
H96	H	1.749136	-0.794744	0.079067
H97	H	1.749106	-0.794730	-0.079251
H98	H	1.256969	-0.772521	-0.000049
H99	H	1.259363	-0.681056	-0.000070
H100	H	1.153237	-0.383920	-0.000084
H101	H	1.403301	0.097597	0.588078
C102	C	1.378916	0.106911	0.432382
H103	H	1.328059	0.126373	0.369471
H104	H	1.423604	0.127118	0.488121
H105	H	1.327230	0.089372	0.488126
H106	H	1.155645	-0.292454	-0.000077
H107	H	1.273098	-0.157375	0.000040
H108	H	1.149286	-0.535191	-0.000072
H109	H	1.275508	-0.065893	0.000029
H110	H	1.792105	-0.473998	-0.000032
H111	H	1.789691	-0.565474	-0.000049
H112	H	1.151688	-0.443728	-0.000065
