data_functionalizedCrystal
_audit_creation_method	'MofGen! by Chris Wilmer'
_symmetry_space_group_name_H-M	'P1'
_symmetry_Int_Tables_number	1
_symmetry_cell_setting	triclinic
loop_
_symmetry_equiv_pos_as_xyz
  x,y,z
_cell_length_a	17.699083
_cell_length_b	10.723024
_cell_length_c	16.776229
_cell_angle_alpha	89.994545
_cell_angle_beta	89.998886
_cell_angle_gamma	83.875442
loop_
_atom_site_label
_atom_site_type_symbol
_atom_site_fract_x
_atom_site_fract_y
_atom_site_fract_z
O1	O	1.005074	0.157797	-0.066174
O2	O	1.505074	0.657797	0.433826
O3	O	0.784825	0.178327	-0.066200
O4	O	1.284825	0.678327	0.433800
O5	O	0.900030	-0.013601	-0.066184
O6	O	1.400030	0.486399	0.433816
O7	O	0.889869	0.349725	-0.066191
O8	O	1.389869	0.849725	0.433809
O9	O	0.900014	-0.013613	0.066393
O10	O	1.400014	0.486387	0.566393
O11	O	0.784809	0.178315	0.066376
O12	O	1.284809	0.678315	0.566376
O13	O	1.005058	0.157785	0.066402
O14	O	1.505058	0.657785	0.566402
Zn15	Zn	0.894931	0.168048	0.087439
Zn16	Zn	1.394931	0.668048	0.587439
Zn17	Zn	0.894952	0.168064	-0.087237
Zn18	Zn	1.394952	0.668064	0.412763
O19	O	0.889854	0.349713	0.066386
O20	O	1.389854	0.849713	0.566386
C21	C	0.756616	0.177585	0.000085
C22	C	1.256616	0.677585	0.500085
C23	C	0.672584	0.175378	0.000075
C24	C	1.172584	0.675378	0.500075
C25	C	0.624673	0.288036	0.000073
C26	C	1.124673	0.788036	0.500073
C27	C	0.545717	0.285955	0.000083
C28	C	1.045717	0.785955	0.500083
C29	C	0.514672	0.171215	0.000090
C30	C	1.014672	0.671215	0.500090
C31	C	0.562589	0.058549	0.000094
C32	C	1.062589	0.558549	0.500094
C33	C	0.641544	0.060631	0.000090
C34	C	1.141544	0.560631	0.500090
C35	C	0.244173	0.050148	0.000114
C36	C	0.744173	0.550148	0.500114
C37	C	0.165212	0.048075	0.000116
C38	C	0.665212	0.548075	0.500116
C39	C	0.148346	0.275473	0.000108
C40	C	0.648346	0.775473	0.500108
C41	C	0.227301	0.277555	0.000103
C42	C	0.727301	0.777555	0.500103
C43	C	0.275210	0.164889	0.000112
C44	C	0.775210	0.664889	0.500112
C45	C	0.360824	0.167147	0.000102
C46	C	0.860824	0.667147	0.500102
C47	C	0.429060	0.168956	0.000094
C48	C	0.929060	0.668956	0.500094
C49	C	0.899283	-0.060094	0.000103
C50	C	1.399283	0.439906	0.500103
C51	C	0.897070	-0.198610	0.000100
C52	C	1.397070	0.301390	0.500100
C53	C	0.961533	-0.274698	0.000107
C54	C	1.461533	0.225302	0.500107
C55	C	0.959248	-0.417863	0.000104
C56	C	1.459248	0.082137	0.500104
C57	C	1.033268	0.158527	0.000115
C58	C	1.533268	0.658527	0.500115
C59	C	1.117300	0.160734	0.000120
C60	C	1.617300	0.660734	0.500120
C61	C	0.890601	0.396206	0.000097
C62	C	1.390601	0.896206	0.500097
C63	C	0.892813	0.534723	0.000095
C64	C	1.392813	1.034723	0.500095
N65	N	0.894923	0.168037	0.206650
N66	N	1.394923	0.668037	0.706650
N67	N	0.894966	0.168065	-0.206448
N68	N	1.394966	0.668065	0.293552
C69	C	0.945952	0.083086	0.248374
C70	C	1.445952	0.583086	0.748374
C71	C	0.945956	0.083085	0.331826
C72	C	1.445956	0.583085	0.831826
C73	C	0.894934	0.168042	0.373553
C74	C	1.394934	0.668042	0.873553
C75	C	0.843900	0.252997	0.331822
C76	C	1.343900	0.752997	0.831822
C77	C	0.843893	0.252991	0.248372
C78	C	1.343893	0.752991	0.748372
C79	C	0.843928	0.253021	0.668370
C80	C	1.343928	0.753021	1.168370
C81	C	0.843941	0.253023	0.751826
C82	C	1.343941	0.753023	1.251826
C83	C	0.945991	0.083115	0.751824
C84	C	1.445991	0.583115	1.251824
C85	C	0.945983	0.083109	0.668374
C86	C	1.445983	0.583109	1.168374
C87	C	0.894947	0.168059	0.626651
C88	C	1.394947	0.668059	1.126651
C89	C	0.894942	0.168058	0.536162
C90	C	1.394942	0.668058	1.036162
C91	C	0.894942	0.168050	0.464040
C92	C	1.394942	0.668050	0.964040
H93	H	0.537306	-0.034875	0.000111
H94	H	1.037306	0.465125	0.500111
H95	H	0.987545	0.013940	0.785804
H96	H	1.487545	0.513940	1.285804
H97	H	1.018413	-0.233851	0.000118
H98	H	1.518413	0.266149	0.500118
Br99	Br	1.051233	-0.526824	0.000122
Br100	Br	1.551233	-0.026824	0.500122
Br101	Br	0.774650	0.368290	0.388448
Br102	Br	1.274650	0.868290	0.888448
H103	H	0.506711	0.377693	0.000081
H104	H	1.006711	0.877693	0.500081
Br105	Br	0.774632	0.368279	0.191746
Br106	Br	1.274632	0.868279	0.691746
H107	H	0.649943	0.381471	0.000067
H108	H	1.149943	0.881471	0.500067
Br109	Br	0.774668	0.368309	0.611750
Br110	Br	1.274668	0.868309	1.111750
Br111	Br	0.706566	-0.092268	0.000099
Br112	Br	1.206566	0.407732	0.500099
H113	H	0.837625	-0.399906	0.000094
H114	H	1.337625	0.100094	0.500094
H115	H	0.987507	0.013911	0.365798
H116	H	1.487507	0.513911	0.865798
Br117	Br	1.015205	-0.032211	0.191754
Br118	Br	1.515205	0.467789	0.691754
Br119	Br	0.802260	-0.266677	0.000078
Br120	Br	1.302260	0.233323	0.500078
H121	H	0.987532	0.013934	0.634403
H122	H	1.487532	0.513934	1.134403
H123	H	0.109328	0.367210	0.000105
H124	H	0.609328	0.867210	0.500105
Br125	Br	0.774694	0.368331	0.808455
Br126	Br	1.274694	0.868331	1.308455
H127	H	0.139939	-0.045366	0.000123
H128	H	0.639939	0.454634	0.500123
Br129	Br	0.269428	0.433279	0.000087
Br130	Br	0.769428	0.933279	0.500087
H131	H	0.283172	-0.041591	0.000122
H132	H	0.783172	0.458409	0.500122
