data_functionalizedCrystal
_audit_creation_method	'MofGen! by Chris Wilmer'
_symmetry_space_group_name_H-M	'P1'
_symmetry_Int_Tables_number	1
_symmetry_cell_setting	triclinic
loop_
_symmetry_equiv_pos_as_xyz
  x,y,z
_cell_length_a	12.837932
_cell_length_b	12.837942
_cell_length_c	11.892095
_cell_angle_alpha	94.302569
_cell_angle_beta	85.688545
_cell_angle_gamma	94.829322
loop_
_atom_site_label
_atom_site_type_symbol
_atom_site_fract_x
_atom_site_fract_y
_atom_site_fract_z
O1	O	1.408370	0.266118	-0.094005
O2	O	1.908370	0.766118	0.405995
O3	O	1.105236	0.252673	-0.094007
O4	O	1.605236	0.752673	0.405993
O5	O	1.250081	0.107829	-0.093999
O6	O	1.750081	0.607829	0.406001
O7	O	1.263525	0.410962	-0.094013
O8	O	1.763525	0.910962	0.405987
O9	O	1.238002	0.119885	0.094008
O10	O	1.738002	0.619885	0.594008
O11	O	1.093157	0.264729	0.094000
O12	O	1.593157	0.764729	0.594000
O13	O	1.396291	0.278175	0.094002
O14	O	1.896291	0.778175	0.594002
Zn15	Zn	1.242807	0.273366	0.123851
Zn16	Zn	1.742807	0.773366	0.623851
Zn17	Zn	1.258721	0.257481	-0.123856
Zn18	Zn	1.758721	0.757481	0.376144
O19	O	1.251446	0.423018	0.093994
O20	O	1.751446	0.923018	0.593994
C21	C	1.060128	0.254159	-0.000004
C22	C	1.560128	0.754159	0.499996
C23	C	0.943712	0.240614	-0.000004
C24	C	1.443712	0.740614	0.499996
C25	C	1.239500	0.074788	0.000004
C26	C	1.739500	0.574788	0.500004
C27	C	1.225956	-0.041627	0.000002
C28	C	1.725956	0.458373	0.500002
C29	C	0.782686	0.127402	0.000003
C30	C	1.282686	0.627402	0.500003
C31	C	0.892069	0.140122	0.000002
C32	C	1.392069	0.640122	0.500002
C33	C	0.885965	0.328393	-0.000006
C34	C	1.385965	0.828393	0.499994
C35	C	0.776583	0.315673	-0.000005
C36	C	1.276583	0.815673	0.499995
C37	C	0.724947	0.215174	-0.000002
C38	C	1.224947	0.715174	0.499998
C39	C	0.615563	0.202454	-0.000009
C40	C	1.115563	0.702454	0.499991
C41	C	0.609461	0.390725	-0.000009
C42	C	1.109461	0.890725	0.499991
C43	C	0.718844	0.403445	-0.000010
C44	C	1.218844	0.903445	0.499990
C45	C	1.388787	-0.266502	-0.000021
C46	C	1.888787	0.233498	0.499979
C47	C	1.376066	-0.375884	-0.000023
C48	C	1.876066	0.124116	0.499977
C49	C	1.187794	-0.369778	-0.000012
C50	C	1.687794	0.130222	0.499988
C51	C	1.200515	-0.260395	-0.000010
C52	C	1.700515	0.239605	0.499990
C53	C	1.301015	-0.208761	-0.000013
C54	C	1.801015	0.291239	0.499987
C55	C	1.313734	-0.099376	-0.000003
C56	C	1.813734	0.400624	0.499997
C57	C	1.125464	-0.093271	-0.000000
C58	C	1.625464	0.406729	0.500000
C59	C	1.112743	-0.202654	-0.000002
C60	C	1.612743	0.297346	0.499998
C61	C	1.441400	0.276688	-0.000004
C62	C	1.941400	0.776688	0.499996
C63	C	1.557816	0.290233	-0.000011
C64	C	2.057816	0.790233	0.499989
C65	C	1.262027	0.456059	-0.000011
C66	C	1.762027	0.956059	0.499989
C67	C	1.275572	0.572474	-0.000017
C68	C	1.775572	1.072474	0.499983
N69	N	1.231953	0.284207	0.292904
N70	N	1.731953	0.784207	0.792904
N71	N	1.269582	0.246633	-0.292910
N72	N	1.769582	0.746633	0.207090
C73	C	1.345101	0.171137	0.529558
C74	C	1.845101	0.671137	1.029558
C75	C	1.337523	0.178723	0.647900
C76	C	1.837523	0.678723	1.147900
C77	C	1.209213	0.306959	0.647931
C78	C	1.709213	0.806959	1.147931
C79	C	1.216791	0.299373	0.529590
C80	C	1.716791	0.799373	1.029590
C81	C	1.284739	0.231461	0.470407
C82	C	1.784739	0.731461	0.970407
C83	C	1.292322	0.223881	0.352064
C84	C	1.792322	0.723881	0.852064
C85	C	1.164008	0.352110	0.352097
C86	C	1.664008	0.852110	0.852097
C87	C	1.156429	0.359696	0.470439
C88	C	1.656429	0.859696	0.970439
H89	H	0.573523	0.120623	-0.000011
H90	H	1.073523	0.620623	0.499989
Cl91	Cl	1.061464	-0.434709	-0.000042
Cl92	Cl	1.561464	0.065291	0.499958
Cl93	Cl	1.123787	0.392317	0.722343
Cl94	Cl	1.623787	0.892317	1.222343
Cl95	Cl	1.486414	-0.448470	-0.000036
Cl96	Cl	1.986414	0.051530	0.499964
H97	H	0.760900	0.485269	-0.000008
H98	H	1.260900	0.985269	0.499992
Cl99	Cl	0.986408	-0.267576	-0.000009
Cl100	Cl	1.486408	0.232424	0.499991
Cl101	Cl	1.015114	-0.020676	0.000024
Cl102	Cl	1.515114	0.479324	0.500024
H103	H	0.562438	0.462195	-0.000014
H104	H	1.062438	0.962195	0.499986
Cl105	Cl	1.377743	0.138510	0.277665
Cl106	Cl	1.877743	0.638510	0.777665
Cl107	Cl	1.515124	-0.201584	0.000004
Cl108	Cl	2.015124	0.298416	0.500004
H109	H	1.395566	-0.057337	-0.000001
H110	H	1.895566	0.442663	0.499999
H111	H	1.400434	0.115849	0.481371
H112	H	1.900434	0.615849	0.981371
Cl113	Cl	1.413408	0.102882	0.722258
Cl114	Cl	1.913408	0.602882	1.222258
H115	H	1.101105	0.414986	0.518638
H116	H	1.601105	0.914986	1.018638
H117	H	0.939076	0.068648	0.000007
H118	H	1.439076	0.568648	0.500007
H119	H	1.114860	0.401233	0.303923
H120	H	1.614860	0.901233	0.803923
H121	H	0.740644	0.045571	-0.000006
H122	H	1.240644	0.545571	0.499994
H123	H	0.928025	0.410215	0.000002
H124	H	1.428025	0.910215	0.500002
