data_functionalizedCrystal
_audit_creation_method	'MofGen! by Chris Wilmer'
_symmetry_space_group_name_H-M	'P1'
_symmetry_Int_Tables_number	1
_symmetry_cell_setting	triclinic
loop_
_symmetry_equiv_pos_as_xyz
  x,y,z
_cell_length_a	15.995350
_cell_length_b	15.995350
_cell_length_c	15.072220
_cell_angle_alpha	90.005257
_cell_angle_beta	89.999692
_cell_angle_gamma	96.507625
loop_
_atom_site_label
_atom_site_type_symbol
_atom_site_fract_x
_atom_site_fract_y
_atom_site_fract_z
O1	O	-1.110984	0.107932	0.073699
O2	O	-0.867209	0.121260	0.073716
O3	O	-0.995760	-0.007292	0.073711
O4	O	-0.982433	0.236484	0.073705
O5	O	-0.995752	-0.007307	-0.073854
O6	O	-0.867200	0.121244	-0.073849
O7	O	-1.110976	0.107917	-0.073866
Zn8	Zn	-0.989087	0.114578	-0.097287
Zn9	Zn	-0.989098	0.114599	0.097137
O10	O	-0.982424	0.236468	-0.073860
C11	C	-0.995205	-0.038494	-0.000069
C12	C	-0.993553	-0.131444	-0.000061
C13	C	-0.836010	0.120701	-0.000064
C14	C	-0.743060	0.119049	-0.000057
N15	N	-0.989085	0.114564	-0.229975
C16	C	-1.142175	0.108476	-0.000084
C17	C	-1.235125	0.110127	-0.000085
C18	C	-0.405312	0.113117	-0.000075
C19	C	-0.452746	0.021565	-0.000402
C20	C	-0.549436	0.023217	-0.000063
C21	C	-0.572873	0.116060	-0.000067
C22	C	-0.531790	0.161225	0.084196
C23	C	-0.435155	0.158925	0.084260
C24	C	-0.434806	0.160799	-0.083549
C25	C	-0.531751	0.160777	-0.084657
C26	C	-0.667570	0.117727	-0.000059
C27	C	-0.310614	0.111452	-0.000077
C28	C	-0.982980	0.267671	-0.000079
C29	C	-0.984631	0.360621	-0.000081
C30	C	-0.990564	0.698369	-0.000068
C31	C	-1.082116	0.650935	0.000255
C32	C	-1.080463	0.554244	-0.000082
C33	C	-0.987621	0.530808	-0.000074
C34	C	-0.942460	0.571882	-0.084334
C35	C	-0.944760	0.668518	-0.084400
C36	C	-0.942878	0.668883	0.083409
C37	C	-0.942900	0.571938	0.084518
C38	C	-0.985953	0.436111	-0.000080
C39	C	-0.992229	0.793066	-0.000067
C40	C	-0.989099	0.114592	-0.589177
C41	C	-1.058107	0.046036	-0.551545
C42	C	-1.057927	0.045783	-0.448720
C43	C	-0.989093	0.114578	-0.410973
C44	C	-0.901736	0.095497	-0.448309
C45	C	-0.902144	0.095013	-0.551167
C46	C	-1.006660	0.202431	-0.551257
C47	C	-1.008643	0.201842	-0.448393
C48	C	-0.989084	0.114572	-0.310259
C49	C	-0.989102	0.114597	-0.689890
N50	N	-0.989106	0.114606	0.229826
H51	H	-0.577862	-0.012284	-0.060466
H52	H	-0.877544	0.700766	-0.088225
H53	H	-0.874251	0.557756	-0.087462
H54	H	-0.849147	0.144100	-0.423859
N55	N	-1.084869	0.225447	-0.583771
N56	N	-1.109469	0.293618	-0.560653
H57	H	-1.164708	0.309866	-0.583615
H58	H	-0.402906	0.226141	0.088082
N59	N	-0.429554	-0.024319	-0.076253
N60	N	-0.377789	0.009914	-0.130954
H61	H	-0.361424	-0.022482	-0.184542
H62	H	-0.973827	0.543506	-0.147048
H63	H	-0.849251	0.143047	-0.576061
N64	N	-0.428156	-0.024123	0.074982
N65	N	-0.375849	0.010449	0.128946
H66	H	-0.358480	-0.021815	0.182188
H67	H	-0.972811	0.689429	0.147276
H68	H	-0.560168	0.129868	0.146908
H69	H	-0.885877	0.032167	-0.422554
N70	N	-0.584382	-0.021605	0.075848
N71	N	-0.537351	-0.054200	0.128747
H72	H	-0.562030	-0.085857	0.182365
N73	N	-1.127800	0.675513	-0.075139
N74	N	-1.101736	0.663163	-0.151683
H75	H	-1.133997	0.680525	-0.204933
H76	H	-0.545915	0.229434	0.087327
H77	H	-1.072906	0.216320	-0.423991
H78	H	-0.414267	0.130862	-0.147418
N79	N	-0.984120	0.537510	0.162717
N80	N	-1.046209	0.482890	0.156242
H81	H	-1.075265	0.458501	0.211471
N82	N	-0.986059	0.691495	-0.163418
N83	N	-0.947827	0.741279	-0.217507
H84	H	-0.976997	0.757505	-0.273315
H85	H	-0.416850	0.126002	0.147250
N86	N	-0.566005	0.119399	-0.162853
N87	N	-0.620501	0.057207	-0.156377
H88	H	-0.644698	0.027981	-0.211601
H89	H	-0.875197	0.556571	0.089615
H90	H	-0.403045	0.228300	-0.084121
H91	H	-0.547116	0.228480	-0.089749
N92	N	-0.858195	0.708714	0.084147
N93	N	-0.798144	0.665092	0.082039
H94	H	-0.738339	0.693225	0.082555
N95	N	-1.139851	0.060034	-0.582573
N96	N	-1.202933	0.011594	-0.559480
H97	H	-1.260668	0.021478	-0.581400
H98	H	-1.115968	0.525824	0.060316
N99	N	-1.128018	0.674187	0.076065
N100	N	-1.093799	0.725993	0.130740
H101	H	-1.126217	0.742420	0.184285
N102	N	-1.125293	0.519290	-0.075993
N103	N	-1.157893	0.566316	-0.128893
H104	H	-1.189556	0.541631	-0.182509
H105	H	-1.122863	0.057145	-0.423476
N106	N	-1.044225	-0.035273	-0.583976
N107	N	-0.983730	-0.042949	-0.634683
H108	H	-0.973920	-0.100374	-0.657586
N109	N	-1.043934	-0.036018	-0.417865
N110	N	-1.034262	-0.093096	-0.472297
H111	H	-1.024409	-0.150881	-0.450508
H112	H	-0.886666	0.030953	-0.575164
N113	N	-0.949673	0.268834	-0.416152
N114	N	-0.892016	0.253283	-0.364845
H115	H	-0.850362	0.300595	-0.342073
N116	N	-0.943521	0.266423	-0.581786
N117	N	-0.885810	0.247537	-0.631253
H118	H	-0.841214	0.292725	-0.652816
