data_functionalizedCrystal
_audit_creation_method	'MofGen! by Chris Wilmer'
_symmetry_space_group_name_H-M	'P1'
_symmetry_Int_Tables_number	1
_symmetry_cell_setting	triclinic
loop_
_symmetry_equiv_pos_as_xyz
  x,y,z
_cell_length_a	16.109301
_cell_length_b	12.837942
_cell_length_c	14.586319
_cell_angle_alpha	89.996741
_cell_angle_beta	89.999213
_cell_angle_gamma	89.145211
loop_
_atom_site_label
_atom_site_type_symbol
_atom_site_fract_x
_atom_site_fract_y
_atom_site_fract_z
O1	O	1.113716	0.133240	-0.076181
O2	O	1.613716	0.633240	0.423819
O3	O	0.872971	0.149822	-0.076196
O4	O	1.372971	0.649822	0.423804
O5	O	0.988005	-0.009370	-0.076183
O6	O	1.488005	0.490630	0.423817
O7	O	0.998682	0.292432	-0.076194
O8	O	1.498682	0.792432	0.423806
O9	O	0.987996	-0.009372	0.076298
O10	O	1.487996	0.490628	0.576298
O11	O	0.872962	0.149819	0.076285
O12	O	1.372962	0.649819	0.576285
O13	O	1.113707	0.133238	0.076299
O14	O	1.613707	0.633238	0.576299
Cu15	Cu	0.993333	0.141528	0.090215
Cu16	Cu	1.493333	0.641528	0.590215
Cu17	Cu	0.993344	0.141531	-0.090111
Cu18	Cu	1.493344	0.641531	0.409889
O19	O	0.998673	0.292430	0.076287
O20	O	1.498673	0.792430	0.576287
C21	C	0.841938	0.149149	0.000043
C22	C	1.341938	0.649149	0.500043
C23	C	0.749483	0.147135	0.000037
C24	C	1.249483	0.647135	0.500037
C25	C	0.534343	0.236914	0.000045
C26	C	1.034343	0.736914	0.500045
C27	C	0.447471	0.235014	0.000051
C28	C	0.947471	0.735014	0.500051
C29	C	0.452341	0.046138	0.000054
C30	C	0.952341	0.546138	0.500054
C31	C	0.539211	0.048040	0.000054
C32	C	1.039211	0.548040	0.500054
C33	C	0.580209	0.143431	0.000045
C34	C	1.080209	0.643431	0.500045
C35	C	0.406468	0.139629	0.000050
C36	C	0.906468	0.639629	0.500050
C37	C	0.312278	0.137568	0.000057
C38	C	0.812278	0.637568	0.500057
C39	C	0.674405	0.145492	0.000040
C40	C	1.174405	0.645492	0.500040
C41	C	0.984394	-0.047991	0.000056
C42	C	1.484394	0.452009	0.500056
C43	C	0.973637	-0.163064	0.000054
C44	C	1.473637	0.336936	0.500054
C45	C	1.102954	-0.404066	0.000043
C46	C	1.602954	0.095934	0.500043
C47	C	1.092851	-0.512188	0.000041
C48	C	1.592851	-0.012188	0.500041
C49	C	0.943328	-0.487433	0.000041
C50	C	1.443328	0.012567	0.500041
C51	C	0.953431	-0.379311	0.000043
C52	C	1.453431	0.120689	0.500043
C53	C	1.033247	-0.337632	0.000046
C54	C	1.533247	0.162368	0.500046
C55	C	1.043349	-0.229507	0.000054
C56	C	1.543349	0.270493	0.500054
C57	C	0.893827	-0.204754	0.000048
C58	C	1.393827	0.295246	0.500048
C59	C	0.883724	-0.312876	0.000046
C60	C	1.383724	0.187124	0.500046
C61	C	1.144739	0.133911	0.000059
C62	C	1.644739	0.633911	0.500059
C63	C	1.237195	0.135924	0.000058
C64	C	1.737195	0.635924	0.500058
C65	C	1.002284	0.331050	0.000045
C66	C	1.502284	0.831050	0.500045
C67	C	1.013041	0.446124	0.000041
C68	C	1.513041	0.946124	0.500041
N69	N	0.993332	0.141526	0.217047
N70	N	1.493332	0.641526	0.717047
N71	N	0.993352	0.141526	-0.216943
N72	N	1.493352	0.641526	0.283057
C73	C	1.044290	0.071059	0.452059
C74	C	1.544290	0.571059	0.952059
C75	C	1.044292	0.071057	0.548040
C76	C	1.544292	0.571057	1.048040
C77	C	0.942388	0.211995	0.548038
C78	C	1.442388	0.711995	1.048038
C79	C	0.942382	0.211992	0.452059
C80	C	1.442382	0.711992	0.952059
C81	C	0.993338	0.141525	0.404071
C82	C	1.493338	0.641525	0.904071
C83	C	0.993346	0.141526	0.596032
C84	C	1.493346	0.641526	1.096032
C85	C	0.993348	0.141524	0.700099
C86	C	1.493348	0.641524	1.200099
C87	C	0.993335	0.141526	0.299998
C88	C	1.493335	0.641526	0.799998
H89	H	0.418949	-0.031526	0.000066
H90	H	0.918949	0.468474	0.500066
C91	C	0.589667	-0.054805	0.000055
C92	C	1.089667	0.445195	0.500055
N93	N	0.627671	-0.132264	0.000058
N94	N	1.127671	0.367736	0.500058
H95	H	0.900887	0.269375	0.412985
H96	H	1.400887	0.769375	0.912985
H97	H	1.085780	0.013676	0.587108
H98	H	1.585780	0.513676	1.087108
C99	C	0.886338	0.289503	0.600833
C100	C	1.386338	0.789503	1.100833
N101	N	0.844120	0.347883	0.640598
N102	N	1.344120	0.847883	1.140598
C103	C	0.795932	-0.358737	0.000054
C104	C	1.295932	0.141263	0.500054
N105	N	0.729805	-0.393278	0.000067
N106	N	1.229805	0.106722	0.500067
H107	H	0.878346	-0.521388	0.000030
H108	H	1.378346	-0.021388	0.500030
H109	H	1.108339	-0.195574	0.000059
H110	H	1.608339	0.304426	0.500059
H111	H	1.167943	-0.370130	0.000054
H112	H	1.667943	0.129870	0.500054
H113	H	0.410130	0.311138	0.000052
H114	H	0.910130	0.811138	0.500052
C115	C	1.169535	-0.585264	0.000044
C116	C	1.669535	-0.085264	0.500044
N117	N	1.227296	-0.640304	0.000048
N118	N	1.727296	-0.140304	0.500048
C119	C	0.579438	0.341847	0.000046
C120	C	1.079438	0.841847	0.500046
N121	N	0.613401	0.420885	0.000052
N122	N	1.113401	0.920885	0.500052
C123	C	0.817145	-0.131666	0.000052
C124	C	1.317145	0.368334	0.500052
N125	N	0.759389	-0.076616	0.000057
N126	N	1.259389	0.423384	0.500057
H127	H	1.085779	0.013680	0.412990
H128	H	1.585779	0.513680	0.912990
