data_functionalizedCrystal
_audit_creation_method	'MofGen! by Chris Wilmer'
_symmetry_space_group_name_H-M	'P1'
_symmetry_Int_Tables_number	1
_symmetry_cell_setting	triclinic
loop_
_symmetry_equiv_pos_as_xyz
  x,y,z
_cell_length_a	19.188930
_cell_length_b	27.732025
_cell_length_c	18.266242
_cell_angle_alpha	90.008162
_cell_angle_beta	89.977082
_cell_angle_gamma	82.889129
loop_
_atom_site_label
_atom_site_type_symbol
_atom_site_fract_x
_atom_site_fract_y
_atom_site_fract_z
O1	O	0.925757	0.060349	-0.061093
O2	O	1.175757	0.310349	0.188907
O3	O	1.425757	0.560349	0.438907
O4	O	1.675757	0.810349	0.688907
O5	O	0.722393	0.068472	-0.061040
O6	O	0.972393	0.318472	0.188960
O7	O	1.222393	0.568472	0.438960
O8	O	1.472393	0.818472	0.688960
O9	O	0.830400	-0.005968	-0.061090
O10	O	1.080400	0.244032	0.188910
O11	O	1.330400	0.494032	0.438910
O12	O	1.580400	0.744032	0.688910
O13	O	0.817751	0.134789	-0.061042
O14	O	1.067751	0.384789	0.188958
O15	O	1.317751	0.634789	0.438958
O16	O	1.567751	0.884789	0.688958
O17	O	0.830381	-0.005971	0.060672
O18	O	1.080381	0.244029	0.310672
O19	O	1.330381	0.494029	0.560672
O20	O	1.580381	0.744029	0.810672
O21	O	0.722375	0.068469	0.060722
O22	O	0.972375	0.318469	0.310722
O23	O	1.222375	0.568469	0.560722
O24	O	1.472375	0.818469	0.810722
O25	O	0.925739	0.060345	0.060669
O26	O	1.175739	0.310345	0.310669
O27	O	1.425739	0.560345	0.560669
O28	O	1.675739	0.810345	0.810669
Zn29	Zn	0.824054	0.064406	0.080028
Zn30	Zn	1.074054	0.314406	0.330028
Zn31	Zn	1.324054	0.564406	0.580028
Zn32	Zn	1.574054	0.814406	0.830028
Zn33	Zn	0.824078	0.064411	-0.080399
Zn34	Zn	1.074078	0.314411	0.169601
Zn35	Zn	1.324078	0.564411	0.419601
Zn36	Zn	1.574078	0.814411	0.669601
O37	O	0.817733	0.134785	0.060720
O38	O	1.067733	0.384785	0.310720
O39	O	1.317733	0.634785	0.560720
O40	O	1.567733	0.884785	0.810720
C41	C	0.696375	0.068207	-0.000152
C42	C	0.946375	0.318207	0.249848
C43	C	1.196375	0.568207	0.499848
C44	C	1.446375	0.818207	0.749848
C45	C	0.618876	0.067418	-0.000133
C46	C	0.868876	0.317418	0.249867
C47	C	1.118876	0.567418	0.499867
C48	C	1.368876	0.817418	0.749867
C49	C	0.830127	-0.023977	-0.000216
C50	C	1.080127	0.226023	0.249784
C51	C	1.330127	0.476023	0.499784
C52	C	1.580127	0.726023	0.749784
C53	C	0.829335	-0.077635	-0.000238
C54	C	1.079335	0.172365	0.249762
C55	C	1.329335	0.422365	0.499762
C56	C	1.579335	0.672365	0.749762
C57	C	0.573668	0.111097	-0.000130
C58	C	0.823668	0.361097	0.249870
C59	C	1.073668	0.611097	0.499870
C60	C	1.323668	0.861097	0.749870
C61	C	0.500849	0.110355	-0.000138
C62	C	0.750849	0.360355	0.249862
C63	C	1.000849	0.610355	0.499862
C64	C	1.250849	0.860355	0.749862
C65	C	0.473241	0.065931	-0.000165
C66	C	0.723241	0.315931	0.249835
C67	C	0.973241	0.565931	0.499835
C68	C	1.223241	0.815931	0.749835
C69	C	0.518458	0.022247	-0.000164
C70	C	0.768458	0.272247	0.249836
C71	C	1.018458	0.522247	0.499836
C72	C	1.268458	0.772247	0.749836
C73	C	0.591276	0.022990	-0.000148
C74	C	0.841276	0.272990	0.249852
C75	C	1.091276	0.522990	0.499852
C76	C	1.341276	0.772990	0.749852
N77	N	0.365487	0.031977	-0.041647
N78	N	0.615487	0.281977	0.208353
N79	N	0.865487	0.531977	0.458353
N80	N	1.115487	0.781977	0.708353
N81	N	0.296313	0.031274	-0.041663
N82	N	0.546313	0.281274	0.208337
N83	N	0.796313	0.531274	0.458337
N84	N	1.046313	0.781274	0.708337
C85	C	0.253847	0.063690	-0.000210
C86	C	0.503847	0.313690	0.249790
C87	C	0.753847	0.563690	0.499790
C88	C	1.003847	0.813690	0.749790
N89	N	0.283166	0.096843	0.041251
N90	N	0.533166	0.346843	0.291251
N91	N	0.783166	0.596843	0.541251
N92	N	1.033166	0.846843	0.791251
N93	N	0.352346	0.097547	0.041264
N94	N	0.602346	0.347547	0.291264
N95	N	0.852346	0.597547	0.541264
N96	N	1.102346	0.847547	0.791264
C97	C	0.394284	0.065121	-0.000181
C98	C	0.644284	0.315121	0.249819
C99	C	0.894284	0.565121	0.499819
C100	C	1.144284	0.815121	0.749819
C101	C	0.129680	0.106567	-0.000215
C102	C	0.379680	0.356567	0.249785
C103	C	0.629680	0.606567	0.499785
C104	C	0.879680	0.856567	0.749785
C105	C	0.056860	0.105823	-0.000218
C106	C	0.306860	0.355823	0.249782
C107	C	0.556860	0.605823	0.499782
C108	C	0.806860	0.855823	0.749782
C109	C	0.074471	0.017714	-0.000251
C110	C	0.324471	0.267714	0.249749
C111	C	0.574471	0.517714	0.499749
C112	C	0.824471	0.767714	0.749749
C113	C	0.147289	0.018459	-0.000240
C114	C	0.397289	0.268459	0.249760
C115	C	0.647289	0.518459	0.499760
C116	C	0.897289	0.768459	0.749760
C117	C	0.174889	0.062887	-0.000225
C118	C	0.424889	0.312887	0.249775
C119	C	0.674889	0.562887	0.499775
C120	C	0.924889	0.812887	0.749775
C121	C	0.823717	-0.460816	-0.066566
C122	C	1.073717	-0.210816	0.183434
C123	C	1.323717	0.039184	0.433434
C124	C	1.573717	0.289184	0.683434
C125	C	0.826681	-0.259148	-0.066591
C126	C	1.076681	-0.009148	0.183409
C127	C	1.326681	0.240852	0.433409
C128	C	1.576681	0.490852	0.683409
O129	O	0.827101	-0.233077	-0.123040
O130	O	1.077101	0.016923	0.126960
O131	O	1.327101	0.266923	0.376960
O132	O	1.577101	0.516923	0.626960
N133	N	0.827042	-0.233927	-0.000220
N134	N	1.077042	0.016073	0.249780
N135	N	1.327042	0.266073	0.499780
N136	N	1.577042	0.516073	0.749780
C137	C	0.826666	-0.259128	0.066161
C138	C	1.076666	-0.009128	0.316161
C139	C	1.326666	0.240872	0.566161
C140	C	1.576666	0.490872	0.816161
O141	O	0.827048	-0.233049	0.122613
O142	O	1.077048	0.016951	0.372613
O143	O	1.327048	0.266951	0.622613
O144	O	1.577048	0.516951	0.872613
C145	C	0.823707	-0.460796	0.066185
C146	C	1.073707	-0.210796	0.316185
C147	C	1.323707	0.039204	0.566185
C148	C	1.573707	0.289204	0.816185
C149	C	0.823339	-0.486013	-0.000190
C150	C	1.073339	-0.236013	0.249810
C151	C	1.323339	0.013987	0.499810
C152	C	1.573339	0.263987	0.749810
C153	C	0.823350	-0.486033	-0.132936
C154	C	1.073350	-0.236033	0.117064
C155	C	1.323350	0.013967	0.367064
C156	C	1.573350	0.263967	0.617064
C157	C	0.822605	-0.536447	-0.132929
C158	C	1.072605	-0.286447	0.117071
C159	C	1.322605	-0.036447	0.367071
C160	C	1.572605	0.213553	0.617071
C161	C	0.822227	-0.561644	-0.066553
C162	C	1.072227	-0.311644	0.183447
C163	C	1.322227	-0.061644	0.433447
C164	C	1.572227	0.188356	0.683447
C165	C	0.822594	-0.536426	-0.000183
C166	C	1.072594	-0.286426	0.249817
C167	C	1.322594	-0.036426	0.499817
C168	C	1.572594	0.213574	0.749817
C169	C	0.823336	-0.485996	0.132565
C170	C	1.073336	-0.235996	0.382565
C171	C	1.323336	0.014004	0.632565
C172	C	1.573336	0.264004	0.882565
C173	C	0.822598	-0.536416	0.132565
C174	C	1.072598	-0.286416	0.382565
C175	C	1.322598	-0.036416	0.632565
C176	C	1.572598	0.213584	0.882565
C177	C	0.822230	-0.561633	0.066190
C178	C	1.072230	-0.311633	0.316190
C179	C	1.322230	-0.061633	0.566190
C180	C	1.572230	0.188367	0.816190
C181	C	0.821471	-0.612037	0.066199
C182	C	1.071471	-0.362037	0.316199
C183	C	1.321471	-0.112037	0.566199
C184	C	1.571471	0.137963	0.816199
N185	N	0.821110	-0.637257	-0.000171
N186	N	1.071110	-0.387257	0.249829
N187	N	1.321110	-0.137257	0.499829
N188	N	1.571110	0.112743	0.749829
C189	C	0.821488	-0.612060	-0.066547
C190	C	1.071488	-0.362060	0.183453
C191	C	1.321488	-0.112060	0.433453
C192	C	1.571488	0.137940	0.683453
C193	C	0.828219	-0.153249	0.066144
C194	C	1.078219	0.096751	0.316144
C195	C	1.328219	0.346751	0.566144
C196	C	1.578219	0.596751	0.816144
C197	C	0.828957	-0.102832	0.066138
C198	C	1.078957	0.147168	0.316138
C199	C	1.328957	0.397168	0.566138
C200	C	1.578957	0.647168	0.816138
C201	C	0.828974	-0.102856	-0.066614
C202	C	1.078974	0.147144	0.183386
C203	C	1.328974	0.397144	0.433386
C204	C	1.578974	0.647144	0.683386
C205	C	0.828230	-0.153273	-0.066607
C206	C	1.078230	0.096727	0.183393
C207	C	1.328230	0.346727	0.433393
C208	C	1.578230	0.596727	0.683393
C209	C	0.827858	-0.178469	-0.000226
C210	C	1.077858	0.071531	0.249774
C211	C	1.327858	0.321531	0.499774
C212	C	1.577858	0.571531	0.749774
C213	C	0.819923	-0.717933	-0.066528
C214	C	1.069923	-0.467933	0.183472
C215	C	1.319923	-0.217933	0.433472
C216	C	1.569923	0.032067	0.683472
C217	C	0.819175	-0.768351	-0.066515
C218	C	1.069175	-0.518351	0.183485
C219	C	1.319175	-0.268351	0.433485
C220	C	1.569175	-0.018351	0.683485
C221	C	0.819162	-0.768323	0.066236
C222	C	1.069162	-0.518323	0.316236
C223	C	1.319162	-0.268323	0.566236
C224	C	1.569162	-0.018323	0.816236
C225	C	0.819907	-0.717909	0.066224
C226	C	1.069907	-0.467909	0.316224
C227	C	1.319907	-0.217909	0.566224
C228	C	1.569907	0.032091	0.816224
C229	C	0.820289	-0.692716	-0.000164
C230	C	1.070289	-0.442716	0.249836
C231	C	1.320289	-0.192716	0.499836
C232	C	1.570289	0.057284	0.749836
O233	O	0.821059	-0.638139	0.122619
O234	O	1.071059	-0.388139	0.372619
O235	O	1.321059	-0.138139	0.622619
O236	O	1.571059	0.111861	0.872619
O237	O	0.821122	-0.638149	-0.122990
O238	O	1.071122	-0.388149	0.127010
O239	O	1.321122	-0.138149	0.377010
O240	O	1.571122	0.111851	0.627010
C241	C	0.824462	-0.410402	-0.066573
C242	C	1.074462	-0.160402	0.183427
C243	C	1.324462	0.089598	0.433427
C244	C	1.574462	0.339598	0.683427
C245	C	0.824829	-0.385185	-0.000204
C246	C	1.074829	-0.135185	0.249796
C247	C	1.324829	0.114815	0.499796
C248	C	1.574829	0.364815	0.749796
C249	C	0.824451	-0.410382	0.066172
C250	C	1.074451	-0.160382	0.316172
C251	C	1.324451	0.089618	0.566172
C252	C	1.574451	0.339618	0.816172
C253	C	0.825567	-0.334768	-0.000209
C254	C	1.075567	-0.084768	0.249791
C255	C	1.325567	0.165232	0.499791
C256	C	1.575567	0.415232	0.749791
C257	C	0.825945	-0.309572	-0.066585
C258	C	1.075945	-0.059572	0.183415
C259	C	1.325945	0.190428	0.433415
C260	C	1.575945	0.440428	0.683415
C261	C	0.825585	-0.334792	-0.132956
C262	C	1.075585	-0.084792	0.117044
C263	C	1.325585	0.165208	0.367044
C264	C	1.575585	0.415208	0.617044
C265	C	0.824840	-0.385206	-0.132949
C266	C	1.074840	-0.135206	0.117051
C267	C	1.324840	0.114794	0.367051
C268	C	1.574840	0.364794	0.617051
C269	C	0.824811	-0.385161	0.132543
C270	C	1.074811	-0.135161	0.382543
C271	C	1.324811	0.114839	0.632543
C272	C	1.574811	0.364839	0.882543
C273	C	0.825556	-0.334748	0.132531
C274	C	1.075556	-0.084748	0.382531
C275	C	1.325556	0.165252	0.632531
C276	C	1.575556	0.415252	0.882531
C277	C	0.825934	-0.309551	0.066155
C278	C	1.075934	-0.059551	0.316155
C279	C	1.325934	0.190449	0.566155
C280	C	1.575934	0.440449	0.816155
C281	C	0.951758	0.060610	-0.000220
C282	C	1.201758	0.310610	0.249780
C283	C	1.451758	0.560610	0.499780
C284	C	1.701758	0.810610	0.749780
C285	C	1.029257	0.061400	-0.000244
C286	C	1.279257	0.311400	0.249756
C287	C	1.529257	0.561400	0.499756
C288	C	1.779257	0.811400	0.749756
C289	C	0.818005	0.152795	-0.000156
C290	C	1.068005	0.402795	0.249844
C291	C	1.318005	0.652795	0.499844
C292	C	1.568005	0.902795	0.749844
C293	C	0.818797	0.206453	-0.000139
C294	C	1.068797	0.456453	0.249861
C295	C	1.318797	0.706453	0.499861
C296	C	1.568797	0.956453	0.749861
N297	N	0.824043	0.064402	0.189515
N298	N	1.074043	0.314402	0.439515
N299	N	1.324043	0.564402	0.689515
N300	N	1.574043	0.814402	0.939515
N301	N	0.824095	0.064411	-0.189886
N302	N	1.074095	0.314411	0.060114
N303	N	1.324095	0.564411	0.310114
N304	N	1.574095	0.814411	0.560114
C305	C	0.871884	0.031456	0.227801
C306	C	1.121884	0.281456	0.477801
C307	C	1.371884	0.531456	0.727801
C308	C	1.621884	0.781456	0.977801
C309	C	0.871888	0.031454	0.304446
C310	C	1.121888	0.281454	0.554446
C311	C	1.371888	0.531454	0.804446
C312	C	1.621888	0.781454	1.054446
C313	C	0.824059	0.064406	0.342802
C314	C	1.074059	0.314406	0.592802
C315	C	1.324059	0.564406	0.842802
C316	C	1.574059	0.814406	1.092802
C317	C	0.776209	0.097355	0.304506
C318	C	1.026209	0.347355	0.554506
C319	C	1.276209	0.597355	0.804506
C320	C	1.526209	0.847355	1.054506
C321	C	0.776201	0.097353	0.227863
C322	C	1.026201	0.347353	0.477863
C323	C	1.276201	0.597353	0.727863
C324	C	1.526201	0.847353	0.977863
N325	N	0.814705	0.107197	0.463150
N326	N	1.064705	0.357197	0.713150
N327	N	1.314705	0.607197	0.963150
N328	N	1.564705	0.857197	1.213150
N329	N	0.814717	0.107197	0.535958
N330	N	1.064717	0.357197	0.785958
N331	N	1.314717	0.607197	1.035958
N332	N	1.564717	0.857197	1.285958
C333	C	0.824078	0.064413	0.573724
C334	C	1.074078	0.314413	0.823724
C335	C	1.324078	0.564413	1.073724
C336	C	1.574078	0.814413	1.323724
N337	N	0.833441	0.021628	0.535932
N338	N	1.083441	0.271628	0.785932
N339	N	1.333441	0.521628	1.035932
N340	N	1.583441	0.771628	1.285932
N341	N	0.833433	0.021628	0.463117
N342	N	1.083433	0.271628	0.713117
N343	N	1.333433	0.521628	0.963117
N344	N	1.583433	0.771628	1.213117
C345	C	0.824061	0.064412	0.425909
C346	C	1.074061	0.314412	0.675909
C347	C	1.324061	0.564412	0.925909
C348	C	1.574061	0.814412	1.175909
C349	C	0.871926	0.031462	0.695118
C350	C	1.121926	0.281462	0.945118
C351	C	1.371926	0.531462	1.195118
C352	C	1.621926	0.781462	1.445118
C353	C	0.871926	0.031459	0.771764
C354	C	1.121926	0.281459	1.021764
C355	C	1.371926	0.531459	1.271764
C356	C	1.621926	0.781459	1.521764
C357	C	0.776250	0.097364	0.771823
C358	C	1.026250	0.347364	1.021823
C359	C	1.276250	0.597364	1.271823
C360	C	1.526250	0.847364	1.521823
C361	C	0.776247	0.097363	0.695178
C362	C	1.026247	0.347363	0.945178
C363	C	1.276247	0.597363	1.195178
C364	C	1.526247	0.847363	1.445178
C365	C	0.824089	0.064412	0.656830
C366	C	1.074089	0.314412	0.906830
C367	C	1.324089	0.564412	1.156830
C368	C	1.574089	0.814412	1.406830
H369	H	0.596134	0.147273	-0.000119
H370	H	0.846134	0.397273	0.249881
H371	H	1.096134	0.647273	0.499881
H372	H	1.346134	0.897273	0.749881
H373	H	0.464034	0.145925	-0.000133
H374	H	0.714034	0.395925	0.249867
H375	H	0.964034	0.645925	0.499867
H376	H	1.214034	0.895925	0.749867
F377	F	0.725332	0.132430	0.654427
F378	F	0.975332	0.382430	0.904427
F379	F	1.225332	0.632430	1.154427
F380	F	1.475332	0.882430	1.404427
F381	F	0.922798	-0.003613	0.186991
F382	F	1.172798	0.246387	0.436991
F383	F	1.422798	0.496387	0.686991
F384	F	1.672798	0.746387	0.936991
H385	H	0.824506	-0.405672	0.186595
H386	H	1.074506	-0.155672	0.436595
H387	H	1.324506	0.094328	0.686595
H388	H	1.574506	0.344328	0.936595
H389	H	0.910880	0.004630	0.663894
H390	H	1.160880	0.254630	0.913894
H391	H	1.410880	0.504630	1.163894
H392	H	1.660880	0.754630	1.413894
F393	F	0.922843	-0.003611	0.812513
F394	F	1.172843	0.246389	1.062513
F395	F	1.422843	0.496389	1.312513
F396	F	1.672843	0.746389	1.562513
F397	F	0.489075	-0.025032	-0.000188
F398	F	0.739075	0.224968	0.249812
F399	F	0.989075	0.474968	0.499812
F400	F	1.239075	0.724968	0.749812
F401	F	0.829367	-0.076030	-0.137256
F402	F	1.079367	0.173970	0.112744
F403	F	1.329367	0.423970	0.362744
F404	F	1.579367	0.673970	0.612744
F405	F	0.725342	0.132431	0.812640
F406	F	0.975342	0.382431	1.062640
F407	F	1.225342	0.632431	1.312640
F408	F	1.475342	0.882431	1.562640
H409	H	0.051994	-0.018457	-0.000318
H410	H	0.301994	0.231543	0.249682
H411	H	0.551994	0.481543	0.499682
H412	H	0.801994	0.731543	0.749682
F413	F	0.195405	-0.028031	-0.000248
F414	F	0.445405	0.221969	0.249752
F415	F	0.695405	0.471969	0.499752
F416	F	0.945405	0.721969	0.749752
H417	H	0.628085	-0.012580	-0.000151
H418	H	0.878085	0.237420	0.249849
H419	H	1.128085	0.487420	0.499849
H420	H	1.378085	0.737420	0.749849
F421	F	0.824449	-0.412037	-0.203595
F422	F	1.074449	-0.162037	0.046405
F423	F	1.324449	0.087963	0.296405
F424	F	1.574449	0.337963	0.546405
F425	F	0.818782	-0.795186	-0.137163
F426	F	1.068782	-0.545186	0.112837
F427	F	1.318782	-0.295186	0.362837
F428	F	1.568782	-0.045186	0.612837
H429	H	0.825887	-0.314268	-0.187002
H430	H	1.075887	-0.064268	0.062998
H431	H	1.325887	0.185732	0.312998
H432	H	1.575887	0.435732	0.562998
H433	H	0.152153	0.142743	-0.000192
H434	H	0.402153	0.392743	0.249808
H435	H	0.652153	0.642743	0.499808
H436	H	0.902153	0.892743	0.749808
H437	H	0.020052	0.141394	-0.000212
H438	H	0.270052	0.391394	0.249788
H439	H	0.520052	0.641394	0.499788
H440	H	0.770052	0.891394	0.749788
F441	F	0.922809	-0.003613	0.345200
F442	F	1.172809	0.246387	0.595200
F443	F	1.422809	0.496387	0.845200
F444	F	1.672809	0.746387	1.095200
F445	F	0.820330	-0.691127	-0.137185
F446	F	1.070330	-0.441127	0.112815
F447	F	1.320330	-0.191127	0.362815
F448	F	1.570330	0.058873	0.612815
H449	H	0.822310	-0.556975	-0.186978
H450	H	1.072310	-0.306975	0.063022
H451	H	1.322310	-0.056975	0.313022
H452	H	1.572310	0.193025	0.563022
H453	H	0.737243	0.124182	0.196689
H454	H	0.987243	0.374182	0.446689
H455	H	1.237243	0.624182	0.696689
H456	H	1.487243	0.874182	0.946689
H457	H	0.737264	0.124184	0.335739
H458	H	0.987264	0.374184	0.585739
H459	H	1.237264	0.624184	0.835739
H460	H	1.487264	0.874184	1.085739
H461	H	0.823660	-0.465524	-0.186990
H462	H	1.073660	-0.215524	0.063010
H463	H	1.323660	0.034476	0.313010
H464	H	1.573660	0.284476	0.563010
F465	F	0.827840	-0.180106	-0.137251
F466	F	1.077840	0.069894	0.112749
F467	F	1.327840	0.319894	0.362749
F468	F	1.577840	0.569894	0.612749
H469	H	0.829243	-0.082303	0.120187
H470	H	1.079243	0.167697	0.370187
H471	H	1.329243	0.417697	0.620187
H472	H	1.579243	0.667697	0.870187
F473	F	0.827820	-0.180058	0.136800
F474	F	1.077820	0.069942	0.386800
F475	F	1.327820	0.319942	0.636800
F476	F	1.577820	0.569942	0.886800
H477	H	0.823643	-0.465473	0.186615
H478	H	1.073643	-0.215473	0.436615
H479	H	1.323643	0.034527	0.686615
H480	H	1.573643	0.284527	0.936615
H481	H	0.822295	-0.556928	0.186622
H482	H	1.072295	-0.306928	0.436622
H483	H	1.322295	-0.056928	0.686622
H484	H	1.572295	0.193072	0.936622
H485	H	0.820178	-0.697374	0.120272
H486	H	1.070178	-0.447374	0.370272
H487	H	1.320178	-0.197374	0.620272
H488	H	1.570178	0.052626	0.870272
H489	H	0.818852	-0.788847	0.120278
H490	H	1.068852	-0.538847	0.370278
H491	H	1.318852	-0.288847	0.620278
H492	H	1.568852	-0.038847	0.870278
H493	H	0.825848	-0.314220	0.186585
H494	H	1.075848	-0.064220	0.436585
H495	H	1.325848	0.185780	0.686585
H496	H	1.575848	0.435780	0.936585
