data_functionalizedCrystal
_audit_creation_method	'MofGen! by Chris Wilmer'
_symmetry_space_group_name_H-M	'P1'
_symmetry_Int_Tables_number	1
_symmetry_cell_setting	triclinic
loop_
_symmetry_equiv_pos_as_xyz
  x,y,z
_cell_length_a	16.109301
_cell_length_b	27.731996
_cell_length_c	14.586319
_cell_angle_alpha	89.990257
_cell_angle_beta	89.998857
_cell_angle_gamma	83.041486
loop_
_atom_site_label
_atom_site_type_symbol
_atom_site_fract_x
_atom_site_fract_y
_atom_site_fract_z
O1	O	1.102341	0.062132	-0.076202
O2	O	0.860181	0.069864	-0.076217
O3	O	0.988805	-0.004369	-0.076189
O4	O	0.973718	0.136365	-0.076230
O5	O	0.988796	-0.004370	0.076292
O6	O	0.860172	0.069863	0.076264
O7	O	1.102333	0.062131	0.076279
Cu8	Cu	0.981252	0.065997	0.090194
Cu9	Cu	0.981262	0.065998	-0.090132
O10	O	0.973709	0.136364	0.076251
C11	C	0.829206	0.069550	0.000022
C12	C	0.736923	0.068611	0.000018
C13	C	0.427404	0.109590	0.000022
C14	C	0.514113	0.110477	0.000016
C15	C	0.535105	0.022402	0.000029
C16	C	0.448397	0.021515	0.000028
C17	C	0.394549	0.065111	0.000029
C18	C	0.567965	0.066884	0.000025
C19	C	0.661979	0.067845	0.000019
C20	C	0.300529	0.064150	0.000034
C21	C	0.988490	-0.022378	0.000054
C22	C	0.987557	-0.076038	0.000064
C23	C	0.981689	-0.408778	-0.083099
C24	C	0.978144	-0.610452	-0.083115
O25	O	0.977654	-0.636524	-0.153804
N26	N	0.977699	-0.635671	0.000001
C27	C	0.978134	-0.610469	0.083128
O28	O	0.977666	-0.636547	0.153823
C29	C	0.981673	-0.408796	0.083143
C30	C	0.982127	-0.383580	0.000021
C31	C	0.982141	-0.383562	-0.166214
C32	C	0.983032	-0.333147	-0.166209
C33	C	0.983470	-0.307949	-0.083089
C34	C	0.983018	-0.333165	0.000026
C35	C	0.982103	-0.383595	0.166269
C36	C	0.982986	-0.333173	0.166265
C37	C	0.983439	-0.307957	0.083143
C38	C	0.984346	-0.257552	0.083151
N39	N	0.984791	-0.232332	0.000035
C40	C	0.984353	-0.257531	-0.083085
C41	C	0.976278	-0.716350	0.083114
C42	C	0.975395	-0.766768	0.083110
C43	C	0.975403	-0.766747	-0.083133
C44	C	0.976292	-0.716329	-0.083128
C45	C	0.976723	-0.691130	-0.000003
C46	C	0.986225	-0.151656	-0.083069
C47	C	0.987119	-0.101237	-0.083056
C48	C	0.987106	-0.101262	0.083186
C49	C	0.986217	-0.151677	0.083175
C50	C	0.985773	-0.176872	0.000040
O51	O	0.984827	-0.231448	0.153803
O52	O	0.984803	-0.231443	-0.153770
C53	C	0.980798	-0.459193	-0.083104
C54	C	0.980345	-0.484410	0.000011
C55	C	0.980783	-0.459211	0.083132
C56	C	0.979462	-0.534828	0.000008
C57	C	0.979024	-0.560026	-0.083112
C58	C	0.979469	-0.534807	-0.166229
C59	C	0.980360	-0.484392	-0.166224
C60	C	0.980338	-0.484431	0.166248
C61	C	0.979449	-0.534846	0.166236
C62	C	0.979010	-0.560044	0.083116
C63	C	1.133308	0.062445	0.000038
C64	C	1.225591	0.063384	0.000036
C65	C	0.974023	0.154373	0.000006
C66	C	0.974957	0.208033	-0.000010
N67	N	0.981250	0.065996	0.217026
N68	N	0.981270	0.065996	-0.216964
C69	C	1.038223	0.033136	0.452044
C70	C	1.038226	0.033135	0.548026
C71	C	0.924291	0.098857	0.548011
C72	C	0.924285	0.098855	0.452031
C73	C	0.981256	0.065996	0.404051
C74	C	0.981264	0.065996	0.596011
C75	C	0.981266	0.065995	0.700078
C76	C	0.981253	0.065996	0.299977
H77	H	0.540858	0.146696	0.000009
O78	O	0.412953	-0.026461	0.000035
H79	H	0.373943	-0.028970	0.062179
O80	O	0.976748	-0.689175	0.172776
H81	H	1.033836	-0.670522	0.176756
O82	O	0.593183	-0.024618	0.000047
H83	H	0.658996	-0.016530	0.000060
H84	H	0.985859	-0.172164	-0.150765
H85	H	0.987490	-0.080708	-0.150747
H86	H	0.877892	0.125613	0.412952
O87	O	0.974908	-0.793935	-0.172780
H88	H	0.918384	-0.779931	-0.212624
H89	H	0.983398	-0.312620	-0.233895
H90	H	0.981781	-0.404073	-0.233904
O91	O	0.978957	-0.562042	0.255895
H92	H	0.979403	-0.536044	0.313689
H93	H	0.975038	-0.787296	0.150797
H94	H	1.084612	0.006379	0.412981
H95	H	0.383562	0.145088	0.000022
O96	O	0.980826	-0.457256	0.255903
H97	H	0.980377	-0.483268	0.313691
O98	O	0.980837	-0.457201	-0.255882
H99	H	1.037931	-0.438553	-0.259871
O100	O	0.976767	-0.689130	-0.172779
H101	H	0.976307	-0.715127	-0.230573
O102	O	1.099679	-0.002299	0.599794
H103	H	1.139297	-0.025143	0.550302
O104	O	0.981605	-0.410785	0.255922
H105	H	0.982046	-0.384784	0.313712
H106	H	0.983324	-0.312658	0.233958
H107	H	0.985855	-0.172210	0.150859
O108	O	0.862857	0.134304	0.599760
H109	H	0.822723	0.113955	0.643511
O110	O	0.987578	-0.074079	0.172836
H111	H	0.988264	-0.034785	0.158867
O112	O	0.978989	-0.561989	-0.255883
H113	H	0.978287	-0.601282	-0.241912
