data_functionalizedCrystal
_audit_creation_method	'MofGen! by Chris Wilmer'
_symmetry_space_group_name_H-M	'P1'
_symmetry_Int_Tables_number	1
_symmetry_cell_setting	triclinic
loop_
_symmetry_equiv_pos_as_xyz
  x,y,z
_cell_length_a	17.077402
_cell_length_b	12.759401
_cell_length_c	12.759393
_cell_angle_alpha	89.977503
_cell_angle_beta	90.034688
_cell_angle_gamma	89.976295
loop_
_atom_site_label
_atom_site_type_symbol
_atom_site_fract_x
_atom_site_fract_y
_atom_site_fract_z
Zn1	Zn	-0.312453	-1.606207	0.594033
Zn2	Zn	-0.443739	-1.606073	0.418340
Zn3	Zn	-0.312493	-1.430505	0.418364
Zn4	Zn	-0.443683	-1.430472	0.593973
O5	O	-0.378092	-1.518314	0.506178
O6	O	-0.329875	-1.753210	0.570743
O7	O	-0.426369	-1.582741	0.271322
O8	O	-0.202641	-1.453882	0.441701
O9	O	-0.426330	-1.753111	0.441662
O10	O	-0.202611	-1.582969	0.570765
O11	O	-0.329944	-1.453753	0.271339
O12	O	-0.329889	-1.283480	0.441643
O13	O	-0.426234	-1.453826	0.741002
O14	O	-0.426273	-1.283456	0.570662
O15	O	-0.329820	-1.582937	0.741046
O16	O	-0.553578	-1.582709	0.441604
O17	O	-0.553537	-1.453696	0.570640
C18	C	-0.378080	-1.245347	0.506149
C19	C	-0.378094	-1.128570	0.506162
C20	C	-0.582040	-1.518213	0.506136
C21	C	-0.669290	-1.518266	0.506153
C22	C	-0.428357	-1.073723	0.573235
C23	C	-0.428359	-0.963999	0.573253
C24	C	-0.327832	-0.963979	0.439116
C25	C	-0.327827	-1.073701	0.439104
C26	C	-0.710275	-1.585511	0.439036
C27	C	-0.792256	-1.585563	0.439062
C28	C	-0.833249	-1.518362	0.506202
C29	C	-0.792258	-1.451114	0.573326
C30	C	-0.710279	-1.451068	0.573304
C31	C	-0.963128	-1.451211	0.573366
C32	C	-1.045112	-1.451255	0.573387
C33	C	-1.045105	-1.585705	0.439125
C34	C	-0.963126	-1.585660	0.439102
C35	C	-0.922140	-1.518410	0.506226
C36	C	-0.173348	-1.518445	0.506243
C37	C	-0.086098	-1.518500	0.506270
C38	C	-0.378017	-1.518393	0.780211
C39	C	-0.377984	-1.518426	0.896988
C40	C	-0.378102	-0.792347	0.506200
C41	C	-0.378101	-0.909124	0.506192
C42	C	-0.378110	-1.518296	0.233210
C43	C	-0.377921	-1.518466	0.116434
C44	C	-0.327774	-1.585660	0.951874
C45	C	-0.327740	-1.585677	1.061599
C46	C	-0.428134	-1.451226	1.061540
C47	C	-0.428164	-1.451203	0.951817
H48	H	-0.469285	-1.118394	0.627841
H49	H	-0.468990	-1.396498	1.106195
N50	N	-0.482574	-0.904841	0.645591
H51	H	-0.514416	-0.956253	0.688065
H52	H	-0.518861	-0.859279	0.602735
H53	H	-0.469051	-1.396447	0.907127
N54	N	-0.273639	-0.904798	0.366764
H55	H	-0.281276	-0.826967	0.376937
H56	H	-0.285808	-0.923951	0.291708
H57	H	-0.286892	-1.118359	0.384485
N58	N	-0.273658	-1.658165	0.892734
H59	H	-0.237291	-1.615492	0.847205
H60	H	-0.305640	-1.706803	0.847278
H61	H	-0.286852	-1.640424	1.106283
H62	H	-0.825623	-1.640320	0.384408
N63	N	-0.666064	-1.657989	0.366617
H64	H	-0.704471	-1.700598	0.324105
H65	H	-0.631995	-1.706567	0.409420
H66	H	-0.929749	-1.640374	0.384427
H67	H	-1.078479	-1.640466	0.384474
H68	H	-1.078487	-1.396554	0.628078
H69	H	-0.676909	-1.396311	0.627959
N70	N	-0.918919	-1.378683	0.645767
H71	H	-0.957326	-1.336116	0.688301
H72	H	-0.884961	-1.330068	0.602945
H73	H	-0.825641	-1.396402	0.627997
