data_functionalizedCrystal
_audit_creation_method	'MofGen! by Chris Wilmer'
_symmetry_space_group_name_H-M	'P1'
_symmetry_Int_Tables_number	1
_symmetry_cell_setting	triclinic
loop_
_symmetry_equiv_pos_as_xyz
  x,y,z
_cell_length_a	42.784859
_cell_length_b	42.784822
_cell_length_c	42.784893
_cell_angle_alpha	120.003960
_cell_angle_beta	90.000434
_cell_angle_gamma	60.000137
loop_
_atom_site_label
_atom_site_type_symbol
_atom_site_fract_x
_atom_site_fract_y
_atom_site_fract_z
O1	O	-0.214407	-0.275700	-0.009302
O2	O	-0.168957	-0.211696	0.009251
O3	O	-0.168956	-0.275699	-0.054754
O4	O	-0.214409	-0.211698	0.054703
O5	O	-0.220942	-0.223712	-0.054750
O6	O	-0.220943	-0.159709	0.009256
O7	O	-0.266393	-0.223713	-0.009298
Cu8	Cu	-0.248415	-0.186964	-0.000021
Cu9	Cu	-0.186935	-0.248445	-0.000026
O10	O	-0.266395	-0.159711	0.054707
C11	C	-0.079130	0.005331	0.028111
C12	C	-0.098028	-0.013386	0.028378
C13	C	-0.022533	-0.051265	0.028115
C14	C	-0.041517	-0.069896	0.028382
C15	C	-0.079132	-0.051264	0.028117
C16	C	-0.041515	-0.013387	0.028377
C17	C	-0.113686	0.131561	0.017853
C18	C	-0.131499	0.167313	0.014952
C19	C	-0.168774	0.185248	0.013497
C20	C	-0.188088	0.224007	0.010345
C21	C	-0.188236	0.167430	0.014946
C22	C	-0.170424	0.131685	0.017851
C23	C	-0.133148	0.113750	0.019304
C24	C	-0.170813	-0.096069	0.017875
C25	C	-0.188754	-0.116780	0.014980
C26	C	-0.169417	-0.155508	0.013527
C27	C	-0.188863	-0.177970	0.010383
C28	C	-0.132137	-0.173521	0.014974
C29	C	-0.114199	-0.152808	0.017876
C30	C	-0.133541	-0.114080	0.019324
C31	C	0.113954	-0.096075	0.017868
C32	C	0.152608	-0.116791	0.014967
C33	C	0.171996	-0.155518	0.013515
C34	C	0.213907	-0.177982	0.010367
C35	C	0.152731	-0.173531	0.014962
C36	C	0.114079	-0.152816	0.017862
C37	C	0.094693	-0.114085	0.019318
C38	C	-0.113836	0.074987	0.022451
C39	C	-0.098442	0.044091	0.024961
C40	C	0.019376	-0.073726	0.024969
C41	C	0.052782	-0.091628	0.022463
C42	C	-0.098582	-0.073723	0.024972
C43	C	-0.114087	-0.091624	0.022467
C44	C	-0.355963	-0.384408	-0.028191
C45	C	-0.337064	-0.422291	-0.028460
C46	C	-0.412561	-0.384409	-0.028192
C47	C	-0.393576	-0.422292	-0.028460
C48	C	-0.355960	-0.441011	-0.028197
C49	C	-0.393579	-0.365775	-0.028454
C50	C	-0.321406	-0.282475	-0.017934
C51	C	-0.303592	-0.261636	-0.015035
C52	C	-0.266316	-0.279523	-0.013582
C53	C	-0.247002	-0.256925	-0.010431
C54	C	-0.246854	-0.318251	-0.015032
C55	C	-0.264666	-0.339090	-0.017936
C56	C	-0.301944	-0.321201	-0.019387
C57	C	-0.264277	-0.567259	-0.017962
C58	C	-0.246335	-0.603016	-0.015069
C59	C	-0.265673	-0.620952	-0.013615
C60	C	-0.246226	-0.659717	-0.010472
C61	C	-0.302953	-0.603132	-0.015059
C62	C	-0.320891	-0.567382	-0.017959
C63	C	-0.301549	-0.549445	-0.019409
C64	C	-0.549050	-0.282479	-0.017936
C65	C	-0.587704	-0.261637	-0.015032
C66	C	-0.607093	-0.279525	-0.013580
C67	C	-0.649004	-0.256928	-0.010429
C68	C	-0.587828	-0.318250	-0.015028
C69	C	-0.549175	-0.339088	-0.017930
C70	C	-0.529788	-0.321201	-0.019388
C71	C	-0.321256	-0.343798	-0.022533
C72	C	-0.336650	-0.361811	-0.025042
C73	C	-0.454470	-0.361813	-0.025043
C74	C	-0.487877	-0.343801	-0.022535
C75	C	-0.336510	-0.479776	-0.025054
C76	C	-0.321005	-0.510677	-0.022550
C77	C	-0.079132	-0.384402	-0.361619
C78	C	-0.041516	-0.422284	-0.380519
C79	C	-0.079132	-0.384402	-0.305021
C80	C	-0.041515	-0.422284	-0.324007
C81	C	-0.022532	-0.441003	-0.361624
C82	C	-0.098029	-0.365769	-0.324003
C83	C	-0.170814	-0.282472	-0.396173
C84	C	-0.188754	-0.261633	-0.413986
C85	C	-0.169414	-0.279520	-0.451262
C86	C	-0.188862	-0.256923	-0.470575
C87	C	-0.132133	-0.318248	-0.470726
C88	C	-0.114197	-0.339086	-0.452914
C89	C	-0.133539	-0.321196	-0.415636
C90	C	0.113958	-0.567249	-0.453312
C91	C	0.152611	-0.603005	-0.471255
C92	C	0.172002	-0.620941	-0.451918
C93	C	0.213912	-0.659705	-0.471366
C94	C	0.152736	-0.603121	-0.414636
C95	C	0.114084	-0.567371	-0.396697
C96	C	0.094697	-0.549435	-0.416039
C97	C	-0.170813	-0.282472	-0.168526
C98	C	-0.188752	-0.261630	-0.129871
C99	C	-0.169412	-0.279517	-0.110483
C100	C	-0.188860	-0.256920	-0.068571
C101	C	-0.132133	-0.318241	-0.129750
C102	C	-0.114195	-0.339080	-0.168404
C103	C	-0.133541	-0.321193	-0.187790
C104	C	-0.114086	-0.343793	-0.396325
C105	C	-0.098582	-0.361805	-0.380931
C106	C	-0.098582	-0.361805	-0.263110
C107	C	-0.114086	-0.343793	-0.229703
C108	C	0.019378	-0.479767	-0.381076
C109	C	0.052785	-0.510668	-0.396582
O110	O	0.337178	-0.223723	-0.009306
O111	O	0.227726	-0.159721	0.009240
O112	O	0.291729	-0.223732	-0.054762
O113	O	0.273175	-0.159713	0.054696
O114	O	0.291727	-0.275713	-0.054757
O115	O	0.227724	-0.211702	0.009245
O116	O	0.337176	-0.275704	-0.009301
Cu117	Cu	0.282450	-0.248449	-0.000028
Cu118	Cu	0.282452	-0.186976	-0.000033
O119	O	0.273173	-0.211693	0.054701
O120	O	-0.266130	0.327593	-0.009342
O121	O	-0.220682	0.236696	0.009214
O122	O	-0.220677	0.236682	-0.054792
O123	O	-0.266136	0.327607	0.054665
O124	O	-0.168692	0.236682	-0.054793
O125	O	-0.168697	0.236696	0.009213
O126	O	-0.214146	0.327592	-0.009343
Cu127	Cu	-0.186675	0.282144	-0.000065
Cu128	Cu	-0.248153	0.282145	-0.000064
O129	O	-0.214151	0.327606	0.054663
O130	O	0.337186	-0.763304	-0.496919
O131	O	0.227732	-0.672395	-0.451462
O132	O	0.291731	-0.672394	-0.451460
O133	O	0.273187	-0.763305	-0.496921
O134	O	0.291732	-0.672395	-0.503444
O135	O	0.227733	-0.672396	-0.503446
O136	O	0.337187	-0.763305	-0.548904
Cu137	Cu	0.282460	-0.717851	-0.530922
Cu138	Cu	0.282459	-0.717849	-0.469444
O139	O	0.273189	-0.763306	-0.548906
O140	O	-0.214413	-0.211693	-0.548617
O141	O	-0.168957	-0.275698	-0.503172
O142	O	-0.168960	-0.211693	-0.503165
O143	O	-0.214410	-0.275697	-0.548624
O144	O	-0.220945	-0.159708	-0.451176
O145	O	-0.220941	-0.223712	-0.451183
O146	O	-0.266398	-0.159707	-0.496628
Cu147	Cu	-0.248416	-0.186963	-0.469159
Cu148	Cu	-0.186938	-0.248442	-0.530641
O149	O	-0.266395	-0.223712	-0.496635
C150	C	-0.412576	0.005351	0.361577
C151	C	-0.393593	-0.013368	0.380472
C152	C	-0.355976	-0.051250	0.304974
C153	C	-0.337078	-0.069883	0.323956
C154	C	-0.355976	-0.051250	0.361573
C155	C	-0.393592	-0.013369	0.323960
C156	C	-0.549066	0.131596	0.396146
C157	C	-0.587718	0.167353	0.413963
C158	C	-0.607108	0.185289	0.451239
C159	C	-0.649020	0.224053	0.470557
C160	C	-0.587843	0.167469	0.470699
C161	C	-0.549192	0.131719	0.452884
C162	C	-0.529803	0.113783	0.415606
C163	C	-0.321415	-0.096059	0.453249
C164	C	-0.303600	-0.116771	0.471188
C165	C	-0.266325	-0.155503	0.451847
C166	C	-0.247008	-0.177967	0.471291
C167	C	-0.246864	-0.173518	0.414565
C168	C	-0.264676	-0.152802	0.396630
C169	C	-0.301955	-0.114071	0.415976
C170	C	-0.321412	-0.096062	0.168484
C171	C	-0.303598	-0.116778	0.129829
C172	C	-0.266322	-0.155509	0.110436
C173	C	-0.247006	-0.177974	0.068524
C174	C	-0.246863	-0.173524	0.129699
C175	C	-0.264678	-0.152808	0.168353
C176	C	-0.301953	-0.114073	0.187743
C177	C	-0.487893	0.075016	0.396290
C178	C	-0.454486	0.044115	0.380893
C179	C	-0.336661	-0.073712	0.263063
C180	C	-0.321266	-0.091615	0.229656
C181	C	-0.336662	-0.073711	0.381020
C182	C	-0.321267	-0.091613	0.396523
C183	C	0.310590	-0.440799	-0.361624
C184	C	0.310855	-0.422085	-0.380524
C185	C	0.310594	-0.384197	-0.305026
C186	C	0.310859	-0.365568	-0.324012
C187	C	0.310593	-0.384205	-0.361629
C188	C	0.310857	-0.422077	-0.324007
C189	C	0.300337	-0.567035	-0.396174
C190	C	0.297438	-0.602790	-0.413986
C191	C	0.295982	-0.620729	-0.451262
C192	C	0.292831	-0.659491	-0.470574
C193	C	0.297428	-0.602913	-0.470726
C194	C	0.300332	-0.567166	-0.452915
C195	C	0.301787	-0.549226	-0.415638
C196	C	0.300345	-0.339411	-0.453317
C197	C	0.297448	-0.318703	-0.471260
C198	C	0.295994	-0.279974	-0.451923
C199	C	0.292847	-0.257514	-0.471372
C200	C	0.297441	-0.261955	-0.414643
C201	C	0.300345	-0.282667	-0.396703
C202	C	0.301794	-0.321396	-0.416044
C203	C	0.300352	-0.339371	-0.168533
C204	C	0.297452	-0.318652	-0.129878
C205	C	0.295999	-0.279922	-0.110491
C206	C	0.292853	-0.257454	-0.068578
C207	C	0.297444	-0.261911	-0.129758
C208	C	0.300343	-0.282631	-0.168411
C209	C	0.301800	-0.321364	-0.187797
C210	C	0.304933	-0.510461	-0.396327
C211	C	0.307441	-0.479562	-0.380934
C212	C	0.307449	-0.361732	-0.263116
C213	C	0.304944	-0.343826	-0.229709
C214	C	0.307446	-0.361748	-0.381081
C215	C	0.304939	-0.343849	-0.396587
C216	C	0.254309	-0.050976	0.361568
C217	C	0.254047	-0.013096	0.380462
C218	C	0.254308	-0.050984	0.304965
C219	C	0.254046	-0.013104	0.323946
C220	C	0.254312	0.005619	0.361562
C221	C	0.254043	-0.069613	0.323951
C222	C	0.264553	-0.152890	0.396140
C223	C	0.267450	-0.173724	0.413957
C224	C	0.268906	-0.155835	0.451233
C225	C	0.272054	-0.178426	0.470551
C226	C	0.267462	-0.117108	0.470691
C227	C	0.264560	-0.096275	0.452876
C228	C	0.263105	-0.114167	0.415598
C229	C	0.264567	0.131862	0.453234
C230	C	0.267467	0.167616	0.471172
C231	C	0.268923	0.185547	0.451830
C232	C	0.272072	0.224310	0.471273
C233	C	0.267475	0.167724	0.414549
C234	C	0.264569	0.131976	0.396615
C235	C	0.263118	0.114045	0.415962
C236	C	0.264547	-0.152923	0.168477
C237	C	0.267448	-0.173768	0.129822
C238	C	0.268903	-0.155887	0.110429
C239	C	0.272049	-0.178487	0.068517
C240	C	0.267460	-0.117164	0.129691
C241	C	0.264562	-0.096322	0.168344
C242	C	0.263102	-0.114203	0.187735
C243	C	0.259962	-0.091576	0.396282
C244	C	0.257456	-0.073568	0.380884
C245	C	0.257453	-0.073585	0.263055
C246	C	0.259959	-0.091600	0.229647
C247	C	0.257461	0.044381	0.381009
C248	C	0.259970	0.075280	0.396510
C249	C	-0.022496	-0.051350	-0.361660
C250	C	-0.041478	-0.069985	-0.380558
C251	C	-0.079099	0.005258	-0.305060
C252	C	-0.097994	-0.013463	-0.324043
C253	C	-0.079095	-0.051350	-0.361660
C254	C	-0.041482	-0.013463	-0.324044
C255	C	0.113993	-0.096163	-0.396223
C256	C	0.152645	-0.116877	-0.414038
C257	C	0.172037	-0.155613	-0.451314
C258	C	0.213950	-0.178080	-0.470630
C259	C	0.152773	-0.173631	-0.470775
C260	C	0.114122	-0.152913	-0.452962
C261	C	0.094732	-0.114177	-0.415684
C262	C	-0.113650	-0.153289	-0.453339
C263	C	-0.131464	-0.174129	-0.471279
C264	C	-0.168739	-0.156244	-0.451940
C265	C	-0.188054	-0.178839	-0.471386
C266	C	-0.188202	-0.117512	-0.414659
C267	C	-0.170392	-0.096668	-0.396722
C268	C	-0.133112	-0.114564	-0.416067
C269	C	-0.113669	0.131521	-0.168569
C270	C	-0.131485	0.167279	-0.129914
C271	C	-0.168761	0.185217	-0.110524
C272	C	-0.188079	0.223987	-0.068611
C273	C	-0.188219	0.167395	-0.129788
C274	C	-0.170402	0.131637	-0.168441
C275	C	-0.133127	0.113705	-0.187830
C276	C	0.052821	-0.091717	-0.396370
C277	C	0.019414	-0.073813	-0.380974
C278	C	-0.098415	0.044028	-0.263149
C279	C	-0.113812	0.074932	-0.229742
C280	C	-0.098407	-0.073948	-0.381109
C281	C	-0.113801	-0.091962	-0.396613
O282	O	0.273152	-0.159787	-0.496921
O283	O	0.291710	-0.223783	-0.451465
O284	O	0.227705	-0.159794	-0.451470
O285	O	0.337157	-0.223776	-0.496916
O286	O	0.227719	-0.211793	-0.503460
O287	O	0.291723	-0.275782	-0.503455
O288	O	0.273165	-0.211786	-0.548911
Cu289	Cu	0.282446	-0.248532	-0.530930
Cu290	Cu	0.282430	-0.187037	-0.469446
O291	O	0.337170	-0.275774	-0.548906
C292	C	-0.355980	0.615638	0.361531
C293	C	-0.393597	0.634273	0.380429
C294	C	-0.355976	0.559030	0.304931
C295	C	-0.393592	0.577751	0.323915
C296	C	-0.412578	0.615638	0.361531
C297	C	-0.337080	0.577752	0.323915
C298	C	-0.264304	0.660452	0.396093
C299	C	-0.246365	0.681167	0.413908
C300	C	-0.265708	0.719902	0.451184
C301	C	-0.246262	0.742369	0.470499
C302	C	-0.302989	0.737920	0.470645
C303	C	-0.320923	0.717202	0.452832
C304	C	-0.301579	0.678466	0.415554
C305	C	-0.549071	0.717577	0.453212
C306	C	-0.587724	0.738417	0.471152
C307	C	-0.607114	0.720531	0.451813
C308	C	-0.649024	0.743126	0.471259
C309	C	-0.587845	0.681799	0.414532
C310	C	-0.549192	0.660956	0.396595
C311	C	-0.529808	0.678851	0.415939
C312	C	-0.264287	0.432767	0.168440
C313	C	-0.246345	0.397009	0.129785
C314	C	-0.265684	0.379071	0.110395
C315	C	-0.246233	0.340301	0.068483
C316	C	-0.302963	0.396893	0.129659
C317	C	-0.320903	0.432651	0.168313
C318	C	-0.301560	0.450583	0.187701
C319	C	-0.321030	0.656006	0.396240
C320	C	-0.336532	0.638102	0.380845
C321	C	-0.336523	0.520261	0.263021
C322	C	-0.321017	0.489356	0.229613
C323	C	-0.454489	0.638236	0.380981
C324	C	-0.487896	0.656249	0.396485
H325	H	0.168291	-0.102122	0.013788
N326	N	-0.021333	-0.110270	0.028947
H327	H	0.005428	-0.119290	0.029070
H328	H	-0.035993	-0.103226	0.052677
H329	H	-0.128904	0.002210	-0.308802
H330	H	-0.186247	0.117128	-0.184124
H331	H	-0.408819	-0.335291	-0.028875
H332	H	0.296259	-0.230373	-0.113970
N333	N	0.295880	-0.220188	-0.393786
H334	H	0.293823	-0.209800	-0.410806
H335	H	0.272846	-0.196526	-0.369633
N336	N	-0.206130	-0.622234	-0.013510
H337	H	-0.196601	-0.605445	-0.014868
H338	H	-0.206109	-0.619760	0.011234
N339	N	-0.323810	-0.622482	-0.013502
H340	H	-0.306790	-0.647835	-0.011448
H341	H	-0.347961	-0.598956	0.009534
H342	H	0.296254	-0.617287	-0.398134
H343	H	-0.128936	0.002285	0.028809
H344	H	0.301541	-0.370911	-0.184316
N345	N	0.253487	0.007643	0.303756
H346	H	0.253363	-0.009978	0.276994
H347	H	0.229760	0.038992	0.318414
H348	H	-0.533507	0.629420	0.366243
H349	H	0.296245	-0.617524	-0.501076
H350	H	-0.306158	-0.437955	-0.028885
N351	N	-0.073466	0.112180	-0.189479
H352	H	-0.055514	0.101073	-0.176543
H353	H	-0.065166	0.086842	-0.216886
H354	H	0.301517	-0.267962	-0.184095
H355	H	-0.116383	-0.332803	-0.113961
H356	H	-0.603632	0.182078	0.501050
H357	H	-0.603388	-0.230105	-0.013851
H358	H	-0.533268	-0.267909	-0.019118
H359	H	0.098440	-0.167584	-0.468809
N360	N	-0.608497	0.186564	0.392972
H361	H	-0.635925	0.211933	0.409915
H362	H	-0.595480	0.197594	0.386121
N363	N	-0.191415	0.112470	0.019409
H364	H	-0.176634	0.080333	-0.002928
H365	H	-0.193940	0.114977	0.044167
N366	N	0.262979	-0.172184	0.355937
H367	H	0.287019	-0.203076	0.337981
H368	H	0.239924	-0.173261	0.355328
N369	N	-0.073992	-0.380851	-0.189184
H370	H	-0.056632	-0.375875	-0.198983
H371	H	-0.064498	-0.388998	-0.171017
N372	N	-0.324587	-0.097350	0.511392
H373	H	-0.309810	-0.089791	0.528750
H374	H	-0.350903	-0.069687	0.520892
N375	N	-0.296140	-0.110262	0.303767
H376	H	-0.286996	-0.119284	0.277005
H377	H	-0.279450	-0.103224	0.318425
H378	H	-0.115614	-0.205666	-0.501632
H379	H	0.253620	0.002574	0.411371
H380	H	-0.318709	0.382286	0.113870
H381	H	-0.026276	0.002281	0.028804
H382	H	-0.351767	-0.064522	0.469004
N383	N	0.301910	-0.547691	-0.355971
H384	H	0.300557	-0.564403	-0.346345
H385	H	0.326656	-0.550162	-0.356002
H386	H	0.098396	-0.167484	0.019042
H387	H	-0.351244	-0.552877	-0.019137
N388	N	0.173689	-0.215404	-0.510978
H389	H	0.195964	-0.240151	-0.510982
H390	H	0.155596	-0.223635	-0.520582
H391	H	-0.533508	0.117215	0.468730
H392	H	0.301527	-0.370947	-0.469068
N393	N	-0.206652	-0.337541	-0.013468
H394	H	-0.206648	-0.315270	0.011277
H395	H	-0.197048	-0.365240	-0.014845
N396	N	0.301894	-0.547953	-0.473906
H397	H	0.300531	-0.564740	-0.500222
H398	H	0.279557	-0.515816	-0.459097
H399	H	0.253625	-0.100100	0.308711
N400	N	-0.228435	0.186771	0.013373
H401	H	-0.238060	0.170061	0.014732
H402	H	-0.245715	0.218914	0.035709
N403	N	0.295884	-0.338134	-0.511465
H404	H	0.297242	-0.365809	-0.520992
H405	H	0.271139	-0.315883	-0.511482
N406	N	-0.110500	0.186505	-0.109140
H407	H	-0.127443	0.211879	-0.081712
H408	H	-0.086346	0.162931	-0.109684
H409	H	-0.115651	0.181816	0.013772
H410	H	0.268627	-0.205300	0.114140
N411	N	0.262974	-0.172208	0.189392
H412	H	0.264331	-0.199903	0.171325
H413	H	0.285311	-0.179682	0.199195
N414	N	-0.361129	0.736631	0.473820
H415	H	-0.370662	0.764313	0.500136
H416	H	-0.378453	0.744157	0.459009
H417	H	0.268655	0.182328	0.398803
N418	N	-0.021291	-0.110366	-0.421498
H419	H	0.005471	-0.119388	-0.430642
H420	H	-0.019930	-0.135374	-0.423031
H421	H	0.098172	-0.064540	0.019053
H422	H	0.268626	-0.205255	0.398111
H423	H	0.301524	-0.267994	-0.366350
H424	H	-0.351257	0.447159	0.183996
H425	H	0.268645	-0.102544	0.501042
N426	N	0.262992	-0.054503	0.473864
H427	H	0.264352	-0.046329	0.500182
H428	H	0.285328	-0.059510	0.459056
H429	H	-0.186567	-0.267902	-0.365821
H430	H	-0.026240	0.002203	-0.308804
H431	H	0.263385	0.117266	0.468989
N432	N	0.093047	-0.547914	-0.474177
H433	H	0.083243	-0.515773	-0.459347
H434	H	0.111137	-0.564663	-0.500513
H435	H	0.268646	0.182124	0.501524
N436	N	-0.206663	-0.215293	0.393700
H437	H	-0.198331	-0.225686	0.410717
H438	H	-0.206048	-0.238947	0.369551
N439	N	0.263004	0.112756	0.356410
H440	H	0.264366	0.129539	0.346877
H441	H	0.285341	0.080619	0.339082
H442	H	-0.083298	-0.167861	-0.469093
H443	H	0.296273	-0.333318	-0.114193
N444	N	-0.073483	0.112219	0.019420
H445	H	-0.063858	0.128930	0.018063
H446	H	-0.073509	0.114690	0.044166
N447	N	0.263005	-0.054557	0.189119
H448	H	0.264366	-0.046391	0.170970
H449	H	0.238262	-0.029788	0.211392
N450	N	-0.413782	0.007376	0.303769
H451	H	-0.396036	-0.010245	0.277008
H452	H	-0.437422	0.007535	0.302402
H453	H	0.268646	-0.102605	0.113899
N454	N	-0.228408	-0.098212	-0.393800
H455	H	-0.236739	-0.117290	-0.410819
H456	H	-0.229034	-0.097090	-0.369647
H457	H	0.098208	-0.064623	-0.365871
N458	N	0.173640	-0.215303	0.013395
H459	H	0.201049	-0.225694	0.011339
H460	H	0.160672	-0.209177	0.037442
H461	H	-0.319442	-0.230101	-0.013850
H462	H	0.168327	-0.102205	-0.398191
H463	H	-0.248827	-0.167471	0.366277
H464	H	-0.186241	-0.065132	-0.366370
N465	N	-0.608732	-0.337551	-0.013463
H466	H	-0.631008	-0.315282	0.011281
H467	H	-0.618508	-0.345061	-0.035818
H468	H	-0.186564	-0.064536	0.019056
H469	H	-0.351757	-0.267906	-0.019117
H470	H	-0.248831	-0.167478	0.184034
H471	H	-0.026274	-0.437945	-0.308764
H472	H	-0.218573	0.182005	-0.113999
N473	N	-0.413781	0.557000	0.303729
H474	H	-0.396038	0.530111	0.276967
H475	H	-0.421401	0.547934	0.318390
H476	H	-0.408838	0.664759	0.411337
N477	N	-0.296141	0.556996	0.303724
H478	H	-0.286998	0.574616	0.321465
H479	H	-0.279452	0.525649	0.296107
N480	N	-0.206140	0.377790	0.109006
H481	H	-0.196610	0.394578	0.127155
H482	H	-0.188813	0.345655	0.099209
H483	H	0.311283	-0.437759	-0.411432
N484	N	-0.243426	0.452110	0.189352
H485	H	-0.217089	0.435397	0.171284
H486	H	-0.258288	0.484251	0.199156
N487	N	-0.243441	0.618677	0.355887
H488	H	-0.217104	0.610406	0.346263
H489	H	-0.240999	0.593957	0.355911
N490	N	-0.206159	0.661737	0.392919
H491	H	-0.196628	0.634057	0.366602
H492	H	-0.206139	0.683985	0.390422
H493	H	0.311280	-0.437740	-0.308765
N494	N	-0.323850	0.779694	0.510848
H495	H	-0.306832	0.790085	0.519180
H496	H	-0.347999	0.803349	0.511468
N497	N	-0.243677	-0.380860	-0.019504
H498	H	-0.217360	-0.389030	-0.018143
H499	H	-0.258484	-0.375850	0.002834
H500	H	-0.408833	0.002305	0.411382
H501	H	-0.533290	0.732148	0.468965
H502	H	-0.248525	-0.552659	-0.019145
H503	H	-0.603409	0.769953	0.501505
N504	N	-0.528396	-0.380855	-0.019494
H505	H	-0.546543	-0.389026	-0.018134
H506	H	-0.506126	-0.405622	-0.044239
N507	N	-0.608750	0.662499	0.393669
H508	H	-0.618556	0.654999	0.408503
H509	H	-0.631007	0.684784	0.391197
H510	H	-0.026276	-0.437950	-0.411427
N511	N	-0.138967	-0.325388	-0.303808
H512	H	-0.148111	-0.316366	-0.321547
H513	H	-0.155659	-0.332424	-0.296188
H514	H	-0.319446	-0.102108	0.114147
H515	H	-0.219106	-0.102111	0.013802
H516	H	-0.116394	-0.205052	0.013796
H517	H	-0.408819	-0.437956	-0.028884
N518	N	-0.073995	-0.172233	0.019438
H519	H	-0.064465	-0.199909	0.018078
H520	H	-0.056668	-0.179767	-0.002902
H521	H	-0.219104	-0.230095	-0.114185
H522	H	-0.186567	-0.267903	-0.184309
N523	N	-0.206659	-0.215300	0.108786
H524	H	-0.198324	-0.225691	0.081377
H525	H	-0.188734	-0.209179	0.121753
N526	N	-0.228960	-0.219866	-0.392995
H527	H	-0.238490	-0.211696	-0.366678
H528	H	-0.228982	-0.195100	-0.390498
H529	H	-0.116390	-0.332808	-0.501076
H530	H	-0.083844	-0.370618	-0.468764
N531	N	-0.361615	-0.054285	0.189398
H532	H	-0.371240	-0.046018	0.171331
H533	H	-0.378893	-0.059343	0.199202
H534	H	0.168294	-0.617510	-0.501608
H535	H	0.098400	-0.552866	-0.366344
N536	N	0.173642	-0.622467	-0.393778
H537	H	0.195917	-0.619999	-0.391300
H538	H	0.155542	-0.605741	-0.367454
N539	N	-0.528155	0.112253	0.355941
H540	H	-0.546223	0.128967	0.346318
H541	H	-0.505878	0.114720	0.355966
N542	N	0.311431	-0.325197	-0.303832
H543	H	0.311557	-0.316175	-0.277071
H544	H	0.335161	-0.332247	-0.318497
