data_functionalizedCrystal
_audit_creation_method	'MofGen! by Chris Wilmer'
_symmetry_space_group_name_H-M	'P1'
_symmetry_Int_Tables_number	1
_symmetry_cell_setting	triclinic
loop_
_symmetry_equiv_pos_as_xyz
  x,y,z
_cell_length_a	29.917948
_cell_length_b	29.917021
_cell_length_c	29.913391
_cell_angle_alpha	60.005297
_cell_angle_beta	60.010472
_cell_angle_gamma	59.993667
loop_
_atom_site_label
_atom_site_type_symbol
_atom_site_fract_x
_atom_site_fract_y
_atom_site_fract_z
O1	O	0.061938	-0.653075	0.546110
O2	O	0.561938	-0.153075	1.046110
O3	O	0.023328	-0.508466	0.440017
O4	O	0.523328	-0.008466	0.940017
O5	O	0.114898	-0.599963	0.439941
O6	O	0.614898	-0.099963	0.939941
O7	O	-0.029633	-0.561578	0.546186
O8	O	0.470367	-0.061578	1.046186
O9	O	0.145278	-0.569587	0.470242
O10	O	0.645278	-0.069587	0.970242
O11	O	0.053708	-0.478090	0.470318
O12	O	0.553708	0.021910	0.970318
O13	O	0.092318	-0.622699	0.576411
O14	O	0.592318	-0.122699	1.076411
Zn15	Zn	0.077836	-0.545572	0.528175
Zn16	Zn	0.577836	-0.045572	1.028175
Zn17	Zn	0.037809	-0.585593	0.488253
Zn18	Zn	0.537809	-0.085593	0.988253
O19	O	0.000747	-0.531202	0.576487
O20	O	0.500747	-0.031202	1.076487
N21	N	0.105154	-0.518262	0.555424
N22	N	0.605154	-0.018262	1.055424
N23	N	0.010496	-0.612908	0.461004
N24	N	0.510496	-0.112908	0.961004
C25	C	0.164136	-0.309209	0.614352
C26	C	0.664136	0.190791	1.114352
C27	C	0.164251	-0.459335	0.764424
C28	C	0.664251	0.040665	1.264424
C29	C	0.164150	-0.459313	0.614341
C30	C	0.664150	0.040687	1.114341
C31	C	0.314282	-0.459305	0.614278
C32	C	0.814282	0.040695	1.114278
C33	C	0.180666	-0.358742	0.630849
C34	C	0.680666	0.141258	1.130849
C35	C	0.180732	-0.442815	0.714891
C36	C	0.680732	0.057185	1.214891
C37	C	0.264747	-0.442797	0.630809
C38	C	0.764747	0.057203	1.130809
C39	C	0.180676	-0.442802	0.630843
C40	C	0.680676	0.057198	1.130843
C41	C	0.143097	-0.246161	0.593354
C42	C	0.643097	0.253839	1.093354
C43	C	0.143120	-0.480326	0.593337
C44	C	0.643120	0.019674	1.093337
C45	C	0.201706	-0.421790	0.651848
C46	C	0.701706	0.078210	1.151848
C47	C	0.405963	-0.443499	0.565998
C48	C	0.905963	0.056501	1.065998
C49	C	0.463273	-0.462598	0.546874
C50	C	0.963273	0.037402	1.046874
C51	C	0.463297	-0.555329	0.582235
C52	C	0.963297	-0.055329	1.082235
C53	C	0.405988	-0.536228	0.601360
C54	C	0.905988	-0.036228	1.101360
C55	C	0.156905	-0.217495	0.537012
C56	C	0.656905	0.282505	1.037012
C57	C	0.137776	-0.160180	0.517926
C58	C	0.637776	0.339820	1.017926
C59	C	0.091035	-0.160201	0.611524
C60	C	0.591035	0.339799	1.111524
C61	C	0.110164	-0.217516	0.630611
C62	C	0.610164	0.282484	1.130611
C63	C	0.086772	-0.466488	0.607209
C64	C	0.586772	0.033512	1.107209
C65	C	0.067659	-0.485590	0.588108
C66	C	0.567659	0.014410	1.088108
C67	C	0.161236	-0.532368	0.541277
C68	C	0.661236	-0.032368	1.041277
C69	C	0.180352	-0.513266	0.560371
C70	C	0.680352	-0.013266	1.060371
C71	C	0.086942	-0.466529	0.856152
C72	C	0.586942	0.033471	1.356152
C73	C	0.067877	-0.485647	0.913465
C74	C	0.567877	0.014353	1.413465
C75	C	0.161489	-0.532436	0.913415
C76	C	0.661489	-0.032436	1.413415
C77	C	0.180552	-0.513318	0.856101
C78	C	0.680552	-0.013318	1.356101
C79	C	0.143277	-0.480363	0.827471
C80	C	0.643277	0.019637	1.327471
C81	C	0.377323	-0.480313	0.593239
C82	C	0.877323	0.019687	1.093239
C83	C	-0.111377	-0.650681	0.422736
C84	C	0.388623	-0.150681	0.922736
C85	C	-0.027364	-0.650787	0.422929
C86	C	0.472636	-0.150787	0.922929
C87	C	-0.048335	-0.671770	0.401835
C88	C	0.451665	-0.171770	0.901835
C89	C	-0.064214	-0.763416	0.450041
C90	C	0.435786	-0.263416	0.950041
C91	C	-0.045160	-0.820731	0.469172
C92	C	0.454840	-0.320731	0.969172
C93	C	0.047573	-0.820841	0.433980
C94	C	0.547573	-0.320841	0.933980
C95	C	0.028517	-0.763527	0.414847
C96	C	0.528517	-0.263527	0.914847
C97	C	-0.140115	-0.664483	0.479060
C98	C	0.359885	-0.164483	0.979060
C99	C	-0.197425	-0.645309	0.498058
C100	C	0.302575	-0.145309	0.998058
C101	C	-0.197256	-0.598535	0.404405
C102	C	0.302744	-0.098535	0.904405
C103	C	-0.139946	-0.617709	0.385407
C104	C	0.360054	-0.117709	0.885407
C105	C	-0.041168	-0.594444	0.409067
C106	C	0.458832	-0.094444	0.909067
C107	C	-0.022104	-0.575374	0.428250
C108	C	0.477896	-0.075374	0.928250
C109	C	0.024568	-0.668986	0.475143
C110	C	0.524568	-0.168986	0.975143
C111	C	0.005504	-0.688059	0.455967
C112	C	0.505504	-0.188059	0.955967
C113	C	-0.041000	-0.594453	0.310105
C114	C	0.459000	-0.094453	0.810105
C115	C	-0.021803	-0.575386	0.252792
C116	C	0.478197	-0.075386	0.752792
C117	C	0.024951	-0.669004	0.252854
C118	C	0.524951	-0.169004	0.752854
C119	C	0.005755	-0.688070	0.310168
C120	C	0.505755	-0.188070	0.810168
C121	C	-0.027222	-0.650793	0.338792
C122	C	0.472778	-0.150793	0.838792
C123	C	-0.027377	-0.734817	0.422881
C124	C	0.472623	-0.234817	0.922881
N125	N	0.491125	-0.518235	0.555255
N126	N	0.991125	-0.018235	1.055255
O127	O	0.678406	-0.527360	0.420422
O128	O	1.178406	-0.027360	0.920422
O129	O	0.678588	-0.633782	0.564887
O130	O	1.178588	-0.133782	1.064887
O131	O	0.678516	-0.633539	0.473265
O132	O	1.178516	-0.133539	0.973265
O133	O	0.678478	-0.527602	0.512044
O134	O	1.178478	-0.027602	1.012044
O135	O	0.587469	-0.603251	0.503685
O136	O	1.087469	-0.103251	1.003685
O137	O	0.587541	-0.603493	0.595307
O138	O	1.087541	-0.103493	1.095307
O139	O	0.587359	-0.497071	0.450842
O140	O	1.087359	0.002929	0.950842
Zn141	Zn	0.572994	-0.545473	0.527905
Zn142	Zn	1.072994	-0.045473	1.027905
Zn143	Zn	0.692953	-0.585380	0.487825
Zn144	Zn	1.192953	-0.085380	0.987825
O145	O	0.587431	-0.497313	0.542465
O146	O	1.087431	0.002687	1.042465
N147	N	0.774821	-0.612618	0.460470
N148	N	1.274821	-0.112618	0.960470
N149	N	0.105125	-0.132348	0.555445
N150	N	0.605125	0.367652	1.055445
O151	O	-0.029633	0.055031	0.546198
O152	O	0.470367	0.555031	1.046198
O153	O	0.114837	0.055047	0.439777
O154	O	0.614837	0.555047	0.939777
O155	O	0.023189	0.055024	0.440050
O156	O	0.523189	0.555024	0.940050
O157	O	0.062016	0.055054	0.545925
O158	O	0.562016	0.555054	1.045925
O159	O	0.053572	-0.036031	0.470398
O160	O	0.553572	0.463969	0.970398
O161	O	0.145220	-0.036008	0.470125
O162	O	0.645220	0.463992	0.970125
O163	O	0.000750	-0.036024	0.576546
O164	O	0.500750	0.463976	1.076546
Zn165	Zn	0.077809	-0.050473	0.528154
Zn166	Zn	0.577809	0.449527	1.028154
Zn167	Zn	0.037778	0.069496	0.488169
Zn168	Zn	0.537778	0.569496	0.988169
O169	O	0.092399	-0.036001	0.576273
O170	O	0.592399	0.463999	1.076273
N171	N	0.010456	0.151371	0.460879
N172	N	0.510456	0.651371	0.960879
N173	N	0.105414	-0.518315	0.941279
N174	N	0.605414	-0.018315	1.441279
O175	O	0.096182	-0.653057	1.128644
O176	O	0.596182	-0.153057	1.628644
O177	O	-0.010215	-0.508539	1.128670
O178	O	0.489785	-0.008539	1.628670
O179	O	-0.009968	-0.600172	1.128636
O180	O	0.490032	-0.100172	1.628636
O181	O	0.095935	-0.561424	1.128678
O182	O	0.595935	-0.061424	1.628678
O183	O	0.020367	-0.569808	1.037586
O184	O	0.520367	-0.069808	1.537586
O185	O	0.020121	-0.478175	1.037620
O186	O	0.520121	0.021825	1.537620
O187	O	0.126517	-0.622693	1.037594
O188	O	0.626517	-0.122693	1.537594
Zn189	Zn	0.078135	-0.545613	1.023151
Zn190	Zn	0.578135	-0.045613	1.523151
Zn191	Zn	0.038167	-0.585619	1.143113
Zn192	Zn	0.538167	-0.085619	1.643113
O193	O	0.126270	-0.531061	1.037628
O194	O	0.626270	-0.031061	1.537628
N195	N	0.010887	-0.612923	1.224985
N196	N	0.510887	-0.112923	1.724985
C197	C	0.034899	-0.475056	0.440551
C198	C	0.534899	0.024944	0.940551
C199	C	0.148298	-0.588365	0.440456
C200	C	0.648298	-0.088365	0.940456
C201	C	0.080746	-0.656109	0.575876
C202	C	0.580746	-0.156109	1.075876
C203	C	-0.032653	-0.542801	0.575971
C204	C	0.467347	-0.042801	1.075971
C205	C	0.633086	-0.633292	0.598298
C206	C	1.133086	-0.133292	1.098298
C207	C	0.632998	-0.632993	0.484834
C208	C	1.132998	-0.132993	0.984834
C209	C	0.632857	-0.497559	0.417433
C210	C	1.132857	0.002441	0.917433
C211	C	0.632949	-0.497860	0.530895
C212	C	1.132949	0.002140	1.030895
C213	C	0.148191	0.009634	0.440259
C214	C	0.648191	0.509634	0.940259
C215	C	0.034733	0.009493	0.440634
C216	C	0.534733	0.509493	0.940634
C217	C	-0.032641	0.009502	0.576027
C218	C	0.467359	0.509502	1.076027
C219	C	0.080854	0.009529	0.575690
C220	C	0.580854	0.509529	1.075690
C221	C	-0.009699	-0.475150	1.083148
C222	C	0.490301	0.024850	1.583148
C223	C	-0.009388	-0.588620	1.083088
C224	C	0.490612	-0.088620	1.583088
C225	C	0.126001	-0.656082	1.083116
C226	C	0.626001	-0.156082	1.583116
C227	C	0.125697	-0.542605	1.083155
C228	C	0.625697	-0.042605	1.583155
H229	H	0.022003	-0.474373	0.936811
H230	H	0.522003	0.025627	1.436811
C231	C	0.023508	0.009471	0.395702
C232	C	0.523508	0.509471	0.895702
N233	N	0.015055	0.009449	0.361861
N234	N	0.515055	0.509449	0.861861
H235	H	-0.043102	-0.433644	1.083156
H236	H	0.456898	0.066356	1.583156
C237	C	0.092084	0.009537	0.620627
C238	C	0.592084	0.509537	1.120627
N239	N	0.100543	0.009542	0.654473
N240	N	0.600543	0.509542	1.154473
C241	C	0.091886	-0.712229	0.620892
C242	C	0.591886	-0.212229	1.120892
N243	N	0.100277	-0.754498	0.654798
N244	N	0.600277	-0.254498	1.154798
H245	H	-0.074166	-0.534620	0.609333
H246	H	0.425834	-0.034620	1.109333
C247	C	0.171096	-0.712187	1.083205
C248	C	0.671096	-0.212187	1.583205
N249	N	0.205049	-0.754458	1.083308
N250	N	0.705049	-0.254458	1.583308
H251	H	0.633014	-0.666272	0.476534
H252	H	1.133014	-0.166272	0.976534
C253	C	-0.088703	0.009528	0.621153
C254	C	0.411297	0.509528	1.121153
N255	N	-0.130933	0.009559	0.655138
N256	N	0.369067	0.509559	1.155138
H257	H	0.189808	-0.596548	0.407092
H258	H	0.689808	-0.096548	0.907092
H259	H	0.093086	-0.844219	0.427442
H260	H	0.593086	-0.344219	0.927442
C261	C	0.170646	-0.531407	1.083163
C262	C	0.670646	-0.031407	1.583163
N263	N	0.204501	-0.522971	1.083168
N264	N	0.704501	-0.022971	1.583168
C265	C	0.632930	-0.452900	0.542105
C266	C	1.132930	0.047100	1.042105
N267	N	0.632913	-0.419035	0.550550
N268	N	1.132913	0.080965	1.050550
C269	C	-0.054316	-0.599798	1.083018
C270	C	0.445684	-0.099798	1.583018
N271	N	-0.088155	-0.608217	1.082964
N272	N	0.411845	-0.108217	1.582964
H273	H	0.189596	0.009891	0.406765
H274	H	0.689596	0.509891	0.906765
H275	H	0.056584	-0.439691	0.832846
H276	H	0.556584	0.060309	1.332846
H277	H	0.191844	-0.559260	0.936723
H278	H	0.691844	-0.059260	1.436723
H279	H	0.056452	-0.439666	0.634048
H280	H	0.556452	0.060334	1.134048
C281	C	0.242527	-0.528537	0.824555
C282	C	0.742527	-0.028537	1.324555
N283	N	0.289207	-0.539998	0.800797
N284	N	0.789207	-0.039998	1.300797
C285	C	0.632701	-0.452393	0.361410
C286	C	1.132701	0.047607	0.861410
N287	N	0.632556	-0.418365	0.319223
N288	N	1.132556	0.081635	0.819223
C289	C	0.005673	-0.470369	0.603364
C290	C	0.505673	0.029631	1.103364
N291	N	-0.041013	-0.458904	0.614856
N292	N	0.458987	0.041096	1.114856
H293	H	0.191560	-0.559196	0.514439
H294	H	0.691560	-0.059196	1.014439
C295	C	0.633154	-0.678429	0.654350
C296	C	1.133154	-0.178429	1.154350
N297	N	0.633206	-0.712426	0.696569
N298	N	1.133206	-0.212426	1.196569
H299	H	0.382671	-0.566208	0.623544
H300	H	0.882671	-0.066208	1.123544
C301	C	0.242337	-0.528491	0.545116
C302	C	0.742337	-0.028491	1.045116
N303	N	0.289025	-0.539961	0.533627
N304	N	0.789025	-0.039961	1.033627
H305	H	0.486634	-0.600858	0.588843
H306	H	0.986634	-0.100858	1.088843
H307	H	0.382624	-0.397967	0.559385
H308	H	0.882624	0.102033	1.059385
C309	C	0.193130	-0.249000	0.496025
C310	C	0.693130	0.251000	0.996025
N311	N	0.220415	-0.272732	0.465153
N312	N	0.720415	0.227268	0.965153
C313	C	0.152964	-0.128645	0.455945
C314	C	0.652964	0.371355	0.955945
N315	N	0.164403	-0.104894	0.409261
N316	N	0.664403	0.395106	0.909261
C317	C	0.494780	-0.422099	0.516903
C318	C	0.994780	0.077901	1.016903
N319	N	0.518512	-0.391595	0.494326
N320	N	1.018512	0.108405	0.994326
C321	C	0.094974	-0.249045	0.692590
C322	C	0.594974	0.250955	1.192590
N323	N	0.083533	-0.272793	0.739275
N324	N	0.583533	0.227207	1.239275
C325	C	0.054828	-0.128691	0.652510
C326	C	0.554828	0.371309	1.152510
N327	N	0.027561	-0.104959	0.683382
N328	N	0.527561	0.395041	1.183382
H329	H	-0.033030	-0.529506	0.229442
H330	H	0.466970	-0.029506	0.729442
H331	H	0.051792	-0.699362	0.229554
H332	H	0.551792	-0.199362	0.729554
C333	C	-0.077277	-0.553441	0.341589
C334	C	0.422723	-0.053441	0.841589
N335	N	-0.104600	-0.522553	0.365302
N336	N	0.395400	-0.022553	0.865302
H337	H	0.016979	-0.733950	0.333522
H338	H	0.516979	-0.233950	0.833522
H339	H	-0.067926	-0.564092	0.382165
H340	H	0.432074	-0.064092	0.882165
C341	C	0.060743	-0.709990	0.511462
C342	C	0.560743	-0.209990	1.011462
N343	N	0.087997	-0.740877	0.538813
N344	N	0.587997	-0.240877	1.038813
C345	C	-0.037284	-0.513393	0.413001
C346	C	0.462716	-0.013393	0.913001
N347	N	-0.048718	-0.466709	0.401514
N348	N	0.451282	0.033291	0.901514
H349	H	0.016742	-0.733938	0.467255
H350	H	0.516742	-0.233938	0.967255
H351	H	0.026652	-0.433515	0.407232
H352	H	0.526652	0.066485	0.907232
H353	H	-0.075156	-0.844016	0.491279
H354	H	0.424844	-0.344016	0.991279
C355	C	0.069044	-0.732069	0.384973
C356	C	0.569044	-0.232069	0.884973
N357	N	0.099570	-0.708374	0.362473
N358	N	0.599570	-0.208374	0.862473
H359	H	-0.109727	-0.740044	0.456586
H360	H	0.390273	-0.240044	0.956586
H361	H	-0.116855	-0.691337	0.509456
H362	H	0.383145	-0.191337	1.009456
H363	H	-0.220824	-0.656545	0.543924
H364	H	0.279176	-0.156545	1.043924
H365	H	-0.116547	-0.606465	0.339541
H366	H	0.383453	-0.106465	0.839541
C367	C	-0.228683	-0.562271	0.363342
C368	C	0.271317	-0.062271	0.863342
N369	N	-0.252353	-0.534955	0.332413
N370	N	0.247647	-0.034955	0.832413
