data_functionalizedCrystal
_audit_creation_method	'MofGen! by Chris Wilmer'
_symmetry_space_group_name_H-M	'P1'
_symmetry_Int_Tables_number	1
_symmetry_cell_setting	triclinic
loop_
_symmetry_equiv_pos_as_xyz
  x,y,z
_cell_length_a	10.723022
_cell_length_b	15.944493
_cell_length_c	9.198806
_cell_angle_alpha	89.997310
_cell_angle_beta	90.003648
_cell_angle_gamma	83.971135
loop_
_atom_site_label
_atom_site_type_symbol
_atom_site_fract_x
_atom_site_fract_y
_atom_site_fract_z
O1	O	1.655664	0.117805	0.120862
O2	O	1.292366	0.129083	0.120865
O3	O	1.483973	0.001223	0.120876
O4	O	1.464056	0.245665	0.120852
O5	O	1.483958	0.001222	-0.120909
O6	O	1.292350	0.129083	-0.120920
O7	O	1.655649	0.117804	-0.120923
Cu8	Cu	1.473998	0.123444	-0.142998
Cu9	Cu	1.474016	0.123444	0.142941
O10	O	1.464041	0.245665	-0.120933
C11	C	1.245869	0.128262	-0.000027
C12	C	1.107346	0.125808	-0.000025
C13	C	1.059740	0.052075	-0.000017
C14	C	0.916570	0.049536	-0.000014
C15	C	1.483152	-0.030077	-0.000011
C16	C	1.480711	-0.123339	0.000008
C17	C	1.593496	-0.358454	-0.000021
C18	C	1.532683	-0.409370	0.119192
C19	C	1.476189	-0.294086	-0.000010
C20	C	1.532641	-0.409347	-0.119189
C21	C	1.471830	-0.459021	-0.000033
C22	C	1.415408	-0.343774	0.119301
C23	C	1.415383	-0.343747	-0.119187
C24	C	1.354483	-0.394630	0.000054
C25	C	1.478704	-0.199072	0.000005
C26	C	1.469306	-0.554032	-0.000038
C27	C	1.702146	0.118625	-0.000028
C28	C	1.840668	0.121080	-0.000020
C29	C	1.464863	0.276964	-0.000044
C30	C	1.467303	0.370227	-0.000053
N31	N	1.473995	0.123443	-0.344112
C32	C	1.554449	0.069521	-0.416305
C33	C	1.554468	0.069518	-0.583717
N34	N	1.474030	0.123438	0.344055
H35	H	0.875575	-0.013593	0.000029
C36	C	1.019236	0.208551	-0.000025
H37	H	1.067670	0.255140	-0.000019
H38	H	0.967836	0.210787	-0.084336
H39	H	0.967859	0.210781	0.084306
C40	C	1.380941	0.185796	-0.428028
H41	H	1.330451	0.219619	-0.361026
H42	H	1.426011	0.220914	-0.487414
H43	H	1.328924	0.155315	-0.487398
C44	C	1.147855	-0.030666	-0.000013
H45	H	1.232522	-0.018105	-0.000026
H46	H	1.132713	-0.062471	0.084302
H47	H	1.132701	-0.062464	-0.084340
H48	H	0.881655	0.184212	-0.000036
C49	C	1.729991	-0.336553	0.000127
H50	H	1.744622	-0.304964	-0.084619
H51	H	1.744073	-0.304110	0.084021
H52	H	1.785489	-0.387078	0.001045
C53	C	1.599612	-0.448099	0.255336
H54	H	1.684480	-0.435968	0.255194
H55	H	1.558783	-0.424769	0.339995
H56	H	1.596887	-0.507459	0.254790
C57	C	1.348553	-0.305232	0.255614
H58	H	1.350579	-0.245808	0.254818
H59	H	1.263915	-0.317833	0.255966
H60	H	1.389947	-0.328269	0.340162
H61	H	1.365878	-0.315069	-0.219977
C62	C	1.217882	-0.416314	0.000140
H63	H	1.176414	-0.393648	0.084900
H64	H	1.175922	-0.392849	-0.083741
H65	H	1.217041	-0.475832	-0.000654
H66	H	1.582199	-0.437994	-0.219968
H67	H	1.623310	0.023355	-0.354175
H68	H	1.405151	0.169608	-0.593872
C69	C	1.647519	0.007150	-0.667576
H70	H	1.635318	0.015325	-0.769094
H71	H	1.730874	0.016607	-0.642685
H72	H	1.633752	-0.048968	-0.642700
