data_functionalizedCrystal
_audit_creation_method	'MofGen! by Chris Wilmer'
_symmetry_space_group_name_H-M	'P1'
_symmetry_Int_Tables_number	1
_symmetry_cell_setting	triclinic
loop_
_symmetry_equiv_pos_as_xyz
  x,y,z
_cell_length_a	10.967819
_cell_length_b	10.065875
_cell_length_c	16.992695
_cell_angle_alpha	80.609430
_cell_angle_beta	87.622480
_cell_angle_gamma	110.771277
loop_
_atom_site_label
_atom_site_type_symbol
_atom_site_fract_x
_atom_site_fract_y
_atom_site_fract_z
O1	O	1.745742	0.524082	0.057259
O2	O	1.370166	0.435752	0.076685
O3	O	1.556447	0.479551	-0.047142
O4	O	1.559461	0.480282	0.181086
O5	O	1.520935	0.244213	-0.023438
O6	O	1.334655	0.200413	0.100389
O7	O	1.710230	0.288743	0.080963
Zn8	Zn	1.516804	0.207213	0.094439
Zn9	Zn	1.563592	0.517282	0.063208
O10	O	1.523950	0.244943	0.204790
C11	C	1.304131	0.306728	0.088914
C12	C	1.160274	0.272894	0.090027
N13	N	1.484882	-0.004398	0.115753
C14	C	0.965860	0.344781	0.079400
C15	C	1.114544	0.379741	0.078245
C16	C	1.552477	-0.056284	0.070619
C17	C	1.527919	-0.219225	0.087029
C18	C	1.776266	0.417770	0.068734
C19	C	1.920124	0.451613	0.067619
C20	C	1.534817	0.360971	-0.064431
C21	C	1.523259	0.358253	-0.151261
N22	N	1.595524	0.728895	0.041888
C23	C	1.634777	0.384479	-0.203564
C24	C	1.623912	0.381937	-0.285151
C25	C	1.501526	0.353158	-0.314433
C26	C	1.390000	0.326934	-0.262124
C27	C	1.400868	0.329487	-0.180540
C28	C	1.456482	0.342583	-0.557199
C29	C	1.445621	0.340028	-0.638790
C30	C	1.679535	0.395033	-0.661811
C31	C	1.690391	0.397575	-0.580224
C32	C	1.578866	0.371359	-0.527923
N33	N	1.490416	0.350554	-0.397827
N34	N	1.589979	0.373973	-0.444531
C35	C	1.545580	0.363527	0.222078
C36	C	1.557139	0.366254	0.308908
H37	H	0.894941	0.227437	0.090346
H38	H	1.671576	-0.194902	-0.008907
H39	H	1.770331	0.416380	-0.704403
O40	O	1.393972	-0.095285	0.176264
C41	C	1.166997	-0.192635	0.231165
C42	C	1.269815	-0.089683	0.162576
H43	H	1.066598	-0.188118	0.220130
H44	H	1.163241	-0.307894	0.233607
H45	H	1.195065	-0.158031	0.290572
H46	H	1.241822	-0.124156	0.103132
H47	H	1.273553	0.025552	0.160205
H48	H	1.628524	0.019921	0.019827
H49	H	1.734436	0.407905	-0.179729
O50	O	1.437270	-0.309954	0.147714
C51	C	1.369328	-0.369991	0.289818
C52	C	1.472065	-0.267114	0.221170
H53	H	1.397438	-0.335411	0.349225
H54	H	1.268870	-0.365596	0.278837
H55	H	1.365664	-0.485205	0.292216
H56	H	1.475848	-0.151854	0.218733
H57	H	1.572472	-0.271634	0.232178
H58	H	1.714721	0.403290	-0.327733
H59	H	1.310058	0.308131	-0.137955
H60	H	1.790050	0.421010	-0.556389
O61	O	1.004836	0.591548	0.054680
C62	C	1.172369	0.774398	0.106566
C63	C	1.076521	0.615876	0.121315
H64	H	1.230333	0.794125	0.160438
H65	H	1.242868	0.797090	0.050521
H66	H	1.114787	0.849370	0.097840
H67	H	1.133995	0.540801	0.130078
H68	H	1.006023	0.593303	0.177344
O69	O	1.326640	0.312125	-0.667111
C70	C	1.095768	0.257785	-0.635667
C71	C	1.230427	0.289395	-0.603489
H72	H	1.017939	0.239369	-0.584242
H73	H	1.099631	0.353711	-0.683178
H74	H	1.070033	0.156763	-0.663400
H75	H	1.256244	0.390372	-0.575715
H76	H	1.226493	0.193389	-0.556016
O77	O	1.271213	0.299185	-0.290680
C78	C	1.141567	0.386330	-0.381671
C79	C	1.276170	0.417934	-0.349418
H80	H	1.145522	0.482331	-0.429154
H81	H	1.115754	0.285329	-0.409431
H82	H	1.063741	0.367963	-0.330254
H83	H	1.354085	0.436370	-0.400791
H84	H	1.301871	0.518900	-0.321635
O85	O	1.348218	0.316943	-0.506301
C86	C	1.206289	0.165934	-0.388578
C87	C	1.328945	0.194828	-0.446153
H88	H	1.190652	0.067188	-0.339944
H89	H	1.220371	0.264177	-0.359664
H90	H	1.116979	0.144995	-0.423542
H91	H	1.418313	0.215734	-0.411247
H92	H	1.314751	0.096568	-0.475068
O93	O	1.075510	0.132971	0.103029
C94	C	0.850024	-0.029452	0.116106
C95	C	0.945873	0.129070	0.101359
H96	H	0.745191	-0.032658	0.114778
H97	H	0.873048	-0.085102	0.067308
H98	H	0.860880	-0.087959	0.177212
H99	H	0.935070	0.187700	0.040279
H100	H	0.922823	0.184611	0.150205
H101	H	1.185458	0.497094	0.067307
