data_functionalizedCrystal
_audit_creation_method	'MofGen! by Chris Wilmer'
_symmetry_space_group_name_H-M	'P1'
_symmetry_Int_Tables_number	1
_symmetry_cell_setting	triclinic
loop_
_symmetry_equiv_pos_as_xyz
  x,y,z
_cell_length_a	23.532407
_cell_length_b	27.732048
_cell_length_c	22.010155
_cell_angle_alpha	89.999275
_cell_angle_beta	89.996931
_cell_angle_gamma	82.745667
loop_
_atom_site_label
_atom_site_type_symbol
_atom_site_fract_x
_atom_site_fract_y
_atom_site_fract_z
O1	O	0.755138	0.058672	-0.050456
O2	O	1.255138	0.558672	0.449544
O3	O	0.589257	0.067162	-0.050475
O4	O	1.089257	0.567162	0.449525
O5	O	0.677350	-0.007472	-0.050453
O6	O	1.177350	0.492528	0.449547
O7	O	0.667046	0.133306	-0.050477
O8	O	1.167046	0.633306	0.449523
O9	O	0.677334	-0.007461	0.050597
O10	O	1.177334	0.492539	0.550597
O11	O	0.589241	0.067173	0.050576
O12	O	1.089241	0.567173	0.550576
O13	O	0.755122	0.058683	0.050595
O14	O	1.255122	0.558683	0.550595
Cu15	Cu	0.672180	0.062929	0.059812
Cu16	Cu	1.172180	0.562929	0.559812
Cu17	Cu	0.672199	0.062916	-0.059692
Cu18	Cu	1.172199	0.562916	0.440308
O19	O	0.667030	0.133317	0.050573
O20	O	1.167030	0.633317	0.550573
C21	C	0.568033	0.066952	0.000048
C22	C	1.068033	0.566952	0.500048
C23	C	0.504818	0.066302	0.000042
C24	C	1.004818	0.566302	0.500042
C25	C	0.105629	0.106391	0.000062
C26	C	0.605629	0.606391	0.500062
C27	C	0.046230	0.105787	0.000066
C28	C	0.546230	0.605787	0.500066
O29	O	0.009406	0.142951	0.000082
O30	O	0.509406	0.642951	0.500082
N31	N	0.023699	0.061418	0.000073
N32	N	0.523699	0.561418	0.500073
C33	C	0.060570	0.017649	0.000082
C34	C	0.560570	0.517649	0.500082
O35	O	0.035951	-0.020147	0.000088
O36	O	0.535951	0.479853	0.500088
C37	C	0.119967	0.018253	0.000082
C38	C	0.619967	0.518253	0.500082
C39	C	0.142495	0.062626	0.000070
C40	C	0.642495	0.562626	0.500070
C41	C	0.128158	0.150760	0.000050
C42	C	0.628158	0.650760	0.500050
C43	C	0.187552	0.151364	0.000045
C44	C	0.687552	0.651364	0.500045
C45	C	0.224419	0.107599	0.000052
C46	C	0.724419	0.607599	0.500052
C47	C	0.201890	0.063229	0.000065
C48	C	0.701890	0.563229	0.500065
C49	C	0.156837	-0.025515	0.000096
C50	C	0.656837	0.474485	0.500096
C51	C	0.216239	-0.024907	0.000097
C52	C	0.716239	0.475093	0.500097
C53	C	0.238766	0.019466	0.000084
C54	C	0.738766	0.519466	0.500084
C55	C	0.298151	0.020068	0.000067
C56	C	0.798151	0.520068	0.500067
N57	N	0.320683	0.064437	0.000060
N58	N	0.820683	0.564437	0.500060
C59	C	0.283817	0.108203	0.000053
C60	C	0.783817	0.608203	0.500053
C61	C	-0.064170	0.016383	0.000082
C62	C	0.435830	0.516383	0.500082
C63	C	-0.123567	0.015778	0.000077
C64	C	0.376433	0.515778	0.500077
C65	C	-0.137902	0.103917	0.000062
C66	C	0.362098	0.603917	0.500062
C67	C	-0.078505	0.104521	0.000063
C68	C	0.421495	0.604521	0.500063
C69	C	-0.041639	0.060753	0.000075
C70	C	0.458361	0.560753	0.500075
C71	C	0.408551	0.109467	0.000042
C72	C	0.908551	0.609467	0.500042
C73	C	0.467951	0.110067	0.000035
C74	C	0.967951	0.610067	0.500035
C75	C	0.482282	0.021928	0.000052
C76	C	0.982282	0.521928	0.500052
C77	C	0.422886	0.021328	0.000057
C78	C	0.922886	0.521328	0.500057
C79	C	0.386021	0.065102	0.000053
C80	C	0.886021	0.565102	0.500053
O81	O	0.335010	-0.017077	0.000054
O82	O	0.835010	0.482923	0.500054
O83	O	0.308444	0.145992	0.000054
O84	O	0.808444	0.645992	0.500054
C85	C	0.677125	-0.025473	0.000074
C86	C	1.177125	0.474527	0.500074
C87	C	0.676474	-0.079129	0.000079
C88	C	1.176474	0.420871	0.500079
C89	C	0.724431	-0.417871	0.000053
C90	C	1.224431	0.082129	0.500053
C91	C	0.722014	-0.619534	0.000044
C92	C	1.222014	-0.119534	0.500044
O93	O	0.765867	-0.650722	0.000023
O94	O	1.265867	-0.150722	0.500023
N95	N	0.669779	-0.638738	0.000039
N96	N	1.169779	-0.138738	0.500039
C97	C	0.618144	-0.607523	0.000032
C98	C	1.118144	-0.107523	0.500032
O99	O	0.573659	-0.628484	0.000021
O100	O	1.073659	-0.128484	0.500021
C101	C	0.620561	-0.405860	0.000036
C102	C	1.120561	0.094140	0.500036
C103	C	0.672800	-0.386659	0.000048
C104	C	1.172800	0.113341	0.500048
C105	C	0.776665	-0.398669	0.000064
C106	C	1.276665	0.101331	0.500064
C107	C	0.777269	-0.348256	0.000069
C108	C	1.277269	0.151744	0.500069
C109	C	0.725638	-0.317045	0.000064
C110	C	1.225638	0.182955	0.500064
C111	C	0.673403	-0.336247	0.000053
C112	C	1.173403	0.163753	0.500053
C113	C	0.568927	-0.374646	0.000025
C114	C	1.068927	0.125354	0.500025
C115	C	0.569536	-0.324228	0.000024
C116	C	1.069536	0.175772	0.500024
C117	C	0.621775	-0.305027	0.000036
C118	C	1.121775	0.194973	0.500036
C119	C	0.622376	-0.254622	0.000053
C120	C	1.122376	0.245378	0.500053
N121	N	0.674611	-0.235418	0.000059
N122	N	1.174611	0.264582	0.500059
C123	C	0.726242	-0.266630	0.000064
C124	C	1.226242	0.233370	0.500064
C125	C	0.616879	-0.713399	0.000031
C126	C	1.116879	-0.213399	0.500031
C127	C	0.616274	-0.763814	0.000031
C128	C	1.116274	-0.263814	0.500031
C129	C	0.720145	-0.775822	0.000042
C130	C	1.220145	-0.275822	0.500042
C131	C	0.720749	-0.725406	0.000046
C132	C	1.220749	-0.225406	0.500046
C133	C	0.669114	-0.694195	0.000036
C134	C	1.169114	-0.194195	0.500036
C135	C	0.727506	-0.160758	0.000076
C136	C	1.227506	0.339242	0.500076
C137	C	0.728105	-0.110341	0.000084
C138	C	1.228105	0.389659	0.500084
C139	C	0.624235	-0.098337	0.000069
C140	C	1.124235	0.401663	0.500069
C141	C	0.623635	-0.148751	0.000065
C142	C	1.123635	0.351249	0.500065
C143	C	0.675276	-0.179961	0.000066
C144	C	1.175276	0.320039	0.500066
O145	O	0.578547	-0.223406	0.000068
O146	O	1.078547	0.276594	0.500068
O147	O	0.770721	-0.245659	0.000061
O148	O	1.270721	0.254341	0.500061
C149	C	0.723827	-0.468283	0.000047
C150	C	1.223827	0.031717	0.500047
C151	C	0.671593	-0.487485	0.000037
C152	C	1.171593	0.012515	0.500037
C153	C	0.619962	-0.456274	0.000031
C154	C	1.119962	0.043726	0.500031
C155	C	0.670988	-0.537900	0.000037
C156	C	1.170988	-0.037900	0.500037
C157	C	0.722619	-0.569112	0.000042
C158	C	1.222619	-0.069112	0.500042
C159	C	0.774855	-0.549908	0.000047
C160	C	1.274855	-0.049908	0.500047
C161	C	0.775458	-0.499495	0.000053
C162	C	1.275458	0.000505	0.500053
C163	C	0.567727	-0.475478	0.000026
C164	C	1.067727	0.024522	0.500026
C165	C	0.567127	-0.525891	0.000021
C166	C	1.067127	-0.025891	0.500021
C167	C	0.618758	-0.557103	0.000026
C168	C	1.118758	-0.057103	0.500026
C169	C	0.776346	0.058894	0.000070
C170	C	1.276346	0.558894	0.500070
C171	C	0.839562	0.059544	0.000073
C172	C	1.339562	0.559544	0.500073
C173	C	0.667254	0.151319	0.000045
C174	C	1.167254	0.651319	0.500045
C175	C	0.667905	0.204975	0.000036
C176	C	1.167905	0.704975	0.500036
N177	N	0.672171	0.062938	0.143864
N178	N	1.172171	0.562938	0.643864
N179	N	0.672213	0.062903	-0.143744
N180	N	1.172213	0.562903	0.356256
C181	C	0.711209	0.029873	0.563653
C182	C	1.211209	0.529873	1.063653
C183	C	0.711211	0.029869	0.627261
C184	C	1.211211	0.529869	1.127261
O185	O	0.744380	0.001762	0.660160
O186	O	1.244380	0.501762	1.160160
N187	N	0.672199	0.062906	0.659071
N188	N	1.172199	0.562906	1.159071
C189	C	0.633177	0.095945	0.627271
C190	C	1.133177	0.595945	1.127271
O191	O	0.599994	0.124044	0.660169
O192	O	1.099994	0.624044	1.160169
C193	C	0.633172	0.095945	0.563665
C194	C	1.133172	0.595945	1.063665
C195	C	0.672191	0.062910	0.531857
C196	C	1.172191	0.562910	1.031857
C197	C	0.750224	-0.003160	0.531846
C198	C	1.250224	0.496840	1.031846
C199	C	0.750222	-0.003156	0.468243
C200	C	1.250222	0.496844	0.968243
C201	C	0.711205	0.029881	0.436447
C202	C	1.211205	0.529881	0.936447
C203	C	0.672189	0.062914	0.468254
C204	C	1.172189	0.562914	0.968254
C205	C	0.594148	0.128981	0.531866
C206	C	1.094148	0.628981	1.031866
C207	C	0.594147	0.128979	0.468255
C208	C	1.094147	0.628979	0.968255
C209	C	0.633166	0.095943	0.436447
C210	C	1.133166	0.595943	0.936447
C211	C	0.633170	0.095955	0.372855
C212	C	1.133170	0.595955	0.872855
N213	N	0.672182	0.062919	0.341045
N214	N	1.172182	0.562919	0.841045
C215	C	0.711200	0.029881	0.372840
C216	C	1.211200	0.529881	0.872840
C217	C	0.633190	0.095940	0.760849
C218	C	1.133190	0.595940	1.260849
C219	C	0.633197	0.095942	0.824454
C220	C	1.133197	0.595942	1.324454
C221	C	0.711231	0.029866	0.824440
C222	C	1.211231	0.529866	1.324440
C223	C	0.711226	0.029867	0.760833
C224	C	1.211226	0.529867	1.260833
C225	C	0.672202	0.062904	0.729038
C226	C	1.172202	0.562904	1.229038
C227	C	0.711193	0.029893	0.239269
C228	C	1.211193	0.529893	0.739269
C229	C	0.711189	0.029901	0.175660
C230	C	1.211189	0.529901	0.675660
C231	C	0.633153	0.095975	0.175680
C232	C	1.133153	0.595975	0.675680
C233	C	0.633159	0.095969	0.239284
C234	C	1.133159	0.595969	0.739284
C235	C	0.672181	0.062924	0.271076
C236	C	1.172181	0.562924	0.771076
O237	O	0.600017	0.124047	0.339915
O238	O	1.100017	0.624047	0.839915
O239	O	0.744372	0.001783	0.339935
O240	O	1.244372	0.501783	0.839935
H241	H	0.098146	0.186402	0.000047
H242	H	0.598146	0.686402	0.500047
H243	H	0.816894	-0.575329	0.000054
H244	H	1.316894	-0.075329	0.500054
C245	C	0.464514	-0.508945	-0.000001
C246	C	0.964514	-0.008945	0.499999
C247	C	0.509701	-0.546993	0.000007
C248	C	1.009701	-0.046993	0.500007
H249	H	0.429064	-0.521973	-0.000018
H250	H	0.929064	-0.021973	0.499982
H251	H	0.466903	-0.489537	0.035240
H252	H	0.966903	0.010463	0.535240
H253	H	0.466928	-0.489528	-0.035237
H254	H	0.966928	0.010472	0.464763
H255	H	0.507290	-0.566409	0.035245
H256	H	1.007290	-0.066409	0.535245
H257	H	0.507311	-0.566410	-0.035238
H258	H	1.007311	-0.066410	0.464762
C259	C	-0.103416	-0.071281	0.000092
C260	C	0.396584	0.428719	0.500092
C261	C	-0.148325	-0.032998	0.000085
C262	C	0.351675	0.467002	0.500085
H263	H	-0.118700	-0.101394	0.000103
H264	H	0.381300	0.398606	0.500103
H265	H	-0.080549	-0.069214	-0.035147
H266	H	0.419451	0.430786	0.464853
H267	H	-0.080547	-0.069202	0.035330
H268	H	0.419453	0.430798	0.535330
H269	H	-0.171192	-0.035075	-0.035156
H270	H	0.328808	0.464925	0.464844
H271	H	-0.171201	-0.035066	0.035328
H272	H	0.328799	0.464934	0.535328
H273	H	0.742965	0.003000	0.149765
H274	H	1.242965	0.503000	0.649765
C275	C	0.562709	-0.198479	-0.051894
C276	C	1.062709	0.301521	0.448106
C277	C	0.566217	-0.169863	0.000058
C278	C	1.066217	0.330137	0.500058
H279	H	0.527262	-0.211513	-0.051899
H280	H	1.027262	0.288487	0.448101
H281	H	0.565106	-0.179056	-0.087121
H282	H	1.065106	0.320944	0.412879
H283	H	0.593376	-0.224281	-0.051888
H284	H	1.093376	0.275719	0.448112
H285	H	0.535552	-0.144059	0.000049
H286	H	1.035552	0.355941	0.500049
H287	H	0.563814	-0.189287	0.035294
H288	H	1.063814	0.310713	0.535294
H289	H	0.246253	-0.060550	0.000107
H290	H	0.746253	0.439450	0.500107
C291	C	0.508141	-0.411818	-0.051922
C292	C	1.008141	0.088182	0.448078
C293	C	0.510968	-0.441176	0.000022
C294	C	1.010968	0.058824	0.500022
H295	H	0.473096	-0.390646	-0.051923
H296	H	0.973096	0.109354	0.448077
H297	H	0.539327	-0.393162	-0.051912
H298	H	1.039327	0.106838	0.448088
H299	H	0.510073	-0.431738	-0.087158
H300	H	1.010073	0.068262	0.412842
H301	H	0.509040	-0.421256	0.035258
H302	H	1.009040	0.078744	0.535258
H303	H	0.479773	-0.459834	0.000018
H304	H	0.979773	0.040166	0.500018
H305	H	0.762185	-0.801243	0.000047
H306	H	1.262185	-0.301243	0.500047
H307	H	0.138506	-0.061648	0.000107
H308	H	0.638506	0.438352	0.500107
C309	C	0.557289	-0.649743	-0.051925
C310	C	1.057289	-0.149743	0.448075
C311	C	0.560115	-0.679097	0.000022
C312	C	1.060115	-0.179097	0.500022
H313	H	0.522243	-0.628571	-0.051929
H314	H	1.022243	-0.128571	0.448071
H315	H	0.588475	-0.631087	-0.051917
H316	H	1.088475	-0.131087	0.448083
H317	H	0.559222	-0.669666	-0.087159
H318	H	1.059222	-0.169666	0.412841
H319	H	0.558187	-0.659174	0.035257
H320	H	1.058187	-0.159174	0.535257
H321	H	0.528921	-0.697755	0.000021
H322	H	1.028921	-0.197755	0.500021
H323	H	0.817996	-0.483866	0.000062
H324	H	1.317996	0.016134	0.500062
H325	H	0.205889	0.187497	0.000035
H326	H	0.705889	0.687497	0.500035
H327	H	0.781993	-0.030058	0.442349
H328	H	1.281993	0.469942	0.942349
C329	C	0.010945	-0.034081	-0.051862
C330	C	0.510945	0.465919	0.448138
C331	C	-0.023648	-0.031731	0.000084
C332	C	0.476352	0.468269	0.500084
H333	H	0.035962	-0.063783	-0.051857
H334	H	0.535962	0.436217	0.448143
H335	H	-0.012524	-0.032486	-0.087093
H336	H	0.487476	0.467514	0.412907
H337	H	0.032866	-0.007570	-0.051858
H338	H	0.532866	0.492430	0.448142
H339	H	-0.045572	-0.058240	0.000078
H340	H	0.454428	0.441760	0.500078
H341	H	-0.000176	-0.033331	0.035324
H342	H	0.499824	0.466669	0.535324
H343	H	0.743000	0.002965	0.850339
H344	H	1.243000	0.502965	1.350339
H345	H	0.404543	-0.014804	0.000058
H346	H	0.904543	0.485196	0.500058
H347	H	0.781997	-0.030065	0.557728
H348	H	1.281997	0.469935	1.057728
C349	C	0.836271	-0.462326	-0.051875
C350	C	1.336271	0.037674	0.448125
C351	C	0.833426	-0.432970	0.000070
C352	C	1.333426	0.067030	0.500070
H353	H	0.871318	-0.483497	-0.051869
H354	H	1.371318	0.016503	0.448131
H355	H	0.805086	-0.480983	-0.051876
H356	H	1.305086	0.019017	0.448124
H357	H	0.834349	-0.442404	-0.087111
H358	H	1.334349	0.057596	0.412889
H359	H	0.835344	-0.452892	0.035305
H360	H	1.335344	0.047108	0.535305
H361	H	0.864619	-0.414311	0.000076
H362	H	1.364619	0.085689	0.500076
H363	H	0.742998	0.002967	0.734939
H364	H	1.242998	0.502967	1.234939
H365	H	0.526389	-0.390270	0.000012
H366	H	1.026389	0.109730	0.500012
C367	C	0.788327	-0.035419	0.232848
C368	C	1.288327	0.464581	0.732848
C369	C	0.754086	-0.006430	0.274209
C370	C	1.254086	0.493570	0.774209
H371	H	0.814811	-0.057839	0.254420
H372	H	1.314811	0.442161	0.754420
H373	H	0.764773	-0.052700	0.208042
H374	H	1.264773	0.447300	0.708042
H375	H	0.808628	-0.015376	0.208038
H376	H	1.308628	0.484624	0.708038
H377	H	0.733782	-0.026473	0.299016
H378	H	1.233782	0.473527	0.799016
H379	H	0.777644	0.010853	0.299026
H380	H	1.277644	0.510853	0.799026
C381	C	0.513666	-0.746869	0.000014
C382	C	1.013666	-0.246869	0.500014
C383	C	0.558852	-0.784916	0.000023
C384	C	1.058852	-0.284916	0.500023
H385	H	0.478215	-0.759896	0.000003
H386	H	0.978215	-0.259896	0.500003
H387	H	0.516057	-0.727457	0.035252
H388	H	1.016057	-0.227457	0.535252
H389	H	0.516076	-0.727454	-0.035225
H390	H	1.016076	-0.227454	0.464775
H391	H	0.556444	-0.804329	0.035265
H392	H	1.056444	-0.304329	0.535265
H393	H	0.556460	-0.804336	-0.035218
H394	H	1.056460	-0.304336	0.464782
H395	H	0.601430	0.122848	0.850347
H396	H	1.101430	0.622848	1.350347
H397	H	0.527488	-0.298818	0.000015
H398	H	1.027488	0.201182	0.500015
H399	H	-0.060167	0.140653	0.000056
H400	H	0.439833	0.640653	0.500056
C401	C	0.823357	-0.742350	0.000053
C402	C	1.323357	-0.242350	0.500053
C403	C	0.778170	-0.704302	0.000049
C404	C	1.278170	-0.204302	0.500049
H405	H	0.858807	-0.729323	0.000050
H406	H	1.358807	-0.229323	0.500050
H407	H	0.820955	-0.761760	0.035292
H408	H	1.320955	-0.261760	0.535292
H409	H	0.820957	-0.761766	-0.035186
H410	H	1.320957	-0.261766	0.464814
H411	H	0.780568	-0.684888	0.035291
H412	H	1.280568	-0.184888	0.535291
H413	H	0.780574	-0.684884	-0.035192
H414	H	1.280574	-0.184884	0.464808
C415	C	0.579052	-0.015719	0.000061
C416	C	1.079052	0.484281	0.500061
C417	C	0.567484	-0.064023	0.000060
C418	C	1.067484	0.435977	0.500060
H419	H	0.544015	0.005465	0.000048
H420	H	1.044015	0.505465	0.500048
H421	H	0.600477	-0.009929	0.035303
H422	H	1.100477	0.490071	0.535303
H423	H	0.600501	-0.009933	-0.035174
H424	H	1.100501	0.490067	0.464826
H425	H	0.546038	-0.069811	0.035298
H426	H	1.046038	0.430189	0.535298
H427	H	0.546050	-0.069816	-0.035186
H428	H	1.046050	0.430184	0.464814
H429	H	0.770646	-0.094710	0.000095
H430	H	1.270646	0.405290	0.500095
H431	H	0.601414	0.122847	0.734965
H432	H	1.101414	0.622847	1.234965
C433	C	0.517008	0.194283	0.525464
C434	C	1.017008	0.694283	1.025464
C435	C	0.551254	0.165293	0.566817
C436	C	1.051254	0.665293	1.066817
H437	H	0.490523	0.216699	0.547042
H438	H	0.990523	0.716699	1.047042
H439	H	0.540559	0.211569	0.500656
H440	H	1.040559	0.711569	1.000656
H441	H	0.496709	0.174240	0.500655
H442	H	0.996709	0.674240	1.000655
H443	H	0.571556	0.185336	0.591623
H444	H	1.071556	0.685336	1.091623
H445	H	0.527700	0.148006	0.591635
H446	H	1.027700	0.648006	1.091635
H447	H	0.562367	0.155881	0.442371
H448	H	1.062367	0.655881	0.942371
C449	C	0.556019	0.161276	0.232906
C450	C	1.056019	0.661276	0.732906
C451	C	0.590267	0.132279	0.274250
C452	C	1.090267	0.632279	0.774250
H453	H	0.529534	0.183687	0.254491
H454	H	1.029534	0.683687	0.754491
H455	H	0.579569	0.178569	0.208104
H456	H	1.079569	0.678569	0.708104
H457	H	0.535721	0.141238	0.208090
H458	H	1.035721	0.641238	0.708090
H459	H	0.610569	0.152318	0.299063
H460	H	1.110569	0.652318	0.799063
H461	H	0.566714	0.114986	0.299062
H462	H	1.066714	0.614986	0.799062
C463	C	0.490500	-0.065255	0.000067
C464	C	0.990500	0.434745	0.500067
C465	C	0.522812	-0.026178	0.000058
C466	C	1.022812	0.473822	0.500058
H467	H	0.515524	-0.094953	0.000069
H468	H	1.015524	0.405047	0.500069
H469	H	0.467036	-0.063655	0.035304
H470	H	0.967036	0.436345	0.535304
H471	H	0.467034	-0.063661	-0.035173
H472	H	0.967034	0.436339	0.464827
H473	H	0.546276	-0.027769	0.035300
H474	H	1.046276	0.472231	0.535300
H475	H	0.546287	-0.027778	-0.035183
H476	H	1.046287	0.472222	0.464817
C477	C	0.787113	-0.224411	-0.051868
C478	C	1.287113	0.275589	0.448132
C479	C	0.784269	-0.195059	0.000080
C480	C	1.284269	0.304941	0.500080
H481	H	0.822158	-0.245584	-0.051864
H482	H	1.322158	0.254416	0.448136
H483	H	0.755926	-0.243067	-0.051871
H484	H	1.255926	0.256933	0.448129
H485	H	0.785193	-0.204487	-0.087102
H486	H	1.285193	0.295513	0.412898
H487	H	0.786185	-0.214983	0.035313
H488	H	1.286185	0.285017	0.535313
H489	H	0.815465	-0.176402	0.000088
H490	H	1.315465	0.323598	0.500088
C491	C	0.474003	0.185377	-0.051927
C492	C	0.974003	0.685377	0.448073
C493	C	0.492708	0.158847	0.000021
C494	C	0.992708	0.658847	0.500021
H495	H	0.489283	0.215492	-0.051932
H496	H	0.989283	0.715492	0.448068
H497	H	0.486689	0.167367	-0.087156
H498	H	0.986689	0.667367	0.412844
H499	H	0.433351	0.191272	-0.051918
H500	H	0.933351	0.691272	0.448082
H501	H	0.533361	0.152949	0.000010
H502	H	1.033361	0.652949	0.500010
H503	H	0.480026	0.176861	0.035260
H504	H	0.980026	0.676861	0.535260
C505	C	0.333444	0.159920	-0.051911
C506	C	0.833444	0.659920	0.448089
C507	C	0.368033	0.157582	0.000034
C508	C	0.868033	0.657582	0.500034
H509	H	0.308428	0.189623	-0.051916
H510	H	0.808428	0.689623	0.448084
H511	H	0.356916	0.158317	-0.087143
H512	H	0.856916	0.658317	0.412857
H513	H	0.311522	0.133410	-0.051896
H514	H	0.811522	0.633410	0.448104
H515	H	0.389958	0.184091	0.000016
H516	H	0.889958	0.684091	0.500016
H517	H	0.344558	0.159191	0.035275
H518	H	0.844558	0.659191	0.535275
C519	C	-0.213025	0.154361	-0.051884
C520	C	0.286975	0.654361	0.448116
C521	C	-0.178434	0.152026	0.000059
C522	C	0.321566	0.652026	0.500059
H523	H	-0.238050	0.184059	-0.051884
H524	H	0.261950	0.684059	0.448116
H525	H	-0.189554	0.152767	-0.087117
H526	H	0.310446	0.652767	0.412883
H527	H	-0.234936	0.127845	-0.051873
H528	H	0.265064	0.627845	0.448127
H529	H	-0.156519	0.178541	0.000045
H530	H	0.343481	0.678541	0.500045
H531	H	-0.201907	0.153625	0.035301
H532	H	0.298093	0.653625	0.535301
H533	H	0.819807	-0.332628	0.000076
H534	H	1.319807	0.167372	0.500076
H535	H	0.601387	0.122875	0.149782
H536	H	1.101387	0.622875	0.649782
