data_functionalizedCrystal
_audit_creation_method	'MofGen! by Chris Wilmer'
_symmetry_space_group_name_H-M	'P1'
_symmetry_Int_Tables_number	1
_symmetry_cell_setting	triclinic
loop_
_symmetry_equiv_pos_as_xyz
  x,y,z
_cell_length_a	13.033293
_cell_length_b	19.121449
_cell_length_c	13.032268
_cell_angle_alpha	84.975491
_cell_angle_beta	90.920818
_cell_angle_gamma	94.461150
loop_
_atom_site_label
_atom_site_type_symbol
_atom_site_fract_x
_atom_site_fract_y
_atom_site_fract_z
Zn1	Zn	1.513636	-0.216207	0.769686
Zn2	Zn	1.542387	-0.316075	0.592265
Zn3	Zn	1.363238	-0.212538	0.576062
Zn4	Zn	1.350671	-0.345045	0.740724
O5	O	1.442483	-0.272466	0.669684
O6	O	1.660625	-0.218867	0.765052
O7	O	1.535915	-0.288681	0.446952
O8	O	1.376416	-0.115775	0.607087
O9	O	1.681749	-0.292239	0.634701
O10	O	1.486912	-0.118471	0.749342
O11	O	1.404295	-0.212612	0.435048
O12	O	1.218396	-0.240703	0.579003
O13	O	1.354996	-0.341615	0.887729
O14	O	1.209162	-0.338056	0.699980
O15	O	1.474726	-0.246958	0.909008
O16	O	1.523729	-0.417168	0.606618
O17	O	1.382876	-0.438452	0.715690
C18	C	1.176655	-0.292126	0.634591
C19	C	1.062931	-0.300555	0.619601
C20	C	1.001770	-0.268085	0.677506
C21	C	0.884230	-0.276796	0.662015
C22	C	1.455083	-0.453026	0.659796
C23	C	1.460563	-0.530267	0.655612
C24	C	1.389765	-0.577660	0.710374
C25	C	1.394919	-0.650235	0.706440
C26	C	1.470877	-0.675415	0.647747
C27	C	1.541678	-0.628016	0.592978
C28	C	1.536519	-0.555443	0.596908
C29	C	1.490121	-0.893985	0.633040
C30	C	1.495277	-0.966565	0.629117
C31	C	1.348516	-0.988778	0.742577
C32	C	1.343367	-0.916202	0.746506
C33	C	1.414165	-0.868809	0.691733
C34	C	1.476149	-0.749598	0.643727
C35	C	1.408888	-0.794628	0.695748
C36	C	1.709349	-0.252731	0.704915
C37	C	1.823071	-0.244321	0.719928
C38	C	1.410252	-0.297927	0.936527
C39	C	1.396517	-0.308777	1.050239
C40	C	1.429858	-0.091202	0.679638
C41	C	1.424479	-0.013958	0.683879
C42	C	1.474644	-0.247050	0.403890
C43	C	1.488563	-0.235990	0.290215
C44	C	1.449634	-0.266780	1.111464
C45	C	1.435439	-0.277993	1.228992
H46	H	1.036427	-0.233833	0.738546
C47	C	1.274536	-0.405211	1.017842
C48	C	1.320937	-0.368523	1.096925
H49	H	1.227870	-0.442094	1.046664
H50	H	1.325962	-0.424549	0.980588
H51	H	1.238291	-0.373871	0.972651
H52	H	1.357188	-0.399862	1.142112
H53	H	1.269502	-0.349185	1.134196
H54	H	1.544545	-0.191727	1.255628
H55	H	1.327916	-0.557164	0.758173
H56	H	0.849579	-0.311045	0.600966
C57	C	1.202936	-1.003443	0.855123
C58	C	1.270694	-1.040872	0.802777
H59	H	1.154893	-1.035606	0.892293
H60	H	1.167217	-0.973814	0.806885
H61	H	1.240748	-0.975536	0.901706
H62	H	1.232882	-1.068776	0.756189
H63	H	1.306416	-1.070514	0.851020
C64	C	1.306603	-0.848759	0.886643
C65	C	1.259865	-0.888532	0.811021
H66	H	1.255050	-0.831683	0.926477
H67	H	1.348017	-0.810146	0.854593
H68	H	1.348428	-0.877479	0.930156
H69	H	1.218046	-0.859810	0.767503
H70	H	1.218434	-0.927150	0.843073
C71	C	0.977224	-0.198405	0.801746
C72	C	0.869837	-0.198085	0.802346
H73	H	1.006092	-0.169865	0.852631
H74	H	1.002251	-0.180319	0.735885
H75	H	0.996155	-0.245249	0.816331
H76	H	0.850906	-0.151241	0.787753
H77	H	0.844801	-0.216169	0.868222
C78	C	1.639821	-0.937321	0.517339
C79	C	1.578771	-0.994244	0.564591
H80	H	1.691360	-0.954411	0.477504
H81	H	1.671523	-0.910339	0.568634
H82	H	1.597983	-0.908614	0.473820
H83	H	1.620608	-1.022948	0.608117
H84	H	1.547068	-1.021238	0.513289
C85	C	0.908771	-0.346476	0.537803
C86	C	1.016157	-0.346794	0.537195
H87	H	0.879899	-0.375026	0.486931
H88	H	0.889837	-0.299639	0.523209
H89	H	0.883748	-0.364557	0.603678
H90	H	1.041180	-0.328707	0.471322
H91	H	1.035099	-0.393639	0.551783
C92	C	1.249345	-0.664902	0.818993
C93	C	1.317098	-0.702329	0.766640
H94	H	1.201303	-0.697064	0.856163
H95	H	1.213624	-0.635270	0.770760
H96	H	1.287161	-0.636996	0.865576
H97	H	1.279283	-0.730231	0.720051
H98	H	1.352822	-0.731973	0.814879
H99	H	1.603520	-0.648524	0.545184
C100	C	1.515280	-0.798224	0.501729
C101	C	1.567950	-0.841901	0.572837
H102	H	1.563334	-0.766072	0.464557
H103	H	1.469319	-0.772838	0.537241
H104	H	1.477481	-0.826144	0.455152
H105	H	1.605743	-0.813982	0.619419
H106	H	1.613929	-0.867289	0.537323
H107	H	1.594169	-0.516855	0.552313
C108	C	1.471769	-0.160858	0.998151
C109	C	1.525215	-0.207036	1.064772
H110	H	1.518435	-0.123978	0.969324
H111	H	1.420356	-0.141518	1.035420
H112	H	1.440284	-0.185762	0.944517
H113	H	1.556694	-0.182133	1.118411
H114	H	1.576647	-0.226378	1.027502
H115	H	1.379445	-0.322248	1.263579
H116	H	1.537994	-0.770109	0.595940
H117	H	1.347040	-0.774123	0.743531
