data_functionalizedCrystal
_audit_creation_method	'MofGen! by Chris Wilmer'
_symmetry_space_group_name_H-M	'P1'
_symmetry_Int_Tables_number	1
_symmetry_cell_setting	triclinic
loop_
_symmetry_equiv_pos_as_xyz
  x,y,z
_cell_length_a	19.120786
_cell_length_b	21.395364
_cell_length_c	19.121249
_cell_angle_alpha	87.555892
_cell_angle_beta	94.786120
_cell_angle_gamma	87.518227
loop_
_atom_site_label
_atom_site_type_symbol
_atom_site_fract_x
_atom_site_fract_y
_atom_site_fract_z
Zn1	Zn	-0.262963	-0.962441	0.385910
Zn2	Zn	-0.385629	-0.953053	0.263221
Zn3	Zn	-0.268009	-0.853023	0.268256
Zn4	Zn	-0.380636	-0.852965	0.380844
O5	O	-0.324309	-0.905370	0.324558
O6	O	-0.279214	-1.048875	0.369648
O7	O	-0.374228	-0.935880	0.165424
O8	O	-0.168869	-0.871490	0.288090
O9	O	-0.369336	-1.041978	0.279509
O10	O	-0.165162	-0.951879	0.374530
O11	O	-0.287813	-0.862387	0.169123
O12	O	-0.282971	-0.765336	0.283178
O13	O	-0.360825	-0.871391	0.479981
O14	O	-0.365717	-0.765293	0.365896
O15	O	-0.274371	-0.951823	0.483703
O16	O	-0.483438	-0.935823	0.274597
O17	O	-0.479769	-0.862289	0.361014
C18	C	-0.324350	-0.742580	0.324534
C19	C	-0.324384	-0.672938	0.324540
C20	C	-0.277529	-0.643838	0.371541
C21	C	-0.277512	-0.578403	0.371543
C22	C	-0.324363	-0.542071	0.324551
C23	C	-0.371221	-0.571178	0.277541
C24	C	-0.371232	-0.636612	0.277535
C25	C	-0.387977	-0.435615	0.316188
C26	C	-0.387968	-0.370183	0.316198
C27	C	-0.324330	-0.340252	0.324565
C28	C	-0.260700	-0.375762	0.332937
C29	C	-0.260711	-0.441196	0.332931
C30	C	-0.324356	-0.471119	0.324552
C31	C	-0.277454	-0.240201	0.371572
C32	C	-0.277436	-0.174765	0.371570
C33	C	-0.371151	-0.167540	0.277571
C34	C	-0.371163	-0.232975	0.277570
C35	C	-0.324315	-0.269302	0.324574
C36	C	-0.507135	-0.898049	0.316725
C37	C	-0.585348	-0.894975	0.313397
C38	C	-0.620100	-0.935357	0.356875
C39	C	-0.693589	-0.932466	0.353750
C40	C	-0.732324	-0.889196	0.307142
C41	C	-0.697567	-0.848810	0.263663
C42	C	-0.624079	-0.851698	0.266792
C43	C	-0.954310	-0.878380	0.295444
C44	C	-1.027803	-0.875496	0.292316
C45	C	-1.023820	-0.959152	0.382405
C46	C	-0.950331	-0.962039	0.385527
C47	C	-0.915579	-0.921650	0.342050
C48	C	-0.807442	-0.886241	0.303945
C49	C	-0.840463	-0.924602	0.345251
C50	C	-0.140769	-0.912738	0.332437
C51	C	-0.062555	-0.915878	0.335794
C52	C	-0.316478	-0.912648	0.508086
C53	C	-0.313141	-0.915749	0.586295
C54	C	-0.324278	-0.068796	0.324578
C55	C	-0.324287	-0.138436	0.324576
C56	C	-0.292012	-0.935421	1.028726
C57	C	-0.295151	-0.932503	0.955241
C58	C	-0.341728	-0.889165	0.916564
C59	C	-0.385174	-0.848747	0.951376
C60	C	-0.382038	-0.851668	1.024860
C61	C	-0.353451	-0.878252	0.694592
C62	C	-0.356582	-0.875332	0.621102
C63	C	-0.266560	-0.959090	0.624972
C64	C	-0.263425	-0.962005	0.698458
C65	C	-0.306874	-0.921589	0.733264
C66	C	-0.344936	-0.886180	0.841449
C67	C	-0.303669	-0.924578	0.808376
C68	C	-0.332123	-0.898113	1.141742
C69	C	-0.335453	-0.895004	1.063534
H70	H	-0.239381	-0.673411	0.409815
N71	N	-0.195725	-0.477477	0.341464
N72	N	-0.195748	-0.535898	0.341453
H73	H	-0.149851	-0.561523	0.347476
H74	H	-0.239354	-0.554706	0.409817
H75	H	-0.409388	-0.660304	0.239260
H76	H	-0.918794	-0.997272	0.423478
H77	H	-0.239303	-0.269779	0.409842
N78	N	-1.059306	-1.000401	0.426827
N79	N	-1.024713	-1.039029	0.468440
H80	H	-1.049774	-1.068162	0.499818
H81	H	-0.394498	-0.840026	0.589614
N82	N	-0.729073	-0.973727	0.398161
N83	N	-0.720985	-1.031687	0.393903
H84	H	-0.746044	-1.060830	0.425271
H85	H	-0.208881	-0.351394	0.339750
N86	N	-0.452969	-0.333925	0.307640
N87	N	-0.493295	-0.337593	0.253204
H88	H	-0.539205	-0.311989	0.247158
H89	H	-0.439802	-0.459979	0.309373
N90	N	-0.580534	-0.979550	0.404491
N91	N	-0.537628	-0.960862	0.451051
H92	H	-0.509685	-0.992074	0.484682
H93	H	-0.239278	-0.151073	0.409843
N94	N	-0.418996	-0.130426	0.229565
N95	N	-0.418977	-0.072005	0.229571
H96	H	-0.452765	-0.045789	0.195663
N97	N	-0.419030	-0.262694	0.229555
N98	N	-0.460856	-0.230249	0.187598
H99	H	-0.494664	-0.251237	0.153683
N100	N	-0.419069	-0.534059	0.229540
N101	N	-0.419053	-0.475637	0.229551
H102	H	-0.452845	-0.449421	0.195646
H103	H	-1.059339	-0.840258	0.254362
N104	N	-0.588567	-0.810459	0.222379
N105	N	-0.522953	-0.813043	0.225179
H106	H	-0.497872	-0.783916	0.193812
H107	H	-0.926021	-0.845496	0.260042
H108	H	-0.729111	-0.813576	0.225717
N109	N	-0.397845	-0.836963	0.730117
N110	N	-0.393554	-0.779008	0.722103
H111	H	-0.424915	-0.749847	0.747190
N112	N	-0.432755	-0.804487	0.911860
N113	N	-0.435550	-0.801884	0.846250
H114	H	-0.469155	-0.770624	0.818341
N115	N	-0.215857	-1.006276	0.737974
N116	N	-0.213064	-1.008878	0.803584
H117	H	-0.179467	-1.040143	0.831493
N118	N	-0.800910	-0.968809	0.392856
N119	N	-0.831944	-1.004868	0.431670
H120	H	-0.804005	-1.036092	0.465289
N121	N	-0.847032	-0.842062	0.256332
N122	N	-0.889941	-0.860771	0.209787
H123	H	-0.917909	-0.829572	0.176160
N124	N	-0.244423	-0.979689	1.068220
N125	N	-0.205639	-1.015771	1.037130
H126	H	-0.172028	-1.047036	1.065020
H127	H	-0.259779	-0.965417	0.926904
N128	N	-0.222185	-1.000367	0.589408
N129	N	-0.224988	-0.997754	0.523797
H130	H	-0.193647	-1.026908	0.498679
H131	H	-0.417414	-0.818757	1.053199
N132	N	-0.256091	-0.968836	0.847893
N133	N	-0.209513	-0.950214	0.890825
H134	H	-0.175909	-0.981470	0.918740
H135	H	-0.382858	-0.850893	0.809950
