data_functionalizedCrystal
_audit_creation_method	'MofGen! by Chris Wilmer'
_symmetry_space_group_name_H-M	'P1'
_symmetry_Int_Tables_number	1
_symmetry_cell_setting	triclinic
loop_
_symmetry_equiv_pos_as_xyz
  x,y,z
_cell_length_a	15.944493
_cell_length_b	10.654550
_cell_length_c	9.730223
_cell_angle_alpha	90.000043
_cell_angle_beta	90.001475
_cell_angle_gamma	96.020013
loop_
_atom_site_label
_atom_site_type_symbol
_atom_site_fract_x
_atom_site_fract_y
_atom_site_fract_z
O1	O	0.117979	-1.666276	-0.114168
O2	O	0.617979	-1.166276	0.385832
O3	O	0.129220	-1.300648	-0.114191
O4	O	0.629220	-0.800648	0.385809
O5	O	0.001379	-1.493485	-0.114190
O6	O	0.501379	-0.993485	0.385810
O7	O	0.245820	-1.473440	-0.114168
O8	O	0.745820	-0.973440	0.385832
O9	O	0.001376	-1.493472	0.114390
O10	O	0.501376	-0.993472	0.614390
O11	O	0.129216	-1.300636	0.114389
O12	O	0.629216	-0.800636	0.614389
O13	O	0.117976	-1.666264	0.114412
O14	O	0.617976	-1.166264	0.614412
Zn15	Zn	0.123595	-1.483448	0.150693
Zn16	Zn	0.623595	-0.983448	0.650693
Zn17	Zn	0.123600	-1.483464	-0.150471
Zn18	Zn	0.623600	-0.983464	0.349529
O19	O	0.245816	-1.473427	0.114411
O20	O	0.745816	-0.973427	0.614411
C21	C	0.128393	-1.253855	0.000096
C22	C	0.628393	-0.753855	0.500096
C23	C	0.125923	-1.114445	0.000086
C24	C	0.625923	-0.614445	0.500086
N25	N	0.123592	-1.483446	0.356229
N26	N	0.623592	-0.983446	0.856229
C27	C	-0.029922	-1.492659	0.000094
C28	C	0.470078	-0.992659	0.500094
C29	C	-0.123185	-1.490203	0.000076
C30	C	0.376815	-0.990203	0.500076
C31	C	-0.358288	-1.603711	0.000110
C32	C	0.141712	-1.103711	0.500110
C33	C	-0.409208	-1.542506	-0.112595
C34	C	0.090792	-1.042506	0.387405
C35	C	-0.293932	-1.485652	0.000093
C36	C	0.206068	-0.985652	0.500093
C37	C	-0.409188	-1.542467	0.112767
C38	C	0.090812	-1.042467	0.612767
C39	C	-0.458867	-1.481264	0.000115
C40	C	0.041133	-0.981264	0.500115
C41	C	-0.343624	-1.424479	-0.112705
C42	C	0.156376	-0.924479	0.387295
C43	C	-0.343601	-1.424457	0.112758
C44	C	0.156399	-0.924457	0.612758
C45	C	-0.394489	-1.363166	0.000025
C46	C	0.105511	-0.863166	0.500025
C47	C	-0.198918	-1.488183	0.000079
C48	C	0.301082	-0.988183	0.500079
C49	C	-0.553879	-1.478724	0.000119
C50	C	-0.053879	-0.978724	0.500119
C51	C	0.277117	-1.474253	0.000124
C52	C	0.777117	-0.974253	0.500124
C53	C	0.370380	-1.476709	0.000133
C54	C	0.870380	-0.976709	0.500133
C55	C	0.118803	-1.713057	0.000123
C56	C	0.618803	-1.213057	0.500123
C57	C	0.121272	-1.852467	0.000123
C58	C	0.621272	-1.352467	0.500123
C59	C	0.201194	-1.033962	0.000096
C60	C	0.701194	-0.533962	0.500096
C61	C	0.198869	-0.902972	0.000120
C62	C	0.698869	-0.402972	0.500120
C63	C	0.045996	-0.932960	0.000117
C64	C	0.545996	-0.432960	0.500117
C65	C	0.048322	-1.063948	0.000103
C66	C	0.548322	-0.563948	0.500103
N67	N	0.123597	-1.483476	-0.356008
N68	N	0.623597	-0.983476	0.143992
C69	C	0.067008	-1.568863	0.428155
C70	C	0.567008	-1.068863	0.928155
C71	C	0.067009	-1.568875	0.572038
C72	C	0.567009	-1.068875	1.072038
C73	C	0.180183	-1.398050	0.572056
C74	C	0.680183	-0.898050	1.072056
C75	C	0.180178	-1.398033	0.428176
C76	C	0.680178	-0.898033	0.928176
H77	H	-0.342071	-1.705403	0.000003
H78	H	0.157929	-1.205403	0.500003
H79	H	0.020932	-1.638427	0.630597
H80	H	0.520932	-1.138427	1.130597
H81	H	0.260161	-0.837447	0.000132
H82	H	0.760161	-0.337447	0.500132
H83	H	0.226256	-1.328510	0.630649
H84	H	0.726256	-0.828510	1.130649
N85	N	0.284892	-1.088417	0.000094
N86	N	0.784892	-0.588417	0.500094
H87	H	0.289265	-1.142104	0.084822
H88	H	0.789265	-0.642104	0.584822
H89	H	0.289219	-1.142022	-0.084704
H90	H	0.789219	-0.642022	0.415296
H91	H	-0.017184	-0.891830	0.000139
H92	H	0.482816	-0.391830	0.500139
H93	H	0.226256	-1.328470	0.369609
H94	H	0.726256	-0.828470	0.869609
H95	H	-0.437864	-1.592369	-0.207874
H96	H	0.062136	-1.092369	0.292126
H97	H	-0.410544	-1.261394	-0.000043
H98	H	0.089456	-0.761394	0.499957
N99	N	-0.032866	-1.150767	0.000108
N100	N	0.467134	-0.650767	0.500108
H101	H	-0.082379	-1.098903	0.000113
H102	H	0.417621	-0.598903	0.500113
H103	H	-0.035233	-1.205766	-0.084631
H104	H	0.464767	-0.705766	0.415369
H105	H	-0.315091	-1.374655	-0.208090
H106	H	0.184909	-0.874655	0.291910
H107	H	-0.314930	-1.374637	0.208040
H108	H	0.185070	-0.874637	0.708040
N109	N	0.005976	-1.660964	0.350535
N110	N	0.505976	-1.160964	0.850535
H111	H	0.016200	-1.750093	0.375554
H112	H	0.516200	-1.250093	0.875554
H113	H	-0.053705	-1.646410	0.375606
H114	H	0.446295	-1.146410	0.875606
N115	N	-0.447130	-1.608522	0.238977
N116	N	0.052870	-1.108522	0.738977
H117	H	-0.434231	-1.699328	0.238874
H118	H	0.065769	-1.199328	0.738874
H119	H	-0.422317	-1.564768	0.324028
H120	H	0.077683	-1.064768	0.824028
