data_functionalizedCrystal
_audit_creation_method	'MofGen! by Chris Wilmer'
_symmetry_space_group_name_H-M	'P1'
_symmetry_Int_Tables_number	1
_symmetry_cell_setting	triclinic
loop_
_symmetry_equiv_pos_as_xyz
  x,y,z
_cell_length_a	8.597340
_cell_length_b	12.837942
_cell_length_c	7.088638
_cell_angle_alpha	83.127811
_cell_angle_beta	88.672147
_cell_angle_gamma	90.035652
loop_
_atom_site_label
_atom_site_type_symbol
_atom_site_fract_x
_atom_site_fract_y
_atom_site_fract_z
O1	O	2.088649	0.167183	-0.185083
O2	O	1.640256	0.174190	-0.111213
O3	O	1.854509	0.019574	-0.146522
O4	O	1.874396	0.321799	-0.149775
O5	O	1.825840	0.040266	-0.459787
O6	O	1.611588	0.194883	-0.424479
O7	O	2.059980	0.187875	-0.498349
Cu8	Cu	1.833167	0.193268	-0.490017
Cu9	Cu	1.867070	0.168797	-0.119545
O10	O	1.845728	0.342491	-0.463040
C11	C	1.568131	0.182631	-0.258325
C12	C	1.395931	0.176940	-0.229956
C13	C	1.833457	-0.008843	-0.302047
C14	C	1.813422	-0.124344	-0.298743
C15	C	2.054282	-0.360206	-0.338384
C16	C	2.035465	-0.468731	-0.335280
C17	C	1.756974	-0.449920	-0.289420
C18	C	1.775791	-0.341396	-0.292523
C19	C	1.924449	-0.296543	-0.317009
C20	C	1.943264	-0.188016	-0.320125
C21	C	1.664776	-0.169208	-0.274252
C22	C	1.645959	-0.277733	-0.271149
C23	C	2.132106	0.179434	-0.351233
C24	C	2.304307	0.185124	-0.379589
C25	C	1.866780	0.370908	-0.307511
C26	C	1.886815	0.486408	-0.310802
N27	N	1.809332	0.210480	-0.750590
N28	N	1.890915	0.151577	0.141026
H29	H	1.342629	0.165579	-0.080129
N30	N	2.002879	0.070735	-0.769219
H31	H	2.054598	0.033399	-0.871361
H32	H	1.944215	0.018149	-0.676516
N33	N	1.374886	0.200162	-0.578048
H34	H	1.492020	0.202229	-0.570873
H35	H	1.336779	0.268317	-0.647502
N36	N	2.214606	-0.311818	-0.364820
H37	H	2.294001	-0.368616	-0.377901
H38	H	2.239111	-0.274866	-0.250978
H39	H	2.064308	-0.151498	-0.340069
N40	N	1.596648	-0.498308	-0.263005
H41	H	1.549675	-0.482976	-0.137390
H42	H	1.604563	-0.576703	-0.264367
N43	N	1.485623	-0.326108	-0.244760
H44	H	1.438637	-0.310775	-0.119152
H45	H	1.493520	-0.404504	-0.246130
N46	N	2.175497	-0.537399	-0.358330
H47	H	2.272520	-0.492513	-0.374311
H48	H	2.163133	-0.575168	-0.474175
H49	H	1.559055	-0.117360	-0.256862
N50	N	1.697371	0.291318	-0.840330
H51	H	1.699084	0.290090	-0.982561
H52	H	1.729285	0.363211	-0.810693
