data_functionalizedCrystal
_audit_creation_method	'MofGen! by Chris Wilmer'
_symmetry_space_group_name_H-M	'P1'
_symmetry_Int_Tables_number	1
_symmetry_cell_setting	triclinic
loop_
_symmetry_equiv_pos_as_xyz
  x,y,z
_cell_length_a	16.109301
_cell_length_b	16.992695
_cell_length_c	14.586319
_cell_angle_alpha	89.995905
_cell_angle_beta	89.999213
_cell_angle_gamma	87.064852
loop_
_atom_site_label
_atom_site_type_symbol
_atom_site_fract_x
_atom_site_fract_y
_atom_site_fract_z
O1	O	1.109856	0.100784	-0.076183
O2	O	0.868631	0.113326	-0.076198
O3	O	0.988277	-0.007087	-0.076183
O4	O	0.990211	0.221197	-0.076198
O5	O	0.988268	-0.007089	0.076298
O6	O	0.868622	0.113324	0.076283
O7	O	1.109847	0.100782	0.076298
Cu8	Cu	0.989234	0.107053	0.090213
Cu9	Cu	0.989244	0.107055	-0.090113
O10	O	0.990202	0.221196	0.076283
C11	C	0.837618	0.112817	0.000041
C12	C	0.745221	0.111294	0.000035
C13	C	0.985784	-0.036300	0.000057
C14	C	0.978361	-0.123343	0.000056
C15	C	0.527480	0.179203	0.000042
C16	C	0.440664	0.177766	0.000048
C17	C	0.451005	0.034899	0.000053
C18	C	0.537819	0.036337	0.000054
C19	C	0.576055	0.108492	0.000043
C20	C	0.402424	0.105616	0.000049
C21	C	0.308294	0.104057	0.000055
C22	C	0.670191	0.110051	0.000039
C23	C	1.049987	-0.173601	0.000062
C24	C	1.043007	-0.255386	0.000052
C25	C	0.964400	-0.286911	0.000045
C26	C	0.892768	-0.236645	0.000037
C27	C	0.899749	-0.154862	0.000039
C28	C	0.935467	-0.530501	0.000030
C29	C	0.928491	-0.612291	0.000030
C30	C	1.078731	-0.631026	0.000045
C31	C	1.085704	-0.549240	0.000053
C32	C	1.014073	-0.498982	0.000040
N33	N	0.957263	-0.370508	0.000038
N34	N	1.021210	-0.415387	0.000040
C35	C	1.140860	0.101291	0.000057
C36	C	1.233257	0.102814	0.000057
C37	C	0.992694	0.250408	0.000041
C38	C	1.000118	0.337451	0.000036
N39	N	0.989232	0.107051	0.217045
N40	N	0.989252	0.107051	-0.216945
C41	C	1.042231	0.053750	0.452058
C42	C	1.042233	0.053748	0.548039
C43	C	0.936247	0.160355	0.548036
C44	C	0.936241	0.160352	0.452056
C45	C	0.989238	0.107051	0.404070
C46	C	0.989246	0.107051	0.596030
C47	C	0.989248	0.107050	0.700098
C48	C	0.989235	0.107051	0.299996
H49	H	0.558608	0.237956	0.000040
H50	H	0.893100	0.203753	0.587116
O51	O	1.162020	-0.518531	-0.000068
C52	C	1.170569	-0.471796	-0.079049
H53	H	1.106397	-0.451403	-0.105381
H54	H	1.204949	-0.507936	-0.134346
C55	C	1.298966	-0.424518	-0.022715
C56	C	1.220149	-0.399466	-0.055051
H57	H	1.329553	-0.379904	-0.007914
H58	H	1.293209	-0.456007	0.030495
H59	H	1.327606	-0.454636	-0.068801
H60	H	1.191508	-0.369358	-0.008961
H61	H	1.225903	-0.367971	-0.108253
H62	H	0.401118	0.235347	0.000048
O63	O	0.852111	-0.642880	-0.000148
C64	C	0.808121	-0.617182	-0.079117
H65	H	0.853999	-0.600174	-0.134304
H66	H	0.765324	-0.563874	-0.061272
C67	C	0.699560	-0.704987	-0.047152
C68	C	0.755908	-0.684104	-0.114937
H69	H	0.667349	-0.746266	-0.069246
H70	H	0.729195	-0.722299	0.006053
H71	H	0.663904	-0.660558	-0.032288
H72	H	0.791570	-0.728529	-0.129792
H73	H	0.726278	-0.666801	-0.168146
H74	H	0.419863	-0.023846	0.000067
O75	O	1.093672	0.001866	0.594553
C76	C	1.074990	-0.075757	0.571123
H77	H	1.042946	-0.075669	0.501438
H78	H	1.032000	-0.100018	0.625147
C79	C	1.195298	-0.128004	0.652274
C80	C	1.155947	-0.127896	0.566682
H81	H	1.245235	-0.160168	0.649538
H82	H	1.207883	-0.075708	0.668063
H83	H	1.159464	-0.148220	0.697285
H84	H	1.191777	-0.107672	0.521676
H85	H	1.143370	-0.180190	0.550886
H86	H	0.877139	-0.489590	0.000020
H87	H	0.893084	0.203757	0.412982
H88	H	1.113997	-0.147941	0.000074
H89	H	0.577371	-0.021248	0.000057
H90	H	1.101332	-0.296304	0.000059
H91	H	1.137048	-0.671954	0.000053
O92	O	1.093569	0.001906	0.405363
C93	C	1.045796	-0.046489	0.349901
H94	H	0.982834	-0.015247	0.335502
H95	H	1.036259	-0.104414	0.386936
C96	C	1.168878	-0.101680	0.276425
C97	C	1.091549	-0.063305	0.258734
H98	H	1.197101	-0.112056	0.220190
H99	H	1.201064	-0.069077	0.313793
H100	H	1.160920	-0.149947	0.307289
H101	H	1.099508	-0.015034	0.227881
H102	H	1.059364	-0.095899	0.221359
H103	H	0.828765	-0.262319	0.000024
H104	H	0.841423	-0.113942	0.000035
