data_functionalizedCrystal
_audit_creation_method	'MofGen! by Chris Wilmer'
_symmetry_space_group_name_H-M	'P1'
_symmetry_Int_Tables_number	1
_symmetry_cell_setting	triclinic
loop_
_symmetry_equiv_pos_as_xyz
  x,y,z
_cell_length_a	15.995300
_cell_length_b	14.519709
_cell_length_c	13.596369
_cell_angle_alpha	90.000208
_cell_angle_beta	89.993087
_cell_angle_gamma	83.575976
loop_
_atom_site_label
_atom_site_type_symbol
_atom_site_fract_x
_atom_site_fract_y
_atom_site_fract_z
O1	O	1.111190	0.118654	-0.081814
O2	O	0.867431	0.133381	-0.081806
O3	O	0.995774	-0.008234	-0.081819
O4	O	0.982848	0.260269	-0.081801
O5	O	0.995761	-0.008241	0.081764
O6	O	0.867419	0.133374	0.081777
O7	O	1.111177	0.118646	0.081769
Zn8	Zn	0.989296	0.126009	0.107745
Zn9	Zn	0.989313	0.126019	-0.107782
O10	O	0.982835	0.260261	0.081782
C11	C	0.836229	0.132777	-0.000014
C12	C	0.743273	0.130976	-0.000012
C13	C	0.573085	0.127650	-0.000020
C14	C	0.525770	0.228484	-0.000010
C15	C	0.429080	0.226644	-0.000384
C16	C	0.405524	0.124377	-0.000026
C17	C	0.446589	0.074354	-0.093259
C18	C	0.543226	0.076906	-0.093335
C19	C	0.543488	0.075405	0.092696
C20	C	0.446544	0.075414	0.093919
C21	C	0.310826	0.122522	-0.000033
C22	C	0.667784	0.129503	-0.000019
C23	C	0.995165	-0.042596	-0.000032
C24	C	0.993360	-0.144974	-0.000045
C25	C	1.142380	0.119251	-0.000025
C26	C	1.235336	0.121051	-0.000034
C27	C	0.983444	0.294624	-0.000007
C28	C	0.985249	0.397001	-0.000001
N29	N	0.989291	0.126002	0.254837
C30	C	0.991895	0.771884	-0.000040
C31	C	0.990049	0.667580	-0.000029
C32	C	0.988572	0.584446	-0.000019
C33	C	0.986726	0.480135	-0.000010
N34	N	0.989325	0.126019	-0.254874
C35	C	0.989312	0.126020	0.656128
C36	C	0.989303	0.126018	0.544477
C37	C	0.989302	0.126011	0.455486
C38	C	0.989292	0.126008	0.343828
H39	H	0.564033	0.108598	0.163384
Cl40	Cl	0.386178	0.287074	-0.104166
Cl41	Cl	0.402935	0.127387	-0.200782
H42	H	0.545444	0.268405	-0.066763
H43	H	0.561604	0.112964	-0.163287
Cl44	Cl	0.592399	-0.039367	0.094088
H45	H	0.400670	0.265950	0.066434
Cl46	Cl	0.554930	0.291296	0.102765
H47	H	0.419253	0.111943	0.162894
H48	H	0.431094	0.000854	0.099819
Cl49	Cl	0.592886	-0.037406	-0.099488
H50	H	0.432377	-0.000789	-0.096469
