data_functionalizedCrystal
_audit_creation_method	'MofGen! by Chris Wilmer'
_symmetry_space_group_name_H-M	'P1'
_symmetry_Int_Tables_number	1
_symmetry_cell_setting	triclinic
loop_
_symmetry_equiv_pos_as_xyz
  x,y,z
_cell_length_a	11.026607
_cell_length_b	9.482900
_cell_length_c	11.792254
_cell_angle_alpha	99.383138
_cell_angle_beta	96.392307
_cell_angle_gamma	78.618164
loop_
_atom_site_label
_atom_site_type_symbol
_atom_site_fract_x
_atom_site_fract_y
_atom_site_fract_z
O1	O	1.594443	0.120909	0.489791
O2	O	1.240778	0.120909	0.435599
O3	O	1.426186	0.120899	0.299227
O4	O	1.409034	0.120919	0.626163
O5	O	1.463916	-0.120896	0.271463
O6	O	1.278507	-0.120885	0.407835
O7	O	1.632172	-0.120886	0.462027
Cu8	Cu	1.458785	-0.142963	0.432396
Cu9	Cu	1.414165	0.142987	0.465230
O10	O	1.446764	-0.120875	0.598399
C11	C	1.214365	0.000012	0.411719
C12	C	1.079454	0.000012	0.381917
C13	C	1.006192	0.000018	0.464208
C14	C	0.866754	0.000018	0.433407
C15	C	1.443971	0.000002	0.242839
C16	C	1.440737	0.000003	0.116185
C17	C	1.658584	0.000015	0.485907
C18	C	1.793494	0.000024	0.515711
N19	N	1.382783	0.344109	0.488315
N20	N	1.490176	-0.344085	0.409303
C21	C	1.449535	0.416304	0.439214
C22	C	1.423415	0.583723	0.458412
C23	C	1.438109	0.000009	0.013327
C24	C	1.434822	0.000022	-0.115710
C25	C	1.428979	0.000025	0.654787
C26	C	1.432211	0.000033	0.781443
H27	H	1.046702	0.000016	0.557462
Br28	Br	1.577031	0.312760	0.345468
Br29	Br	0.799259	-0.000008	0.277962
Br30	Br	0.860992	0.000007	0.671152
Br31	Br	1.011953	-0.000014	0.226477
Br32	Br	1.295934	0.687266	0.552183
H33	H	1.566672	0.593786	0.353055
H34	H	1.306302	0.406243	0.544570
