data_functionalizedCrystal
_audit_creation_method	'MofGen! by Chris Wilmer'
_symmetry_space_group_name_H-M	'P1'
_symmetry_Int_Tables_number	1
_symmetry_cell_setting	triclinic
loop_
_symmetry_equiv_pos_as_xyz
  x,y,z
_cell_length_a	29.839134
_cell_length_b	29.839131
_cell_length_c	18.215398
_cell_angle_alpha	89.971652
_cell_angle_beta	89.970953
_cell_angle_gamma	90.036281
loop_
_atom_site_label
_atom_site_type_symbol
_atom_site_fract_x
_atom_site_fract_y
_atom_site_fract_z
Zn1	Zn	0.686751	-0.178931	-0.416289
Zn2	Zn	1.020084	0.154403	-0.082956
Zn3	Zn	1.353418	0.487736	0.250378
Zn4	Zn	0.686674	-0.254057	-0.293216
Zn5	Zn	1.020007	0.079277	0.040117
Zn6	Zn	1.353341	0.412610	0.373450
Zn7	Zn	0.611624	-0.178935	-0.293216
Zn8	Zn	0.944958	0.154399	0.040118
Zn9	Zn	1.278291	0.487732	0.373451
Zn10	Zn	0.611581	-0.254028	-0.416221
Zn11	Zn	0.944915	0.079306	-0.082887
Zn12	Zn	1.278248	0.412639	0.250446
O13	O	0.649158	-0.216487	-0.354735
O14	O	0.982491	0.116846	-0.021402
O15	O	1.315824	0.450179	0.311931
O16	O	0.749608	-0.188907	-0.399992
O17	O	1.082941	0.144427	-0.066659
O18	O	1.416275	0.477760	0.266675
O19	O	0.676704	-0.244105	-0.190232
O20	O	1.010037	0.089228	0.143101
O21	O	1.343371	0.422561	0.476435
O22	O	0.621640	-0.116067	-0.309570
O23	O	0.954974	0.217266	0.023763
O24	O	1.288307	0.550600	0.357097
O25	O	0.749551	-0.244101	-0.309571
O26	O	1.082885	0.089232	0.023762
O27	O	1.416218	0.422565	0.357096
O28	O	0.676836	-0.116064	-0.399991
O29	O	1.010169	0.217269	-0.066658
O30	O	1.343502	0.550603	0.266675
O31	O	0.621566	-0.188914	-0.190232
O32	O	0.954899	0.144420	0.143102
O33	O	1.288232	0.477753	0.476435
O34	O	0.548752	-0.188886	-0.309504
O35	O	0.882085	0.144448	0.023830
O36	O	1.215418	0.477781	0.357163
O37	O	0.621567	-0.244052	-0.519214
O38	O	0.954901	0.089281	-0.185881
O39	O	1.288234	0.422615	0.147453
O40	O	0.548720	-0.244056	-0.399875
O41	O	0.882053	0.089277	-0.066542
O42	O	1.215387	0.422611	0.266792
O43	O	0.676794	-0.188879	-0.519264
O44	O	1.010127	0.144455	-0.185931
O45	O	1.343461	0.477788	0.147402
O46	O	0.676662	-0.316920	-0.309505
O47	O	1.009996	0.016413	0.023828
O48	O	1.343329	0.349747	0.357162
O49	O	0.621492	-0.316899	-0.399876
O50	O	0.954826	0.016435	-0.066542
O51	O	1.288159	0.349768	0.266791
C52	C	0.532435	-0.216468	-0.354682
C53	C	0.865768	0.116865	-0.021349
C54	C	1.199102	0.450198	0.311984
C55	C	0.482501	-0.216471	-0.354677
C56	C	0.815834	0.116862	-0.021344
C57	C	1.149167	0.450196	0.311990
C58	C	0.172850	-0.245257	-0.401734
C59	C	0.506184	0.088076	-0.068401
C60	C	0.839517	0.421409	0.264933
C61	C	-0.014823	-0.245270	-0.401767
C62	C	0.318511	0.088063	-0.068433
C63	C	0.651844	0.421397	0.264900
O64	O	-0.039093	-0.269724	-0.441745
O65	O	0.294240	0.063610	-0.108412
O66	O	0.627573	0.396943	0.224922
N67	N	-0.038284	-0.216504	-0.354791
N68	N	0.295049	0.116829	-0.021458
N69	N	0.628382	0.450163	0.311876
C70	C	-0.014825	-0.187731	-0.307807
C71	C	0.318508	0.145603	0.025526
C72	C	0.651842	0.478936	0.358860
O73	O	-0.039087	-0.163261	-0.267857
O74	O	0.294247	0.170073	0.065476
O75	O	0.627580	0.503406	0.398810
C76	C	0.172847	-0.187716	-0.307778
C77	C	0.506181	0.145617	0.025555
C78	C	0.839514	0.478951	0.358888
C79	C	0.196307	-0.216487	-0.354752
C80	C	0.529640	0.116846	-0.021419
C81	C	0.862973	0.450180	0.311915
C82	C	0.196310	-0.274025	-0.448705
C83	C	0.529643	0.059308	-0.115371
C84	C	0.862976	0.392641	0.217962
C85	C	0.243225	-0.274024	-0.448693
C86	C	0.576558	0.059310	-0.115360
C87	C	0.909892	0.392643	0.217974
C88	C	0.266681	-0.245254	-0.401711
C89	C	0.600015	0.088080	-0.068378
C90	C	0.933348	0.421413	0.264956
C91	C	0.243222	-0.216485	-0.354741
C92	C	0.576555	0.116848	-0.021407
C93	C	0.909889	0.450181	0.311926
C94	C	0.196306	-0.158941	-0.260799
C95	C	0.529639	0.174392	0.072535
C96	C	0.862973	0.507726	0.405868
C97	C	0.243227	-0.158939	-0.260797
C98	C	0.576560	0.174394	0.072536
C99	C	0.909894	0.507728	0.405870
C100	C	0.266686	-0.187710	-0.307771
C101	C	0.600020	0.145623	0.025563
C102	C	0.933353	0.478957	0.358896
C103	C	0.313594	-0.187714	-0.307747
C104	C	0.646927	0.145620	0.025586
C105	C	0.980260	0.478953	0.358920
N106	N	0.337055	-0.216480	-0.354723
N107	N	0.670389	0.116854	-0.021390
N108	N	1.003722	0.450187	0.311944
C109	C	0.313599	-0.245250	-0.401705
C110	C	0.646932	0.088084	-0.068372
C111	C	0.980266	0.421417	0.264962
C112	C	-0.113356	-0.187741	-0.307824
C113	C	0.219978	0.145592	0.025509
C114	C	0.553311	0.478926	0.358843
C115	C	-0.160273	-0.187745	-0.307830
C116	C	0.173060	0.145588	0.025503
C117	C	0.506393	0.478922	0.358837
C118	C	-0.160268	-0.245284	-0.401791
C119	C	0.173065	0.088050	-0.068458
C120	C	0.506399	0.421383	0.264875
C121	C	-0.113349	-0.245282	-0.401781
C122	C	0.219984	0.088052	-0.068448
C123	C	0.553317	0.421385	0.264886
C124	C	-0.089894	-0.216507	-0.354800
C125	C	0.243439	0.116826	-0.021467
C126	C	0.576773	0.450160	0.311867
C127	C	0.412125	-0.245244	-0.401677
C128	C	0.745458	0.088089	-0.068344
C129	C	1.078792	0.421423	0.264990
C130	C	0.459045	-0.245241	-0.401659
C131	C	0.792378	0.088092	-0.068326
C132	C	1.125711	0.421426	0.265008
C133	C	0.459035	-0.187701	-0.307701
C134	C	0.792368	0.145632	0.025632
C135	C	1.125702	0.478966	0.358966
C136	C	0.412120	-0.187705	-0.307716
C137	C	0.745453	0.145628	0.025618
C138	C	1.078786	0.478961	0.358951
C139	C	0.388666	-0.216478	-0.354710
C140	C	0.721999	0.116855	-0.021376
C141	C	1.055332	0.450188	0.311957
O142	O	0.337893	-0.163269	-0.267796
O143	O	0.671227	0.170064	0.065537
O144	O	1.004560	0.503398	0.398871
O145	O	0.337869	-0.269709	-0.441660
O146	O	0.671202	0.063624	-0.108327
O147	O	1.004536	0.396958	0.225006
C148	C	0.125935	-0.245259	-0.401746
C149	C	0.459268	0.088074	-0.068412
C150	C	0.792602	0.421408	0.264921
C151	C	0.102476	-0.216491	-0.354775
C152	C	0.435809	0.116843	-0.021442
C153	C	0.769142	0.450176	0.311892
C154	C	0.125932	-0.187721	-0.307793
C155	C	0.459265	0.145613	0.025540
C156	C	0.792598	0.478946	0.358874
C157	C	0.055558	-0.216495	-0.354781
C158	C	0.388891	0.116839	-0.021448
C159	C	0.722224	0.450172	0.311886
C160	C	0.032102	-0.245265	-0.401763
C161	C	0.365435	0.088069	-0.068430
C162	C	0.698768	0.421402	0.264904
C163	C	0.055563	-0.274031	-0.448739
C164	C	0.388897	0.059303	-0.115406
C165	C	0.722230	0.392636	0.217928
C166	C	0.102479	-0.274029	-0.448728
C167	C	0.435812	0.059304	-0.115394
C168	C	0.769145	0.392638	0.217939
C169	C	0.102470	-0.158955	-0.260817
C170	C	0.435803	0.174379	0.072516
C171	C	0.769137	0.507712	0.405849
C172	C	0.055555	-0.158959	-0.260832
C173	C	0.388888	0.174374	0.072501
C174	C	0.722221	0.507708	0.405835
C175	C	0.032098	-0.187729	-0.307814
C176	C	0.365432	0.145604	0.025519
C177	C	0.698765	0.478938	0.358853
C178	C	0.649077	-0.333210	-0.354699
C179	C	0.982410	0.000123	-0.021366
C180	C	1.315743	0.333457	0.311968
C181	C	0.649083	-0.383144	-0.354708
C182	C	0.982416	-0.049811	-0.021375
C183	C	1.315750	0.283522	0.311959
C184	C	0.677937	-0.692786	-0.307748
C185	C	1.011270	-0.359453	0.025585
C186	C	1.344604	-0.026120	0.358918
C187	C	0.677992	-0.880459	-0.307777
C188	C	1.011326	-0.547126	0.025557
C189	C	1.344659	-0.213793	0.358890
O190	O	0.702461	-0.904723	-0.267822
O191	O	1.035794	-0.571389	0.065512
O192	O	1.369127	-0.238056	0.398845
N193	N	0.649251	-0.903929	-0.354791
N194	N	0.982584	-0.570596	-0.021458
N195	N	1.315918	-0.237263	0.311876
C196	C	0.620495	-0.880479	-0.401805
C197	C	0.953829	-0.547145	-0.068471
C198	C	1.287162	-0.213812	0.264862
O199	O	0.596054	-0.904748	-0.441799
O200	O	0.929387	-0.571414	-0.108466
O201	O	1.262720	-0.238081	0.224867
C202	C	0.620443	-0.692806	-0.401779
C203	C	0.953776	-0.359473	-0.068446
C204	C	1.287109	-0.026140	0.264887
C205	C	0.649183	-0.669339	-0.354757
C206	C	0.982516	-0.336005	-0.021424
C207	C	1.315850	-0.002672	0.311910
C208	C	0.706675	-0.669318	-0.260730
C209	C	1.040009	-0.335985	0.072603
C210	C	1.373342	-0.002652	0.405937
C211	C	0.706659	-0.622403	-0.260721
C212	C	1.039993	-0.289070	0.072613
C213	C	1.373326	0.044264	0.405946
C214	C	0.677905	-0.598955	-0.307729
C215	C	1.011239	-0.265622	0.025604
C216	C	1.344572	0.067711	0.358937
C217	C	0.649167	-0.622423	-0.354747
C218	C	0.982500	-0.289090	-0.021414
C219	C	1.315834	0.044244	0.311919
C220	C	0.591690	-0.669356	-0.448796
C221	C	0.925023	-0.336023	-0.115463
C222	C	1.258356	-0.002690	0.217870
C223	C	0.591680	-0.622435	-0.448787
C224	C	0.925013	-0.289102	-0.115454
C225	C	1.258347	0.044231	0.217879
C226	C	0.620420	-0.598967	-0.401765
C227	C	0.953754	-0.265634	-0.068431
C228	C	1.287087	0.067699	0.264902
C229	C	0.620397	-0.552060	-0.401746
C230	C	0.953730	-0.218727	-0.068413
C231	C	1.287064	0.114607	0.264920
N232	N	0.649139	-0.528590	-0.354732
N233	N	0.982472	-0.195257	-0.021399
N234	N	1.315805	0.138077	0.311934
C235	C	0.677893	-0.552038	-0.307724
C236	C	1.011226	-0.218704	0.025610
C237	C	1.344559	0.114629	0.358943
C238	C	0.620525	-0.979009	-0.401814
C239	C	0.953858	-0.645676	-0.068480
C240	C	1.287191	-0.312342	0.264853
C241	C	0.620537	-1.025927	-0.401819
C242	C	0.953871	-0.692594	-0.068486
C243	C	1.287204	-0.359260	0.264847
C244	C	0.678035	-1.025905	-0.307792
C245	C	1.011368	-0.692571	0.025541
C246	C	1.344702	-0.359238	0.358875
C247	C	0.678020	-0.978986	-0.307783
C248	C	1.011353	-0.645652	0.025550
C249	C	1.344686	-0.312319	0.358883
C250	C	0.649266	-0.955539	-0.354800
C251	C	0.982600	-0.622206	-0.021466
C252	C	1.315933	-0.288872	0.311867
C253	C	0.677857	-0.453512	-0.307707
C254	C	1.011190	-0.120178	0.025627
C255	C	1.344524	0.213155	0.358960
C256	C	0.677837	-0.406592	-0.307699
C257	C	1.011170	-0.073259	0.025634
C258	C	1.344504	0.260075	0.358967
C259	C	0.620341	-0.406619	-0.401729
C260	C	0.953675	-0.073285	-0.068396
C261	C	1.287008	0.260048	0.264938
C262	C	0.620359	-0.453534	-0.401734
C263	C	0.953693	-0.120201	-0.068401
C264	C	1.287026	0.213133	0.264933
C265	C	0.649121	-0.476980	-0.354721
C266	C	0.982454	-0.143646	-0.021387
C267	C	1.315787	0.189687	0.311946
O268	O	0.595945	-0.527768	-0.441686
O269	O	0.929278	-0.194434	-0.108353
O270	O	1.262612	0.138899	0.224980
O271	O	0.702338	-0.527760	-0.267747
O272	O	1.035671	-0.194427	0.065587
O273	O	1.369005	0.138906	0.398920
C274	C	0.677953	-0.739702	-0.307758
C275	C	1.011286	-0.406368	0.025576
C276	C	1.344620	-0.073035	0.358909
C277	C	0.649215	-0.763169	-0.354776
C278	C	0.982548	-0.429836	-0.021443
C279	C	1.315881	-0.096503	0.311891
C280	C	0.620460	-0.739722	-0.401785
C281	C	0.953794	-0.406388	-0.068451
C282	C	1.287127	-0.073055	0.264882
C283	C	0.649227	-0.810087	-0.354781
C284	C	0.982560	-0.476754	-0.021448
C285	C	1.315894	-0.143421	0.311885
C286	C	0.677981	-0.833535	-0.307773
C287	C	1.011315	-0.500202	0.025561
C288	C	1.344648	-0.166868	0.358894
C289	C	0.706723	-0.810065	-0.260759
C290	C	1.040056	-0.476732	0.072575
C291	C	1.373390	-0.143398	0.405908
C292	C	0.706707	-0.763149	-0.260749
C293	C	1.040040	-0.429816	0.072584
C294	C	1.373374	-0.096483	0.405918
C295	C	0.591719	-0.763192	-0.448799
C296	C	0.925052	-0.429859	-0.115465
C297	C	1.258386	-0.096525	0.217868
C298	C	0.591737	-0.810107	-0.448804
C299	C	0.925070	-0.476774	-0.115470
C300	C	1.258403	-0.143441	0.217863
C301	C	0.620491	-0.833555	-0.401795
C302	C	0.953824	-0.500222	-0.068462
C303	C	1.287158	-0.166888	0.264872
C304	C	0.766336	-0.216507	-0.354789
C305	C	1.099669	0.116826	-0.021456
C306	C	1.433003	0.450160	0.311877
C307	C	0.816270	-0.216515	-0.354812
C308	C	1.149604	0.116818	-0.021479
C309	C	1.482937	0.450151	0.311855
C310	C	0.649184	-0.216462	-0.546688
C311	C	0.982518	0.116872	-0.213355
C312	C	1.315851	0.450205	0.119978
C313	C	0.649196	-0.216451	-0.628487
C314	C	0.982529	0.116883	-0.295154
C315	C	1.315862	0.450216	0.038179
C316	C	0.649251	-0.099309	-0.354788
C317	C	0.982585	0.234024	-0.021455
C318	C	1.315918	0.567358	0.311878
C319	C	0.649291	-0.049375	-0.354811
C320	C	0.982625	0.283959	-0.021477
C321	C	1.315958	0.617292	0.311856
C322	C	0.677927	-0.245134	-0.893550
C323	C	1.011260	0.088200	-0.560216
C324	C	1.344593	0.421533	-0.226883
C325	C	0.677920	-0.245149	-0.816691
C326	C	1.011253	0.088184	-0.483358
C327	C	1.344587	0.421518	-0.150024
C328	C	0.620499	-0.187681	-0.816674
C329	C	0.953832	0.145652	-0.483340
C330	C	1.287165	0.478986	-0.150007
C331	C	0.620503	-0.187668	-0.893531
C332	C	0.953837	0.145665	-0.560198
C333	C	1.287170	0.478999	-0.226865
C334	C	0.649220	-0.216394	-0.931967
C335	C	0.982553	0.116940	-0.598634
C336	C	1.315887	0.450273	-0.265301
C337	C	0.649208	-0.216422	-0.778251
C338	C	0.982542	0.116911	-0.444918
C339	C	1.315875	0.450244	-0.111584
C340	C	0.649201	-0.216439	-0.694917
C341	C	0.982534	0.116894	-0.361584
C342	C	1.315867	0.450228	-0.028251
C343	C	0.649227	-0.216378	-1.015306
C344	C	0.982561	0.116956	-0.681973
C345	C	1.315894	0.450289	-0.348640
C346	C	0.649157	-0.216481	-0.163529
C347	C	0.982490	0.116853	0.169804
C348	C	1.315824	0.450186	0.503137
C349	C	0.649233	-0.216365	-0.081731
C350	C	0.982566	0.116968	0.251603
C351	C	1.315899	0.450301	0.584936
H352	H	0.262321	-0.297451	-0.486945
H353	H	0.595655	0.035882	-0.153612
H354	H	0.928988	0.369215	0.179721
Cl355	Cl	0.714014	-0.482979	-0.248602
Cl356	Cl	1.047347	-0.149645	0.084731
Cl357	Cl	1.380680	0.183688	0.418065
H358	H	0.568284	-0.688456	-0.487084
H359	H	0.901618	-0.355122	-0.153750
H360	H	1.234951	-0.021789	0.179583
Cl361	Cl	0.742870	-0.839551	-0.201661
Cl362	Cl	1.076203	-0.506218	0.131672
Cl363	Cl	1.409536	-0.172884	0.465005
H364	H	0.701423	-0.959881	-0.269494
H365	H	1.034756	-0.626548	0.063839
H366	H	1.368089	-0.293214	0.397173
H367	H	0.597109	-0.959922	-0.440101
H368	H	0.930442	-0.626588	-0.106768
H369	H	1.263776	-0.293255	0.226566
Cl370	Cl	0.742799	-0.592908	-0.201614
Cl371	Cl	1.076132	-0.259574	0.131719
Cl372	Cl	1.409466	0.073759	0.465052
H373	H	0.036457	-0.297458	-0.486991
H374	H	0.369790	0.035876	-0.153658
H375	H	0.703124	0.369209	0.179675
Cl376	Cl	0.714026	-0.281247	-0.941867
Cl377	Cl	1.047360	0.052086	-0.608533
Cl378	Cl	1.380693	0.385420	-0.275200
Cl379	Cl	0.714009	-0.281282	-0.768398
Cl380	Cl	1.047343	0.052052	-0.435065
Cl381	Cl	1.380676	0.385385	-0.101731
H382	H	0.478143	-0.268672	-0.439911
H383	H	0.811476	0.064662	-0.106578
H384	H	1.144810	0.397995	0.226755
H385	H	0.701448	-1.045004	-0.269516
H386	H	1.034781	-0.711670	0.063817
H387	H	1.368114	-0.378337	0.397151
Cl388	Cl	0.584400	-1.055423	-0.460927
Cl389	Cl	0.917733	-0.722090	-0.127594
Cl390	Cl	1.251066	-0.388757	0.205739
H391	H	0.121575	-0.297457	-0.486979
H392	H	0.454908	0.035876	-0.153645
H393	H	0.788242	0.369210	0.179688
H394	H	0.597119	-0.164293	-0.785370
H395	H	0.930452	0.169040	-0.452036
H396	H	1.263786	0.502374	-0.118703
H397	H	0.597125	-0.164264	-0.924811
H398	H	0.930458	0.169069	-0.591478
H399	H	1.263791	0.502403	-0.258145
H400	H	0.393034	-0.268673	-0.439946
H401	H	0.726368	0.064661	-0.106612
H402	H	1.059701	0.397994	0.226721
H403	H	0.568329	-0.829211	-0.487095
H404	H	0.901662	-0.495878	-0.153761
H405	H	1.234996	-0.162544	0.179572
Cl406	Cl	0.131951	-0.122782	-0.201749
Cl407	Cl	0.465284	0.210551	0.131584
Cl408	Cl	0.798617	0.543885	0.464918
H409	H	0.177217	-0.297454	-0.486967
H410	H	0.510550	0.035880	-0.153634
H411	H	0.843883	0.369213	0.179700
H412	H	0.701241	-0.387486	-0.269405
H413	H	1.034574	-0.054153	0.063928
H414	H	1.367907	0.279181	0.397261
H415	H	0.568304	-0.744105	-0.487080
H416	H	0.901638	-0.410771	-0.153747
H417	H	1.234971	-0.077438	0.179587
Cl418	Cl	0.555531	-0.592962	-0.507898
Cl419	Cl	0.888864	-0.259629	-0.174565
Cl420	Cl	1.222198	0.073705	0.158768
H421	H	-0.094252	-0.268709	-0.440032
H422	H	0.239082	0.064624	-0.106699
H423	H	0.572415	0.397958	0.226634
H424	H	-0.179374	-0.268710	-0.440046
H425	H	0.153959	0.064624	-0.106713
H426	H	0.487293	0.397957	0.226621
Cl427	Cl	0.382627	-0.151543	-0.248651
Cl428	Cl	0.715960	0.181790	0.084683
Cl429	Cl	1.049294	0.515124	0.418016
H430	H	-0.179370	-0.164321	-0.269572
H431	H	0.153963	0.169012	0.063761
H432	H	0.487297	0.502345	0.397095
H433	H	0.036458	-0.135531	-0.222574
H434	H	0.369791	0.197803	0.110760
H435	H	0.703125	0.531136	0.444093
Cl436	Cl	0.584219	-0.483037	-0.460834
Cl437	Cl	0.917552	-0.149704	-0.127500
Cl438	Cl	1.250886	0.183629	0.205833
H439	H	-0.094262	-0.164309	-0.269563
H440	H	0.239071	0.169025	0.063770
H441	H	0.572404	0.502358	0.397104
Cl442	Cl	0.742842	-0.733654	-0.201635
Cl443	Cl	1.076175	-0.400321	0.131698
Cl444	Cl	1.409508	-0.066987	0.465032
Cl445	Cl	0.166826	-0.122766	-0.201747
Cl446	Cl	0.500159	0.210567	0.131586
Cl447	Cl	0.833493	0.543901	0.464919
Cl448	Cl	0.272711	-0.122762	-0.201732
Cl449	Cl	0.606044	0.210571	0.131602
Cl450	Cl	0.939377	0.543904	0.464935
Cl451	Cl	0.742828	-0.698787	-0.201625
Cl452	Cl	1.076162	-0.365454	0.131708
Cl453	Cl	1.409495	-0.032120	0.465041
H454	H	0.596929	-0.387520	-0.440001
H455	H	0.930262	-0.054187	-0.106667
H456	H	1.263595	0.279146	0.226666
Cl457	Cl	0.488532	-0.151534	-0.248642
Cl458	Cl	0.821865	0.181799	0.084691
Cl459	Cl	1.155198	0.515132	0.418025
