data_functionalizedCrystal
_audit_creation_method	'MofGen! by Chris Wilmer'
_symmetry_space_group_name_H-M	'P1'
_symmetry_Int_Tables_number	1
_symmetry_cell_setting	triclinic
loop_
_symmetry_equiv_pos_as_xyz
  x,y,z
_cell_length_a	13.262522
_cell_length_b	11.792254
_cell_length_c	11.804365
_cell_angle_alpha	101.913421
_cell_angle_beta	62.659257
_cell_angle_gamma	84.319692
loop_
_atom_site_label
_atom_site_type_symbol
_atom_site_fract_x
_atom_site_fract_y
_atom_site_fract_z
O1	O	1.519341	0.016673	-0.591076
O2	O	1.191239	0.057781	-0.484820
O3	O	1.363243	-0.128549	-0.540515
O4	O	1.347338	0.203002	-0.535381
O5	O	1.317961	-0.079541	-0.327797
O6	O	1.145957	0.106788	-0.272102
O7	O	1.474059	0.065680	-0.378357
Cu8	Cu	1.305873	0.090709	-0.305807
Cu9	Cu	1.359425	0.032752	-0.557371
O10	O	1.302055	0.252009	-0.322663
C11	C	1.126594	0.084488	-0.364858
C12	C	1.001434	0.091038	-0.324325
C13	C	0.917956	0.120833	-0.189322
C14	C	0.800361	0.126980	-0.151230
C15	C	0.766231	0.103341	-0.248135
C16	C	0.849709	0.073553	-0.383140
C17	C	0.967316	0.067397	-0.421237
C18	C	0.815592	0.049905	-0.480049
C19	C	0.899069	0.020117	-0.615054
C20	C	1.016665	0.013964	-0.653144
C21	C	1.050794	0.037603	-0.556239
C22	C	0.697984	0.056061	-0.441952
C23	C	0.747345	0.002625	-0.673866
C24	C	0.864940	-0.003521	-0.711959
C25	C	1.339600	-0.146259	-0.433832
C26	C	1.336600	-0.272043	-0.432861
C27	C	1.334164	-0.374195	-0.432077
C28	C	1.331119	-0.502351	-0.431101
C29	C	1.538705	0.038973	-0.498322
C30	C	1.663867	0.032420	-0.538864
C31	C	1.325699	0.269719	-0.429349
C32	C	1.328700	0.395501	-0.430327
N33	N	1.268216	0.131471	-0.128873
N34	N	1.397091	-0.008020	-0.734308
C35	C	1.487519	-0.105927	0.174066
C36	C	1.516005	-0.136768	0.040180
C37	C	1.454060	-0.069711	-0.002090
C38	C	1.363625	0.028193	0.089539
C39	C	1.335142	0.059043	0.223436
C40	C	1.301683	0.095258	0.047280
C41	C	1.211247	0.193163	0.138909
C42	C	1.182768	0.224007	0.272793
C43	C	1.244713	0.156950	0.315063
C44	C	1.330166	0.064408	-0.086616
C45	C	1.177788	0.229378	-0.037246
C46	C	1.149302	0.260220	0.096639
H47	H	0.719559	-0.016622	-0.752775
Cl48	Cl	1.069091	0.347098	0.387981
H49	H	1.403799	-0.015305	-0.161210
Cl50	Cl	0.695425	0.164443	0.018483
H51	H	1.477258	-0.094827	-0.111106
H52	H	1.146547	0.032603	-0.587247
Cl53	Cl	1.629689	-0.259840	-0.075006
H54	H	1.084633	-0.010307	-0.763075
H55	H	1.221517	0.182057	0.424083
H56	H	1.537953	-0.160511	0.208491
Cl57	Cl	1.035615	0.383297	0.211841
Cl58	Cl	0.960870	0.150540	-0.067516
H59	H	1.127349	0.283984	-0.071660
Cl60	Cl	0.593056	0.093507	-0.272238
Cl61	Cl	0.618394	0.111080	-0.200243
H62	H	0.932923	-0.027775	-0.821882
