data_functionalizedCrystal
_audit_creation_method	'MofGen! by Chris Wilmer'
_symmetry_space_group_name_H-M	'P1'
_symmetry_Int_Tables_number	1
_symmetry_cell_setting	triclinic
loop_
_symmetry_equiv_pos_as_xyz
  x,y,z
_cell_length_a	17.699083
_cell_length_b	16.776229
_cell_length_c	17.699104
_cell_angle_alpha	90.007590
_cell_angle_beta	83.287266
_cell_angle_gamma	90.001114
loop_
_atom_site_label
_atom_site_type_symbol
_atom_site_fract_x
_atom_site_fract_y
_atom_site_fract_z
O1	O	1.004086	0.066178	0.095712
O2	O	1.504086	0.566178	0.595712
O3	O	0.783708	0.066204	0.108164
O4	O	1.283708	0.566204	0.608164
O5	O	0.900115	0.066183	-0.008250
O6	O	1.400115	0.566183	0.491750
O7	O	0.887679	0.066199	0.212126
O8	O	1.387679	0.566199	0.712126
O9	O	0.900099	-0.066393	-0.008257
O10	O	1.400099	0.433607	0.491743
O11	O	0.783693	-0.066372	0.108157
O12	O	1.283693	0.433628	0.608157
O13	O	1.004070	-0.066398	0.095705
O14	O	1.504070	0.433602	0.595705
Zn15	Zn	0.893879	-0.087435	0.101930
Zn16	Zn	1.393879	0.412565	0.601930
Zn17	Zn	0.893899	0.087241	0.101939
Zn18	Zn	1.393899	0.587241	0.601939
O19	O	0.887664	-0.066377	0.212119
O20	O	1.387664	0.433623	0.712119
C21	C	0.755503	-0.000081	0.107715
C22	C	1.255503	0.499919	0.607715
C23	C	0.671485	-0.000071	0.106376
C24	C	1.171485	0.499929	0.606376
C25	C	0.622869	-0.000066	0.174709
C26	C	1.122869	0.499934	0.674709
C27	C	0.543926	-0.000076	0.173446
C28	C	1.043926	0.499924	0.673446
C29	C	0.513600	-0.000086	0.103851
C30	C	1.013600	0.499914	0.603851
C31	C	0.562222	-0.000093	0.035513
C32	C	1.062222	0.499907	0.535513
C33	C	0.641164	-0.000088	0.036776
C34	C	1.141164	0.499912	0.536776
C35	C	0.243859	-0.000113	0.030418
C36	C	0.743859	0.499887	0.530418
C37	C	0.164911	-0.000115	0.029160
C38	C	0.664911	0.499885	0.529160
C39	C	0.146621	-0.000101	0.167088
C40	C	0.646621	0.499899	0.667088
C41	C	0.225563	-0.000097	0.168351
C42	C	0.725563	0.499903	0.668351
C43	C	0.274178	-0.000108	0.100014
C44	C	0.774178	0.499892	0.600014
C45	C	0.359777	-0.000098	0.101383
C46	C	0.859777	0.499902	0.601383
C47	C	0.428002	-0.000090	0.102480
C48	C	0.928002	0.499910	0.602480
N49	N	0.893871	-0.206646	0.101923
N50	N	1.393871	0.293354	0.601923
C51	C	0.945431	-0.248372	0.050396
C52	C	1.445431	0.251628	0.550396
C53	C	0.945435	-0.331824	0.050395
C54	C	1.445435	0.168176	0.550395
C55	C	0.893882	-0.373549	0.101926
C56	C	1.393882	0.126451	0.601926
C57	C	0.842316	-0.331816	0.153456
C58	C	1.342316	0.168184	0.653456
C59	C	0.842309	-0.248366	0.153452
C60	C	1.342309	0.251634	0.653452
C61	C	0.842343	-0.668364	0.153470
C62	C	1.342343	-0.168364	0.653470
C63	C	0.842356	-0.751820	0.153472
C64	C	1.342356	-0.251820	0.653472
C65	C	0.945470	-0.751822	0.050414
C66	C	1.445470	-0.251822	0.550414
C67	C	0.945463	-0.668372	0.050410
C68	C	1.445463	-0.168372	0.550410
C69	C	0.893894	-0.626647	0.101937
C70	C	1.393894	-0.126647	0.601937
C71	C	0.893890	-0.536158	0.101936
C72	C	1.393890	-0.036158	0.601936
C73	C	0.893890	-0.464036	0.101931
C74	C	1.393890	0.035964	0.601931
C75	C	1.032275	-0.000112	0.096155
C76	C	1.532275	0.499888	0.596155
C77	C	1.116293	-0.000116	0.097493
C78	C	1.616293	0.499884	0.597493
C79	C	0.899659	-0.000105	-0.036450
C80	C	1.399659	0.499895	0.463550
C81	C	0.898314	-0.000105	-0.120467
C82	C	1.398314	0.499895	0.379533
N83	N	0.893914	0.206452	0.101940
N84	N	1.393914	0.706452	0.601940
C85	C	0.959058	-0.000090	-0.645338
C86	C	1.459058	0.499910	-0.145338
C87	C	0.960317	-0.000097	-0.566395
C88	C	1.460317	0.499903	-0.066395
C89	C	0.891982	-0.000091	-0.517777
C90	C	1.391982	0.499909	-0.017777
C91	C	0.822383	-0.000085	-0.548107
C92	C	1.322383	0.499915	-0.048107
C93	C	0.821125	-0.000084	-0.627049
C94	C	1.321125	0.499916	-0.127049
C95	C	0.827456	-0.000092	-0.229741
C96	C	1.327456	0.499908	0.270259
C97	C	0.828720	-0.000092	-0.150794
C98	C	1.328720	0.499908	0.349206
C99	C	0.966648	-0.000106	-0.169086
C100	C	1.466648	0.499894	0.330914
C101	C	0.965390	-0.000104	-0.248029
C102	C	1.465390	0.499896	0.251971
C103	C	0.895792	-0.000103	-0.278352
C104	C	1.395792	0.499897	0.221648
C105	C	0.894427	-0.000097	-0.363951
C106	C	1.394427	0.499903	0.136049
C107	C	0.893345	-0.000091	-0.432179
C108	C	1.393345	0.499909	0.067821
C109	C	0.888120	-0.000087	0.240319
C110	C	1.388120	0.499913	0.740319
C111	C	0.889464	-0.000082	0.324337
C112	C	1.389464	0.499918	0.824337
H113	H	0.250249	-0.000085	0.225023
H114	H	0.750249	0.499915	0.725023
N115	N	0.786722	-0.623366	0.209039
N116	N	1.286722	-0.123366	0.709039
H117	H	0.754067	-0.662464	0.241683
H118	H	1.254067	-0.162464	0.741683
H119	H	0.815624	-0.588727	0.242465
H120	H	1.315624	-0.088727	0.742465
N121	N	0.132194	-0.000132	-0.045905
N122	N	0.632194	0.499868	0.454095
H123	H	0.149929	0.049008	-0.075841
H124	H	0.649929	0.549008	0.424159
H125	H	0.149936	-0.049317	-0.075773
H126	H	0.649936	0.450683	0.424227
N127	N	1.035380	-0.000083	-0.533689
N128	N	1.535380	0.499917	-0.033689
H129	H	1.025810	-0.000083	-0.476303
H130	H	1.525810	0.499917	0.023697
H131	H	1.065283	-0.049227	-0.551486
H132	H	1.565283	0.450773	-0.051486
N133	N	0.752393	-0.000102	-0.262441
N134	N	1.252393	0.499898	0.237559
H135	H	0.709297	-0.000099	-0.219662
H136	H	1.209297	0.499901	0.280338
H137	H	0.748861	0.049041	-0.294795
H138	H	1.248861	0.549041	0.205205
N139	N	0.693606	-0.000088	-0.036924
N140	N	1.193606	0.499912	0.463076
H141	H	0.726766	-0.049234	-0.039474
H142	H	1.226766	0.450766	0.460526
H143	H	0.662366	-0.000063	-0.081163
H144	H	1.162366	0.499937	0.418837
N145	N	0.746059	-0.000072	-0.659753
N146	N	1.246059	0.499928	-0.159753
H147	H	0.742466	0.049073	-0.692094
H148	H	1.242466	0.549073	-0.192094
H149	H	0.742503	-0.049252	-0.692065
H150	H	1.242503	0.450748	-0.192065
H151	H	0.647554	-0.000058	0.231382
H152	H	1.147554	0.499942	0.731382
N153	N	1.001055	-0.376827	-0.005174
N154	N	1.501055	0.123173	0.494826
H155	H	0.993237	-0.436024	0.002643
H156	H	1.493237	0.063976	0.502643
H157	H	0.992415	-0.362250	-0.058858
H158	H	1.492415	0.137750	0.441142
N159	N	1.001033	-0.203385	-0.005198
N160	N	1.501033	0.296615	0.494802
H161	H	0.972165	-0.168776	-0.038674
H162	H	1.472165	0.331224	0.461326
H163	H	1.034483	-0.168794	0.023723
H164	H	1.534483	0.331206	0.523723
H165	H	0.107028	-0.000096	0.222732
H166	H	0.607028	0.499904	0.722732
N167	N	0.491489	-0.000161	0.247148
N168	N	0.991489	0.499839	0.747148
H169	H	0.522680	-0.000179	0.291427
H170	H	1.022680	0.499821	0.791427
H171	H	0.458292	0.048954	0.249687
H172	H	0.958292	0.548954	0.749687
N173	N	0.296287	-0.000130	-0.043286
N174	N	0.796287	0.499870	0.456714
H175	H	0.265095	-0.000136	-0.087564
H176	H	0.765095	0.499864	0.412436
H177	H	0.329443	0.049016	-0.045770
H178	H	0.829443	0.549016	0.454230
N179	N	1.001069	-0.623369	-0.005166
N180	N	1.501069	-0.123369	0.494834
H181	H	1.033734	-0.662466	-0.037810
H182	H	1.533734	-0.162466	0.462190
H183	H	0.972152	-0.588755	-0.038590
H184	H	1.472152	-0.088755	0.461410
H185	H	0.537525	-0.000112	-0.021153
H186	H	1.037525	0.499888	0.478847
H187	H	0.987458	-0.785804	0.008455
H188	H	1.487458	-0.285804	0.508455
H189	H	1.021036	-0.000105	-0.287610
H190	H	1.521036	0.499895	0.212390
N191	N	0.748678	-0.000071	-0.495671
N192	N	1.248678	0.499929	0.004329
H193	H	0.704400	-0.000066	-0.526863
H194	H	1.204400	0.499934	-0.026863
H195	H	0.746189	-0.049217	-0.462522
H196	H	1.246189	0.450783	0.037478
N197	N	0.786744	-0.796828	0.209046
N198	N	1.286744	-0.296828	0.709046
H199	H	0.795350	-0.782295	0.262756
H200	H	1.295350	-0.282295	0.762756
H201	H	0.733071	-0.782299	0.200320
H202	H	1.233071	-0.282299	0.700320
N203	N	0.786706	-0.376814	0.209031
N204	N	1.286706	0.123186	0.709031
H205	H	0.794534	-0.436012	0.201217
H206	H	1.294534	0.063988	0.701217
H207	H	0.795347	-0.362215	0.262713
H208	H	1.295347	0.137785	0.762713
N209	N	1.041718	-0.000119	-0.136382
N210	N	1.541718	0.499881	0.363618
H211	H	1.032151	-0.000125	-0.078995
H212	H	1.532151	0.499875	0.421005
H213	H	1.071605	-0.049271	-0.154186
H214	H	1.571605	0.450729	0.345814
H215	H	0.800322	-0.214393	0.195410
H216	H	1.300322	0.285607	0.695410
N217	N	1.032761	-0.000104	-0.697776
N218	N	1.532761	0.499896	-0.197776
H219	H	1.035323	0.049042	-0.730932
H220	H	1.535323	0.549042	-0.230932
H221	H	1.076998	-0.000144	-0.666533
H222	H	1.576998	0.499856	-0.166533
H223	H	0.773070	-0.000088	-0.111210
H224	H	1.273070	0.499912	0.388790
