data_functionalizedCrystal
_audit_creation_method	'MofGen! by Chris Wilmer'
_symmetry_space_group_name_H-M	'P1'
_symmetry_Int_Tables_number	1
_symmetry_cell_setting	triclinic
loop_
_symmetry_equiv_pos_as_xyz
  x,y,z
_cell_length_a	14.971482
_cell_length_b	10.967829
_cell_length_c	14.048226
_cell_angle_alpha	77.865708
_cell_angle_beta	89.994098
_cell_angle_gamma	84.173805
loop_
_atom_site_label
_atom_site_type_symbol
_atom_site_fract_x
_atom_site_fract_y
_atom_site_fract_z
O1	O	1.187825	0.162598	-0.105819
O2	O	1.687825	0.662598	0.394181
O3	O	0.927529	0.182076	-0.109018
O4	O	1.427529	0.682076	0.390982
O5	O	1.063678	-0.009306	-0.077618
O6	O	1.563678	0.490694	0.422382
O7	O	1.051675	0.353980	-0.137219
O8	O	1.551675	0.853980	0.362781
O9	O	1.063661	-0.009317	0.080705
O10	O	1.563661	0.490683	0.580705
O11	O	0.927512	0.182065	0.049305
O12	O	1.427512	0.682065	0.549305
O13	O	1.187808	0.162586	0.052505
O14	O	1.687808	0.662586	0.552505
Zn15	Zn	1.057658	0.172324	0.076042
Zn16	Zn	1.557658	0.672324	0.576042
Zn17	Zn	1.057679	0.172339	-0.132556
Zn18	Zn	1.557679	0.672339	0.367444
O19	O	1.051659	0.353968	0.021104
O20	O	1.551659	0.853968	0.521104
C21	C	0.894191	0.181201	-0.029715
C22	C	1.394191	0.681201	0.470285
C23	C	0.794880	0.178593	-0.029288
C24	C	1.294880	0.678593	0.470712
C25	C	0.748220	0.177358	0.057216
C26	C	1.248220	0.677358	0.557216
C27	C	0.654908	0.174888	0.057623
C28	C	1.154908	0.674888	0.557623
C29	C	0.608257	0.173661	-0.028478
C30	C	1.108257	0.673661	0.471522
C31	C	0.654924	0.174891	-0.114989
C32	C	1.154924	0.674891	0.385011
C33	C	0.748235	0.177353	-0.115393
C34	C	1.248235	0.677353	0.384607
C35	C	0.460435	0.169764	-0.114141
C36	C	0.960435	0.669764	0.385859
C37	C	0.367117	0.167305	-0.113738
C38	C	0.867117	0.667305	0.386262
C39	C	0.367107	0.167299	0.058874
C40	C	0.867107	0.667299	0.558874
C41	C	0.460418	0.169760	0.058470
C42	C	0.960418	0.669760	0.558470
C43	C	0.507079	0.170993	-0.028041
C44	C	1.007079	0.670993	0.471959
C45	C	1.062795	-0.055803	0.009169
C46	C	1.562795	0.444197	0.509169
C47	C	1.060179	-0.194332	0.031890
C48	C	1.560179	0.305668	0.531890
C49	C	1.059021	-0.256081	-0.039997
C50	C	1.559021	0.243919	0.460003
C51	C	1.056316	-0.399259	-0.016515
C52	C	1.556316	0.100741	0.483485
C53	C	1.221146	0.163462	-0.026801
C54	C	1.721146	0.663462	0.473199
C55	C	1.320457	0.166070	-0.027234
C56	C	1.820457	0.666070	0.472766
C57	C	1.052542	0.400466	-0.065685
C58	C	1.552542	0.900466	0.434315
C59	C	1.055158	0.538995	-0.088413
C60	C	1.555158	1.038995	0.411587
N61	N	1.057649	0.172313	0.218404
N62	N	1.557649	0.672313	0.718404
N63	N	1.057695	0.172340	-0.274917
N64	N	1.557695	0.672340	0.225083
C65	C	1.117955	0.087604	0.282121
C66	C	1.617955	0.587604	0.782121
C67	C	1.117961	0.087603	0.381779
C68	C	1.617961	0.587603	0.881779
C69	C	1.057665	0.172319	0.417717
C70	C	1.557665	0.672319	0.917717
C71	C	0.997352	0.257032	0.353993
C72	C	1.497352	0.757032	0.853993
C73	C	0.997343	0.257025	0.254338
C74	C	1.497343	0.757025	0.754338
C75	C	0.997378	0.257041	0.561706
C76	C	1.497378	0.757041	1.061706
C77	C	0.997389	0.257049	0.661367
C78	C	1.497389	0.757049	1.161367
C79	C	1.117997	0.087619	0.689146
C80	C	1.617997	0.587619	1.189146
C81	C	1.117987	0.087612	0.589491
C82	C	1.617987	0.587612	1.089491
C83	C	1.057675	0.172327	0.525774
C84	C	1.557675	0.672327	1.025774
H85	H	0.786195	0.178367	0.127328
H86	H	1.286195	0.678367	0.627328
H87	H	1.055300	-0.452386	0.062420
H88	H	1.555300	0.047614	0.562420
Br89	Br	1.060726	-0.167540	-0.171556
Br90	Br	1.560726	0.332460	0.328444
H91	H	1.059162	-0.247465	0.110820
H92	H	1.559162	0.252535	0.610820
Br93	Br	1.056801	-0.372460	-0.219980
Br94	Br	1.556801	0.127540	0.280020
H95	H	0.616923	0.173862	0.128067
H96	H	1.116923	0.673862	0.628067
Br97	Br	0.915520	0.372008	0.475235
Br98	Br	1.415520	0.872008	0.975235
Br99	Br	0.303784	0.165631	0.176281
Br100	Br	0.803784	0.665631	0.676281
H101	H	1.167089	0.018637	0.560231
H102	H	1.667089	0.518637	1.060231
H103	H	0.329137	0.166307	-0.183849
H104	H	0.829137	0.666307	0.316151
H105	H	1.167059	0.018624	0.252867
H106	H	1.667059	0.518624	0.752867
Br107	Br	1.199851	-0.027344	0.775621
Br108	Br	1.699851	0.472656	1.275621
H109	H	0.498398	0.170767	0.128579
H110	H	0.998398	0.670767	0.628579
Br111	Br	1.199803	-0.027365	0.468255
Br112	Br	1.699803	0.472635	0.968255
H113	H	0.948288	0.326032	0.690622
H114	H	1.448288	0.826032	1.190622
H115	H	0.948253	0.326004	0.383260
H116	H	1.448253	0.826004	0.883260
Br117	Br	0.915489	0.371985	0.167866
Br118	Br	1.415489	0.871985	0.667866
H119	H	0.616935	0.173884	-0.185092
H120	H	1.116935	0.673884	0.314908
Br121	Br	0.523760	0.171431	-0.231550
Br122	Br	1.023760	0.671431	0.268450
H123	H	0.786225	0.178361	-0.185834
H124	H	1.286225	0.678361	0.314166
