data_functionalizedCrystal
_audit_creation_method	'MofGen! by Chris Wilmer'
_symmetry_space_group_name_H-M	'P1'
_symmetry_Int_Tables_number	1
_symmetry_cell_setting	triclinic
loop_
_symmetry_equiv_pos_as_xyz
  x,y,z
_cell_length_a	17.019311
_cell_length_b	23.532357
_cell_length_c	16.098538
_cell_angle_alpha	92.699547
_cell_angle_beta	83.390489
_cell_angle_gamma	83.112989
loop_
_atom_site_label
_atom_site_type_symbol
_atom_site_fract_x
_atom_site_fract_y
_atom_site_fract_z
O1	O	1.053521	0.067251	-0.144820
O2	O	0.822933	0.077107	-0.128286
O3	O	0.945200	-0.010750	-0.137036
O4	O	0.931254	0.155107	-0.136070
O5	O	0.938058	-0.005638	0.001988
O6	O	0.815791	0.082219	0.010738
O7	O	1.046379	0.072363	-0.005796
Zn8	Zn	0.929951	0.078103	0.024544
Zn9	Zn	0.939361	0.071367	-0.158626
O10	O	0.924112	0.160220	0.002954
C11	C	0.789867	0.079389	-0.056659
C12	C	0.701982	0.078567	-0.050357
C13	C	0.204724	0.074076	-0.010912
C14	C	0.287301	0.074848	-0.016835
C15	C	0.332484	0.072443	-0.095580
C16	C	0.295084	0.069272	-0.168406
C17	C	0.212507	0.068503	-0.162482
C18	C	0.582006	0.074627	-0.117259
C19	C	0.664588	0.075394	-0.123178
C20	C	0.656799	0.080971	0.028395
C21	C	0.574222	0.080199	0.034312
C22	C	0.536829	0.077031	-0.038514
C23	C	0.416891	0.073231	-0.101637
C24	C	0.452422	0.076247	-0.032457
C25	C	0.941280	-0.029410	-0.067496
C26	C	0.940231	-0.092629	-0.067413
C27	C	0.937541	-0.487433	-0.142768
C28	C	0.936544	-0.546833	-0.142701
O29	O	0.939313	-0.579920	-0.207112
N30	N	0.932157	-0.573758	-0.066885
C31	C	0.928758	-0.541279	0.008870
O32	O	0.924933	-0.569635	0.073364
C33	C	0.929749	-0.481879	0.008803
C34	C	0.934145	-0.454958	-0.067019
C35	C	0.941936	-0.460512	-0.218584
C36	C	0.942934	-0.401116	-0.218650
C37	C	0.939538	-0.368641	-0.142901
C38	C	0.935143	-0.395562	-0.067085
C39	C	0.926344	-0.449400	0.084558
C40	C	0.927335	-0.389997	0.084484
C41	C	0.931731	-0.363076	0.008662
C42	C	0.932745	-0.303692	0.008597
N43	N	0.937132	-0.276767	-0.067219
C44	C	0.940529	-0.309241	-0.142968
C45	C	0.926675	-0.666022	0.009006
C46	C	0.925689	-0.725422	0.009073
C47	C	0.933474	-0.730972	-0.142498
C48	C	0.934466	-0.671572	-0.142566
C49	C	0.931062	-0.639097	-0.066811
C50	C	0.942626	-0.184505	-0.143102
C51	C	0.943627	-0.125104	-0.143162
C52	C	0.935838	-0.119559	0.008409
C53	C	0.934840	-0.178955	0.008470
C54	C	0.938232	-0.211427	-0.067293
O55	O	0.929975	-0.270568	0.072975
O56	O	0.944342	-0.280877	-0.207451
C57	C	1.079445	0.070081	-0.077425
C58	C	1.167330	0.070903	-0.083733
C59	C	0.928032	0.178880	-0.066588
C60	C	0.929081	0.242099	-0.066676
N61	N	0.923534	0.082699	0.149553
N62	N	0.945783	0.066766	-0.283635
C63	C	0.975448	0.045422	0.189422
C64	C	0.970967	0.048643	0.276932
C65	C	0.914575	0.089144	0.324570
C66	C	0.862656	0.126422	0.284694
C67	C	0.867134	0.123198	0.197186
C68	C	0.898342	0.100821	0.588982
C69	C	0.893870	0.104043	0.676495
C70	C	1.002180	0.026263	0.668727
C71	C	1.006656	0.023045	0.581218
C72	C	0.954734	0.060321	0.541350
C73	C	0.909995	0.092438	0.414019
C74	C	0.959311	0.057024	0.451903
H75	H	0.182063	0.065921	-0.221781
Cl76	Cl	0.703811	0.084959	0.119941
Cl77	Cl	0.334306	0.078840	0.074716
Cl78	Cl	0.937737	-0.771808	-0.237727
Cl79	Cl	0.923057	-0.349175	0.179725
Cl80	Cl	0.931568	-0.078722	0.103632
H81	H	0.701374	0.073440	-0.187304
H82	H	0.167941	0.076036	0.053211
H83	H	0.946510	-0.379202	-0.280392
Cl84	Cl	0.535009	0.070640	-0.208813
H85	H	0.922766	-0.471309	0.146300
H86	H	1.044452	-0.004086	0.701196
Cl87	Cl	0.351886	0.066249	-0.267401
H88	H	1.021372	0.012445	0.150641
H89	H	0.537442	0.082145	0.098434
Cl90	Cl	0.791759	0.177335	0.344580
H91	H	0.847946	0.137026	0.715279
H92	H	0.824859	0.153552	0.164726
Cl93	Cl	0.839105	0.143354	0.473910
H94	H	0.856066	0.131174	0.556528
Cl95	Cl	0.929329	-0.212801	0.103788
Cl96	Cl	0.395619	0.079273	0.066533
H97	H	0.453689	0.071271	-0.165751
H98	H	0.947208	-0.103188	-0.204908
Cl99	Cl	1.030199	0.006109	0.392015
H100	H	0.923906	-0.639585	0.070698
H101	H	0.944699	-0.486947	-0.280271
Cl102	Cl	0.946891	-0.225318	-0.238348
Cl103	Cl	0.920178	-0.759259	0.104395
Cl104	Cl	0.939989	-0.637735	-0.237888
Cl105	Cl	1.077550	-0.027870	0.521330
Cl106	Cl	1.036230	0.001780	0.327056
