data_functionalizedCrystal
_audit_creation_method	'MofGen! by Chris Wilmer'
_symmetry_space_group_name_H-M	'P1'
_symmetry_Int_Tables_number	1
_symmetry_cell_setting	triclinic
loop_
_symmetry_equiv_pos_as_xyz
  x,y,z
_cell_length_a	17.699077
_cell_length_b	10.723024
_cell_length_c	16.776229
_cell_angle_alpha	90.006254
_cell_angle_beta	90.000648
_cell_angle_gamma	83.874223
loop_
_atom_site_label
_atom_site_type_symbol
_atom_site_fract_x
_atom_site_fract_y
_atom_site_fract_z
O1	O	1.005070	0.157764	0.066276
O2	O	0.784820	0.178302	0.066279
O3	O	0.900025	-0.013630	0.066274
O4	O	0.889865	0.349696	0.066280
O5	O	0.900023	-0.013647	-0.066302
O6	O	0.784818	0.178285	-0.066297
O7	O	1.005068	0.157747	-0.066301
Zn8	Zn	0.894943	0.168013	-0.087348
Zn9	Zn	0.894945	0.168036	0.087327
O10	O	0.889863	0.349679	-0.066296
C11	C	0.756618	0.177559	-0.000009
C12	C	0.672585	0.175355	-0.000007
C13	C	0.633110	0.174307	-0.072275
C14	C	0.554154	0.172216	-0.072276
C15	C	0.514675	0.171182	-0.000008
C16	C	0.554156	0.172226	0.072266
C17	C	0.633110	0.174308	0.072266
C18	C	0.235739	0.163829	0.072267
C19	C	0.156779	0.161751	0.072262
C20	C	0.156783	0.161737	-0.072275
C21	C	0.235738	0.163819	-0.072275
C22	C	0.275213	0.164856	-0.000002
C23	C	0.360826	0.167121	-0.000001
C24	C	0.429062	0.168927	-0.000007
C25	C	0.899285	-0.060126	-0.000013
C26	C	0.897073	-0.198642	-0.000010
C27	C	0.961535	-0.274732	-0.000010
C28	C	0.959250	-0.417896	-0.000007
C29	C	1.033270	0.158490	-0.000011
C30	C	1.117303	0.160694	-0.000008
C31	C	0.890603	0.396175	-0.000007
C32	C	0.892815	0.534691	-0.000005
N33	N	0.894948	0.168042	0.206538
N34	N	0.894946	0.167997	-0.206560
C35	C	0.946057	0.083221	0.248253
C36	C	0.946060	0.083218	0.331705
C37	C	0.894949	0.168030	0.373441
C38	C	0.843837	0.252860	0.331720
C39	C	0.843839	0.252868	0.248269
C40	C	0.843831	0.252830	0.668267
C41	C	0.843833	0.252813	0.751724
C42	C	0.946053	0.083180	0.751703
C43	C	0.946054	0.083188	0.668252
C44	C	0.894945	0.168021	0.626539
C45	C	0.894944	0.168025	0.536051
C46	C	0.894947	0.168021	0.463928
H47	H	0.522019	0.171342	-0.131124
H48	H	0.802216	0.321902	0.634311
H49	H	0.267870	0.164670	0.131117
H50	H	0.987671	0.014107	0.785675
H51	H	0.124634	0.160887	-0.131124
C52	C	1.033806	-0.506220	-0.000008
N53	N	1.089964	-0.572749	-0.000007
C54	C	0.510725	0.171085	0.151762
N55	N	0.478014	0.170230	0.211640
C56	C	0.787613	0.346175	0.202383
N57	N	0.745263	0.416459	0.167823
C58	C	0.818256	-0.376993	-0.000004
N59	N	0.762099	-0.310464	-0.000001
C60	C	1.038381	-0.219559	-0.000017
N61	N	1.096264	-0.178005	-0.000025
H62	H	0.665248	0.175159	-0.131125
H63	H	0.840192	-0.239487	-0.000004
H64	H	0.802211	0.321882	0.785704
H65	H	0.987674	0.014152	0.214277
C66	C	1.002281	-0.010098	0.377588
N67	N	1.044628	-0.080389	0.412146
C68	C	0.676532	0.175463	0.151767
N69	N	0.709237	0.176330	0.211649
H70	H	0.267878	0.164667	-0.131123
C71	C	0.113353	0.160600	0.151766
N72	N	0.080646	0.159730	0.211646
H73	H	0.987671	0.014122	0.634274
C74	C	0.787615	0.346155	0.377632
N75	N	0.745264	0.416422	0.412213
