data_functionalizedCrystal
_audit_creation_method	'MofGen! by Chris Wilmer'
_symmetry_space_group_name_H-M	'P1'
_symmetry_Int_Tables_number	1
_symmetry_cell_setting	triclinic
loop_
_symmetry_equiv_pos_as_xyz
  x,y,z
_cell_length_a	14.908742
_cell_length_b	14.908178
_cell_length_c	12.759393
_cell_angle_alpha	86.667318
_cell_angle_beta	93.282124
_cell_angle_gamma	90.210560
loop_
_atom_site_label
_atom_site_type_symbol
_atom_site_fract_x
_atom_site_fract_y
_atom_site_fract_z
Zn1	Zn	1.353950	-0.437229	-0.473453
Zn2	Zn	1.345175	-0.587624	-0.288242
Zn3	Zn	1.203588	-0.428604	-0.308490
Zn4	Zn	1.194895	-0.578885	-0.474584
O5	O	1.274402	-0.508086	-0.386192
O6	O	1.478606	-0.464446	-0.439937
O7	O	1.326359	-0.566577	-0.143906
O8	O	1.230843	-0.303914	-0.338373
O9	O	1.472159	-0.574940	-0.303863
O10	O	1.341314	-0.310251	-0.459571
O11	O	1.222335	-0.449746	-0.158782
O12	O	1.076614	-0.441272	-0.339470
O13	O	1.216028	-0.560047	-0.621456
O14	O	1.070228	-0.551683	-0.461498
O15	O	1.332885	-0.455973	-0.620625
O16	O	1.317930	-0.712298	-0.304960
O17	O	1.207520	-0.705878	-0.441864
C18	C	1.040797	-0.494594	-0.402804
C19	C	0.940859	-0.488844	-0.409935
C20	C	0.803347	-0.423313	-0.490921
C21	C	0.897248	-0.428708	-0.484227
C22	C	0.890561	-0.543591	-0.342333
C23	C	0.796660	-0.538196	-0.349027
C24	C	0.753056	-0.478054	-0.423322
C25	C	0.659153	-0.472655	-0.430011
C26	C	0.652468	-0.587542	-0.288122
C27	C	0.746369	-0.592937	-0.281428
C28	C	1.260854	-0.741717	-0.371359
C29	C	1.255141	-0.841670	-0.365042
C30	C	1.359350	-1.035937	-0.479526
C31	C	1.353985	-1.129852	-0.473594
C32	C	1.239041	-1.123417	-0.347254
C33	C	1.244406	-1.029502	-0.353185
C34	C	1.304564	-0.985765	-0.419323
C35	C	1.309933	-0.891849	-0.425248
C36	C	1.194985	-0.885415	-0.298914
C37	C	1.189620	-0.979330	-0.292982
C38	C	1.508919	-0.521630	-0.369516
C39	C	1.608856	-0.527402	-0.362409
C40	C	1.274466	-0.507997	-0.660227
C41	C	1.274493	-0.507960	-0.777005
C42	C	1.288027	-0.273543	-0.401105
C43	C	1.293833	-0.173595	-0.407459
C44	C	1.220352	-0.447117	-0.839618
C45	C	1.220381	-0.447091	-0.949342
C46	C	1.328698	-0.568756	-0.933829
C47	C	1.328664	-0.568784	-0.824107
C48	C	1.157819	-0.376872	-0.848575
C49	C	1.157848	-0.376847	-0.958299
C50	C	1.274394	-0.508111	-0.113224
C51	C	1.274556	-0.507906	0.003550
H52	H	0.611511	-0.632118	-0.233080
H53	H	0.938192	-0.384132	-0.539273
C54	C	1.388235	-0.635698	-0.755231
C55	C	1.388216	-0.635721	-0.634541
C56	C	1.447800	-0.702629	-0.565665
C57	C	1.507403	-0.769514	-0.617479
C58	C	1.507424	-0.769494	-0.738175
C59	C	1.447840	-0.702586	-0.807052
H60	H	1.344092	-0.586207	-0.596180
H61	H	1.447784	-0.702644	-0.476317
H62	H	1.551510	-0.819044	-0.566492
H63	H	1.551548	-0.819008	-0.776537
H64	H	1.447856	-0.702571	-0.896400
H65	H	1.090257	-0.397960	-0.995452
C66	C	1.188531	-0.284216	-1.002736
C67	C	1.282217	-0.248112	-0.969731
C68	C	1.312901	-0.155487	-1.014170
C69	C	1.249899	-0.098966	-1.091614
C70	C	1.156208	-0.135070	-1.124623
C71	C	1.125524	-0.227695	-1.080185
H72	H	1.328859	-0.289953	-0.912399
H73	H	1.382257	-0.128761	-0.989734
H74	H	1.272613	-0.030400	-1.124511
H75	H	1.109565	-0.093229	-1.181956
H76	H	1.056168	-0.254421	-1.104621
C77	C	1.425525	-0.987818	-0.552264
C78	C	1.527010	-1.006541	-0.535705
C79	C	1.593188	-0.958423	-0.608441
C80	C	1.557881	-0.891582	-0.697738
C81	C	1.456391	-0.872855	-0.714302
C82	C	1.390213	-0.920974	-0.641565
H83	H	1.553151	-1.056024	-0.469598
H84	H	1.668317	-0.972286	-0.596179
H85	H	1.606870	-0.855962	-0.751582
H86	H	1.430250	-0.823373	-0.780408
H87	H	1.315084	-0.907111	-0.653827
H88	H	1.150377	-0.844555	-0.249888
C89	C	1.062274	-0.396645	-0.813432
C90	C	1.044808	-0.479507	-0.739615
C91	C	0.949266	-0.499280	-0.704471
C92	C	0.871190	-0.436191	-0.743145
C93	C	0.888653	-0.353323	-0.816967
C94	C	0.984195	-0.333550	-0.852111
H95	H	1.102607	-0.526215	-0.710982
H96	H	0.936339	-0.560625	-0.649823
H97	H	0.800464	-0.450828	-0.717130
H98	H	0.830854	-0.306616	-0.845600
H99	H	0.997122	-0.272206	-0.906759
C100	C	1.388286	-0.635656	-0.985648
C101	C	1.345240	-0.703981	-1.059358
C102	C	1.404830	-0.770882	-1.111176
C103	C	1.507465	-0.769459	-1.089284
C104	C	1.550517	-0.701131	-1.015570
C105	C	1.490927	-0.634230	-0.963752
H106	H	1.269259	-0.705037	-1.075567
H107	H	1.372960	-0.821462	-1.165744
H108	H	1.551577	-0.818983	-1.127642
H109	H	1.626498	-0.700076	-0.999361
H110	H	1.522797	-0.583650	-0.909185
C111	C	1.196693	-0.289463	-0.805879
C112	C	1.152192	-0.198625	-0.840337
C113	C	1.191069	-0.111217	-0.797641
C114	C	1.274446	-0.114647	-0.720488
C115	C	1.318952	-0.205489	-0.686026
C116	C	1.280075	-0.292897	-0.728721
H117	H	1.090467	-0.196082	-0.897454
H118	H	1.158123	-0.043970	-0.823153
H119	H	1.303225	-0.049942	-0.688882
H120	H	1.380677	-0.208031	-0.628908
H121	H	1.313021	-0.360144	-0.703210
H122	H	0.781884	-0.641905	-0.220941
H123	H	1.358918	-0.856239	-0.479097
H124	H	0.623653	-0.423681	-0.490501
H125	H	1.398593	-1.170698	-0.522624
C126	C	0.755373	-0.357153	-0.572630
C127	C	0.688585	-0.392482	-0.657161
C128	C	0.640611	-0.326319	-0.738868
C129	C	0.659426	-0.224827	-0.736044
C130	C	0.726218	-0.189493	-0.651511
C131	C	0.774192	-0.255656	-0.569804
H132	H	0.674654	-0.467617	-0.659254
H133	H	0.591167	-0.352475	-0.801445
H134	H	0.623913	-0.175849	-0.796529
H135	H	0.740149	-0.114358	-0.649418
H136	H	0.823636	-0.229499	-0.507227
H137	H	0.926080	-0.592558	-0.281848
H138	H	1.140639	-1.014954	-0.239138
H139	H	1.190060	-1.159044	-0.293413
