data_functionalizedCrystal
_audit_creation_method	'MofGen! by Chris Wilmer'
_symmetry_space_group_name_H-M	'P1'
_symmetry_Int_Tables_number	1
_symmetry_cell_setting	triclinic
loop_
_symmetry_equiv_pos_as_xyz
  x,y,z
_cell_length_a	17.077402
_cell_length_b	17.077404
_cell_length_c	17.077396
_cell_angle_alpha	89.979055
_cell_angle_beta	90.029784
_cell_angle_gamma	89.983638
loop_
_atom_site_label
_atom_site_type_symbol
_atom_site_fract_x
_atom_site_fract_y
_atom_site_fract_z
Zn1	Zn	-0.312645	-1.200055	0.443866
Zn2	Zn	0.020689	-0.866721	0.777199
Zn3	Zn	0.354022	-0.533388	1.110532
Zn4	Zn	-0.443920	-1.199962	0.312597
Zn5	Zn	-0.110586	-0.866628	0.645930
Zn6	Zn	0.222747	-0.533295	0.979263
Zn7	Zn	-0.312657	-1.068786	0.312610
Zn8	Zn	0.020677	-0.735453	0.645944
Zn9	Zn	0.354010	-0.402120	0.979277
Zn10	Zn	-0.443858	-1.068754	0.443817
Zn11	Zn	-0.110524	-0.735421	0.777150
Zn12	Zn	0.222809	-0.402088	1.110484
O13	O	-0.378270	-1.134389	0.378223
O14	O	-0.044936	-0.801056	0.711556
O15	O	0.288397	-0.467723	1.044889
O16	O	-0.330079	-1.309889	0.426467
O17	O	0.003254	-0.976556	0.759801
O18	O	0.336587	-0.643223	1.093134
O19	O	-0.426538	-1.182536	0.202752
O20	O	-0.093205	-0.849202	0.536085
O21	O	0.240128	-0.515869	0.869418
O22	O	-0.202808	-1.086252	0.330048
O23	O	0.130525	-0.752918	0.663381
O24	O	0.463858	-0.419585	0.996714
O25	O	-0.426527	-1.309821	0.330025
O26	O	-0.093193	-0.976488	0.663358
O27	O	0.240140	-0.643154	0.996691
O28	O	-0.202799	-1.182694	0.426481
O29	O	0.130534	-0.849361	0.759814
O30	O	0.463867	-0.516027	1.093147
O31	O	-0.330100	-1.086162	0.202762
O32	O	0.003233	-0.752828	0.536095
O33	O	0.336567	-0.419495	0.869428
O34	O	-0.330040	-0.958935	0.330001
O35	O	0.003293	-0.625602	0.663334
O36	O	0.336627	-0.292269	0.996667
O37	O	-0.426421	-1.086197	0.553671
O38	O	-0.093087	-0.752864	0.887004
O39	O	0.240246	-0.419530	1.220337
O40	O	-0.426433	-0.958912	0.426398
O41	O	-0.093099	-0.625578	0.759731
O42	O	0.240234	-0.292245	1.093064
O43	O	-0.330019	-1.182663	0.553706
O44	O	0.003314	-0.849330	0.887040
O45	O	0.336647	-0.515996	1.220373
O46	O	-0.553758	-1.182504	0.329977
O47	O	-0.220425	-0.849171	0.663311
O48	O	0.112908	-0.515838	0.996644
O49	O	-0.553713	-1.086107	0.426384
O50	O	-0.220379	-0.752774	0.759718
O51	O	0.112954	-0.419440	1.093051
C52	C	-0.378231	-0.930441	0.378196
C53	C	-0.044898	-0.597108	0.711529
C54	C	0.288435	-0.263775	1.044862
C55	C	-0.378234	-0.843192	0.378203
C56	C	-0.044901	-0.509858	0.711536
C57	C	0.288433	-0.176525	1.044870
C58	C	-0.428551	-0.467386	0.428346
C59	C	-0.095218	-0.134052	0.761680
C60	C	0.238115	0.199281	1.095013
C61	C	-0.428544	-0.549366	0.428336
C62	C	-0.095211	-0.216033	0.761669
C63	C	0.238123	0.117301	1.095003
C64	C	-0.378272	-0.590343	0.378224
C65	C	-0.044939	-0.257009	0.711557
C66	C	0.288394	0.076324	1.044891
C67	C	-0.328011	-0.549335	0.328113
C68	C	0.005323	-0.216001	0.661447
C69	C	0.338656	0.117332	0.994780
C70	C	-0.328023	-0.467356	0.328120
C71	C	0.005311	-0.134022	0.661453
C72	C	0.338644	0.199311	0.994787
C73	C	-0.327988	-0.720205	0.328104
C74	C	0.005346	-0.386871	0.661437
C75	C	0.338679	-0.053538	0.994770
C76	C	-0.327974	-0.802189	0.328098
C77	C	0.005359	-0.468856	0.661431
C78	C	0.338692	-0.135523	0.994764
C79	C	-0.428509	-0.802215	0.428320
C80	C	-0.095176	-0.468882	0.761653
C81	C	0.238158	-0.135548	1.094986
C82	C	-0.428521	-0.720236	0.428327
C83	C	-0.095188	-0.386903	0.761660
C84	C	0.238146	-0.053569	1.094993
C85	C	-0.378258	-0.679234	0.378217
C86	C	-0.044925	-0.345900	0.711550
C87	C	0.288409	-0.012567	1.044883
C88	C	-0.582218	-1.134314	0.378191
C89	C	-0.248884	-0.800980	0.711525
C90	C	0.084449	-0.467647	1.044858
C91	C	-0.669467	-1.134353	0.378204
C92	C	-0.336134	-0.801020	0.711537
C93	C	-0.002801	-0.467686	1.044871
C94	C	-0.710455	-1.184598	0.328059
C95	C	-0.377122	-0.851265	0.661392
C96	C	-0.043788	-0.517932	0.994725
C97	C	-0.792436	-1.184637	0.328079
C98	C	-0.459102	-0.851303	0.661412
C99	C	-0.125769	-0.517970	0.994746
C100	C	-0.833427	-1.134425	0.378241
C101	C	-0.500093	-0.801092	0.711574
C102	C	-0.166760	-0.467758	1.044907
C103	C	-0.792433	-1.084178	0.428391
C104	C	-0.459100	-0.750844	0.761725
C105	C	-0.125766	-0.417511	1.095058
C106	C	-0.710454	-1.084144	0.428375
C107	C	-0.377121	-0.750810	0.761708
C108	C	-0.043788	-0.417477	1.095041
C109	C	-0.963303	-1.084250	0.428421
C110	C	-0.629970	-0.750917	0.761755
C111	C	-0.296636	-0.417584	1.095088
C112	C	-1.045288	-1.084283	0.428437
C113	C	-0.711954	-0.750950	0.761770
C114	C	-0.378621	-0.417616	1.095104
C115	C	-1.045285	-1.184743	0.328125
C116	C	-0.711951	-0.851410	0.661459
C117	C	-0.378618	-0.518077	0.994792
C118	C	-0.963306	-1.184709	0.328109
C119	C	-0.629972	-0.851376	0.661442
C120	C	-0.296639	-0.518043	0.994775
C121	C	-0.922318	-1.134461	0.378259
C122	C	-0.588984	-0.801127	0.711592
C123	C	-0.255651	-0.467794	1.044925
C124	C	-0.173525	-1.134487	0.378271
C125	C	0.159808	-0.801153	0.711604
C126	C	0.493141	-0.467820	1.044938
C127	C	-0.086276	-1.134528	0.378292
C128	C	0.247058	-0.801195	0.711625
C129	C	0.580391	-0.467862	1.044959
C130	C	-0.378212	-1.134437	0.582967
C131	C	-0.044878	-0.801103	0.916300
C132	C	0.288455	-0.467770	1.249634
C133	C	-0.378187	-1.134457	0.670217
C134	C	-0.044854	-0.801124	1.003550
C135	C	0.288479	-0.467790	1.336883
C136	C	-0.378300	-0.339134	0.378245
C137	C	-0.044967	-0.005800	0.711578
C138	C	0.288366	0.327533	1.044911
C139	C	-0.378292	-0.426383	0.378241
C140	C	-0.044959	-0.093050	0.711574
C141	C	0.288375	0.240283	1.044908
C142	C	-0.378271	-1.134387	0.174275
C143	C	-0.044937	-0.801054	0.507608
C144	C	0.288396	-0.467720	0.840941
C145	C	-0.378074	-1.134519	0.087025
C146	C	-0.044741	-0.801186	0.420359
C147	C	0.288593	-0.467852	0.753692
C148	C	-0.327987	-1.184689	0.711227
C149	C	0.005347	-0.851355	1.044560
C150	C	0.338680	-0.518022	1.377893
C151	C	-0.327961	-1.184698	0.793207
C152	C	0.005373	-0.851365	1.126541
C153	C	0.338706	-0.518031	1.459874
C154	C	-0.378139	-1.134479	0.834176
C155	C	-0.044806	-0.801146	1.167510
C156	C	0.288527	-0.467813	1.500843
C157	C	-0.428342	-1.084242	0.793160
C158	C	-0.095009	-0.750909	1.126494
C159	C	0.238325	-0.417576	1.459827
C160	C	-0.428364	-1.084229	0.711181
C161	C	-0.095030	-0.750896	1.044515
C162	C	0.238303	-0.417563	1.377848
C163	C	-0.428295	-1.084274	0.964031
C164	C	-0.094962	-0.750941	1.297364
C165	C	0.238372	-0.417607	1.630697
C166	C	-0.428275	-1.084288	1.046015
C167	C	-0.094941	-0.750954	1.379349
C168	C	0.238392	-0.417621	1.712682
C169	C	-0.327892	-1.184742	1.046056
C170	C	0.005442	-0.851409	1.379390
C171	C	0.338775	-0.518076	1.712723
C172	C	-0.327913	-1.184730	0.964077
C173	C	0.005420	-0.851396	1.297411
C174	C	0.338753	-0.518063	1.630744
C175	C	-0.378117	-1.134493	0.923067
C176	C	-0.044784	-0.801160	1.256401
C177	C	0.288549	-0.467827	1.589734
H178	H	-0.287031	-0.835551	0.287300
H179	H	0.046302	-0.502217	0.620633
H180	H	0.379635	-0.168884	0.953966
H181	H	-0.287128	-1.225585	0.677876
H182	H	0.046206	-0.892252	1.011209
H183	H	0.379539	-0.558918	1.344542
H184	H	-0.287084	-1.225603	0.826594
H185	H	0.046249	-0.892270	1.159927
H186	H	0.379582	-0.558937	1.493261
F187	F	-1.088907	-1.238216	0.274746
F188	F	-0.755574	-0.904883	0.608079
F189	F	-0.422241	-0.571550	0.941412
H190	H	-0.469196	-1.043350	0.826524
H191	H	-0.135862	-0.710017	1.159857
H192	H	0.197471	-0.376684	1.493191
H193	H	-0.469484	-0.434028	0.469158
H194	H	-0.136151	-0.100695	0.802491
H195	H	0.197183	0.232639	1.135825
F196	F	-0.274496	-0.676569	0.274767
F197	F	0.058837	-0.343236	0.608100
F198	F	0.392171	-0.009902	0.941433
H199	H	-0.287013	-1.225645	1.079451
H200	H	0.046321	-0.892312	1.412784
H201	H	0.379654	-0.558979	1.746118
F202	F	-0.836054	-1.238117	0.274710
F203	F	-0.502721	-0.904784	0.608043
F204	F	-0.169388	-0.571450	0.941376
F205	F	-0.481726	-1.030805	0.920386
F206	F	-0.148393	-0.697471	1.253720
F207	F	0.184941	-0.364138	1.587053
H208	H	-0.287082	-0.582705	0.287307
H209	H	0.046251	-0.249371	0.620641
H210	H	0.379584	0.083962	0.953974
H211	H	-0.287058	-1.225626	0.930723
H212	H	0.046276	-0.892293	1.264056
H213	H	0.379609	-0.558960	1.597389
F214	F	-0.481792	-1.030764	0.667536
F215	F	-0.148459	-0.697431	1.000869
F216	F	0.184875	-0.364098	1.334203
H217	H	-0.287094	-0.433973	0.287321
H218	H	0.046239	-0.100639	0.620655
H219	H	0.379572	0.232694	0.953988
H220	H	-0.469472	-0.582746	0.469135
H221	H	-0.136139	-0.249413	0.802468
H222	H	0.197195	0.083920	1.135802
F223	F	-0.666837	-1.238037	0.274664
F224	F	-0.333503	-0.904703	0.607997
F225	F	-0.000170	-0.571370	0.941331
H226	H	-0.469433	-0.835603	0.469123
H227	H	-0.136100	-0.502270	0.802456
H228	H	0.197234	-0.168936	1.135790
F229	F	-0.482021	-0.676627	0.481666
F230	F	-0.148688	-0.343294	0.814999
F231	F	0.184646	-0.009960	1.148333
H232	H	-0.929931	-1.225591	0.287259
H233	H	-0.596597	-0.892258	0.620593
H234	H	-0.263264	-0.558925	0.953926
F235	F	-0.481674	-1.030833	1.089616
F236	F	-0.148341	-0.697499	1.422949
F237	F	0.184993	-0.364166	1.756283
H238	H	-1.078661	-1.043411	0.469298
H239	H	-0.745327	-0.710078	0.802631
H240	H	-0.411994	-0.376744	1.135965
H241	H	-0.929933	-1.043335	0.469261
H242	H	-0.596600	-0.710002	0.802595
H243	H	-0.263267	-0.376668	1.135928
H244	H	-0.825815	-1.043298	0.469238
H245	H	-0.492481	-0.709964	0.802571
H246	H	-0.159148	-0.376631	1.135904
H247	H	-0.677083	-1.043230	0.469209
H248	H	-0.343749	-0.709896	0.802542
H249	H	-0.010416	-0.376563	1.135876
