data_functionalizedCrystal
_audit_creation_method	'MofGen! by Chris Wilmer'
_symmetry_space_group_name_H-M	'P1'
_symmetry_Int_Tables_number	1
_symmetry_cell_setting	triclinic
loop_
_symmetry_equiv_pos_as_xyz
  x,y,z
_cell_length_a	31.640172
_cell_length_b	20.016444
_cell_length_c	31.640172
_cell_angle_alpha	59.998088
_cell_angle_beta	89.999972
_cell_angle_gamma	59.996143
loop_
_atom_site_label
_atom_site_type_symbol
_atom_site_fract_x
_atom_site_fract_y
_atom_site_fract_z
Zr1	Zr	0.407191	0.731199	-0.055489
O2	O	0.339697	0.870595	-0.122977
O3	O	0.427879	0.591818	-0.034800
O4	O	0.427871	0.731207	-0.122979
O5	O	0.339715	0.731194	0.034759
O6	O	0.497427	0.731195	-0.122982
O7	O	0.339705	0.731206	-0.034798
O8	O	0.497442	0.481854	0.034754
O9	O	0.339700	0.980535	-0.122978
O10	O	0.488615	0.649133	-0.025979
O11	O	0.436713	0.649133	0.025932
O12	O	0.436703	0.813245	-0.077888
O13	O	0.384802	0.813245	-0.025976
Zr14	Zr	0.518141	0.731162	0.055441
Zr15	Zr	0.518125	0.731181	-0.055494
Zr16	Zr	0.407207	0.731180	0.055445
Zr17	Zr	0.407197	0.906541	-0.055491
Zr18	Zr	0.518136	0.555820	0.055442
O19	O	0.497454	0.870543	0.034751
O20	O	0.497431	0.870569	-0.122983
O21	O	0.339720	0.870568	0.034758
O22	O	0.585636	0.591766	0.122928
O23	O	0.585613	0.591792	-0.034806
O24	O	0.427902	0.591791	0.122934
O25	O	0.585617	0.731166	-0.034807
O26	O	0.497462	0.731154	0.122930
O27	O	0.427906	0.731165	0.122933
O28	O	0.585627	0.731155	0.034749
O29	O	0.427878	0.980521	-0.122981
O30	O	0.497455	0.481840	0.122932
O31	O	0.585633	0.481825	0.122929
O32	O	0.585620	0.481840	0.034751
O33	O	0.339713	0.980521	-0.034800
O34	O	0.427891	0.980506	-0.034803
O35	O	0.488630	0.649116	0.077839
O36	O	0.540531	0.649116	0.025928
O37	O	0.488620	0.813228	-0.025981
O38	O	0.436718	0.813228	0.025931
C39	C	0.462660	0.511854	-0.000023
C40	C	0.462657	0.437416	-0.000022
C41	C	0.424342	0.326734	-0.038344
C42	C	0.424346	0.256789	-0.038346
C43	C	0.500994	0.135627	0.038297
C44	C	0.500993	0.205571	0.038296
C45	C	0.462664	0.301124	-0.000024
C46	C	0.462669	0.161236	-0.000025
C47	C	0.462673	0.085399	-0.000027
C48	C	0.462660	0.376967	-0.000023
C49	C	0.323905	0.731203	-0.000019
C50	C	0.276810	0.731211	-0.000017
C51	C	-0.015201	0.731170	-0.038342
C52	C	-0.192187	0.731158	-0.038346
O53	O	-0.215065	0.731121	-0.070923
N54	N	-0.214312	0.731153	-0.000028
C55	C	-0.192186	0.731146	0.038297
O56	O	-0.215063	0.731132	0.070892
C57	C	-0.015198	0.731151	0.038302
C58	C	0.006921	0.731165	-0.000022
C59	C	0.006919	0.731183	-0.076663
C60	C	0.051162	0.731191	-0.076663
C61	C	0.073284	0.731186	-0.038343
C62	C	0.051164	0.731173	-0.000022
C63	C	0.006929	0.731136	0.076628
C64	C	0.051180	0.731135	0.076627
C65	C	0.073299	0.731149	0.038303
C66	C	0.117528	0.731176	0.038298
N67	N	0.139653	0.731181	-0.000021
C68	C	0.117531	0.731186	-0.038341
C69	C	-0.285108	0.731145	0.038290
C70	C	-0.329355	0.731145	0.038289
C71	C	-0.329353	0.731156	-0.038354
C72	C	-0.285107	0.731162	-0.038354
C73	C	-0.262983	0.731149	-0.000028
C74	C	0.210443	0.731203	-0.038339
C75	C	0.254688	0.731216	-0.038337
C76	C	0.254683	0.731200	0.038307
C77	C	0.210440	0.731193	0.038303
C78	C	0.188322	0.731191	-0.000022
O79	O	0.140436	0.731202	0.070861
O80	O	0.140422	0.731178	-0.070925
C81	C	-0.059443	0.731162	-0.038342
C82	C	-0.081563	0.731149	-0.000021
C83	C	-0.059441	0.731144	0.038299
C84	C	-0.125811	0.731149	-0.000023
C85	C	-0.147933	0.731154	-0.038344
C86	C	-0.125808	0.731158	-0.076662
C87	C	-0.081565	0.731167	-0.076663
C88	C	-0.081566	0.731139	0.076618
C89	C	-0.125809	0.731132	0.076614
C90	C	-0.147931	0.731137	0.038294
C91	C	0.601428	0.731158	-0.000030
C92	C	0.648523	0.731150	-0.000032
C93	C	0.462646	0.731204	-0.138786
C94	C	0.462640	0.731212	-0.185881
C95	C	0.462673	0.950507	-0.000026
C96	C	0.462675	1.024945	-0.000027
C97	C	0.500995	0.731157	-0.477888
C98	C	0.501007	0.731145	-0.654874
O99	O	0.533610	0.731097	-0.677748
N100	N	0.462687	0.731153	-0.677003
C101	C	0.424363	0.731158	-0.654881
O102	O	0.391773	0.731155	-0.677761
C103	C	0.424355	0.731163	-0.477893
C104	C	0.462674	0.731165	-0.455769
C105	C	0.539312	0.731158	-0.455763
C106	C	0.539307	0.731166	-0.411521
C107	C	0.500985	0.731174	-0.389403
C108	C	0.462669	0.731173	-0.411527
C109	C	0.386034	0.731162	-0.455770
C110	C	0.386036	0.731161	-0.411519
C111	C	0.424355	0.731162	-0.389395
C112	C	0.424343	0.731189	-0.345167
N113	N	0.462662	0.731181	-0.323038
C114	C	0.500984	0.731173	-0.345156
C115	C	0.424370	0.731157	-0.747802
C116	C	0.424372	0.731157	-0.792050
C117	C	0.501016	0.731142	-0.792039
C118	C	0.501012	0.731149	-0.747793
C119	C	0.462690	0.731149	-0.725673
C120	C	0.500970	0.731192	-0.252244
C121	C	0.500961	0.731204	-0.207999
C122	C	0.424319	0.731214	-0.208012
C123	C	0.424327	0.731206	-0.252255
C124	C	0.462657	0.731192	-0.274368
O125	O	0.391760	0.731226	-0.322262
O126	O	0.533576	0.731156	-0.322261
C127	C	0.501000	0.731149	-0.522130
C128	C	0.462684	0.731148	-0.544254
C129	C	0.424362	0.731156	-0.522136
C130	C	0.462685	0.731149	-0.588501
C131	C	0.501007	0.731141	-0.610619
C132	C	0.539326	0.731133	-0.588490
C133	C	0.539321	0.731141	-0.544248
C134	C	0.386042	0.731164	-0.544265
C135	C	0.386050	0.731157	-0.588508
C136	C	0.424371	0.731149	-0.610626
C137	C	0.462686	0.731157	0.138738
C138	C	0.462693	0.731149	0.185832
C139	C	0.601421	0.511831	-0.000028
C140	C	0.648514	0.437386	-0.000030
C141	C	0.462680	0.511830	0.138739
C142	C	0.462684	0.437385	0.185834
C143	C	0.601441	0.511808	0.138734
C144	C	0.648540	0.437355	0.185827
C145	C	0.323891	0.950553	-0.138782
C146	C	0.276792	1.025006	-0.185876
C147	C	0.323911	0.950530	-0.000021
C148	C	0.276819	1.024975	-0.000019
C149	C	0.462653	0.950530	-0.138788
C150	C	0.462648	1.024976	-0.185883
C151	C	0.643529	0.402435	-0.027130
C152	C	0.687773	0.332495	-0.027141
C153	C	0.737001	0.297504	-0.000049
C154	C	0.741985	0.332462	0.027052
C155	C	0.697741	0.402405	0.027060
C156	C	0.489786	0.402416	0.235050
C157	C	0.489789	0.332476	0.279306
C158	C	0.462692	0.297502	0.274344
C159	C	0.435586	0.332478	0.225122
C160	C	0.435581	0.402422	0.180868
C161	C	0.697755	0.402391	0.180845
C162	C	0.742014	0.332444	0.225090
C163	C	0.737057	0.297458	0.274316
C164	C	0.687837	0.332428	0.279297
C165	C	0.643579	0.402379	0.235052
C166	C	0.227577	1.059978	-0.180894
C167	C	0.183319	1.129947	-0.225139
C168	C	0.188276	1.164937	-0.274365
C169	C	0.237496	1.129962	-0.279346
C170	C	0.281754	1.059999	-0.235101
C171	C	0.281804	1.059933	0.027076
C172	C	0.237560	1.129892	0.027076
C173	C	0.188332	1.164886	-0.000018
C174	C	0.183348	1.129925	-0.027117
C175	C	0.227591	1.059972	-0.027119
C176	C	0.489751	1.059927	-0.180905
C177	C	0.489757	1.129868	-0.225151
C178	C	0.462657	1.164859	-0.274376
C179	C	0.435554	1.129901	-0.279353
C180	C	0.435551	1.059957	-0.235107
H181	H	0.272696	0.731229	-0.069547
F182	F	0.591202	0.439578	0.240362
H183	H	0.773023	0.240551	-0.000060
F184	F	0.141168	1.239398	-0.321450
F185	F	0.541783	0.033931	0.079079
H186	H	0.683705	0.304041	-0.049210
H187	H	0.462700	0.240550	0.310382
F188	F	0.242764	1.167209	-0.331740
H189	H	0.413513	0.430884	0.140796
F190	F	0.541783	0.178311	0.079082
H191	H	0.143260	1.158428	-0.049175
H192	H	0.701802	0.430867	0.140767
H193	H	0.511826	1.158323	-0.221088
F194	F	0.794393	0.295235	0.219779
F195	F	0.334131	1.022781	-0.240411
F196	F	0.591140	0.439665	-0.055968
F197	F	0.462663	1.239302	-0.321463
F198	F	0.334192	1.022705	0.055914
H199	H	0.683808	0.303932	0.319383
H200	H	0.413490	1.158402	-0.319438
H201	H	-0.347373	0.731162	-0.069557
H202	H	0.532183	0.731178	-0.270244
F203	F	0.242875	1.167085	0.055921
F204	F	0.406750	0.295246	0.219850
F205	F	0.345250	0.731158	-0.479307
F206	F	0.784165	0.223009	0.321401
H207	H	0.393141	0.277649	-0.069550
H208	H	0.152310	1.221846	-0.000012
H209	H	0.223531	1.031493	-0.140816
H210	H	0.192440	0.731201	-0.069547
H211	H	0.393163	0.731157	-0.729796
H212	H	0.223525	1.031511	-0.049182
H213	H	-0.267099	0.731173	-0.069560
H214	H	0.069170	0.731199	-0.107869
H215	H	0.511818	1.031448	-0.140827
H216	H	0.701807	0.430853	0.049131
F217	F	0.406699	1.022773	-0.240414
H218	H	0.393129	0.404535	-0.069543
F219	F	0.130940	1.167155	-0.219827
H220	H	-0.011088	0.731184	-0.107869
F221	F	0.541800	0.731134	-0.815587
F222	F	-0.352898	0.731148	0.079073
H223	H	0.511863	0.304007	0.319379
H224	H	-0.267098	0.731135	0.069501
F225	F	-0.016604	0.731119	0.117418
H226	H	0.069192	0.731122	0.107838
H227	H	0.570511	0.731163	-0.393509
F228	F	0.278233	0.731198	0.079088
F229	F	-0.058028	0.731181	-0.117452
F230	F	0.186895	0.731193	0.079088
H231	H	-0.143818	0.731128	0.107822
F232	F	-0.058027	0.731134	0.117405
F233	F	0.541746	0.731208	-0.184456
F234	F	-0.149361	0.731168	-0.117447
H235	H	0.511852	0.430884	0.239100
F236	F	0.580102	0.731148	-0.479297
H237	H	0.393164	0.731170	-0.810064
F238	F	0.541796	0.731149	-0.724251
H239	H	0.354830	0.731158	-0.393510
H240	H	0.393119	0.731219	-0.270272
H241	H	0.393117	0.731224	-0.189998
H242	H	0.570525	0.731142	-0.526238
F243	F	0.580109	0.731129	-0.612039
H244	H	0.354842	0.731163	-0.606520
H245	H	0.354837	0.731169	-0.526259
H246	H	0.782072	0.303961	0.049109
