data_functionalizedCrystal
_audit_creation_method	'MofGen! by Chris Wilmer'
_symmetry_space_group_name_H-M	'P1'
_symmetry_Int_Tables_number	1
_symmetry_cell_setting	triclinic
loop_
_symmetry_equiv_pos_as_xyz
  x,y,z
_cell_length_a	12.759401
_cell_length_b	10.686285
_cell_length_c	12.759393
_cell_angle_alpha	94.397013
_cell_angle_beta	90.020938
_cell_angle_gamma	85.633237
loop_
_atom_site_label
_atom_site_type_symbol
_atom_site_fract_x
_atom_site_fract_y
_atom_site_fract_z
Zn1	Zn	1.638400	-0.502237	0.562006
Zn2	Zn	1.651794	-0.713276	0.372873
Zn3	Zn	1.462703	-0.502304	0.386337
Zn4	Zn	1.476188	-0.713187	0.548516
O5	O	1.557272	-0.607751	0.467433
O6	O	1.787199	-0.530240	0.536928
O7	O	1.626673	-0.685355	0.227634
O8	O	1.474761	-0.325719	0.420919
O9	O	1.797039	-0.685290	0.397973
O10	O	1.603845	-0.325669	0.549983
O11	O	1.487749	-0.530355	0.237525
O12	O	1.317471	-0.530269	0.407839
O13	O	1.497744	-0.685139	0.697331
O14	O	1.327378	-0.685204	0.526992
O15	O	1.616921	-0.530155	0.707241
O16	O	1.639748	-0.889840	0.384893
O17	O	1.510731	-0.889775	0.513937
C18	C	1.284303	-0.607735	0.467413
C19	C	1.167528	-0.607759	0.467427
C20	C	1.117860	-0.688557	0.529357
C21	C	1.008136	-0.688562	0.529377
C22	C	0.997758	-0.526968	0.405531
C23	C	1.107479	-0.526957	0.405516
C24	C	0.861137	-0.733838	0.650352
C25	C	0.811467	-0.814656	0.712270
C26	C	0.854944	-0.937798	0.720369
C27	C	0.948090	-0.980148	0.666531
C28	C	0.997756	-0.899338	0.604604
C29	C	0.954279	-0.776178	0.596527
C30	C	1.254481	-0.481694	0.284540
C31	C	1.304149	-0.400888	0.222606
C32	C	1.260674	-0.277744	0.214498
C33	C	1.167524	-0.235398	0.268316
C34	C	1.117857	-0.316204	0.330250
C35	C	1.161339	-0.439347	0.338360
C36	C	1.578185	-0.935592	0.446513
C37	C	1.587228	-1.075844	0.437599
C38	C	1.831306	-0.607767	0.467453
C39	C	1.948083	-0.607774	0.467462
C40	C	1.557342	-0.607630	0.741474
C41	C	1.557373	-0.607578	0.858254
C42	C	1.536305	-0.278630	0.488457
C43	C	1.527370	-0.138378	0.497417
C44	C	1.557256	-0.607780	0.194464
C45	C	1.557406	-0.607477	0.077707
C46	C	1.619432	-0.526865	0.918279
C47	C	1.619446	-0.526810	1.028007
C48	C	1.495340	-0.688194	1.017674
C49	C	1.495320	-0.688241	0.907949
C50	C	1.647533	-0.377935	1.187475
C51	C	1.709610	-0.297233	1.247503
C52	C	1.810885	-0.277884	1.213145
C53	C	1.850105	-0.339255	1.118759
C54	C	1.788034	-0.419967	1.058736
C55	C	1.686743	-0.439292	1.093094
C56	C	1.467244	-0.837117	0.748479
C57	C	1.405179	-0.917836	0.688453
C58	C	1.303903	-0.937199	0.722808
C59	C	1.264688	-0.875849	0.817196
C60	C	1.326754	-0.795130	0.877221
C61	C	1.428028	-0.775766	0.842859
H62	H	1.073593	-0.933818	0.560770
N63	N	1.120619	-0.102581	0.259570
H64	H	1.166218	-0.057816	0.212172
H65	H	1.116546	-0.056233	0.331645
H66	H	0.983476	-1.080428	0.673120
H67	H	0.825736	-0.633562	0.643776
N68	N	1.686362	-0.439872	0.864681
H69	H	1.676943	-0.452155	0.786061
H70	H	1.762646	-0.459528	0.882627
N71	N	0.932986	-0.439856	0.338733
H72	H	0.883742	-0.381446	0.385227
H73	H	0.890787	-0.491190	0.286729
N74	N	1.314232	-0.190579	0.147695
H75	H	1.318568	-0.227930	0.072533
H76	H	1.387431	-0.179292	0.175151
N77	N	1.404617	-0.446557	0.164552
H78	H	1.424630	-0.536828	0.179092
H79	H	1.462637	-0.392292	0.189133
N80	N	1.236967	-1.024260	0.658056
H81	H	1.170316	-0.975793	0.636705
H82	H	1.218635	-1.095102	0.701083
H83	H	1.469206	-1.084620	0.555451
N84	N	1.017391	-0.270536	0.388307
H85	H	0.959298	-0.324709	0.363751
H86	H	0.997475	-0.180251	0.373754
H87	H	1.289894	-0.581965	0.291146
H88	H	1.645389	-1.129609	0.379554
H89	H	1.819969	-0.469939	0.981892
N90	N	1.959345	-0.318396	1.081706
H91	H	1.992714	-0.257951	1.134050
H92	H	1.955048	-0.282014	1.010939
H93	H	1.861427	-0.212173	1.262027
N94	N	1.447476	-0.984024	0.586656
H95	H	1.521051	-0.959507	0.573993
H96	H	1.400657	-0.958771	0.526783
H97	H	1.677667	-0.247264	1.324352
N98	N	0.711015	-0.768974	0.770349
H99	H	0.686147	-0.838859	0.810800
H100	H	0.655417	-0.743030	0.718247
H101	H	1.294816	-0.745177	0.954077
H102	H	1.565064	-0.393672	1.215454
N103	N	1.428397	-0.775172	1.071275
H104	H	1.437821	-0.762892	1.149894
H105	H	1.450468	-0.865307	1.046348
N106	N	1.155457	-0.896732	0.854264
H107	H	1.122089	-0.957173	0.801916
H108	H	1.111502	-0.813792	0.860707
H109	H	1.166749	-0.754348	0.579772
H110	H	0.814494	-1.003600	0.770786
H111	H	1.549709	-0.821350	0.720493
