data_functionalizedCrystal
_audit_creation_method	'MofGen! by Chris Wilmer'
_symmetry_space_group_name_H-M	'P1'
_symmetry_Int_Tables_number	1
_symmetry_cell_setting	triclinic
loop_
_symmetry_equiv_pos_as_xyz
  x,y,z
_cell_length_a	17.699083
_cell_length_b	22.010155
_cell_length_c	23.532357
_cell_angle_alpha	90.001303
_cell_angle_beta	83.055654
_cell_angle_gamma	90.002416
loop_
_atom_site_label
_atom_site_type_symbol
_atom_site_fract_x
_atom_site_fract_y
_atom_site_fract_z
O1	O	1.003699	0.050447	0.072012
O2	O	0.783271	0.050468	0.081382
O3	O	0.900151	0.050445	-0.006217
O4	O	0.886818	0.050471	0.159612
O5	O	0.900130	-0.050606	-0.006204
O6	O	0.783249	-0.050582	0.081396
O7	O	1.003678	-0.050603	0.072025
Cu8	Cu	0.893462	-0.059819	0.076712
Cu9	Cu	0.893487	0.059685	0.076696
O10	O	0.886797	-0.050579	0.159625
C11	C	0.755065	-0.000054	0.081053
C12	C	0.671052	-0.000047	0.080046
N13	N	0.893449	-0.143872	0.076722
C14	C	0.622158	-0.000039	0.131465
C15	C	0.543220	-0.000047	0.130515
C16	C	0.513177	-0.000059	0.078146
C17	C	0.562077	-0.000068	0.026723
C18	C	0.641014	-0.000065	0.027673
C19	C	0.243735	-0.000084	0.022889
C20	C	0.164792	-0.000086	0.021942
C21	C	0.145940	-0.000066	0.125731
C22	C	0.224877	-0.000063	0.126681
C23	C	0.273770	-0.000076	0.075259
C24	C	0.359364	-0.000068	0.076289
C25	C	0.427585	-0.000062	0.077115
C26	C	0.945244	-0.563661	0.037913
C27	C	0.945248	-0.627269	0.037909
O28	O	0.989255	-0.660169	0.004919
N29	N	0.893486	-0.659079	0.076684
C30	C	0.841713	-0.627278	0.115462
O31	O	0.797685	-0.660175	0.148443
C32	C	0.841706	-0.563671	0.115463
C33	C	0.893476	-0.531865	0.076689
C34	C	0.997010	-0.531855	-0.000859
C35	C	0.997007	-0.468252	-0.000854
C36	C	0.945239	-0.436455	0.037922
C37	C	0.893473	-0.468262	0.076694
C38	C	0.789929	-0.531871	0.154238
C39	C	0.789927	-0.468260	0.154235
C40	C	0.841697	-0.436454	0.115461
C41	C	0.841702	-0.372862	0.115475
N42	N	0.893464	-0.341052	0.076699
C43	C	0.945232	-0.372849	0.037923
C44	C	0.841729	-0.760855	0.115457
C45	C	0.841739	-0.824461	0.115460
C46	C	0.945274	-0.824448	0.037905
C47	C	0.945267	-0.760841	0.037906
C48	C	0.893491	-0.729046	0.076682
C49	C	0.945223	-0.239277	0.037936
C50	C	0.945218	-0.175668	0.037946
C51	C	0.841681	-0.175687	0.115498
C52	C	0.841688	-0.239290	0.115491
C53	C	0.893462	-0.271084	0.076705
O54	O	0.797715	-0.339921	0.148446
O55	O	0.989246	-0.339944	0.004942
C56	C	1.031883	-0.000079	0.072355
C57	C	1.115896	-0.000082	0.073362
C58	C	0.899807	-0.000082	-0.027428
C59	C	0.898805	-0.000088	-0.090650
N60	N	0.893505	0.143737	0.076681
C61	C	0.892521	0.055028	-0.482686
C62	C	0.891568	0.055032	-0.542088
O63	O	0.891059	0.101877	-0.572812
N64	N	0.891084	-0.000050	-0.571794
C65	C	0.891545	-0.055139	-0.542093
O66	O	0.891045	-0.101990	-0.572814
C67	C	0.892493	-0.055142	-0.482691
C68	C	0.892985	-0.000057	-0.452990
C69	C	0.893012	0.110109	-0.452984
C70	C	0.893967	0.110105	-0.393586
C71	C	0.894430	0.055020	-0.363890
C72	C	0.893939	-0.000060	-0.393592
C73	C	0.892949	-0.110230	-0.452991
C74	C	0.893896	-0.110228	-0.393586
C75	C	0.894388	-0.055143	-0.363884
C76	C	0.895357	-0.055149	-0.304498
N77	N	0.895842	-0.000067	-0.274792
C78	C	0.895378	0.055018	-0.304489
C79	C	0.889553	-0.055129	-0.666840
C80	C	0.888611	-0.055126	-0.726241
C81	C	0.888633	0.055044	-0.726232
C82	C	0.889581	0.055042	-0.666831
C83	C	0.890038	-0.000047	-0.637135
C84	C	0.897383	0.055005	-0.179749
C85	C	0.898341	0.054997	-0.120346
C86	C	0.898315	-0.055174	-0.120360
C87	C	0.897362	-0.055165	-0.179758
C88	C	0.896893	-0.000071	-0.209451
O89	O	0.895864	-0.101971	-0.273736
O90	O	0.895868	0.101861	-0.273759
C91	C	0.887141	-0.000051	0.180836
C92	C	0.888144	-0.000041	0.244058
H93	H	0.503413	-0.000040	0.172386
C94	C	0.681398	0.051872	-0.060506
C95	C	0.694764	-0.000069	-0.028847
H96	H	0.714585	0.051869	-0.095398
H97	H	0.630094	0.051864	-0.068567
H98	H	0.690463	0.087110	-0.039025
H99	H	0.685694	-0.035307	-0.050327
H100	H	0.746080	-0.000066	-0.020788
H101	H	0.537611	-0.000087	-0.015918
H102	H	0.889980	0.099897	-0.642652
H103	H	0.987425	-0.850348	0.006330
C104	C	0.824691	-0.689332	0.192994
C105	C	0.784823	-0.725907	0.158091
H106	H	0.789558	-0.667758	0.219312
H107	H	0.856034	-0.714145	0.213444
H108	H	0.855509	-0.661283	0.169897
H109	H	0.754008	-0.753960	0.181188
H110	H	0.753466	-0.701093	0.137640
C111	C	1.047565	-0.232858	-0.038721
C112	C	1.002134	-0.274218	-0.004697
H113	H	1.082703	-0.254430	-0.065037
H114	H	1.016217	-0.208052	-0.059173
H115	H	1.074595	-0.208048	-0.015028
H116	H	0.975100	-0.299026	-0.028389
H117	H	1.033486	-0.299035	0.015756
C118	C	0.337511	-0.000031	0.174222
C119	C	0.257900	-0.000039	0.184247
H120	H	0.357895	-0.000011	0.209762
H121	H	0.354318	-0.035273	0.153069
H122	H	0.354309	0.035204	0.153044
H123	H	0.241101	-0.035277	0.205422
H124	H	0.241085	0.035207	0.205409
C125	C	1.099335	-0.474648	-0.077517
C126	C	1.053906	-0.433296	-0.043483
H127	H	1.134459	-0.453069	-0.103840
H128	H	1.126375	-0.499450	-0.053836
H129	H	1.067979	-0.499462	-0.097967
H130	H	1.085262	-0.408484	-0.023031
H131	H	1.026865	-0.408483	-0.067168
C132	C	1.014070	-0.603375	-0.078398
C133	C	1.053922	-0.566798	-0.043486
H134	H	1.049213	-0.624940	-0.104716
H135	H	0.983256	-0.631427	-0.055312
H136	H	0.982724	-0.578560	-0.098852
H137	H	1.085265	-0.591613	-0.023029
H138	H	1.084750	-0.538743	-0.066576
H139	H	0.894365	0.154961	-0.369408
C140	C	1.047604	-0.767232	-0.038752
C141	C	1.002168	-0.725883	-0.004720
H142	H	1.082729	-0.745651	-0.065072
H143	H	1.074642	-0.792034	-0.015069
H144	H	1.016253	-0.792048	-0.059205
H145	H	1.033518	-0.701070	0.015735
H146	H	0.975127	-0.701071	-0.028407
H147	H	0.799591	-0.850353	0.147039
H148	H	0.747773	-0.557759	0.185811
H149	H	0.888253	0.099897	-0.750422
H150	H	0.889928	-0.099991	-0.642666
C151	C	0.687584	-0.474667	0.230894
C152	C	0.733016	-0.433312	0.196863
H153	H	0.652455	-0.453091	0.257213
H154	H	0.660550	-0.499474	0.207209
H155	H	0.718938	-0.499477	0.251346
H156	H	0.701662	-0.408505	0.176408
H157	H	0.760051	-0.408495	0.220552
C158	C	0.739338	-0.182073	0.192157
C159	C	0.784778	-0.140728	0.158121
H160	H	0.704210	-0.160489	0.218470
H161	H	0.712302	-0.206882	0.168475
H162	H	0.770685	-0.206881	0.212616
H163	H	0.753431	-0.115923	0.137658
H164	H	0.811815	-0.115908	0.181806
C165	C	0.888684	-0.164024	-0.720269
C166	C	0.888077	-0.115678	-0.758886
H167	H	0.888347	-0.201406	-0.740421
H168	H	0.933197	-0.161736	-0.701511
H169	H	0.844912	-0.161721	-0.692690
H170	H	0.931853	-0.117978	-0.786463
H171	H	0.843560	-0.117967	-0.777653
C172	C	0.738599	-0.310830	0.127939
C173	C	0.784789	-0.274260	0.158112
H174	H	0.703472	-0.332419	0.154250
H175	H	0.711563	-0.286013	0.104267
H176	H	0.769439	-0.338867	0.104844
H177	H	0.753950	-0.246220	0.181204
H178	H	0.811827	-0.299080	0.181794
H179	H	0.898743	0.099856	-0.096166
H180	H	0.896968	-0.100020	-0.203943
C181	C	0.135236	-0.000040	0.228424
C182	C	0.092195	-0.000057	0.182258
H183	H	0.102055	-0.000028	0.263319
H184	H	0.166414	-0.035275	0.226642
H185	H	0.166419	0.035202	0.226622
H186	H	0.061015	-0.035301	0.184057
H187	H	0.061003	0.035182	0.184040
C188	C	0.826891	0.174053	-0.513279
C189	C	0.892506	0.170666	-0.485620
H190	H	0.826583	0.211443	-0.533421
H191	H	0.826470	0.141260	-0.539476
H192	H	0.783122	0.171763	-0.485696
H193	H	0.936275	0.172951	-0.513203
H194	H	0.892934	0.203468	-0.459420
H195	H	0.892549	-0.155087	-0.477164
C196	C	0.699981	0.051928	0.192744
C197	C	0.655174	-0.000023	0.189033
H198	H	0.720357	0.051938	0.228287
H199	H	0.740398	0.051920	0.162262
H200	H	0.669570	0.087159	0.190208
H201	H	0.685587	-0.035255	0.191565
H202	H	0.614752	-0.000020	0.219524
H203	H	0.896998	0.099869	-0.203917
H204	H	0.987378	-0.149774	0.006371
C205	C	0.893757	-0.219129	-0.399564
C206	C	0.894392	-0.170785	-0.360944
H207	H	0.894065	-0.256512	-0.379412
H208	H	0.849249	-0.216823	-0.418325
H209	H	0.937534	-0.216841	-0.427139
H210	H	0.850611	-0.173070	-0.333371
H211	H	0.938904	-0.173092	-0.342173
C212	C	0.899754	-0.104085	-0.029299
C213	C	0.898820	-0.115721	-0.087709
H214	H	0.900056	-0.141465	-0.009141
H215	H	0.944057	-0.081465	-0.023976
H216	H	0.855772	-0.081440	-0.015166
H217	H	0.942804	-0.138362	-0.101843
H218	H	0.854511	-0.138351	-0.093036
H219	H	0.140335	-0.000096	-0.020706
H220	H	0.283535	-0.000095	-0.018983
