data_functionalizedCrystal
_audit_creation_method	'MofGen! by Chris Wilmer'
_symmetry_space_group_name_H-M	'P1'
_symmetry_Int_Tables_number	1
_symmetry_cell_setting	triclinic
loop_
_symmetry_equiv_pos_as_xyz
  x,y,z
_cell_length_a	23.532407
_cell_length_b	11.792241
_cell_length_c	10.868271
_cell_angle_alpha	89.994719
_cell_angle_beta	90.001021
_cell_angle_gamma	83.521047
loop_
_atom_site_label
_atom_site_type_symbol
_atom_site_fract_x
_atom_site_fract_y
_atom_site_fract_z
O1	O	0.756076	0.137772	-0.102169
O2	O	1.089409	0.471105	0.231164
O3	O	1.422742	0.804438	0.564497
O4	O	0.590331	0.157706	-0.102205
O5	O	0.923664	0.491039	0.231128
O6	O	1.256997	0.824373	0.564461
O7	O	0.677225	-0.017526	-0.102178
O8	O	1.010559	0.315807	0.231155
O9	O	1.343892	0.649140	0.564489
O10	O	0.669181	0.313004	-0.102197
O11	O	1.002514	0.646337	0.231136
O12	O	1.335848	0.979671	0.564470
O13	O	0.677218	-0.017533	0.102467
O14	O	1.010552	0.315800	0.435800
O15	O	1.343885	0.649134	0.769133
O16	O	0.590323	0.157699	0.102439
O17	O	0.923657	0.491033	0.435773
O18	O	1.256990	0.824366	0.769106
O19	O	0.756069	0.137765	0.102475
O20	O	1.089402	0.471098	0.435809
O21	O	1.422735	0.804432	0.769142
Zn22	Zn	0.673195	0.147731	0.134949
Zn23	Zn	1.006528	0.481064	0.468282
Zn24	Zn	1.339862	0.814398	0.801616
Zn25	Zn	0.673204	0.147740	-0.134679
Zn26	Zn	1.006538	0.481073	0.198654
Zn27	Zn	1.339871	0.814406	0.531988
O28	O	0.669174	0.312997	0.102448
O29	O	1.002507	0.646331	0.435781
O30	O	1.335840	0.979664	0.769114
C31	C	0.676716	-0.059809	0.000144
C32	C	1.010050	0.273524	0.333477
C33	C	1.343383	0.606858	0.666811
C34	C	0.675204	-0.185787	0.000142
C35	C	1.008537	0.147546	0.333476
C36	C	1.341871	0.480880	0.666809
C37	C	0.569108	0.157195	0.000112
C38	C	0.902441	0.490528	0.333446
C39	C	1.235775	0.823862	0.666779
C40	C	0.505882	0.155669	0.000099
C41	C	0.839215	0.489002	0.333432
C42	C	1.172549	0.822335	0.666765
C43	C	0.672423	-0.416434	0.000121
C44	C	1.005756	-0.083100	0.333455
C45	C	1.339090	0.250233	0.666788
C46	C	0.673968	-0.288085	0.000133
C47	C	1.007301	0.045248	0.333466
C48	C	1.340635	0.378582	0.666799
C49	C	0.107337	0.249795	0.000149
C50	C	0.440670	0.583128	0.333482
C51	C	0.774003	0.916462	0.666816
C52	C	0.047928	0.248377	0.000157
C53	C	0.381261	0.581710	0.333490
C54	C	0.714595	0.915044	0.666823
O55	O	0.011701	0.335633	0.000196
O56	O	0.345034	0.668966	0.333530
O57	O	0.678367	1.002300	0.666863
N58	N	0.024684	0.144202	0.000161
N59	N	0.358018	0.477535	0.333494
N60	N	0.691351	0.810868	0.666827
C61	C	0.060853	0.041437	0.000169
C62	C	0.394186	0.374770	0.333503
C63	C	0.727520	0.708104	0.666836
O64	O	0.035627	-0.047303	0.000175
O65	O	0.368961	0.286031	0.333508
O66	O	0.702294	0.619364	0.666841
C67	C	0.120260	0.042856	0.000171
C68	C	0.453594	0.376189	0.333504
C69	C	0.786927	0.709523	0.666837
C70	C	0.143501	0.147038	0.000154
C71	C	0.476834	0.480372	0.333488
C72	C	0.810167	0.813705	0.666821
C73	C	0.130577	0.353969	0.000134
C74	C	0.463911	0.687302	0.333467
C75	C	0.797244	1.020635	0.666801
C76	C	0.189982	0.355386	0.000124
C77	C	0.523315	0.688719	0.333457
C78	C	0.856648	1.022053	0.666791
C79	C	0.226146	0.252630	0.000129
C80	C	0.559479	0.585963	0.333463
C81	C	0.892812	0.919296	0.666796
C82	C	0.202905	0.148456	0.000144
C83	C	0.536238	0.481789	0.333478
C84	C	0.869572	0.815122	0.666811
C85	C	0.156428	-0.059907	0.000188
C86	C	0.489761	0.273426	0.333522
C87	C	0.823095	0.606759	0.666855
C88	C	0.215839	-0.058479	0.000190
C89	C	0.549172	0.274854	0.333524
C90	C	0.882506	0.608187	0.666857
C91	C	0.239079	0.045703	0.000174
C92	C	0.572412	0.379036	0.333507
C93	C	0.905746	0.712370	0.666841
C94	C	0.298474	0.047116	0.000140
C95	C	0.631807	0.380450	0.333473
C96	C	0.965140	0.713783	0.666806
N97	N	0.321717	0.151292	0.000136
N98	N	0.655050	0.484625	0.333469
N99	N	0.988384	0.817959	0.666802
C100	C	0.285553	0.254049	0.000130
C101	C	0.618887	0.587382	0.333464
C102	C	0.952220	0.920715	0.666797
C103	C	-0.063907	0.038465	0.000169
C104	C	0.269426	0.371798	0.333502
C105	C	0.602759	0.705132	0.666836
C106	C	-0.123313	0.037045	0.000159
C107	C	0.210020	0.370378	0.333492
C108	C	0.543353	0.703712	0.666826
C109	C	-0.136234	0.243985	0.000149
C110	C	0.197099	0.577319	0.333482
C111	C	0.530432	0.910652	0.666815
C112	C	-0.076827	0.245404	0.000150
C113	C	0.256506	0.578738	0.333483
C114	C	0.589840	0.912071	0.666816
C115	C	-0.040664	0.142641	0.000165
C116	C	0.292670	0.475974	0.333498
C117	C	0.626003	0.809307	0.666832
C118	C	0.410308	0.257017	0.000109
C119	C	0.743641	0.590350	0.333442
C120	C	1.076974	0.923684	0.666775
C121	C	0.469718	0.258425	0.000094
C122	C	0.803051	0.591759	0.333427
C123	C	1.136385	0.925092	0.666760
C124	C	0.482634	0.051485	0.000111
C125	C	0.815967	0.384819	0.333444
C126	C	1.149300	0.718152	0.666777
C127	C	0.423229	0.050077	0.000119
C128	C	0.756562	0.383410	0.333452
C129	C	1.089895	0.716743	0.666786
C130	C	0.387066	0.152852	0.000122
C131	C	0.720400	0.486185	0.333456
C132	C	1.053733	0.819518	0.666789
O133	O	0.334736	-0.040094	0.000105
O134	O	0.668069	0.293240	0.333438
O135	O	1.001403	0.626573	0.666772
O136	O	0.310787	0.342774	0.000141
O137	O	0.644120	0.676107	0.333475
O138	O	0.977454	1.009440	0.666808
C139	C	0.777291	0.138276	0.000155
C140	C	1.110625	0.471609	0.333488
C141	C	1.443958	0.804943	0.666822
C142	C	0.840517	0.139802	0.000160
C143	C	1.173851	0.473135	0.333494
C144	C	1.507184	0.806469	0.666827
C145	C	0.669683	0.355280	0.000123
C146	C	1.003016	0.688613	0.333457
C147	C	1.336349	1.021946	0.666790
C148	C	0.671195	0.481258	0.000117
C149	C	1.004529	0.814591	0.333450
C150	C	1.337862	1.147924	0.666783
N151	N	0.673193	0.147724	0.318963
N152	N	1.006526	0.481058	0.652296
N153	N	1.339859	0.814391	0.985630
N154	N	0.673211	0.147737	-0.318693
N155	N	1.006544	0.481071	0.014640
N156	N	1.339878	0.814404	0.347973
C157	C	0.673201	0.147737	0.569969
C158	C	1.006535	0.481071	0.903302
C159	C	1.339868	0.814404	1.236636
C160	C	0.673195	0.147733	0.430292
C161	C	1.006528	0.481067	0.763625
C162	C	1.339861	0.814400	1.096958
H163	H	0.488636	0.343267	0.000079
H164	H	0.821970	0.676600	0.333413
H165	H	1.155303	1.009933	0.666746
C166	C	0.370537	0.370075	0.000105
C167	C	0.703871	0.703409	0.333438
C168	C	1.037204	1.036742	0.666772
N169	N	0.340583	0.455231	0.000094
N170	N	0.673916	0.788564	0.333427
N171	N	1.007250	1.121897	0.666760
H172	H	0.208898	0.440222	0.000110
H173	H	0.542231	0.773555	0.333444
H174	H	0.875565	1.106889	0.666777
C175	C	-0.148870	-0.077564	0.000169
C176	C	0.184463	0.255770	0.333502
C177	C	0.517796	0.589103	0.666836
N178	N	-0.168117	-0.163891	0.000187
N179	N	0.165216	0.169442	0.333520
N180	N	0.498549	0.502776	0.666853
H181	H	0.137517	-0.144743	0.000203
H182	H	0.470850	0.188590	0.333536
H183	H	0.804183	0.521923	0.666869
H184	H	0.101138	0.437650	0.000134
H185	H	0.434471	0.770984	0.333468
H186	H	0.767804	1.104317	0.666801
C187	C	0.522425	-0.061541	0.000130
C188	C	0.855758	0.271792	0.333464
C189	C	1.189092	0.605126	0.666797
N190	N	0.552398	-0.146673	0.000159
N191	N	0.885731	0.186660	0.333492
N192	N	1.219064	0.519993	0.666826
H193	H	-0.057909	0.330239	0.000143
H194	H	0.275424	0.663572	0.333477
H195	H	0.608757	0.996905	0.666810
C196	C	-0.176026	0.357020	0.000155
C197	C	0.157307	0.690354	0.333489
C198	C	0.490640	1.023687	0.666822
N199	N	-0.205999	0.442153	0.000162
N200	N	0.127334	0.775486	0.333496
N201	N	0.460668	1.108819	0.666829
H202	H	-0.034466	-0.045223	0.000171
H203	H	0.298868	0.288110	0.333504
H204	H	0.632201	0.621444	0.666837
H205	H	0.245281	-0.142164	0.000204
H206	H	0.578614	0.191169	0.333537
H207	H	0.911948	0.524503	0.666870
H208	H	0.404306	-0.034757	0.000114
H209	H	0.737639	0.298576	0.333448
H210	H	1.070972	0.631910	0.666781
