data_functionalizedCrystal
_audit_creation_method	'MofGen! by Chris Wilmer'
_symmetry_space_group_name_H-M	'P1'
_symmetry_Int_Tables_number	1
_symmetry_cell_setting	triclinic
loop_
_symmetry_equiv_pos_as_xyz
  x,y,z
_cell_length_a	16.176319
_cell_length_b	16.109301
_cell_length_c	16.109301
_cell_angle_alpha	96.538519
_cell_angle_beta	89.991001
_cell_angle_gamma	89.998537
loop_
_atom_site_label
_atom_site_type_symbol
_atom_site_fract_x
_atom_site_fract_y
_atom_site_fract_z
O1	O	-0.068697	-1.103128	0.106871
O2	O	0.431303	-0.603128	0.606871
O3	O	-0.068710	-0.861066	0.120170
O4	O	0.431290	-0.361066	0.620170
O5	O	-0.068695	-0.988746	-0.007510
O6	O	0.431305	-0.488746	0.492490
O7	O	-0.068712	-0.975447	0.234552
O8	O	0.431288	-0.475447	0.734552
O9	O	0.068798	-0.988744	-0.007522
O10	O	0.568798	-0.488744	0.492478
O11	O	0.068783	-0.861063	0.120159
O12	O	0.568783	-0.361063	0.620159
O13	O	0.068796	-1.103125	0.106859
O14	O	0.568796	-0.603125	0.606859
Cu15	Cu	0.081344	-0.982094	0.113508
Cu16	Cu	0.581344	-0.482094	0.613508
Cu17	Cu	-0.081258	-0.982097	0.113522
Cu18	Cu	0.418742	-0.482097	0.613522
O19	O	0.068781	-0.975445	0.234540
O20	O	0.568781	-0.475445	0.734540
C21	C	0.000035	-0.830090	0.119626
C22	C	0.500035	-0.330090	0.619626
C23	C	0.000030	-0.737794	0.118011
C24	C	0.500030	-0.237794	0.618011
N25	N	-0.195623	-0.982099	0.113525
N26	N	0.304377	-0.482099	0.613525
C27	C	0.000052	-0.988206	-0.038491
C28	C	0.500052	-0.488206	0.461509
C29	C	0.000053	-0.986591	-0.130786
C30	C	0.500053	-0.486591	0.369214
C31	C	-0.238880	-1.038741	0.057100
C32	C	0.261120	-0.538741	0.557100
C33	C	-0.325428	-1.038745	0.057098
C34	C	0.174572	-0.538745	0.557098
C35	C	-0.368716	-0.982101	0.113518
C36	C	0.131284	-0.482101	0.613518
C37	C	-0.325452	-0.925456	0.169950
C38	C	0.174548	-0.425456	0.669950
C39	C	-0.238907	-0.925458	0.169955
C40	C	0.261093	-0.425458	0.669955
C41	C	-0.674481	-0.925450	0.169931
C42	C	-0.174481	-0.425450	0.669931
C43	C	-0.761032	-0.925451	0.169920
C44	C	-0.261032	-0.425451	0.669920
C45	C	-0.761001	-1.038737	0.057074
C46	C	-0.261001	-0.538737	0.557074
C47	C	-0.674456	-1.038738	0.057079
C48	C	-0.174456	-0.538738	0.557079
C49	C	-0.631200	-0.982097	0.113513
C50	C	-0.131200	-0.482097	0.613513
C51	C	-0.537356	-0.982095	0.113516
C52	C	-0.037356	-0.482095	0.613516
C53	C	-0.462558	-0.982098	0.113513
C54	C	0.037442	-0.482098	0.613513
N55	N	0.195709	-0.982098	0.113498
N56	N	0.695709	-0.482098	0.613498
C57	C	0.000049	-1.134101	0.107404
C58	C	0.500049	-0.634101	0.607404
C59	C	0.000049	-1.226397	0.109019
C60	C	0.500049	-0.726397	0.609019
C61	C	0.000034	-0.515522	0.190018
C62	C	0.500034	-0.015522	0.690018
C63	C	0.000039	-0.428801	0.188494
C64	C	0.500039	0.071199	0.688494
C65	C	0.000047	-0.448676	0.037006
C66	C	0.500047	0.051324	0.537006
C67	C	0.000048	-0.535394	0.038530
C68	C	0.500048	-0.035394	0.538530
C69	C	0.000037	-0.568815	0.115039
C70	C	0.500037	-0.068815	0.615039
C71	C	0.000042	-0.395376	0.111990
C72	C	0.500042	0.104624	0.611990
C73	C	0.000048	-0.301350	0.110337
C74	C	0.500048	0.198650	0.610337
C75	C	0.000033	-0.662847	0.116693
C76	C	0.500033	-0.162847	0.616693
C77	C	0.000044	-1.058599	-0.353059
C78	C	0.500044	-0.558599	0.146941
C79	C	0.000037	-1.057075	-0.439779
C80	C	0.500037	-0.557075	0.060221
C81	C	0.000032	-0.905586	-0.419905
C82	C	0.500032	-0.405586	0.080095
C83	C	0.000033	-0.907111	-0.333186
C84	C	0.500033	-0.407111	0.166814
C85	C	0.000043	-0.983620	-0.299766
C86	C	0.500043	-0.483620	0.200234
C87	C	0.000035	-0.980571	-0.473205
C88	C	0.500035	-0.480571	0.026795
C89	C	0.000028	-0.978918	-0.567231
C90	C	0.500028	-0.478918	-0.067231
C91	C	0.000049	-0.985273	-0.205734
C92	C	0.500049	-0.485273	0.294266
C93	C	0.000032	-0.975984	0.265521
C94	C	0.500032	-0.475984	0.765521
C95	C	0.000025	-0.977600	0.357816
C96	C	0.500025	-0.477600	0.857816
H97	H	-0.203641	-1.084863	0.011153
H98	H	0.296359	-0.584863	0.511153
C99	C	-0.808585	-1.101055	-0.004991
C100	C	-0.308585	-0.601055	0.495009
H101	H	-0.866328	-1.092953	0.003091
H102	H	-0.366328	-0.592953	0.503091
H103	H	-0.794393	-1.092156	-0.060512
H104	H	-0.294393	-0.592156	0.439488
H105	H	-0.794396	-1.156508	0.004174
H106	H	-0.294396	-0.656508	0.504174
C107	C	0.000035	-0.824630	-0.274560
C108	C	0.500035	-0.324630	0.225440
H109	H	0.000040	-0.778846	-0.306882
H110	H	0.500040	-0.278846	0.193118
H111	H	-0.047912	-0.822076	-0.240309
H112	H	0.452088	-0.322076	0.259691
H113	H	0.047988	-0.822080	-0.240327
H114	H	0.547988	-0.322080	0.259673
H115	H	-0.360703	-0.879339	0.215893
H116	H	0.139297	-0.379339	0.715893
H117	H	0.000025	-0.843295	-0.447127
H118	H	0.500025	-0.343295	0.052873
C119	C	-0.373007	-1.101046	-0.004975
C120	C	0.126993	-0.601046	0.495025
H121	H	-0.334831	-1.134773	-0.038583
H122	H	0.165169	-0.634773	0.461417
H123	H	-0.406775	-1.135584	0.025009
H124	H	0.093225	-0.635584	0.525009
H125	H	-0.406760	-1.071214	-0.039660
H126	H	0.093240	-0.571214	0.460340
H127	H	-0.203687	-0.879335	0.215904
H128	H	0.296313	-0.379335	0.715904
H129	H	0.000036	-1.118130	-0.483168
H130	H	0.500036	-0.618130	0.016832
C131	C	0.000049	-0.411914	-0.047149
C132	C	0.500049	0.088086	0.452851
H133	H	0.000057	-0.456076	-0.091586
H134	H	0.500057	0.043924	0.408414
H135	H	-0.047899	-0.378497	-0.050886
H136	H	0.452101	0.121503	0.449114
H137	H	0.048001	-0.378500	-0.050900
H138	H	0.548001	0.121500	0.449100
H139	H	0.000051	-1.120897	-0.325851
H140	H	0.500051	-0.620897	0.174149
C141	C	-0.808648	-0.863147	0.231991
C142	C	-0.308648	-0.363147	0.731991
H143	H	-0.770492	-0.829419	0.265609
H144	H	-0.270492	-0.329419	0.765609
H145	H	-0.842403	-0.828610	0.202002
H146	H	-0.342403	-0.328610	0.702002
H147	H	-0.842416	-0.892982	0.266668
H148	H	-0.342416	-0.392982	0.766668
C149	C	-0.626843	-1.101048	-0.004981
C150	C	-0.126843	-0.601048	0.495019
H151	H	-0.665002	-1.134789	-0.038581
H152	H	-0.165002	-0.634789	0.461419
H153	H	-0.593072	-1.071229	-0.039662
H154	H	-0.093072	-0.571229	0.460338
H155	H	-0.593091	-1.135583	0.025022
H156	H	-0.093091	-0.635583	0.525022
C157	C	-0.626910	-0.863164	0.232022
C158	C	-0.126910	-0.363164	0.732022
H159	H	-0.665088	-0.829431	0.265622
H160	H	-0.165088	-0.329431	0.765622
H161	H	-0.593169	-0.893007	0.266701
H162	H	-0.093169	-0.393007	0.766701
H163	H	-0.593130	-0.828618	0.202052
H164	H	-0.093130	-0.328618	0.702052
C165	C	0.000031	-0.552282	0.274174
C166	C	0.500031	-0.052282	0.774174
H167	H	0.000038	-0.508119	0.318610
H168	H	0.500038	-0.008119	0.818610
H169	H	-0.047915	-0.585697	0.277927
H170	H	0.452085	-0.085697	0.777927
H171	H	0.047985	-0.585699	0.277910
H172	H	0.547985	-0.085699	0.777910
H173	H	0.000039	-0.385413	0.249550
H174	H	0.500039	0.114587	0.749550
C175	C	0.000047	-0.594021	-0.043951
C176	C	0.500047	-0.094021	0.456049
H177	H	0.000041	-0.561698	-0.089735
H178	H	0.500041	-0.061698	0.410265
H179	H	0.047993	-0.628266	-0.046510
H180	H	0.547993	-0.128266	0.453490
H181	H	-0.047906	-0.628259	-0.046494
H182	H	0.452094	-0.128259	0.453506
