data_functionalizedCrystal
_audit_creation_method	'MofGen! by Chris Wilmer'
_symmetry_space_group_name_H-M	'P1'
_symmetry_Int_Tables_number	1
_symmetry_cell_setting	triclinic
loop_
_symmetry_equiv_pos_as_xyz
  x,y,z
_cell_length_a	14.044220
_cell_length_b	17.038272
_cell_length_c	13.101039
_cell_angle_alpha	93.604737
_cell_angle_beta	86.340132
_cell_angle_gamma	92.150217
loop_
_atom_site_label
_atom_site_type_symbol
_atom_site_fract_x
_atom_site_fract_y
_atom_site_fract_z
O1	O	1.277881	0.185592	-0.085106
O2	O	1.001361	0.178751	-0.085132
O3	O	1.137977	0.068241	-0.085111
O4	O	1.141265	0.296101	-0.085127
O5	O	1.128176	0.076185	0.085317
O6	O	0.991560	0.186694	0.085296
O7	O	1.268080	0.193535	0.085322
Zn8	Zn	1.128264	0.191376	0.112368
Zn9	Zn	1.141177	0.180910	-0.112178
O10	O	1.131464	0.304045	0.085301
C11	C	0.960905	0.179728	0.000079
C12	C	0.854960	0.170796	0.000069
C13	C	0.660980	0.154468	0.000091
C14	C	0.608455	0.217813	0.000090
C15	C	0.500518	0.208729	0.000102
C16	C	0.768927	0.163552	0.000079
C17	C	1.130087	0.042876	0.000103
C18	C	1.121168	-0.044541	0.000101
C19	C	1.203056	-0.088926	0.000110
C20	C	1.194670	-0.171064	0.000100
C21	C	1.104396	-0.208815	0.000088
C22	C	1.022502	-0.164424	0.000076
C23	C	1.030889	-0.082288	0.000079
C24	C	1.074767	-0.456646	0.000071
C25	C	1.066386	-0.538788	0.000071
C26	C	1.238555	-0.545423	0.000093
C27	C	1.246934	-0.463285	0.000102
C28	C	1.165040	-0.418901	0.000085
C29	C	1.095822	-0.292773	0.000080
C30	C	1.173615	-0.334945	0.000085
C31	C	1.308536	0.192558	0.000109
C32	C	1.414482	0.201490	0.000112
C33	C	1.139354	0.329410	0.000085
C34	C	1.148273	0.416827	0.000080
N35	N	1.119458	0.198518	0.265616
N36	N	1.149990	0.173762	-0.265426
C37	C	1.107478	0.208243	0.474656
C38	C	1.161967	0.164040	0.525540
C39	C	1.155301	0.169451	0.641858
C40	C	1.114143	0.202833	0.358328
H41	H	1.276567	-0.058196	0.000126
H42	H	0.964207	-0.046151	0.000072
H43	H	0.624887	0.093419	0.000100
H44	H	1.261352	-0.207199	0.000109
H45	H	1.305228	-0.581568	0.000105
O46	O	1.261336	-0.298322	-0.000086
C47	C	1.316749	-0.324531	-0.088331
H48	H	1.267631	-0.348047	-0.150033
H49	H	1.363009	-0.273396	-0.117952
H50	H	1.364416	-0.373342	-0.068366
H51	H	0.644550	0.278868	0.000081
O52	O	1.334702	-0.426743	0.000072
C53	C	1.405181	-0.483531	0.000107
H54	H	1.375828	-0.542609	-0.032172
H55	H	1.470660	-0.464420	-0.049356
H56	H	1.426046	-0.489484	0.081875
O57	O	0.995118	-0.413655	0.000113
C58	C	0.913646	-0.464592	0.000085
H59	H	0.931056	-0.522612	0.032347
H60	H	0.853018	-0.436239	0.049565
H61	H	0.890982	-0.476113	-0.081679
O62	O	0.934799	-0.201066	-0.000120
C63	C	0.889548	-0.183071	-0.088380
H64	H	0.945771	-0.165306	-0.150066
H65	H	0.846691	-0.236962	-0.118014
H66	H	0.839591	-0.132397	-0.068430
H67	H	0.992869	-0.569521	0.000078
H68	H	1.213624	0.122133	0.481746
H69	H	1.022320	-0.323518	0.000073
O70	O	1.045941	0.258225	0.527051
C71	C	1.052897	0.252559	0.633205
H72	H	1.125438	0.229045	0.647723
H73	H	1.044921	0.313242	0.674069
H74	H	0.993958	0.210811	0.663662
