data_functionalizedCrystal
_audit_creation_method	'MofGen! by Chris Wilmer'
_symmetry_space_group_name_H-M	'P1'
_symmetry_Int_Tables_number	1
_symmetry_cell_setting	triclinic
loop_
_symmetry_equiv_pos_as_xyz
  x,y,z
_cell_length_a	14.519731
_cell_length_b	23.532357
_cell_length_c	12.996460
_cell_angle_alpha	89.988323
_cell_angle_beta	89.994327
_cell_angle_gamma	83.258572
loop_
_atom_site_label
_atom_site_type_symbol
_atom_site_fract_x
_atom_site_fract_y
_atom_site_fract_z
O1	O	1.222951	0.074713	-0.085582
O2	O	1.722951	0.574713	0.414418
O3	O	0.954370	0.083492	-0.085585
O4	O	1.454370	0.583492	0.414415
O5	O	1.096784	-0.003794	-0.085562
O6	O	1.596784	0.496206	0.414438
O7	O	1.080538	0.162000	-0.085605
O8	O	1.580538	0.662000	0.414395
O9	O	1.096769	-0.003799	0.085571
O10	O	1.596769	0.496201	0.585571
O11	O	0.954356	0.083488	0.085549
O12	O	1.454356	0.583488	0.585549
O13	O	1.222936	0.074709	0.085552
O14	O	1.722936	0.574709	0.585552
Cu15	Cu	1.088645	0.079098	0.101176
Cu16	Cu	1.588645	0.579098	0.601176
Cu17	Cu	1.088662	0.079103	-0.101209
Cu18	Cu	1.588662	0.579103	0.398791
O19	O	1.080523	0.161995	0.085529
O20	O	1.580523	0.661995	0.585529
C21	C	0.920009	0.083079	-0.000018
C22	C	1.420009	0.583079	0.499982
C23	C	0.817643	0.081846	-0.000019
C24	C	1.317643	0.581846	0.499981
C25	C	0.734511	0.080844	-0.000022
C26	C	1.234511	0.580844	0.499978
C27	C	0.630218	0.079593	-0.000023
C28	C	1.130218	0.579593	0.499977
C29	C	0.547091	0.078600	-0.000022
C30	C	1.047091	0.578600	0.499978
C31	C	0.442790	0.077348	-0.000024
C32	C	0.942790	0.577348	0.499976
C33	C	1.096370	-0.025015	0.000008
C34	C	1.596370	0.474985	0.500008
C35	C	1.095148	-0.088239	0.000017
C36	C	1.595148	0.411761	0.500017
C37	C	1.087486	-0.480282	-0.093323
C38	C	1.587486	0.019718	0.406677
C39	C	1.086325	-0.539687	-0.093329
C40	C	1.586325	-0.039687	0.406671
O41	O	1.085700	-0.570404	-0.172664
O42	O	1.585700	-0.070404	0.327336
N43	N	1.085741	-0.569404	-0.000045
N44	N	1.585741	-0.069404	0.499955
C45	C	1.086309	-0.539711	0.093250
C46	C	1.586309	-0.039711	0.593250
O47	O	1.085705	-0.570442	0.172595
O48	O	1.585705	-0.070442	0.672595
C49	C	1.087464	-0.480307	0.093255
C50	C	1.587464	0.019693	0.593255
C51	C	1.088057	-0.450595	-0.000035
C52	C	1.588057	0.049405	0.499965
C53	C	1.088078	-0.450570	-0.186606
C54	C	1.588078	0.049430	0.313394
C55	C	1.089242	-0.391169	-0.186599
C56	C	1.589242	0.108831	0.313401
C57	C	1.089812	-0.361481	-0.093311
C58	C	1.589812	0.138519	0.406689
C59	C	1.089220	-0.391194	-0.000028
C60	C	1.589220	0.108806	0.499972
C61	C	1.088025	-0.450616	0.186550
C62	C	1.588025	0.049384	0.686550
C63	C	1.089179	-0.391207	0.186547
C64	C	1.589179	0.108793	0.686547
C65	C	1.089773	-0.361495	0.093257
C66	C	1.589773	0.138505	0.593257
C67	C	1.090954	-0.302106	0.093266
C68	C	1.590954	0.197894	0.593266
N69	N	1.091538	-0.272389	-0.000017
N70	N	1.591538	0.227611	0.499983
C71	C	1.090967	-0.302077	-0.093306
C72	C	1.590967	0.197923	0.406694
C73	C	1.083882	-0.664464	0.093233
C74	C	1.583882	-0.164464	0.593233
C75	C	1.082734	-0.723868	0.093229
C76	C	1.582734	-0.223868	0.593229
C77	C	1.082748	-0.723839	-0.093350
C78	C	1.582748	-0.223839	0.406650
C79	C	1.083903	-0.664435	-0.093346
C80	C	1.583903	-0.164435	0.406654
C81	C	1.084466	-0.634748	-0.000051
C82	C	1.584466	-0.134748	0.499949
C83	C	1.093410	-0.177332	-0.093286
C84	C	1.593410	0.322668	0.406714
C85	C	1.094577	-0.117926	-0.093271
C86	C	1.594577	0.382074	0.406729
C87	C	1.094558	-0.117960	0.093308
C88	C	1.594558	0.382040	0.593308
C89	C	1.093396	-0.177361	0.093294
C90	C	1.593396	0.322639	0.593294
C91	C	1.092819	-0.207045	-0.000011
C92	C	1.592819	0.292955	0.499989
O93	O	1.091576	-0.271351	0.172561
O94	O	1.591576	0.228649	0.672561
O95	O	1.091559	-0.271338	-0.172637
O96	O	1.591559	0.228662	0.327363
C97	C	1.257298	0.075122	-0.000017
C98	C	1.757298	0.575122	0.499983
C99	C	1.359663	0.076355	-0.000024
C100	C	1.859663	0.576355	0.499976
C101	C	1.080937	0.183216	-0.000043
C102	C	1.580937	0.683216	0.499957
C103	C	1.082158	0.246440	-0.000060
C104	C	1.582158	0.746440	0.499940
N105	N	1.088639	0.079093	0.243523
N106	N	1.588639	0.579093	0.743523
N107	N	1.088675	0.079103	-0.243557
N108	N	1.588675	0.579103	0.256443
C109	C	1.088661	0.079104	0.663337
C110	C	1.588661	0.579104	1.163337
C111	C	1.088652	0.079103	0.546532
C112	C	1.588652	0.579103	1.046532
C113	C	1.088650	0.079099	0.453434
C114	C	1.588650	0.579099	0.953434
C115	C	1.088641	0.079097	0.336621
C116	C	1.588641	0.579097	0.836621
H117	H	1.092936	-0.201494	-0.169264
H118	H	1.592936	0.298506	0.330736
C119	C	1.089877	-0.358491	-0.289219
C120	C	1.589877	0.141509	0.210781
H121	H	1.089359	-0.384686	-0.344771
H122	H	1.589359	0.115314	0.155229
H123	H	1.144110	-0.339603	-0.293111
H124	H	1.644110	0.160397	0.206889
H125	H	1.036532	-0.331032	-0.293094
H126	H	1.536532	0.168968	0.206906
C127	C	1.082110	-0.756502	-0.195967
C128	C	1.582110	-0.256502	0.304033
H129	H	1.081326	-0.796135	-0.182602
H130	H	1.581326	-0.296135	0.317398
H131	H	1.136085	-0.751055	-0.234305
H132	H	1.636085	-0.251055	0.265695
H133	H	1.028507	-0.742474	-0.234293
H134	H	1.528507	-0.242474	0.265707
C135	C	1.082090	-0.756546	0.195848
C136	C	1.582090	-0.256546	0.695848
H137	H	1.082590	-0.730351	0.251403
H138	H	1.582590	-0.230351	0.751403
H139	H	1.135420	-0.784011	0.199733
H140	H	1.635420	-0.284011	0.699733
H141	H	1.027842	-0.775427	0.199725
H142	H	1.527842	-0.275427	0.699725
C143	C	1.087460	-0.483218	-0.289232
C144	C	1.587460	0.016782	0.210768
H145	H	1.087986	-0.457007	-0.344777
H146	H	1.587986	0.042993	0.155223
H147	H	1.033229	-0.502107	-0.293133
H148	H	1.533229	-0.002107	0.206867
H149	H	1.140807	-0.510675	-0.293110
H150	H	1.640807	-0.010675	0.206890
H151	H	1.095027	-0.093778	0.169261
H152	H	1.595027	0.406222	0.669261
H153	H	1.084385	-0.640247	-0.169311
H154	H	1.584385	-0.140247	0.330689
H155	H	1.089624	-0.367038	0.262520
H156	H	1.589624	0.132962	0.762520
H157	H	1.084344	-0.640297	0.169210
H158	H	1.584344	-0.140297	0.669210
H159	H	1.087544	-0.474798	0.262517
H160	H	1.587544	0.025202	0.762517
H161	H	1.092922	-0.201554	0.169258
H162	H	1.592922	0.298446	0.669258
H163	H	1.095063	-0.093737	-0.169242
H164	H	1.595063	0.406263	0.330758
