data_functionalizedCrystal
_audit_creation_method	'MofGen! by Chris Wilmer'
_symmetry_space_group_name_H-M	'P1'
_symmetry_Int_Tables_number	1
_symmetry_cell_setting	triclinic
loop_
_symmetry_equiv_pos_as_xyz
  x,y,z
_cell_length_a	13.032721
_cell_length_b	18.215407
_cell_length_c	18.215399
_cell_angle_alpha	90.019833
_cell_angle_beta	97.154738
_cell_angle_gamma	82.794992
loop_
_atom_site_label
_atom_site_type_symbol
_atom_site_fract_x
_atom_site_fract_y
_atom_site_fract_z
Zn1	Zn	-0.416041	-1.087881	-0.453320
Zn2	Zn	0.083959	-0.587881	0.046680
Zn3	Zn	-0.590804	-1.072167	-0.345882
Zn4	Zn	-0.090804	-0.572167	0.154118
Zn5	Zn	-0.416075	-0.964810	-0.330271
Zn6	Zn	0.083925	-0.464810	0.169729
Zn7	Zn	-0.590746	-0.949162	-0.468902
Zn8	Zn	-0.090746	-0.449162	0.031098
O9	O	-0.503417	-1.018505	-0.399594
O10	O	-0.003417	-0.518505	0.100406
O11	O	-0.439234	-1.188780	-0.439081
O12	O	0.060766	-0.688780	0.060919
O13	O	-0.567665	-1.057898	-0.240831
O14	O	-0.067665	-0.557898	0.259169
O15	O	-0.269831	-0.994261	-0.333539
O16	O	0.230169	-0.494261	0.166461
O17	O	-0.567632	-1.177235	-0.360147
O18	O	-0.067632	-0.677235	0.139853
O19	O	-0.269806	-1.084681	-0.423943
O20	O	0.230194	-0.584681	0.076057
O21	O	-0.439292	-0.979024	-0.229361
O22	O	0.060708	-0.479024	0.270639
O23	O	-0.439236	-0.859751	-0.348648
O24	O	0.060764	-0.359751	0.151352
O25	O	-0.567533	-0.967591	-0.569816
O26	O	-0.067533	-0.467591	-0.069816
O27	O	-0.567566	-0.848254	-0.450500
O28	O	-0.067566	-0.348254	0.049500
O29	O	-0.439177	-1.069507	-0.558368
O30	O	0.060823	-0.569507	-0.058368
O31	O	-0.737036	-1.042724	-0.375256
O32	O	-0.237036	-0.542724	0.124744
O33	O	-0.736993	-0.952353	-0.465638
O34	O	-0.236993	-0.452353	0.034362
C35	C	-0.503399	-0.827300	-0.399571
C36	C	-0.003399	-0.327300	0.100429
C37	C	-0.503416	-0.745500	-0.399581
C38	C	-0.003416	-0.245500	0.100419
C39	C	-0.774933	-0.994156	-0.423847
C40	C	-0.274933	-0.494156	0.076153
C41	C	-0.891089	-0.983806	-0.434248
C42	C	-0.391089	-0.483806	0.065752
C43	C	-0.503345	-1.018556	-0.591540
C44	C	-0.003345	-0.518556	-0.091540
C45	C	-0.503314	-1.018578	-0.673337
C46	C	-0.003314	-0.518578	-0.173337
C47	C	-0.942861	-1.023945	-0.394199
C48	C	-0.442861	-0.523945	0.105801
C49	C	-1.062914	-1.013250	-0.404947
C50	C	-0.562914	-0.513250	0.095053
C51	C	-0.230840	-1.042969	-0.375262
C52	C	0.269160	-0.542969	0.124738
C53	C	-0.114684	-1.053395	-0.364893
C54	C	0.385316	-0.553395	0.135107
C55	C	-0.503435	-1.210456	-0.399617
C56	C	-0.003435	-0.710456	0.100383
C57	C	-0.503443	-1.292254	-0.399627
C58	C	-0.003443	-0.792254	0.100373
C59	C	-0.570343	-0.551329	-0.452566
C60	C	-0.070343	-0.051329	0.047434
C61	C	-0.570346	-0.474470	-0.452575
C62	C	-0.070346	0.025530	0.047425
C63	C	-0.436510	-0.486431	-0.346640
C64	C	0.063490	0.013569	0.153360
C65	C	-0.436502	-0.563289	-0.346634
C66	C	0.063498	-0.063289	0.153366
C67	C	-0.503424	-0.595736	-0.399597
C68	C	-0.003424	-0.095736	0.100403
C69	C	-0.503435	-0.442019	-0.399612
C70	C	-0.003435	0.057981	0.100388
C71	C	-0.503438	-0.358685	-0.399621
C72	C	-0.003438	0.141315	0.100379
C73	C	-0.503420	-0.679075	-0.399588
C74	C	-0.003420	-0.179075	0.100412
C75	C	-0.436417	-1.071668	-0.855565
C76	C	0.063583	-0.571668	-0.355565
C77	C	-0.436386	-1.071680	-0.932421
C78	C	0.063614	-0.571680	-0.432421
C79	C	-0.570049	-0.965554	-0.944331
C80	C	-0.070049	-0.465554	-0.444331
C81	C	-0.570074	-0.965540	-0.867476
C82	C	-0.070074	-0.465540	-0.367476
C83	C	-0.503259	-1.018601	-0.823095
C84	C	-0.003259	-0.518601	-0.323095
C85	C	-0.503204	-1.018627	-0.976807
C86	C	-0.003204	-0.518627	-0.476807
C87	C	-0.503172	-1.018639	-1.060137
C88	C	-0.003172	-0.518639	-0.560137
C89	C	-0.503290	-1.018589	-0.739759
C90	C	-0.003290	-0.518589	-0.239759
C91	C	-0.503413	-1.018503	-0.208387
C92	C	-0.003413	-0.518503	0.291613
C93	C	-0.503149	-1.018650	-0.126565
C94	C	-0.003149	-0.518650	0.373435
H95	H	-0.898309	-1.066232	-0.351957
H96	H	-0.398309	-0.566232	0.148043
H97	H	-0.381955	-1.114891	-0.958854
H98	H	0.118045	-0.614891	-0.458854
Br99	Br	-1.137160	-0.942775	-0.475370
Br100	Br	-0.637160	-0.442775	0.024630
H101	H	-1.070135	-1.095684	-0.322648
H102	H	-0.570135	-0.595684	0.177352
H103	H	-0.382009	-1.114872	-0.819432
H104	H	0.117991	-0.614872	-0.319432
H105	H	-0.624450	-0.922355	-0.980476
H106	H	-0.124450	-0.422355	-0.480476
Br107	Br	-0.660786	-0.893509	-0.823404
Br108	Br	-0.160786	-0.393509	-0.323404
Br109	Br	-0.965338	-0.913335	-0.504668
Br110	Br	-0.465338	-0.413335	-0.004668
Br111	Br	-0.661163	-0.414207	-0.524468
Br112	Br	-0.161163	0.085793	-0.024468
H113	H	-0.624833	-0.577745	-0.495693
H114	H	-0.124833	-0.077745	0.004307
Br115	Br	-0.345667	-0.623561	-0.274748
Br116	Br	0.154333	-0.123561	0.225252
Br117	Br	-0.345691	-0.442391	-0.274766
Br118	Br	0.154309	0.057609	0.225234
