data_functionalizedCrystal
_audit_creation_method	'MofGen! by Chris Wilmer'
_symmetry_space_group_name_H-M	'P1'
_symmetry_Int_Tables_number	1
_symmetry_cell_setting	triclinic
loop_
_symmetry_equiv_pos_as_xyz
  x,y,z
_cell_length_a	23.532361
_cell_length_b	23.532407
_cell_length_c	22.010155
_cell_angle_alpha	89.999994
_cell_angle_beta	89.995857
_cell_angle_gamma	82.839173
loop_
_atom_site_label
_atom_site_type_symbol
_atom_site_fract_x
_atom_site_fract_y
_atom_site_fract_z
O1	O	0.755281	0.069000	-0.050470
O2	O	0.589414	0.079031	-0.050486
O3	O	0.677349	-0.008917	-0.050466
O4	O	0.667346	0.156948	-0.050490
O5	O	0.677333	-0.008903	0.050584
O6	O	0.589398	0.079045	0.050565
O7	O	0.755265	0.069014	0.050580
Cu8	Cu	0.672330	0.074031	0.059799
Cu9	Cu	0.672349	0.074014	-0.059705
O10	O	0.667330	0.156962	0.050561
C11	C	0.568189	0.078787	0.000038
C12	C	0.504971	0.078032	0.000032
C13	C	0.231736	0.074721	-0.055046
C14	C	0.291136	0.075436	-0.055048
O15	O	0.321869	0.075779	-0.101892
N16	N	0.320832	0.075804	0.000035
C17	C	0.291127	0.075452	0.055123
O18	O	0.321841	0.075831	0.101975
C19	C	0.231729	0.074733	0.055124
C20	C	0.202035	0.074370	0.000037
C21	C	0.202041	0.074357	-0.110128
C22	C	0.142645	0.073643	-0.110126
C23	C	0.112944	0.073293	-0.055043
C24	C	0.142639	0.073657	0.000039
C25	C	0.202026	0.074377	0.110211
C26	C	0.142624	0.073658	0.110207
C27	C	0.112929	0.073295	0.055121
C28	C	0.053542	0.072592	0.055125
N29	N	0.023845	0.072224	0.000042
C30	C	0.053546	0.072574	-0.055042
C31	C	0.415868	0.076961	0.055117
C32	C	0.475264	0.077684	0.055116
C33	C	0.475268	0.077667	-0.055055
C34	C	0.415870	0.076948	-0.055054
C35	C	0.386171	0.076593	0.000034
C36	C	-0.071189	0.071075	-0.055034
C37	C	-0.130591	0.070364	-0.055027
C38	C	-0.130590	0.070379	0.055144
C39	C	-0.071194	0.071093	0.055137
C40	C	-0.041495	0.071440	0.000044
O41	O	0.022771	0.072246	0.101945
O42	O	0.022826	0.072188	-0.101886
C43	C	0.677086	-0.030126	0.000060
C44	C	0.676320	-0.093343	0.000065
C45	C	0.723555	-0.492454	0.000036
C46	C	0.722844	-0.551854	0.000031
O47	O	0.766630	-0.588606	0.000013
N48	N	0.670566	-0.574471	0.000027
C49	C	0.618997	-0.537685	0.000021
O50	O	0.574465	-0.562377	0.000016
C51	C	0.619709	-0.478286	0.000021
C52	C	0.671990	-0.455672	0.000032
C53	C	0.775832	-0.469839	0.000046
C54	C	0.776543	-0.410443	0.000052
C55	C	0.724977	-0.373662	0.000048
C56	C	0.672701	-0.396276	0.000038
C57	C	0.568140	-0.441501	0.000011
C58	C	0.568857	-0.382099	0.000011
C59	C	0.621137	-0.359485	0.000021
C60	C	0.621847	-0.300099	0.000039
N61	N	0.674124	-0.277481	0.000044
C62	C	0.725690	-0.314263	0.000048
C63	C	0.617505	-0.662427	0.000019
C64	C	0.616793	-0.721825	0.000023
C65	C	0.720640	-0.735990	0.000032
C66	C	0.721352	-0.676591	0.000033
C67	C	0.669783	-0.639810	0.000024
C68	C	0.727179	-0.189526	0.000061
C69	C	0.727886	-0.130124	0.000069
C70	C	0.624039	-0.115965	0.000057
C71	C	0.623332	-0.175361	0.000051
C72	C	0.674907	-0.212141	0.000051
O73	O	0.578083	-0.263312	0.000055
O74	O	0.770214	-0.289562	0.000045
C75	C	0.776489	0.069258	0.000055
C76	C	0.839708	0.070014	0.000057
C77	C	0.667592	0.178171	0.000033
C78	C	0.668358	0.241388	0.000024
N79	N	0.672321	0.074042	0.143851
C80	C	0.711288	0.035081	0.563639
C81	C	0.711291	0.035077	0.627247
O82	O	0.744400	0.001956	0.660146
N83	N	0.672348	0.074008	0.659059
C84	C	0.633396	0.112940	0.627259
O85	O	0.600272	0.146052	0.660158
C86	C	0.633391	0.112940	0.563653
C87	C	0.672340	0.074011	0.531845
C88	C	0.750234	-0.003845	0.531831
C89	C	0.750232	-0.003841	0.468228
C90	C	0.711284	0.035090	0.436433
C91	C	0.672338	0.074016	0.468241
C92	C	0.594437	0.151869	0.531855
C93	C	0.594435	0.151866	0.468244
C94	C	0.633384	0.112937	0.436436
C95	C	0.633389	0.112950	0.372843
N96	N	0.672331	0.074020	0.341032
C97	C	0.711279	0.035090	0.372827
C98	C	0.633408	0.112936	0.760837
C99	C	0.633415	0.112938	0.824442
C100	C	0.711310	0.035075	0.824426
C101	C	0.711305	0.035075	0.760819
C102	C	0.672351	0.074005	0.729025
C103	C	0.711272	0.035102	0.239255
C104	C	0.711268	0.035112	0.175646
C105	C	0.633372	0.112973	0.175669
C106	C	0.633378	0.112966	0.239272
C107	C	0.672330	0.074026	0.271064
O108	O	0.600295	0.146053	0.339904
O109	O	0.744393	0.001978	0.339920
N110	N	0.672362	0.074006	0.856243
H111	H	0.499462	0.077951	-0.099907
H112	H	0.118474	0.073345	-0.154983
H113	H	0.391697	0.076652	-0.099910
C114	C	0.560012	-0.746341	-0.000107
C115	C	0.528877	-0.727623	-0.052105
C116	C	0.476571	-0.750198	-0.052254
H117	H	0.538721	-0.733710	0.035089
H118	H	0.566944	-0.786987	-0.000142
H119	H	0.521944	-0.686985	-0.052064
H120	H	0.550151	-0.740253	-0.087309
H121	H	0.483502	-0.790845	-0.052289
H122	H	0.455285	-0.737566	-0.017056
H123	H	0.455441	-0.737506	-0.087536
H124	H	0.575509	-0.632483	0.000017
C125	C	0.783235	-0.229358	0.000095
C126	C	0.829163	-0.196829	0.000121
C127	C	0.880810	-0.233503	0.000165
H128	H	0.785210	-0.252837	-0.035135
H129	H	0.785143	-0.252817	0.035346
H130	H	0.827256	-0.173380	-0.035127
H131	H	0.827208	-0.173352	0.035348
H132	H	0.882718	-0.256961	0.035416
H133	H	0.882778	-0.256980	-0.035066
H134	H	0.911978	-0.211437	0.000188
H135	H	0.499435	0.077989	0.099973
H136	H	0.762627	-0.765949	0.000033
H137	H	0.226193	0.074671	0.155068
H138	H	0.562712	0.183567	0.442360
H139	H	0.742988	0.003411	0.149750
H140	H	0.781946	-0.035542	0.442333
C141	C	0.234175	0.074768	-0.170003
C142	C	0.195443	0.074310	-0.218233
C143	C	0.225017	0.074701	-0.273402
H144	H	0.261884	0.041843	-0.172384
H145	H	0.252794	0.108279	-0.172333
H146	H	0.176833	0.040803	-0.215904
H147	H	0.167733	0.107232	-0.215872
H148	H	0.243636	0.108212	-0.275732
H149	H	0.252725	0.041776	-0.275777
H150	H	0.198741	0.074396	-0.306133
H151	H	0.819115	-0.392037	0.000058
H152	H	0.525567	-0.459902	-0.000001
H153	H	0.391689	0.076680	0.099978
H154	H	-0.154783	0.070096	0.099991
C155	C	0.778173	-0.652152	0.000006
C156	C	0.823175	-0.697084	-0.000005
C157	C	0.875528	-0.674597	-0.000040
H158	H	0.780689	-0.629282	0.035233
H159	H	0.780647	-0.629295	-0.035248
H160	H	0.820702	-0.719932	0.035246
H161	H	0.820677	-0.719958	-0.035229
H162	H	0.878002	-0.651740	-0.035294
H163	H	0.878039	-0.651727	0.035188
H164	H	0.906068	-0.705080	-0.000053
H165	H	-0.047016	0.071358	-0.099896
C166	C	0.591211	0.155241	0.726244
C167	C	0.621346	0.189939	0.689714
C168	C	0.582493	0.228912	0.657836
H169	H	0.568006	0.178480	0.754234
H170	H	0.567622	0.134900	0.701398
H171	H	0.644924	0.210279	0.714558
H172	H	0.644548	0.166716	0.661712
H173	H	0.558905	0.208570	0.632991
H174	H	0.559291	0.252147	0.685831
H175	H	0.602934	0.252456	0.633043
C176	C	0.110478	0.073304	0.170083
C177	C	0.149200	0.073790	0.218319
C178	C	0.119608	0.073473	0.273483
H179	H	0.091836	0.039819	0.172465
H180	H	0.082784	0.106255	0.172405
H181	H	0.176884	0.040842	0.215998
H182	H	0.167843	0.107272	0.215956
H183	H	0.091914	0.106424	0.275805
H184	H	0.100967	0.039987	0.275859
H185	H	0.145875	0.073808	0.306218
C186	C	0.512804	-0.342260	0.000032
C187	C	0.466872	-0.374784	0.000037
C188	C	0.415228	-0.338106	0.000066
H189	H	0.510848	-0.318779	-0.035195
H190	H	0.510882	-0.318803	0.035286
H191	H	0.468793	-0.398231	-0.035213
H192	H	0.468809	-0.398263	0.035262
H193	H	0.413306	-0.314649	0.035320
H194	H	0.413278	-0.314627	-0.035162
H195	H	0.384058	-0.360168	0.000075
C196	C	-0.039049	0.071459	0.115008
C197	C	-0.077775	0.070987	0.163247
C198	C	-0.048187	0.071308	0.218409
H199	H	-0.020403	0.104941	0.117382
H200	H	-0.011359	0.038505	0.117333
H201	H	-0.105455	0.103937	0.160923
H202	H	-0.096423	0.037507	0.160893
H203	H	-0.020497	0.038354	0.220734
H204	H	-0.029542	0.104791	0.220777
H205	H	-0.074457	0.070982	0.251146
C206	C	0.591026	0.155255	0.273701
C207	C	0.556908	0.189340	0.232238
C208	C	0.517876	0.228292	0.263927
H209	H	0.611303	0.178910	0.298521
H210	H	0.567406	0.134898	0.298495
H211	H	0.580525	0.209695	0.207454
H212	H	0.536618	0.165700	0.207416
H213	H	0.494255	0.207936	0.288721
H214	H	0.538158	0.251944	0.288746
H215	H	0.494718	0.251420	0.235800
H216	H	0.817825	-0.499782	0.000047
C217	C	0.591040	0.155144	0.858941
C218	C	0.535131	0.146189	0.843481
C219	C	0.496076	0.185052	0.875252
H220	H	0.596930	0.193147	0.848542
H221	H	0.596576	0.149568	0.901383
H222	H	0.529597	0.151770	0.801048
H223	H	0.529222	0.108194	0.853882
H224	H	0.501612	0.179476	0.917695
H225	H	0.501972	0.223052	0.864851
H226	H	0.458137	0.178978	0.864772
H227	H	-0.154766	0.070070	-0.099887
H228	H	0.580761	-0.193774	0.000060
C229	C	0.568074	-0.075995	-0.000076
C230	C	0.565463	-0.041492	-0.052072
C231	C	0.513914	-0.004668	-0.052224
H232	H	0.566132	-0.052474	0.035121
H233	H	0.536817	-0.097946	-0.000116
H234	H	0.596712	-0.019543	-0.052026
H235	H	0.567395	-0.064997	-0.087277
H236	H	0.482656	-0.026619	-0.052264
H237	H	0.511976	0.018849	-0.017025
H238	H	0.512133	0.018743	-0.087505
H239	H	0.601663	0.144671	0.149771
H240	H	0.742990	0.003393	0.265133
H241	H	0.770461	-0.111716	0.000079
C242	C	0.792591	-0.046141	0.566234
C243	C	0.826700	-0.080215	0.524752
C244	C	0.865736	-0.119178	0.556416
H245	H	0.772316	-0.069802	0.591055
H246	H	0.816216	-0.025792	0.591028
H247	H	0.803078	-0.100562	0.499969
H248	H	0.846987	-0.056570	0.499930
H249	H	0.889362	-0.098829	0.581210
H250	H	0.845457	-0.142835	0.581236
H251	H	0.888888	-0.142299	0.528275
C252	C	0.753615	-0.007258	0.726397
C253	C	0.787714	-0.041356	0.767864
C254	C	0.826692	-0.080368	0.736181
H255	H	0.777259	0.013036	0.701577
H256	H	0.733278	-0.030893	0.701603
H257	H	0.808050	-0.017724	0.792648
H258	H	0.764086	-0.061663	0.792686
H259	H	0.806355	-0.104003	0.711386
H260	H	0.850332	-0.060069	0.711361
H261	H	0.849829	-0.103512	0.764311
C262	C	0.552082	0.194160	0.566268
C263	C	0.517966	0.228236	0.524797
C264	C	0.478935	0.267198	0.556476
H265	H	0.572360	0.217821	0.591082
H266	H	0.528460	0.173811	0.591069
H267	H	0.541584	0.248584	0.500007
H268	H	0.497675	0.204592	0.499982
H269	H	0.455313	0.246849	0.581277
H270	H	0.499218	0.290855	0.581288
H271	H	0.455779	0.290320	0.528343
H272	H	0.743022	0.003375	0.850325
