data_functionalizedCrystal
_audit_creation_method	'MofGen! by Chris Wilmer'
_symmetry_space_group_name_H-M	'P1'
_symmetry_Int_Tables_number	1
_symmetry_cell_setting	triclinic
loop_
_symmetry_equiv_pos_as_xyz
  x,y,z
_cell_length_a	10.489741
_cell_length_b	9.065218
_cell_length_c	7.540329
_cell_angle_alpha	89.998243
_cell_angle_beta	89.999730
_cell_angle_gamma	84.777530
loop_
_atom_site_label
_atom_site_type_symbol
_atom_site_fract_x
_atom_site_fract_y
_atom_site_fract_z
O1	O	-1.694803	-0.208165	0.147365
O2	O	-1.323678	-0.227705	0.147392
O3	O	-1.516911	-0.003256	0.147374
O4	O	-1.501569	-0.432615	0.147382
O5	O	-1.516900	-0.003253	-0.147591
O6	O	-1.323666	-0.227702	-0.147573
O7	O	-1.694791	-0.208162	-0.147600
Cu8	Cu	-1.509228	-0.217932	-0.174519
Cu9	Cu	-1.509241	-0.217935	0.174311
O10	O	-1.501558	-0.432612	-0.147583
C11	C	-1.276135	-0.226228	-0.000087
C12	C	-1.134489	-0.221813	-0.000077
C13	C	-1.515431	0.051725	-0.000105
C14	C	-1.511022	0.215547	-0.000097
C15	C	-1.742334	-0.209640	-0.000117
C16	C	-1.883979	-0.214055	-0.000116
C17	C	-1.065834	-0.079002	-0.000096
C18	C	-0.973956	-0.146466	0.145334
C19	C	-0.973979	-0.146497	-0.145478
C20	C	-1.044478	-0.289335	0.145474
C21	C	-1.044510	-0.289346	-0.145469
C22	C	-0.952660	-0.356914	-0.000003
C23	C	-1.503038	-0.487593	-0.000099
C24	C	-1.507447	-0.651414	-0.000096
N25	N	-1.509227	-0.217929	-0.419868
N26	N	-1.509252	-0.217927	0.419659
H27	H	-0.942728	-0.086041	0.268286
H28	H	-1.075528	-0.349715	0.268563
H29	H	-0.903661	-0.474437	0.000079
O30	O	-0.936710	-0.074176	-0.291979
C31	C	-0.873400	0.049472	-0.239777
H32	H	-0.904593	0.084129	-0.099896
H33	H	-0.765523	0.019163	-0.241936
C34	C	-0.869524	0.136098	-0.540598
C35	C	-0.907843	0.178672	-0.368799
H36	H	-0.890764	0.215794	-0.620188
H37	H	-0.912172	0.052791	-0.575770
H38	H	-0.779627	0.110840	-0.542372
H39	H	-0.997739	0.203912	-0.367022
H40	H	-0.865210	0.261987	-0.333630
H41	H	-1.115099	0.038397	0.000083
O42	O	-1.081781	-0.361157	-0.292331
C43	C	-1.046204	-0.285502	-0.445376
H44	H	-1.034545	-0.165102	-0.410535
H45	H	-0.951717	-0.340304	-0.498446
C46	C	-1.165052	-0.439348	-0.630724
C47	C	-1.150742	-0.291468	-0.587935
H48	H	-1.229531	-0.443033	-0.718665
H49	H	-1.189017	-0.490323	-0.527616
H50	H	-1.086305	-0.485001	-0.674939
H51	H	-1.229483	-0.245824	-0.543700
H52	H	-1.126793	-0.240485	-0.691039
