data_functionalizedCrystal
_audit_creation_method	'MofGen! by Chris Wilmer'
_symmetry_space_group_name_H-M	'P1'
_symmetry_Int_Tables_number	1
_symmetry_cell_setting	triclinic
loop_
_symmetry_equiv_pos_as_xyz
  x,y,z
_cell_length_a	18.050591
_cell_length_b	18.050582
_cell_length_c	17.638516
_cell_angle_alpha	101.180263
_cell_angle_beta	101.240668
_cell_angle_gamma	89.979078
loop_
_atom_site_label
_atom_site_type_symbol
_atom_site_fract_x
_atom_site_fract_y
_atom_site_fract_z
Zn1	Zn	1.075471	-0.479776	-0.314825
Zn2	Zn	1.050267	-0.380669	-0.447001
Zn3	Zn	0.951290	-0.355588	-0.314828
Zn4	Zn	0.926131	-0.504797	-0.446959
O5	O	1.000790	-0.430207	-0.380903
O6	O	1.176050	-0.466655	-0.332374
O7	O	1.037118	-0.273421	-0.429487
O8	O	0.988840	-0.351093	-0.204213
O9	O	1.157532	-0.393841	-0.429484
O10	O	1.080076	-0.442334	-0.204211
O11	O	0.964400	-0.254994	-0.332380
O12	O	0.844031	-0.375355	-0.332339
O13	O	0.945961	-0.605399	-0.429413
O14	O	0.825547	-0.484978	-0.429416
O15	O	1.055680	-0.587016	-0.332334
O16	O	1.012723	-0.418103	-0.557609
O17	O	0.921521	-0.509299	-0.557579
C18	C	0.807843	-0.430161	-0.380874
C19	C	0.725296	-0.430162	-0.380880
C20	C	0.535887	-0.370651	-0.328029
C21	C	0.472769	-0.366057	-0.400125
C22	C	0.574161	-0.430200	-0.380904
C23	C	0.490194	-0.434797	-0.308833
C24	C	0.428173	-0.430234	-0.380921
C25	C	0.512123	-0.425578	-0.453038
C26	C	0.529561	-0.494340	-0.361698
C27	C	0.466455	-0.489781	-0.433844
C28	C	0.658262	-0.430178	-0.380893
C29	C	0.344073	-0.430258	-0.380940
C30	C	1.000826	-0.623906	-0.380868
C31	C	1.000841	-0.706449	-0.380853
C32	C	0.941227	-0.915883	-0.433573
C33	C	1.005310	-0.968949	-0.452900
C34	C	1.000889	-0.857568	-0.380793
C35	C	0.936847	-0.951580	-0.361444
C36	C	1.000929	-1.003543	-0.380736
C37	C	1.065000	-0.909554	-0.400158
C38	C	0.996499	-0.892175	-0.308668
C39	C	1.060633	-0.945213	-0.327968
C40	C	1.000864	-0.773477	-0.380828
C41	C	1.000961	-1.087633	-0.380701
C42	C	1.194490	-0.430255	-0.380933
C43	C	1.277033	-0.430275	-0.380946
C44	C	0.961677	-0.469154	-0.586275
C45	C	0.945012	-0.485840	-0.674134
C46	C	1.000808	-0.237251	-0.380881
C47	C	1.000979	-0.154666	-0.380673
C48	C	1.127837	-0.303499	-0.963033
C49	C	1.112165	-0.319191	-1.045590
C50	C	1.017117	-0.414078	-1.045603
C51	C	1.032778	-0.398392	-0.963044
C52	C	1.088140	-0.343102	-0.921766
C53	C	0.993081	-0.437995	-0.921777
C54	C	1.008744	-0.422312	-0.839226
C55	C	1.064105	-0.367027	-0.797942
C56	C	1.103803	-0.327420	-0.839215
C57	C	0.937723	-0.493288	-0.963057
C58	C	0.898026	-0.532891	-0.921790
C59	C	0.913685	-0.517205	-0.839237
C60	C	0.969046	-0.461920	-0.797953
C61	C	0.873987	-0.556812	-0.797964
C62	C	0.889650	-0.541130	-0.715412
C63	C	0.984709	-0.446237	-0.715401
C64	C	1.040076	-0.391125	-0.174729
C65	C	1.056817	-0.374470	-0.086870
H66	H	0.436426	-0.540164	-0.478617
H67	H	0.992738	-0.858890	-0.247716
H68	H	1.111153	-0.958279	-0.283310
H69	H	0.882672	-0.970167	-0.345102
H70	H	0.828917	-0.601834	-0.831585
H71	H	0.554410	-0.548545	-0.345419
Cl72	Cl	0.839746	-0.590918	-0.663529
H73	H	0.480067	-0.438649	-0.247885
Cl74	Cl	0.863374	-0.895505	-0.502570
Cl75	Cl	1.054294	-0.376715	-0.663502
Cl76	Cl	1.083863	-0.347376	-0.694161
Cl77	Cl	1.197422	-0.233977	-0.911134
Cl78	Cl	0.434435	-0.282339	-0.425225
Cl79	Cl	0.582433	-0.292850	-0.259066
Cl80	Cl	0.947524	-0.483584	-1.097503
H81	H	1.009047	-1.002220	-0.513869
Cl82	Cl	1.148645	-0.881026	-0.425504
H83	H	1.148879	-0.282392	-0.805605
Cl84	Cl	0.527545	-0.419495	-0.547178
H85	H	1.144498	-0.286939	-1.079187
Cl86	Cl	0.917723	-0.512692	-1.066836
Cl87	Cl	0.828434	-0.602397	-0.973690
