data_functionalizedCrystal
_audit_creation_method	'MofGen! by Chris Wilmer'
_symmetry_space_group_name_H-M	'P1'
_symmetry_Int_Tables_number	1
_symmetry_cell_setting	triclinic
loop_
_symmetry_equiv_pos_as_xyz
  x,y,z
_cell_length_a	23.532355
_cell_length_b	23.532357
_cell_length_c	14.421503
_cell_angle_alpha	89.998741
_cell_angle_beta	89.998245
_cell_angle_gamma	82.827896
loop_
_atom_site_label
_atom_site_type_symbol
_atom_site_fract_x
_atom_site_fract_y
_atom_site_fract_z
O1	O	0.755270	0.068988	-0.076997
O2	O	1.255270	0.568988	0.423003
O3	O	0.589400	0.079022	-0.077028
O4	O	1.089400	0.579022	0.422972
O5	O	0.677352	-0.008930	-0.076992
O6	O	1.177352	0.491070	0.423008
O7	O	0.667319	0.156940	-0.077032
O8	O	1.167319	0.656940	0.422968
O9	O	0.677337	-0.008916	0.077231
O10	O	1.177337	0.491084	0.577231
O11	O	0.589386	0.079035	0.077196
O12	O	1.089386	0.579035	0.577196
O13	O	0.755255	0.069001	0.077227
O14	O	1.255255	0.569001	0.577227
Cu15	Cu	0.672319	0.074019	0.091293
Cu16	Cu	1.172319	0.574019	0.591293
Cu17	Cu	0.672336	0.074004	-0.091094
Cu18	Cu	1.172336	0.574004	0.408906
O19	O	0.667304	0.156953	0.077191
O20	O	1.167304	0.656953	0.577191
C21	C	0.568177	0.078778	0.000080
C22	C	1.068177	0.578778	0.500080
C23	C	0.504958	0.078024	0.000069
C24	C	1.004958	0.578024	0.500069
C25	C	0.112937	0.073293	0.084176
C26	C	0.612937	0.573293	0.584176
C27	C	0.053538	0.072575	0.084180
C28	C	0.553538	0.572575	0.584180
O29	O	0.022813	0.072191	0.155675
O30	O	0.522813	0.572191	0.655675
N31	N	0.023837	0.072212	0.000113
N32	N	0.523837	0.572212	0.500113
C33	C	0.053540	0.072561	-0.083963
C34	C	0.553540	0.572561	0.416037
O35	O	0.022823	0.072186	-0.155468
O36	O	0.522823	0.572186	0.344532
C37	C	0.112939	0.073275	-0.083965
C38	C	0.612939	0.573275	0.416035
C39	C	0.142636	0.073643	0.000107
C40	C	0.642636	0.573643	0.500107
C41	C	0.142634	0.073661	0.168242
C42	C	0.642634	0.573661	0.668242
C43	C	0.202029	0.074379	0.168238
C44	C	0.702029	0.574379	0.668238
C45	C	0.231727	0.074730	0.084168
C46	C	0.731727	0.574730	0.584168
C47	C	0.202031	0.074362	0.000103
C48	C	0.702031	0.574362	0.500103
C49	C	0.142641	0.073619	-0.168040
C50	C	0.642641	0.573619	0.331960
C51	C	0.202044	0.074332	-0.168036
C52	C	0.702044	0.574332	0.331964
C53	C	0.231741	0.074701	-0.083964
C54	C	0.731741	0.574701	0.416036
C55	C	0.291124	0.075431	-0.083971
C56	C	0.791124	0.575431	0.416029
N57	N	0.320824	0.075794	0.000096
N58	N	0.820824	0.575794	0.500096
C59	C	0.291126	0.075443	0.084165
C60	C	0.791126	0.575443	0.584165
C61	C	-0.071201	0.071062	-0.083950
C62	C	0.428799	0.571062	0.416050
C63	C	-0.130599	0.070353	-0.083949
C64	C	0.369401	0.570353	0.416051
C65	C	-0.130597	0.070366	0.084195
C66	C	0.369403	0.570366	0.584195
C67	C	-0.071199	0.071079	0.084192
C68	C	0.428801	0.571079	0.584192
C69	C	-0.041501	0.071425	0.000116
C70	C	0.458499	0.571425	0.500116
C71	C	0.415860	0.076953	0.084151
C72	C	0.915860	0.576953	0.584151
C73	C	0.475260	0.077673	0.084139
C74	C	0.975260	0.577673	0.584139
C75	C	0.475253	0.077657	-0.084004
C76	C	0.975253	0.577657	0.415996
C77	C	0.415858	0.076939	-0.083993
C78	C	0.915858	0.576939	0.416007
C79	C	0.386163	0.076585	0.000092
C80	C	0.886163	0.576585	0.500092
O81	O	0.321887	0.075813	-0.155429
O82	O	0.821887	0.575813	0.344571
O83	O	0.321851	0.075811	0.155658
O84	O	0.821851	0.575811	0.655658
C85	C	0.677094	-0.030140	0.000122
C86	C	1.177094	0.469860	0.500122
C87	C	0.676339	-0.093358	0.000131
C88	C	1.176339	0.406642	0.500131
C89	C	0.671610	-0.485376	-0.083987
C90	C	1.171610	0.014624	0.416013
C91	C	0.670893	-0.544775	-0.083993
C92	C	1.170893	-0.044775	0.416007
O93	O	0.670509	-0.575497	-0.155489
O94	O	1.170509	-0.075497	0.344511
N95	N	0.670529	-0.574479	0.000073
N96	N	1.170529	-0.074479	0.500073
C97	C	0.670877	-0.544780	0.084150
C98	C	1.170877	-0.044780	0.584150
O99	O	0.670501	-0.575499	0.155654
O100	O	1.170501	-0.075499	0.655654
C101	C	0.671590	-0.485381	0.084155
C102	C	1.171590	0.014619	0.584155
C103	C	0.671960	-0.455681	0.000083
C104	C	1.171960	0.044319	0.500083
C105	C	0.671979	-0.455675	-0.168052
C106	C	1.171979	0.044325	0.331948
C107	C	0.672697	-0.396280	-0.168046
C108	C	1.172697	0.103720	0.331954
C109	C	0.673047	-0.366585	-0.083976
C110	C	1.173047	0.133415	0.416024
C111	C	0.672678	-0.396286	0.000089
C112	C	1.172678	0.103714	0.500089
C113	C	0.671934	-0.455682	0.168231
C114	C	1.171934	0.044318	0.668231
C115	C	0.672647	-0.396279	0.168228
C116	C	1.172647	0.103721	0.668228
C117	C	0.673016	-0.366579	0.084156
C118	C	1.173016	0.133421	0.584156
C119	C	0.673746	-0.307196	0.084165
C120	C	1.173746	0.192804	0.584165
N121	N	0.674109	-0.277492	0.000099
N122	N	1.174109	0.222508	0.500099
C123	C	0.673760	-0.307187	-0.083971
C124	C	1.173760	0.192813	0.416029
C125	C	0.669378	-0.669521	0.084134
C126	C	1.169378	-0.169521	0.584134
C127	C	0.668669	-0.728919	0.084131
C128	C	1.168669	-0.228919	0.584131
C129	C	0.668684	-0.728910	-0.084012
C130	C	1.168684	-0.228910	0.415988
C131	C	0.669397	-0.669511	-0.084008
C132	C	1.169397	-0.169511	0.415992
C133	C	0.669742	-0.639817	0.000069
C134	C	1.169742	-0.139817	0.500069
C135	C	0.675269	-0.182453	-0.083953
C136	C	1.175269	0.317547	0.416047
C137	C	0.675989	-0.123053	-0.083939
C138	C	1.175989	0.376947	0.416061
C139	C	0.675972	-0.123067	0.084203
C140	C	1.175972	0.376933	0.584203
C141	C	0.675254	-0.182462	0.084191
C142	C	1.175254	0.317538	0.584191
C143	C	0.674901	-0.212153	0.000105
C144	C	1.174901	0.287847	0.500105
O145	O	0.674127	-0.276435	0.155625
O146	O	1.174127	0.223565	0.655625
O147	O	0.674128	-0.276459	-0.155463
O148	O	1.174128	0.223541	0.344537
C149	C	0.776479	0.069245	0.000117
C150	C	1.276479	0.569245	0.500117
C151	C	0.839698	0.069999	0.000122
C152	C	1.339698	0.569999	0.500122
C153	C	0.667562	0.178163	0.000075
C154	C	1.167562	0.678163	0.500075
C155	C	0.668317	0.241381	0.000060
C156	C	1.168317	0.741381	0.500060
N157	N	0.672311	0.074030	0.219574
N158	N	1.172311	0.574030	0.719574
N159	N	0.672349	0.073989	-0.219375
N160	N	1.172349	0.573989	0.280625
C161	C	0.631636	0.114681	0.469212
C162	C	1.131636	0.614681	0.969212
C163	C	0.683034	0.125434	0.531021
C164	C	1.183034	0.625434	1.031021
C165	C	0.672325	0.074016	0.408736
C166	C	1.172325	0.574016	0.908736
C167	C	0.620940	0.063276	0.531020
C168	C	1.120940	0.563276	1.031020
C169	C	0.672334	0.074004	0.591457
C170	C	1.172334	0.574004	1.091457
C171	C	0.723750	0.084795	0.469184
C172	C	1.223750	0.584795	0.969184
C173	C	0.661622	0.022615	0.469178
C174	C	1.161622	0.522615	0.969178
C175	C	0.713057	0.033346	0.530960
C176	C	1.213057	0.533346	1.030960
C177	C	0.672319	0.074025	0.303475
C178	C	1.172319	0.574025	0.803475
C179	C	0.672346	0.073996	0.696716
C180	C	1.172346	0.573996	1.196716
H181	H	0.226221	0.074614	-0.236502
H182	H	0.726221	0.574614	0.263498
H183	H	0.672996	-0.372103	-0.236506
H184	H	1.172996	0.127897	0.263494
H185	H	0.671692	-0.479846	-0.236516
H186	H	1.171692	0.020154	0.263484
H187	H	0.597260	0.149097	0.442100
H188	H	1.097260	0.649097	0.942100
H189	H	0.391689	0.076669	0.152620
H190	H	0.891689	0.576669	0.652620
H191	H	0.499444	0.077945	-0.152451
H192	H	0.999444	0.577945	0.347549
H193	H	0.652544	-0.020835	0.441993
H194	H	1.152544	0.479165	0.941993
H195	H	0.692096	0.168898	0.558185
H196	H	1.192096	0.668898	1.058185
H197	H	0.767218	0.093926	0.442136
H198	H	1.267218	0.593926	0.942136
H199	H	0.747509	-0.001050	0.557901
H200	H	1.247509	0.498950	1.057901
H201	H	0.226203	0.074676	0.236698
H202	H	0.726203	0.574676	0.736698
H203	H	0.118472	0.073318	-0.236501
H204	H	0.618472	0.573318	0.263499
H205	H	0.674958	-0.206646	0.152648
H206	H	1.174958	0.293354	0.652648
H207	H	0.577480	0.054197	0.558185
H208	H	1.077480	0.554197	1.058185
H209	H	0.676259	-0.098879	0.152651
H210	H	1.176259	0.401121	0.652651
H211	H	0.676292	-0.098874	-0.152403
H212	H	1.176292	0.401126	0.347597
H213	H	0.499436	0.077976	0.152604
H214	H	0.999436	0.577976	0.652604
H215	H	0.118460	0.073374	0.236705
H216	H	0.618460	0.573374	0.736705
H217	H	0.391676	0.076649	-0.152451
H218	H	0.891676	0.576649	0.347549
H219	H	-0.047024	0.071380	0.152651
H220	H	0.452976	0.571380	0.652651
H221	H	0.672919	-0.372104	0.236695
H222	H	1.172919	0.127896	0.736695
H223	H	-0.154788	0.070080	0.152649
H224	H	0.345212	0.570080	0.652649
H225	H	-0.154775	0.070062	-0.152409
H226	H	0.345225	0.570062	0.347591
H227	H	-0.047025	0.071349	-0.152419
H228	H	0.452975	0.571349	0.347581
H229	H	0.674978	-0.206620	-0.152423
H230	H	1.174978	0.293380	0.347577
H231	H	0.668377	-0.753097	0.152591
H232	H	1.168377	-0.253097	0.652591
H233	H	0.668398	-0.753098	-0.152467
H234	H	1.168398	-0.253098	0.347533
H235	H	0.669697	-0.645333	-0.152466
H236	H	1.169697	-0.145333	0.347534
H237	H	0.671634	-0.479854	0.236691
H238	H	1.171634	0.020146	0.736691
H239	H	0.669661	-0.645348	0.152604
H240	H	1.169661	-0.145348	0.652604
